0:0:0
     RDKit          3D

 92102  0  0  1  0  0  0  0  0999 V2000
  -29.1840  -20.5670   20.1450 C   0  0  0  0  0  0  0  0  0  0  0  0
  -29.1650  -20.3810   21.4010 N   0  0  0  0  0  2  0  0  0  0  0  0
  -31.6510  -22.7220   24.0180 C   0  0  0  0  0  2  0  0  0  0  0  0
  -32.3050  -21.7020   23.0190 C   0  0  0  0  0  2  0  0  0  0  0  0
  -30.2270  -22.3140   24.5560 C   0  0  0  0  0  2  0  0  0  0  0  0
  -31.3450  -19.2700   24.8900 C   0  0  0  0  0  2  0  0  0  0  0  0
  -30.3250  -18.6090   23.9650 C   0  0  0  0  0  2  0  0  0  0  0  0
  -31.2790  -20.6710   22.5340 C   0  0  0  0  0  3  0  0  0  0  0  0
  -29.6390  -21.1370   23.7610 C   0  0  0  0  0  3  0  0  0  0  0  0
  -29.8990  -21.2950   22.2560 C   0  0  0  0  0  3  0  0  0  0  0  0
  -30.6970  -20.0620   23.7930 C   0  0  2  0  0  0  0  0  0  0  0  0
  -29.4980  -18.9040   19.3830 C   0  0  0  0  0  3  0  0  0  0  0  0
  -29.6150  -17.1390   20.0550 C   0  0  0  0  0  2  0  0  0  0  0  0
  -30.3580  -15.5120   19.6490 C   0  0  0  0  0  0  0  0  0  0  0  0
  -30.3540  -13.0030   18.7930 C   0  0  0  0  0  2  0  0  0  0  0  0
  -29.3370  -12.7040   17.6550 C   0  0  0  0  0  2  0  0  0  0  0  0
  -27.9530  -12.3640   18.2300 C   0  0  0  0  0  2  0  0  0  0  0  0
  -27.5620  -13.3340   19.3680 C   0  0  0  0  0  3  0  0  0  0  0  0
  -28.6980  -13.5730   20.3890 C   0  0  0  0  0  2  0  0  0  0  0  0
  -29.8530  -14.1510   19.6630 N   0  0  0  0  0  0  0  0  0  0  0  0
  -31.5380  -15.4840   19.2520 O   0  0  0  0  0  0  0  0  0  0  0  0
  -25.2790  -13.8340   20.3740 C   0  0  0  0  0  0  0  0  0  0  0  0
  -24.2560  -13.0370   20.8050 C   0  0  0  0  0  0  0  0  0  0  0  0
  -24.7170  -11.6900   20.6690 C   0  0  0  0  0  0  0  0  0  0  0  0
  -26.2960  -12.9780   19.9950 N   0  0  0  0  0  0  0  0  0  0  0  0
  -25.9780  -11.6780   20.2390 N   0  0  0  0  0  0  0  0  0  0  0  0
  -24.0100  -10.4200   20.8720 C   0  0  0  0  0  0  0  0  0  0  0  0
  -24.4970   -9.4330   21.7590 C   0  0  0  0  0  3  0  0  0  0  0  0
  -23.7810   -8.2310   21.9520 C   0  0  0  0  0  3  0  0  0  0  0  0
  -22.5650   -8.0040   21.2600 C   0  0  0  0  0  0  0  0  0  0  0  0
  -22.0950   -8.9840   20.3680 C   0  0  0  0  0  3  0  0  0  0  0  0
  -22.8110  -10.1790   20.1710 C   0  0  0  0  0  3  0  0  0  0  0  0
  -21.8180   -6.8540   21.3630 O   0  0  0  0  0  0  0  0  0  0  0  0
  -21.8040   -6.1110   22.5170 C   0  0  0  0  0  0  0  0  0  0  0  0
  -21.4110   -6.6630   23.7560 C   0  0  0  0  0  3  0  0  0  0  0  0
  -21.3440   -5.8450   24.9020 C   0  0  0  0  0  3  0  0  0  0  0  0
  -21.6620   -4.4770   24.8120 C   0  0  0  0  0  0  0  0  0  0  0  0
  -22.0480   -3.9250   23.5790 C   0  0  0  0  0  3  0  0  0  0  0  0
  -22.1190   -4.7390   22.4340 C   0  0  0  0  0  0  0  0  0  0  0  0
  -22.4710   -4.1980   21.2440 F   0  0  0  0  0  0  0  0  0  0  0  0
  -21.5940   -3.6900   25.9110 F   0  0  0  0  0  0  0  0  0  0  0  0
  -22.8930  -13.5000   21.2240 C   0  0  0  0  0  0  0  0  0  0  0  0
  -22.2540  -12.7740   22.1350 N   0  0  0  0  0  0  0  0  0  0  0  0
  -22.4060  -14.5390   20.7770 O   0  0  0  0  0  0  0  0  0  0  0  0
  -22.6580  -11.9290   22.5040 H   0  0  0  0  0  0  0  0  0  0  0  0
  -21.3450  -13.0660   22.4670 H   0  0  0  0  0  0  0  0  0  0  0  0
  -25.4290  -15.2130   20.2440 N   0  0  0  0  0  0  0  0  0  0  0  0
  -24.6810  -15.8610   20.4650 H   0  0  0  0  0  0  0  0  0  0  0  0
  -26.2600  -15.6700   19.8950 H   0  0  0  0  0  0  0  0  0  0  0  0
  -29.0730  -22.3500   19.5690 C   0  0  0  0  0  2  0  0  0  0  0  0
  -28.0870  -23.9080   20.0010 C   0  0  0  0  0  2  0  0  0  0  0  0
  -28.2130  -25.6210   19.8860 O   0  0  0  0  0  0  0  0  0  0  0  0
  -24.5430  -31.6420   22.9590 C   0  0  0  0  0  0  0  0  0  0  0  0
  -27.1720  -26.7430   19.8770 C   0  0  0  0  0  0  0  0  0  0  0  0
  -23.3620  -30.2210   21.3340 C   0  0  0  0  0  3  0  0  0  0  0  0
  -24.8290  -28.6350   19.8830 C   0  0  0  0  0  0  0  0  0  0  0  0
  -25.9230  -30.4710   21.1500 C   0  0  0  0  0  2  0  0  0  0  0  0
  -26.0250  -29.0520   20.4810 C   0  0  0  0  0  0  0  0  0  0  0  0
  -27.1870  -28.1320   20.4410 C   0  0  0  0  0  3  0  0  0  0  0  0
  -25.9340  -26.5050   19.2360 C   0  0  0  0  0  3  0  0  0  0  0  0
  -24.8140  -27.3850   19.2400 C   0  0  0  0  0  3  0  0  0  0  0  0
  -23.5930  -29.5390   19.9530 C   0  0  0  0  0  2  0  0  0  0  0  0
  -24.6330  -30.8070   21.8660 N   0  0  0  0  0  0  0  0  0  0  0  0
  -23.4530  -31.9020   23.4970 O   0  0  0  0  0  0  0  0  0  0  0  0
  -22.6970  -29.2130   22.3090 C   0  0  0  0  0  0  0  0  0  0  0  0
  -21.3660  -29.0290   22.2170 N   0  0  0  0  0  0  0  0  0  0  0  0
  -23.3900  -28.5930   23.1200 O   0  0  0  0  0  0  0  0  0  0  0  0
  -20.8570  -29.5910   21.5520 H   0  0  0  0  0  0  0  0  0  0  0  0
  -18.0200  -27.7310   22.7810 C   0  0  0  0  0  0  0  0  0  0  0  0
  -20.5760  -28.0660   22.9950 C   0  0  0  0  0  3  0  0  0  0  0  0
  -20.7060  -26.6380   22.4150 C   0  0  0  0  0  2  0  0  0  0  0  0
  -19.5950  -26.2910   21.4190 C   0  0  0  0  0  2  0  0  0  0  0  0
  -18.2210  -26.3890   22.0870 C   0  0  0  0  0  2  0  0  0  0  0  0
  -19.1240  -28.5220   23.1920 C   0  0  0  0  0  0  0  0  0  0  0  0
  -18.8760  -29.7680   23.8070 C   0  0  0  0  0  3  0  0  0  0  0  0
  -17.5590  -30.2270   24.0050 C   0  0  0  0  0  3  0  0  0  0  0  0
  -16.4700  -29.4310   23.6090 C   0  0  0  0  0  3  0  0  0  0  0  0
  -16.7010  -28.1840   23.0040 C   0  0  0  0  0  3  0  0  0  0  0  0
  -25.8010  -32.3220   23.5790 C   0  0  0  0  0  3  0  0  0  0  0  0
  -25.4550  -33.7210   23.8860 N   0  0  0  0  0  0  0  0  0  0  0  0
  -25.7770  -34.7800   23.1320 C   0  0  0  0  0  0  0  0  0  0  0  0
  -26.4520  -34.6800   22.1020 O   0  0  0  0  0  0  0  0  0  0  0  0
  -24.8560  -33.8660   24.6850 H   0  0  0  0  0  0  0  0  0  0  0  0
  -24.0270  -36.5570   22.7850 C   0  0  0  0  0  1  0  0  0  0  0  0
  -25.2810  -36.1680   23.5830 C   0  0  0  0  0  3  0  0  0  0  0  0
  -27.4120  -37.0970   24.3860 C   0  0  0  0  0  1  0  0  0  0  0  0
  -26.2970  -37.2350   23.4530 N   0  0  0  0  0  0  0  0  0  0  0  0
  -25.8770  -38.1530   23.5930 H   0  0  0  0  0  0  0  0  0  0  0  0
  -26.3150  -31.5960   24.8830 C   0  0  1  0  0  0  0  0  0  0  0  0
  -25.2180  -31.3940   25.9580 C   0  0  0  0  0  1  0  0  0  0  0  0
  -26.8990  -30.2060   24.5430 C   0  0  0  0  0  1  0  0  0  0  0  0
  -27.4610  -32.4160   25.5170 C   0  0  0  0  0  1  0  0  0  0  0  0
  1  2  1  0
  3  5  1  0
  4  3  1  0
  7  6  1  0
  8  4  1  0
  8 11  1  0
  9 11  1  0
  9  5  1  0
 10  2  1  0
 10  8  1  0
 10  9  1  0
 11  7  1  6
 11  6  1  0
 12 13  1  0
 12  1  2  0
 14 20  1  0
 14 13  1  0
 15 20  1  0
 16 17  1  0
 16 15  1  0
 18 17  1  0
 18 25  1  0
 18 19  1  0
 20 19  1  0
 21 14  2  0
 22 23  2  0
 23 42  1  0
 24 23  1  0
 24 27  1  0
 25 26  1  0
 25 22  1  0
 26 24  2  0
 27 28  1  0
 28 29  2  0
 30 33  1  0
 30 29  1  0
 31 30  2  0
 32 31  1  0
 32 27  2  0
 33 34  1  0
 34 35  1  0
 35 36  2  0
 37 36  1  0
 37 41  1  0
 38 37  2  0
 39 34  2  0
 39 38  1  0
 40 39  1  0
 42 43  1  0
 43 46  1  0
 43 45  1  0
 44 42  2  0
 47 22  1  0
 47 48  1  0
 49 47  1  0
 50 51  1  0
 50  1  1  0
 52 51  1  0
 53 64  2  0
 54 52  1  0
 54 59  1  0
 55 63  1  0
 55 65  1  0
 56 62  1  0
 56 58  1  0
 57 63  1  0
 58 57  1  0
 59 58  2  0
 60 61  1  0
 60 54  2  0
 61 56  2  0
 62 55  1  0
 63 53  1  0
 65 67  2  0
 66 65  1  0
 68 66  1  0
 69 78  2  0
 69 74  1  0
 70 66  1  0
 70 74  1  0
 71 70  1  0
 72 73  1  0
 72 71  1  0
 73 69  1  0
 74 75  2  0
 75 76  1  0
 77 76  2  0
 78 77  1  0
 79 53  1  0
 79 80  1  0
 79 89  1  0
 80 83  1  0
 81 85  1  0
 81 80  1  0
 82 81  2  0
 85 84  1  0
 87 85  1  0
 87 88  1  0
 87 86  1  0
 89 92  1  1
 89 90  1  0
 91 89  1  0
M  ISO  4  13 100  14 100  51 101  52 101
M  END
>  <TORSDO>  (1) 
F 21

>  <SCORE>  (1) 
-9.345

>  <name>  (1) 
0

>  <ligand_id>  (1) 
0

>  <original_smiles>  (1) 
[H]c1c([H])c([H])c2c(c1[H])C([H])([H])C([H])([H])C([H])([H])C2([H])N([H])C(=O)C1([H])N(C(=O)C([H])(N([H])C(=O)C([H])(N([H])C([H])([H])[H])C([H])([H])[H])C(C([H])([H])[H])(C([H])([H])[H])C([H])([H])[H])C([H])([H])c2c([H])c(OC([H])([H])C([H])([H])C(=NC3([H])C4([H])C([H])([H])C([H])([H])C([H])([H])C3([H])C43C([H])([H])C3([H])[H])C([H])([H])C([H])([H])C(=O)N3C([H])([H])C([H])([H])C([H])([H])C([H])(n4nc(-c5c([H])c([H])c(Oc6c([H])c([H])c(F)c([H])c6F)c([H])c5[H])c(C(=O)N([H])[H])c4N([H])[H])C3([H])[H])c([H])c([H])c2C1([H])[H]

>  <smiles>  (1) 
[H]c1c([H])c([H])c2c(c1[H])C([H])([H])C([H])([H])C([H])([H])C2([H])N([H])C(=O)C1([H])N(C(=O)C([H])(N([H])C(=O)C([H])(N([H])C([H])([H])[H])C([H])([H])[H])C(C([H])([H])[H])(C([H])([H])[H])C([H])([H])[H])C([H])([H])c2c([H])c(OC([H])([H])C([H])([H])C(=NC3([H])C4([H])C([H])([H])C([H])([H])C([H])([H])C3([H])C43C([H])([H])C3([H])[H])C([H])([H])C([H])([H])C(=O)N3C([H])([H])C([H])([H])C([H])([H])C([H])(n4nc(-c5c([H])c([H])c(Oc6c([H])c([H])c(F)c([H])c6F)c([H])c5[H])c(C(=O)N([H])[H])c4N([H])[H])C3([H])[H])c([H])c([H])c2C1([H])[H]

$$$$
1:0:0
     RDKit          3D

 87 95  0  0  1  0  0  0  0  0999 V2000
  -28.8250  -22.0630   18.8040 C   0  0  0  0  0  2  0  0  0  0  0  0
  -28.5790  -22.8770   20.9520 C   0  0  0  0  0  2  0  0  0  0  0  0
  -28.8500  -23.6690   18.7620 C   0  0  0  0  0  3  0  0  0  0  0  0
  -28.1320  -24.2580   20.0250 C   0  0  0  0  0  3  0  0  0  0  0  0
  -30.3010  -24.1780   18.6530 C   0  0  0  0  0  1  0  0  0  0  0  0
  -29.1380  -21.5770   20.1800 N   0  0  1  0  0  4  0  0  0  0  0  0
  -30.1410  -21.6750   20.2590 H   0  0  0  0  0  0  0  0  0  0  0  0
  -28.2270  -25.8940   20.2680 O   0  0  0  0  0  0  0  0  0  0  0  0
  -24.6400  -31.8550   23.1730 C   0  0  0  0  0  0  0  0  0  0  0  0
  -27.1920  -26.9640   20.1770 C   0  0  0  0  0  0  0  0  0  0  0  0
  -23.4370  -30.4460   21.5520 C   0  0  0  0  0  3  0  0  0  0  0  0
  -24.8810  -28.8300   20.1330 C   0  0  0  0  0  0  0  0  0  0  0  0
  -26.0010  -30.6620   21.3870 C   0  0  0  0  0  2  0  0  0  0  0  0
  -26.0690  -29.2460   20.7430 C   0  0  0  0  0  0  0  0  0  0  0  0
  -27.2170  -28.3340   20.7400 C   0  0  0  0  0  3  0  0  0  0  0  0
  -25.9710  -26.6960   19.5180 C   0  0  0  0  0  3  0  0  0  0  0  0
  -24.8530  -27.5740   19.5040 C   0  0  0  0  0  3  0  0  0  0  0  0
  -23.6590  -29.7480   20.1820 C   0  0  0  0  0  2  0  0  0  0  0  0
  -24.7150  -31.0140   22.0910 N   0  0  0  0  0  0  0  0  0  0  0  0
  -23.5550  -32.1490   23.7000 O   0  0  0  0  0  0  0  0  0  0  0  0
  -22.7480  -29.4580   22.5310 C   0  0  0  0  0  0  0  0  0  0  0  0
  -21.4160  -29.3030   22.4220 N   0  0  0  0  0  0  0  0  0  0  0  0
  -23.4180  -28.8340   23.3560 O   0  0  0  0  0  0  0  0  0  0  0  0
  -20.9270  -29.8580   21.7330 H   0  0  0  0  0  0  0  0  0  0  0  0
  -18.0330  -28.1070   22.9610 C   0  0  0  0  0  0  0  0  0  0  0  0
  -20.5950  -28.3730   23.2050 C   0  0  0  0  0  3  0  0  0  0  0  0
  -20.6900  -26.9360   22.6390 C   0  0  0  0  0  2  0  0  0  0  0  0
  -19.5810  -26.6080   21.6340 C   0  0  0  0  0  2  0  0  0  0  0  0
  -18.2040  -26.7550   22.2870 C   0  0  0  0  0  2  0  0  0  0  0  0
  -19.1550  -28.8730   23.3770 C   0  0  0  0  0  0  0  0  0  0  0  0
  -18.9370  -30.1350   23.9710 C   0  0  0  0  0  3  0  0  0  0  0  0
  -17.6330  -30.6330   24.1470 C   0  0  0  0  0  3  0  0  0  0  0  0
  -16.5260  -29.8650   23.7460 C   0  0  0  0  0  3  0  0  0  0  0  0
  -16.7270  -28.6030   23.1600 C   0  0  0  0  0  3  0  0  0  0  0  0
  -25.9160  -32.5010   23.7960 C   0  0  0  0  0  3  0  0  0  0  0  0
  -26.4450  -31.7270   25.0670 C   0  0  1  0  0  0  0  0  0  0  0  0
  -25.3620  -31.4840   26.1450 C   0  0  0  0  0  1  0  0  0  0  0  0
  -27.0280  -30.3510   24.6720 C   0  0  0  0  0  1  0  0  0  0  0  0
  -27.6010  -32.5210   25.7220 C   0  0  0  0  0  1  0  0  0  0  0  0
  -25.5920  -33.8960   24.1510 N   0  0  0  0  0  0  0  0  0  0  0  0
  -25.9010  -34.9680   23.4090 C   0  0  0  0  0  0  0  0  0  0  0  0
  -26.5480  -34.8880   22.3620 O   0  0  0  0  0  0  0  0  0  0  0  0
  -25.0130  -34.0290   24.9670 H   0  0  0  0  0  0  0  0  0  0  0  0
  -24.1410  -36.7500   23.1380 C   0  0  0  0  0  1  0  0  0  0  0  0
  -25.4130  -36.3460   23.9030 C   0  0  0  0  0  3  0  0  0  0  0  0
  -27.5670  -37.2420   24.6730 C   0  0  0  0  0  1  0  0  0  0  0  0
  -26.4300  -37.4140   23.7720 N   0  0  0  0  0  0  0  0  0  0  0  0
  -26.0190  -38.3260   23.9530 H   0  0  0  0  0  0  0  0  0  0  0  0
  -28.8900  -19.9670   20.5470 C   0  0  0  0  0  3  0  0  0  0  0  0
  -29.8540  -18.4880   20.2210 C   0  0  0  0  0  3  0  0  0  0  0  0
  -29.5120  -16.7520   20.5200 C   0  0  0  0  0  2  0  0  0  0  0  0
  -30.3670  -15.2470   20.2730 C   0  0  0  0  0  0  0  0  0  0  0  0
  -30.3490  -12.8130   19.3760 C   0  0  0  0  0  2  0  0  0  0  0  0
  -29.4110  -12.6670   18.1480 C   0  0  0  0  0  2  0  0  0  0  0  0
  -27.9590  -12.4050   18.5880 C   0  0  0  0  0  2  0  0  0  0  0  0
  -27.5300  -13.3430   19.7400 C   0  0  0  0  0  3  0  0  0  0  0  0
  -28.5870  -13.4430   20.8600 C   0  0  0  0  0  2  0  0  0  0  0  0
  -29.8350  -13.9290   20.2490 N   0  0  0  0  0  0  0  0  0  0  0  0
  -31.5720  -15.2750   19.9810 O   0  0  0  0  0  0  0  0  0  0  0  0
  -25.1600  -13.9040   20.5010 C   0  0  0  0  0  0  0  0  0  0  0  0
  -24.0980  -13.1280   20.8730 C   0  0  0  0  0  0  0  0  0  0  0  0
  -24.5660  -11.7770   20.8440 C   0  0  0  0  0  0  0  0  0  0  0  0
  -26.2020  -13.0290   20.2520 N   0  0  0  0  0  0  0  0  0  0  0  0
  -25.8560  -11.7420   20.5280 N   0  0  0  0  0  0  0  0  0  0  0  0
  -23.8370  -10.5160   21.0430 C   0  0  0  0  0  0  0  0  0  0  0  0
  -24.2840   -9.5390   21.9610 C   0  0  0  0  0  3  0  0  0  0  0  0
  -23.5550   -8.3440   22.1450 C   0  0  0  0  0  3  0  0  0  0  0  0
  -22.3670   -8.1160   21.4110 C   0  0  0  0  0  0  0  0  0  0  0  0
  -21.9410   -9.0800   20.4800 C   0  0  0  0  0  3  0  0  0  0  0  0
  -22.6680  -10.2670   20.2940 C   0  0  0  0  0  3  0  0  0  0  0  0
  -21.6100   -6.9720   21.5050 O   0  0  0  0  0  0  0  0  0  0  0  0
  -21.5920   -6.2110   22.6450 C   0  0  0  0  0  0  0  0  0  0  0  0
  -21.2250   -6.7520   23.8960 C   0  0  0  0  0  3  0  0  0  0  0  0
  -21.1540   -5.9200   25.0310 C   0  0  0  0  0  3  0  0  0  0  0  0
  -21.4410   -4.5460   24.9160 C   0  0  0  0  0  0  0  0  0  0  0  0
  -21.8050   -4.0040   23.6700 C   0  0  0  0  0  3  0  0  0  0  0  0
  -21.8760   -4.8340   22.5380 C   0  0  0  0  0  0  0  0  0  0  0  0
  -22.2060   -4.3030   21.3370 F   0  0  0  0  0  0  0  0  0  0  0  0
  -21.3670   -3.7450   26.0050 F   0  0  0  0  0  0  0  0  0  0  0  0
  -22.7010  -13.6030   21.1460 C   0  0  0  0  0  0  0  0  0  0  0  0
  -21.9780  -12.9120   22.0200 N   0  0  0  0  0  0  0  0  0  0  0  0
  -22.2600  -14.6240   20.6190 O   0  0  0  0  0  0  0  0  0  0  0  0
  -22.3510  -12.0880   22.4680 H   0  0  0  0  0  0  0  0  0  0  0  0
  -21.0400  -13.2100   22.2430 H   0  0  0  0  0  0  0  0  0  0  0  0
  -25.3250  -15.2750   20.3240 N   0  0  0  0  0  0  0  0  0  0  0  0
  -24.5680  -15.9380   20.4490 H   0  0  0  0  0  0  0  0  0  0  0  0
  -26.1790  -15.7050   19.9910 H   0  0  0  0  0  0  0  0  0  0  0  0
  1  6  1  0
  3  5  1  0
  3  1  1  0
  3  4  1  0
  4  8  1  0
  4  2  1  0
  6  7  1  6
  6 49  1  0
  6  2  1  0
  9 20  2  0
 10  8  1  0
 10 15  1  0
 11 19  1  0
 11 21  1  0
 12 18  1  0
 12 14  1  0
 13 19  1  0
 14 13  1  0
 15 14  2  0
 16 10  2  0
 17 16  1  0
 17 12  2  0
 18 11  1  0
 19  9  1  0
 21 23  2  0
 22 21  1  0
 24 22  1  0
 25 34  2  0
 25 30  1  0
 26 22  1  0
 26 30  1  0
 27 26  1  0
 28 29  1  0
 28 27  1  0
 29 25  1  0
 30 31  2  0
 31 32  1  0
 33 32  2  0
 34 33  1  0
 35  9  1  0
 35 40  1  0
 35 36  1  0
 36 39  1  1
 36 37  1  0
 38 36  1  0
 40 43  1  0
 41 45  1  0
 41 40  1  0
 42 41  2  0
 45 44  1  0
 47 45  1  0
 47 48  1  0
 47 46  1  0
 50 51  1  0
 50 49  2  0
 52 51  1  0
 53 58  1  0
 54 55  1  0
 54 53  1  0
 56 55  1  0
 56 63  1  0
 56 57  1  0
 58 52  1  0
 58 57  1  0
 59 52  2  0
 60 61  2  0
 61 80  1  0
 62 61  1  0
 62 65  1  0
 63 60  1  0
 63 64  1  0
 64 62  2  0
 65 66  1  0
 66 67  2  0
 68 71  1  0
 68 67  1  0
 69 68  2  0
 70 69  1  0
 70 65  2  0
 71 72  1  0
 72 73  1  0
 73 74  2  0
 75 74  1  0
 75 79  1  0
 76 75  2  0
 77 72  2  0
 77 76  1  0
 78 77  1  0
 80 81  1  0
 81 84  1  0
 81 83  1  0
 82 80  2  0
 85 86  1  0
 85 60  1  0
 87 85  1  0
M  ISO  4   4 101   8 101  51 100  52 100
M  END
>  <TORSDO>  (2) 
F 19

>  <SCORE>  (2) 
-16.240

>  <name>  (2) 
1

>  <ligand_id>  (2) 
1

>  <original_smiles>  (2) 
[H]c1c([H])c([H])c2c(c1[H])C([H])([H])C([H])([H])C([H])([H])C2([H])N([H])C(=O)C1([H])N(C(=O)C([H])(N([H])C(=O)C([H])(N([H])C([H])([H])[H])C([H])([H])[H])C(C([H])([H])[H])(C([H])([H])[H])C([H])([H])[H])C([H])([H])c2c([H])c(OC3([H])C([H])(C([H])([H])[H])C([H])([H])[N+]([H])(C([H])([H])C([H])([H])C([H])([H])C(=O)N4C([H])([H])C([H])([H])C([H])([H])C([H])(n5nc(-c6c([H])c([H])c(Oc7c([H])c([H])c(F)c([H])c7F)c([H])c6[H])c(C(=O)N([H])[H])c5N([H])[H])C4([H])[H])C3([H])[H])c([H])c([H])c2C1([H])[H]

>  <smiles>  (2) 
[H]c1c([H])c([H])c2c(c1[H])C([H])([H])C([H])([H])C([H])([H])C2([H])N([H])C(=O)C1([H])N(C(=O)C([H])(N([H])C(=O)C([H])(N([H])C([H])([H])[H])C([H])([H])[H])C(C([H])([H])[H])(C([H])([H])[H])C([H])([H])[H])C([H])([H])c2c([H])c(OC3([H])C([H])(C([H])([H])[H])C([H])([H])[N+]([H])(C([H])([H])C([H])([H])C([H])([H])C(=O)N4C([H])([H])C([H])([H])C([H])([H])C([H])(n5nc(-c6c([H])c([H])c(Oc7c([H])c([H])c(F)c([H])c7F)c([H])c6[H])c(C(=O)N([H])[H])c5N([H])[H])C4([H])[H])C3([H])[H])c([H])c([H])c2C1([H])[H]

$$$$
2:0:0
     RDKit          3D

 98107  0  0  1  0  0  0  0  0999 V2000
  -34.2220  -23.7450   20.0280 C   0  0  0  0  0  2  0  0  0  0  0  0
  -33.6160  -22.6110   20.8750 C   0  0  0  0  0  2  0  0  0  0  0  0
  -33.5680  -25.1040   20.3390 C   0  0  0  0  0  2  0  0  0  0  0  0
  -31.5160  -23.9880   21.1120 C   0  0  0  0  0  2  0  0  0  0  0  0
  -32.0750  -22.5920   20.7580 C   0  0  0  0  0  3  0  0  0  0  0  0
  -32.0900  -25.0220   20.2120 N   0  0  1  0  0  4  0  0  0  0  0  0
  -31.8990  -24.7010   19.2760 H   0  0  0  0  0  0  0  0  0  0  0  0
  -31.4360  -21.4790   21.6220 C   0  0  0  0  0  2  0  0  0  0  0  0
  -31.4470  -20.1710   20.9280 N   0  0  0  0  0  4  0  0  0  0  0  0
  -32.3240  -20.0860   20.4400 H   0  0  0  0  0  0  0  0  0  0  0  0
  -30.7210  -20.1600   20.2270 H   0  0  0  0  0  0  0  0  0  0  0  0
  -30.2250  -19.1100   22.8600 C   0  0  0  0  0  1  0  0  0  0  0  0
  -31.3220  -18.9700   21.7880 C   0  0  0  0  0  3  0  0  0  0  0  0
  -32.1580  -17.1430   20.1020 C   0  0  0  0  0  2  0  0  0  0  0  0
  -31.5780  -16.3720   21.2820 C   0  0  0  0  0  3  0  0  0  0  0  0
  -31.0550  -17.7560   20.9140 C   0  0  0  0  0  3  0  0  0  0  0  0
  -30.6710  -15.1450   21.1420 C   0  0  0  0  0  2  0  0  0  0  0  0
  -31.1480  -14.0320   20.1890 C   0  0  0  0  0  0  0  0  0  0  0  0
  -30.6450  -11.9560   18.9460 C   0  0  0  0  0  2  0  0  0  0  0  0
  -29.6970  -12.2480   17.7690 C   0  0  0  0  0  2  0  0  0  0  0  0
  -28.2270  -12.1980   18.2280 C   0  0  0  0  0  2  0  0  0  0  0  0
  -27.9730  -13.0430   19.5060 C   0  0  0  0  0  3  0  0  0  0  0  0
  -29.0310  -12.7350   20.5870 C   0  0  0  0  0  2  0  0  0  0  0  0
  -30.3650  -12.9380   20.0030 N   0  0  0  0  0  0  0  0  0  0  0  0
  -32.2150  -14.1770   19.5840 O   0  0  0  0  0  0  0  0  0  0  0  0
  -25.6190  -13.7950   20.2310 C   0  0  0  0  0  0  0  0  0  0  0  0
  -24.5160  -13.0890   20.6310 C   0  0  0  0  0  0  0  0  0  0  0  0
  -24.9020  -11.7140   20.6220 C   0  0  0  0  0  0  0  0  0  0  0  0
  -26.6120  -12.8540   20.0070 N   0  0  0  0  0  0  0  0  0  0  0  0
  -26.1850  -11.5990   20.2970 N   0  0  0  0  0  0  0  0  0  0  0  0
  -24.1120  -10.4970   20.8480 C   0  0  0  0  0  0  0  0  0  0  0  0
  -24.4850   -9.5470   21.8250 C   0  0  0  0  0  3  0  0  0  0  0  0
  -23.6990   -8.3940   22.0380 C   0  0  0  0  0  3  0  0  0  0  0  0
  -22.5260   -8.1830   21.2750 C   0  0  0  0  0  0  0  0  0  0  0  0
  -22.1730   -9.1200   20.2880 C   0  0  0  0  0  3  0  0  0  0  0  0
  -22.9590  -10.2640   20.0720 C   0  0  0  0  0  3  0  0  0  0  0  0
  -21.7170   -7.0790   21.3940 O   0  0  0  0  0  0  0  0  0  0  0  0
  -21.5920   -6.4020   22.5820 C   0  0  0  0  0  0  0  0  0  0  0  0
  -21.1490   -7.0420   23.7600 C   0  0  0  0  0  3  0  0  0  0  0  0
  -20.9670   -6.2930   24.9400 C   0  0  0  0  0  3  0  0  0  0  0  0
  -21.2190   -4.9080   24.9420 C   0  0  0  0  0  0  0  0  0  0  0  0
  -21.6560   -4.2690   23.7680 C   0  0  0  0  0  3  0  0  0  0  0  0
  -21.8380   -5.0140   22.5900 C   0  0  0  0  0  0  0  0  0  0  0  0
  -22.2370   -4.3890   21.4550 F   0  0  0  0  0  0  0  0  0  0  0  0
  -21.0380   -4.1890   26.0740 F   0  0  0  0  0  0  0  0  0  0  0  0
  -23.1490  -13.6460   20.9140 C   0  0  0  0  0  0  0  0  0  0  0  0
  -22.4020  -13.0100   21.8100 N   0  0  0  0  0  0  0  0  0  0  0  0
  -22.7550  -14.6790   20.3750 O   0  0  0  0  0  0  0  0  0  0  0  0
  -22.7340  -12.1730   22.2670 H   0  0  0  0  0  0  0  0  0  0  0  0
  -21.4850  -13.3640   22.0410 H   0  0  0  0  0  0  0  0  0  0  0  0
  -25.8530  -15.1510   20.0210 N   0  0  0  0  0  0  0  0  0  0  0  0
  -25.1260  -15.8500   20.1280 H   0  0  0  0  0  0  0  0  0  0  0  0
  -26.7280  -15.5380   19.6890 H   0  0  0  0  0  0  0  0  0  0  0  0
  -31.4080  -26.3360   20.3140 C   0  0  0  0  0  2  0  0  0  0  0  0
  -31.3750  -27.0620   18.9520 C   0  0  0  0  0  2  0  0  0  0  0  0
  -30.0260  -27.7200   18.6100 C   0  0  0  0  0  2  0  0  0  0  0  0
  -28.8780  -26.7150   18.3840 C   0  0  0  0  0  2  0  0  0  0  0  0
  -28.1980  -26.4160   19.6040 O   0  0  0  0  0  0  0  0  0  0  0  0
  -24.6270  -31.5270   23.0560 C   0  0  0  0  0  0  0  0  0  0  0  0
  -27.0460  -27.1440   19.7500 C   0  0  0  0  0  0  0  0  0  0  0  0
  -23.3330  -30.2340   21.3880 C   0  0  0  0  0  3  0  0  0  0  0  0
  -24.6990  -28.6920   19.8880 C   0  0  0  0  0  0  0  0  0  0  0  0
  -25.8630  -30.5130   21.1480 C   0  0  0  0  0  2  0  0  0  0  0  0
  -25.8840  -29.1610   20.4680 C   0  0  0  0  0  0  0  0  0  0  0  0
  -27.0610  -28.3900   20.4070 C   0  0  0  0  0  3  0  0  0  0  0  0
  -25.8470  -26.6640   19.1880 C   0  0  0  0  0  3  0  0  0  0  0  0
  -24.6700  -27.4360   19.2540 C   0  0  0  0  0  3  0  0  0  0  0  0
  -23.4870  -29.5920   19.9840 C   0  0  0  0  0  2  0  0  0  0  0  0
  -24.6280  -30.7690   21.9240 N   0  0  0  0  0  0  0  0  0  0  0  0
  -23.5690  -31.8200   23.6290 O   0  0  0  0  0  0  0  0  0  0  0  0
  -22.6640  -29.2040   22.3260 C   0  0  0  0  0  0  0  0  0  0  0  0
  -21.3310  -29.0890   22.2290 N   0  0  0  0  0  0  0  0  0  0  0  0
  -23.3400  -28.5130   23.0920 O   0  0  0  0  0  0  0  0  0  0  0  0
  -20.8500  -29.6950   21.5790 H   0  0  0  0  0  0  0  0  0  0  0  0
  -17.9160  -28.0490   22.7790 C   0  0  0  0  0  0  0  0  0  0  0  0
  -20.4900  -28.1590   22.9820 C   0  0  0  0  0  3  0  0  0  0  0  0
  -20.5010  -26.7540   22.3370 C   0  0  0  0  0  2  0  0  0  0  0  0
  -19.3540  -26.5370   21.3450 C   0  0  0  0  0  2  0  0  0  0  0  0
  -18.0000  -26.7250   22.0390 C   0  0  0  0  0  2  0  0  0  0  0  0
  -19.0850  -28.7300   23.2070 C   0  0  0  0  0  0  0  0  0  0  0  0
  -18.9530  -29.9760   23.8580 C   0  0  0  0  0  3  0  0  0  0  0  0
  -17.6820  -30.5370   24.0850 C   0  0  0  0  0  3  0  0  0  0  0  0
  -16.5270  -29.8500   23.6740 C   0  0  0  0  0  3  0  0  0  0  0  0
  -16.6440  -28.6080   23.0250 C   0  0  0  0  0  3  0  0  0  0  0  0
  -25.9510  -32.0810   23.6700 C   0  0  0  0  0  3  0  0  0  0  0  0
  -26.4900  -31.2130   24.8710 C   0  0  1  0  0  0  0  0  0  0  0  0
  -25.4290  -30.9340   25.9620 C   0  0  0  0  0  1  0  0  0  0  0  0
  -27.0160  -29.8490   24.3650 C   0  0  0  0  0  1  0  0  0  0  0  0
  -27.6870  -31.9280   25.5400 C   0  0  0  0  0  1  0  0  0  0  0  0
  -25.6950  -33.4630   24.0980 N   0  0  0  0  0  0  0  0  0  0  0  0
  -26.0460  -34.5520   23.3990 C   0  0  0  0  0  0  0  0  0  0  0  0
  -26.6920  -34.4950   22.3480 O   0  0  0  0  0  0  0  0  0  0  0  0
  -25.1230  -33.5830   24.9200 H   0  0  0  0  0  0  0  0  0  0  0  0
  -24.3680  -36.4110   23.1940 C   0  0  0  0  0  1  0  0  0  0  0  0
  -25.6100  -35.9210   23.9540 C   0  0  0  0  0  3  0  0  0  0  0  0
  -27.7880  -36.6830   24.7940 C   0  0  0  0  0  1  0  0  0  0  0  0
  -26.6750  -36.9460   23.8870 N   0  0  0  0  0  0  0  0  0  0  0  0
  -26.3020  -37.8680   24.1000 H   0  0  0  0  0  0  0  0  0  0  0  0
  1  3  1  0
  1  2  1  0
  5  2  1  0
  5  4  1  0
  5  8  1  0
  6 54  1  0
  6  3  1  0
  6  4  1  0
  6  7  1  6
  9  8  1  0
  9 13  1  0
 10  9  1  0
 11  9  1  0
 13 12  1  0
 14 16  1  0
 14 15  1  0
 15 17  1  0
 16 15  1  0
 16 13  1  0
 18 17  1  0
 19 24  1  0
 20 21  1  0
 20 19  1  0
 22 21  1  0
 22 29  1  0
 22 23  1  0
 24 18  1  0
 24 23  1  0
 25 18  2  0
 26 27  2  0
 27 46  1  0
 28 27  1  0
 28 31  1  0
 29 26  1  0
 29 30  1  0
 30 28  2  0
 31 32  1  0
 32 33  2  0
 34 37  1  0
 34 33  1  0
 35 34  2  0
 36 35  1  0
 36 31  2  0
 37 38  1  0
 38 43  2  0
 38 39  1  0
 39 40  2  0
 40 41  1  0
 41 45  1  0
 42 41  2  0
 43 42  1  0
 44 43  1  0
 46 47  1  0
 47 50  1  0
 47 49  1  0
 48 46  2  0
 51 52  1  0
 51 26  1  0
 53 51  1  0
 55 54  1  0
 56 55  1  0
 57 56  1  0
 57 58  1  0
 58 60  1  0
 59 70  2  0
 60 65  1  0
 61 69  1  0
 61 71  1  0
 62 68  1  0
 62 64  1  0
 63 69  1  0
 64 63  1  0
 65 64  2  0
 66 67  1  0
 66 60  2  0
 67 62  2  0
 68 61  1  0
 69 59  1  0
 71 73  2  0
 72 71  1  0
 74 72  1  0
 75 84  2  0
 75 80  1  0
 76 72  1  0
 76 80  1  0
 77 76  1  0
 78 79  1  0
 78 77  1  0
 79 75  1  0
 80 81  2  0
 81 82  1  0
 83 82  2  0
 84 83  1  0
 85 59  1  0
 85 90  1  0
 85 86  1  0
 86 89  1  1
 86 87  1  0
 88 86  1  0
 90 93  1  0
 91 95  1  0
 91 90  1  0
 92 91  2  0
 95 94  1  0
 97 95  1  0
 97 98  1  0
 97 96  1  0
M  ISO  4  17 100  18 100  57 101  58 101
M  END
>  <TORSDO>  (3) 
F 25

>  <SCORE>  (3) 
-9.984

>  <name>  (3) 
2

>  <ligand_id>  (3) 
2

>  <original_smiles>  (3) 
[H]c1c([H])c([H])c2c(c1[H])C([H])([H])C([H])([H])C([H])([H])C2([H])N([H])C(=O)C1([H])N(C(=O)C([H])(N([H])C(=O)C([H])(N([H])C([H])([H])[H])C([H])([H])[H])C(C([H])([H])[H])(C([H])([H])[H])C([H])([H])[H])C([H])([H])c2c([H])c(OC([H])([H])C([H])([H])C([H])([H])C([H])([H])[N+]3([H])C([H])([H])C([H])([H])C([H])([H])C([H])(C([H])([H])[N+]([H])([H])C([H])(C([H])([H])[H])C4([H])C([H])([H])C4([H])C([H])([H])C(=O)N4C([H])([H])C([H])([H])C([H])([H])C([H])(n5nc(-c6c([H])c([H])c(Oc7c([H])c([H])c(F)c([H])c7F)c([H])c6[H])c(C(=O)N([H])[H])c5N([H])[H])C4([H])[H])C3([H])[H])c([H])c([H])c2C1([H])[H]

>  <smiles>  (3) 
[H]c1c([H])c([H])c2c(c1[H])C([H])([H])C([H])([H])C([H])([H])C2([H])N([H])C(=O)C1([H])N(C(=O)C([H])(N([H])C(=O)C([H])(N([H])C([H])([H])[H])C([H])([H])[H])C(C([H])([H])[H])(C([H])([H])[H])C([H])([H])[H])C([H])([H])c2c([H])c(OC([H])([H])C([H])([H])C([H])([H])C([H])([H])[N+]3([H])C([H])([H])C([H])([H])C([H])([H])C([H])(C([H])([H])[N+]([H])([H])C([H])(C([H])([H])[H])C4([H])C([H])([H])C4([H])C([H])([H])C(=O)N4C([H])([H])C([H])([H])C([H])([H])C([H])(n5nc(-c6c([H])c([H])c(Oc7c([H])c([H])c(F)c([H])c7F)c([H])c6[H])c(C(=O)N([H])[H])c5N([H])[H])C4([H])[H])C3([H])[H])c([H])c([H])c2C1([H])[H]

$$$$
3:0:0
     RDKit          3D

 92101  0  0  1  0  0  0  0  0999 V2000
  -28.9910  -20.5350   21.1980 C   0  0  0  0  0  2  0  0  0  0  0  0
  -29.1730  -21.8320   20.3540 C   0  0  0  0  0  2  0  0  0  0  0  0
  -28.1070  -22.9300   20.6200 C   0  0  0  0  0  2  0  0  0  0  0  0
  -28.2490  -24.2030   19.7420 C   0  0  0  0  0  2  0  0  0  0  0  0
  -27.6730  -25.4800   20.3970 C   0  0  0  0  0  2  0  0  0  0  0  0
  -27.8630  -26.6700   19.6080 O   0  0  0  0  0  0  0  0  0  0  0  0
  -24.4860  -31.7850   23.1970 C   0  0  0  0  0  0  0  0  0  0  0  0
  -26.7730  -27.5040   19.6540 C   0  0  0  0  0  0  0  0  0  0  0  0
  -23.1360  -30.5440   21.5350 C   0  0  0  0  0  3  0  0  0  0  0  0
  -24.4470  -29.0760   19.9100 C   0  0  0  0  0  0  0  0  0  0  0  0
  -25.6570  -30.8380   21.2110 C   0  0  0  0  0  2  0  0  0  0  0  0
  -25.6570  -29.5240   20.4570 C   0  0  0  0  0  0  0  0  0  0  0  0
  -26.8270  -28.7410   20.3250 C   0  0  0  0  0  3  0  0  0  0  0  0
  -25.5530  -27.0780   19.0770 C   0  0  0  0  0  3  0  0  0  0  0  0
  -24.3870  -27.8570   19.2160 C   0  0  0  0  0  3  0  0  0  0  0  0
  -23.2380  -29.9630   20.1020 C   0  0  0  0  0  2  0  0  0  0  0  0
  -24.4450  -31.0670   22.0380 N   0  0  0  0  0  0  0  0  0  0  0  0
  -23.4470  -32.0570   23.8180 O   0  0  0  0  0  0  0  0  0  0  0  0
  -22.5110  -29.4730   22.4610 C   0  0  0  0  0  0  0  0  0  0  0  0
  -21.1870  -29.2790   22.3370 N   0  0  0  0  0  0  0  0  0  0  0  0
  -23.2070  -28.8230   23.2400 O   0  0  0  0  0  0  0  0  0  0  0  0
  -20.6850  -29.8540   21.6750 H   0  0  0  0  0  0  0  0  0  0  0  0
  -17.8540  -27.9360   22.7150 C   0  0  0  0  0  0  0  0  0  0  0  0
  -20.3860  -28.3010   23.0730 C   0  0  0  0  0  3  0  0  0  0  0  0
  -20.5750  -26.8830   22.4910 C   0  0  0  0  0  2  0  0  0  0  0  0
  -19.5210  -26.5230   21.4390 C   0  0  0  0  0  2  0  0  0  0  0  0
  -18.1100  -26.6020   22.0350 C   0  0  0  0  0  2  0  0  0  0  0  0
  -18.9240  -28.7430   23.1870 C   0  0  0  0  0  0  0  0  0  0  0  0
  -18.6360  -29.9890   23.7780 C   0  0  0  0  0  3  0  0  0  0  0  0
  -17.3050  -30.4330   23.9110 C   0  0  0  0  0  3  0  0  0  0  0  0
  -16.2480  -29.6250   23.4600 C   0  0  0  0  0  3  0  0  0  0  0  0
  -16.5240  -28.3780   22.8660 C   0  0  0  0  0  3  0  0  0  0  0  0
  -25.8300  -32.3240   23.7790 C   0  0  0  0  0  3  0  0  0  0  0  0
  -25.6100  -33.7250   24.1610 N   0  0  0  0  0  0  0  0  0  0  0  0
  -26.0000  -34.7830   23.4390 C   0  0  0  0  0  0  0  0  0  0  0  0
  -26.6550  -34.6790   22.3970 O   0  0  0  0  0  0  0  0  0  0  0  0
  -25.0230  -33.8860   24.9680 H   0  0  0  0  0  0  0  0  0  0  0  0
  -24.3790  -36.6940   23.1770 C   0  0  0  0  0  1  0  0  0  0  0  0
  -25.6030  -36.1820   23.9540 C   0  0  0  0  0  3  0  0  0  0  0  0
  -27.7950  -36.9060   24.7910 C   0  0  0  0  0  1  0  0  0  0  0  0
  -26.6970  -37.1750   23.8650 N   0  0  0  0  0  0  0  0  0  0  0  0
  -26.3480  -38.1120   24.0490 H   0  0  0  0  0  0  0  0  0  0  0  0
  -26.3650  -31.4850   25.0050 C   0  0  1  0  0  0  0  0  0  0  0  0
  -25.3070  -31.2630   26.1140 C   0  0  0  0  0  1  0  0  0  0  0  0
  -26.8620  -30.0940   24.5430 C   0  0  0  0  0  1  0  0  0  0  0  0
  -27.5820  -32.2020   25.6380 C   0  0  0  0  0  1  0  0  0  0  0  0
  -30.2340  -19.5780   21.2040 C   0  0  0  0  0  3  0  0  0  0  0  0
  -29.8490  -18.1430   21.1830 N   0  0  0  0  0  4  0  0  0  0  0  0
  -29.5940  -17.8760   22.1250 H   0  0  0  0  0  0  0  0  0  0  0  0
  -29.0170  -18.0540   20.6190 H   0  0  0  0  0  0  0  0  0  0  0  0
  -30.7100  -16.9890   19.1440 C   0  0  0  0  0  2  0  0  0  0  0  0
  -30.2920  -15.8890   20.1300 C   0  0  0  0  0  3  0  0  0  0  0  0
  -30.8740  -17.2080   20.6310 C   0  0  0  0  0  3  0  0  0  0  0  0
  -31.0980  -14.6010   20.0460 C   0  0  0  0  0  0  0  0  0  0  0  0
  -30.7330  -12.4130   18.9950 C   0  0  0  0  0  2  0  0  0  0  0  0
  -29.7600  -12.6080   17.8100 C   0  0  0  0  0  2  0  0  0  0  0  0
  -28.2960  -12.4800   18.2800 C   0  0  0  0  0  2  0  0  0  0  0  0
  -27.9940  -13.3780   19.5050 C   0  0  0  0  0  3  0  0  0  0  0  0
  -29.0810  -13.2040   20.5950 C   0  0  0  0  0  2  0  0  0  0  0  0
  -30.4040  -13.4310   20.0000 N   0  0  0  0  0  0  0  0  0  0  0  0
  -32.2970  -14.6500   19.7580 O   0  0  0  0  0  0  0  0  0  0  0  0
  -25.6600  -14.0800   20.3270 C   0  0  0  0  0  0  0  0  0  0  0  0
  -24.5760  -13.3470   20.7300 C   0  0  0  0  0  0  0  0  0  0  0  0
  -24.9880  -11.9810   20.6790 C   0  0  0  0  0  0  0  0  0  0  0  0
  -26.6570  -13.1590   20.0450 N   0  0  0  0  0  0  0  0  0  0  0  0
  -26.2630  -11.8950   20.3230 N   0  0  0  0  0  0  0  0  0  0  0  0
  -24.2250  -10.7440   20.8790 C   0  0  0  0  0  0  0  0  0  0  0  0
  -24.6070   -9.7920   21.8500 C   0  0  0  0  0  3  0  0  0  0  0  0
  -23.8500   -8.6160   22.0360 C   0  0  0  0  0  3  0  0  0  0  0  0
  -22.6950   -8.3840   21.2510 C   0  0  0  0  0  0  0  0  0  0  0  0
  -22.3340   -9.3230   20.2670 C   0  0  0  0  0  3  0  0  0  0  0  0
  -23.0920  -10.4900   20.0800 C   0  0  0  0  0  3  0  0  0  0  0  0
  -21.9130   -7.2600   21.3460 O   0  0  0  0  0  0  0  0  0  0  0  0
  -21.7510   -6.5950   22.5350 C   0  0  0  0  0  0  0  0  0  0  0  0
  -21.2190   -7.2310   23.6780 C   0  0  0  0  0  3  0  0  0  0  0  0
  -21.0060   -6.4910   24.8580 C   0  0  0  0  0  3  0  0  0  0  0  0
  -21.3140   -5.1170   24.8940 C   0  0  0  0  0  0  0  0  0  0  0  0
  -21.8370   -4.4830   23.7540 C   0  0  0  0  0  3  0  0  0  0  0  0
  -22.0520   -5.2200   22.5770 C   0  0  0  0  0  0  0  0  0  0  0  0
  -22.5370   -4.5990   21.4740 F   0  0  0  0  0  0  0  0  0  0  0  0
  -21.1010   -4.4050   26.0240 F   0  0  0  0  0  0  0  0  0  0  0  0
  -23.2040  -13.8700   21.0410 C   0  0  0  0  0  0  0  0  0  0  0  0
  -22.4800  -13.2060   21.9370 N   0  0  0  0  0  0  0  0  0  0  0  0
  -22.7820  -14.9030   20.5220 O   0  0  0  0  0  0  0  0  0  0  0  0
  -22.8330  -12.3700   22.3800 H   0  0  0  0  0  0  0  0  0  0  0  0
  -21.5570  -13.5380   22.1790 H   0  0  0  0  0  0  0  0  0  0  0  0
  -25.8720  -15.4430   20.1530 N   0  0  0  0  0  0  0  0  0  0  0  0
  -25.1150  -16.1120   20.2520 H   0  0  0  0  0  0  0  0  0  0  0  0
  -26.6720  -15.8300   19.6730 H   0  0  0  0  0  0  0  0  0  0  0  0
  -32.6190  -19.7730   22.4050 C   0  0  0  0  0  2  0  0  0  0  0  0
  -31.9260  -21.1090   22.5220 C   0  0  0  0  0  2  0  0  0  0  0  0
  -31.1040  -19.8440   22.4280 C   0  0  0  0  0  3  0  0  0  0  0  0
  2  3  1  0
  2  1  1  0
  4  5  1  0
  4  3  1  0
  6  8  1  0
  6  5  1  0
  7 18  2  0
  8 13  1  0
  9 17  1  0
  9 19  1  0
 10 16  1  0
 10 12  1  0
 11 17  1  0
 12 11  1  0
 13 12  2  0
 14 15  1  0
 14  8  2  0
 15 10  2  0
 16  9  1  0
 17  7  1  0
 19 21  2  0
 20 19  1  0
 22 20  1  0
 23 32  2  0
 23 28  1  0
 24 20  1  0
 24 28  1  0
 25 24  1  0
 26 27  1  0
 26 25  1  0
 27 23  1  0
 28 29  2  0
 29 30  1  0
 31 30  2  0
 32 31  1  0
 33  7  1  0
 33 34  1  0
 33 43  1  0
 34 37  1  0
 35 39  1  0
 35 34  1  0
 36 35  2  0
 39 38  1  0
 41 39  1  0
 41 42  1  0
 41 40  1  0
 43 46  1  1
 43 44  1  0
 45 43  1  0
 47  1  1  0
 47 92  1  0
 48 47  1  0
 48 49  1  0
 50 48  1  0
 51 52  1  0
 51 53  1  0
 52 54  1  0
 52 53  1  0
 53 48  1  0
 55 60  1  0
 56 57  1  0
 56 55  1  0
 58 57  1  0
 58 65  1  0
 58 59  1  0
 60 54  1  0
 60 59  1  0
 61 54  2  0
 62 63  2  0
 63 82  1  0
 64 63  1  0
 64 67  1  0
 65 66  1  0
 65 62  1  0
 66 64  2  0
 67 68  1  0
 68 69  2  0
 70 73  1  0
 70 69  1  0
 71 70  2  0
 72 71  1  0
 72 67  2  0
 73 74  1  0
 74 79  2  0
 74 75  1  0
 75 76  2  0
 76 77  1  0
 77 81  1  0
 78 77  2  0
 79 78  1  0
 80 79  1  0
 82 83  1  0
 83 86  1  0
 83 85  1  0
 84 82  2  0
 87 88  1  0
 87 62  1  0
 89 87  1  0
 90 92  1  0
 90 91  1  0
 92 91  1  0
M  ISO  4   5 101   6 101  52 100  54 100
M  END
>  <TORSDO>  (4) 
F 24

>  <SCORE>  (4) 
-12.035

>  <name>  (4) 
3

>  <ligand_id>  (4) 
3

>  <original_smiles>  (4) 
[H]c1c([H])c([H])c2c(c1[H])C([H])([H])C([H])([H])C([H])([H])C2([H])N([H])C(=O)C1([H])N(C(=O)C([H])(N([H])C(=O)C([H])(N([H])C([H])([H])[H])C([H])([H])[H])C(C([H])([H])[H])(C([H])([H])[H])C([H])([H])[H])C([H])([H])c2c([H])c(OC([H])([H])C([H])([H])C([H])([H])C([H])([H])C([H])([H])C([H])(C3([H])C([H])([H])C3([H])[H])[N+]([H])([H])C3([H])C([H])([H])C3([H])C(=O)N3C([H])([H])C([H])([H])C([H])([H])C([H])(n4nc(-c5c([H])c([H])c(Oc6c([H])c([H])c(F)c([H])c6F)c([H])c5[H])c(C(=O)N([H])[H])c4N([H])[H])C3([H])[H])c([H])c([H])c2C1([H])[H]

>  <smiles>  (4) 
[H]c1c([H])c([H])c2c(c1[H])C([H])([H])C([H])([H])C([H])([H])C2([H])N([H])C(=O)C1([H])N(C(=O)C([H])(N([H])C(=O)C([H])(N([H])C([H])([H])[H])C([H])([H])[H])C(C([H])([H])[H])(C([H])([H])[H])C([H])([H])[H])C([H])([H])c2c([H])c(OC([H])([H])C([H])([H])C([H])([H])C([H])([H])C([H])([H])C([H])(C3([H])C([H])([H])C3([H])[H])[N+]([H])([H])C3([H])C([H])([H])C3([H])C(=O)N3C([H])([H])C([H])([H])C([H])([H])C([H])(n4nc(-c5c([H])c([H])c(Oc6c([H])c([H])c(F)c([H])c6F)c([H])c5[H])c(C(=O)N([H])[H])c4N([H])[H])C3([H])[H])c([H])c([H])c2C1([H])[H]

$$$$
4:0:0
     RDKit          3D

 95 92  0  0  1  0  0  0  0  0999 V2000
  -24.5740  -23.0050   20.1320 C   0  0  0  0  0  2  0  0  0  0  0  0
  -18.8440  -22.7180   18.5980 C   0  0  0  0  0  3  0  0  0  0  0  0
  -22.3370  -24.9610   21.4160 C   0  0  0  0  0  2  0  0  0  0  0  0
  -18.2450  -23.1170   19.0910 C   0  0  0  0  0  3  0  0  0  0  0  0
  -20.7170  -25.4220   21.3070 C   0  0  0  0  0  2  0  0  0  0  0  0
  -20.7270  -23.6870   20.2160 C   0  0  0  0  0  1  0  0  0  0  0  0
  -22.6340  -23.5340   20.7350 C   0  0  0  0  0  1  0  0  0  0  0  0
  -19.7200  -24.0940   20.8480 C   0  0  0  0  0  3  0  0  0  0  0  0
  -19.6610  -23.9300   22.4870 C   0  0  0  0  0  1  0  0  0  0  0  0
  -25.8800  -21.7250   20.4590 N   0  0  0  0  0  4  0  0  0  0  0  0
  -26.5710  -22.2700   20.9520 H   0  0  0  0  0  0  0  0  0  0  0  0
  -25.4580  -21.1770   21.1920 H   0  0  0  0  0  0  0  0  0  0  0  0
  -26.9120  -20.4340   19.6120 C   0  0  0  0  0  1  0  0  0  0  0  0
  -28.5090  -19.1470   19.8610 C   0  0  0  0  0 15  0  0  0  0  0  0
  -29.2500  -17.2510   19.5090 C   0  0  0  0  0 15  0  0  0  0  0  0
  -30.7070  -15.8990   19.4810 C   0  0  0  0  0  2  0  0  0  0  0  0
  -31.4220  -13.2760   19.0360 C   0  0  0  0  0  2  0  0  0  0  0  0
  -30.5780  -12.5640   17.9240 C   0  0  0  0  0  2  0  0  0  0  0  0
  -29.1540  -12.2520   18.4150 C   0  0  0  0  0  2  0  0  0  0  0  0
  -28.6390  -13.4300   19.2670 C   0  0  0  0  0  3  0  0  0  0  0  0
  -29.5890  -13.8020   20.3960 C   0  0  0  0  0  2  0  0  0  0  0  0
  -30.6520  -14.4540   19.6880 N   0  0  0  0  0  0  0  0  0  0  0  0
  -31.9050  -16.0620   19.0970 O   0  0  0  0  0  1  0  0  0  0  0  0
  -26.4930  -14.2590   20.2610 C   0  0  0  0  0  0  0  0  0  0  0  0
  -25.3860  -13.6100   20.7040 C   0  0  0  0  0  0  0  0  0  0  0  0
  -25.6480  -12.2170   20.5200 C   0  0  0  0  0  0  0  0  0  0  0  0
  -27.3390  -13.2630   19.8220 N   0  0  0  0  0  0  0  0  0  0  0  0
  -26.8690  -12.0220   20.0510 N   0  0  0  0  0  0  0  0  0  0  0  0
  -24.7790  -11.0580   20.6880 C   0  0  0  0  0  0  0  0  0  0  0  0
  -25.1300   -9.9890   21.5380 C   0  0  0  0  0  3  0  0  0  0  0  0
  -24.2570   -8.8910   21.6890 C   0  0  0  0  0  3  0  0  0  0  0  0
  -23.0280   -8.8630   20.9880 C   0  0  0  0  0  0  0  0  0  0  0  0
  -22.7010   -9.9210   20.1220 C   0  0  0  0  0  3  0  0  0  0  0  0
  -23.5720  -11.0100   19.9680 C   0  0  0  0  0  3  0  0  0  0  0  0
  -22.1260   -7.8310   21.0560 O   0  0  0  0  0  0  0  0  0  0  0  0
  -21.8480   -7.2000   22.2400 C   0  0  0  0  0  0  0  0  0  0  0  0
  -21.3580   -7.9020   23.3640 C   0  0  0  0  0  3  0  0  0  0  0  0
  -21.0200   -7.2000   24.5370 C   0  0  0  0  0  3  0  0  0  0  0  0
  -21.1620   -5.8000   24.5870 C   0  0  0  0  0  0  0  0  0  0  0  0
  -21.6470   -5.1010   23.4670 C   0  0  0  0  0  3  0  0  0  0  0  0
  -21.9870   -5.8000   22.2960 C   0  0  0  0  0  0  0  0  0  0  0  0
  -22.4330   -5.1200   21.2130 F   0  0  0  0  0  0  0  0  0  0  0  0
  -20.8290   -5.1240   25.7110 F   0  0  0  0  0  0  0  0  0  0  0  0
  -24.1200  -14.2550   21.1650 C   0  0  0  0  0  0  0  0  0  0  0  0
  -23.4140  -13.6140   22.0880 N   0  0  0  0  0  0  0  0  0  0  0  0
  -23.7780  -15.3590   20.7430 O   0  0  0  0  0  0  0  0  0  0  0  0
  -23.7160  -12.7200   22.4430 H   0  0  0  0  0  0  0  0  0  0  0  0
  -22.5630  -14.0220   22.4450 H   0  0  0  0  0  0  0  0  0  0  0  0
  -26.8320  -15.6050   20.1710 N   0  0  0  0  0  0  0  0  0  0  0  0
  -26.1880  -16.3350   20.4530 H   0  0  0  0  0  0  0  0  0  0  0  0
  -27.6700  -15.9610   19.7360 H   0  0  0  0  0  0  0  0  0  0  0  0
  -25.3880  -24.2670   19.5120 C   0  0  0  0  0  2  0  0  0  0  0  0
  -26.5120  -25.1440   20.2650 C   0  0  0  0  0  2  0  0  0  0  0  0
  -27.9070  -25.4750   19.5020 C   0  0  0  0  0  2  0  0  0  0  0  0
  -28.7290  -26.7090   19.7060 O   0  0  0  0  0  0  0  0  0  0  0  0
  -24.9950  -30.5630   24.2350 C   0  0  0  0  0  0  0  0  0  0  0  0
  -27.9870  -27.8540   19.8010 C   0  0  0  0  0  0  0  0  0  0  0  0
  -24.2430  -30.4640   21.9170 C   0  0  0  0  0  3  0  0  0  0  0  0
  -25.9140  -29.6990   20.1560 C   0  0  0  0  0  0  0  0  0  0  0  0
  -26.7270  -30.3880   22.4230 C   0  0  0  0  0  2  0  0  0  0  0  0
  -26.8850  -29.5570   21.1580 C   0  0  0  0  0  0  0  0  0  0  0  0
  -27.9410  -28.6310   20.9870 C   0  0  0  0  0  3  0  0  0  0  0  0
  -27.1040  -28.1360   18.7480 C   0  0  0  0  0  3  0  0  0  0  0  0
  -26.0460  -29.0240   18.9340 C   0  0  0  0  0  3  0  0  0  0  0  0
  -24.7440  -30.6080   20.4550 C   0  0  0  0  0  2  0  0  0  0  0  0
  -25.3340  -30.4930   22.9170 N   0  0  0  0  0  0  0  0  0  0  0  0
  -23.8130  -30.6650   24.6010 O   0  0  0  0  0  0  0  0  0  0  0  0
  -23.5190  -29.1410   22.0790 C   0  0  0  0  0  0  0  0  0  0  0  0
  -22.2170  -29.1920   22.0320 N   0  0  0  0  0  0  0  0  0  0  0  0
  -24.1280  -28.0800   22.2460 O   0  0  0  0  0  0  0  0  0  0  0  0
  -21.7230  -30.0630   21.9090 H   0  0  0  0  0  0  0  0  0  0  0  0
  -18.2390  -27.8050   21.4460 C   0  0  0  0  0  3  0  0  0  0  0  0
  -21.6310  -27.9790   21.5840 C   0  0  0  0  0  1  0  0  0  0  0  0
  -22.3600  -27.9210   19.2810 C   0  0  0  0  0 15  0  0  0  0  0  0
  -20.1430  -27.4630   18.0540 C   0  0  0  0  0 15  0  0  0  0  0  0
  -18.2950  -27.5090   19.3280 C   0  0  0  0  0 15  0  0  0  0  0  0
  -19.6960  -27.9840   22.3970 C   0  0  0  0  0  3  0  0  0  0  0  0
  -19.5450  -28.8890   23.5130 C   0  0  0  0  0  3  0  0  0  0  0  0
  -18.3550  -29.5880   23.8450 C   0  0  0  0  0  3  0  0  0  0  0  0
  -17.1940  -29.4570   23.0670 C   0  0  0  0  0  3  0  0  0  0  0  0
  -17.1530  -28.6120   21.9250 C   0  0  0  0  0  3  0  0  0  0  0  0
  -26.0830  -30.5310   25.3370 C   0  0  0  0  0  3  0  0  0  0  0  0
  -26.2380  -31.9090   25.8090 N   0  0  0  0  0  0  0  0  0  0  0  0
  -27.0940  -32.7910   25.2770 C   0  0  0  0  0  0  0  0  0  0  0  0
  -27.8980  -32.4920   24.3900 O   0  0  0  0  0  0  0  0  0  0  0  0
  -25.5700  -32.2350   26.4920 H   0  0  0  0  0  0  0  0  0  0  0  0
  -26.1720  -35.1020   24.9050 C   0  0  0  0  0  1  0  0  0  0  0  0
  -27.0510  -34.2310   25.8170 C   0  0  0  0  0  3  0  0  0  0  0  0
  -29.2270  -34.1830   26.9520 C   0  0  0  0  0  1  0  0  0  0  0  0
  -28.3900  -34.8440   25.9530 N   0  0  0  0  0  0  0  0  0  0  0  0
  -28.3130  -35.8250   26.2020 H   0  0  0  0  0  0  0  0  0  0  0  0
  -25.7390  -29.5620   26.5310 C   0  0  1  0  0  0  0  0  0  0  0  0
  -24.3270  -29.7630   27.1270 C   0  0  0  0  0  1  0  0  0  0  0  0
  -25.8570  -28.0850   26.0880 C   0  0  0  0  0  1  0  0  0  0  0  0
  -26.7710  -29.7690   27.6630 C   0  0  0  0  0  1  0  0  0  0  0  0
  1 10  1  0
  2  4  3  0
  5  3  1  0
  6  8  1  0
  7  3  1  0
  8  5  1  0
  8  9  1  0
 10 11  1  0
 10 12  1  0
 13 10  1  0
 16 22  1  0
 17 22  1  0
 18 19  1  0
 18 17  1  0
 20 19  1  0
 20 27  1  0
 20 21  1  0
 22 21  1  0
 23 16  1  0
 24 25  2  0
 25 44  1  0
 26 29  1  0
 26 25  1  0
 27 28  1  0
 27 24  1  0
 28 26  2  0
 29 30  1  0
 30 31  2  0
 32 35  1  0
 32 31  1  0
 33 32  2  0
 34 33  1  0
 34 29  2  0
 35 36  1  0
 36 41  2  0
 36 37  1  0
 37 38  2  0
 38 39  1  0
 39 43  1  0
 40 39  2  0
 41 40  1  0
 42 41  1  0
 44 45  1  0
 45 47  1  0
 45 48  1  0
 46 44  2  0
 49 24  1  0
 49 50  1  0
 51 49  1  0
 52  1  1  0
 52 53  1  0
 54 55  1  0
 54 53  1  0
 55 57  1  0
 56 67  2  0
 57 62  1  0
 58 68  1  0
 58 66  1  0
 59 65  1  0
 59 61  1  0
 60 66  1  0
 61 60  1  0
 62 61  2  0
 63 64  1  0
 63 57  2  0
 64 59  2  0
 65 58  1  0
 66 56  1  0
 68 70  2  0
 69 68  1  0
 71 69  1  0
 72 81  2  0
 72 77  1  0
 73 69  1  0
 77 78  2  0
 78 79  1  0
 80 79  2  0
 81 80  1  0
 82 56  1  0
 82 83  1  0
 82 92  1  0
 83 86  1  0
 84 83  1  0
 84 88  1  0
 85 84  2  0
 88 87  1  0
 88 90  1  0
 90 91  1  0
 90 89  1  0
 92 93  1  1
 92 95  1  0
 94 92  1  0
M  ISO  4  15 100  16 100  54 101  55 101
M  END
>  <TORSDO>  (5) 
F 24

>  <SCORE>  (5) 
-8.612

>  <name>  (5) 
4

>  <ligand_id>  (5) 
4

>  <original_smiles>  (5) 
[H]c1c([H])c([H])c2c(c1[H])C([H])([H])C([H])([H])C([H])([H])C2([H])N([H])C(=O)C1([H])N(C(=O)C([H])(N([H])C(=O)C([H])(N([H])C([H])([H])[H])C([H])([H])[H])C(C([H])([H])[H])(C([H])([H])[H])C([H])([H])[H])C([H])([H])c2c([H])c(OC([H])([H])C([H])([H])C([H])([H])C([H])(C3([H])C([H])([H])C([H])([H])C4(C([H])([H])[H])C([H])([H])C([H])([H])C34[H])[N+]([H])([H])C([H])([H])C([H])([H])C([H])([H])C(=O)N3C([H])([H])C([H])([H])C([H])([H])C([H])(n4nc(-c5c([H])c([H])c(Oc6c([H])c([H])c(F)c([H])c6F)c([H])c5[H])c(C(=O)N([H])[H])c4N([H])[H])C3([H])[H])c([H])c([H])c2C1([H])[H]

>  <smiles>  (5) 
[H]c1c([H])c([H])c2c(c1[H])C([H])([H])C([H])([H])C([H])([H])C2([H])N([H])C(=O)C1([H])N(C(=O)C([H])(N([H])C(=O)C([H])(N([H])C([H])([H])[H])C([H])([H])[H])C(C([H])([H])[H])(C([H])([H])[H])C([H])([H])[H])C([H])([H])c2c([H])c(OC([H])([H])C([H])([H])C([H])([H])C([H])(C3([H])C([H])([H])C([H])([H])C4(C([H])([H])[H])C([H])([H])C([H])([H])C34[H])[N+]([H])([H])C([H])([H])C([H])([H])C([H])([H])C(=O)N3C([H])([H])C([H])([H])C([H])([H])C([H])(n4nc(-c5c([H])c([H])c(Oc6c([H])c([H])c(F)c([H])c6F)c([H])c5[H])c(C(=O)N([H])[H])c4N([H])[H])C3([H])[H])c([H])c([H])c2C1([H])[H]

$$$$
5:0:0
     RDKit          3D

 92101  0  0  1  0  0  0  0  0999 V2000
  -31.3530  -18.2200   21.9060 C   0  0  0  0  0  2  0  0  0  0  0  0
  -31.6220  -16.7980   21.4140 C   0  0  0  0  0  2  0  0  0  0  0  0
  -27.3600  -18.4190   19.0480 C   0  0  0  0  0  2  0  0  0  0  0  0
  -29.8950  -18.4770   21.5540 C   0  0  0  0  0  2  0  0  0  0  0  0
  -28.1990  -17.4800   19.9280 C   0  0  0  0  0  2  0  0  0  0  0  0
  -29.5300  -18.8690   17.7040 C   0  0  0  0  0  2  0  0  0  0  0  0
  -30.4370  -16.3810   20.5010 C   0  0  0  0  0  3  0  0  0  0  0  0
  -28.0010  -18.5790   17.6420 C   0  0  0  0  0  3  0  0  0  0  0  0
  -30.0030  -19.2050   19.1300 C   0  0  0  0  0  3  0  0  0  0  0  0
  -29.7020  -17.8690   20.1410 C   0  0  2  0  0  0  0  0  0  0  0  0
  -27.2240  -19.6000   16.7950 C   0  0  0  0  0  1  0  0  0  0  0  0
  -30.7640  -14.9320   19.7710 C   0  0  0  0  0  0  0  0  0  0  0  0
  -30.6660  -12.4750   19.1530 C   0  0  0  0  0  2  0  0  0  0  0  0
  -29.7150  -12.2430   17.9570 C   0  0  0  0  0  2  0  0  0  0  0  0
  -28.2870  -11.9970   18.4660 C   0  0  0  0  0  2  0  0  0  0  0  0
  -27.8590  -13.0480   19.5260 C   0  0  0  0  0  3  0  0  0  0  0  0
  -28.9430  -13.2870   20.6130 C   0  0  0  0  0  2  0  0  0  0  0  0
  -30.1890  -13.6660   19.9300 N   0  0  0  0  0  0  0  0  0  0  0  0
  -31.8030  -14.9420   19.1060 O   0  0  0  0  0  0  0  0  0  0  0  0
  -25.5070  -13.5720   20.4000 C   0  0  0  0  0  0  0  0  0  0  0  0
  -24.4790  -12.7890   20.8420 C   0  0  0  0  0  0  0  0  0  0  0  0
  -24.9540  -11.4500   20.7470 C   0  0  0  0  0  0  0  0  0  0  0  0
  -26.5530  -12.7210   20.0980 N   0  0  0  0  0  0  0  0  0  0  0  0
  -26.2250  -11.4270   20.3570 N   0  0  0  0  0  0  0  0  0  0  0  0
  -24.2420  -10.1830   20.9450 C   0  0  0  0  0  0  0  0  0  0  0  0
  -24.6970   -9.2190   21.8690 C   0  0  0  0  0  3  0  0  0  0  0  0
  -23.9790   -8.0190   22.0590 C   0  0  0  0  0  3  0  0  0  0  0  0
  -22.7930   -7.7790   21.3270 C   0  0  0  0  0  0  0  0  0  0  0  0
  -22.3560   -8.7330   20.3900 C   0  0  0  0  0  3  0  0  0  0  0  0
  -23.0760   -9.9240   20.1980 C   0  0  0  0  0  3  0  0  0  0  0  0
  -22.0440   -6.6320   21.4280 O   0  0  0  0  0  0  0  0  0  0  0  0
  -21.8850   -5.9810   22.6230 C   0  0  0  0  0  0  0  0  0  0  0  0
  -21.2580   -6.5950   23.7280 C   0  0  0  0  0  3  0  0  0  0  0  0
  -21.0550   -5.8670   24.9170 C   0  0  0  0  0  3  0  0  0  0  0  0
  -21.4660   -4.5220   25.0000 C   0  0  0  0  0  0  0  0  0  0  0  0
  -22.0890   -3.9090   23.8990 C   0  0  0  0  0  3  0  0  0  0  0  0
  -22.2940   -4.6350   22.7130 C   0  0  0  0  0  0  0  0  0  0  0  0
  -22.8750   -4.0310   21.6480 F   0  0  0  0  0  0  0  0  0  0  0  0
  -21.2640   -3.8210   26.1380 F   0  0  0  0  0  0  0  0  0  0  0  0
  -23.1070  -13.2600   21.2270 C   0  0  0  0  0  0  0  0  0  0  0  0
  -22.4620  -12.5580   22.1540 N   0  0  0  0  0  0  0  0  0  0  0  0
  -22.6220  -14.2840   20.7520 O   0  0  0  0  0  0  0  0  0  0  0  0
  -22.8700  -11.7330   22.5670 H   0  0  0  0  0  0  0  0  0  0  0  0
  -21.5510  -12.8610   22.4690 H   0  0  0  0  0  0  0  0  0  0  0  0
  -25.6120  -14.9310   20.2010 N   0  0  0  0  0  0  0  0  0  0  0  0
  -24.8330  -15.5540   20.3860 H   0  0  0  0  0  0  0  0  0  0  0  0
  -26.4430  -15.4220   19.9020 H   0  0  0  0  0  0  0  0  0  0  0  0
  -30.8830  -20.6180   19.2640 C   0  0  0  0  0  2  0  0  0  0  0  0
  -30.1880  -22.1180   18.9380 C   0  0  0  0  0  2  0  0  0  0  0  0
  -30.5700  -23.6190   19.5780 C   0  0  0  0  0  3  0  0  0  0  0  0
  -29.6010  -24.9690   19.3850 C   0  0  0  0  0  3  0  0  0  0  0  0
  -29.6730  -26.3220   20.1280 O   0  0  0  0  0  0  0  0  0  0  0  0
  -25.3630  -31.0910   23.6790 C   0  0  0  0  0  0  0  0  0  0  0  0
  -28.5810  -27.2580   20.1060 C   0  0  0  0  0  0  0  0  0  0  0  0
  -24.5040  -30.1610   21.5600 C   0  0  0  0  0  3  0  0  0  0  0  0
  -26.2230  -28.9550   20.0780 C   0  0  0  0  0  0  0  0  0  0  0  0
  -27.0360  -30.4240   21.9190 C   0  0  0  0  0  2  0  0  0  0  0  0
  -27.2640  -29.2390   20.9710 C   0  0  0  0  0  0  0  0  0  0  0  0
  -28.4480  -28.4140   20.9680 C   0  0  0  0  0  3  0  0  0  0  0  0
  -27.5050  -27.0560   19.2090 C   0  0  0  0  0  3  0  0  0  0  0  0
  -26.3550  -27.8760   19.1910 C   0  0  0  0  0  3  0  0  0  0  0  0
  -24.9800  -29.8290   20.1200 C   0  0  0  0  0  2  0  0  0  0  0  0
  -25.6430  -30.5660   22.4470 N   0  0  0  0  0  0  0  0  0  0  0  0
  -24.1960  -31.2590   24.0600 O   0  0  0  0  0  0  0  0  0  0  0  0
  -23.6910  -28.9660   22.1140 C   0  0  0  0  0  0  0  0  0  0  0  0
  -22.3710  -28.9540   21.8560 N   0  0  0  0  0  0  0  0  0  0  0  0
  -24.2500  -28.0630   22.7390 O   0  0  0  0  0  0  0  0  0  0  0  0
  -21.9830  -29.7240   21.3300 H   0  0  0  0  0  0  0  0  0  0  0  0
  -18.8680  -28.0600   22.0080 C   0  0  0  0  0  0  0  0  0  0  0  0
  -21.4360  -27.9000   22.2490 C   0  0  0  0  0  3  0  0  0  0  0  0
  -21.3630  -26.7900   21.1770 C   0  0  0  0  0  2  0  0  0  0  0  0
  -20.2370  -27.0020   20.1590 C   0  0  0  0  0  2  0  0  0  0  0  0
  -18.8820  -27.0530   20.8700 C   0  0  0  0  0  2  0  0  0  0  0  0
  -20.0690  -28.4650   22.6480 C   0  0  0  0  0  0  0  0  0  0  0  0
  -19.9990  -29.4200   23.6870 C   0  0  0  0  0  3  0  0  0  0  0  0
  -18.7630  -29.9610   24.0880 C   0  0  0  0  0  3  0  0  0  0  0  0
  -17.5770  -29.5430   23.4590 C   0  0  0  0  0  3  0  0  0  0  0  0
  -17.6320  -28.5910   22.4260 C   0  0  0  0  0  3  0  0  0  0  0  0
  -26.4970  -31.5280   24.6570 C   0  0  0  0  0  3  0  0  0  0  0  0
  -26.5430  -30.6660   25.9790 C   0  0  1  0  0  0  0  0  0  0  0  0
  -25.1800  -30.5700   26.7040 C   0  0  0  0  0  1  0  0  0  0  0  0
  -27.0190  -29.2260   25.6810 C   0  0  0  0  0  1  0  0  0  0  0  0
  -27.5690  -31.2730   26.9660 C   0  0  0  0  0  1  0  0  0  0  0  0
  -26.2860  -32.9470   24.9810 N   0  0  0  0  0  0  0  0  0  0  0  0
  -26.9250  -33.9700   24.3970 C   0  0  0  0  0  0  0  0  0  0  0  0
  -27.8160  -33.8080   23.5590 O   0  0  0  0  0  0  0  0  0  0  0  0
  -25.5300  -33.1550   25.6170 H   0  0  0  0  0  0  0  0  0  0  0  0
  -25.6110  -36.0080   23.7240 C   0  0  0  0  0  1  0  0  0  0  0  0
  -26.5130  -35.3980   24.8070 C   0  0  0  0  0  3  0  0  0  0  0  0
  -28.4180  -35.9460   26.2580 C   0  0  0  0  0  1  0  0  0  0  0  0
  -27.6640  -36.2930   25.0560 N   0  0  0  0  0  0  0  0  0  0  0  0
  -27.3560  -37.2590   25.1430 H   0  0  0  0  0  0  0  0  0  0  0  0
  2  1  1  0
  3  5  1  0
  4  1  1  0
  6  9  1  0
  7 12  1  0
  7  2  1  0
  8 11  1  0
  8  6  1  0
  8  3  1  0
  9 48  1  0
  9 10  1  0
 10  5  1  1
 10  7  1  0
 10  4  1  0
 12 18  1  0
 13 18  1  0
 14 15  1  0
 14 13  1  0
 16 15  1  0
 16 23  1  0
 16 17  1  0
 18 17  1  0
 19 12  2  0
 20 21  2  0
 21 40  1  0
 22 21  1  0
 22 25  1  0
 23 24  1  0
 23 20  1  0
 24 22  2  0
 25 26  1  0
 26 27  2  0
 28 31  1  0
 28 27  1  0
 29 28  2  0
 30 29  1  0
 30 25  2  0
 31 32  1  0
 32 37  2  0
 32 33  1  0
 33 34  2  0
 34 35  1  0
 35 39  1  0
 36 35  2  0
 37 36  1  0
 38 37  1  0
 40 41  1  0
 41 44  1  0
 41 43  1  0
 42 40  2  0
 45 46  1  0
 45 20  1  0
 47 45  1  0
 49 48  1  0
 49 50  1  0
 51 50  2  0
 51 52  1  0
 53 64  2  0
 54 52  1  0
 54 59  1  0
 55 65  1  0
 55 63  1  0
 56 62  1  0
 56 58  1  0
 57 63  1  0
 58 57  1  0
 59 58  2  0
 60 54  2  0
 61 60  1  0
 61 56  2  0
 62 55  1  0
 63 53  1  0
 65 67  2  0
 66 65  1  0
 68 66  1  0
 69 78  2  0
 69 74  1  0
 70 66  1  0
 70 74  1  0
 71 70  1  0
 72 73  1  0
 72 71  1  0
 73 69  1  0
 74 75  2  0
 75 76  1  0
 77 76  2  0
 78 77  1  0
 79 53  1  0
 79 84  1  0
 79 80  1  0
 80 81  1  1
 80 83  1  0
 82 80  1  0
 84 87  1  0
 85 89  1  0
 85 84  1  0
 86 85  2  0
 89 88  1  0
 89 91  1  0
 91 92  1  0
 91 90  1  0
M  ISO  4   7 100  12 100  51 101  52 101
M  END
>  <TORSDO>  (6) 
F 20

>  <SCORE>  (6) 
-11.060

>  <name>  (6) 
5

>  <ligand_id>  (6) 
5

>  <original_smiles>  (6) 
[H]c1c([H])c([H])c2c(c1[H])C([H])([H])C([H])([H])C([H])([H])C2([H])N([H])C(=O)C1([H])N(C(=O)C([H])(N([H])C(=O)C([H])(N([H])C([H])([H])[H])C([H])([H])[H])C(C([H])([H])[H])(C([H])([H])[H])C([H])([H])[H])C([H])([H])c2c([H])c(OC([H])([H])C([H])([H])C([H])([H])C([H])([H])C3([H])C([H])([H])C([H])(C([H])([H])[H])C([H])([H])C([H])([H])C34C([H])([H])C([H])([H])C([H])([H])C4([H])C(=O)N3C([H])([H])C([H])([H])C([H])([H])C([H])(n4nc(-c5c([H])c([H])c(Oc6c([H])c([H])c(F)c([H])c6F)c([H])c5[H])c(C(=O)N([H])[H])c4N([H])[H])C3([H])[H])c([H])c([H])c2C1([H])[H]

>  <smiles>  (6) 
[H]c1c([H])c([H])c2c(c1[H])C([H])([H])C([H])([H])C([H])([H])C2([H])N([H])C(=O)C1([H])N(C(=O)C([H])(N([H])C(=O)C([H])(N([H])C([H])([H])[H])C([H])([H])[H])C(C([H])([H])[H])(C([H])([H])[H])C([H])([H])[H])C([H])([H])c2c([H])c(OC([H])([H])C([H])([H])C([H])([H])C([H])([H])C3([H])C([H])([H])C([H])(C([H])([H])[H])C([H])([H])C([H])([H])C34C([H])([H])C([H])([H])C([H])([H])C4([H])C(=O)N3C([H])([H])C([H])([H])C([H])([H])C([H])(n4nc(-c5c([H])c([H])c(Oc6c([H])c([H])c(F)c([H])c6F)c([H])c5[H])c(C(=O)N([H])[H])c4N([H])[H])C3([H])[H])c([H])c([H])c2C1([H])[H]

$$$$
6:0:0
     RDKit          3D

 92100  0  0  1  0  0  0  0  0999 V2000
  -28.8000  -21.0690   21.3480 C   0  0  0  0  0  0  0  0  0  0  0  0
  -28.3760  -22.2980   21.0150 N   0  0  0  0  0  0  0  0  0  0  0  0
  -29.6720  -20.8920   22.1980 O   0  0  0  0  0  0  0  0  0  0  0  0
  -27.6490  -22.3490   20.3130 H   0  0  0  0  0  0  0  0  0  0  0  0
  -27.5660  -20.0910   19.2530 C   0  0  0  0  0  2  0  0  0  0  0  0
  -28.7860  -19.3490   18.7030 C   0  0  0  0  0  2  0  0  0  0  0  0
  -28.1110  -19.8530   20.6760 C   0  0  0  0  0  3  0  0  0  0  0  0
  -28.9850  -18.7020   20.0820 C   0  0  0  0  0  3  0  0  0  0  0  0
  -30.3840  -18.3330   20.6010 C   0  0  0  0  0  2  0  0  0  0  0  0
  -30.8190  -15.8630   20.3790 C   0  0  0  0  0  2  0  0  0  0  0  0
  -30.9890  -17.1180   19.9120 C   0  0  0  0  0  3  0  0  0  0  0  0
  -31.7510  -17.4100   18.6230 C   0  0  0  0  0  1  0  0  0  0  0  0
  -31.6830  -14.6870   20.4530 C   0  0  0  0  0  0  0  0  0  0  0  0
  -31.4680  -12.2970   19.9480 C   0  0  0  0  0  2  0  0  0  0  0  0
  -30.6420  -12.1880   18.6470 C   0  0  0  0  0  2  0  0  0  0  0  0
  -29.1250  -12.1690   18.9460 C   0  0  0  0  0  2  0  0  0  0  0  0
  -28.6890  -13.2960   19.9150 C   0  0  0  0  0  3  0  0  0  0  0  0
  -29.6400  -13.3730   21.1330 C   0  0  0  0  0  2  0  0  0  0  0  0
  -31.0230  -13.5090   20.6490 N   0  0  0  0  0  0  0  0  0  0  0  0
  -32.8750  -14.7380   20.1420 O   0  0  0  0  0  0  0  0  0  0  0  0
  -26.3400  -14.1670   20.5040 C   0  0  0  0  0  0  0  0  0  0  0  0
  -25.1760  -13.5120   20.8010 C   0  0  0  0  0  0  0  0  0  0  0  0
  -25.4950  -12.1180   20.7850 C   0  0  0  0  0  0  0  0  0  0  0  0
  -27.2940  -13.1770   20.3190 N   0  0  0  0  0  0  0  0  0  0  0  0
  -26.7860  -11.9410   20.5500 N   0  0  0  0  0  0  0  0  0  0  0  0
  -24.6380  -10.9370   20.9230 C   0  0  0  0  0  0  0  0  0  0  0  0
  -24.9330   -9.9130   21.8500 C   0  0  0  0  0  3  0  0  0  0  0  0
  -24.0840   -8.7940   21.9740 C   0  0  0  0  0  3  0  0  0  0  0  0
  -22.9250   -8.6940   21.1680 C   0  0  0  0  0  0  0  0  0  0  0  0
  -22.6480   -9.7040   20.2290 C   0  0  0  0  0  3  0  0  0  0  0  0
  -23.4980  -10.8140   20.1040 C   0  0  0  0  0  3  0  0  0  0  0  0
  -22.0540   -7.6320   21.2040 O   0  0  0  0  0  0  0  0  0  0  0  0
  -21.8710   -6.8890   22.3410 C   0  0  0  0  0  0  0  0  0  0  0  0
  -21.4340   -7.4750   23.5510 C   0  0  0  0  0  3  0  0  0  0  0  0
  -21.1950   -6.6650   24.6780 C   0  0  0  0  0  3  0  0  0  0  0  0
  -21.3760   -5.2690   24.5940 C   0  0  0  0  0  0  0  0  0  0  0  0
  -21.8050   -4.6850   23.3900 C   0  0  0  0  0  3  0  0  0  0  0  0
  -22.0470   -5.4950   22.2650 C   0  0  0  0  0  0  0  0  0  0  0  0
  -22.4410   -4.9260   21.1010 F   0  0  0  0  0  0  0  0  0  0  0  0
  -21.1370   -4.4890   25.6710 F   0  0  0  0  0  0  0  0  0  0  0  0
  -23.8240  -14.1290   20.9970 C   0  0  0  0  0  0  0  0  0  0  0  0
  -22.9880  -13.5250   21.8330 N   0  0  0  0  0  0  0  0  0  0  0  0
  -23.5130  -15.1820   20.4390 O   0  0  0  0  0  0  0  0  0  0  0  0
  -23.2530  -12.6730   22.3050 H   0  0  0  0  0  0  0  0  0  0  0  0
  -22.0730  -13.9190   22.0040 H   0  0  0  0  0  0  0  0  0  0  0  0
  -26.6540  -15.5170   20.3550 N   0  0  0  0  0  0  0  0  0  0  0  0
  -25.9490  -16.2410   20.4350 H   0  0  0  0  0  0  0  0  0  0  0  0
  -27.5690  -15.8750   20.1150 H   0  0  0  0  0  0  0  0  0  0  0  0
  -28.8430  -23.5560   21.6070 C   0  0  0  0  0  2  0  0  0  0  0  0
  -28.5770  -24.7600   20.6800 C   0  0  0  0  0  2  0  0  0  0  0  0
  -29.1160  -26.0790   21.2630 C   0  0  0  0  0  2  0  0  0  0  0  0
  -28.9820  -27.1550   20.3420 O   0  0  0  0  0  0  0  0  0  0  0  0
  -24.6900  -31.9540   23.3840 C   0  0  0  0  0  0  0  0  0  0  0  0
  -27.7690  -27.7890   20.3590 C   0  0  0  0  0  0  0  0  0  0  0  0
  -23.6640  -30.5380   21.6330 C   0  0  0  0  0  3  0  0  0  0  0  0
  -25.2880  -29.1190   20.2660 C   0  0  0  0  0  0  0  0  0  0  0  0
  -26.1650  -31.0440   21.6000 C   0  0  0  0  0  2  0  0  0  0  0  0
  -26.3710  -29.7020   20.9380 C   0  0  0  0  0  0  0  0  0  0  0  0
  -27.6160  -29.0420   20.9880 C   0  0  0  0  0  3  0  0  0  0  0  0
  -26.6760  -27.2060   19.6890 C   0  0  0  0  0  3  0  0  0  0  0  0
  -25.4340  -27.8680   19.6400 C   0  0  0  0  0  3  0  0  0  0  0  0
  -23.9930  -29.9040   20.2530 C   0  0  0  0  0  2  0  0  0  0  0  0
  -24.8520  -31.1930   22.2650 N   0  0  0  0  0  0  0  0  0  0  0  0
  -23.5650  -32.1520   23.8650 O   0  0  0  0  0  0  0  0  0  0  0  0
  -23.0170  -29.4540   22.5240 C   0  0  0  0  0  0  0  0  0  0  0  0
  -21.7140  -29.2070   22.3140 N   0  0  0  0  0  0  0  0  0  0  0  0
  -23.6870  -28.8400   23.3630 O   0  0  0  0  0  0  0  0  0  0  0  0
  -21.2350  -29.7500   21.6080 H   0  0  0  0  0  0  0  0  0  0  0  0
  -18.3760  -27.8710   22.6170 C   0  0  0  0  0  0  0  0  0  0  0  0
  -20.9090  -28.2040   23.0080 C   0  0  0  0  0  3  0  0  0  0  0  0
  -21.0880  -26.8020   22.3780 C   0  0  0  0  0  2  0  0  0  0  0  0
  -20.0420  -26.4880   21.3020 C   0  0  0  0  0  2  0  0  0  0  0  0
  -18.6250  -26.5660   21.8830 C   0  0  0  0  0  2  0  0  0  0  0  0
  -19.4500  -28.6450   23.1320 C   0  0  0  0  0  0  0  0  0  0  0  0
  -19.1640  -29.8650   23.7760 C   0  0  0  0  0  3  0  0  0  0  0  0
  -17.8380  -30.3160   23.9150 C   0  0  0  0  0  3  0  0  0  0  0  0
  -16.7770  -29.5400   23.4180 C   0  0  0  0  0  3  0  0  0  0  0  0
  -17.0460  -28.3170   22.7760 C   0  0  0  0  0  3  0  0  0  0  0  0
  -25.9010  -32.6340   24.0970 C   0  0  0  0  0  3  0  0  0  0  0  0
  -25.5360  -34.0340   24.3460 N   0  0  0  0  0  0  0  0  0  0  0  0
  -25.9030  -35.0640   23.5730 C   0  0  0  0  0  0  0  0  0  0  0  0
  -26.6550  -34.9400   22.6020 O   0  0  0  0  0  0  0  0  0  0  0  0
  -24.8790  -34.2040   25.0940 H   0  0  0  0  0  0  0  0  0  0  0  0
  -24.1540  -36.7850   23.0250 C   0  0  0  0  0  1  0  0  0  0  0  0
  -25.3480  -36.4530   23.9340 C   0  0  0  0  0  3  0  0  0  0  0  0
  -27.3930  -37.4390   24.8680 C   0  0  0  0  0  1  0  0  0  0  0  0
  -26.3540  -37.5320   23.8450 N   0  0  0  0  0  0  0  0  0  0  0  0
  -25.9140  -38.4440   23.9250 H   0  0  0  0  0  0  0  0  0  0  0  0
  -26.3190  -31.9150   25.4390 C   0  0  1  0  0  0  0  0  0  0  0  0
  -25.1340  -31.6550   26.3980 C   0  0  0  0  0  1  0  0  0  0  0  0
  -26.9980  -30.5560   25.1440 C   0  0  0  0  0  1  0  0  0  0  0  0
  -27.3590  -32.7760   26.1930 C   0  0  0  0  0  1  0  0  0  0  0  0
  1  3  2  0
  2  1  1  0
  2 49  1  0
  4  2  1  0
  5  7  1  0
  6  5  1  0
  6  8  1  0
  7  1  1  0
  8  9  1  0
  8  7  1  0
 10 13  1  0
 11 12  1  0
 11 10  1  0
 11  9  1  0
 13 19  1  0
 14 19  1  0
 15 16  1  0
 15 14  1  0
 17 16  1  0
 17 24  1  0
 17 18  1  0
 19 18  1  0
 20 13  2  0
 21 22  2  0
 22 41  1  0
 23 22  1  0
 23 26  1  0
 24 21  1  0
 24 25  1  0
 25 23  2  0
 26 27  1  0
 27 28  2  0
 29 32  1  0
 29 28  1  0
 30 29  2  0
 31 30  1  0
 31 26  2  0
 32 33  1  0
 33 34  1  0
 34 35  2  0
 36 35  1  0
 36 40  1  0
 37 36  2  0
 38 33  2  0
 38 37  1  0
 39 38  1  0
 41 42  1  0
 42 45  1  0
 42 44  1  0
 43 41  2  0
 46 47  1  0
 46 21  1  0
 48 46  1  0
 50 51  1  0
 50 49  1  0
 52 54  1  0
 52 51  1  0
 53 64  2  0
 54 59  1  0
 55 63  1  0
 55 65  1  0
 56 58  1  0
 57 63  1  0
 58 59  2  0
 58 57  1  0
 60 54  2  0
 61 60  1  0
 61 56  2  0
 62 56  1  0
 62 55  1  0
 63 53  1  0
 65 67  2  0
 66 65  1  0
 68 66  1  0
 69 78  2  0
 69 74  1  0
 70 66  1  0
 70 74  1  0
 71 70  1  0
 72 73  1  0
 72 71  1  0
 73 69  1  0
 74 75  2  0
 75 76  1  0
 77 76  2  0
 78 77  1  0
 79 53  1  0
 79 80  1  0
 79 89  1  0
 80 83  1  0
 81 85  1  0
 81 80  1  0
 82 81  2  0
 85 84  1  0
 87 88  1  0
 87 85  1  0
 87 86  1  0
 89 92  1  1
 89 90  1  0
 91 89  1  0
M  ISO  4  10 100  13 100  51 101  52 101
M  END
>  <TORSDO>  (7) 
F 22

>  <SCORE>  (7) 
-11.938

>  <name>  (7) 
6

>  <ligand_id>  (7) 
6

>  <original_smiles>  (7) 
[H]C(C(=O)N1C([H])([H])C([H])([H])C([H])([H])C([H])(n2nc(-c3c([H])c([H])c(Oc4c([H])c([H])c(F)c([H])c4F)c([H])c3[H])c(C(=O)N([H])[H])c2N([H])[H])C1([H])[H])=C(C([H])([H])[H])C([H])([H])C1([H])C([H])([H])C([H])([H])C1([H])C(=O)N([H])C([H])([H])C([H])([H])C([H])([H])Oc1c([H])c([H])c2c(c1[H])C([H])([H])N(C(=O)C([H])(N([H])C(=O)C([H])(N([H])C([H])([H])[H])C([H])([H])[H])C(C([H])([H])[H])(C([H])([H])[H])C([H])([H])[H])C([H])(C(=O)N([H])C1([H])c3c([H])c([H])c([H])c([H])c3C([H])([H])C([H])([H])C1([H])[H])C2([H])[H]

>  <smiles>  (7) 
[H]C(C(=O)N1C([H])([H])C([H])([H])C([H])([H])C([H])(n2nc(-c3c([H])c([H])c(Oc4c([H])c([H])c(F)c([H])c4F)c([H])c3[H])c(C(=O)N([H])[H])c2N([H])[H])C1([H])[H])=C(C([H])([H])[H])C([H])([H])C1([H])C([H])([H])C([H])([H])C1([H])C(=O)N([H])C([H])([H])C([H])([H])C([H])([H])Oc1c([H])c([H])c2c(c1[H])C([H])([H])N(C(=O)C([H])(N([H])C(=O)C([H])(N([H])C([H])([H])[H])C([H])([H])[H])C(C([H])([H])[H])(C([H])([H])[H])C([H])([H])[H])C([H])(C(=O)N([H])C1([H])c3c([H])c([H])c([H])c([H])c3C([H])([H])C([H])([H])C1([H])[H])C2([H])[H]

$$$$
7:0:0
     RDKit          3D

 98108  0  0  1  0  0  0  0  0999 V2000
  -30.0820  -21.3360   18.9150 C   0  0  0  0  0  0  0  0  0  0  0  0
  -31.1540  -20.3690   18.4740 C   0  0  0  0  0  2  0  0  0  0  0  0
  -30.5160  -18.9810   18.5330 C   0  0  0  0  0  2  0  0  0  0  0  0
  -28.9000  -20.5330   19.4650 C   0  0  0  0  0  3  0  0  0  0  0  0
  -29.4230  -19.0730   19.6080 C   0  0  0  0  0  3  0  0  0  0  0  0
  -27.6810  -20.5800   18.5200 C   0  0  0  0  0  1  0  0  0  0  0  0
  -30.2430  -22.6000   18.8000 N   0  0  0  0  0  0  0  0  0  0  0  0
  -29.9570  -18.6970   21.0270 C   0  0  0  0  0  2  0  0  0  0  0  0
  -27.8600  -19.5870   22.8890 C   0  0  0  0  0  0  0  0  0  0  0  0
  -27.2440  -20.7750   22.7840 C   0  0  0  0  0  2  0  0  0  0  0  0
  -28.9880  -19.2350   23.8310 C   0  0  0  0  0  2  0  0  0  0  0  0
  -26.9220  -17.3520   23.0610 C   0  0  0  0  0  2  0  0  0  0  0  0
  -28.1010  -16.9210   23.9560 C   0  0  0  0  0  2  0  0  0  0  0  0
  -27.5930  -18.3340   22.0720 C   0  0  0  0  0  3  0  0  0  0  0  0
  -29.2700  -17.7730   23.4030 C   0  0  0  0  0  3  0  0  0  0  0  0
  -29.0210  -17.7570   21.8660 C   0  0  2  0  0  0  0  0  0  0  0  0
  -29.0860  -16.3190   21.2310 C   0  0  0  0  0  2  0  0  0  0  0  0
  -30.2680  -15.4280   21.7030 C   0  0  0  0  0  2  0  0  0  0  0  0
  -30.7410  -14.3960   20.6630 C   0  0  0  0  0  0  0  0  0  0  0  0
  -30.4090  -12.2920   19.4000 C   0  0  0  0  0  2  0  0  0  0  0  0
  -29.4780  -12.5270   18.1950 C   0  0  0  0  0  2  0  0  0  0  0  0
  -28.0050  -12.3760   18.6150 C   0  0  0  0  0  2  0  0  0  0  0  0
  -27.6640  -13.2010   19.8840 C   0  0  0  0  0  3  0  0  0  0  0  0
  -28.7070  -12.9540   20.9990 C   0  0  0  0  0  2  0  0  0  0  0  0
  -30.0410  -13.2490   20.4540 N   0  0  0  0  0  0  0  0  0  0  0  0
  -31.7850  -14.6490   20.0510 O   0  0  0  0  0  0  0  0  0  0  0  0
  -25.2580  -13.8160   20.5680 C   0  0  0  0  0  0  0  0  0  0  0  0
  -24.1840  -13.0440   20.9220 C   0  0  0  0  0  0  0  0  0  0  0  0
  -24.6410  -11.6920   20.8790 C   0  0  0  0  0  0  0  0  0  0  0  0
  -26.3050  -12.9330   20.3450 N   0  0  0  0  0  0  0  0  0  0  0  0
  -25.9330  -11.6490   20.5800 N   0  0  0  0  0  0  0  0  0  0  0  0
  -23.9090  -10.4300   21.0440 C   0  0  0  0  0  0  0  0  0  0  0  0
  -24.3660   -9.4200   21.9200 C   0  0  0  0  0  3  0  0  0  0  0  0
  -23.6330   -8.2240   22.0760 C   0  0  0  0  0  3  0  0  0  0  0  0
  -22.4300   -8.0300   21.3570 C   0  0  0  0  0  0  0  0  0  0  0  0
  -21.9950   -9.0260   20.4640 C   0  0  0  0  0  3  0  0  0  0  0  0
  -22.7290  -10.2130   20.3050 C   0  0  0  0  0  3  0  0  0  0  0  0
  -21.6650   -6.8910   21.4270 O   0  0  0  0  0  0  0  0  0  0  0  0
  -21.6850   -6.0760   22.5310 C   0  0  0  0  0  0  0  0  0  0  0  0
  -21.4000   -6.5650   23.8240 C   0  0  0  0  0  3  0  0  0  0  0  0
  -21.3650   -5.6810   24.9210 C   0  0  0  0  0  3  0  0  0  0  0  0
  -21.6040   -4.3080   24.7250 C   0  0  0  0  0  0  0  0  0  0  0  0
  -21.8810   -3.8170   23.4370 C   0  0  0  0  0  3  0  0  0  0  0  0
  -21.9180   -4.6990   22.3420 C   0  0  0  0  0  0  0  0  0  0  0  0
  -22.1650   -4.2170   21.1000 F   0  0  0  0  0  0  0  0  0  0  0  0
  -21.5630   -3.4550   25.7770 F   0  0  0  0  0  0  0  0  0  0  0  0
  -22.7850  -13.5220   21.1880 C   0  0  0  0  0  0  0  0  0  0  0  0
  -22.0490  -12.8140   22.0390 N   0  0  0  0  0  0  0  0  0  0  0  0
  -22.3520  -14.5540   20.6780 O   0  0  0  0  0  0  0  0  0  0  0  0
  -22.4110  -11.9780   22.4730 H   0  0  0  0  0  0  0  0  0  0  0  0
  -21.1090  -13.1110   22.2610 H   0  0  0  0  0  0  0  0  0  0  0  0
  -25.4240  -15.1850   20.3950 N   0  0  0  0  0  0  0  0  0  0  0  0
  -24.6660  -15.8480   20.5160 H   0  0  0  0  0  0  0  0  0  0  0  0
  -26.2880  -15.6220   20.1020 H   0  0  0  0  0  0  0  0  0  0  0  0
  -29.2080  -23.5690   19.1330 C   0  0  0  0  0  2  0  0  0  0  0  0
  -29.8010  -24.9900   18.9810 C   0  0  0  0  0  2  0  0  0  0  0  0
  -28.7790  -26.1340   18.8110 C   0  0  0  0  0  2  0  0  0  0  0  0
  -28.3980  -26.7160   20.0610 O   0  0  0  0  0  0  0  0  0  0  0  0
  -24.6140  -31.8700   23.2120 C   0  0  0  0  0  0  0  0  0  0  0  0
  -27.2320  -27.4500   20.0690 C   0  0  0  0  0  0  0  0  0  0  0  0
  -23.4000  -30.4950   21.5540 C   0  0  0  0  0  3  0  0  0  0  0  0
  -24.8430  -28.9620   20.1170 C   0  0  0  0  0  0  0  0  0  0  0  0
  -25.9290  -30.8360   21.3640 C   0  0  0  0  0  2  0  0  0  0  0  0
  -26.0040  -29.4700   20.7120 C   0  0  0  0  0  0  0  0  0  0  0  0
  -27.2000  -28.7160   20.6950 C   0  0  0  0  0  3  0  0  0  0  0  0
  -26.0430  -26.9420   19.4980 C   0  0  0  0  0  3  0  0  0  0  0  0
  -24.8550  -27.6940   19.5140 C   0  0  0  0  0  3  0  0  0  0  0  0
  -23.6070  -29.8310   20.1670 C   0  0  0  0  0  2  0  0  0  0  0  0
  -24.6660  -31.0810   22.1020 N   0  0  0  0  0  0  0  0  0  0  0  0
  -23.5330  -32.1450   23.7520 O   0  0  0  0  0  0  0  0  0  0  0  0
  -22.7400  -29.4670   22.5010 C   0  0  0  0  0  0  0  0  0  0  0  0
  -21.4130  -29.3030   22.3740 N   0  0  0  0  0  0  0  0  0  0  0  0
  -23.4180  -28.8200   23.3040 O   0  0  0  0  0  0  0  0  0  0  0  0
  -20.9280  -29.8780   21.6990 H   0  0  0  0  0  0  0  0  0  0  0  0
  -18.0270  -28.1380   22.8500 C   0  0  0  0  0  0  0  0  0  0  0  0
  -20.5860  -28.3650   23.1320 C   0  0  0  0  0  3  0  0  0  0  0  0
  -20.6760  -26.9400   22.5410 C   0  0  0  0  0  2  0  0  0  0  0  0
  -19.5740  -26.6390   21.5210 C   0  0  0  0  0  2  0  0  0  0  0  0
  -18.1910  -26.7930   22.1620 C   0  0  0  0  0  2  0  0  0  0  0  0
  -19.1520  -28.8840   23.2910 C   0  0  0  0  0  0  0  0  0  0  0  0
  -18.9440  -30.1440   23.8920 C   0  0  0  0  0  3  0  0  0  0  0  0
  -17.6450  -30.6590   24.0570 C   0  0  0  0  0  3  0  0  0  0  0  0
  -16.5340  -29.9100   23.6320 C   0  0  0  0  0  3  0  0  0  0  0  0
  -16.7260  -28.6510   23.0350 C   0  0  0  0  0  3  0  0  0  0  0  0
  -25.9040  -32.4830   23.8410 C   0  0  0  0  0  3  0  0  0  0  0  0
  -25.5890  -33.8630   24.2340 N   0  0  0  0  0  0  0  0  0  0  0  0
  -25.9030  -34.9480   23.5130 C   0  0  0  0  0  0  0  0  0  0  0  0
  -26.5600  -34.8930   22.4700 O   0  0  0  0  0  0  0  0  0  0  0  0
  -25.0030  -33.9800   25.0470 H   0  0  0  0  0  0  0  0  0  0  0  0
  -24.1480  -36.7310   23.2640 C   0  0  0  0  0  1  0  0  0  0  0  0
  -25.4100  -36.3110   24.0340 C   0  0  0  0  0  3  0  0  0  0  0  0
  -27.5570  -37.1830   24.8470 C   0  0  0  0  0  1  0  0  0  0  0  0
  -26.4290  -37.3800   23.9400 N   0  0  0  0  0  0  0  0  0  0  0  0
  -26.0170  -38.2880   24.1390 H   0  0  0  0  0  0  0  0  0  0  0  0
  -26.4470  -31.6600   25.0730 C   0  0  1  0  0  0  0  0  0  0  0  0
  -25.3730  -31.3660   26.1460 C   0  0  0  0  0  1  0  0  0  0  0  0
  -27.0330  -30.3070   24.6080 C   0  0  0  0  0  1  0  0  0  0  0  0
  -27.6020  -32.4340   25.7530 C   0  0  0  0  0  1  0  0  0  0  0  0
  1  4  1  0
  2  3  1  0
  2  1  1  0
  3  5  1  0
  4  6  1  0
  4  5  1  0
  5  8  1  0
  7  1  2  0
  7 55  1  0
  9 11  1  0
 10  9  2  0
 12 13  1  0
 14  9  1  0
 14 12  1  0
 15 11  1  0
 15 13  1  0
 16  8  1  6
 16 14  1  0
 16 15  1  0
 17 18  1  0
 17 16  1  0
 19 18  1  0
 20 25  1  0
 21 22  1  0
 21 20  1  0
 23 22  1  0
 23 30  1  0
 23 24  1  0
 25 19  1  0
 25 24  1  0
 26 19  2  0
 27 28  2  0
 28 47  1  0
 29 28  1  0
 29 32  1  0
 30 27  1  0
 30 31  1  0
 31 29  2  0
 32 33  1  0
 33 34  2  0
 35 38  1  0
 35 34  1  0
 36 35  2  0
 37 36  1  0
 37 32  2  0
 38 39  1  0
 39 40  1  0
 40 41  2  0
 42 41  1  0
 42 46  1  0
 43 42  2  0
 44 39  2  0
 44 43  1  0
 45 44  1  0
 47 48  1  0
 48 51  1  0
 48 50  1  0
 49 47  2  0
 52 53  1  0
 52 27  1  0
 54 52  1  0
 56 55  1  0
 57 56  1  0
 57 58  1  0
 58 60  1  0
 59 70  2  0
 60 65  1  0
 61 69  1  0
 61 71  1  0
 62 68  1  0
 62 64  1  0
 63 69  1  0
 64 63  1  0
 65 64  2  0
 66 67  1  0
 66 60  2  0
 67 62  2  0
 68 61  1  0
 69 59  1  0
 71 73  2  0
 72 71  1  0
 74 72  1  0
 75 84  2  0
 75 80  1  0
 76 72  1  0
 76 80  1  0
 77 76  1  0
 78 79  1  0
 78 77  1  0
 79 75  1  0
 80 81  2  0
 81 82  1  0
 83 82  2  0
 84 83  1  0
 85 59  1  0
 85 86  1  0
 85 95  1  0
 86 89  1  0
 87 91  1  0
 87 86  1  0
 88 87  2  0
 91 90  1  0
 93 91  1  0
 93 94  1  0
 93 92  1  0
 95 98  1  1
 95 96  1  0
 97 95  1  0
M  ISO  4  18 100  19 100  57 101  58 101
M  END
>  <TORSDO>  (8) 
F 23

>  <SCORE>  (8) 
29.654

>  <name>  (8) 
7

>  <ligand_id>  (8) 
7

>  <original_smiles>  (8) 
[H]C([H])=C1C([H])([H])C2([H])C([H])([H])C([H])([H])C1([H])C2(C([H])([H])C([H])([H])C(=O)N1C([H])([H])C([H])([H])C([H])([H])C([H])(n2nc(-c3c([H])c([H])c(Oc4c([H])c([H])c(F)c([H])c4F)c([H])c3[H])c(C(=O)N([H])[H])c2N([H])[H])C1([H])[H])C([H])([H])C1([H])C([H])([H])C([H])([H])C(=NC([H])([H])C([H])([H])C([H])([H])Oc2c([H])c([H])c3c(c2[H])C([H])([H])N(C(=O)C([H])(N([H])C(=O)C([H])(N([H])C([H])([H])[H])C([H])([H])[H])C(C([H])([H])[H])(C([H])([H])[H])C([H])([H])[H])C([H])(C(=O)N([H])C2([H])c4c([H])c([H])c([H])c([H])c4C([H])([H])C([H])([H])C2([H])[H])C3([H])[H])C1([H])C([H])([H])[H]

>  <smiles>  (8) 
[H]C([H])=C1C([H])([H])C2([H])C([H])([H])C([H])([H])C1([H])C2(C([H])([H])C([H])([H])C(=O)N1C([H])([H])C([H])([H])C([H])([H])C([H])(n2nc(-c3c([H])c([H])c(Oc4c([H])c([H])c(F)c([H])c4F)c([H])c3[H])c(C(=O)N([H])[H])c2N([H])[H])C1([H])[H])C([H])([H])C1([H])C([H])([H])C([H])([H])C(=NC([H])([H])C([H])([H])C([H])([H])Oc2c([H])c([H])c3c(c2[H])C([H])([H])N(C(=O)C([H])(N([H])C(=O)C([H])(N([H])C([H])([H])[H])C([H])([H])[H])C(C([H])([H])[H])(C([H])([H])[H])C([H])([H])[H])C([H])(C(=O)N([H])C2([H])c4c([H])c([H])c([H])c([H])c4C([H])([H])C([H])([H])C2([H])[H])C3([H])[H])C1([H])C([H])([H])[H]

$$$$
8:0:0
     RDKit          3D

 92100  0  0  1  0  0  0  0  0999 V2000
  -29.8350  -20.2770   20.1730 C   0  0  0  0  0  0  0  0  0  0  0  0
  -28.9490  -21.2790   20.4490 N   0  0  0  0  0  0  0  0  0  0  0  0
  -30.9360  -20.5700   19.7030 O   0  0  0  0  0  0  0  0  0  0  0  0
  -28.0950  -20.9810   20.9080 H   0  0  0  0  0  0  0  0  0  0  0  0
  -28.9890  -17.9880   18.0160 C   0  0  0  0  0  2  0  0  0  0  0  0
  -28.2850  -18.5440   19.2630 C   0  0  0  0  0  2  0  0  0  0  0  0
  -30.4340  -17.6710   18.4380 C   0  0  0  0  0  2  0  0  0  0  0  0
  -29.3900  -18.7460   20.3200 C   0  0  0  0  0  3  0  0  0  0  0  0
  -30.4000  -17.5250   19.9840 C   0  0  2  0  0  0  0  0  0  0  0  0
  -32.9820  -16.9380   20.3590 C   0  0  0  0  0  1  0  0  0  0  0  0
  -31.7610  -17.8000   20.7060 C   0  0  0  0  0  2  0  0  0  0  0  0
  -29.8410  -16.0430   20.3870 C   0  0  0  0  0  2  0  0  0  0  0  0
  -30.5820  -14.6910   19.9670 C   0  0  0  0  0  0  0  0  0  0  0  0
  -30.3130  -12.4330   18.9650 C   0  0  0  0  0  2  0  0  0  0  0  0
  -29.3100  -12.5500   17.7980 C   0  0  0  0  0  2  0  0  0  0  0  0
  -27.8690  -12.3470   18.3090 C   0  0  0  0  0  2  0  0  0  0  0  0
  -27.5570  -13.2180   19.5540 C   0  0  0  0  0  3  0  0  0  0  0  0
  -28.6820  -13.1390   20.6100 C   0  0  0  0  0  2  0  0  0  0  0  0
  -29.9540  -13.4720   19.9560 N   0  0  0  0  0  0  0  0  0  0  0  0
  -31.7170  -14.7680   19.4960 O   0  0  0  0  0  0  0  0  0  0  0  0
  -25.2110  -13.7600   20.4400 C   0  0  0  0  0  0  0  0  0  0  0  0
  -24.1850  -12.9630   20.8710 C   0  0  0  0  0  0  0  0  0  0  0  0
  -24.6680  -11.6210   20.7920 C   0  0  0  0  0  0  0  0  0  0  0  0
  -26.2510  -12.9030   20.1270 N   0  0  0  0  0  0  0  0  0  0  0  0
  -25.9360  -11.6090   20.3980 N   0  0  0  0  0  0  0  0  0  0  0  0
  -23.9800  -10.3420   21.0130 C   0  0  0  0  0  0  0  0  0  0  0  0
  -24.4190   -9.4260   21.9940 C   0  0  0  0  0  3  0  0  0  0  0  0
  -23.7290   -8.2120   22.2010 C   0  0  0  0  0  3  0  0  0  0  0  0
  -22.5850   -7.9050   21.4260 C   0  0  0  0  0  0  0  0  0  0  0  0
  -22.1640   -8.8100   20.4340 C   0  0  0  0  0  3  0  0  0  0  0  0
  -22.8550  -10.0160   20.2260 C   0  0  0  0  0  3  0  0  0  0  0  0
  -21.8690   -6.7380   21.5410 O   0  0  0  0  0  0  0  0  0  0  0  0
  -21.7440   -6.0820   22.7400 C   0  0  0  0  0  0  0  0  0  0  0  0
  -21.1610   -6.6950   23.8700 C   0  0  0  0  0  3  0  0  0  0  0  0
  -20.9920   -5.9620   25.0610 C   0  0  0  0  0  3  0  0  0  0  0  0
  -21.3940   -4.6150   25.1210 C   0  0  0  0  0  0  0  0  0  0  0  0
  -21.9680   -3.9980   23.9960 C   0  0  0  0  0  3  0  0  0  0  0  0
  -22.1390   -4.7290   22.8060 C   0  0  0  0  0  0  0  0  0  0  0  0
  -22.6720   -4.1250   21.7180 F   0  0  0  0  0  0  0  0  0  0  0  0
  -21.2230   -3.9070   26.2630 F   0  0  0  0  0  0  0  0  0  0  0  0
  -22.8010  -13.4090   21.2420 C   0  0  0  0  0  0  0  0  0  0  0  0
  -22.1420  -12.6870   22.1420 N   0  0  0  0  0  0  0  0  0  0  0  0
  -22.3110  -14.4320   20.7660 O   0  0  0  0  0  0  0  0  0  0  0  0
  -22.5460  -11.8570   22.5500 H   0  0  0  0  0  0  0  0  0  0  0  0
  -21.2130  -12.9650   22.4260 H   0  0  0  0  0  0  0  0  0  0  0  0
  -25.3450  -15.1340   20.2660 N   0  0  0  0  0  0  0  0  0  0  0  0
  -24.5930  -15.7920   20.4410 H   0  0  0  0  0  0  0  0  0  0  0  0
  -26.1850  -15.5740   19.9120 H   0  0  0  0  0  0  0  0  0  0  0  0
  -28.8510  -22.5870   19.7200 C   0  0  0  0  0  2  0  0  0  0  0  0
  -28.8120  -23.9580   20.5150 C   0  0  0  0  0  2  0  0  0  0  0  0
  -28.0370  -25.1130   19.7580 C   0  0  0  0  0  2  0  0  0  0  0  0
  -28.1700  -26.5280   20.1650 O   0  0  0  0  0  0  0  0  0  0  0  0
  -24.5680  -31.9630   23.2140 C   0  0  0  0  0  0  0  0  0  0  0  0
  -27.0520  -27.3770   20.1040 C   0  0  0  0  0  0  0  0  0  0  0  0
  -23.3090  -30.5680   21.6130 C   0  0  0  0  0  3  0  0  0  0  0  0
  -24.7050  -29.0080   20.1520 C   0  0  0  0  0  0  0  0  0  0  0  0
  -25.8440  -30.8630   21.3640 C   0  0  0  0  0  2  0  0  0  0  0  0
  -25.8920  -29.4820   20.7240 C   0  0  0  0  0  0  0  0  0  0  0  0
  -27.0650  -28.6730   20.7010 C   0  0  0  0  0  3  0  0  0  0  0  0
  -25.8480  -26.9720   19.4780 C   0  0  0  0  0  3  0  0  0  0  0  0
  -24.6840  -27.7570   19.5220 C   0  0  0  0  0  3  0  0  0  0  0  0
  -23.4800  -29.8910   20.2290 C   0  0  0  0  0  2  0  0  0  0  0  0
  -24.5950  -31.1490   22.1200 N   0  0  0  0  0  0  0  0  0  0  0  0
  -23.5000  -32.2510   23.7750 O   0  0  0  0  0  0  0  0  0  0  0  0
  -22.6670  -29.5570   22.5920 C   0  0  0  0  0  0  0  0  0  0  0  0
  -21.3460  -29.3480   22.4660 N   0  0  0  0  0  0  0  0  0  0  0  0
  -23.3560  -28.9640   23.4280 O   0  0  0  0  0  0  0  0  0  0  0  0
  -20.8480  -29.8810   21.7670 H   0  0  0  0  0  0  0  0  0  0  0  0
  -17.9940  -28.0780   22.9580 C   0  0  0  0  0  0  0  0  0  0  0  0
  -20.5410  -28.4120   23.2540 C   0  0  0  0  0  3  0  0  0  0  0  0
  -20.6890  -26.9660   22.7250 C   0  0  0  0  0  2  0  0  0  0  0  0
  -19.6110  -26.5820   21.7070 C   0  0  0  0  0  2  0  0  0  0  0  0
  -18.2160  -26.7130   22.3270 C   0  0  0  0  0  2  0  0  0  0  0  0
  -19.0860  -28.8820   23.3780 C   0  0  0  0  0  0  0  0  0  0  0  0
  -18.8270  -30.1560   23.9280 C   0  0  0  0  0  3  0  0  0  0  0  0
  -17.5080  -30.6280   24.0620 C   0  0  0  0  0  3  0  0  0  0  0  0
  -16.4290  -29.8210   23.6590 C   0  0  0  0  0  3  0  0  0  0  0  0
  -16.6720  -28.5480   23.1130 C   0  0  0  0  0  3  0  0  0  0  0  0
  -25.8710  -32.5880   23.8000 C   0  0  0  0  0  3  0  0  0  0  0  0
  -25.5750  -33.9820   24.1560 N   0  0  0  0  0  0  0  0  0  0  0  0
  -25.8850  -35.0440   23.4000 C   0  0  0  0  0  0  0  0  0  0  0  0
  -26.5210  -34.9510   22.3460 O   0  0  0  0  0  0  0  0  0  0  0  0
  -25.0070  -34.1300   24.9770 H   0  0  0  0  0  0  0  0  0  0  0  0
  -24.1590  -36.8510   23.1120 C   0  0  0  0  0  1  0  0  0  0  0  0
  -25.4160  -36.4270   23.8880 C   0  0  0  0  0  3  0  0  0  0  0  0
  -27.5700  -37.2940   24.6900 C   0  0  0  0  0  1  0  0  0  0  0  0
  -26.4500  -37.4770   23.7680 N   0  0  0  0  0  0  0  0  0  0  0  0
  -26.0530  -38.3980   23.9340 H   0  0  0  0  0  0  0  0  0  0  0  0
  -26.4320  -31.8030   25.0480 C   0  0  1  0  0  0  0  0  0  0  0  0
  -25.3710  -31.5330   26.1420 C   0  0  0  0  0  1  0  0  0  0  0  0
  -27.0220  -30.4400   24.6180 C   0  0  0  0  0  1  0  0  0  0  0  0
  -27.5920  -32.5990   25.6920 C   0  0  0  0  0  1  0  0  0  0  0  0
  1  2  1  0
  2  4  1  0
  3  1  2  0
  5  7  1  0
  5  6  1  0
  6  8  1  0
  7  9  1  0
  8  1  1  0
  9  8  1  0
  9 12  1  6
  9 11  1  0
 10 11  1  0
 13 12  1  0
 14 19  1  0
 15 16  1  0
 15 14  1  0
 17 16  1  0
 17 24  1  0
 17 18  1  0
 19 13  1  0
 19 18  1  0
 20 13  2  0
 21 22  2  0
 22 41  1  0
 23 22  1  0
 23 26  1  0
 24 25  1  0
 24 21  1  0
 25 23  2  0
 26 27  1  0
 27 28  2  0
 29 32  1  0
 29 28  1  0
 30 29  2  0
 31 30  1  0
 31 26  2  0
 32 33  1  0
 33 38  2  0
 33 34  1  0
 34 35  2  0
 35 36  1  0
 36 40  1  0
 37 36  2  0
 38 37  1  0
 39 38  1  0
 41 42  1  0
 42 45  1  0
 42 44  1  0
 43 41  2  0
 46 21  1  0
 46 47  1  0
 48 46  1  0
 49  2  1  0
 49 50  1  0
 51 52  1  0
 51 50  1  0
 53 64  2  0
 54 52  1  0
 54 59  1  0
 55 63  1  0
 55 65  1  0
 56 62  1  0
 56 58  1  0
 57 63  1  0
 58 57  1  0
 59 58  2  0
 60 61  1  0
 60 54  2  0
 61 56  2  0
 62 55  1  0
 63 53  1  0
 65 67  2  0
 66 65  1  0
 68 66  1  0
 69 78  2  0
 69 74  1  0
 70 66  1  0
 70 74  1  0
 71 70  1  0
 72 73  1  0
 72 71  1  0
 73 69  1  0
 74 75  2  0
 75 76  1  0
 77 76  2  0
 78 77  1  0
 79 53  1  0
 79 80  1  0
 79 89  1  0
 80 83  1  0
 81 85  1  0
 81 80  1  0
 82 81  2  0
 85 84  1  0
 87 85  1  0
 87 88  1  0
 87 86  1  0
 89 92  1  1
 89 90  1  0
 91 89  1  0
M  ISO  4  12 100  13 100  51 101  52 101
M  END
>  <TORSDO>  (9) 
F 22

>  <SCORE>  (9) 
-12.750

>  <name>  (9) 
8

>  <ligand_id>  (9) 
8

>  <original_smiles>  (9) 
[H]c1c([H])c([H])c2c(c1[H])C([H])([H])C([H])([H])C([H])([H])C2([H])N([H])C(=O)C1([H])N(C(=O)C([H])(N([H])C(=O)C([H])(N([H])C([H])([H])[H])C([H])([H])[H])C(C([H])([H])[H])(C([H])([H])[H])C([H])([H])[H])C([H])([H])c2c([H])c(OC([H])([H])C([H])([H])C([H])([H])N([H])C(=O)C3([H])C([H])([H])C([H])([H])C([H])([H])C3(C([H])([H])C(=O)N3C([H])([H])C([H])([H])C([H])([H])C([H])(n4nc(-c5c([H])c([H])c(Oc6c([H])c([H])c(F)c([H])c6F)c([H])c5[H])c(C(=O)N([H])[H])c4N([H])[H])C3([H])[H])C([H])([H])C([H])([H])[H])c([H])c([H])c2C1([H])[H]

>  <smiles>  (9) 
[H]c1c([H])c([H])c2c(c1[H])C([H])([H])C([H])([H])C([H])([H])C2([H])N([H])C(=O)C1([H])N(C(=O)C([H])(N([H])C(=O)C([H])(N([H])C([H])([H])[H])C([H])([H])[H])C(C([H])([H])[H])(C([H])([H])[H])C([H])([H])[H])C([H])([H])c2c([H])c(OC([H])([H])C([H])([H])C([H])([H])N([H])C(=O)C3([H])C([H])([H])C([H])([H])C([H])([H])C3(C([H])([H])C(=O)N3C([H])([H])C([H])([H])C([H])([H])C([H])(n4nc(-c5c([H])c([H])c(Oc6c([H])c([H])c(F)c([H])c6F)c([H])c5[H])c(C(=O)N([H])[H])c4N([H])[H])C3([H])[H])C([H])([H])C([H])([H])[H])c([H])c([H])c2C1([H])[H]

$$$$
9:0:0
     RDKit          3D

 98106  0  0  1  0  0  0  0  0999 V2000
  -32.7120  -21.4780   20.1390 C   0  0  0  0  0  1  0  0  0  0  0  0
  -31.2730  -21.0790   20.5580 C   0  0  0  0  0  3  0  0  0  0  0  0
  -32.1040  -18.9440   23.6680 C   0  0  0  0  0  2  0  0  0  0  0  0
  -31.9870  -20.2780   22.9310 C   0  0  0  0  0  2  0  0  0  0  0  0
  -32.1120  -17.8590   22.5840 C   0  0  0  0  0  2  0  0  0  0  0  0
  -31.2130  -19.9530   21.6410 C   0  0  0  0  0  3  0  0  0  0  0  0
  -31.7720  -18.5620   21.2480 C   0  0  0  0  0  3  0  0  0  0  0  0
  -30.9170  -17.7220   20.2510 C   0  0  0  0  0  3  0  0  0  0  0  0
  -31.8070  -17.1310   19.2360 N   0  0  0  0  0  4  0  0  0  0  0  0
  -32.4790  -16.5020   19.6390 H   0  0  0  0  0  0  0  0  0  0  0  0
  -32.2940  -17.8410   18.7150 H   0  0  0  0  0  0  0  0  0  0  0  0
  -31.2220  -16.6130   18.5860 H   0  0  0  0  0  0  0  0  0  0  0  0
  -30.0290  -16.6300   20.9220 C   0  0  0  0  0  2  0  0  0  0  0  0
  -29.0180  -15.8440   20.0380 C   0  0  0  0  0  2  0  0  0  0  0  0
  -29.5790  -14.6180   19.2870 C   0  0  0  0  0  0  0  0  0  0  0  0
  -29.6020  -12.2130   18.7330 C   0  0  0  0  0  2  0  0  0  0  0  0
  -28.5250  -11.8730   17.6860 C   0  0  0  0  0  2  0  0  0  0  0  0
  -27.1810  -11.5670   18.3730 C   0  0  0  0  0  2  0  0  0  0  0  0
  -26.7820  -12.6580   19.4010 C   0  0  0  0  0  3  0  0  0  0  0  0
  -27.9600  -12.9840   20.3450 C   0  0  0  0  0  2  0  0  0  0  0  0
  -29.1240  -13.3580   19.5250 N   0  0  0  0  0  0  0  0  0  0  0  0
  -30.4490  -14.8340   18.4400 O   0  0  0  0  0  0  0  0  0  0  0  0
  -24.5980  -13.0800   20.6990 C   0  0  0  0  0  0  0  0  0  0  0  0
  -23.6670  -12.2240   21.2280 C   0  0  0  0  0  0  0  0  0  0  0  0
  -24.1460  -10.9060   20.9570 C   0  0  0  0  0  0  0  0  0  0  0  0
  -25.5840  -12.2760   20.1480 N   0  0  0  0  0  0  0  0  0  0  0  0
  -25.3280  -10.9590   20.3540 N   0  0  0  0  0  0  0  0  0  0  0  0
  -23.5220   -9.5970   21.1850 C   0  0  0  0  0  0  0  0  0  0  0  0
  -24.0800   -8.6590   22.0810 C   0  0  0  0  0  3  0  0  0  0  0  0
  -23.4520   -7.4130   22.2960 C   0  0  0  0  0  3  0  0  0  0  0  0
  -22.2520   -7.0960   21.6160 C   0  0  0  0  0  0  0  0  0  0  0  0
  -21.7140   -8.0240   20.7070 C   0  0  0  0  0  3  0  0  0  0  0  0
  -22.3430   -9.2610   20.4900 C   0  0  0  0  0  3  0  0  0  0  0  0
  -21.5850   -5.9010   21.7430 O   0  0  0  0  0  0  0  0  0  0  0  0
  -21.5540   -5.2170   22.9310 C   0  0  0  0  0  0  0  0  0  0  0  0
  -21.0260   -5.7900   24.1080 C   0  0  0  0  0  3  0  0  0  0  0  0
  -20.9500   -5.0260   25.2900 C   0  0  0  0  0  3  0  0  0  0  0  0
  -21.3910   -3.6900   25.2950 C   0  0  0  0  0  0  0  0  0  0  0  0
  -21.9130   -3.1160   24.1230 C   0  0  0  0  0  3  0  0  0  0  0  0
  -21.9910   -3.8770   22.9430 C   0  0  0  0  0  0  0  0  0  0  0  0
  -22.4750   -3.3120   21.8110 F   0  0  0  0  0  0  0  0  0  0  0  0
  -21.3120   -2.9540   26.4280 F   0  0  0  0  0  0  0  0  0  0  0  0
  -22.3610  -12.6040   21.8650 C   0  0  0  0  0  0  0  0  0  0  0  0
  -21.8970  -11.8170   22.8300 N   0  0  0  0  0  0  0  0  0  0  0  0
  -21.7660  -13.6310   21.5410 O   0  0  0  0  0  0  0  0  0  0  0  0
  -22.3960  -10.9860   23.1110 H   0  0  0  0  0  0  0  0  0  0  0  0
  -21.0310  -12.0490   23.2950 H   0  0  0  0  0  0  0  0  0  0  0  0
  -24.6810  -14.4670   20.6250 N   0  0  0  0  0  0  0  0  0  0  0  0
  -23.9490  -15.0780   20.9710 H   0  0  0  0  0  0  0  0  0  0  0  0
  -25.4330  -14.9700   20.1700 H   0  0  0  0  0  0  0  0  0  0  0  0
  -30.4690  -22.2490   21.0060 N   0  0  0  0  0  4  0  0  0  0  0  0
  -29.6680  -21.8980   21.5060 H   0  0  0  0  0  0  0  0  0  0  0  0
  -31.0150  -22.7880   21.6590 H   0  0  0  0  0  0  0  0  0  0  0  0
  -29.9830  -23.1630   19.9460 C   0  0  0  0  0  2  0  0  0  0  0  0
  -28.8400  -24.0690   20.4360 C   0  0  0  0  0  2  0  0  0  0  0  0
  -28.3790  -25.0690   19.3580 C   0  0  0  0  0  2  0  0  0  0  0  0
  -27.2520  -25.9890   19.8430 C   0  0  0  0  0  2  0  0  0  0  0  0
  -27.0070  -26.9910   18.8610 O   0  0  0  0  0  0  0  0  0  0  0  0
  -24.4230  -31.9820   23.2100 C   0  0  0  0  0  0  0  0  0  0  0  0
  -25.9630  -27.8230   19.1720 C   0  0  0  0  0  0  0  0  0  0  0  0
  -22.8080  -30.9970   21.6130 C   0  0  0  0  0  3  0  0  0  0  0  0
  -23.8160  -29.5430   19.7770 C   0  0  0  0  0  0  0  0  0  0  0  0
  -25.2990  -31.1040   21.0510 C   0  0  0  0  0  2  0  0  0  0  0  0
  -25.1060  -29.8470   20.2310 C   0  0  0  0  0  0  0  0  0  0  0  0
  -26.1870  -28.9940   19.9240 C   0  0  0  0  0  3  0  0  0  0  0  0
  -24.6620  -27.5250   18.7180 C   0  0  0  0  0  3  0  0  0  0  0  0
  -23.5860  -28.3810   19.0200 C   0  0  0  0  0  3  0  0  0  0  0  0
  -22.7170  -30.5160   20.1400 C   0  0  0  0  0  2  0  0  0  0  0  0
  -24.2050  -31.3630   22.0150 N   0  0  0  0  0  0  0  0  0  0  0  0
  -23.4800  -32.2880   23.9530 O   0  0  0  0  0  0  0  0  0  0  0  0
  -22.1720  -29.9210   22.5220 C   0  0  0  0  0  0  0  0  0  0  0  0
  -20.8360  -29.7980   22.4570 N   0  0  0  0  0  0  0  0  0  0  0  0
  -22.8750  -29.2020   23.2390 O   0  0  0  0  0  0  0  0  0  0  0  0
  -20.3330  -30.4300   21.8510 H   0  0  0  0  0  0  0  0  0  0  0  0
  -17.4640  -28.5960   22.9350 C   0  0  0  0  0  0  0  0  0  0  0  0
  -20.0250  -28.8280   23.1910 C   0  0  0  0  0  3  0  0  0  0  0  0
  -20.1150  -27.4250   22.5470 C   0  0  0  0  0  2  0  0  0  0  0  0
  -19.0010  -27.1570   21.5310 C   0  0  0  0  0  2  0  0  0  0  0  0
  -17.6260  -27.2790   22.1950 C   0  0  0  0  0  2  0  0  0  0  0  0
  -18.5910  -29.3310   23.3890 C   0  0  0  0  0  0  0  0  0  0  0  0
  -18.3860  -30.5670   24.0400 C   0  0  0  0  0  3  0  0  0  0  0  0
  -17.0860  -31.0670   24.2420 C   0  0  0  0  0  3  0  0  0  0  0  0
  -15.9740  -30.3280   23.8060 C   0  0  0  0  0  3  0  0  0  0  0  0
  -16.1640  -29.0940   23.1580 C   0  0  0  0  0  3  0  0  0  0  0  0
  -25.8600  -32.3570   23.6880 C   0  0  0  0  0  3  0  0  0  0  0  0
  -26.4090  -31.4020   24.8170 C   0  0  1  0  0  0  0  0  0  0  0  0
  -25.4280  -31.2040   25.9950 C   0  0  0  0  0  1  0  0  0  0  0  0
  -26.7370  -30.0070   24.2370 C   0  0  0  0  0  1  0  0  0  0  0  0
  -27.7330  -31.9670   25.3850 C   0  0  0  0  0  1  0  0  0  0  0  0
  -25.8210  -33.7490   24.1570 N   0  0  0  0  0  0  0  0  0  0  0  0
  -26.2530  -34.8010   23.4490 C   0  0  0  0  0  0  0  0  0  0  0  0
  -26.7990  -34.6900   22.3480 O   0  0  0  0  0  0  0  0  0  0  0  0
  -25.3380  -33.9200   25.0260 H   0  0  0  0  0  0  0  0  0  0  0  0
  -24.8340  -36.8770   23.3980 C   0  0  0  0  0  1  0  0  0  0  0  0
  -26.0460  -36.2000   24.0590 C   0  0  0  0  0  3  0  0  0  0  0  0
  -28.3570  -36.6390   24.7640 C   0  0  0  0  0  1  0  0  0  0  0  0
  -27.2330  -37.0760   23.9400 N   0  0  0  0  0  0  0  0  0  0  0  0
  -27.0020  -38.0310   24.1980 H   0  0  0  0  0  0  0  0  0  0  0  0
  2  1  1  0
  2 51  1  0
  4  3  1  0
  5  3  1  0
  6  2  1  0
  6  4  1  0
  7  8  1  0
  7  6  1  0
  7  5  1  0
  8 13  1  0
  9 10  1  0
  9  8  1  0
 11  9  1  0
 12  9  1  0
 14 13  1  0
 15 21  1  0
 15 14  1  0
 16 21  1  0
 17 18  1  0
 17 16  1  0
 19 18  1  0
 19 26  1  0
 19 20  1  0
 21 20  1  0
 22 15  2  0
 23 24  2  0
 24 43  1  0
 25 28  1  0
 25 24  1  0
 26 27  1  0
 26 23  1  0
 27 25  2  0
 28 29  1  0
 29 30  2  0
 31 34  1  0
 31 30  1  0
 32 31  2  0
 33 32  1  0
 33 28  2  0
 34 35  1  0
 35 40  2  0
 35 36  1  0
 36 37  2  0
 37 38  1  0
 38 42  1  0
 39 38  2  0
 40 39  1  0
 41 40  1  0
 43 44  1  0
 44 46  1  0
 44 47  1  0
 45 43  2  0
 48 23  1  0
 48 49  1  0
 50 48  1  0
 51 52  1  0
 51 53  1  0
 54 55  1  0
 54 51  1  0
 56 57  1  0
 56 55  1  0
 58 60  1  0
 58 57  1  0
 59 70  2  0
 60 65  1  0
 61 69  1  0
 61 71  1  0
 62 68  1  0
 62 64  1  0
 63 69  1  0
 64 63  1  0
 65 64  2  0
 66 67  1  0
 66 60  2  0
 67 62  2  0
 68 61  1  0
 69 59  1  0
 71 73  2  0
 72 71  1  0
 74 72  1  0
 75 84  2  0
 75 80  1  0
 76 72  1  0
 76 80  1  0
 77 76  1  0
 78 79  1  0
 78 77  1  0
 79 75  1  0
 80 81  2  0
 81 82  1  0
 83 82  2  0
 84 83  1  0
 85 59  1  0
 85 90  1  0
 85 86  1  0
 86 89  1  1
 86 87  1  0
 88 86  1  0
 90 93  1  0
 91 95  1  0
 91 90  1  0
 92 91  2  0
 95 94  1  0
 97 95  1  0
 97 98  1  0
 97 96  1  0
M  ISO  4  14 100  15 100  57 101  58 101
M  END
>  <TORSDO>  (10) 
F 26

>  <SCORE>  (10) 
-5.792

>  <name>  (10) 
9

>  <ligand_id>  (10) 
9

>  <original_smiles>  (10) 
[H]c1c([H])c([H])c2c(c1[H])C([H])([H])C([H])([H])C([H])([H])C2([H])N([H])C(=O)C1([H])N(C(=O)C([H])(N([H])C(=O)C([H])(N([H])C([H])([H])[H])C([H])([H])[H])C(C([H])([H])[H])(C([H])([H])[H])C([H])([H])[H])C([H])([H])c2c([H])c(OC([H])([H])C([H])([H])C([H])([H])C([H])([H])[N+]([H])([H])C([H])(C([H])([H])[H])C3([H])C([H])([H])C([H])([H])C([H])([H])C3([H])C([H])(C([H])([H])C([H])([H])C(=O)N3C([H])([H])C([H])([H])C([H])([H])C([H])(n4nc(-c5c([H])c([H])c(Oc6c([H])c([H])c(F)c([H])c6F)c([H])c5[H])c(C(=O)N([H])[H])c4N([H])[H])C3([H])[H])[N+]([H])([H])[H])c([H])c([H])c2C1([H])[H]

>  <smiles>  (10) 
[H]c1c([H])c([H])c2c(c1[H])C([H])([H])C([H])([H])C([H])([H])C2([H])N([H])C(=O)C1([H])N(C(=O)C([H])(N([H])C(=O)C([H])(N([H])C([H])([H])[H])C([H])([H])[H])C(C([H])([H])[H])(C([H])([H])[H])C([H])([H])[H])C([H])([H])c2c([H])c(OC([H])([H])C([H])([H])C([H])([H])C([H])([H])[N+]([H])([H])C([H])(C([H])([H])[H])C3([H])C([H])([H])C([H])([H])C([H])([H])C3([H])C([H])(C([H])([H])C([H])([H])C(=O)N3C([H])([H])C([H])([H])C([H])([H])C([H])(n4nc(-c5c([H])c([H])c(Oc6c([H])c([H])c(F)c([H])c6F)c([H])c5[H])c(C(=O)N([H])[H])c4N([H])[H])C3([H])[H])[N+]([H])([H])[H])c([H])c([H])c2C1([H])[H]

$$$$
10:0:0
     RDKit          3D

 93102  0  0  1  0  0  0  0  0999 V2000
  -29.6850  -22.4920   18.7700 C   0  0  0  0  0  3  0  0  0  0  0  0
  -25.5030  -20.8130   18.8590 C   0  0  0  0  0  2  0  0  0  0  0  0
  -26.6960  -19.2990   18.1980 C   0  0  0  0  0  2  0  0  0  0  0  0
  -27.8930  -20.8810   19.9150 C   0  0  0  0  0  2  0  0  0  0  0  0
  -27.5620  -21.6370   17.4510 C   0  0  0  0  0  2  0  0  0  0  0  0
  -26.6500  -20.0500   19.5440 C   0  0  0  0  0  3  0  0  0  0  0  0
  -26.3710  -20.6740   17.5900 C   0  0  0  0  0  3  0  0  0  0  0  0
  -28.2000  -21.9680   18.8350 C   0  0  0  0  0  3  0  0  0  0  0  0
  -30.7180  -21.3890   19.2260 N   0  0  0  0  0  4  0  0  0  0  0  0
  -31.5730  -21.5760   18.7270 H   0  0  0  0  0  0  0  0  0  0  0  0
  -30.9300  -21.5510   20.1970 H   0  0  0  0  0  0  0  0  0  0  0  0
  -30.4270  -19.8510   19.0680 C   0  0  0  0  0  2  0  0  0  0  0  0
  -31.4700  -18.6420   19.5300 C   0  0  0  0  0  3  0  0  0  0  0  0
  -30.9370  -17.1170   19.9280 C   0  0  0  0  0  3  0  0  0  0  0  0
  -31.8420  -15.7520   20.0100 C   0  0  0  0  0  0  0  0  0  0  0  0
  -31.8230  -13.2640   19.5830 C   0  0  0  0  0  2  0  0  0  0  0  0
  -30.9650  -12.9910   18.3260 C   0  0  0  0  0  2  0  0  0  0  0  0
  -29.4730  -12.8520   18.6960 C   0  0  0  0  0  2  0  0  0  0  0  0
  -28.9920  -13.9920   19.6320 C   0  0  0  0  0  3  0  0  0  0  0  0
  -29.9730  -14.2260   20.8000 C   0  0  0  0  0  2  0  0  0  0  0  0
  -31.2970  -14.4960   20.2270 N   0  0  0  0  0  0  0  0  0  0  0  0
  -33.0450  -15.8150   19.7320 O   0  0  0  0  0  0  0  0  0  0  0  0
  -26.6330  -14.7280   20.3130 C   0  0  0  0  0  0  0  0  0  0  0  0
  -25.5130  -14.0210   20.6580 C   0  0  0  0  0  0  0  0  0  0  0  0
  -25.8940  -12.6440   20.6360 C   0  0  0  0  0  0  0  0  0  0  0  0
  -27.6250  -13.7850   20.0980 N   0  0  0  0  0  0  0  0  0  0  0  0
  -27.1870  -12.5260   20.3580 N   0  0  0  0  0  0  0  0  0  0  0  0
  -25.0850  -11.4290   20.8090 C   0  0  0  0  0  0  0  0  0  0  0  0
  -25.3750  -10.4880   21.8210 C   0  0  0  0  0  3  0  0  0  0  0  0
  -24.5720   -9.3380   21.9790 C   0  0  0  0  0  3  0  0  0  0  0  0
  -23.4650   -9.1200   21.1240 C   0  0  0  0  0  0  0  0  0  0  0  0
  -23.1960  -10.0480   20.1030 C   0  0  0  0  0  3  0  0  0  0  0  0
  -23.9990  -11.1900   19.9440 C   0  0  0  0  0  3  0  0  0  0  0  0
  -22.6470   -8.0170   21.1860 O   0  0  0  0  0  0  0  0  0  0  0  0
  -22.3000   -7.4450   22.3830 C   0  0  0  0  0  0  0  0  0  0  0  0
  -21.6220   -8.1710   23.3870 C   0  0  0  0  0  3  0  0  0  0  0  0
  -21.2210   -7.5270   24.5740 C   0  0  0  0  0  3  0  0  0  0  0  0
  -21.4890   -6.1560   24.7560 C   0  0  0  0  0  0  0  0  0  0  0  0
  -22.1590   -5.4300   23.7550 C   0  0  0  0  0  3  0  0  0  0  0  0
  -22.5600   -6.0720   22.5720 C   0  0  0  0  0  0  0  0  0  0  0  0
  -23.1870   -5.3640   21.6010 F   0  0  0  0  0  0  0  0  0  0  0  0
  -21.0970   -5.5350   25.8930 F   0  0  0  0  0  0  0  0  0  0  0  0
  -24.1400  -14.5820   20.8910 C   0  0  0  0  0  0  0  0  0  0  0  0
  -23.3610  -13.9530   21.7650 N   0  0  0  0  0  0  0  0  0  0  0  0
  -23.7680  -15.6140   20.3330 O   0  0  0  0  0  0  0  0  0  0  0  0
  -23.6730  -13.1190   22.2390 H   0  0  0  0  0  0  0  0  0  0  0  0
  -22.4380  -14.3130   21.9640 H   0  0  0  0  0  0  0  0  0  0  0  0
  -26.8850  -16.0870   20.1430 N   0  0  0  0  0  0  0  0  0  0  0  0
  -26.1630  -16.7880   20.2630 H   0  0  0  0  0  0  0  0  0  0  0  0
  -27.7710  -16.4810   19.8580 H   0  0  0  0  0  0  0  0  0  0  0  0
  -29.7970  -24.1090   19.2820 C   0  0  0  0  0  2  0  0  0  0  0  0
  -28.6690  -25.3080   19.6790 C   0  0  0  0  0  2  0  0  0  0  0  0
  -28.7760  -26.8310   19.5000 O   0  0  0  0  0  0  0  0  0  0  0  0
  -24.4650  -31.5570   23.0940 C   0  0  0  0  0  0  0  0  0  0  0  0
  -27.5980  -27.6340   19.5750 C   0  0  0  0  0  0  0  0  0  0  0  0
  -23.4350  -30.2020   21.3100 C   0  0  0  0  0  3  0  0  0  0  0  0
  -25.0590  -29.0060   19.7250 C   0  0  0  0  0  0  0  0  0  0  0  0
  -25.9220  -30.8390   21.1720 C   0  0  0  0  0  2  0  0  0  0  0  0
  -26.1730  -29.5510   20.3780 C   0  0  0  0  0  0  0  0  0  0  0  0
  -27.4450  -28.8840   20.2850 C   0  0  0  0  0  3  0  0  0  0  0  0
  -26.4510  -27.1810   18.8910 C   0  0  0  0  0  3  0  0  0  0  0  0
  -25.2060  -27.8360   18.9670 C   0  0  0  0  0  3  0  0  0  0  0  0
  -23.7220  -29.7130   19.8650 C   0  0  0  0  0  2  0  0  0  0  0  0
  -24.6250  -30.8810   21.9160 N   0  0  0  0  0  0  0  0  0  0  0  0
  -23.3600  -31.6330   23.6520 O   0  0  0  0  0  0  0  0  0  0  0  0
  -22.9140  -29.0120   22.1560 C   0  0  0  0  0  0  0  0  0  0  0  0
  -21.6290  -28.6560   21.9840 N   0  0  0  0  0  0  0  0  0  0  0  0
  -23.6660  -28.4150   22.9320 O   0  0  0  0  0  0  0  0  0  0  0  0
  -21.0700  -29.2020   21.3420 H   0  0  0  0  0  0  0  0  0  0  0  0
  -18.4650  -26.9210   22.2860 C   0  0  0  0  0  0  0  0  0  0  0  0
  -20.9530  -27.5350   22.6430 C   0  0  0  0  0  3  0  0  0  0  0  0
  -21.2770  -26.1970   21.9370 C   0  0  0  0  0  2  0  0  0  0  0  0
  -20.2460  -25.8100   20.8740 C   0  0  0  0  0  2  0  0  0  0  0  0
  -18.8510  -25.6820   21.4940 C   0  0  0  0  0  2  0  0  0  0  0  0
  -19.4510  -27.7970   22.8120 C   0  0  0  0  0  0  0  0  0  0  0  0
  -19.0350  -28.9490   23.5150 C   0  0  0  0  0  3  0  0  0  0  0  0
  -17.6680  -29.2280   23.6940 C   0  0  0  0  0  3  0  0  0  0  0  0
  -16.6960  -28.3500   23.1840 C   0  0  0  0  0  3  0  0  0  0  0  0
  -17.0960  -27.1960   22.4870 C   0  0  0  0  0  3  0  0  0  0  0  0
  -25.6590  -32.2840   23.7870 C   0  0  0  0  0  3  0  0  0  0  0  0
  -25.2470  -33.6740   24.0460 N   0  0  0  0  0  0  0  0  0  0  0  0
  -25.5980  -34.7250   23.2940 C   0  0  0  0  0  0  0  0  0  0  0  0
  -26.3650  -34.6310   22.3320 O   0  0  0  0  0  0  0  0  0  0  0  0
  -24.5730  -33.8150   24.7830 H   0  0  0  0  0  0  0  0  0  0  0  0
  -23.8190  -36.4140   22.7360 C   0  0  0  0  0  1  0  0  0  0  0  0
  -25.0020  -36.0970   23.6650 C   0  0  0  0  0  3  0  0  0  0  0  0
  -27.0060  -37.1160   24.6540 C   0  0  0  0  0  1  0  0  0  0  0  0
  -25.9860  -37.2010   23.6110 N   0  0  0  0  0  0  0  0  0  0  0  0
  -25.5220  -38.1030   23.6940 H   0  0  0  0  0  0  0  0  0  0  0  0
  -26.1150  -31.5870   25.1270 C   0  0  1  0  0  0  0  0  0  0  0  0
  -24.9570  -31.3330   26.1220 C   0  0  0  0  0  1  0  0  0  0  0  0
  -26.7910  -30.2280   24.8360 C   0  0  0  0  0  1  0  0  0  0  0  0
  -27.1760  -32.4610   25.8370 C   0  0  0  0  0  1  0  0  0  0  0  0
  1  9  1  0
  1 51  1  0
  2  6  1  0
  5  8  1  0
  6  3  1  0
  6  4  1  0
  7  5  1  0
  7  3  1  0
  7  2  1  0
  8  1  1  0
  8  4  1  0
  9 11  1  0
 10  9  1  0
 12  9  1  0
 12 13  1  0
 13 14  2  0
 14 15  1  0
 15 21  1  0
 16 21  1  0
 17 18  1  0
 17 16  1  0
 19 18  1  0
 19 26  1  0
 19 20  1  0
 21 20  1  0
 22 15  2  0
 23 24  2  0
 24 43  1  0
 25 24  1  0
 25 28  1  0
 26 23  1  0
 26 27  1  0
 27 25  2  0
 28 29  1  0
 29 30  2  0
 31 34  1  0
 31 30  1  0
 32 31  2  0
 33 32  1  0
 33 28  2  0
 34 35  1  0
 35 40  2  0
 35 36  1  0
 36 37  2  0
 37 38  1  0
 38 42  1  0
 39 38  2  0
 40 39  1  0
 41 40  1  0
 43 44  1  0
 44 47  1  0
 44 46  1  0
 45 43  2  0
 48 49  1  0
 48 23  1  0
 50 48  1  0
 51 52  1  0
 53 55  1  0
 53 52  1  0
 54 65  2  0
 55 60  1  0
 56 64  1  0
 56 66  1  0
 57 63  1  0
 57 59  1  0
 58 64  1  0
 59 58  1  0
 60 59  2  0
 61 62  1  0
 61 55  2  0
 62 57  2  0
 63 56  1  0
 64 54  1  0
 66 68  2  0
 67 66  1  0
 69 67  1  0
 70 79  2  0
 70 75  1  0
 71 67  1  0
 71 75  1  0
 72 71  1  0
 73 74  1  0
 73 72  1  0
 74 70  1  0
 75 76  2  0
 76 77  1  0
 78 77  2  0
 79 78  1  0
 80 54  1  0
 80 81  1  0
 80 90  1  0
 81 84  1  0
 82 86  1  0
 82 81  1  0
 83 82  2  0
 86 85  1  0
 88 86  1  0
 88 89  1  0
 88 87  1  0
 90 93  1  1
 90 91  1  0
 92 90  1  0
M  ISO  4  14 100  15 100  52 101  53 101
M  END
>  <TORSDO>  (11) 
F 23

>  <SCORE>  (11) 
-8.852

>  <name>  (11) 
10

>  <ligand_id>  (11) 
10

>  <original_smiles>  (11) 
[H]c1c([H])c([H])c2c(c1[H])C([H])([H])C([H])([H])C([H])([H])C2([H])N([H])C(=O)C1([H])N(C(=O)C([H])(N([H])C(=O)C([H])(N([H])C([H])([H])[H])C([H])([H])[H])C(C([H])([H])[H])(C([H])([H])[H])C([H])([H])[H])C([H])([H])c2c([H])c(OC([H])([H])C([H])([H])C([H])(C3([H])C([H])([H])C4([H])C([H])([H])C([H])(C4([H])[H])C3([H])[H])[N+]([H])([H])C([H])([H])C([H])([H])C([H])([H])C(=O)N3C([H])([H])C([H])([H])C([H])([H])C([H])(n4nc(-c5c([H])c([H])c(Oc6c([H])c([H])c(F)c([H])c6F)c([H])c5[H])c(C(=O)N([H])[H])c4N([H])[H])C3([H])[H])c([H])c([H])c2C1([H])[H]

>  <smiles>  (11) 
[H]c1c([H])c([H])c2c(c1[H])C([H])([H])C([H])([H])C([H])([H])C2([H])N([H])C(=O)C1([H])N(C(=O)C([H])(N([H])C(=O)C([H])(N([H])C([H])([H])[H])C([H])([H])[H])C(C([H])([H])[H])(C([H])([H])[H])C([H])([H])[H])C([H])([H])c2c([H])c(OC([H])([H])C([H])([H])C([H])(C3([H])C([H])([H])C4([H])C([H])([H])C([H])(C4([H])[H])C3([H])[H])[N+]([H])([H])C([H])([H])C([H])([H])C([H])([H])C(=O)N3C([H])([H])C([H])([H])C([H])([H])C([H])(n4nc(-c5c([H])c([H])c(Oc6c([H])c([H])c(F)c([H])c6F)c([H])c5[H])c(C(=O)N([H])[H])c4N([H])[H])C3([H])[H])c([H])c([H])c2C1([H])[H]

$$$$
11:0:0
     RDKit          3D

 89 97  0  0  1  0  0  0  0  0999 V2000
  -29.1380  -20.6980   20.6460 C   0  0  0  0  0  2  0  0  0  0  0  0
  -31.4490  -19.8370   20.1010 C   0  0  0  0  0  0  0  0  0  0  0  0
  -32.0590  -20.4560   19.0770 C   0  0  0  0  0  2  0  0  0  0  0  0
  -31.5740  -17.9440   21.5350 C   0  0  0  0  0  2  0  0  0  0  0  0
  -32.1040  -19.3720   21.3850 C   0  0  0  0  0  3  0  0  0  0  0  0
  -30.0020  -19.3770   20.1080 C   0  0  0  0  0  3  0  0  0  0  0  0
  -30.1450  -17.9270   20.9370 C   0  0  0  0  0  3  0  0  0  0  0  0
  -33.6380  -19.4800   21.4360 C   0  0  0  0  0  1  0  0  0  0  0  0
  -29.7010  -16.3920   20.4330 C   0  0  0  0  0  2  0  0  0  0  0  0
  -30.5780  -14.9990   20.3310 C   0  0  0  0  0  0  0  0  0  0  0  0
  -30.4560  -12.6700   19.3650 C   0  0  0  0  0  2  0  0  0  0  0  0
  -29.5050  -12.7020   18.1420 C   0  0  0  0  0  2  0  0  0  0  0  0
  -28.0360  -12.5140   18.5690 C   0  0  0  0  0  2  0  0  0  0  0  0
  -27.6590  -13.3890   19.7890 C   0  0  0  0  0  3  0  0  0  0  0  0
  -28.7280  -13.3260   20.9000 C   0  0  0  0  0  2  0  0  0  0  0  0
  -30.0110  -13.7300   20.3110 N   0  0  0  0  0  0  0  0  0  0  0  0
  -31.7730  -15.0780   20.0270 O   0  0  0  0  0  0  0  0  0  0  0  0
  -25.2790  -13.9520   20.5580 C   0  0  0  0  0  0  0  0  0  0  0  0
  -24.2210  -13.1700   20.9270 C   0  0  0  0  0  0  0  0  0  0  0  0
  -24.6860  -11.8200   20.8710 C   0  0  0  0  0  0  0  0  0  0  0  0
  -26.3230  -13.0820   20.2930 N   0  0  0  0  0  0  0  0  0  0  0  0
  -25.9740  -11.7930   20.5420 N   0  0  0  0  0  0  0  0  0  0  0  0
  -23.9610  -10.5540   21.0560 C   0  0  0  0  0  0  0  0  0  0  0  0
  -24.4020   -9.5750   21.9740 C   0  0  0  0  0  3  0  0  0  0  0  0
  -23.6780   -8.3760   22.1470 C   0  0  0  0  0  3  0  0  0  0  0  0
  -22.4990   -8.1460   21.4010 C   0  0  0  0  0  0  0  0  0  0  0  0
  -22.0780   -9.1110   20.4690 C   0  0  0  0  0  3  0  0  0  0  0  0
  -22.8030  -10.3020   20.2950 C   0  0  0  0  0  3  0  0  0  0  0  0
  -21.7500   -6.9970   21.4810 O   0  0  0  0  0  0  0  0  0  0  0  0
  -21.7030   -6.2450   22.6270 C   0  0  0  0  0  0  0  0  0  0  0  0
  -21.2580   -6.7840   23.8520 C   0  0  0  0  0  3  0  0  0  0  0  0
  -21.1570   -5.9600   24.9900 C   0  0  0  0  0  3  0  0  0  0  0  0
  -21.4950   -4.5960   24.9040 C   0  0  0  0  0  0  0  0  0  0  0  0
  -21.9350   -4.0550   23.6830 C   0  0  0  0  0  3  0  0  0  0  0  0
  -22.0340   -4.8760   22.5470 C   0  0  0  0  0  0  0  0  0  0  0  0
  -22.4370   -4.3450   21.3680 F   0  0  0  0  0  0  0  0  0  0  0  0
  -21.3930   -3.8020   25.9950 F   0  0  0  0  0  0  0  0  0  0  0  0
  -22.8250  -13.6380   21.2250 C   0  0  0  0  0  0  0  0  0  0  0  0
  -22.1160  -12.9300   22.0950 N   0  0  0  0  0  0  0  0  0  0  0  0
  -22.3750  -14.6660   20.7200 O   0  0  0  0  0  0  0  0  0  0  0  0
  -22.4990  -12.0980   22.5230 H   0  0  0  0  0  0  0  0  0  0  0  0
  -21.1770  -13.2170   22.3350 H   0  0  0  0  0  0  0  0  0  0  0  0
  -25.4400  -15.3260   20.3980 N   0  0  0  0  0  0  0  0  0  0  0  0
  -24.6790  -15.9850   20.5250 H   0  0  0  0  0  0  0  0  0  0  0  0
  -26.2880  -15.7620   20.0630 H   0  0  0  0  0  0  0  0  0  0  0  0
  -29.1190  -22.1920   19.9010 C   0  0  0  0  0  3  0  0  0  0  0  0
  -28.5090  -23.5970   20.5600 C   0  0  0  0  0  3  0  0  0  0  0  0
  -28.2890  -25.0080   19.7080 C   0  0  0  0  0  2  0  0  0  0  0  0
  -28.1720  -26.4270   20.2780 O   0  0  0  0  0  0  0  0  0  0  0  0
  -24.5260  -31.9880   23.2780 C   0  0  0  0  0  0  0  0  0  0  0  0
  -27.0560  -27.3210   20.1940 C   0  0  0  0  0  0  0  0  0  0  0  0
  -23.2870  -30.5950   21.6610 C   0  0  0  0  0  3  0  0  0  0  0  0
  -24.7030  -29.0160   20.2100 C   0  0  0  0  0  0  0  0  0  0  0  0
  -25.8290  -30.8740   21.4340 C   0  0  0  0  0  2  0  0  0  0  0  0
  -25.8890  -29.4840   20.7890 C   0  0  0  0  0  0  0  0  0  0  0  0
  -27.0600  -28.6490   20.7650 C   0  0  0  0  0  3  0  0  0  0  0  0
  -25.8390  -26.9290   19.5900 C   0  0  0  0  0  3  0  0  0  0  0  0
  -24.6860  -27.7490   19.6010 C   0  0  0  0  0  3  0  0  0  0  0  0
  -23.4750  -29.9090   20.2800 C   0  0  0  0  0  2  0  0  0  0  0  0
  -24.5690  -31.1730   22.1810 N   0  0  0  0  0  0  0  0  0  0  0  0
  -23.4540  -32.2760   23.8300 O   0  0  0  0  0  0  0  0  0  0  0  0
  -22.6250  -29.5930   22.6390 C   0  0  0  0  0  0  0  0  0  0  0  0
  -21.3020  -29.3920   22.5040 N   0  0  0  0  0  0  0  0  0  0  0  0
  -23.3020  -28.9970   23.4790 O   0  0  0  0  0  0  0  0  0  0  0  0
  -20.8120  -29.9290   21.8010 H   0  0  0  0  0  0  0  0  0  0  0  0
  -17.9520  -28.0970   22.9590 C   0  0  0  0  0  0  0  0  0  0  0  0
  -20.4920  -28.4540   23.2850 C   0  0  0  0  0  3  0  0  0  0  0  0
  -20.6560  -27.0090   22.7630 C   0  0  0  0  0  2  0  0  0  0  0  0
  -19.5940  -26.6140   21.7300 C   0  0  0  0  0  2  0  0  0  0  0  0
  -18.1910  -26.7320   22.3330 C   0  0  0  0  0  2  0  0  0  0  0  0
  -19.0320  -28.9120   23.3900 C   0  0  0  0  0  0  0  0  0  0  0  0
  -18.7540  -30.1830   23.9340 C   0  0  0  0  0  3  0  0  0  0  0  0
  -17.4290  -30.6410   24.0540 C   0  0  0  0  0  3  0  0  0  0  0  0
  -16.3620  -29.8250   23.6370 C   0  0  0  0  0  3  0  0  0  0  0  0
  -16.6250  -28.5540   23.0940 C   0  0  0  0  0  3  0  0  0  0  0  0
  -25.8220  -32.6150   23.8810 C   0  0  0  0  0  3  0  0  0  0  0  0
  -25.5320  -34.0230   24.1980 N   0  0  0  0  0  0  0  0  0  0  0  0
  -25.8760  -35.0640   23.4290 C   0  0  0  0  0  0  0  0  0  0  0  0
  -26.5370  -34.9420   22.3940 O   0  0  0  0  0  0  0  0  0  0  0  0
  -24.9440  -34.1920   24.9990 H   0  0  0  0  0  0  0  0  0  0  0  0
  -24.1760  -36.8870   23.0700 C   0  0  0  0  0  1  0  0  0  0  0  0
  -25.4140  -36.4660   23.8780 C   0  0  0  0  0  3  0  0  0  0  0  0
  -27.5650  -37.3260   24.6930 C   0  0  0  0  0  1  0  0  0  0  0  0
  -26.4630  -37.5010   23.7500 N   0  0  0  0  0  0  0  0  0  0  0  0
  -26.0720  -38.4290   23.8880 H   0  0  0  0  0  0  0  0  0  0  0  0
  -26.3390  -31.8550   25.1640 C   0  0  1  0  0  0  0  0  0  0  0  0
  -25.2510  -31.6330   26.2410 C   0  0  0  0  0  1  0  0  0  0  0  0
  -26.9150  -30.4710   24.7880 C   0  0  0  0  0  1  0  0  0  0  0  0
  -27.4950  -32.6510   25.8140 C   0  0  0  0  0  1  0  0  0  0  0  0
  2  6  1  0
  2  5  1  0
  3  2  2  0
  5  8  1  0
  5  4  1  0
  6  1  1  0
  6  7  1  0
  7  9  1  0
  7  4  1  0
 10  9  1  0
 11 16  1  0
 12 13  1  0
 12 11  1  0
 14 13  1  0
 14 21  1  0
 14 15  1  0
 16 10  1  0
 16 15  1  0
 17 10  2  0
 18 19  2  0
 19 38  1  0
 20 19  1  0
 20 23  1  0
 21 22  1  0
 21 18  1  0
 22 20  2  0
 23 24  1  0
 24 25  2  0
 26 29  1  0
 26 25  1  0
 27 26  2  0
 28 27  1  0
 28 23  2  0
 29 30  1  0
 30 31  1  0
 31 32  2  0
 33 32  1  0
 33 37  1  0
 34 33  2  0
 35 30  2  0
 35 34  1  0
 36 35  1  0
 38 39  1  0
 39 42  1  0
 39 41  1  0
 40 38  2  0
 43 44  1  0
 43 18  1  0
 45 43  1  0
 46 47  2  0
 46  1  1  0
 48 49  1  0
 48 47  1  0
 50 61  2  0
 51 49  1  0
 51 56  1  0
 52 60  1  0
 52 62  1  0
 53 59  1  0
 53 55  1  0
 54 60  1  0
 55 54  1  0
 56 55  2  0
 57 58  1  0
 57 51  2  0
 58 53  2  0
 59 52  1  0
 60 50  1  0
 62 64  2  0
 63 62  1  0
 65 63  1  0
 66 75  2  0
 66 71  1  0
 67 63  1  0
 67 71  1  0
 68 67  1  0
 69 70  1  0
 69 68  1  0
 70 66  1  0
 71 72  2  0
 72 73  1  0
 74 73  2  0
 75 74  1  0
 76 50  1  0
 76 77  1  0
 76 86  1  0
 77 80  1  0
 78 82  1  0
 78 77  1  0
 79 78  2  0
 82 81  1  0
 84 82  1  0
 84 85  1  0
 84 83  1  0
 86 89  1  1
 86 87  1  0
 88 86  1  0
M  ISO  4   9 100  10 100  48 101  49 101
M  END
>  <TORSDO>  (12) 
F 21

>  <SCORE>  (12) 
-13.541

>  <name>  (12) 
11

>  <ligand_id>  (12) 
11

>  <original_smiles>  (12) 
[H]C([H])=C1C([H])(C([H])([H])[H])C([H])([H])C([H])(C([H])([H])C(=O)N2C([H])([H])C([H])([H])C([H])([H])C([H])(n3nc(-c4c([H])c([H])c(Oc5c([H])c([H])c(F)c([H])c5F)c([H])c4[H])c(C(=O)N([H])[H])c3N([H])[H])C2([H])[H])C1([H])C([H])([H])C([H])([H])C([H])([H])C([H])([H])Oc1c([H])c([H])c2c(c1[H])C([H])([H])N(C(=O)C([H])(N([H])C(=O)C([H])(N([H])C([H])([H])[H])C([H])([H])[H])C(C([H])([H])[H])(C([H])([H])[H])C([H])([H])[H])C([H])(C(=O)N([H])C1([H])c3c([H])c([H])c([H])c([H])c3C([H])([H])C([H])([H])C1([H])[H])C2([H])[H]

>  <smiles>  (12) 
[H]C([H])=C1C([H])(C([H])([H])[H])C([H])([H])C([H])(C([H])([H])C(=O)N2C([H])([H])C([H])([H])C([H])([H])C([H])(n3nc(-c4c([H])c([H])c(Oc5c([H])c([H])c(F)c([H])c5F)c([H])c4[H])c(C(=O)N([H])[H])c3N([H])[H])C2([H])[H])C1([H])C([H])([H])C([H])([H])C([H])([H])C([H])([H])Oc1c([H])c([H])c2c(c1[H])C([H])([H])N(C(=O)C([H])(N([H])C(=O)C([H])(N([H])C([H])([H])[H])C([H])([H])[H])C(C([H])([H])[H])(C([H])([H])[H])C([H])([H])[H])C([H])(C(=O)N([H])C1([H])c3c([H])c([H])c([H])c([H])c3C([H])([H])C([H])([H])C1([H])[H])C2([H])[H]

$$$$
12:0:0
     RDKit          3D

 93102  0  0  1  0  0  0  0  0999 V2000
  -30.4330  -20.3310   22.8800 C   0  0  0  0  0  2  0  0  0  0  0  0
  -29.6360  -18.2610   21.7170 C   0  0  0  0  0  2  0  0  0  0  0  0
  -31.7560  -17.4970   20.8950 C   0  0  0  0  0  3  0  0  0  0  0  0
  -30.2700  -17.2120   20.7960 C   0  0  0  0  0  3  0  0  0  0  0  0
  -31.9350  -18.8240   21.6070 C   0  0  0  0  0  3  0  0  0  0  0  0
  -32.4730  -18.6560   20.2090 C   0  0  1  0  0  0  0  0  0  0  0  0
  -33.9780  -18.5710   20.0280 C   0  0  0  0  0  1  0  0  0  0  0  0
  -31.8540  -19.3730   19.0140 C   0  0  0  0  0  1  0  0  0  0  0  0
  -30.5780  -19.4040   21.7300 N   0  0  2  0  0  4  0  0  0  0  0  0
  -30.4290  -19.9350   20.8840 H   0  0  0  0  0  0  0  0  0  0  0  0
  -29.8770  -15.7510   21.1410 C   0  0  0  0  0  2  0  0  0  0  0  0
  -30.4970  -14.6920   20.2100 C   0  0  0  0  0  0  0  0  0  0  0  0
  -30.1830  -12.6150   18.9110 C   0  0  0  0  0  2  0  0  0  0  0  0
  -29.1490  -12.8570   17.7920 C   0  0  0  0  0  2  0  0  0  0  0  0
  -27.7160  -12.6340   18.3120 C   0  0  0  0  0  2  0  0  0  0  0  0
  -27.4400  -13.3860   19.6420 C   0  0  0  0  0  3  0  0  0  0  0  0
  -28.5770  -13.1370   20.6590 C   0  0  0  0  0  2  0  0  0  0  0  0
  -29.8500  -13.5120   20.0250 N   0  0  0  0  0  0  0  0  0  0  0  0
  -31.5270  -14.9790   19.5910 O   0  0  0  0  0  0  0  0  0  0  0  0
  -25.0660  -13.8530   20.5250 C   0  0  0  0  0  0  0  0  0  0  0  0
  -24.0600  -13.0160   20.9280 C   0  0  0  0  0  0  0  0  0  0  0  0
  -24.5790  -11.6910   20.8090 C   0  0  0  0  0  0  0  0  0  0  0  0
  -26.1330  -13.0320   20.1930 N   0  0  0  0  0  0  0  0  0  0  0  0
  -25.8460  -11.7250   20.4170 N   0  0  0  0  0  0  0  0  0  0  0  0
  -23.9250  -10.3870   20.9920 C   0  0  0  0  0  0  0  0  0  0  0  0
  -24.4090   -9.4420   21.9210 C   0  0  0  0  0  3  0  0  0  0  0  0
  -23.7530   -8.2030   22.0920 C   0  0  0  0  0  3  0  0  0  0  0  0
  -22.5980   -7.9020   21.3300 C   0  0  0  0  0  0  0  0  0  0  0  0
  -22.1340   -8.8370   20.3890 C   0  0  0  0  0  3  0  0  0  0  0  0
  -22.7920  -10.0670   20.2170 C   0  0  0  0  0  3  0  0  0  0  0  0
  -21.9100   -6.7150   21.4090 O   0  0  0  0  0  0  0  0  0  0  0  0
  -21.8290   -6.0080   22.5820 C   0  0  0  0  0  0  0  0  0  0  0  0
  -21.3060   -6.5800   23.7620 C   0  0  0  0  0  3  0  0  0  0  0  0
  -21.1760   -5.7970   24.9270 C   0  0  0  0  0  3  0  0  0  0  0  0
  -21.5580   -4.4420   24.9110 C   0  0  0  0  0  0  0  0  0  0  0  0
  -22.0750   -3.8690   23.7350 C   0  0  0  0  0  3  0  0  0  0  0  0
  -22.2080   -4.6500   22.5730 C   0  0  0  0  0  0  0  0  0  0  0  0
  -22.6860   -4.0880   21.4370 F   0  0  0  0  0  0  0  0  0  0  0  0
  -21.4270   -3.6860   26.0260 F   0  0  0  0  0  0  0  0  0  0  0  0
  -22.6640  -13.4120   21.3120 C   0  0  0  0  0  0  0  0  0  0  0  0
  -22.0350  -12.6550   22.2050 N   0  0  0  0  0  0  0  0  0  0  0  0
  -22.1390  -14.4270   20.8560 O   0  0  0  0  0  0  0  0  0  0  0  0
  -22.4760  -11.8330   22.5910 H   0  0  0  0  0  0  0  0  0  0  0  0
  -21.1030  -12.9000   22.5060 H   0  0  0  0  0  0  0  0  0  0  0  0
  -25.1570  -15.2360   20.3950 N   0  0  0  0  0  0  0  0  0  0  0  0
  -24.3720  -15.8510   20.5800 H   0  0  0  0  0  0  0  0  0  0  0  0
  -25.9660  -15.7240   20.0320 H   0  0  0  0  0  0  0  0  0  0  0  0
  -29.4340  -21.4830   22.6330 C   0  0  0  0  0  2  0  0  0  0  0  0
  -29.9610  -22.6430   21.7630 C   0  0  0  0  0  2  0  0  0  0  0  0
  -28.7930  -23.4410   21.1540 C   0  0  0  0  0  2  0  0  0  0  0  0
  -29.1650  -24.8090   20.5520 C   0  0  0  0  0  2  0  0  0  0  0  0
  -27.9260  -25.4710   19.9260 C   0  0  0  0  0  2  0  0  0  0  0  0
  -28.0820  -26.8820   19.7560 O   0  0  0  0  0  0  0  0  0  0  0  0
  -24.6400  -31.9650   23.3230 C   0  0  0  0  0  0  0  0  0  0  0  0
  -26.9250  -27.6290   19.8430 C   0  0  0  0  0  0  0  0  0  0  0  0
  -23.2740  -30.6730   21.7150 C   0  0  0  0  0  3  0  0  0  0  0  0
  -24.5740  -29.1770   20.1110 C   0  0  0  0  0  0  0  0  0  0  0  0
  -25.7850  -30.9860   21.3400 C   0  0  0  0  0  2  0  0  0  0  0  0
  -25.7850  -29.6480   20.6310 C   0  0  0  0  0  0  0  0  0  0  0  0
  -26.9630  -28.8820   20.4950 C   0  0  0  0  0  3  0  0  0  0  0  0
  -25.6940  -27.1770   19.3110 C   0  0  0  0  0  3  0  0  0  0  0  0
  -24.5200  -27.9400   19.4480 C   0  0  0  0  0  3  0  0  0  0  0  0
  -23.3580  -30.0570   20.2940 C   0  0  0  0  0  2  0  0  0  0  0  0
  -24.5890  -31.2180   22.1840 N   0  0  0  0  0  0  0  0  0  0  0  0
  -23.6100  -32.2380   23.9560 O   0  0  0  0  0  0  0  0  0  0  0  0
  -22.6690  -29.6220   22.6730 C   0  0  0  0  0  0  0  0  0  0  0  0
  -21.3640  -29.3490   22.5150 N   0  0  0  0  0  0  0  0  0  0  0  0
  -23.3720  -29.0550   23.5140 O   0  0  0  0  0  0  0  0  0  0  0  0
  -20.8560  -29.8620   21.8070 H   0  0  0  0  0  0  0  0  0  0  0  0
  -18.1120  -27.8070   22.8190 C   0  0  0  0  0  0  0  0  0  0  0  0
  -20.5920  -28.3700   23.2780 C   0  0  0  0  0  3  0  0  0  0  0  0
  -20.9000  -26.9300   22.8090 C   0  0  0  0  0  2  0  0  0  0  0  0
  -19.9340  -26.4260   21.7330 C   0  0  0  0  0  2  0  0  0  0  0  0
  -18.4930  -26.4500   22.2520 C   0  0  0  0  0  2  0  0  0  0  0  0
  -19.0990  -28.7150   23.2860 C   0  0  0  0  0  0  0  0  0  0  0  0
  -18.6940  -29.9780   23.7700 C   0  0  0  0  0  3  0  0  0  0  0  0
  -17.3330  -30.3370   23.7950 C   0  0  0  0  0  3  0  0  0  0  0  0
  -16.3590  -29.4290   23.3460 C   0  0  0  0  0  3  0  0  0  0  0  0
  -16.7480  -28.1660   22.8660 C   0  0  0  0  0  3  0  0  0  0  0  0
  -25.9870  -32.5330   23.8690 C   0  0  0  0  0  3  0  0  0  0  0  0
  -25.7530  -33.9310   24.2580 N   0  0  0  0  0  0  0  0  0  0  0  0
  -26.0930  -34.9920   23.5140 C   0  0  0  0  0  0  0  0  0  0  0  0
  -26.7090  -34.8950   22.4490 O   0  0  0  0  0  0  0  0  0  0  0  0
  -25.2040  -34.0830   25.0910 H   0  0  0  0  0  0  0  0  0  0  0  0
  -24.4300  -36.8640   23.2840 C   0  0  0  0  0  1  0  0  0  0  0  0
  -25.6830  -36.3820   24.0350 C   0  0  0  0  0  3  0  0  0  0  0  0
  -27.8890  -37.1390   24.8010 C   0  0  0  0  0  1  0  0  0  0  0  0
  -26.7550  -37.3940   23.9170 N   0  0  0  0  0  0  0  0  0  0  0  0
  -26.3970  -38.3240   24.1220 H   0  0  0  0  0  0  0  0  0  0  0  0
  -26.5660  -31.7050   25.0810 C   0  0  1  0  0  0  0  0  0  0  0  0
  -25.5320  -31.4350   26.2000 C   0  0  0  0  0  1  0  0  0  0  0  0
  -27.1040  -30.3370   24.5990 C   0  0  0  0  0  1  0  0  0  0  0  0
  -27.7640  -32.4560   25.7070 C   0  0  0  0  0  1  0  0  0  0  0  0
  2  9  1  0
  3  6  1  0
  3  5  1  0
  4  3  1  0
  4 11  1  0
  4  2  1  0
  5  6  1  0
  5  9  1  0
  6  7  1  1
  8  6  1  0
  9  1  1  0
  9 10  1  6
 12 11  1  0
 13 18  1  0
 14 15  1  0
 14 13  1  0
 16 15  1  0
 16 23  1  0
 16 17  1  0
 18 12  1  0
 18 17  1  0
 19 12  2  0
 20 21  2  0
 21 40  1  0
 22 21  1  0
 22 25  1  0
 23 24  1  0
 23 20  1  0
 24 22  2  0
 25 26  1  0
 26 27  2  0
 28 31  1  0
 28 27  1  0
 29 28  2  0
 30 29  1  0
 30 25  2  0
 31 32  1  0
 32 33  1  0
 33 34  2  0
 35 34  1  0
 35 39  1  0
 36 35  2  0
 37 32  2  0
 37 36  1  0
 38 37  1  0
 40 41  1  0
 41 44  1  0
 41 43  1  0
 42 40  2  0
 45 20  1  0
 45 46  1  0
 47 45  1  0
 48  1  1  0
 49 48  1  0
 50 49  1  0
 51 50  1  0
 52 51  1  0
 53 55  1  0
 53 52  1  0
 54 65  2  0
 55 60  1  0
 56 64  1  0
 56 66  1  0
 57 63  1  0
 57 59  1  0
 58 64  1  0
 59 58  1  0
 60 59  2  0
 61 62  1  0
 61 55  2  0
 62 57  2  0
 63 56  1  0
 64 54  1  0
 66 68  2  0
 67 66  1  0
 69 67  1  0
 70 79  2  0
 70 75  1  0
 71 67  1  0
 71 75  1  0
 72 71  1  0
 73 74  1  0
 73 72  1  0
 74 70  1  0
 75 76  2  0
 76 77  1  0
 78 77  2  0
 79 78  1  0
 80 54  1  0
 80 81  1  0
 80 90  1  0
 81 84  1  0
 82 86  1  0
 82 81  1  0
 83 82  2  0
 86 85  1  0
 88 86  1  0
 88 89  1  0
 88 87  1  0
 90 93  1  1
 90 91  1  0
 92 90  1  0
M  ISO  4  11 100  12 100  52 101  53 101
M  END
>  <TORSDO>  (13) 
F 23

>  <SCORE>  (13) 
-11.963

>  <name>  (13) 
12

>  <ligand_id>  (13) 
12

>  <original_smiles>  (13) 
[H]c1c([H])c([H])c2c(c1[H])C([H])([H])C([H])([H])C([H])([H])C2([H])N([H])C(=O)C1([H])N(C(=O)C([H])(N([H])C(=O)C([H])(N([H])C([H])([H])[H])C([H])([H])[H])C(C([H])([H])[H])(C([H])([H])[H])C([H])([H])[H])C([H])([H])c2c([H])c(OC([H])([H])C([H])([H])C([H])([H])C([H])([H])C([H])([H])C([H])([H])[N+]3([H])C([H])([H])C([H])(C([H])([H])C(=O)N4C([H])([H])C([H])([H])C([H])([H])C([H])(n5nc(-c6c([H])c([H])c(Oc7c([H])c([H])c(F)c([H])c7F)c([H])c6[H])c(C(=O)N([H])[H])c5N([H])[H])C4([H])[H])C4([H])C(C([H])([H])[H])(C([H])([H])[H])C43[H])c([H])c([H])c2C1([H])[H]

>  <smiles>  (13) 
[H]c1c([H])c([H])c2c(c1[H])C([H])([H])C([H])([H])C([H])([H])C2([H])N([H])C(=O)C1([H])N(C(=O)C([H])(N([H])C(=O)C([H])(N([H])C([H])([H])[H])C([H])([H])[H])C(C([H])([H])[H])(C([H])([H])[H])C([H])([H])[H])C([H])([H])c2c([H])c(OC([H])([H])C([H])([H])C([H])([H])C([H])([H])C([H])([H])C([H])([H])[N+]3([H])C([H])([H])C([H])(C([H])([H])C(=O)N4C([H])([H])C([H])([H])C([H])([H])C([H])(n5nc(-c6c([H])c([H])c(Oc7c([H])c([H])c(F)c([H])c7F)c([H])c6[H])c(C(=O)N([H])[H])c5N([H])[H])C4([H])[H])C4([H])C(C([H])([H])[H])(C([H])([H])[H])C43[H])c([H])c([H])c2C1([H])[H]

$$$$
13:0:0
     RDKit          3D

 94104  0  0  1  0  0  0  0  0999 V2000
  -28.3840  -20.9970   20.4590 C   0  0  0  0  0  3  0  0  0  0  0  0
  -28.4630  -19.5970   20.3840 C   0  0  0  0  0  0  0  0  0  0  0  0
  -31.6330  -18.5770   21.4390 C   0  0  0  0  0  2  0  0  0  0  0  0
  -31.6240  -18.0980   19.9690 C   0  0  0  0  0  2  0  0  0  0  0  0
  -30.2420  -16.5720   22.0080 C   0  0  0  0  0  2  0  0  0  0  0  0
  -30.0620  -16.0740   20.5330 C   0  0  0  0  0  3  0  0  0  0  0  0
  -30.2350  -18.1470   21.9130 C   0  0  0  0  0  3  0  0  0  0  0  0
  -30.2010  -17.4980   19.8010 C   0  0  0  0  0  3  0  0  0  0  0  0
  -29.4150  -18.3870   20.7170 N   0  0  2  0  0  4  0  0  0  0  0  0
  -28.6960  -17.7240   20.9490 H   0  0  0  0  0  0  0  0  0  0  0  0
  -30.8410  -14.7360   20.0700 C   0  0  0  0  0  0  0  0  0  0  0  0
  -30.5480  -12.5020   18.9520 C   0  0  0  0  0  2  0  0  0  0  0  0
  -29.5390  -12.6330   17.7850 C   0  0  0  0  0  2  0  0  0  0  0  0
  -28.0820  -12.4940   18.2760 C   0  0  0  0  0  2  0  0  0  0  0  0
  -27.8010  -13.3530   19.5340 C   0  0  0  0  0  3  0  0  0  0  0  0
  -28.9080  -13.1810   20.5980 C   0  0  0  0  0  2  0  0  0  0  0  0
  -30.1970  -13.5190   19.9750 N   0  0  0  0  0  0  0  0  0  0  0  0
  -31.9900  -14.8390   19.6290 O   0  0  0  0  0  0  0  0  0  0  0  0
  -25.4680  -14.0150   20.3720 C   0  0  0  0  0  0  0  0  0  0  0  0
  -24.3960  -13.2710   20.7780 C   0  0  0  0  0  0  0  0  0  0  0  0
  -24.8100  -11.9060   20.7060 C   0  0  0  0  0  0  0  0  0  0  0  0
  -26.4700  -13.1050   20.0770 N   0  0  0  0  0  0  0  0  0  0  0  0
  -26.0840  -11.8310   20.3430 N   0  0  0  0  0  0  0  0  0  0  0  0
  -24.0530  -10.6680   20.9090 C   0  0  0  0  0  0  0  0  0  0  0  0
  -24.4600   -9.6960   21.8500 C   0  0  0  0  0  3  0  0  0  0  0  0
  -23.7060   -8.5160   22.0370 C   0  0  0  0  0  3  0  0  0  0  0  0
  -22.5260   -8.3030   21.2870 C   0  0  0  0  0  0  0  0  0  0  0  0
  -22.1400   -9.2620   20.3330 C   0  0  0  0  0  3  0  0  0  0  0  0
  -22.8950  -10.4310   20.1420 C   0  0  0  0  0  3  0  0  0  0  0  0
  -21.7390   -7.1800   21.3860 O   0  0  0  0  0  0  0  0  0  0  0  0
  -21.6230   -6.4850   22.5640 C   0  0  0  0  0  0  0  0  0  0  0  0
  -21.1600   -7.0980   23.7480 C   0  0  0  0  0  3  0  0  0  0  0  0
  -20.9940   -6.3320   24.9190 C   0  0  0  0  0  3  0  0  0  0  0  0
  -21.2690   -4.9520   24.9020 C   0  0  0  0  0  0  0  0  0  0  0  0
  -21.7260   -4.3380   23.7220 C   0  0  0  0  0  3  0  0  0  0  0  0
  -21.8970   -5.1020   22.5540 C   0  0  0  0  0  0  0  0  0  0  0  0
  -22.3140   -4.4980   21.4160 F   0  0  0  0  0  0  0  0  0  0  0  0
  -21.0980   -4.2170   26.0260 F   0  0  0  0  0  0  0  0  0  0  0  0
  -23.0280  -13.7860   21.1180 C   0  0  0  0  0  0  0  0  0  0  0  0
  -22.3240  -13.1090   22.0160 N   0  0  0  0  0  0  0  0  0  0  0  0
  -22.6030  -14.8270   20.6210 O   0  0  0  0  0  0  0  0  0  0  0  0
  -22.6990  -12.2730   22.4430 H   0  0  0  0  0  0  0  0  0  0  0  0
  -21.4050  -13.4310   22.2900 H   0  0  0  0  0  0  0  0  0  0  0  0
  -25.6640  -15.3820   20.2060 N   0  0  0  0  0  0  0  0  0  0  0  0
  -24.8820  -16.0240   20.3030 H   0  0  0  0  0  0  0  0  0  0  0  0
  -26.4250  -15.7710   19.6740 H   0  0  0  0  0  0  0  0  0  0  0  0
  -29.1550  -22.3020   20.9010 C   0  0  0  0  0  2  0  0  0  0  0  0
  -28.7550  -23.7080   20.1380 C   0  0  0  0  0  2  0  0  0  0  0  0
  -28.3910  -25.0870   20.9230 C   0  0  0  0  0  2  0  0  0  0  0  0
  -28.4660  -26.4510   20.2890 O   0  0  0  0  0  0  0  0  0  0  0  0
  -24.5900  -31.8730   23.1920 C   0  0  0  0  0  0  0  0  0  0  0  0
  -27.3380  -27.2970   20.2610 C   0  0  0  0  0  0  0  0  0  0  0  0
  -23.4470  -30.4470   21.5280 C   0  0  0  0  0  3  0  0  0  0  0  0
  -24.9600  -28.8920   20.1610 C   0  0  0  0  0  0  0  0  0  0  0  0
  -25.9890  -30.8000   21.4010 C   0  0  0  0  0  2  0  0  0  0  0  0
  -26.1070  -29.4080   20.7760 C   0  0  0  0  0  0  0  0  0  0  0  0
  -27.3040  -28.6240   20.8070 C   0  0  0  0  0  3  0  0  0  0  0  0
  -26.1690  -26.8370   19.6240 C   0  0  0  0  0  3  0  0  0  0  0  0
  -24.9940  -27.6160   19.5730 C   0  0  0  0  0  3  0  0  0  0  0  0
  -23.7080  -29.7520   20.1650 C   0  0  0  0  0  2  0  0  0  0  0  0
  -24.6940  -31.0590   22.0980 N   0  0  0  0  0  0  0  0  0  0  0  0
  -23.4920  -32.1340   23.7020 O   0  0  0  0  0  0  0  0  0  0  0  0
  -22.7670  -29.4320   22.4820 C   0  0  0  0  0  0  0  0  0  0  0  0
  -21.4410  -29.2560   22.3430 N   0  0  0  0  0  0  0  0  0  0  0  0
  -23.4310  -28.7990   23.3060 O   0  0  0  0  0  0  0  0  0  0  0  0
  -20.9600  -29.8330   21.6700 H   0  0  0  0  0  0  0  0  0  0  0  0
  -18.0590  -28.0290   22.8300 C   0  0  0  0  0  0  0  0  0  0  0  0
  -20.6160  -28.2960   23.0840 C   0  0  0  0  0  3  0  0  0  0  0  0
  -20.7340  -26.8710   22.4830 C   0  0  0  0  0  2  0  0  0  0  0  0
  -19.6040  -26.4780   21.5220 C   0  0  0  0  0  2  0  0  0  0  0  0
  -18.2270  -26.6700   22.1680 C   0  0  0  0  0  2  0  0  0  0  0  0
  -19.1780  -28.7910   23.2550 C   0  0  0  0  0  0  0  0  0  0  0  0
  -18.9550  -30.0530   23.8480 C   0  0  0  0  0  3  0  0  0  0  0  0
  -17.6520  -30.5510   24.0190 C   0  0  0  0  0  3  0  0  0  0  0  0
  -16.5470  -29.7890   23.5990 C   0  0  0  0  0  3  0  0  0  0  0  0
  -16.7540  -28.5300   23.0150 C   0  0  0  0  0  3  0  0  0  0  0  0
  -25.8490  -32.5310   23.8440 C   0  0  0  0  0  3  0  0  0  0  0  0
  -25.5120  -33.9270   24.1600 N   0  0  0  0  0  0  0  0  0  0  0  0
  -25.8400  -34.9790   23.3970 C   0  0  0  0  0  0  0  0  0  0  0  0
  -26.5300  -34.8780   22.3770 O   0  0  0  0  0  0  0  0  0  0  0  0
  -24.9090  -34.0810   24.9560 H   0  0  0  0  0  0  0  0  0  0  0  0
  -24.0850  -36.7370   23.0100 C   0  0  0  0  0  1  0  0  0  0  0  0
  -25.3260  -36.3670   23.8370 C   0  0  0  0  0  3  0  0  0  0  0  0
  -27.4400  -37.2930   24.6760 C   0  0  0  0  0  1  0  0  0  0  0  0
  -26.3450  -37.4350   23.7200 N   0  0  0  0  0  0  0  0  0  0  0  0
  -25.9230  -38.3490   23.8600 H   0  0  0  0  0  0  0  0  0  0  0  0
  -26.3450  -31.7780   25.1390 C   0  0  1  0  0  0  0  0  0  0  0  0
  -25.2270  -31.5300   26.1790 C   0  0  0  0  0  1  0  0  0  0  0  0
  -26.9570  -30.4060   24.7720 C   0  0  0  0  0  1  0  0  0  0  0  0
  -27.4720  -32.5910   25.8220 C   0  0  0  0  0  1  0  0  0  0  0  0
  -27.2220  -18.8700   19.8620 C   0  0  0  0  0  2  0  0  0  0  0  0
  -25.3440  -18.9800   18.0240 C   0  0  0  0  0  2  0  0  0  0  0  0
  -25.5970  -20.3990   18.4510 C   0  0  0  0  0  2  0  0  0  0  0  0
  -26.7130  -19.3750   18.5260 C   0  0  0  0  0  3  0  0  0  0  0  0
  1 47  1  0
  2  1  2  0
  2  9  1  0
  4  3  1  0
  6 11  1  0
  6  5  1  0
  7  3  1  0
  7  5  1  0
  8  4  1  0
  8  6  1  0
  8  9  1  0
  9 10  1  1
  9  7  1  0
 12 17  1  0
 13 14  1  0
 13 12  1  0
 15 14  1  0
 15 22  1  0
 15 16  1  0
 17 11  1  0
 17 16  1  0
 18 11  2  0
 19 20  2  0
 20 39  1  0
 21 20  1  0
 21 24  1  0
 22 23  1  0
 22 19  1  0
 23 21  2  0
 24 25  1  0
 25 26  2  0
 27 30  1  0
 27 26  1  0
 28 27  2  0
 29 28  1  0
 29 24  2  0
 30 31  1  0
 31 32  1  0
 32 33  2  0
 34 33  1  0
 34 38  1  0
 35 34  2  0
 36 31  2  0
 36 35  1  0
 37 36  1  0
 39 40  1  0
 40 43  1  0
 40 42  1  0
 41 39  2  0
 44 45  1  0
 44 19  1  0
 46 44  1  0
 48 47  1  0
 48 49  1  0
 50 49  1  0
 51 62  2  0
 52 50  1  0
 52 57  1  0
 53 61  1  0
 53 63  1  0
 54 60  1  0
 54 56  1  0
 55 61  1  0
 56 57  2  0
 56 55  1  0
 58 52  2  0
 59 58  1  0
 59 54  2  0
 60 53  1  0
 61 51  1  0
 63 65  2  0
 64 63  1  0
 66 64  1  0
 67 76  2  0
 67 72  1  0
 68 64  1  0
 68 72  1  0
 69 68  1  0
 70 71  1  0
 70 69  1  0
 71 67  1  0
 72 73  2  0
 73 74  1  0
 75 74  2  0
 76 75  1  0
 77 51  1  0
 77 78  1  0
 77 87  1  0
 78 81  1  0
 79 83  1  0
 79 78  1  0
 80 79  2  0
 83 82  1  0
 85 83  1  0
 85 86  1  0
 85 84  1  0
 87 90  1  1
 87 88  1  0
 89 87  1  0
 91  2  1  0
 92 93  1  0
 92 94  1  0
 93 94  1  0
 94 91  1  0
M  ISO  4   6 100  11 100  49 101  50 101
M  END
>  <TORSDO>  (14) 
F 22

>  <SCORE>  (14) 
-11.983

>  <name>  (14) 
13

>  <ligand_id>  (14) 
13

>  <original_smiles>  (14) 
[H]C(=C(C([H])([H])C1([H])C([H])([H])C1([H])[H])[N+]1([H])C2([H])C([H])([H])C([H])([H])C1([H])C([H])(C(=O)N1C([H])([H])C([H])([H])C([H])([H])C([H])(n3nc(-c4c([H])c([H])c(Oc5c([H])c([H])c(F)c([H])c5F)c([H])c4[H])c(C(=O)N([H])[H])c3N([H])[H])C1([H])[H])C2([H])[H])C([H])([H])C([H])([H])C([H])([H])Oc1c([H])c([H])c2c(c1[H])C([H])([H])N(C(=O)C([H])(N([H])C(=O)C([H])(N([H])C([H])([H])[H])C([H])([H])[H])C(C([H])([H])[H])(C([H])([H])[H])C([H])([H])[H])C([H])(C(=O)N([H])C1([H])c3c([H])c([H])c([H])c([H])c3C([H])([H])C([H])([H])C1([H])[H])C2([H])[H]

>  <smiles>  (14) 
[H]C(=C(C([H])([H])C1([H])C([H])([H])C1([H])[H])[N+]1([H])C2([H])C([H])([H])C([H])([H])C1([H])C([H])(C(=O)N1C([H])([H])C([H])([H])C([H])([H])C([H])(n3nc(-c4c([H])c([H])c(Oc5c([H])c([H])c(F)c([H])c5F)c([H])c4[H])c(C(=O)N([H])[H])c3N([H])[H])C1([H])[H])C2([H])[H])C([H])([H])C([H])([H])C([H])([H])Oc1c([H])c([H])c2c(c1[H])C([H])([H])N(C(=O)C([H])(N([H])C(=O)C([H])(N([H])C([H])([H])[H])C([H])([H])[H])C(C([H])([H])[H])(C([H])([H])[H])C([H])([H])[H])C([H])(C(=O)N([H])C1([H])c3c([H])c([H])c([H])c([H])c3C([H])([H])C([H])([H])C1([H])[H])C2([H])[H]

$$$$
14:0:0
     RDKit          3D

 99107  0  0  1  0  0  0  0  0999 V2000
  -29.7980  -20.2320   19.5850 C   0  0  0  0  0  3  0  0  0  0  0  0
  -30.8680  -20.5350   18.5920 N   0  0  0  0  0  4  0  0  0  0  0  0
  -31.2570  -21.4460   18.7670 H   0  0  0  0  0  0  0  0  0  0  0  0
  -31.5950  -19.8650   18.7790 H   0  0  0  0  0  0  0  0  0  0  0  0
  -31.0450  -21.3440   14.9200 C   0  0  0  0  0  2  0  0  0  0  0  0
  -31.3590  -19.8490   14.9410 C   0  0  0  0  0  2  0  0  0  0  0  0
  -30.6530  -21.7340   16.3590 C   0  0  0  0  0  3  0  0  0  0  0  0
  -31.5670  -19.5080   16.4150 C   0  0  0  0  0  3  0  0  0  0  0  0
  -30.5420  -20.4010   17.1470 C   0  0  0  0  0  3  0  0  0  0  0  0
  -29.3970  -22.6160   16.3680 C   0  0  0  0  0  1  0  0  0  0  0  0
  -31.4510  -18.0010   16.6740 C   0  0  0  0  0  1  0  0  0  0  0  0
  -28.7850  -21.4240   19.7820 C   0  0  0  0  0  2  0  0  0  0  0  0
  -29.2900  -22.7960   20.3370 C   0  0  0  0  0  2  0  0  0  0  0  0
  -28.4050  -24.0430   19.9940 C   0  0  0  0  0  2  0  0  0  0  0  0
  -28.6820  -25.3000   20.8740 C   0  0  0  0  0  2  0  0  0  0  0  0
  -28.6440  -26.5760   20.2010 O   0  0  0  0  0  0  0  0  0  0  0  0
  -24.7090  -31.7060   23.2650 C   0  0  0  0  0  0  0  0  0  0  0  0
  -27.4610  -27.2880   20.2290 C   0  0  0  0  0  0  0  0  0  0  0  0
  -23.5570  -30.3140   21.5760 C   0  0  0  0  0  3  0  0  0  0  0  0
  -25.0600  -28.7900   20.1850 C   0  0  0  0  0  0  0  0  0  0  0  0
  -26.0870  -30.6840   21.4530 C   0  0  0  0  0  2  0  0  0  0  0  0
  -26.1990  -29.3160   20.8050 C   0  0  0  0  0  0  0  0  0  0  0  0
  -27.4060  -28.5750   20.8190 C   0  0  0  0  0  3  0  0  0  0  0  0
  -26.3050  -26.7740   19.6090 C   0  0  0  0  0  3  0  0  0  0  0  0
  -25.1080  -27.5180   19.5840 C   0  0  0  0  0  3  0  0  0  0  0  0
  -23.8120  -29.6460   20.1980 C   0  0  0  0  0  2  0  0  0  0  0  0
  -24.8020  -30.9170   22.1570 N   0  0  0  0  0  0  0  0  0  0  0  0
  -23.6110  -31.9690   23.7750 O   0  0  0  0  0  0  0  0  0  0  0  0
  -22.8830  -29.2830   22.5070 C   0  0  0  0  0  0  0  0  0  0  0  0
  -21.5640  -29.0920   22.3370 N   0  0  0  0  0  0  0  0  0  0  0  0
  -23.5440  -28.6570   23.3400 O   0  0  0  0  0  0  0  0  0  0  0  0
  -21.0920  -29.6500   21.6370 H   0  0  0  0  0  0  0  0  0  0  0  0
  -18.1880  -27.8530   22.7020 C   0  0  0  0  0  0  0  0  0  0  0  0
  -20.7300  -28.1410   23.0720 C   0  0  0  0  0  3  0  0  0  0  0  0
  -20.8730  -26.7140   22.4950 C   0  0  0  0  0  2  0  0  0  0  0  0
  -19.8140  -26.3810   21.4390 C   0  0  0  0  0  2  0  0  0  0  0  0
  -18.4070  -26.5080   22.0300 C   0  0  0  0  0  2  0  0  0  0  0  0
  -19.2800  -28.6270   23.1770 C   0  0  0  0  0  0  0  0  0  0  0  0
  -19.0250  -29.8850   23.7630 C   0  0  0  0  0  3  0  0  0  0  0  0
  -17.7100  -30.3730   23.8780 C   0  0  0  0  0  3  0  0  0  0  0  0
  -16.6310  -29.5970   23.4200 C   0  0  0  0  0  3  0  0  0  0  0  0
  -16.8700  -28.3390   22.8390 C   0  0  0  0  0  3  0  0  0  0  0  0
  -25.9720  -32.3370   23.9280 C   0  0  0  0  0  3  0  0  0  0  0  0
  -25.6380  -33.7200   24.2910 N   0  0  0  0  0  0  0  0  0  0  0  0
  -25.9580  -34.7970   23.5620 C   0  0  0  0  0  0  0  0  0  0  0  0
  -26.6380  -34.7310   22.5330 O   0  0  0  0  0  0  0  0  0  0  0  0
  -25.0330  -33.8450   25.0900 H   0  0  0  0  0  0  0  0  0  0  0  0
  -24.1970  -36.5650   23.2440 C   0  0  0  0  0  1  0  0  0  0  0  0
  -25.4430  -36.1640   24.0500 C   0  0  0  0  0  3  0  0  0  0  0  0
  -27.5540  -37.0740   24.9130 C   0  0  0  0  0  1  0  0  0  0  0  0
  -26.4560  -37.2390   23.9650 N   0  0  0  0  0  0  0  0  0  0  0  0
  -26.0290  -38.1480   24.1280 H   0  0  0  0  0  0  0  0  0  0  0  0
  -26.4790  -31.5360   25.1900 C   0  0  1  0  0  0  0  0  0  0  0  0
  -25.3700  -31.2460   26.2290 C   0  0  0  0  0  1  0  0  0  0  0  0
  -27.0930  -30.1820   24.7650 C   0  0  0  0  0  1  0  0  0  0  0  0
  -27.6040  -32.3290   25.8970 C   0  0  0  0  0  1  0  0  0  0  0  0
  -30.3700  -19.5950   20.9140 C   0  0  0  0  0  3  0  0  0  0  0  0
  -32.2560  -21.2570   21.6190 C   0  0  0  0  0  1  0  0  0  0  0  0
  -31.8830  -19.8250   21.2140 C   0  0  0  0  0  2  0  0  0  0  0  0
  -29.8220  -17.8910   22.5410 C   0  0  0  0  0  1  0  0  0  0  0  0
  -30.0050  -18.1590   21.1060 N   0  0  0  0  0  0  0  0  0  0  0  0
  -30.8430  -17.1130   20.4500 C   0  0  0  0  0  2  0  0  0  0  0  0
  -30.4660  -15.6380   20.8280 C   0  0  0  0  0  2  0  0  0  0  0  0
  -31.1990  -14.4700   20.1000 C   0  0  0  0  0  0  0  0  0  0  0  0
  -30.8680  -12.3400   18.8680 C   0  0  0  0  0  2  0  0  0  0  0  0
  -29.8840  -12.5900   17.7040 C   0  0  0  0  0  2  0  0  0  0  0  0
  -28.4180  -12.4750   18.1760 C   0  0  0  0  0  2  0  0  0  0  0  0
  -28.1470  -13.2860   19.4690 C   0  0  0  0  0  3  0  0  0  0  0  0
  -29.2260  -12.9850   20.5330 C   0  0  0  0  0  2  0  0  0  0  0  0
  -30.5390  -13.2880   19.9430 N   0  0  0  0  0  0  0  0  0  0  0  0
  -32.3110  -14.6660   19.5960 O   0  0  0  0  0  0  0  0  0  0  0  0
  -25.7870  -13.9700   20.2390 C   0  0  0  0  0  0  0  0  0  0  0  0
  -24.7070  -13.2290   20.6370 C   0  0  0  0  0  0  0  0  0  0  0  0
  -25.1300  -11.8650   20.6020 C   0  0  0  0  0  0  0  0  0  0  0  0
  -26.8000  -13.0570   19.9840 N   0  0  0  0  0  0  0  0  0  0  0  0
  -26.4090  -11.7870   20.2610 N   0  0  0  0  0  0  0  0  0  0  0  0
  -24.3760  -10.6240   20.8170 C   0  0  0  0  0  0  0  0  0  0  0  0
  -24.7530   -9.6940   21.8110 C   0  0  0  0  0  3  0  0  0  0  0  0
  -24.0030   -8.5160   22.0100 C   0  0  0  0  0  3  0  0  0  0  0  0
  -22.8610   -8.2580   21.2140 C   0  0  0  0  0  0  0  0  0  0  0  0
  -22.5040   -9.1760   20.2100 C   0  0  0  0  0  3  0  0  0  0  0  0
  -23.2550  -10.3470   20.0090 C   0  0  0  0  0  3  0  0  0  0  0  0
  -22.0880   -7.1280   21.3180 O   0  0  0  0  0  0  0  0  0  0  0  0
  -21.9030   -6.4910   22.5180 C   0  0  0  0  0  0  0  0  0  0  0  0
  -21.3410   -7.1500   23.6330 C   0  0  0  0  0  3  0  0  0  0  0  0
  -21.1040   -6.4390   24.8270 C   0  0  0  0  0  3  0  0  0  0  0  0
  -21.4190   -5.0680   24.9040 C   0  0  0  0  0  0  0  0  0  0  0  0
  -21.9740   -4.4090   23.7930 C   0  0  0  0  0  3  0  0  0  0  0  0
  -22.2120   -5.1180   22.6020 C   0  0  0  0  0  0  0  0  0  0  0  0
  -22.7270   -4.4730   21.5280 F   0  0  0  0  0  0  0  0  0  0  0  0
  -21.1850   -4.3830   26.0470 F   0  0  0  0  0  0  0  0  0  0  0  0
  -23.3300  -13.7440   20.9430 C   0  0  0  0  0  0  0  0  0  0  0  0
  -22.6160  -13.0860   21.8490 N   0  0  0  0  0  0  0  0  0  0  0  0
  -22.8980  -14.7660   20.4130 O   0  0  0  0  0  0  0  0  0  0  0  0
  -22.9780  -12.2590   22.2990 H   0  0  0  0  0  0  0  0  0  0  0  0
  -21.6920  -13.4140   22.0960 H   0  0  0  0  0  0  0  0  0  0  0  0
  -25.9860  -15.3340   20.0520 N   0  0  0  0  0  0  0  0  0  0  0  0
  -25.2450  -16.0140   20.1880 H   0  0  0  0  0  0  0  0  0  0  0  0
  -26.8480  -15.7500   19.7240 H   0  0  0  0  0  0  0  0  0  0  0  0
  1 12  1  0
  1 57  1  0
  2  3  1  0
  2  4  1  0
  2  1  1  0
  5  6  1  0
  5  7  1  0
  6  8  1  0
  7 10  1  0
  7  9  1  0
  8 11  1  0
  8  9  1  0
  9  2  1  0
 12 13  1  0
 14 13  1  0
 14 15  1  0
 16 18  1  0
 16 15  1  0
 17 28  2  0
 18 23  1  0
 19 27  1  0
 19 29  1  0
 20 26  1  0
 20 22  1  0
 21 27  1  0
 22 23  2  0
 22 21  1  0
 24 18  2  0
 25 24  1  0
 25 20  2  0
 26 19  1  0
 27 17  1  0
 29 31  2  0
 30 29  1  0
 32 30  1  0
 33 42  2  0
 33 38  1  0
 34 30  1  0
 34 38  1  0
 35 34  1  0
 36 37  1  0
 36 35  1  0
 37 33  1  0
 38 39  2  0
 39 40  1  0
 41 40  2  0
 42 41  1  0
 43 17  1  0
 43 44  1  0
 43 53  1  0
 44 47  1  0
 45 49  1  0
 45 44  1  0
 46 45  2  0
 49 48  1  0
 51 49  1  0
 51 52  1  0
 51 50  1  0
 53 56  1  1
 53 54  1  0
 55 53  1  0
 57 61  1  0
 57 59  1  0
 59 58  1  0
 61 60  1  0
 62 63  1  0
 62 61  1  0
 64 63  1  0
 65 70  1  0
 66 67  1  0
 66 65  1  0
 68 67  1  0
 68 75  1  0
 68 69  1  0
 70 64  1  0
 70 69  1  0
 71 64  2  0
 72 73  2  0
 73 92  1  0
 74 73  1  0
 74 77  1  0
 75 72  1  0
 75 76  1  0
 76 74  2  0
 77 78  1  0
 78 79  2  0
 80 83  1  0
 80 79  1  0
 81 80  2  0
 82 81  1  0
 82 77  2  0
 83 84  1  0
 84 89  2  0
 84 85  1  0
 85 86  2  0
 86 87  1  0
 87 91  1  0
 88 87  2  0
 89 88  1  0
 90 89  1  0
 92 93  1  0
 93 96  1  0
 93 95  1  0
 94 92  2  0
 97 98  1  0
 97 72  1  0
 99 97  1  0
M  ISO  4  15 101  16 101  63 100  64 100
M  END
>  <TORSDO>  (15) 
F 27

>  <SCORE>  (15) 
-10.365

>  <name>  (15) 
14

>  <ligand_id>  (15) 
14

>  <original_smiles>  (15) 
[H]c1c([H])c([H])c2c(c1[H])C([H])([H])C([H])([H])C([H])([H])C2([H])N([H])C(=O)C1([H])N(C(=O)C([H])(N([H])C(=O)C([H])(N([H])C([H])([H])[H])C([H])([H])[H])C(C([H])([H])[H])(C([H])([H])[H])C([H])([H])[H])C([H])([H])c2c([H])c(OC([H])([H])C([H])([H])C([H])([H])C([H])([H])C([H])(C([H])(N(C([H])([H])[H])C([H])([H])C([H])([H])C(=O)N3C([H])([H])C([H])([H])C([H])([H])C([H])(n4nc(-c5c([H])c([H])c(Oc6c([H])c([H])c(F)c([H])c6F)c([H])c5[H])c(C(=O)N([H])[H])c4N([H])[H])C3([H])[H])C([H])([H])C([H])([H])[H])[N+]([H])([H])C3([H])C([H])(C([H])([H])[H])C([H])([H])C([H])([H])C3([H])C([H])([H])[H])c([H])c([H])c2C1([H])[H]

>  <smiles>  (15) 
[H]c1c([H])c([H])c2c(c1[H])C([H])([H])C([H])([H])C([H])([H])C2([H])N([H])C(=O)C1([H])N(C(=O)C([H])(N([H])C(=O)C([H])(N([H])C([H])([H])[H])C([H])([H])[H])C(C([H])([H])[H])(C([H])([H])[H])C([H])([H])[H])C([H])([H])c2c([H])c(OC([H])([H])C([H])([H])C([H])([H])C([H])([H])C([H])(C([H])(N(C([H])([H])[H])C([H])([H])C([H])([H])C(=O)N3C([H])([H])C([H])([H])C([H])([H])C([H])(n4nc(-c5c([H])c([H])c(Oc6c([H])c([H])c(F)c([H])c6F)c([H])c5[H])c(C(=O)N([H])[H])c4N([H])[H])C3([H])[H])C([H])([H])C([H])([H])[H])[N+]([H])([H])C3([H])C([H])(C([H])([H])[H])C([H])([H])C([H])([H])C3([H])C([H])([H])[H])c([H])c([H])c2C1([H])[H]

$$$$
15:0:0
     RDKit          3D

 88 97  0  0  1  0  0  0  0  0999 V2000
  -30.2700  -22.8300   22.4540 C   0  0  0  0  0  2  0  0  0  0  0  0
  -30.0080  -21.3880   22.9260 C   0  0  0  0  0  2  0  0  0  0  0  0
  -31.1070  -18.4900   20.7220 C   0  0  0  0  0  2  0  0  0  0  0  0
  -30.4220  -23.0070   20.9230 C   0  0  0  0  0  2  0  0  0  0  0  0
  -28.9980  -20.6060   22.0590 C   0  0  0  0  0  2  0  0  0  0  0  0
  -30.8410  -20.0350   20.3750 C   0  0  0  0  0  2  0  0  0  0  0  0
  -28.9300  -18.9060   19.9930 C   0  0  0  0  0  2  0  0  0  0  0  0
  -30.1130  -17.5410   20.0010 C   0  0  0  0  0  3  0  0  0  0  0  0
  -29.1940  -22.4710   20.1210 C   0  0  0  0  0  3  0  0  0  0  0  0
  -29.3470  -20.5880   20.5530 C   0  0  1  0  0  0  0  0  0  0  0  0
  -30.5280  -15.7290   20.0250 C   0  0  0  0  0  0  0  0  0  0  0  0
  -30.4990  -13.2130   19.2180 C   0  0  0  0  0  2  0  0  0  0  0  0
  -29.5730  -12.8720   18.0210 C   0  0  0  0  0  2  0  0  0  0  0  0
  -28.1630  -12.5290   18.5180 C   0  0  0  0  0  2  0  0  0  0  0  0
  -27.6930  -13.5190   19.6100 C   0  0  0  0  0  3  0  0  0  0  0  0
  -28.7570  -13.8300   20.6860 C   0  0  0  0  0  2  0  0  0  0  0  0
  -29.9310  -14.4040   19.9960 N   0  0  0  0  0  0  0  0  0  0  0  0
  -31.7470  -15.5430   19.8590 O   0  0  0  0  0  0  0  0  0  0  0  0
  -25.3690  -14.0070   20.5050 C   0  0  0  0  0  0  0  0  0  0  0  0
  -24.3320  -13.2060   20.8920 C   0  0  0  0  0  0  0  0  0  0  0  0
  -24.8110  -11.8630   20.7980 C   0  0  0  0  0  0  0  0  0  0  0  0
  -26.4060  -13.1540   20.1830 N   0  0  0  0  0  0  0  0  0  0  0  0
  -26.0890  -11.8540   20.4290 N   0  0  0  0  0  0  0  0  0  0  0  0
  -24.1020  -10.5880   20.9780 C   0  0  0  0  0  0  0  0  0  0  0  0
  -24.5210   -9.6350   21.9330 C   0  0  0  0  0  3  0  0  0  0  0  0
  -23.8060   -8.4290   22.1020 C   0  0  0  0  0  3  0  0  0  0  0  0
  -22.6590   -8.1670   21.3160 C   0  0  0  0  0  0  0  0  0  0  0  0
  -22.2590   -9.1080   20.3510 C   0  0  0  0  0  3  0  0  0  0  0  0
  -22.9750  -10.3060   20.1810 C   0  0  0  0  0  3  0  0  0  0  0  0
  -21.9170   -7.0120   21.3940 O   0  0  0  0  0  0  0  0  0  0  0  0
  -21.7680   -6.3300   22.5750 C   0  0  0  0  0  0  0  0  0  0  0  0
  -21.1960   -6.9330   23.7160 C   0  0  0  0  0  3  0  0  0  0  0  0
  -20.9970   -6.1750   24.8880 C   0  0  0  0  0  3  0  0  0  0  0  0
  -21.3600   -4.8160   24.9180 C   0  0  0  0  0  0  0  0  0  0  0  0
  -21.9240   -4.2120   23.7810 C   0  0  0  0  0  3  0  0  0  0  0  0
  -22.1250   -4.9670   22.6120 C   0  0  0  0  0  0  0  0  0  0  0  0
  -22.6480   -4.3740   21.5120 F   0  0  0  0  0  0  0  0  0  0  0  0
  -21.1630   -4.0860   26.0400 F   0  0  0  0  0  0  0  0  0  0  0  0
  -22.9430  -13.6620   21.2280 C   0  0  0  0  0  0  0  0  0  0  0  0
  -22.2550  -12.9350   22.1010 N   0  0  0  0  0  0  0  0  0  0  0  0
  -22.4800  -14.6980   20.7540 O   0  0  0  0  0  0  0  0  0  0  0  0
  -22.6460  -12.0960   22.5050 H   0  0  0  0  0  0  0  0  0  0  0  0
  -21.3240  -13.2210   22.3690 H   0  0  0  0  0  0  0  0  0  0  0  0
  -25.5120  -15.3850   20.3660 N   0  0  0  0  0  0  0  0  0  0  0  0
  -24.7490  -16.0290   20.5410 H   0  0  0  0  0  0  0  0  0  0  0  0
  -26.3500  -15.8440   20.0310 H   0  0  0  0  0  0  0  0  0  0  0  0
  -28.1580  -24.0900   20.2090 C   0  0  0  0  0  2  0  0  0  0  0  0
  -28.2280  -25.8210   20.2340 O   0  0  0  0  0  0  0  0  0  0  0  0
  -24.6770  -31.9310   23.2710 C   0  0  0  0  0  0  0  0  0  0  0  0
  -27.2140  -26.9680   20.2120 C   0  0  0  0  0  0  0  0  0  0  0  0
  -23.4830  -30.5460   21.6260 C   0  0  0  0  0  3  0  0  0  0  0  0
  -24.9280  -28.9330   20.1860 C   0  0  0  0  0  0  0  0  0  0  0  0
  -26.0550  -30.7280   21.4810 C   0  0  0  0  0  2  0  0  0  0  0  0
  -26.1230  -29.3100   20.8100 C   0  0  0  0  0  0  0  0  0  0  0  0
  -27.2550  -28.3530   20.7880 C   0  0  0  0  0  3  0  0  0  0  0  0
  -25.9840  -26.7750   19.5400 C   0  0  0  0  0  3  0  0  0  0  0  0
  -24.8920  -27.6910   19.5270 C   0  0  0  0  0  3  0  0  0  0  0  0
  -23.7140  -29.8680   20.2450 C   0  0  0  0  0  2  0  0  0  0  0  0
  -24.7620  -31.0990   22.1790 N   0  0  0  0  0  0  0  0  0  0  0  0
  -23.5870  -32.2160   23.7960 O   0  0  0  0  0  0  0  0  0  0  0  0
  -22.7860  -29.5480   22.5890 C   0  0  0  0  0  0  0  0  0  0  0  0
  -21.4600  -29.3570   22.4460 N   0  0  0  0  0  0  0  0  0  0  0  0
  -23.4480  -28.9430   23.4360 O   0  0  0  0  0  0  0  0  0  0  0  0
  -20.9760  -29.8960   21.7410 H   0  0  0  0  0  0  0  0  0  0  0  0
  -18.1050  -28.0400   22.8880 C   0  0  0  0  0  0  0  0  0  0  0  0
  -20.6470  -28.4040   23.2100 C   0  0  0  0  0  3  0  0  0  0  0  0
  -20.8130  -26.9670   22.6600 C   0  0  0  0  0  2  0  0  0  0  0  0
  -19.7500  -26.5910   21.6230 C   0  0  0  0  0  2  0  0  0  0  0  0
  -18.3480  -26.6920   22.2300 C   0  0  0  0  0  2  0  0  0  0  0  0
  -19.1840  -28.8510   23.3330 C   0  0  0  0  0  0  0  0  0  0  0  0
  -18.9000  -30.1060   23.9110 C   0  0  0  0  0  3  0  0  0  0  0  0
  -17.5730  -30.5550   24.0460 C   0  0  0  0  0  3  0  0  0  0  0  0
  -16.5090  -29.7450   23.6140 C   0  0  0  0  0  3  0  0  0  0  0  0
  -16.7760  -28.4880   23.0410 C   0  0  0  0  0  3  0  0  0  0  0  0
  -25.9440  -32.5770   23.9100 C   0  0  0  0  0  3  0  0  0  0  0  0
  -25.6250  -33.9790   24.2410 N   0  0  0  0  0  0  0  0  0  0  0  0
  -25.9260  -35.0400   23.4800 C   0  0  0  0  0  0  0  0  0  0  0  0
  -26.5600  -34.9420   22.4270 O   0  0  0  0  0  0  0  0  0  0  0  0
  -25.0550  -34.1280   25.0620 H   0  0  0  0  0  0  0  0  0  0  0  0
  -24.1550  -36.8160   23.2290 C   0  0  0  0  0  1  0  0  0  0  0  0
  -25.4520  -36.4290   23.9590 C   0  0  0  0  0  3  0  0  0  0  0  0
  -27.6190  -37.3590   24.6500 C   0  0  0  0  0  1  0  0  0  0  0  0
  -26.4600  -37.4950   23.7710 N   0  0  0  0  0  0  0  0  0  0  0  0
  -26.0500  -38.4120   23.9270 H   0  0  0  0  0  0  0  0  0  0  0  0
  -26.4390  -31.8190   25.2040 C   0  0  1  0  0  0  0  0  0  0  0  0
  -25.3310  -31.5960   26.2590 C   0  0  0  0  0  1  0  0  0  0  0  0
  -27.0260  -30.4360   24.8450 C   0  0  0  0  0  1  0  0  0  0  0  0
  -27.5820  -32.6190   25.8740 C   0  0  0  0  0  1  0  0  0  0  0  0
  1  2  1  0
  4  1  1  0
  5  2  1  0
 10  6  1  1
  6  3  1  0
  7  8  1  0
  8 11  1  0
  8  3  1  0
  9 47  1  0
  9 10  1  0
  9  4  1  0
 10  7  1  0
 10  5  1  0
 12 17  1  0
 13 14  1  0
 13 12  1  0
 15 14  1  0
 15 22  1  0
 15 16  1  0
 17 11  1  0
 17 16  1  0
 18 11  2  0
 19 20  2  0
 20 39  1  0
 21 20  1  0
 21 24  1  0
 22 23  1  0
 22 19  1  0
 23 21  2  0
 24 25  1  0
 25 26  2  0
 27 30  1  0
 27 26  1  0
 28 27  2  0
 29 28  1  0
 29 24  2  0
 30 31  1  0
 31 36  2  0
 31 32  1  0
 32 33  2  0
 33 34  1  0
 34 38  1  0
 35 34  2  0
 36 35  1  0
 37 36  1  0
 39 40  1  0
 40 43  1  0
 40 42  1  0
 41 39  2  0
 44 19  1  0
 44 45  1  0
 46 44  1  0
 47 48  1  0
 49 60  2  0
 50 48  1  0
 50 55  1  0
 51 59  1  0
 51 61  1  0
 52 58  1  0
 52 54  1  0
 53 59  1  0
 54 53  1  0
 55 54  2  0
 56 50  2  0
 57 56  1  0
 57 52  2  0
 58 51  1  0
 59 49  1  0
 61 63  2  0
 62 61  1  0
 64 62  1  0
 65 74  2  0
 65 70  1  0
 66 62  1  0
 66 70  1  0
 67 66  1  0
 68 69  1  0
 68 67  1  0
 69 65  1  0
 70 71  2  0
 71 72  1  0
 73 72  2  0
 74 73  1  0
 75 49  1  0
 75 76  1  0
 75 85  1  0
 76 79  1  0
 77 81  1  0
 77 76  1  0
 78 77  2  0
 81 80  1  0
 83 84  1  0
 83 81  1  0
 83 82  1  0
 85 88  1  1
 85 86  1  0
 87 85  1  0
M  ISO  4   8 100  11 100  47 101  48 101
M  END
>  <TORSDO>  (16) 
F 17

>  <SCORE>  (16) 
-16.032

>  <name>  (16) 
15

>  <ligand_id>  (16) 
15

>  <original_smiles>  (16) 
[H]c1c([H])c([H])c2c(c1[H])C([H])([H])C([H])([H])C([H])([H])C2([H])N([H])C(=O)C1([H])N(C(=O)C([H])(N([H])C(=O)C([H])(N([H])C([H])([H])[H])C([H])([H])[H])C(C([H])([H])[H])(C([H])([H])[H])C([H])([H])[H])C([H])([H])c2c([H])c(OC([H])([H])C3([H])C([H])([H])C([H])([H])C([H])([H])C([H])([H])C34C([H])([H])C([H])([H])C([H])(C(=O)N3C([H])([H])C([H])([H])C([H])([H])C([H])(n5nc(-c6c([H])c([H])c(Oc7c([H])c([H])c(F)c([H])c7F)c([H])c6[H])c(C(=O)N([H])[H])c5N([H])[H])C3([H])[H])C4([H])[H])c([H])c([H])c2C1([H])[H]

>  <smiles>  (16) 
[H]c1c([H])c([H])c2c(c1[H])C([H])([H])C([H])([H])C([H])([H])C2([H])N([H])C(=O)C1([H])N(C(=O)C([H])(N([H])C(=O)C([H])(N([H])C([H])([H])[H])C([H])([H])[H])C(C([H])([H])[H])(C([H])([H])[H])C([H])([H])[H])C([H])([H])c2c([H])c(OC([H])([H])C3([H])C([H])([H])C([H])([H])C([H])([H])C([H])([H])C34C([H])([H])C([H])([H])C([H])(C(=O)N3C([H])([H])C([H])([H])C([H])([H])C([H])(n5nc(-c6c([H])c([H])c(Oc7c([H])c([H])c(F)c([H])c7F)c([H])c6[H])c(C(=O)N([H])[H])c5N([H])[H])C3([H])[H])C4([H])[H])c([H])c([H])c2C1([H])[H]

$$$$
16:0:0
     RDKit          3D

 96105  0  0  1  0  0  0  0  0999 V2000
  -29.8460  -18.6340   20.9880 C   0  0  0  0  0  0  0  0  0  0  0  0
  -29.2050  -19.7920   20.6140 N   0  0  0  0  0  0  0  0  0  0  0  0
  -30.5040  -18.5960   22.0280 O   0  0  0  0  0  0  0  0  0  0  0  0
  -28.6840  -19.7380   19.7470 H   0  0  0  0  0  0  0  0  0  0  0  0
  -32.0290  -18.9780   17.2310 C   0  0  0  0  0  2  0  0  0  0  0  0
  -30.8630  -19.0500   18.2130 C   0  0  0  0  0  2  0  0  0  0  0  0
  -33.0150  -17.8910   17.6580 C   0  0  0  0  0  2  0  0  0  0  0  0
  -31.0960  -16.3800   20.0120 C   0  0  0  0  0  3  0  0  0  0  0  0
  -29.8360  -17.3470   20.0500 C   0  0  0  0  0  3  0  0  0  0  0  0
  -31.0800  -16.4450   18.4720 C   0  0  0  0  0  3  0  0  0  0  0  0
  -30.1500  -17.6910   18.5390 C   0  0  2  0  0  0  0  0  0  0  0  0
  -32.3850  -16.4880   17.6140 C   0  0  1  0  0  0  0  0  0  0  0  0
  -28.9240  -17.6020   17.6220 C   0  0  0  0  0  1  0  0  0  0  0  0
  -32.0560  -16.1260   16.1450 C   0  0  0  0  0  1  0  0  0  0  0  0
  -33.4770  -15.5170   18.0980 C   0  0  0  0  0  1  0  0  0  0  0  0
  -31.3270  -14.8930   20.5760 C   0  0  0  0  0  0  0  0  0  0  0  0
  -30.9100  -12.6580   19.5850 C   0  0  0  0  0  2  0  0  0  0  0  0
  -30.0630  -12.7420   18.3020 C   0  0  0  0  0  2  0  0  0  0  0  0
  -28.5660  -12.7040   18.6390 C   0  0  0  0  0  2  0  0  0  0  0  0
  -28.1700  -13.6180   19.8320 C   0  0  0  0  0  3  0  0  0  0  0  0
  -29.1760  -13.5610   20.9990 C   0  0  0  0  0  2  0  0  0  0  0  0
  -30.5140  -13.7930   20.4410 N   0  0  0  0  0  0  0  0  0  0  0  0
  -32.5250  -14.6950   20.7350 O   0  0  0  0  0  0  0  0  0  0  0  0
  -25.7660  -14.2570   20.4500 C   0  0  0  0  0  0  0  0  0  0  0  0
  -24.6650  -13.5070   20.7540 C   0  0  0  0  0  0  0  0  0  0  0  0
  -25.1000  -12.1460   20.7550 C   0  0  0  0  0  0  0  0  0  0  0  0
  -26.8030  -13.3570   20.2710 N   0  0  0  0  0  0  0  0  0  0  0  0
  -26.4050  -12.0810   20.5270 N   0  0  0  0  0  0  0  0  0  0  0  0
  -24.3340  -10.8990   20.9010 C   0  0  0  0  0  0  0  0  0  0  0  0
  -24.6990   -9.9140   21.8450 C   0  0  0  0  0  3  0  0  0  0  0  0
  -23.9380   -8.7330   21.9800 C   0  0  0  0  0  3  0  0  0  0  0  0
  -22.7950   -8.5300   21.1710 C   0  0  0  0  0  0  0  0  0  0  0  0
  -22.4490   -9.5020   20.2160 C   0  0  0  0  0  3  0  0  0  0  0  0
  -23.2090  -10.6740   20.0800 C   0  0  0  0  0  3  0  0  0  0  0  0
  -22.0070   -7.4050   21.2150 O   0  0  0  0  0  0  0  0  0  0  0  0
  -21.8780   -6.6610   22.3610 C   0  0  0  0  0  0  0  0  0  0  0  0
  -21.4370   -7.2320   23.5750 C   0  0  0  0  0  3  0  0  0  0  0  0
  -21.2570   -6.4180   24.7120 C   0  0  0  0  0  3  0  0  0  0  0  0
  -21.5020   -5.0330   24.6330 C   0  0  0  0  0  0  0  0  0  0  0  0
  -21.9330   -4.4630   23.4210 C   0  0  0  0  0  3  0  0  0  0  0  0
  -22.1190   -5.2740   22.2900 C   0  0  0  0  0  0  0  0  0  0  0  0
  -22.5170   -4.7170   21.1220 F   0  0  0  0  0  0  0  0  0  0  0  0
  -21.3200   -4.2490   25.7210 F   0  0  0  0  0  0  0  0  0  0  0  0
  -23.2650  -14.0130   20.9370 C   0  0  0  0  0  0  0  0  0  0  0  0
  -22.4750  -13.3470   21.7710 N   0  0  0  0  0  0  0  0  0  0  0  0
  -22.8780  -15.0380   20.3740 O   0  0  0  0  0  0  0  0  0  0  0  0
  -22.8030  -12.5220   22.2520 H   0  0  0  0  0  0  0  0  0  0  0  0
  -21.5320  -13.6730   21.9360 H   0  0  0  0  0  0  0  0  0  0  0  0
  -25.9740  -15.6220   20.2840 N   0  0  0  0  0  0  0  0  0  0  0  0
  -25.2200  -16.2950   20.3370 H   0  0  0  0  0  0  0  0  0  0  0  0
  -26.8590  -16.0270   20.0110 H   0  0  0  0  0  0  0  0  0  0  0  0
  -29.4070  -21.1790   21.1710 C   0  0  0  0  0  3  0  0  0  0  0  0
  -28.6120  -22.3800   20.4860 C   0  0  0  0  0  3  0  0  0  0  0  0
  -29.0020  -23.8920   20.8440 C   0  0  0  0  0  3  0  0  0  0  0  0
  -28.0700  -25.0210   20.2160 C   0  0  0  0  0  3  0  0  0  0  0  0
  -28.3140  -26.4750   20.4140 O   0  0  0  0  0  0  0  0  0  0  0  0
  -24.5800  -31.9560   23.2690 C   0  0  0  0  0  0  0  0  0  0  0  0
  -27.2100  -27.3420   20.3110 C   0  0  0  0  0  0  0  0  0  0  0  0
  -23.3910  -30.5330   21.6410 C   0  0  0  0  0  3  0  0  0  0  0  0
  -24.8490  -28.9610   20.2510 C   0  0  0  0  0  0  0  0  0  0  0  0
  -25.9320  -30.8470   21.4740 C   0  0  0  0  0  2  0  0  0  0  0  0
  -26.0150  -29.4590   20.8480 C   0  0  0  0  0  0  0  0  0  0  0  0
  -27.1990  -28.6610   20.8660 C   0  0  0  0  0  3  0  0  0  0  0  0
  -26.0210  -26.9090   19.6750 C   0  0  0  0  0  3  0  0  0  0  0  0
  -24.8550  -27.6920   19.6570 C   0  0  0  0  0  3  0  0  0  0  0  0
  -23.6090  -29.8300   20.2780 C   0  0  0  0  0  2  0  0  0  0  0  0
  -24.6530  -31.1310   22.1830 N   0  0  0  0  0  0  0  0  0  0  0  0
  -23.4910  -32.2430   23.7860 O   0  0  0  0  0  0  0  0  0  0  0  0
  -22.7140  -29.5350   22.6120 C   0  0  0  0  0  0  0  0  0  0  0  0
  -21.3880  -29.3640   22.4750 N   0  0  0  0  0  0  0  0  0  0  0  0
  -23.3820  -28.9160   23.4440 O   0  0  0  0  0  0  0  0  0  0  0  0
  -20.9140  -29.9080   21.7680 H   0  0  0  0  0  0  0  0  0  0  0  0
  -17.9970  -28.2020   22.9700 C   0  0  0  0  0  0  0  0  0  0  0  0
  -20.5560  -28.4420   23.2500 C   0  0  0  0  0  3  0  0  0  0  0  0
  -20.6490  -27.0030   22.6910 C   0  0  0  0  0  2  0  0  0  0  0  0
  -19.5480  -26.6780   21.6750 C   0  0  0  0  0  2  0  0  0  0  0  0
  -18.1650  -26.8430   22.3110 C   0  0  0  0  0  2  0  0  0  0  0  0
  -19.1200  -28.9600   23.3970 C   0  0  0  0  0  0  0  0  0  0  0  0
  -18.9080  -30.2300   23.9730 C   0  0  0  0  0  3  0  0  0  0  0  0
  -17.6070  -30.7430   24.1280 C   0  0  0  0  0  3  0  0  0  0  0  0
  -16.4980  -29.9820   23.7200 C   0  0  0  0  0  3  0  0  0  0  0  0
  -16.6950  -28.7140   23.1470 C   0  0  0  0  0  3  0  0  0  0  0  0
  -25.8560  -32.5960   23.8960 C   0  0  0  0  0  3  0  0  0  0  0  0
  -25.5430  -33.9970   24.2070 N   0  0  0  0  0  0  0  0  0  0  0  0
  -25.8990  -35.0430   23.4500 C   0  0  0  0  0  0  0  0  0  0  0  0
  -26.5930  -34.9300   22.4350 O   0  0  0  0  0  0  0  0  0  0  0  0
  -24.9280  -34.1580   24.9910 H   0  0  0  0  0  0  0  0  0  0  0  0
  -24.1870  -36.8420   23.0430 C   0  0  0  0  0  1  0  0  0  0  0  0
  -25.4070  -36.4380   23.8860 C   0  0  0  0  0  3  0  0  0  0  0  0
  -27.5300  -37.3170   24.7520 C   0  0  0  0  0  1  0  0  0  0  0  0
  -26.4480  -37.4860   23.7860 N   0  0  0  0  0  0  0  0  0  0  0  0
  -26.0450  -38.4090   23.9190 H   0  0  0  0  0  0  0  0  0  0  0  0
  -26.3590  -31.8390   25.1870 C   0  0  1  0  0  0  0  0  0  0  0  0
  -25.2520  -31.6100   26.2450 C   0  0  0  0  0  1  0  0  0  0  0  0
  -26.9500  -30.4590   24.8170 C   0  0  0  0  0  1  0  0  0  0  0  0
  -27.5020  -32.6430   25.8500 C   0  0  0  0  0  1  0  0  0  0  0  0
  1  3  2  0
  2  1  1  0
  2 52  1  0
  4  2  1  0
  5  7  1  0
  5  6  1  0
  6 11  1  0
  8  9  1  0
  8 16  1  0
  9  1  1  0
 10 12  1  0
 10 11  1  0
 10  8  1  0
 11 13  1  6
 11  9  1  0
 12  7  1  0
 12 15  1  1
 14 12  1  0
 16 23  2  0
 17 22  1  0
 18 19  1  0
 18 17  1  0
 20 19  1  0
 20 27  1  0
 20 21  1  0
 22 16  1  0
 22 21  1  0
 24 25  2  0
 25 26  1  0
 25 44  1  0
 26 29  1  0
 27 24  1  0
 27 28  1  0
 28 26  2  0
 29 30  1  0
 30 31  2  0
 32 35  1  0
 32 31  1  0
 33 32  2  0
 34 33  1  0
 34 29  2  0
 35 36  1  0
 36 37  1  0
 37 38  2  0
 39 38  1  0
 39 43  1  0
 40 39  2  0
 41 36  2  0
 41 40  1  0
 42 41  1  0
 44 45  1  0
 45 48  1  0
 45 47  1  0
 46 44  2  0
 49 50  1  0
 49 24  1  0
 51 49  1  0
 53 54  1  0
 53 52  2  0
 55 56  1  0
 55 54  2  0
 57 68  2  0
 58 56  1  0
 58 63  1  0
 59 67  1  0
 59 69  1  0
 60 66  1  0
 60 62  1  0
 61 67  1  0
 62 63  2  0
 62 61  1  0
 64 58  2  0
 65 64  1  0
 65 60  2  0
 66 59  1  0
 67 57  1  0
 69 71  2  0
 70 69  1  0
 72 70  1  0
 73 82  2  0
 73 78  1  0
 74 70  1  0
 74 78  1  0
 75 74  1  0
 76 77  1  0
 76 75  1  0
 77 73  1  0
 78 79  2  0
 79 80  1  0
 81 80  2  0
 82 81  1  0
 83 57  1  0
 83 84  1  0
 83 93  1  0
 84 87  1  0
 85 89  1  0
 85 84  1  0
 86 85  2  0
 89 88  1  0
 91 89  1  0
 91 92  1  0
 91 90  1  0
 93 96  1  1
 93 94  1  0
 95 93  1  0
M  ISO  4   8 100  16 100  55 101  56 101
M  END
>  <TORSDO>  (17) 
F 21

>  <SCORE>  (17) 
-12.842

>  <name>  (17) 
16

>  <ligand_id>  (17) 
16

>  <original_smiles>  (17) 
[H]c1c([H])c([H])c2c(c1[H])C([H])([H])C([H])([H])C([H])([H])C2([H])N([H])C(=O)C1([H])N(C(=O)C([H])(N([H])C(=O)C([H])(N([H])C([H])([H])[H])C([H])([H])[H])C(C([H])([H])[H])(C([H])([H])[H])C([H])([H])[H])C([H])([H])c2c([H])c(OC([H])([H])C([H])([H])C([H])([H])C([H])([H])N([H])C(=O)C3([H])C([H])(C(=O)N4C([H])([H])C([H])([H])C([H])([H])C([H])(n5nc(-c6c([H])c([H])c(Oc7c([H])c([H])c(F)c([H])c7F)c([H])c6[H])c(C(=O)N([H])[H])c5N([H])[H])C4([H])[H])C4([H])C(C([H])([H])[H])(C([H])([H])[H])C([H])([H])C([H])([H])C([H])([H])C34C([H])([H])[H])c([H])c([H])c2C1([H])[H]

>  <smiles>  (17) 
[H]c1c([H])c([H])c2c(c1[H])C([H])([H])C([H])([H])C([H])([H])C2([H])N([H])C(=O)C1([H])N(C(=O)C([H])(N([H])C(=O)C([H])(N([H])C([H])([H])[H])C([H])([H])[H])C(C([H])([H])[H])(C([H])([H])[H])C([H])([H])[H])C([H])([H])c2c([H])c(OC([H])([H])C([H])([H])C([H])([H])C([H])([H])N([H])C(=O)C3([H])C([H])(C(=O)N4C([H])([H])C([H])([H])C([H])([H])C([H])(n5nc(-c6c([H])c([H])c(Oc7c([H])c([H])c(F)c([H])c7F)c([H])c6[H])c(C(=O)N([H])[H])c5N([H])[H])C4([H])[H])C4([H])C(C([H])([H])[H])(C([H])([H])[H])C([H])([H])C([H])([H])C([H])([H])C34C([H])([H])[H])c([H])c([H])c2C1([H])[H]

$$$$
17:0:0
     RDKit          3D

 93101  0  0  1  0  0  0  0  0999 V2000
  -28.9430  -20.7610   20.7270 C   0  0  0  0  0  0  0  0  0  0  0  0
  -28.0400  -21.6760   20.3510 N   0  0  0  0  0  0  0  0  0  0  0  0
  -29.7650  -20.9750   21.6230 O   0  0  0  0  0  0  0  0  0  0  0  0
  -27.4080  -21.4050   19.6100 H   0  0  0  0  0  0  0  0  0  0  0  0
  -27.6950  -17.8800   21.4800 C   0  0  0  0  0  2  0  0  0  0  0  0
  -27.5610  -18.6690   20.1770 C   0  0  0  0  0  2  0  0  0  0  0  0
  -29.1600  -17.4620   21.4570 C   0  0  0  0  0  2  0  0  0  0  0  0
  -28.9170  -19.3860   20.0210 C   0  0  0  0  0  3  0  0  0  0  0  0
  -29.8990  -18.4990   20.6890 N   0  0  2  0  0  4  0  0  0  0  0  0
  -30.3170  -19.1510   21.3460 H   0  0  0  0  0  0  0  0  0  0  0  0
  -30.9860  -17.9780   19.8170 C   0  0  0  0  0  2  0  0  0  0  0  0
  -32.0560  -17.2120   20.6310 C   0  0  0  0  0  2  0  0  0  0  0  0
  -31.5610  -15.8750   21.2550 C   0  0  0  0  0  2  0  0  0  0  0  0
  -32.0040  -14.6210   20.4950 C   0  0  0  0  0  0  0  0  0  0  0  0
  -31.6180  -12.3320   19.6700 C   0  0  0  0  0  2  0  0  0  0  0  0
  -30.8040  -12.3790   18.3650 C   0  0  0  0  0  2  0  0  0  0  0  0
  -29.2930  -12.4050   18.6630 C   0  0  0  0  0  2  0  0  0  0  0  0
  -28.9020  -13.4490   19.7440 C   0  0  0  0  0  3  0  0  0  0  0  0
  -29.8510  -13.3580   20.9650 C   0  0  0  0  0  2  0  0  0  0  0  0
  -31.2350  -13.4980   20.4770 N   0  0  0  0  0  0  0  0  0  0  0  0
  -33.0940  -14.6760   19.9180 O   0  0  0  0  0  0  0  0  0  0  0  0
  -26.5100  -14.2830   20.2190 C   0  0  0  0  0  0  0  0  0  0  0  0
  -25.3550  -13.6180   20.5400 C   0  0  0  0  0  0  0  0  0  0  0  0
  -25.7040  -12.2360   20.6090 C   0  0  0  0  0  0  0  0  0  0  0  0
  -27.4950  -13.3110   20.1260 N   0  0  0  0  0  0  0  0  0  0  0  0
  -27.0060  -12.0790   20.4120 N   0  0  0  0  0  0  0  0  0  0  0  0
  -24.8610  -11.0450   20.7970 C   0  0  0  0  0  0  0  0  0  0  0  0
  -25.1100  -10.1160   21.8320 C   0  0  0  0  0  3  0  0  0  0  0  0
  -24.2720   -8.9930   22.0040 C   0  0  0  0  0  3  0  0  0  0  0  0
  -23.1700   -8.7880   21.1420 C   0  0  0  0  0  0  0  0  0  0  0  0
  -22.9370   -9.7030   20.0980 C   0  0  0  0  0  3  0  0  0  0  0  0
  -23.7770  -10.8180   19.9240 C   0  0  0  0  0  3  0  0  0  0  0  0
  -22.3210   -7.7100   21.2170 O   0  0  0  0  0  0  0  0  0  0  0  0
  -22.0260   -7.1080   22.4140 C   0  0  0  0  0  0  0  0  0  0  0  0
  -21.4770   -7.8310   23.4930 C   0  0  0  0  0  3  0  0  0  0  0  0
  -21.1250   -7.1610   24.6830 C   0  0  0  0  0  3  0  0  0  0  0  0
  -21.3130   -5.7700   24.7890 C   0  0  0  0  0  0  0  0  0  0  0  0
  -21.8550   -5.0480   23.7120 C   0  0  0  0  0  3  0  0  0  0  0  0
  -22.2080   -5.7150   22.5250 C   0  0  0  0  0  0  0  0  0  0  0  0
  -22.7100   -5.0100   21.4830 F   0  0  0  0  0  0  0  0  0  0  0  0
  -20.9660   -5.1250   25.9270 F   0  0  0  0  0  0  0  0  0  0  0  0
  -23.9860  -14.2190   20.6810 C   0  0  0  0  0  0  0  0  0  0  0  0
  -23.1540  -13.6550   21.5530 N   0  0  0  0  0  0  0  0  0  0  0  0
  -23.6630  -15.2280   20.0570 O   0  0  0  0  0  0  0  0  0  0  0  0
  -23.4250  -12.8360   22.0760 H   0  0  0  0  0  0  0  0  0  0  0  0
  -22.2330  -14.0480   21.6960 H   0  0  0  0  0  0  0  0  0  0  0  0
  -26.7950  -15.6220   19.9770 N   0  0  0  0  0  0  0  0  0  0  0  0
  -26.0600  -16.3170   19.9250 H   0  0  0  0  0  0  0  0  0  0  0  0
  -27.6740  -15.9510   19.6030 H   0  0  0  0  0  0  0  0  0  0  0  0
  -27.7690  -22.9500   21.0280 C   0  0  0  0  0  2  0  0  0  0  0  0
  -28.5460  -24.1500   20.4420 C   0  0  0  0  0  2  0  0  0  0  0  0
  -28.2710  -25.4410   21.2470 C   0  0  0  0  0  2  0  0  0  0  0  0
  -28.4500  -26.6350   20.4740 O   0  0  0  0  0  0  0  0  0  0  0  0
  -24.5180  -31.8070   23.3820 C   0  0  0  0  0  0  0  0  0  0  0  0
  -27.3080  -27.3960   20.4010 C   0  0  0  0  0  0  0  0  0  0  0  0
  -23.3890  -30.4330   21.6610 C   0  0  0  0  0  3  0  0  0  0  0  0
  -24.9120  -28.8910   20.3040 C   0  0  0  0  0  0  0  0  0  0  0  0
  -25.9250  -30.7720   21.6080 C   0  0  0  0  0  2  0  0  0  0  0  0
  -26.0370  -29.4090   20.9590 C   0  0  0  0  0  0  0  0  0  0  0  0
  -27.2380  -28.6670   21.0110 C   0  0  0  0  0  3  0  0  0  0  0  0
  -26.1740  -26.8840   19.7430 C   0  0  0  0  0  3  0  0  0  0  0  0
  -24.9750  -27.6220   19.6940 C   0  0  0  0  0  3  0  0  0  0  0  0
  -23.6660  -29.7520   20.2920 C   0  0  0  0  0  2  0  0  0  0  0  0
  -24.6260  -31.0200   22.2750 N   0  0  0  0  0  0  0  0  0  0  0  0
  -23.4130  -32.0820   23.8660 O   0  0  0  0  0  0  0  0  0  0  0  0
  -22.6830  -29.4090   22.5780 C   0  0  0  0  0  0  0  0  0  0  0  0
  -21.3740  -29.2140   22.3570 N   0  0  0  0  0  0  0  0  0  0  0  0
  -23.3140  -28.7880   23.4390 O   0  0  0  0  0  0  0  0  0  0  0  0
  -20.9270  -29.7620   21.6380 H   0  0  0  0  0  0  0  0  0  0  0  0
  -17.9830  -27.9970   22.6430 C   0  0  0  0  0  0  0  0  0  0  0  0
  -20.5190  -28.2650   23.0700 C   0  0  0  0  0  3  0  0  0  0  0  0
  -20.6610  -26.8370   22.4950 C   0  0  0  0  0  2  0  0  0  0  0  0
  -19.6240  -26.5110   21.4140 C   0  0  0  0  0  2  0  0  0  0  0  0
  -18.2040  -26.6500   21.9690 C   0  0  0  0  0  2  0  0  0  0  0  0
  -19.0720  -28.7580   23.1460 C   0  0  0  0  0  0  0  0  0  0  0  0
  -18.8160  -30.0170   23.7290 C   0  0  0  0  0  3  0  0  0  0  0  0
  -17.5020  -30.5220   23.8080 C   0  0  0  0  0  3  0  0  0  0  0  0
  -16.4290  -29.7560   23.3250 C   0  0  0  0  0  3  0  0  0  0  0  0
  -16.6690  -28.4940   22.7500 C   0  0  0  0  0  3  0  0  0  0  0  0
  -25.7770  -32.4170   24.0760 C   0  0  0  0  0  3  0  0  0  0  0  0
  -25.4690  -33.8200   24.3890 N   0  0  0  0  0  0  0  0  0  0  0  0
  -25.8430  -34.8690   23.6430 C   0  0  0  0  0  0  0  0  0  0  0  0
  -26.5610  -34.7560   22.6450 O   0  0  0  0  0  0  0  0  0  0  0  0
  -24.8420  -33.9780   25.1660 H   0  0  0  0  0  0  0  0  0  0  0  0
  -24.1420  -36.6660   23.2140 C   0  0  0  0  0  1  0  0  0  0  0  0
  -25.3480  -36.2630   24.0750 C   0  0  0  0  0  3  0  0  0  0  0  0
  -27.4620  -37.1330   24.9730 C   0  0  0  0  0  1  0  0  0  0  0  0
  -26.3940  -37.3070   23.9910 N   0  0  0  0  0  0  0  0  0  0  0  0
  -25.9910  -38.2320   24.1210 H   0  0  0  0  0  0  0  0  0  0  0  0
  -26.2160  -31.6400   25.3790 C   0  0  1  0  0  0  0  0  0  0  0  0
  -25.0550  -31.3730   26.3640 C   0  0  0  0  0  1  0  0  0  0  0  0
  -26.8490  -30.2760   25.0180 C   0  0  0  0  0  1  0  0  0  0  0  0
  -27.3020  -32.4460   26.1280 C   0  0  0  0  0  1  0  0  0  0  0  0
  1  3  2  0
  2  1  1  0
  2 50  1  0
  4  2  1  0
  6  5  1  0
  7  5  1  0
  8  6  1  0
  8  9  1  0
  8  1  1  0
  9 10  1  1
  9  7  1  0
 11 12  1  0
 11  9  1  0
 12 13  1  0
 14 13  1  0
 15 20  1  0
 16 17  1  0
 16 15  1  0
 18 17  1  0
 18 25  1  0
 18 19  1  0
 20 14  1  0
 20 19  1  0
 21 14  2  0
 22 23  2  0
 23 24  1  0
 23 42  1  0
 24 27  1  0
 25 22  1  0
 25 26  1  0
 26 24  2  0
 27 28  1  0
 28 29  2  0
 30 33  1  0
 30 29  1  0
 31 30  2  0
 32 31  1  0
 32 27  2  0
 33 34  1  0
 34 39  2  0
 34 35  1  0
 35 36  2  0
 36 37  1  0
 37 41  1  0
 38 37  2  0
 39 38  1  0
 40 39  1  0
 42 43  1  0
 43 46  1  0
 43 45  1  0
 44 42  2  0
 47 22  1  0
 48 47  1  0
 49 47  1  0
 51 50  1  0
 51 52  1  0
 53 52  1  0
 54 65  2  0
 55 53  1  0
 55 60  1  0
 56 64  1  0
 56 66  1  0
 57 59  1  0
 58 64  1  0
 59 60  2  0
 59 58  1  0
 61 55  2  0
 62 61  1  0
 62 57  2  0
 63 57  1  0
 63 56  1  0
 64 54  1  0
 66 68  2  0
 67 66  1  0
 69 67  1  0
 70 79  2  0
 70 75  1  0
 71 67  1  0
 71 75  1  0
 72 71  1  0
 73 74  1  0
 73 72  1  0
 74 70  1  0
 75 76  2  0
 76 77  1  0
 78 77  2  0
 79 78  1  0
 80 54  1  0
 80 81  1  0
 80 90  1  0
 81 84  1  0
 82 86  1  0
 82 81  1  0
 83 82  2  0
 86 85  1  0
 88 86  1  0
 88 89  1  0
 88 87  1  0
 90 93  1  1
 90 91  1  0
 92 90  1  0
M  ISO  4  13 100  14 100  52 101  53 101
M  END
>  <TORSDO>  (18) 
F 23

>  <SCORE>  (18) 
-9.301

>  <name>  (18) 
17

>  <ligand_id>  (18) 
17

>  <original_smiles>  (18) 
[H]c1c([H])c([H])c2c(c1[H])C([H])([H])C([H])([H])C([H])([H])C2([H])N([H])C(=O)C1([H])N(C(=O)C([H])(N([H])C(=O)C([H])(N([H])C([H])([H])[H])C([H])([H])[H])C(C([H])([H])[H])(C([H])([H])[H])C([H])([H])[H])C([H])([H])c2c([H])c(OC([H])([H])C([H])([H])C([H])([H])N([H])C(=O)C3([H])C([H])([H])C([H])([H])C([H])([H])[N+]3([H])C([H])([H])C([H])([H])C([H])([H])C(=O)N3C([H])([H])C([H])([H])C([H])([H])C([H])(n4nc(-c5c([H])c([H])c(Oc6c([H])c([H])c(F)c([H])c6F)c([H])c5[H])c(C(=O)N([H])[H])c4N([H])[H])C3([H])[H])c([H])c([H])c2C1([H])[H]

>  <smiles>  (18) 
[H]c1c([H])c([H])c2c(c1[H])C([H])([H])C([H])([H])C([H])([H])C2([H])N([H])C(=O)C1([H])N(C(=O)C([H])(N([H])C(=O)C([H])(N([H])C([H])([H])[H])C([H])([H])[H])C(C([H])([H])[H])(C([H])([H])[H])C([H])([H])[H])C([H])([H])c2c([H])c(OC([H])([H])C([H])([H])C([H])([H])N([H])C(=O)C3([H])C([H])([H])C([H])([H])C([H])([H])[N+]3([H])C([H])([H])C([H])([H])C([H])([H])C(=O)N3C([H])([H])C([H])([H])C([H])([H])C([H])(n4nc(-c5c([H])c([H])c(Oc6c([H])c([H])c(F)c([H])c6F)c([H])c5[H])c(C(=O)N([H])[H])c4N([H])[H])C3([H])[H])c([H])c([H])c2C1([H])[H]

$$$$
18:0:0
     RDKit          3D

 93102  0  0  1  0  0  0  0  0999 V2000
  -29.2510  -20.9850   20.7730 C   0  0  0  0  0  0  0  0  0  0  0  0
  -29.7880  -19.7490   21.4840 C   0  0  0  0  0  2  0  0  0  0  0  0
  -28.9040  -20.5760   19.3580 C   0  0  0  0  0  2  0  0  0  0  0  0
  -31.8060  -18.0830   18.6550 C   0  0  0  0  0  2  0  0  0  0  0  0
  -30.9410  -19.3410   18.5240 C   0  0  0  0  0  2  0  0  0  0  0  0
  -31.9290  -17.6810   20.1280 C   0  0  0  0  0  2  0  0  0  0  0  0
  -29.5750  -18.5200   20.5480 C   0  0  0  0  0  3  0  0  0  0  0  0
  -29.5200  -19.1690   19.1210 C   0  0  1  0  0  0  0  0  0  0  0  0
  -30.5660  -17.2840   20.7560 C   0  0  2  0  0  0  0  0  0  0  0  0
  -28.6250  -18.4110   18.1140 C   0  0  0  0  0  1  0  0  0  0  0  0
  -30.7990  -17.0440   22.2650 C   0  0  0  0  0  1  0  0  0  0  0  0
  -29.1510  -22.1500   21.3120 N   0  0  0  0  0  0  0  0  0  0  0  0
  -29.9370  -15.9340   20.1950 C   0  0  0  0  0  2  0  0  0  0  0  0
  -30.7710  -14.6160   20.0000 C   0  0  0  0  0  0  0  0  0  0  0  0
  -30.4630  -12.4050   18.9590 C   0  0  0  0  0  2  0  0  0  0  0  0
  -29.4620  -12.5900   17.7980 C   0  0  0  0  0  2  0  0  0  0  0  0
  -28.0090  -12.4530   18.2990 C   0  0  0  0  0  2  0  0  0  0  0  0
  -27.7310  -13.3000   19.5700 C   0  0  0  0  0  3  0  0  0  0  0  0
  -28.8470  -13.1070   20.6210 C   0  0  0  0  0  2  0  0  0  0  0  0
  -30.1350  -13.4090   19.9860 N   0  0  0  0  0  0  0  0  0  0  0  0
  -31.9270  -14.7110   19.5850 O   0  0  0  0  0  0  0  0  0  0  0  0
  -25.3910  -13.9070   20.4450 C   0  0  0  0  0  0  0  0  0  0  0  0
  -24.3390  -13.1350   20.8570 C   0  0  0  0  0  0  0  0  0  0  0  0
  -24.7810  -11.7800   20.7600 C   0  0  0  0  0  0  0  0  0  0  0  0
  -26.4090  -13.0230   20.1250 N   0  0  0  0  0  0  0  0  0  0  0  0
  -26.0500  -11.7370   20.3720 N   0  0  0  0  0  0  0  0  0  0  0  0
  -24.0530  -10.5190   20.9580 C   0  0  0  0  0  0  0  0  0  0  0  0
  -24.4990   -9.5460   21.8790 C   0  0  0  0  0  3  0  0  0  0  0  0
  -23.7720   -8.3510   22.0640 C   0  0  0  0  0  3  0  0  0  0  0  0
  -22.5850   -8.1200   21.3300 C   0  0  0  0  0  0  0  0  0  0  0  0
  -22.1590   -9.0820   20.3970 C   0  0  0  0  0  3  0  0  0  0  0  0
  -22.8860  -10.2690   20.2090 C   0  0  0  0  0  3  0  0  0  0  0  0
  -21.8280   -6.9780   21.4250 O   0  0  0  0  0  0  0  0  0  0  0  0
  -21.7610   -6.2540   22.5890 C   0  0  0  0  0  0  0  0  0  0  0  0
  -21.2840   -6.8190   23.7910 C   0  0  0  0  0  3  0  0  0  0  0  0
  -21.1660   -6.0200   24.9470 C   0  0  0  0  0  3  0  0  0  0  0  0
  -21.5160   -4.6580   24.9000 C   0  0  0  0  0  0  0  0  0  0  0  0
  -21.9860   -4.0920   23.7020 C   0  0  0  0  0  3  0  0  0  0  0  0
  -22.1060   -4.8870   22.5480 C   0  0  0  0  0  0  0  0  0  0  0  0
  -22.5400   -4.3330   21.3910 F   0  0  0  0  0  0  0  0  0  0  0  0
  -21.3960   -3.8880   26.0070 F   0  0  0  0  0  0  0  0  0  0  0  0
  -22.9650  -13.6170   21.2280 C   0  0  0  0  0  0  0  0  0  0  0  0
  -22.2810  -12.8990   22.1110 N   0  0  0  0  0  0  0  0  0  0  0  0
  -22.5110  -14.6650   20.7690 O   0  0  0  0  0  0  0  0  0  0  0  0
  -22.6630  -12.0520   22.5030 H   0  0  0  0  0  0  0  0  0  0  0  0
  -21.3620  -13.2030   22.4010 H   0  0  0  0  0  0  0  0  0  0  0  0
  -25.5610  -15.2810   20.2980 N   0  0  0  0  0  0  0  0  0  0  0  0
  -24.8130  -15.9410   20.4760 H   0  0  0  0  0  0  0  0  0  0  0  0
  -26.4000  -15.7200   19.9420 H   0  0  0  0  0  0  0  0  0  0  0  0
  -28.7190  -23.3330   20.5460 C   0  0  0  0  0  2  0  0  0  0  0  0
  -28.0860  -24.4240   21.4670 C   0  0  0  0  0  2  0  0  0  0  0  0
  -28.6920  -25.8620   21.4220 C   0  0  0  0  0  2  0  0  0  0  0  0
  -28.4130  -26.6450   20.2490 O   0  0  0  0  0  0  0  0  0  0  0  0
  -24.5840  -31.9190   23.2350 C   0  0  0  0  0  0  0  0  0  0  0  0
  -27.2630  -27.4040   20.2840 C   0  0  0  0  0  0  0  0  0  0  0  0
  -23.3970  -30.4780   21.6130 C   0  0  0  0  0  3  0  0  0  0  0  0
  -24.8690  -28.9100   20.2360 C   0  0  0  0  0  0  0  0  0  0  0  0
  -25.9230  -30.8370   21.4300 C   0  0  0  0  0  2  0  0  0  0  0  0
  -26.0200  -29.4480   20.8290 C   0  0  0  0  0  0  0  0  0  0  0  0
  -27.2220  -28.7010   20.8540 C   0  0  0  0  0  3  0  0  0  0  0  0
  -26.1020  -26.8860   19.6800 C   0  0  0  0  0  3  0  0  0  0  0  0
  -24.9040  -27.6280   19.6610 C   0  0  0  0  0  3  0  0  0  0  0  0
  -23.6210  -29.7670   20.2510 C   0  0  0  0  0  2  0  0  0  0  0  0
  -24.6520  -31.0950   22.1500 N   0  0  0  0  0  0  0  0  0  0  0  0
  -23.4960  -32.1990   23.7600 O   0  0  0  0  0  0  0  0  0  0  0  0
  -22.7400  -29.4750   22.5900 C   0  0  0  0  0  0  0  0  0  0  0  0
  -21.4150  -29.2920   22.4620 N   0  0  0  0  0  0  0  0  0  0  0  0
  -23.4200  -28.8650   23.4200 O   0  0  0  0  0  0  0  0  0  0  0  0
  -20.9290  -29.8350   21.7620 H   0  0  0  0  0  0  0  0  0  0  0  0
  -18.0370  -28.1180   22.9760 C   0  0  0  0  0  0  0  0  0  0  0  0
  -20.5950  -28.3690   23.2450 C   0  0  0  0  0  3  0  0  0  0  0  0
  -20.6920  -26.9290   22.6910 C   0  0  0  0  0  2  0  0  0  0  0  0
  -19.5900  -26.5970   21.6800 C   0  0  0  0  0  2  0  0  0  0  0  0
  -18.2080  -26.7580   22.3210 C   0  0  0  0  0  2  0  0  0  0  0  0
  -19.1580  -28.8810   23.3950 C   0  0  0  0  0  0  0  0  0  0  0  0
  -18.9450  -30.1550   23.9660 C   0  0  0  0  0  3  0  0  0  0  0  0
  -17.6420  -30.6650   24.1230 C   0  0  0  0  0  3  0  0  0  0  0  0
  -16.5350  -29.8980   23.7200 C   0  0  0  0  0  3  0  0  0  0  0  0
  -16.7330  -28.6260   23.1530 C   0  0  0  0  0  3  0  0  0  0  0  0
  -25.8620  -32.5680   23.8500 C   0  0  0  0  0  3  0  0  0  0  0  0
  -26.3950  -31.8050   25.1250 C   0  0  1  0  0  0  0  0  0  0  0  0
  -25.3080  -31.5460   26.1940 C   0  0  0  0  0  1  0  0  0  0  0  0
  -27.0020  -30.4380   24.7290 C   0  0  0  0  0  1  0  0  0  0  0  0
  -27.5330  -32.6180   25.7860 C   0  0  0  0  0  1  0  0  0  0  0  0
  -25.5370  -33.9620   24.1780 N   0  0  0  0  0  0  0  0  0  0  0  0
  -25.8580  -35.0170   23.4180 C   0  0  0  0  0  0  0  0  0  0  0  0
  -26.5310  -34.9200   22.3870 O   0  0  0  0  0  0  0  0  0  0  0  0
  -24.9390  -34.1120   24.9780 H   0  0  0  0  0  0  0  0  0  0  0  0
  -24.1190  -36.7940   23.0450 C   0  0  0  0  0  1  0  0  0  0  0  0
  -25.3540  -36.4000   23.8710 C   0  0  0  0  0  3  0  0  0  0  0  0
  -27.4670  -37.3050   24.7340 C   0  0  0  0  0  1  0  0  0  0  0  0
  -26.3780  -37.4620   23.7720 N   0  0  0  0  0  0  0  0  0  0  0  0
  -25.9610  -38.3780   23.9110 H   0  0  0  0  0  0  0  0  0  0  0  0
  1 12  2  0
  1  2  1  0
  3  1  1  0
  4  6  1  0
  5  4  1  0
  5  8  1  0
  6  9  1  0
  7  9  1  0
  7  2  1  0
  8 10  1  6
  8  3  1  0
  8  7  1  0
  9 11  1  1
 13  9  1  0
 14 13  1  0
 15 20  1  0
 16 17  1  0
 16 15  1  0
 18 17  1  0
 18 25  1  0
 18 19  1  0
 20 14  1  0
 20 19  1  0
 21 14  2  0
 22 23  2  0
 23 42  1  0
 24 23  1  0
 24 27  1  0
 25 26  1  0
 25 22  1  0
 26 24  2  0
 27 28  1  0
 28 29  2  0
 30 33  1  0
 30 29  1  0
 31 30  2  0
 32 31  1  0
 32 27  2  0
 33 34  1  0
 34 35  1  0
 35 36  2  0
 37 36  1  0
 37 41  1  0
 38 37  2  0
 39 34  2  0
 39 38  1  0
 40 39  1  0
 42 43  1  0
 43 46  1  0
 43 45  1  0
 44 42  2  0
 47 22  1  0
 47 48  1  0
 49 47  1  0
 50 12  1  0
 50 51  1  0
 52 51  1  0
 53 55  1  0
 53 52  1  0
 54 65  2  0
 55 60  1  0
 56 64  1  0
 56 66  1  0
 57 63  1  0
 57 59  1  0
 58 64  1  0
 59 60  2  0
 59 58  1  0
 61 55  2  0
 62 61  1  0
 62 57  2  0
 63 56  1  0
 64 54  1  0
 66 68  2  0
 67 66  1  0
 69 67  1  0
 70 79  2  0
 70 75  1  0
 71 67  1  0
 71 75  1  0
 72 71  1  0
 73 74  1  0
 73 72  1  0
 74 70  1  0
 75 76  2  0
 76 77  1  0
 78 77  2  0
 79 78  1  0
 80 54  1  0
 80 85  1  0
 80 81  1  0
 81 84  1  1
 81 82  1  0
 83 81  1  0
 85 88  1  0
 86 90  1  0
 86 85  1  0
 87 86  2  0
 90 89  1  0
 92 90  1  0
 92 93  1  0
 92 91  1  0
M  ISO  4  13 100  14 100  52 101  53 101
M  END
>  <TORSDO>  (19) 
F 20

>  <SCORE>  (19) 
-14.078

>  <name>  (19) 
18

>  <ligand_id>  (19) 
18

>  <original_smiles>  (19) 
[H]c1c([H])c([H])c2c(c1[H])C([H])([H])C([H])([H])C([H])([H])C2([H])N([H])C(=O)C1([H])N(C(=O)C([H])(N([H])C(=O)C([H])(N([H])C([H])([H])[H])C([H])([H])[H])C(C([H])([H])[H])(C([H])([H])[H])C([H])([H])[H])C([H])([H])c2c([H])c(OC([H])([H])C([H])([H])C([H])([H])N=C3C([H])([H])C4([H])C(C([H])([H])[H])(C([H])([H])C(=O)N5C([H])([H])C([H])([H])C([H])([H])C([H])(n6nc(-c7c([H])c([H])c(Oc8c([H])c([H])c(F)c([H])c8F)c([H])c7[H])c(C(=O)N([H])[H])c6N([H])[H])C5([H])[H])C([H])([H])C([H])([H])C([H])([H])C4(C([H])([H])[H])C3([H])[H])c([H])c([H])c2C1([H])[H]

>  <smiles>  (19) 
[H]c1c([H])c([H])c2c(c1[H])C([H])([H])C([H])([H])C([H])([H])C2([H])N([H])C(=O)C1([H])N(C(=O)C([H])(N([H])C(=O)C([H])(N([H])C([H])([H])[H])C([H])([H])[H])C(C([H])([H])[H])(C([H])([H])[H])C([H])([H])[H])C([H])([H])c2c([H])c(OC([H])([H])C([H])([H])C([H])([H])N=C3C([H])([H])C4([H])C(C([H])([H])[H])(C([H])([H])C(=O)N5C([H])([H])C([H])([H])C([H])([H])C([H])(n6nc(-c7c([H])c([H])c(Oc8c([H])c([H])c(F)c([H])c8F)c([H])c7[H])c(C(=O)N([H])[H])c6N([H])[H])C5([H])[H])C([H])([H])C([H])([H])C([H])([H])C4(C([H])([H])[H])C3([H])[H])c([H])c([H])c2C1([H])[H]

$$$$
19:0:0
     RDKit          3D

 91100  0  0  1  0  0  0  0  0999 V2000
  -26.6480  -21.5290   21.0400 C   0  0  0  0  0  2  0  0  0  0  0  0
  -27.8800  -23.8050   21.4500 C   0  0  0  0  0  2  0  0  0  0  0  0
  -26.7480  -23.0120   20.8400 C   0  0  0  0  0  3  0  0  0  0  0  0
  -27.3140  -22.0710   19.7890 C   0  0  0  0  0  3  0  0  0  0  0  0
  -28.9790  -23.8150   20.3760 C   0  0  0  0  0  3  0  0  0  0  0  0
  -28.8190  -22.2990   19.6750 C   0  0  0  0  0  3  0  0  0  0  0  0
  -29.5330  -21.0120   20.2440 N   0  0  0  0  0  4  0  0  0  0  0  0
  -29.0800  -20.8270   21.1250 H   0  0  0  0  0  0  0  0  0  0  0  0
  -30.4730  -21.2880   20.4750 H   0  0  0  0  0  0  0  0  0  0  0  0
  -28.4560  -19.3290   18.5690 C   0  0  0  0  0  1  0  0  0  0  0  0
  -29.6700  -19.6240   19.4870 C   0  0  0  0  0  3  0  0  0  0  0  0
  -30.2530  -18.2460   20.2600 C   0  0  0  0  0  2  0  0  0  0  0  0
  -29.9000  -16.6560   19.8530 C   0  0  0  0  0  2  0  0  0  0  0  0
  -30.8410  -15.3070   19.9850 C   0  0  0  0  0  0  0  0  0  0  0  0
  -30.7310  -12.9850   19.0470 C   0  0  0  0  0  2  0  0  0  0  0  0
  -29.7360  -12.9860   17.8570 C   0  0  0  0  0  2  0  0  0  0  0  0
  -28.2840  -12.7920   18.3340 C   0  0  0  0  0  2  0  0  0  0  0  0
  -27.9380  -13.6830   19.5510 C   0  0  0  0  0  3  0  0  0  0  0  0
  -29.0280  -13.6400   20.6370 C   0  0  0  0  0  2  0  0  0  0  0  0
  -30.2980  -14.0320   20.0070 N   0  0  0  0  0  0  0  0  0  0  0  0
  -32.0540  -15.4000   19.7660 O   0  0  0  0  0  0  0  0  0  0  0  0
  -25.6040  -14.2710   20.4170 C   0  0  0  0  0  0  0  0  0  0  0  0
  -24.5390  -13.4970   20.7960 C   0  0  0  0  0  0  0  0  0  0  0  0
  -24.9780  -12.1430   20.6830 C   0  0  0  0  0  0  0  0  0  0  0  0
  -26.6160  -13.3880   20.0900 N   0  0  0  0  0  0  0  0  0  0  0  0
  -26.2530  -12.0990   20.3140 N   0  0  0  0  0  0  0  0  0  0  0  0
  -24.2360  -10.8860   20.8410 C   0  0  0  0  0  0  0  0  0  0  0  0
  -24.6410   -9.8900   21.7570 C   0  0  0  0  0  3  0  0  0  0  0  0
  -23.8910   -8.7010   21.8970 C   0  0  0  0  0  3  0  0  0  0  0  0
  -22.7270   -8.5010   21.1190 C   0  0  0  0  0  0  0  0  0  0  0  0
  -22.3470   -9.4810   20.1850 C   0  0  0  0  0  3  0  0  0  0  0  0
  -23.0970  -10.6600   20.0440 C   0  0  0  0  0  3  0  0  0  0  0  0
  -21.9540   -7.3650   21.1670 O   0  0  0  0  0  0  0  0  0  0  0  0
  -21.8120   -6.6400   22.3230 C   0  0  0  0  0  0  0  0  0  0  0  0
  -21.2630   -7.2080   23.4930 C   0  0  0  0  0  3  0  0  0  0  0  0
  -21.0740   -6.4120   24.6400 C   0  0  0  0  0  3  0  0  0  0  0  0
  -21.4230   -5.0470   24.6170 C   0  0  0  0  0  0  0  0  0  0  0  0
  -21.9640   -4.4790   23.4500 C   0  0  0  0  0  3  0  0  0  0  0  0
  -22.1540   -5.2730   22.3050 C   0  0  0  0  0  0  0  0  0  0  0  0
  -22.6580   -4.7140   21.1790 F   0  0  0  0  0  0  0  0  0  0  0  0
  -21.2350   -4.2810   25.7150 F   0  0  0  0  0  0  0  0  0  0  0  0
  -23.1680  -13.9890   21.1500 C   0  0  0  0  0  0  0  0  0  0  0  0
  -22.4640  -13.2580   22.0110 N   0  0  0  0  0  0  0  0  0  0  0  0
  -22.7320  -15.0500   20.7050 O   0  0  0  0  0  0  0  0  0  0  0  0
  -22.8370  -12.3960   22.3790 H   0  0  0  0  0  0  0  0  0  0  0  0
  -21.5490  -13.5660   22.3080 H   0  0  0  0  0  0  0  0  0  0  0  0
  -25.7820  -15.6430   20.3050 N   0  0  0  0  0  0  0  0  0  0  0  0
  -25.0230  -16.2910   20.4830 H   0  0  0  0  0  0  0  0  0  0  0  0
  -26.6120  -16.0920   19.9380 H   0  0  0  0  0  0  0  0  0  0  0  0
  -28.7340  -25.2220   19.5260 C   0  0  0  0  0  2  0  0  0  0  0  0
  -28.6820  -26.6450   20.1180 O   0  0  0  0  0  0  0  0  0  0  0  0
  -24.7200  -31.9630   23.2800 C   0  0  0  0  0  0  0  0  0  0  0  0
  -27.5560  -27.5290   20.0660 C   0  0  0  0  0  0  0  0  0  0  0  0
  -23.6170  -30.5750   21.5680 C   0  0  0  0  0  3  0  0  0  0  0  0
  -25.1570  -29.1470   20.1040 C   0  0  0  0  0  0  0  0  0  0  0  0
  -26.1550  -30.9790   21.4600 C   0  0  0  0  0  2  0  0  0  0  0  0
  -26.3040  -29.6240   20.7440 C   0  0  0  0  0  0  0  0  0  0  0  0
  -27.5020  -28.8260   20.7120 C   0  0  0  0  0  3  0  0  0  0  0  0
  -26.3680  -27.1450   19.4000 C   0  0  0  0  0  3  0  0  0  0  0  0
  -25.1960  -27.9220   19.4250 C   0  0  0  0  0  3  0  0  0  0  0  0
  -23.8920  -29.9780   20.1700 C   0  0  0  0  0  2  0  0  0  0  0  0
  -24.8510  -31.1840   22.1650 N   0  0  0  0  0  0  0  0  0  0  0  0
  -23.6100  -32.1780   23.7900 O   0  0  0  0  0  0  0  0  0  0  0  0
  -22.9770  -29.4920   22.4650 C   0  0  0  0  0  0  0  0  0  0  0  0
  -21.6660  -29.2540   22.2930 N   0  0  0  0  0  0  0  0  0  0  0  0
  -23.6610  -28.8710   23.2840 O   0  0  0  0  0  0  0  0  0  0  0  0
  -21.1670  -29.8110   21.6110 H   0  0  0  0  0  0  0  0  0  0  0  0
  -18.3440  -27.8640   22.6590 C   0  0  0  0  0  0  0  0  0  0  0  0
  -20.8760  -28.2520   23.0130 C   0  0  0  0  0  3  0  0  0  0  0  0
  -21.0730  -26.8480   22.3940 C   0  0  0  0  0  2  0  0  0  0  0  0
  -20.0190  -26.5010   21.3400 C   0  0  0  0  0  2  0  0  0  0  0  0
  -18.6150  -26.5500   21.9470 C   0  0  0  0  0  2  0  0  0  0  0  0
  -19.4090  -28.6690   23.1490 C   0  0  0  0  0  0  0  0  0  0  0  0
  -19.1060  -29.8940   23.7770 C   0  0  0  0  0  3  0  0  0  0  0  0
  -17.7730  -30.3160   23.9300 C   0  0  0  0  0  3  0  0  0  0  0  0
  -16.7230  -29.5080   23.4620 C   0  0  0  0  0  3  0  0  0  0  0  0
  -17.0090  -28.2840   22.8290 C   0  0  0  0  0  3  0  0  0  0  0  0
  -25.9550  -32.6310   23.9560 C   0  0  0  0  0  3  0  0  0  0  0  0
  -25.6050  -34.0300   24.2510 N   0  0  0  0  0  0  0  0  0  0  0  0
  -25.9370  -35.0750   23.4800 C   0  0  0  0  0  0  0  0  0  0  0  0
  -26.6350  -34.9670   22.4690 O   0  0  0  0  0  0  0  0  0  0  0  0
  -24.9790  -34.1970   25.0260 H   0  0  0  0  0  0  0  0  0  0  0  0
  -24.1760  -36.8180   23.0590 C   0  0  0  0  0  1  0  0  0  0  0  0
  -25.4110  -36.4600   23.9000 C   0  0  0  0  0  3  0  0  0  0  0  0
  -27.4970  -37.4150   24.7670 C   0  0  0  0  0  1  0  0  0  0  0  0
  -26.4180  -37.5360   23.7920 N   0  0  0  0  0  0  0  0  0  0  0  0
  -25.9810  -38.4440   23.9170 H   0  0  0  0  0  0  0  0  0  0  0  0
  -26.4250  -31.8900   25.2660 C   0  0  1  0  0  0  0  0  0  0  0  0
  -25.2770  -31.6290   26.2690 C   0  0  0  0  0  1  0  0  0  0  0  0
  -27.0730  -30.5260   24.9280 C   0  0  0  0  0  1  0  0  0  0  0  0
  -27.5120  -32.7280   25.9800 C   0  0  0  0  0  1  0  0  0  0  0  0
  3  1  1  0
  3  2  1  0
  4  3  1  0
  4  1  1  0
  5 50  1  0
  5  2  1  0
  6  4  1  0
  6  7  1  0
  6  5  1  0
  7  9  1  0
  7  8  1  0
 11 10  1  0
 11  7  1  0
 11 12  1  0
 13 14  1  0
 13 12  1  0
 14 20  1  0
 15 20  1  0
 16 17  1  0
 16 15  1  0
 18 17  1  0
 18 25  1  0
 18 19  1  0
 20 19  1  0
 21 14  2  0
 22 23  2  0
 23 42  1  0
 24 23  1  0
 24 27  1  0
 25 26  1  0
 25 22  1  0
 26 24  2  0
 27 28  1  0
 28 29  2  0
 30 33  1  0
 30 29  1  0
 31 30  2  0
 32 31  1  0
 32 27  2  0
 33 34  1  0
 34 35  1  0
 35 36  2  0
 37 36  1  0
 37 41  1  0
 38 37  2  0
 39 34  2  0
 39 38  1  0
 40 39  1  0
 42 43  1  0
 43 46  1  0
 43 45  1  0
 44 42  2  0
 47 22  1  0
 47 48  1  0
 49 47  1  0
 50 51  1  0
 52 63  2  0
 53 51  1  0
 53 58  1  0
 54 62  1  0
 54 64  1  0
 55 61  1  0
 55 57  1  0
 56 62  1  0
 57 56  1  0
 58 57  2  0
 59 60  1  0
 59 53  2  0
 60 55  2  0
 61 54  1  0
 62 52  1  0
 64 66  2  0
 65 64  1  0
 67 65  1  0
 68 77  2  0
 68 73  1  0
 69 65  1  0
 69 73  1  0
 70 69  1  0
 71 72  1  0
 71 70  1  0
 72 68  1  0
 73 74  2  0
 74 75  1  0
 76 75  2  0
 77 76  1  0
 78 52  1  0
 78 79  1  0
 78 88  1  0
 79 82  1  0
 80 84  1  0
 80 79  1  0
 81 80  2  0
 84 83  1  0
 86 84  1  0
 86 87  1  0
 86 85  1  0
 88 91  1  1
 88 89  1  0
 90 88  1  0
M  ISO  4  13 100  14 100  50 101  51 101
M  END
>  <TORSDO>  (20) 
F 21

>  <SCORE>  (20) 
-11.475

>  <name>  (20) 
19

>  <ligand_id>  (20) 
19

>  <original_smiles>  (20) 
[H]c1c([H])c([H])c2c(c1[H])C([H])([H])C([H])([H])C([H])([H])C2([H])N([H])C(=O)C1([H])N(C(=O)C([H])(N([H])C(=O)C([H])(N([H])C([H])([H])[H])C([H])([H])[H])C(C([H])([H])[H])(C([H])([H])[H])C([H])([H])[H])C([H])([H])c2c([H])c(OC([H])([H])C3([H])C([H])([H])C4([H])C([H])([H])C4([H])C3([H])[N+]([H])([H])C([H])(C([H])([H])[H])C([H])([H])C([H])([H])C(=O)N3C([H])([H])C([H])([H])C([H])([H])C([H])(n4nc(-c5c([H])c([H])c(Oc6c([H])c([H])c(F)c([H])c6F)c([H])c5[H])c(C(=O)N([H])[H])c4N([H])[H])C3([H])[H])c([H])c([H])c2C1([H])[H]

>  <smiles>  (20) 
[H]c1c([H])c([H])c2c(c1[H])C([H])([H])C([H])([H])C([H])([H])C2([H])N([H])C(=O)C1([H])N(C(=O)C([H])(N([H])C(=O)C([H])(N([H])C([H])([H])[H])C([H])([H])[H])C(C([H])([H])[H])(C([H])([H])[H])C([H])([H])[H])C([H])([H])c2c([H])c(OC([H])([H])C3([H])C([H])([H])C4([H])C([H])([H])C4([H])C3([H])[N+]([H])([H])C([H])(C([H])([H])[H])C([H])([H])C([H])([H])C(=O)N3C([H])([H])C([H])([H])C([H])([H])C([H])(n4nc(-c5c([H])c([H])c(Oc6c([H])c([H])c(F)c([H])c6F)c([H])c5[H])c(C(=O)N([H])[H])c4N([H])[H])C3([H])[H])c([H])c([H])c2C1([H])[H]

$$$$
20:0:0
     RDKit          3D

 91100  0  0  1  0  0  0  0  0999 V2000
  -30.2800  -22.4710   20.3640 C   0  0  0  0  0  2  0  0  0  0  0  0
  -31.1930  -18.7120   19.6950 C   0  0  0  0  0  2  0  0  0  0  0  0
  -30.5890  -20.9170   20.6280 C   0  0  0  0  0  3  0  0  0  0  0  0
  -31.4390  -20.2290   19.5460 C   0  0  0  0  0  3  0  0  0  0  0  0
  -29.2980  -20.0560   20.6540 C   0  0  0  0  0  3  0  0  0  0  0  0
  -28.7580  -22.7350   20.5330 C   0  0  0  0  0  3  0  0  0  0  0  0
  -29.6940  -18.4400   19.9790 C   0  0  1  0  0  0  0  0  0  0  0  0
  -32.9260  -20.6040   19.6180 C   0  0  0  0  0  1  0  0  0  0  0  0
  -28.9310  -18.3300   18.6480 C   0  0  0  0  0  1  0  0  0  0  0  0
  -28.3400  -21.2330   20.1230 N   0  0  0  0  0  4  0  0  0  0  0  0
  -27.3940  -21.0450   20.4160 H   0  0  0  0  0  0  0  0  0  0  0  0
  -28.3460  -21.1880   19.1180 H   0  0  0  0  0  0  0  0  0  0  0  0
  -29.6680  -16.7830   20.6770 C   0  0  0  0  0  2  0  0  0  0  0  0
  -30.4190  -15.2520   20.2670 C   0  0  0  0  0  0  0  0  0  0  0  0
  -30.3890  -12.8110   19.3800 C   0  0  0  0  0  2  0  0  0  0  0  0
  -29.4620  -12.6570   18.1460 C   0  0  0  0  0  2  0  0  0  0  0  0
  -28.0100  -12.3970   18.5830 C   0  0  0  0  0  2  0  0  0  0  0  0
  -27.5760  -13.3440   19.7290 C   0  0  0  0  0  3  0  0  0  0  0  0
  -28.6280  -13.4520   20.8530 C   0  0  0  0  0  2  0  0  0  0  0  0
  -29.8750  -13.9380   20.2420 N   0  0  0  0  0  0  0  0  0  0  0  0
  -31.6100  -15.2590   19.9230 O   0  0  0  0  0  0  0  0  0  0  0  0
  -25.2040  -13.9030   20.4850 C   0  0  0  0  0  0  0  0  0  0  0  0
  -24.1440  -13.1260   20.8580 C   0  0  0  0  0  0  0  0  0  0  0  0
  -24.6130  -11.7760   20.8320 C   0  0  0  0  0  0  0  0  0  0  0  0
  -26.2470  -13.0280   20.2400 N   0  0  0  0  0  0  0  0  0  0  0  0
  -25.9040  -11.7430   20.5160 N   0  0  0  0  0  0  0  0  0  0  0  0
  -23.8870  -10.5140   21.0290 C   0  0  0  0  0  0  0  0  0  0  0  0
  -24.3260   -9.5430   21.9560 C   0  0  0  0  0  3  0  0  0  0  0  0
  -23.5980   -8.3480   22.1420 C   0  0  0  0  0  3  0  0  0  0  0  0
  -22.4150   -8.1150   21.4010 C   0  0  0  0  0  0  0  0  0  0  0  0
  -21.9940   -9.0740   20.4630 C   0  0  0  0  0  3  0  0  0  0  0  0
  -22.7230  -10.2600   20.2740 C   0  0  0  0  0  3  0  0  0  0  0  0
  -21.6580   -6.9720   21.4960 O   0  0  0  0  0  0  0  0  0  0  0  0
  -21.6280   -6.2220   22.6440 C   0  0  0  0  0  0  0  0  0  0  0  0
  -21.2330   -6.7710   23.8830 C   0  0  0  0  0  3  0  0  0  0  0  0
  -21.1500   -5.9470   25.0240 C   0  0  0  0  0  3  0  0  0  0  0  0
  -21.4530   -4.5760   24.9260 C   0  0  0  0  0  0  0  0  0  0  0  0
  -21.8410   -4.0260   23.6920 C   0  0  0  0  0  3  0  0  0  0  0  0
  -21.9250   -4.8470   22.5530 C   0  0  0  0  0  0  0  0  0  0  0  0
  -22.2790   -4.3070   21.3620 F   0  0  0  0  0  0  0  0  0  0  0  0
  -21.3660   -3.7830   26.0200 F   0  0  0  0  0  0  0  0  0  0  0  0
  -22.7470  -13.6030   21.1280 C   0  0  0  0  0  0  0  0  0  0  0  0
  -22.0210  -12.9110   21.9980 N   0  0  0  0  0  0  0  0  0  0  0  0
  -22.3100  -14.6260   20.6020 O   0  0  0  0  0  0  0  0  0  0  0  0
  -22.3880  -12.0840   22.4440 H   0  0  0  0  0  0  0  0  0  0  0  0
  -21.0830  -13.2120   22.2220 H   0  0  0  0  0  0  0  0  0  0  0  0
  -25.3660  -15.2740   20.3030 N   0  0  0  0  0  0  0  0  0  0  0  0
  -24.5990  -15.9280   20.4170 H   0  0  0  0  0  0  0  0  0  0  0  0
  -26.2150  -15.7130   19.9710 H   0  0  0  0  0  0  0  0  0  0  0  0
  -28.0180  -24.2850   19.9880 C   0  0  0  0  0  2  0  0  0  0  0  0
  -28.1930  -25.8840   20.3300 O   0  0  0  0  0  0  0  0  0  0  0  0
  -24.6300  -31.8480   23.2250 C   0  0  0  0  0  0  0  0  0  0  0  0
  -27.1810  -26.9710   20.2280 C   0  0  0  0  0  0  0  0  0  0  0  0
  -23.4340  -30.4460   21.5920 C   0  0  0  0  0  3  0  0  0  0  0  0
  -24.8810  -28.8390   20.1720 C   0  0  0  0  0  0  0  0  0  0  0  0
  -25.9990  -30.6590   21.4440 C   0  0  0  0  0  2  0  0  0  0  0  0
  -26.0670  -29.2490   20.7930 C   0  0  0  0  0  0  0  0  0  0  0  0
  -27.2100  -28.3340   20.8000 C   0  0  0  0  0  3  0  0  0  0  0  0
  -25.9690  -26.7120   19.5490 C   0  0  0  0  0  3  0  0  0  0  0  0
  -24.8560  -27.5910   19.5300 C   0  0  0  0  0  3  0  0  0  0  0  0
  -23.6610  -29.7590   20.2170 C   0  0  0  0  0  2  0  0  0  0  0  0
  -24.7090  -31.0110   22.1410 N   0  0  0  0  0  0  0  0  0  0  0  0
  -23.5420  -32.1410   23.7460 O   0  0  0  0  0  0  0  0  0  0  0  0
  -22.7390  -29.4550   22.5610 C   0  0  0  0  0  0  0  0  0  0  0  0
  -21.4090  -29.2950   22.4390 N   0  0  0  0  0  0  0  0  0  0  0  0
  -23.4050  -28.8300   23.3900 O   0  0  0  0  0  0  0  0  0  0  0  0
  -20.9260  -29.8510   21.7480 H   0  0  0  0  0  0  0  0  0  0  0  0
  -18.0230  -28.0980   22.9540 C   0  0  0  0  0  0  0  0  0  0  0  0
  -20.5830  -28.3640   23.2150 C   0  0  0  0  0  3  0  0  0  0  0  0
  -20.6840  -26.9280   22.6480 C   0  0  0  0  0  2  0  0  0  0  0  0
  -19.5810  -26.6010   21.6360 C   0  0  0  0  0  2  0  0  0  0  0  0
  -18.1990  -26.7470   22.2800 C   0  0  0  0  0  2  0  0  0  0  0  0
  -19.1420  -28.8640   23.3790 C   0  0  0  0  0  0  0  0  0  0  0  0
  -18.9210  -30.1250   23.9710 C   0  0  0  0  0  3  0  0  0  0  0  0
  -17.6150  -30.6230   24.1420 C   0  0  0  0  0  3  0  0  0  0  0  0
  -16.5120  -29.8550   23.7310 C   0  0  0  0  0  3  0  0  0  0  0  0
  -16.7160  -28.5950   23.1430 C   0  0  0  0  0  3  0  0  0  0  0  0
  -25.9040  -32.4900   23.8550 C   0  0  0  0  0  3  0  0  0  0  0  0
  -25.5870  -33.8900   24.1870 N   0  0  0  0  0  0  0  0  0  0  0  0
  -25.9150  -34.9500   23.4370 C   0  0  0  0  0  0  0  0  0  0  0  0
  -26.5780  -34.8530   22.4020 O   0  0  0  0  0  0  0  0  0  0  0  0
  -24.9950  -34.0380   24.9920 H   0  0  0  0  0  0  0  0  0  0  0  0
  -24.1820  -36.7500   23.1160 C   0  0  0  0  0  1  0  0  0  0  0  0
  -25.4330  -36.3390   23.9080 C   0  0  0  0  0  3  0  0  0  0  0  0
  -27.5780  -37.2250   24.7160 C   0  0  0  0  0  1  0  0  0  0  0  0
  -26.4640  -37.3940   23.7860 N   0  0  0  0  0  0  0  0  0  0  0  0
  -26.0590  -38.3130   23.9400 H   0  0  0  0  0  0  0  0  0  0  0  0
  -26.4100  -31.7280   25.1430 C   0  0  1  0  0  0  0  0  0  0  0  0
  -25.3090  -31.5030   26.2070 C   0  0  0  0  0  1  0  0  0  0  0  0
  -26.9900  -30.3440   24.7730 C   0  0  0  0  0  1  0  0  0  0  0  0
  -27.5590  -32.5240   25.8050 C   0  0  0  0  0  1  0  0  0  0  0  0
  1  6  1  0
  2  7  1  0
  3  1  1  0
  3  5  1  0
  4  8  1  0
  4  2  1  0
  4  3  1  0
  5 10  1  0
  6 50  1  0
  7  9  1  6
  7  5  1  0
  7 13  1  0
 10 11  1  0
 10  6  1  0
 12 10  1  0
 14 13  1  0
 15 20  1  0
 16 17  1  0
 16 15  1  0
 18 17  1  0
 18 25  1  0
 18 19  1  0
 20 14  1  0
 20 19  1  0
 21 14  2  0
 22 23  2  0
 23 42  1  0
 24 23  1  0
 24 27  1  0
 25 22  1  0
 25 26  1  0
 26 24  2  0
 27 28  1  0
 28 29  2  0
 30 33  1  0
 30 29  1  0
 31 30  2  0
 32 31  1  0
 32 27  2  0
 33 34  1  0
 34 35  1  0
 35 36  2  0
 37 36  1  0
 37 41  1  0
 38 37  2  0
 39 34  2  0
 39 38  1  0
 40 39  1  0
 42 43  1  0
 43 46  1  0
 43 45  1  0
 44 42  2  0
 47 48  1  0
 47 22  1  0
 49 47  1  0
 50 51  1  0
 52 63  2  0
 53 51  1  0
 53 58  1  0
 54 62  1  0
 54 64  1  0
 55 61  1  0
 55 57  1  0
 56 62  1  0
 57 58  2  0
 57 56  1  0
 59 53  2  0
 60 59  1  0
 60 55  2  0
 61 54  1  0
 62 52  1  0
 64 66  2  0
 65 64  1  0
 67 65  1  0
 68 77  2  0
 68 73  1  0
 69 65  1  0
 69 73  1  0
 70 69  1  0
 71 72  1  0
 71 70  1  0
 72 68  1  0
 73 74  2  0
 74 75  1  0
 76 75  2  0
 77 76  1  0
 78 52  1  0
 78 79  1  0
 78 88  1  0
 79 82  1  0
 80 84  1  0
 80 79  1  0
 81 80  2  0
 84 83  1  0
 86 84  1  0
 86 87  1  0
 86 85  1  0
 88 91  1  1
 88 89  1  0
 90 88  1  0
M  ISO  4  13 100  14 100  50 101  51 101
M  END
>  <TORSDO>  (21) 
F 18

>  <SCORE>  (21) 
-16.356

>  <name>  (21) 
20

>  <ligand_id>  (21) 
20

>  <original_smiles>  (21) 
[H]c1c([H])c([H])c2c(c1[H])C([H])([H])C([H])([H])C([H])([H])C2([H])N([H])C(=O)C1([H])N(C(=O)C([H])(N([H])C(=O)C([H])(N([H])C([H])([H])[H])C([H])([H])[H])C(C([H])([H])[H])(C([H])([H])[H])C([H])([H])[H])C([H])([H])c2c([H])c(OC([H])([H])C3([H])C([H])([H])C4([H])C([H])(C([H])([H])[H])C([H])([H])C(C([H])([H])[H])(C([H])([H])C(=O)N5C([H])([H])C([H])([H])C([H])([H])C([H])(n6nc(-c7c([H])c([H])c(Oc8c([H])c([H])c(F)c([H])c8F)c([H])c7[H])c(C(=O)N([H])[H])c6N([H])[H])C5([H])[H])C4([H])[N+]3([H])[H])c([H])c([H])c2C1([H])[H]

>  <smiles>  (21) 
[H]c1c([H])c([H])c2c(c1[H])C([H])([H])C([H])([H])C([H])([H])C2([H])N([H])C(=O)C1([H])N(C(=O)C([H])(N([H])C(=O)C([H])(N([H])C([H])([H])[H])C([H])([H])[H])C(C([H])([H])[H])(C([H])([H])[H])C([H])([H])[H])C([H])([H])c2c([H])c(OC([H])([H])C3([H])C([H])([H])C4([H])C([H])(C([H])([H])[H])C([H])([H])C(C([H])([H])[H])(C([H])([H])C(=O)N5C([H])([H])C([H])([H])C([H])([H])C([H])(n6nc(-c7c([H])c([H])c(Oc8c([H])c([H])c(F)c([H])c8F)c([H])c7[H])c(C(=O)N([H])[H])c6N([H])[H])C5([H])[H])C4([H])[N+]3([H])[H])c([H])c([H])c2C1([H])[H]

$$$$
21:0:0
     RDKit          3D

 91101  0  0  1  0  0  0  0  0999 V2000
  -28.7590  -21.1710   19.9900 C   0  0  0  0  0  3  0  0  0  0  0  0
  -26.4440  -19.4850   18.5100 C   0  0  0  0  0  2  0  0  0  0  0  0
  -25.8270  -20.8720   18.7030 C   0  0  0  0  0  2  0  0  0  0  0  0
  -27.3380  -20.9720   16.7350 C   0  0  0  0  0  2  0  0  0  0  0  0
  -27.7190  -19.9310   17.8070 C   0  0  2  0  0  0  0  0  0  0  0  0
  -26.9440  -21.6740   18.0480 C   0  0  1  0  0  0  0  0  0  0  0  0
  -28.3400  -21.1700   18.5060 C   0  0  0  0  0  3  0  0  0  0  0  0
  -29.7720  -19.8790   20.1780 N   0  0  0  0  0  4  0  0  0  0  0  0
  -30.2430  -19.7760   19.2950 H   0  0  0  0  0  0  0  0  0  0  0  0
  -30.4880  -20.2140   20.8020 H   0  0  0  0  0  0  0  0  0  0  0  0
  -29.4890  -18.3440   20.7240 C   0  0  0  0  0  2  0  0  0  0  0  0
  -29.8080  -16.7720   19.9690 C   0  0  0  0  0  2  0  0  0  0  0  0
  -30.6250  -15.2930   20.3790 C   0  0  0  0  0  0  0  0  0  0  0  0
  -30.6530  -12.8120   19.6800 C   0  0  0  0  0  2  0  0  0  0  0  0
  -29.7880  -12.5750   18.4160 C   0  0  0  0  0  2  0  0  0  0  0  0
  -28.3090  -12.3480   18.7860 C   0  0  0  0  0  2  0  0  0  0  0  0
  -27.8130  -13.3660   19.8450 C   0  0  0  0  0  3  0  0  0  0  0  0
  -28.8050  -13.5480   21.0080 C   0  0  0  0  0  2  0  0  0  0  0  0
  -30.0830  -13.9840   20.4270 N   0  0  0  0  0  0  0  0  0  0  0  0
  -31.8620  -15.2910   20.3130 O   0  0  0  0  0  0  0  0  0  0  0  0
  -25.4270  -13.9680   20.5120 C   0  0  0  0  0  0  0  0  0  0  0  0
  -24.3400  -13.2090   20.8460 C   0  0  0  0  0  0  0  0  0  0  0  0
  -24.7880  -11.8520   20.8450 C   0  0  0  0  0  0  0  0  0  0  0  0
  -26.4630  -13.0760   20.3100 N   0  0  0  0  0  0  0  0  0  0  0  0
  -26.0900  -11.7970   20.5820 N   0  0  0  0  0  0  0  0  0  0  0  0
  -24.0370  -10.6020   21.0170 C   0  0  0  0  0  0  0  0  0  0  0  0
  -24.4330   -9.6220   21.9550 C   0  0  0  0  0  3  0  0  0  0  0  0
  -23.6820   -8.4390   22.1130 C   0  0  0  0  0  3  0  0  0  0  0  0
  -22.5210   -8.2240   21.3340 C   0  0  0  0  0  0  0  0  0  0  0  0
  -22.1440   -9.1920   20.3860 C   0  0  0  0  0  3  0  0  0  0  0  0
  -22.8960  -10.3670   20.2240 C   0  0  0  0  0  3  0  0  0  0  0  0
  -21.7420   -7.0950   21.4030 O   0  0  0  0  0  0  0  0  0  0  0  0
  -21.6740   -6.3360   22.5440 C   0  0  0  0  0  0  0  0  0  0  0  0
  -21.2660   -6.8840   23.7800 C   0  0  0  0  0  3  0  0  0  0  0  0
  -21.1420   -6.0550   24.9120 C   0  0  0  0  0  3  0  0  0  0  0  0
  -21.4160   -4.6770   24.8110 C   0  0  0  0  0  0  0  0  0  0  0  0
  -21.8180   -4.1280   23.5800 C   0  0  0  0  0  3  0  0  0  0  0  0
  -21.9430   -4.9550   22.4500 C   0  0  0  0  0  0  0  0  0  0  0  0
  -22.3100   -4.4170   21.2610 F   0  0  0  0  0  0  0  0  0  0  0  0
  -21.2900   -3.8790   25.8970 F   0  0  0  0  0  0  0  0  0  0  0  0
  -22.9400  -13.7060   21.0560 C   0  0  0  0  0  0  0  0  0  0  0  0
  -22.1740  -13.0380   21.9090 N   0  0  0  0  0  0  0  0  0  0  0  0
  -22.5350  -14.7260   20.5010 O   0  0  0  0  0  0  0  0  0  0  0  0
  -22.5140  -12.2120   22.3790 H   0  0  0  0  0  0  0  0  0  0  0  0
  -21.2330  -13.3560   22.0950 H   0  0  0  0  0  0  0  0  0  0  0  0
  -25.6170  -15.3350   20.3330 N   0  0  0  0  0  0  0  0  0  0  0  0
  -24.8590  -16.0050   20.4140 H   0  0  0  0  0  0  0  0  0  0  0  0
  -26.4820  -15.7570   20.0190 H   0  0  0  0  0  0  0  0  0  0  0  0
  -29.0540  -22.8770   20.4200 C   0  0  0  0  0  3  0  0  0  0  0  0
  -28.1080  -24.3610   20.1460 C   0  0  0  0  0  3  0  0  0  0  0  0
  -28.3460  -25.9510   20.4130 O   0  0  0  0  0  0  0  0  0  0  0  0
  -24.6250  -31.8430   23.2310 C   0  0  0  0  0  0  0  0  0  0  0  0
  -27.3190  -27.0130   20.3200 C   0  0  0  0  0  0  0  0  0  0  0  0
  -23.4930  -30.4260   21.5660 C   0  0  0  0  0  3  0  0  0  0  0  0
  -25.0000  -28.8380   20.1960 C   0  0  0  0  0  0  0  0  0  0  0  0
  -26.0590  -30.6750   21.4950 C   0  0  0  0  0  2  0  0  0  0  0  0
  -26.1630  -29.2690   20.8460 C   0  0  0  0  0  0  0  0  0  0  0  0
  -27.3210  -28.3760   20.8840 C   0  0  0  0  0  3  0  0  0  0  0  0
  -26.1280  -26.7240   19.6220 C   0  0  0  0  0  3  0  0  0  0  0  0
  -25.0040  -27.5850   19.5660 C   0  0  0  0  0  3  0  0  0  0  0  0
  -23.7690  -29.7390   20.2010 C   0  0  0  0  0  2  0  0  0  0  0  0
  -24.7450  -31.0070   22.1510 N   0  0  0  0  0  0  0  0  0  0  0  0
  -23.5170  -32.1250   23.7170 O   0  0  0  0  0  0  0  0  0  0  0  0
  -22.7830  -29.4260   22.5130 C   0  0  0  0  0  0  0  0  0  0  0  0
  -21.4530  -29.2740   22.3700 N   0  0  0  0  0  0  0  0  0  0  0  0
  -23.4330  -28.7870   23.3430 O   0  0  0  0  0  0  0  0  0  0  0  0
  -20.9840  -29.8370   21.6740 H   0  0  0  0  0  0  0  0  0  0  0  0
  -18.0460  -28.1430   22.8740 C   0  0  0  0  0  0  0  0  0  0  0  0
  -20.6130  -28.3390   23.1240 C   0  0  0  0  0  3  0  0  0  0  0  0
  -20.6750  -26.9200   22.5120 C   0  0  0  0  0  2  0  0  0  0  0  0
  -19.5570  -26.6510   21.5000 C   0  0  0  0  0  2  0  0  0  0  0  0
  -18.1850  -26.8100   22.1580 C   0  0  0  0  0  2  0  0  0  0  0  0
  -19.1860  -28.8680   23.3130 C   0  0  0  0  0  0  0  0  0  0  0  0
  -18.9990  -30.1160   23.9460 C   0  0  0  0  0  3  0  0  0  0  0  0
  -17.7090  -30.6400   24.1420 C   0  0  0  0  0  3  0  0  0  0  0  0
  -16.5840  -29.9120   23.7200 C   0  0  0  0  0  3  0  0  0  0  0  0
  -16.7520  -28.6650   23.0920 C   0  0  0  0  0  3  0  0  0  0  0  0
  -25.8710  -32.4990   23.8990 C   0  0  0  0  0  3  0  0  0  0  0  0
  -25.5400  -33.9030   24.1940 N   0  0  0  0  0  0  0  0  0  0  0  0
  -25.9030  -34.9500   23.4420 C   0  0  0  0  0  0  0  0  0  0  0  0
  -26.6160  -34.8370   22.4410 O   0  0  0  0  0  0  0  0  0  0  0  0
  -24.9090  -34.0660   24.9660 H   0  0  0  0  0  0  0  0  0  0  0  0
  -24.1840  -36.7360   23.0090 C   0  0  0  0  0  1  0  0  0  0  0  0
  -25.3980  -36.3460   23.8650 C   0  0  0  0  0  3  0  0  0  0  0  0
  -27.5040  -37.2450   24.7520 C   0  0  0  0  0  1  0  0  0  0  0  0
  -26.4320  -37.4010   23.7720 N   0  0  0  0  0  0  0  0  0  0  0  0
  -26.0200  -38.3200   23.9000 H   0  0  0  0  0  0  0  0  0  0  0  0
  -26.3290  -31.7590   25.2190 C   0  0  1  0  0  0  0  0  0  0  0  0
  -25.1870  -31.5480   26.2390 C   0  0  0  0  0  1  0  0  0  0  0  0
  -26.9290  -30.3720   24.8950 C   0  0  0  0  0  1  0  0  0  0  0  0
  -27.4500  -32.5690   25.9100 C   0  0  0  0  0  1  0  0  0  0  0  0
  1  8  1  0
  1 49  1  0
  2  3  1  0
  5  4  1  6
  5  6  1  0
  5  7  1  0
  5  2  1  0
  6  4  1  6
  6  7  1  0
  6  3  1  0
  7  1  1  0
  8 11  1  0
  8 10  1  0
  9  8  1  0
 12 13  1  0
 12 11  1  0
 13 19  1  0
 14 19  1  0
 15 16  1  0
 15 14  1  0
 17 16  1  0
 17 24  1  0
 17 18  1  0
 19 18  1  0
 20 13  2  0
 21 22  2  0
 22 41  1  0
 23 22  1  0
 23 26  1  0
 24 21  1  0
 24 25  1  0
 25 23  2  0
 26 27  1  0
 27 28  2  0
 29 32  1  0
 29 28  1  0
 30 29  2  0
 31 30  1  0
 31 26  2  0
 32 33  1  0
 33 34  1  0
 34 35  2  0
 36 35  1  0
 36 40  1  0
 37 36  2  0
 38 33  2  0
 38 37  1  0
 39 38  1  0
 41 42  1  0
 42 45  1  0
 42 44  1  0
 43 41  2  0
 46 47  1  0
 46 21  1  0
 48 46  1  0
 50 51  1  0
 50 49  2  0
 52 63  2  0
 53 51  1  0
 53 58  1  0
 54 62  1  0
 54 64  1  0
 55 61  1  0
 55 57  1  0
 56 62  1  0
 57 58  2  0
 57 56  1  0
 59 53  2  0
 60 59  1  0
 60 55  2  0
 61 54  1  0
 62 52  1  0
 64 66  2  0
 65 64  1  0
 67 65  1  0
 68 77  2  0
 68 73  1  0
 69 65  1  0
 69 73  1  0
 70 69  1  0
 71 72  1  0
 71 70  1  0
 72 68  1  0
 73 74  2  0
 74 75  1  0
 76 75  2  0
 77 76  1  0
 78 52  1  0
 78 79  1  0
 78 88  1  0
 79 82  1  0
 80 84  1  0
 80 79  1  0
 81 80  2  0
 84 83  1  0
 86 84  1  0
 86 87  1  0
 86 85  1  0
 88 91  1  1
 88 89  1  0
 90 88  1  0
M  ISO  4  12 100  13 100  50 101  51 101
M  END
>  <TORSDO>  (22) 
F 22

>  <SCORE>  (22) 
-13.793

>  <name>  (22) 
21

>  <ligand_id>  (22) 
21

>  <original_smiles>  (22) 
[H]c1c([H])c([H])c2c(c1[H])C([H])([H])C([H])([H])C([H])([H])C2([H])N([H])C(=O)C1([H])N(C(=O)C([H])(N([H])C(=O)C([H])(N([H])C([H])([H])[H])C([H])([H])[H])C(C([H])([H])[H])(C([H])([H])[H])C([H])([H])[H])C([H])([H])c2c([H])c(OC([H])([H])C([H])([H])C([H])(C3([H])C4([H])C([H])([H])C([H])([H])C3([H])C4([H])[H])[N+]([H])([H])C([H])([H])C([H])([H])C(=O)N3C([H])([H])C([H])([H])C([H])([H])C([H])(n4nc(-c5c([H])c([H])c(Oc6c([H])c([H])c(F)c([H])c6F)c([H])c5[H])c(C(=O)N([H])[H])c4N([H])[H])C3([H])[H])c([H])c([H])c2C1([H])[H]

>  <smiles>  (22) 
[H]c1c([H])c([H])c2c(c1[H])C([H])([H])C([H])([H])C([H])([H])C2([H])N([H])C(=O)C1([H])N(C(=O)C([H])(N([H])C(=O)C([H])(N([H])C([H])([H])[H])C([H])([H])[H])C(C([H])([H])[H])(C([H])([H])[H])C([H])([H])[H])C([H])([H])c2c([H])c(OC([H])([H])C([H])([H])C([H])(C3([H])C4([H])C([H])([H])C([H])([H])C3([H])C4([H])[H])[N+]([H])([H])C([H])([H])C([H])([H])C(=O)N3C([H])([H])C([H])([H])C([H])([H])C([H])(n4nc(-c5c([H])c([H])c(Oc6c([H])c([H])c(F)c([H])c6F)c([H])c5[H])c(C(=O)N([H])[H])c4N([H])[H])C3([H])[H])c([H])c([H])c2C1([H])[H]

$$$$
22:0:0
     RDKit          3D

 99108  0  0  1  0  0  0  0  0999 V2000
  -27.8070  -21.6860   18.2900 C   0  0  0  0  0  2  0  0  0  0  0  0
  -27.6710  -21.3750   19.7760 C   0  0  0  0  0  2  0  0  0  0  0  0
  -29.2850  -22.0360   18.3410 C   0  0  0  0  0  3  0  0  0  0  0  0
  -29.5130  -23.0700   19.5290 C   0  0  0  0  0  3  0  0  0  0  0  0
  -29.1220  -21.6860   20.1820 C   0  0  2  0  0  0  0  0  0  0  0  0
  -30.0460  -20.9020   19.1470 C   0  0  2  0  0  0  0  0  0  0  0  0
  -29.3110  -21.5670   21.6890 C   0  0  0  0  0  1  0  0  0  0  0  0
  -31.5820  -20.9770   19.2570 C   0  0  0  0  0  1  0  0  0  0  0  0
  -29.7410  -19.3890   18.8790 N   0  0  0  0  0  0  0  0  0  0  0  0
  -28.8160  -19.2460   18.4770 H   0  0  0  0  0  0  0  0  0  0  0  0
  -30.6540  -18.1640   18.7110 C   0  0  0  0  0  2  0  0  0  0  0  0
  -30.5290  -17.0100   19.8660 C   0  0  0  0  0  3  0  0  0  0  0  0
  -31.0510  -17.7250   21.0610 N   0  0  0  0  0  4  0  0  0  0  0  0
  -31.2220  -17.0040   21.7420 H   0  0  0  0  0  0  0  0  0  0  0  0
  -31.9420  -18.1160   20.8020 H   0  0  0  0  0  0  0  0  0  0  0  0
  -30.9880  -18.9380   23.1580 C   0  0  0  0  0  1  0  0  0  0  0  0
  -28.7900  -18.4850   21.9220 C   0  0  0  0  0  1  0  0  0  0  0  0
  -30.3020  -18.7720   21.7890 C   0  0  0  0  0  3  0  0  0  0  0  0
  -31.3050  -15.5240   19.9640 C   0  0  0  0  0  3  0  0  0  0  0  0
  -31.2880  -14.3070   18.8850 C   0  0  0  0  0  0  0  0  0  0  0  0
  -30.5130  -12.1390   17.8390 C   0  0  0  0  0  2  0  0  0  0  0  0
  -29.3490  -12.3440   16.8480 C   0  0  0  0  0  2  0  0  0  0  0  0
  -27.9890  -12.3770   17.5640 C   0  0  0  0  0  2  0  0  0  0  0  0
  -28.0200  -13.2420   18.8460 C   0  0  0  0  0  3  0  0  0  0  0  0
  -29.2610  -12.9600   19.7060 C   0  0  0  0  0  2  0  0  0  0  0  0
  -30.4530  -13.2010   18.8800 N   0  0  0  0  0  0  0  0  0  0  0  0
  -32.1940  -14.3340   18.0470 O   0  0  0  0  0  0  0  0  0  0  0  0
  -26.0370  -14.1020   20.2310 C   0  0  0  0  0  0  0  0  0  0  0  0
  -24.9540  -13.4610   20.7790 C   0  0  0  0  0  0  0  0  0  0  0  0
  -25.1360  -12.0720   20.5060 C   0  0  0  0  0  0  0  0  0  0  0  0
  -26.7940  -13.1060   19.6290 N   0  0  0  0  0  0  0  0  0  0  0  0
  -26.2810  -11.8700   19.8640 N   0  0  0  0  0  0  0  0  0  0  0  0
  -24.2560  -10.9200   20.7560 C   0  0  0  0  0  0  0  0  0  0  0  0
  -24.6800   -9.8000   21.5090 C   0  0  0  0  0  3  0  0  0  0  0  0
  -23.7980   -8.7210   21.7440 C   0  0  0  0  0  3  0  0  0  0  0  0
  -22.4800   -8.7620   21.2290 C   0  0  0  0  0  0  0  0  0  0  0  0
  -22.0710   -9.8670   20.4600 C   0  0  0  0  0  3  0  0  0  0  0  0
  -22.9530  -10.9340   20.2190 C   0  0  0  0  0  3  0  0  0  0  0  0
  -21.5660   -7.7440   21.3810 O   0  0  0  0  0  0  0  0  0  0  0  0
  -21.5600   -6.9480   22.4960 C   0  0  0  0  0  0  0  0  0  0  0  0
  -21.4570   -7.4900   23.7970 C   0  0  0  0  0  3  0  0  0  0  0  0
  -21.3890   -6.6350   24.9150 C   0  0  0  0  0  3  0  0  0  0  0  0
  -21.4110   -5.2390   24.7360 C   0  0  0  0  0  0  0  0  0  0  0  0
  -21.4970   -4.6960   23.4400 C   0  0  0  0  0  3  0  0  0  0  0  0
  -21.5720   -5.5480   22.3250 C   0  0  0  0  0  0  0  0  0  0  0  0
  -21.6460   -5.0220   21.0810 F   0  0  0  0  0  0  0  0  0  0  0  0
  -21.3250   -4.4150   25.8050 F   0  0  0  0  0  0  0  0  0  0  0  0
  -23.7780  -14.1170   21.4400 C   0  0  0  0  0  0  0  0  0  0  0  0
  -23.2240  -13.4820   22.4690 N   0  0  0  0  0  0  0  0  0  0  0  0
  -23.3710  -15.2170   21.0810 O   0  0  0  0  0  0  0  0  0  0  0  0
  -23.5590  -12.5810   22.7780 H   0  0  0  0  0  0  0  0  0  0  0  0
  -22.4420  -13.9080   22.9500 H   0  0  0  0  0  0  0  0  0  0  0  0
  -26.4470  -15.4310   20.1770 N   0  0  0  0  0  0  0  0  0  0  0  0
  -25.9710  -16.1970   20.6450 H   0  0  0  0  0  0  0  0  0  0  0  0
  -27.3000  -15.7200   19.7210 H   0  0  0  0  0  0  0  0  0  0  0  0
  -31.9210  -13.5770   21.7840 C   0  0  0  0  0  1  0  0  0  0  0  0
  -31.3360  -14.9830   21.4660 C   0  0  0  0  0  2  0  0  0  0  0  0
  -28.5640  -24.3700   19.8080 C   0  0  0  0  0  2  0  0  0  0  0  0
  -28.9570  -25.7450   20.3020 O   0  0  0  0  0  0  0  0  0  0  0  0
  -27.7140  -31.2120   25.0160 C   0  0  0  0  0  0  0  0  0  0  0  0
  -28.0760  -26.4280   21.1870 C   0  0  0  0  0  0  0  0  0  0  0  0
  -26.2270  -29.2490   25.1320 C   0  0  0  0  0  3  0  0  0  0  0  0
  -26.3450  -27.6330   23.1490 C   0  0  0  0  0  0  0  0  0  0  0  0
  -27.3430  -29.9000   22.9110 C   0  0  0  0  0  2  0  0  0  0  0  0
  -27.2980  -28.4250   22.5000 C   0  0  0  0  0  0  0  0  0  0  0  0
  -28.1600  -27.8300   21.5150 C   0  0  0  0  0  3  0  0  0  0  0  0
  -27.0510  -25.7050   21.8480 C   0  0  0  0  0  3  0  0  0  0  0  0
  -26.2130  -26.2820   22.8160 C   0  0  0  0  0  3  0  0  0  0  0  0
  -25.4590  -28.2820   24.1950 C   0  0  0  0  0  2  0  0  0  0  0  0
  -27.1450  -30.1560   24.3690 N   0  0  0  0  0  0  0  0  0  0  0  0
  -27.4740  -31.4480   26.2100 O   0  0  0  0  0  0  0  0  0  0  0  0
  -26.9530  -28.4310   26.2250 C   0  0  0  0  0  0  0  0  0  0  0  0
  -26.3000  -28.2530   27.3860 N   0  0  0  0  0  0  0  0  0  0  0  0
  -28.0700  -27.9530   26.0140 O   0  0  0  0  0  0  0  0  0  0  0  0
  -25.3940  -28.6840   27.4880 H   0  0  0  0  0  0  0  0  0  0  0  0
  -25.6180  -27.4240   30.8450 C   0  0  0  0  0  0  0  0  0  0  0  0
  -26.7810  -27.4840   28.5360 C   0  0  0  0  0  3  0  0  0  0  0  0
  -26.3870  -25.9930   28.4150 C   0  0  0  0  0  2  0  0  0  0  0  0
  -25.0670  -25.6610   29.1150 C   0  0  0  0  0  2  0  0  0  0  0  0
  -25.1500  -25.9990   30.6060 C   0  0  0  0  0  2  0  0  0  0  0  0
  -26.3690  -28.1280   29.8660 C   0  0  0  0  0  0  0  0  0  0  0  0
  -26.7520  -29.4620   30.1270 C   0  0  0  0  0  3  0  0  0  0  0  0
  -26.3940  -30.0920   31.3330 C   0  0  0  0  0  3  0  0  0  0  0  0
  -25.6580  -29.3860   32.3020 C   0  0  0  0  0  3  0  0  0  0  0  0
  -25.2800  -28.0540   32.0600 C   0  0  0  0  0  3  0  0  0  0  0  0
  -28.6800  -32.1890   24.2750 C   0  0  0  0  0  3  0  0  0  0  0  0
  -28.2710  -33.5600   24.6140 N   0  0  0  0  0  0  0  0  0  0  0  0
  -27.6120  -34.3840   23.7870 C   0  0  0  0  0  0  0  0  0  0  0  0
  -27.3450  -34.0880   22.6200 O   0  0  0  0  0  0  0  0  0  0  0  0
  -28.4210  -33.8600   25.5660 H   0  0  0  0  0  0  0  0  0  0  0  0
  -25.6740  -35.7470   24.6300 C   0  0  0  0  0  1  0  0  0  0  0  0
  -27.1850  -35.7540   24.3460 C   0  0  0  0  0  3  0  0  0  0  0  0
  -28.9530  -37.1420   23.3510 C   0  0  0  0  0  1  0  0  0  0  0  0
  -27.5190  -36.8850   23.4520 N   0  0  0  0  0  0  0  0  0  0  0  0
  -27.0680  -37.7380   23.7720 H   0  0  0  0  0  0  0  0  0  0  0  0
  -30.1980  -31.9590   24.6390 C   0  0  1  0  0  0  0  0  0  0  0  0
  -30.4570  -31.8500   26.1600 C   0  0  0  0  0  1  0  0  0  0  0  0
  -30.7350  -30.6660   23.9780 C   0  0  0  0  0  1  0  0  0  0  0  0
  -31.0540  -33.1270   24.0930 C   0  0  0  0  0  1  0  0  0  0  0  0
  1  2  1  0
  2  5  1  0
  3  1  1  0
  3  6  1  0
  3  4  1  0
  4 58  1  0
  4  5  1  0
  5  7  1  1
  6  8  1  1
  6  5  1  0
  9  6  1  0
 10  9  1  0
 11  9  1  0
 12 11  1  0
 12 19  1  0
 12 13  1  0
 13 14  1  0
 13 18  1  0
 15 13  1  0
 18 17  1  0
 18 16  1  0
 19 57  1  0
 20 19  1  0
 21 26  1  0
 22 23  1  0
 22 21  1  0
 24 23  1  0
 24 31  1  0
 24 25  1  0
 26 20  1  0
 26 25  1  0
 27 20  2  0
 28 29  2  0
 29 48  1  0
 30 33  1  0
 30 29  1  0
 31 32  1  0
 31 28  1  0
 32 30  2  0
 33 34  1  0
 34 35  2  0
 36 39  1  0
 36 35  1  0
 37 36  2  0
 38 37  1  0
 38 33  2  0
 39 40  1  0
 40 41  1  0
 41 42  2  0
 43 42  1  0
 43 47  1  0
 44 43  2  0
 45 40  2  0
 45 44  1  0
 46 45  1  0
 48 49  1  0
 49 51  1  0
 49 52  1  0
 50 48  2  0
 53 28  1  0
 53 54  1  0
 55 53  1  0
 57 56  1  0
 58 59  1  0
 59 61  1  0
 60 71  2  0
 61 66  2  0
 61 67  1  0
 62 72  1  0
 63 69  1  0
 64 70  1  0
 65 64  1  0
 65 63  2  0
 66 65  1  0
 67 68  2  0
 68 63  1  0
 69 62  1  0
 70 60  1  0
 70 62  1  0
 72 73  1  0
 73 75  1  0
 74 72  2  0
 76 85  1  0
 77 73  1  0
 77 81  1  0
 78 77  1  0
 78 79  1  0
 79 80  1  0
 80 76  1  0
 81 82  1  0
 81 76  2  0
 82 83  2  0
 83 84  1  0
 85 84  2  0
 86 87  1  0
 86 96  1  0
 86 60  1  0
 87 90  1  0
 88 92  1  0
 88 87  1  0
 89 88  2  0
 92 91  1  0
 93 94  1  0
 94 95  1  0
 94 92  1  0
 96 97  1  1
 98 96  1  0
 99 96  1  0
M  ISO  4  19 100  20 100  58 101  59 101
M  END
>  <TORSDO>  (23) 
F 24

>  <SCORE>  (23) 
-5.185

>  <name>  (23) 
22

>  <ligand_id>  (23) 
22

>  <original_smiles>  (23) 
[H]c1c([H])c([H])c2c(c1[H])C([H])([H])C([H])([H])C([H])([H])C2([H])N([H])C(=O)C1([H])N(C(=O)C([H])(N([H])C(=O)C([H])(N([H])C([H])([H])[H])C([H])([H])[H])C(C([H])([H])[H])(C([H])([H])[H])C([H])([H])[H])C([H])([H])c2c([H])c(OC([H])([H])C3([H])C4([H])C([H])([H])C([H])([H])C3(C([H])([H])[H])C4(N([H])C([H])([H])C([H])(C([H])(C(=O)N3C([H])([H])C([H])([H])C([H])([H])C([H])(n4nc(-c5c([H])c([H])c(Oc6c([H])c([H])c(F)c([H])c6F)c([H])c5[H])c(C(=O)N([H])[H])c4N([H])[H])C3([H])[H])C([H])([H])C([H])([H])[H])[N+]([H])([H])C([H])(C([H])([H])[H])C([H])([H])[H])C([H])([H])[H])c([H])c([H])c2C1([H])[H]

>  <smiles>  (23) 
[H]c1c([H])c([H])c2c(c1[H])C([H])([H])C([H])([H])C([H])([H])C2([H])N([H])C(=O)C1([H])N(C(=O)C([H])(N([H])C(=O)C([H])(N([H])C([H])([H])[H])C([H])([H])[H])C(C([H])([H])[H])(C([H])([H])[H])C([H])([H])[H])C([H])([H])c2c([H])c(OC([H])([H])C3([H])C4([H])C([H])([H])C([H])([H])C3(C([H])([H])[H])C4(N([H])C([H])([H])C([H])(C([H])(C(=O)N3C([H])([H])C([H])([H])C([H])([H])C([H])(n4nc(-c5c([H])c([H])c(Oc6c([H])c([H])c(F)c([H])c6F)c([H])c5[H])c(C(=O)N([H])[H])c4N([H])[H])C3([H])[H])C([H])([H])C([H])([H])[H])[N+]([H])([H])C([H])(C([H])([H])[H])C([H])([H])[H])C([H])([H])[H])c([H])c([H])c2C1([H])[H]

$$$$
23:0:0
     RDKit          3D

 97107  0  0  1  0  0  0  0  0999 V2000
  -29.2420  -22.6630   21.7880 C   0  0  0  0  0  0  0  0  0  0  0  0
  -29.2890  -21.1880   22.1720 C   0  0  0  0  0  2  0  0  0  0  0  0
  -32.5460  -23.8560   18.7120 C   0  0  0  0  0  2  0  0  0  0  0  0
  -31.4580  -23.8320   17.6140 C   0  0  0  0  0  2  0  0  0  0  0  0
  -32.2140  -24.6160   20.0220 C   0  0  0  0  0  2  0  0  0  0  0  0
  -30.1400  -23.0840   17.9430 C   0  0  0  0  0  2  0  0  0  0  0  0
  -31.0660  -21.7190   20.6280 C   0  0  0  0  0  2  0  0  0  0  0  0
  -30.8130  -24.3980   20.6240 C   0  0  0  0  0  3  0  0  0  0  0  0
  -29.4930  -23.4280   19.2970 C   0  0  0  0  0  3  0  0  0  0  0  0
  -29.6220  -24.8910   19.7690 C   0  0  0  0  0  3  0  0  0  0  0  0
  -30.2070  -20.5550   21.1280 C   0  0  0  0  0  3  0  0  0  0  0  0
  -30.1810  -22.9780   20.6220 C   0  0  2  0  0  0  0  0  0  0  0  0
  -28.5270  -23.4320   22.4350 O   0  0  0  0  0  0  0  0  0  0  0  0
  -31.0160  -19.4090   21.6200 N   0  0  0  0  0  4  0  0  0  0  0  0
  -31.4590  -19.6280   22.4990 H   0  0  0  0  0  0  0  0  0  0  0  0
  -31.7550  -19.2610   20.9520 H   0  0  0  0  0  0  0  0  0  0  0  0
  -30.2780  -18.1310   21.7470 C   0  0  0  0  0  2  0  0  0  0  0  0
  -31.1250  -16.9380   21.2680 C   0  0  0  0  0  2  0  0  0  0  0  0
  -30.3440  -15.6030   21.2780 C   0  0  0  0  0  2  0  0  0  0  0  0
  -30.9200  -14.5230   20.3400 C   0  0  0  0  0  0  0  0  0  0  0  0
  -30.5390  -12.4520   19.0440 C   0  0  0  0  0  2  0  0  0  0  0  0
  -29.5660  -12.7290   17.8810 C   0  0  0  0  0  2  0  0  0  0  0  0
  -28.1040  -12.5950   18.3470 C   0  0  0  0  0  2  0  0  0  0  0  0
  -27.8190  -13.3830   19.6530 C   0  0  0  0  0  3  0  0  0  0  0  0
  -28.8960  -13.0870   20.7200 C   0  0  0  0  0  2  0  0  0  0  0  0
  -30.2130  -13.3830   20.1340 N   0  0  0  0  0  0  0  0  0  0  0  0
  -31.9800  -14.7570   19.7500 O   0  0  0  0  0  0  0  0  0  0  0  0
  -25.4340  -13.9980   20.4060 C   0  0  0  0  0  0  0  0  0  0  0  0
  -24.3720  -13.2260   20.7910 C   0  0  0  0  0  0  0  0  0  0  0  0
  -24.8280  -11.8720   20.7470 C   0  0  0  0  0  0  0  0  0  0  0  0
  -26.4730  -13.1140   20.1530 N   0  0  0  0  0  0  0  0  0  0  0  0
  -26.1120  -11.8310   20.4120 N   0  0  0  0  0  0  0  0  0  0  0  0
  -24.1030  -10.6110   20.9440 C   0  0  0  0  0  0  0  0  0  0  0  0
  -24.5270   -9.6570   21.8960 C   0  0  0  0  0  3  0  0  0  0  0  0
  -23.8040   -8.4590   22.0810 C   0  0  0  0  0  3  0  0  0  0  0  0
  -22.6420   -8.2070   21.3140 C   0  0  0  0  0  0  0  0  0  0  0  0
  -22.2360   -9.1500   20.3530 C   0  0  0  0  0  3  0  0  0  0  0  0
  -22.9590  -10.3390   20.1670 C   0  0  0  0  0  3  0  0  0  0  0  0
  -21.8900   -7.0620   21.4070 O   0  0  0  0  0  0  0  0  0  0  0  0
  -21.7970   -6.3550   22.5790 C   0  0  0  0  0  0  0  0  0  0  0  0
  -21.3020   -6.9420   23.7650 C   0  0  0  0  0  3  0  0  0  0  0  0
  -21.1580   -6.1630   24.9310 C   0  0  0  0  0  3  0  0  0  0  0  0
  -21.5010   -4.7970   24.9110 C   0  0  0  0  0  0  0  0  0  0  0  0
  -21.9890   -4.2100   23.7300 C   0  0  0  0  0  3  0  0  0  0  0  0
  -22.1330   -4.9870   22.5670 C   0  0  0  0  0  0  0  0  0  0  0  0
  -22.5860   -4.4120   21.4260 F   0  0  0  0  0  0  0  0  0  0  0  0
  -21.3550   -4.0440   26.0260 F   0  0  0  0  0  0  0  0  0  0  0  0
  -22.9810  -13.7040   21.0950 C   0  0  0  0  0  0  0  0  0  0  0  0
  -22.2700  -13.0040   21.9710 N   0  0  0  0  0  0  0  0  0  0  0  0
  -22.5330  -14.7320   20.5890 O   0  0  0  0  0  0  0  0  0  0  0  0
  -22.6450  -12.1680   22.3960 H   0  0  0  0  0  0  0  0  0  0  0  0
  -21.3400  -13.3070   22.2190 H   0  0  0  0  0  0  0  0  0  0  0  0
  -25.6010  -15.3700   20.2300 N   0  0  0  0  0  0  0  0  0  0  0  0
  -24.8410  -16.0310   20.3550 H   0  0  0  0  0  0  0  0  0  0  0  0
  -26.4490  -15.7990   19.8810 H   0  0  0  0  0  0  0  0  0  0  0  0
  -28.4160  -25.6330   20.3660 C   0  0  0  0  0  2  0  0  0  0  0  0
  -28.2340  -26.8100   19.5890 O   0  0  0  0  0  0  0  0  0  0  0  0
  -24.5100  -31.7290   23.1150 C   0  0  0  0  0  0  0  0  0  0  0  0
  -27.0420  -27.4680   19.7400 C   0  0  0  0  0  0  0  0  0  0  0  0
  -23.2360  -30.3930   21.4640 C   0  0  0  0  0  3  0  0  0  0  0  0
  -24.6340  -28.9230   19.9190 C   0  0  0  0  0  0  0  0  0  0  0  0
  -25.7420  -30.7870   21.1670 C   0  0  0  0  0  2  0  0  0  0  0  0
  -25.8090  -29.4420   20.4750 C   0  0  0  0  0  0  0  0  0  0  0  0
  -27.0170  -28.7220   20.3800 C   0  0  0  0  0  3  0  0  0  0  0  0
  -25.8540  -26.9460   19.1860 C   0  0  0  0  0  3  0  0  0  0  0  0
  -24.6480  -27.6710   19.2730 C   0  0  0  0  0  3  0  0  0  0  0  0
  -23.3870  -29.7680   20.0510 C   0  0  0  0  0  2  0  0  0  0  0  0
  -24.5170  -30.9810   21.9750 N   0  0  0  0  0  0  0  0  0  0  0  0
  -23.4530  -31.9720   23.7140 O   0  0  0  0  0  0  0  0  0  0  0  0
  -22.6300  -29.3310   22.4080 C   0  0  0  0  0  0  0  0  0  0  0  0
  -21.3120  -29.1040   22.2820 N   0  0  0  0  0  0  0  0  0  0  0  0
  -23.3410  -28.7130   23.2050 O   0  0  0  0  0  0  0  0  0  0  0  0
  -20.8000  -29.6550   21.6080 H   0  0  0  0  0  0  0  0  0  0  0  0
  -18.0040  -27.7160   22.6970 C   0  0  0  0  0  0  0  0  0  0  0  0
  -20.5340  -28.1210   23.0350 C   0  0  0  0  0  3  0  0  0  0  0  0
  -20.7350  -26.6990   22.4650 C   0  0  0  0  0  2  0  0  0  0  0  0
  -19.6810  -26.3120   21.4210 C   0  0  0  0  0  2  0  0  0  0  0  0
  -18.2760  -26.3800   22.0260 C   0  0  0  0  0  2  0  0  0  0  0  0
  -19.0640  -28.5410   23.1540 C   0  0  0  0  0  0  0  0  0  0  0  0
  -18.7590  -29.7920   23.7340 C   0  0  0  0  0  3  0  0  0  0  0  0
  -17.4230  -30.2170   23.8640 C   0  0  0  0  0  3  0  0  0  0  0  0
  -16.3760  -29.3890   23.4250 C   0  0  0  0  0  3  0  0  0  0  0  0
  -16.6670  -28.1400   22.8480 C   0  0  0  0  0  3  0  0  0  0  0  0
  -25.8220  -32.3350   23.7060 C   0  0  0  0  0  3  0  0  0  0  0  0
  -25.5380  -33.7270   24.0820 N   0  0  0  0  0  0  0  0  0  0  0  0
  -25.8790  -34.7950   23.3500 C   0  0  0  0  0  0  0  0  0  0  0  0
  -26.5390  -34.7130   22.3090 O   0  0  0  0  0  0  0  0  0  0  0  0
  -24.9560  -33.8660   24.8940 H   0  0  0  0  0  0  0  0  0  0  0  0
  -24.1800  -36.6250   23.0510 C   0  0  0  0  0  1  0  0  0  0  0  0
  -25.4140  -36.1760   23.8490 C   0  0  0  0  0  3  0  0  0  0  0  0
  -27.5620  -36.9980   24.7110 C   0  0  0  0  0  1  0  0  0  0  0  0
  -26.4650  -37.2160   23.7710 N   0  0  0  0  0  0  0  0  0  0  0  0
  -26.0730  -38.1360   23.9540 H   0  0  0  0  0  0  0  0  0  0  0  0
  -26.3810  -31.5250   24.9410 C   0  0  1  0  0  0  0  0  0  0  0  0
  -25.3220  -31.2520   26.0340 C   0  0  0  0  0  1  0  0  0  0  0  0
  -26.9480  -30.1600   24.4840 C   0  0  0  0  0  1  0  0  0  0  0  0
  -27.5550  -32.2960   25.5880 C   0  0  0  0  0  1  0  0  0  0  0  0
  1  2  1  0
  1 13  2  0
  3  5  1  0
  4  6  1  0
  4  3  1  0
  7 11  1  0
  8  5  1  0
  9  6  1  0
  9 10  1  0
  9 12  1  0
 10 56  1  0
 10  8  1  0
 11 14  1  0
 11  2  1  0
 12  8  1  0
 12  7  1  6
 12  1  1  0
 14 17  1  0
 14 15  1  0
 16 14  1  0
 18 19  1  0
 18 17  1  0
 20 19  1  0
 21 26  1  0
 22 23  1  0
 22 21  1  0
 24 23  1  0
 24 31  1  0
 24 25  1  0
 26 20  1  0
 26 25  1  0
 27 20  2  0
 28 29  2  0
 29 48  1  0
 30 29  1  0
 30 33  1  0
 31 28  1  0
 31 32  1  0
 32 30  2  0
 33 34  1  0
 34 35  2  0
 36 39  1  0
 36 35  1  0
 37 36  2  0
 38 37  1  0
 38 33  2  0
 39 40  1  0
 40 41  1  0
 41 42  2  0
 43 42  1  0
 43 47  1  0
 44 43  2  0
 45 40  2  0
 45 44  1  0
 46 45  1  0
 48 49  1  0
 49 52  1  0
 49 51  1  0
 50 48  2  0
 53 54  1  0
 53 28  1  0
 55 53  1  0
 57 59  1  0
 57 56  1  0
 58 69  2  0
 59 64  1  0
 60 68  1  0
 60 70  1  0
 61 67  1  0
 61 63  1  0
 62 68  1  0
 63 62  1  0
 64 63  2  0
 65 66  1  0
 65 59  2  0
 66 61  2  0
 67 60  1  0
 68 58  1  0
 70 72  2  0
 71 70  1  0
 73 71  1  0
 74 83  2  0
 74 79  1  0
 75 71  1  0
 75 79  1  0
 76 75  1  0
 77 78  1  0
 77 76  1  0
 78 74  1  0
 79 80  2  0
 80 81  1  0
 82 81  2  0
 83 82  1  0
 84 58  1  0
 84 85  1  0
 84 94  1  0
 85 88  1  0
 86 90  1  0
 86 85  1  0
 87 86  2  0
 90 89  1  0
 92 90  1  0
 92 93  1  0
 92 91  1  0
 94 97  1  1
 94 95  1  0
 96 94  1  0
M  ISO  4  19 100  20 100  56 101  57 101
M  END
>  <TORSDO>  (24) 
F 21

>  <SCORE>  (24) 
-13.095

>  <name>  (24) 
23

>  <ligand_id>  (24) 
23

>  <original_smiles>  (24) 
[H]c1c([H])c([H])c2c(c1[H])C([H])([H])C([H])([H])C([H])([H])C2([H])N([H])C(=O)C1([H])N(C(=O)C([H])(N([H])C(=O)C([H])(N([H])C([H])([H])[H])C([H])([H])[H])C(C([H])([H])[H])(C([H])([H])[H])C([H])([H])[H])C([H])([H])c2c([H])c(OC([H])([H])C3([H])C4([H])C([H])([H])C([H])([H])C([H])([H])C([H])([H])C3([H])C43C(=O)C([H])([H])C([H])([N+]([H])([H])C([H])([H])C([H])([H])C([H])([H])C(=O)N4C([H])([H])C([H])([H])C([H])([H])C([H])(n5nc(-c6c([H])c([H])c(Oc7c([H])c([H])c(F)c([H])c7F)c([H])c6[H])c(C(=O)N([H])[H])c5N([H])[H])C4([H])[H])C3([H])[H])c([H])c([H])c2C1([H])[H]

>  <smiles>  (24) 
[H]c1c([H])c([H])c2c(c1[H])C([H])([H])C([H])([H])C([H])([H])C2([H])N([H])C(=O)C1([H])N(C(=O)C([H])(N([H])C(=O)C([H])(N([H])C([H])([H])[H])C([H])([H])[H])C(C([H])([H])[H])(C([H])([H])[H])C([H])([H])[H])C([H])([H])c2c([H])c(OC([H])([H])C3([H])C4([H])C([H])([H])C([H])([H])C([H])([H])C([H])([H])C3([H])C43C(=O)C([H])([H])C([H])([N+]([H])([H])C([H])([H])C([H])([H])C([H])([H])C(=O)N4C([H])([H])C([H])([H])C([H])([H])C([H])(n5nc(-c6c([H])c([H])c(Oc7c([H])c([H])c(F)c([H])c7F)c([H])c6[H])c(C(=O)N([H])[H])c5N([H])[H])C4([H])[H])C3([H])[H])c([H])c([H])c2C1([H])[H]

$$$$
24:0:0
     RDKit          3D

 97 97  0  0  1  0  0  0  0  0999 V2000
  -24.0180  -24.2240   18.4150 C   0  0  0  0  0  3  0  0  0  0  0  0
  -25.2260  -23.6180   17.5910 C   0  0  0  0  0  3  0  0  0  0  0  0
  -23.8950  -22.8440   17.8860 C   0  0  2  0  0  0  0  0  0  0  0  0
  -22.7670  -22.6410   16.8820 C   0  0  0  0  0  1  0  0  0  0  0  0
  -23.8810  -21.7090   18.9040 C   0  0  0  0  0  1  0  0  0  0  0  0
  -19.6960  -29.9460   17.3750 C   0  0  0  0  0 15  0  0  0  0  0  0
  -19.0660  -29.4360   19.5530 C   0  0  0  0  0 15  0  0  0  0  0  0
  -26.0140  -24.9220   19.6060 C   0  0  0  0  0  1  0  0  0  0  0  0
  -27.7550  -23.6100   19.9800 C   0  0  0  0  0 15  0  0  0  0  0  0
  -21.7780  -28.4790   17.4720 C   0  0  0  0  0 15  0  0  0  0  0  0
  -20.9860  -27.9210   19.9300 C   0  0  0  0  0 15  0  0  0  0  0  0
  -24.1430  -26.8420   18.6960 C   0  0  0  0  0  1  0  0  0  0  0  0
  -24.2050  -24.9010   19.8380 C   0  0  0  0  0  3  0  0  0  0  0  0
  -23.1800  -26.6420   20.1870 C   0  0  0  0  0  1  0  0  0  0  0  0
  -29.9010  -22.1880   20.3190 C   0  0  0  0  0  2  0  0  0  0  0  0
  -32.5380  -20.0030   20.1750 C   0  0  0  0  0  2  0  0  0  0  0  0
  -33.1180  -18.6140   19.3790 C   0  0  0  0  0  2  0  0  0  0  0  0
  -32.3070  -17.3460   19.6090 C   0  0  0  0  0  2  0  0  0  0  0  0
  -30.9890  -18.0020   19.9660 C   0  0  0  0  0  3  0  0  0  0  0  0
  -30.8730  -19.1660   21.0600 C   0  0  0  0  0  2  0  0  0  0  0  0
  -30.8730  -20.6160   20.3990 N   0  0  0  0  0  0  0  0  0  0  0  0
  -31.2210  -22.4450   20.5630 O   0  0  0  0  0  1  0  0  0  0  0  0
  -28.6170  -17.7620   20.0200 C   0  0  0  0  0  0  0  0  0  0  0  0
  -27.7720  -16.7300   20.1580 C   0  0  0  0  0  0  0  0  0  0  0  0
  -28.5790  -15.5500   20.2260 C   0  0  0  0  0  0  0  0  0  0  0  0
  -29.8580  -17.1940   20.0670 N   0  0  0  0  0  0  0  0  0  0  0  0
  -29.8750  -15.8530   20.2300 N   0  0  0  0  0  0  0  0  0  0  0  0
  -28.1590  -14.1540   20.2180 C   0  0  0  0  0  0  0  0  0  0  0  0
  -28.1340  -13.3770   21.3940 C   0  0  0  0  0  3  0  0  0  0  0  0
  -27.6760  -12.0440   21.3500 C   0  0  0  0  0  3  0  0  0  0  0  0
  -27.2400  -11.4870   20.1230 C   0  0  0  0  0  0  0  0  0  0  0  0
  -27.2950  -12.2600   18.9530 C   0  0  0  0  0  3  0  0  0  0  0  0
  -27.7570  -13.5820   18.9970 C   0  0  0  0  0  3  0  0  0  0  0  0
  -26.7950  -10.1970   19.9780 O   0  0  0  0  0  0  0  0  0  0  0  0
  -25.7200   -9.7290   20.6850 C   0  0  0  0  0  0  0  0  0  0  0  0
  -24.4430  -10.3220   20.5870 C   0  0  0  0  0  3  0  0  0  0  0  0
  -23.3530   -9.7610   21.2800 C   0  0  0  0  0  3  0  0  0  0  0  0
  -23.5360   -8.6050   22.0620 C   0  0  0  0  0  0  0  0  0  0  0  0
  -24.8060   -8.0100   22.1560 C   0  0  0  0  0  3  0  0  0  0  0  0
  -25.8960   -8.5700   21.4670 C   0  0  0  0  0  0  0  0  0  0  0  0
  -27.1150   -7.9850   21.5450 F   0  0  0  0  0  0  0  0  0  0  0  0
  -22.4870   -8.0580   22.7180 F   0  0  0  0  0  0  0  0  0  0  0  0
  -26.2940  -16.8750   20.1050 C   0  0  0  0  0  0  0  0  0  0  0  0
  -25.5830  -16.0330   20.8350 N   0  0  0  0  0  0  0  0  0  0  0  0
  -25.7750  -17.7940   19.4700 O   0  0  0  0  0  0  0  0  0  0  0  0
  -26.0290  -15.3060   21.3760 H   0  0  0  0  0  0  0  0  0  0  0  0
  -24.5760  -16.1130   20.8540 H   0  0  0  0  0  0  0  0  0  0  0  0
  -28.4220  -19.1330   19.8430 N   0  0  0  0  0  0  0  0  0  0  0  0
  -27.4970  -19.5000   19.6550 H   0  0  0  0  0  0  0  0  0  0  0  0
  -29.1760  -19.7640   19.6150 H   0  0  0  0  0  0  0  0  0  0  0  0
  -25.9460  -24.7070   16.6920 C   0  0  0  0  0  2  0  0  0  0  0  0
  -27.2400  -25.2750   17.3160 N   0  0  0  0  0  4  0  0  0  0  0  0
  -27.9880  -25.1670   16.6440 H   0  0  0  0  0  0  0  0  0  0  0  0
  -27.4500  -24.6450   18.0790 H   0  0  0  0  0  0  0  0  0  0  0  0
  -27.2750  -26.6910   17.8860 C   0  0  0  0  0  3  0  0  0  0  0  0
  -28.2770  -27.1320   19.1250 C   0  0  0  0  0  3  0  0  0  0  0  0
  -28.6530  -28.5560   19.5920 O   0  0  0  0  0  0  0  0  0  0  0  0
  -24.6630  -31.0420   25.1810 C   0  0  0  0  0  0  0  0  0  0  0  0
  -27.6280  -29.3260   20.1310 C   0  0  0  0  0  0  0  0  0  0  0  0
  -23.6510  -30.4240   23.0500 C   0  0  0  0  0  3  0  0  0  0  0  0
  -25.1410  -30.2990   21.0280 C   0  0  0  0  0  0  0  0  0  0  0  0
  -26.0530  -31.3130   23.1040 C   0  0  0  0  0  2  0  0  0  0  0  0
  -26.2810  -30.5260   21.8150 C   0  0  0  0  0  0  0  0  0  0  0  0
  -27.5510  -30.0080   21.3900 C   0  0  0  0  0  3  0  0  0  0  0  0
  -26.5140  -29.4020   19.3070 C   0  0  0  0  0  3  0  0  0  0  0  0
  -25.2540  -29.7290   19.7690 C   0  0  0  0  0  3  0  0  0  0  0  0
  -23.7940  -30.7300   21.5460 C   0  0  0  0  0  2  0  0  0  0  0  0
  -24.7890  -30.9890   23.8260 N   0  0  0  0  0  0  0  0  0  0  0  0
  -23.5970  -30.7510   25.7490 O   0  0  0  0  0  0  0  0  0  0  0  0
  -23.7010  -28.9070   23.2630 C   0  0  0  0  0  0  0  0  0  0  0  0
  -22.7550  -28.1260   22.8490 N   0  0  0  0  0  0  0  0  0  0  0  0
  -24.6830  -28.3540   23.7330 O   0  0  0  0  0  0  0  0  0  0  0  0
  -21.8670  -28.4740   22.5160 H   0  0  0  0  0  0  0  0  0  0  0  0
  -20.1780  -25.5550   20.7560 C   0  0  0  0  0  3  0  0  0  0  0  0
  -22.9710  -26.6520   22.9830 C   0  0  0  0  0  3  0  0  0  0  0  0
  -23.6920  -25.6740   21.8530 C   0  0  0  0  0  1  0  0  0  0  0  0
  -22.3630  -24.7170   19.6100 C   0  0  0  0  0  2  0  0  0  0  0  0
  -20.6570  -24.9170   19.5530 C   0  0  0  0  0  2  0  0  0  0  0  0
  -21.7090  -26.4030   22.8500 C   0  0  0  0  0  3  0  0  0  0  0  0
  -20.5710  -27.2150   24.1110 C   0  0  0  0  0  3  0  0  0  0  0  0
  -18.8640  -27.3480   23.9190 C   0  0  0  0  0  3  0  0  0  0  0  0
  -17.9050  -26.8080   22.6430 C   0  0  0  0  0  3  0  0  0  0  0  0
  -18.3900  -25.9930   21.1740 C   0  0  0  0  0  3  0  0  0  0  0  0
  -25.8600  -31.4610   26.0770 C   0  0  0  0  0  3  0  0  0  0  0  0
  -25.8460  -32.9270   26.1300 N   0  0  0  0  0  0  0  0  0  0  0  0
  -26.6470  -33.7090   25.3970 C   0  0  0  0  0  0  0  0  0  0  0  0
  -27.5460  -33.2620   24.6790 O   0  0  0  0  0  0  0  0  0  0  0  0
  -25.1010  -33.3600   26.6580 H   0  0  0  0  0  0  0  0  0  0  0  0
  -25.6280  -35.7080   24.2670 C   0  0  0  0  0  1  0  0  0  0  0  0
  -26.4250  -35.2290   25.4900 C   0  0  0  0  0  3  0  0  0  0  0  0
  -28.4170  -35.7240   26.8360 C   0  0  0  0  0  1  0  0  0  0  0  0
  -27.6820  -35.9990   25.6020 N   0  0  0  0  0  0  0  0  0  0  0  0
  -27.4960  -36.9970   25.5610 H   0  0  0  0  0  0  0  0  0  0  0  0
  -25.8110  -30.8530   27.5340 C   0  0  1  0  0  0  0  0  0  0  0  0
  -24.4410  -31.0160   28.2360 C   0  0  0  0  0  1  0  0  0  0  0  0
  -26.1590  -29.3470   27.5250 C   0  0  0  0  0  1  0  0  0  0  0  0
  -26.8850  -31.5350   28.4130 C   0  0  0  0  0  1  0  0  0  0  0  0
  1  3  1  0
  1 13  1  0
  2 51  1  0
  2  3  1  0
  2  1  1  0
  3  5  1  1
  4  3  1  0
 12 14  1  0
 13  8  1  0
 15 21  1  0
 15 22  1  0
 16 21  1  0
 17 18  1  0
 17 16  1  0
 19 18  1  0
 19 26  1  0
 19 20  1  0
 21 20  1  0
 23 26  1  0
 23 24  2  0
 24 25  1  0
 25 27  2  0
 26 27  1  0
 28 25  1  0
 28 29  1  0
 30 29  2  0
 31 30  1  0
 32 33  1  0
 32 31  2  0
 33 28  2  0
 34 31  1  0
 34 35  1  0
 35 40  1  0
 36 35  2  0
 36 37  1  0
 37 38  2  0
 38 39  1  0
 38 42  1  0
 40 41  1  0
 40 39  2  0
 43 24  1  0
 43 44  1  0
 44 47  1  0
 44 46  1  0
 45 43  2  0
 48 23  1  0
 49 48  1  0
 50 48  1  0
 51 52  1  0
 52 55  1  0
 52 54  1  0
 53 52  1  0
 55 56  2  0
 56 57  1  0
 57 59  1  0
 58 69  2  0
 59 64  1  0
 60 67  1  0
 60 70  1  0
 60 68  1  0
 61 67  1  0
 61 63  1  0
 62 68  1  0
 63 62  1  0
 64 63  2  0
 65 66  1  0
 65 59  2  0
 66 61  2  0
 68 58  1  0
 70 72  2  0
 71 75  1  0
 71 70  1  0
 73 71  1  0
 74 83  2  0
 75 76  1  0
 77 13  1  0
 78 77  1  0
 78 74  1  0
 79 75  1  0
 79 80  2  0
 81 80  1  0
 82 81  2  0
 83 82  1  0
 84 58  1  0
 84 85  1  0
 84 94  1  0
 85 88  1  0
 86 90  1  0
 86 85  1  0
 87 86  2  0
 90 89  1  0
 90 92  1  0
 92 91  1  0
 93 92  1  0
 94 95  1  1
 94 97  1  0
 96 94  1  0
M  ISO  4   9 100  15 100  56 101  57 101
M  END
>  <TORSDO>  (25) 
F 21

>  <SCORE>  (25) 
9.718

>  <name>  (25) 
24

>  <ligand_id>  (25) 
24

>  <original_smiles>  (25) 
[H]C(C(=O)N1C([H])([H])C([H])([H])C([H])([H])C([H])(n2nc(-c3c([H])c([H])c(Oc4c([H])c([H])c(F)c([H])c4F)c([H])c3[H])c(C(=O)N([H])[H])c2N([H])[H])C1([H])[H])=C1C2([H])C3([H])C([H])=C([H])C3([H])C2([H])C1([H])C1([H])C([H])(C([H])([H])[N+]([H])([H])C([H])([H])C([H])([H])Oc2c([H])c([H])c3c(c2[H])C([H])([H])N(C(=O)C([H])(N([H])C(=O)C([H])(N([H])C([H])([H])[H])C([H])([H])[H])C(C([H])([H])[H])(C([H])([H])[H])C([H])([H])[H])C([H])(C(=O)N([H])C2([H])c4c([H])c([H])c([H])c([H])c4C([H])([H])C([H])([H])C2([H])[H])C3([H])[H])C1(C([H])([H])[H])C([H])([H])[H]

>  <smiles>  (25) 
[H]C(C(=O)N1C([H])([H])C([H])([H])C([H])([H])C([H])(n2nc(-c3c([H])c([H])c(Oc4c([H])c([H])c(F)c([H])c4F)c([H])c3[H])c(C(=O)N([H])[H])c2N([H])[H])C1([H])[H])=C1C2([H])C3([H])C([H])=C([H])C3([H])C2([H])C1([H])C1([H])C([H])(C([H])([H])[N+]([H])([H])C([H])([H])C([H])([H])Oc2c([H])c([H])c3c(c2[H])C([H])([H])N(C(=O)C([H])(N([H])C(=O)C([H])(N([H])C([H])([H])[H])C([H])([H])[H])C(C([H])([H])[H])(C([H])([H])[H])C([H])([H])[H])C([H])(C(=O)N([H])C2([H])c4c([H])c([H])c([H])c([H])c4C([H])([H])C([H])([H])C2([H])[H])C3([H])[H])C1(C([H])([H])[H])C([H])([H])[H]

$$$$
25:0:0
     RDKit          3D

 89 97  0  0  1  0  0  0  0  0999 V2000
  -29.0310  -22.9580   20.0310 C   0  0  0  0  0  3  0  0  0  0  0  0
  -28.8000  -21.4070   20.5480 N   0  0  0  0  0  4  0  0  0  0  0  0
  -29.1700  -21.3670   21.4850 H   0  0  0  0  0  0  0  0  0  0  0  0
  -27.8020  -21.3610   20.6750 H   0  0  0  0  0  0  0  0  0  0  0  0
  -28.2180  -18.9740   20.4960 C   0  0  0  0  0  2  0  0  0  0  0  0
  -29.5850  -18.3390   20.4450 C   0  0  0  0  0  3  0  0  0  0  0  0
  -29.1410  -19.9540   19.8310 C   0  0  2  0  0  0  0  0  0  0  0  0
  -29.1420  -20.1070   18.3210 C   0  0  0  0  0  1  0  0  0  0  0  0
  -29.4410  -16.6500   19.9900 C   0  0  0  0  0  2  0  0  0  0  0  0
  -30.3800  -15.1930   20.0390 C   0  0  0  0  0  0  0  0  0  0  0  0
  -30.3660  -12.7630   19.1730 C   0  0  0  0  0  2  0  0  0  0  0  0
  -29.4080  -12.6240   17.9610 C   0  0  0  0  0  2  0  0  0  0  0  0
  -27.9610  -12.3670   18.4280 C   0  0  0  0  0  2  0  0  0  0  0  0
  -27.5500  -13.3160   19.5810 C   0  0  0  0  0  3  0  0  0  0  0  0
  -28.6240  -13.4020   20.6820 C   0  0  0  0  0  2  0  0  0  0  0  0
  -29.8650  -13.8740   20.0490 N   0  0  0  0  0  0  0  0  0  0  0  0
  -31.5960  -15.2430   19.8070 O   0  0  0  0  0  0  0  0  0  0  0  0
  -25.1990  -13.8870   20.3980 C   0  0  0  0  0  0  0  0  0  0  0  0
  -24.1450  -13.1110   20.7940 C   0  0  0  0  0  0  0  0  0  0  0  0
  -24.6070  -11.7600   20.7470 C   0  0  0  0  0  0  0  0  0  0  0  0
  -26.2310  -13.0080   20.1210 N   0  0  0  0  0  0  0  0  0  0  0  0
  -25.8900  -11.7240   20.4000 N   0  0  0  0  0  0  0  0  0  0  0  0
  -23.8830  -10.5000   20.9530 C   0  0  0  0  0  0  0  0  0  0  0  0
  -24.3260   -9.5370   21.8880 C   0  0  0  0  0  3  0  0  0  0  0  0
  -23.6020   -8.3410   22.0830 C   0  0  0  0  0  3  0  0  0  0  0  0
  -22.4200   -8.0990   21.3440 C   0  0  0  0  0  0  0  0  0  0  0  0
  -21.9940   -9.0500   20.4000 C   0  0  0  0  0  3  0  0  0  0  0  0
  -22.7180  -10.2380   20.2040 C   0  0  0  0  0  3  0  0  0  0  0  0
  -21.6660   -6.9540   21.4470 O   0  0  0  0  0  0  0  0  0  0  0  0
  -21.6210   -6.2240   22.6070 C   0  0  0  0  0  0  0  0  0  0  0  0
  -21.1970   -6.7900   23.8300 C   0  0  0  0  0  3  0  0  0  0  0  0
  -21.1020   -5.9850   24.9820 C   0  0  0  0  0  3  0  0  0  0  0  0
  -21.4200   -4.6150   24.9140 C   0  0  0  0  0  0  0  0  0  0  0  0
  -21.8370   -4.0490   23.6970 C   0  0  0  0  0  3  0  0  0  0  0  0
  -21.9350   -4.8520   22.5460 C   0  0  0  0  0  0  0  0  0  0  0  0
  -22.3170   -4.2950   21.3710 F   0  0  0  0  0  0  0  0  0  0  0  0
  -21.3210   -3.8410   26.0200 F   0  0  0  0  0  0  0  0  0  0  0  0
  -22.7550  -13.5900   21.1010 C   0  0  0  0  0  0  0  0  0  0  0  0
  -22.0470  -12.8940   21.9820 N   0  0  0  0  0  0  0  0  0  0  0  0
  -22.3080  -14.6170   20.5930 O   0  0  0  0  0  0  0  0  0  0  0  0
  -22.4250  -12.0640   22.4160 H   0  0  0  0  0  0  0  0  0  0  0  0
  -21.1160  -13.1950   22.2280 H   0  0  0  0  0  0  0  0  0  0  0  0
  -25.3610  -15.2580   20.2210 N   0  0  0  0  0  0  0  0  0  0  0  0
  -24.5980  -15.9110   20.3570 H   0  0  0  0  0  0  0  0  0  0  0  0
  -26.2030  -15.6960   19.8730 H   0  0  0  0  0  0  0  0  0  0  0  0
  -31.5900  -22.4970   19.7910 C   0  0  0  0  0  1  0  0  0  0  0  0
  -30.4770  -23.3690   20.3960 C   0  0  0  0  0  2  0  0  0  0  0  0
  -28.0380  -24.3710   20.4280 C   0  0  0  0  0  2  0  0  0  0  0  0
  -28.2630  -25.9740   20.2470 O   0  0  0  0  0  0  0  0  0  0  0  0
  -24.6320  -31.8510   23.1990 C   0  0  0  0  0  0  0  0  0  0  0  0
  -27.2180  -27.0170   20.2180 C   0  0  0  0  0  0  0  0  0  0  0  0
  -23.4470  -30.4480   21.5600 C   0  0  0  0  0  3  0  0  0  0  0  0
  -24.9050  -28.8460   20.1560 C   0  0  0  0  0  0  0  0  0  0  0  0
  -26.0110  -30.6810   21.4180 C   0  0  0  0  0  2  0  0  0  0  0  0
  -26.0880  -29.2720   20.7730 C   0  0  0  0  0  0  0  0  0  0  0  0
  -27.2430  -28.3790   20.7760 C   0  0  0  0  0  3  0  0  0  0  0  0
  -26.0050  -26.7260   19.5540 C   0  0  0  0  0  3  0  0  0  0  0  0
  -24.8840  -27.5920   19.5260 C   0  0  0  0  0  3  0  0  0  0  0  0
  -23.6820  -29.7590   20.1890 C   0  0  0  0  0  2  0  0  0  0  0  0
  -24.7180  -31.0190   22.1130 N   0  0  0  0  0  0  0  0  0  0  0  0
  -23.5410  -32.1410   23.7150 O   0  0  0  0  0  0  0  0  0  0  0  0
  -22.7540  -29.4520   22.5260 C   0  0  0  0  0  0  0  0  0  0  0  0
  -21.4230  -29.2940   22.3990 N   0  0  0  0  0  0  0  0  0  0  0  0
  -23.4180  -28.8240   23.3530 O   0  0  0  0  0  0  0  0  0  0  0  0
  -20.9420  -29.8500   21.7060 H   0  0  0  0  0  0  0  0  0  0  0  0
  -18.0350  -28.1030   22.9060 C   0  0  0  0  0  0  0  0  0  0  0  0
  -20.5940  -28.3600   23.1700 C   0  0  0  0  0  3  0  0  0  0  0  0
  -20.6910  -26.9270   22.5960 C   0  0  0  0  0  2  0  0  0  0  0  0
  -19.5870  -26.6080   21.5820 C   0  0  0  0  0  2  0  0  0  0  0  0
  -18.2060  -26.7560   22.2260 C   0  0  0  0  0  2  0  0  0  0  0  0
  -19.1550  -28.8640   23.3340 C   0  0  0  0  0  0  0  0  0  0  0  0
  -18.9390  -30.1240   23.9320 C   0  0  0  0  0  3  0  0  0  0  0  0
  -17.6340  -30.6260   24.1040 C   0  0  0  0  0  3  0  0  0  0  0  0
  -16.5280  -29.8630   23.6900 C   0  0  0  0  0  3  0  0  0  0  0  0
  -16.7290  -28.6040   23.0970 C   0  0  0  0  0  3  0  0  0  0  0  0
  -25.9010  -32.4970   23.8360 C   0  0  0  0  0  3  0  0  0  0  0  0
  -25.5800  -33.8960   24.1660 N   0  0  0  0  0  0  0  0  0  0  0  0
  -25.9140  -34.9570   23.4180 C   0  0  0  0  0  0  0  0  0  0  0  0
  -26.5880  -34.8580   22.3890 O   0  0  0  0  0  0  0  0  0  0  0  0
  -24.9790  -34.0450   24.9630 H   0  0  0  0  0  0  0  0  0  0  0  0
  -24.1860  -36.7550   23.0700 C   0  0  0  0  0  1  0  0  0  0  0  0
  -25.4260  -36.3450   23.8810 C   0  0  0  0  0  3  0  0  0  0  0  0
  -27.5590  -37.2300   24.7180 C   0  0  0  0  0  1  0  0  0  0  0  0
  -26.4590  -37.3990   23.7720 N   0  0  0  0  0  0  0  0  0  0  0  0
  -26.0520  -38.3190   23.9190 H   0  0  0  0  0  0  0  0  0  0  0  0
  -26.4000  -31.7350   25.1270 C   0  0  1  0  0  0  0  0  0  0  0  0
  -25.2940  -31.5070   26.1850 C   0  0  0  0  0  1  0  0  0  0  0  0
  -26.9860  -30.3530   24.7590 C   0  0  0  0  0  1  0  0  0  0  0  0
  -27.5450  -32.5330   25.7940 C   0  0  0  0  0  1  0  0  0  0  0  0
  1 47  1  0
  1 48  1  0
  1  2  1  0
  2  4  1  0
  2  3  1  0
  6  9  1  0
  6  5  1  0
  7  8  1  6
  7  6  1  0
  7  5  1  0
  7  2  1  0
  9 10  1  0
 10 16  1  0
 11 16  1  0
 12 13  1  0
 12 11  1  0
 14 13  1  0
 14 21  1  0
 14 15  1  0
 16 15  1  0
 17 10  2  0
 18 19  2  0
 19 38  1  0
 20 19  1  0
 20 23  1  0
 21 18  1  0
 21 22  1  0
 22 20  2  0
 23 24  1  0
 24 25  2  0
 26 29  1  0
 26 25  1  0
 27 26  2  0
 28 27  1  0
 28 23  2  0
 29 30  1  0
 30 31  1  0
 31 32  2  0
 33 32  1  0
 33 37  1  0
 34 33  2  0
 35 30  2  0
 35 34  1  0
 36 35  1  0
 38 39  1  0
 39 42  1  0
 39 41  1  0
 40 38  2  0
 43 44  1  0
 43 18  1  0
 45 43  1  0
 46 47  1  0
 49 48  1  0
 50 61  2  0
 51 49  1  0
 51 56  1  0
 52 60  1  0
 52 62  1  0
 53 59  1  0
 53 55  1  0
 54 60  1  0
 55 56  2  0
 55 54  1  0
 57 51  2  0
 58 57  1  0
 58 53  2  0
 59 52  1  0
 60 50  1  0
 62 64  2  0
 63 62  1  0
 65 63  1  0
 66 75  2  0
 66 71  1  0
 67 63  1  0
 67 71  1  0
 68 67  1  0
 69 70  1  0
 69 68  1  0
 70 66  1  0
 71 72  2  0
 72 73  1  0
 74 73  2  0
 75 74  1  0
 76 50  1  0
 76 77  1  0
 76 86  1  0
 77 80  1  0
 78 82  1  0
 78 77  1  0
 79 78  2  0
 82 81  1  0
 84 82  1  0
 84 85  1  0
 84 83  1  0
 86 89  1  1
 86 87  1  0
 88 86  1  0
M  ISO  4   9 100  10 100  48 101  49 101
M  END
>  <TORSDO>  (26) 
F 21

>  <SCORE>  (26) 
-14.693

>  <name>  (26) 
25

>  <ligand_id>  (26) 
25

>  <original_smiles>  (26) 
[H]c1c([H])c([H])c2c(c1[H])C([H])([H])C([H])([H])C([H])([H])C2([H])N([H])C(=O)C1([H])N(C(=O)C([H])(N([H])C(=O)C([H])(N([H])C([H])([H])[H])C([H])([H])[H])C(C([H])([H])[H])(C([H])([H])[H])C([H])([H])[H])C([H])([H])c2c([H])c(OC([H])([H])C([H])(C([H])([H])C([H])([H])[H])[N+]([H])([H])C3(C([H])([H])[H])C([H])([H])C3([H])C([H])([H])C(=O)N3C([H])([H])C([H])([H])C([H])([H])C([H])(n4nc(-c5c([H])c([H])c(Oc6c([H])c([H])c(F)c([H])c6F)c([H])c5[H])c(C(=O)N([H])[H])c4N([H])[H])C3([H])[H])c([H])c([H])c2C1([H])[H]

>  <smiles>  (26) 
[H]c1c([H])c([H])c2c(c1[H])C([H])([H])C([H])([H])C([H])([H])C2([H])N([H])C(=O)C1([H])N(C(=O)C([H])(N([H])C(=O)C([H])(N([H])C([H])([H])[H])C([H])([H])[H])C(C([H])([H])[H])(C([H])([H])[H])C([H])([H])[H])C([H])([H])c2c([H])c(OC([H])([H])C([H])(C([H])([H])C([H])([H])[H])[N+]([H])([H])C3(C([H])([H])[H])C([H])([H])C3([H])C([H])([H])C(=O)N3C([H])([H])C([H])([H])C([H])([H])C([H])(n4nc(-c5c([H])c([H])c(Oc6c([H])c([H])c(F)c([H])c6F)c([H])c5[H])c(C(=O)N([H])[H])c4N([H])[H])C3([H])[H])c([H])c([H])c2C1([H])[H]

$$$$
26:0:0
     RDKit          3D

 94103  0  0  1  0  0  0  0  0999 V2000
  -32.3870  -22.7240   21.8920 C   0  0  0  0  0  2  0  0  0  0  0  0
  -31.2620  -23.6610   22.3150 C   0  0  0  0  0  2  0  0  0  0  0  0
  -30.5950  -22.4000   20.2870 C   0  0  0  0  0  3  0  0  0  0  0  0
  -31.6570  -21.6310   21.1030 C   0  0  0  0  0  3  0  0  0  0  0  0
  -30.3750  -23.7220   21.0550 C   0  0  0  0  0  3  0  0  0  0  0  0
  -29.1830  -21.8200   20.1570 C   0  0  0  0  0  3  0  0  0  0  0  0
  -28.2810  -23.2500   20.1000 C   0  0  0  0  0  3  0  0  0  0  0  0
  -32.6030  -20.7890   20.2390 C   0  0  0  0  0  1  0  0  0  0  0  0
  -28.3450  -23.6080   22.5340 C   0  0  0  0  0  1  0  0  0  0  0  0
  -28.9250  -23.9420   21.2290 N   0  0  0  0  0  0  0  0  0  0  0  0
  -29.0540  -20.4510   19.3830 N   0  0  0  0  0  4  0  0  0  0  0  0
  -29.6460  -20.5100   18.5720 H   0  0  0  0  0  0  0  0  0  0  0  0
  -28.1110  -20.4000   19.0330 H   0  0  0  0  0  0  0  0  0  0  0  0
  -29.3200  -19.0600   20.1010 C   0  0  0  0  0  3  0  0  0  0  0  0
  -29.7070  -17.6140   19.3290 C   0  0  0  0  0  3  0  0  0  0  0  0
  -29.6410  -16.0850   20.0360 C   0  0  0  0  0  2  0  0  0  0  0  0
  -30.3530  -14.6910   19.4930 C   0  0  0  0  0  0  0  0  0  0  0  0
  -30.1430  -12.3270   18.5920 C   0  0  0  0  0  2  0  0  0  0  0  0
  -29.0570  -12.2810   17.4890 C   0  0  0  0  0  2  0  0  0  0  0  0
  -27.6590  -12.0700   18.1040 C   0  0  0  0  0  2  0  0  0  0  0  0
  -27.4030  -13.0050   19.3150 C   0  0  0  0  0  3  0  0  0  0  0  0
  -28.5940  -13.0160   20.2980 C   0  0  0  0  0  2  0  0  0  0  0  0
  -29.7890  -13.4180   19.5440 N   0  0  0  0  0  0  0  0  0  0  0  0
  -31.4580  -14.7820   18.9490 O   0  0  0  0  0  0  0  0  0  0  0  0
  -25.1430  -13.5870   20.3740 C   0  0  0  0  0  0  0  0  0  0  0  0
  -24.1300  -12.8120   20.8720 C   0  0  0  0  0  0  0  0  0  0  0  0
  -24.5730  -11.4600   20.7540 C   0  0  0  0  0  0  0  0  0  0  0  0
  -26.1370  -12.7070   19.9800 N   0  0  0  0  0  0  0  0  0  0  0  0
  -25.8110  -11.4200   20.2720 N   0  0  0  0  0  0  0  0  0  0  0  0
  -23.8670  -10.2000   21.0210 C   0  0  0  0  0  0  0  0  0  0  0  0
  -24.3700   -9.2520   21.9400 C   0  0  0  0  0  3  0  0  0  0  0  0
  -23.6640   -8.0560   22.1930 C   0  0  0  0  0  3  0  0  0  0  0  0
  -22.4400   -7.8010   21.5310 C   0  0  0  0  0  0  0  0  0  0  0  0
  -21.9530   -8.7360   20.6010 C   0  0  0  0  0  3  0  0  0  0  0  0
  -22.6600   -9.9240   20.3460 C   0  0  0  0  0  3  0  0  0  0  0  0
  -21.6970   -6.6560   21.6980 O   0  0  0  0  0  0  0  0  0  0  0  0
  -21.6940   -5.9640   22.8820 C   0  0  0  0  0  0  0  0  0  0  0  0
  -21.2610   -6.5540   24.0890 C   0  0  0  0  0  3  0  0  0  0  0  0
  -21.2110   -5.7870   25.2700 C   0  0  0  0  0  3  0  0  0  0  0  0
  -21.5810   -4.4280   25.2450 C   0  0  0  0  0  0  0  0  0  0  0  0
  -22.0030   -3.8370   24.0420 C   0  0  0  0  0  3  0  0  0  0  0  0
  -22.0570   -4.6020   22.8630 C   0  0  0  0  0  0  0  0  0  0  0  0
  -22.4470   -4.0210   21.7020 F   0  0  0  0  0  0  0  0  0  0  0  0
  -21.5240   -3.6890   26.3760 F   0  0  0  0  0  0  0  0  0  0  0  0
  -22.7870  -13.2950   21.3380 C   0  0  0  0  0  0  0  0  0  0  0  0
  -22.1740  -12.5870   22.2810 N   0  0  0  0  0  0  0  0  0  0  0  0
  -22.2950  -14.3340   20.9000 O   0  0  0  0  0  0  0  0  0  0  0  0
  -22.5860  -11.7470   22.6560 H   0  0  0  0  0  0  0  0  0  0  0  0
  -21.2780  -12.8900   22.6320 H   0  0  0  0  0  0  0  0  0  0  0  0
  -25.2910  -14.9590   20.2010 N   0  0  0  0  0  0  0  0  0  0  0  0
  -24.5490  -15.6130   20.4310 H   0  0  0  0  0  0  0  0  0  0  0  0
  -26.0920  -15.4030   19.7690 H   0  0  0  0  0  0  0  0  0  0  0  0
  -28.2350  -24.5410   19.0370 C   0  0  0  0  0  2  0  0  0  0  0  0
  -28.2650  -26.0380   19.4490 O   0  0  0  0  0  0  0  0  0  0  0  0
  -24.8590  -31.4920   22.9410 C   0  0  0  0  0  0  0  0  0  0  0  0
  -27.1800  -26.9780   19.4710 C   0  0  0  0  0  0  0  0  0  0  0  0
  -23.5450  -30.2500   21.2620 C   0  0  0  0  0  3  0  0  0  0  0  0
  -24.8860  -28.7470   19.6650 C   0  0  0  0  0  0  0  0  0  0  0  0
  -26.0910  -30.4770   20.9910 C   0  0  0  0  0  2  0  0  0  0  0  0
  -26.1000  -29.1340   20.2450 C   0  0  0  0  0  0  0  0  0  0  0  0
  -27.2430  -28.2650   20.1320 C   0  0  0  0  0  3  0  0  0  0  0  0
  -25.9390  -26.6800   18.8620 C   0  0  0  0  0  3  0  0  0  0  0  0
  -24.8190  -27.5370   18.9570 C   0  0  0  0  0  3  0  0  0  0  0  0
  -23.6840  -29.6640   19.8290 C   0  0  0  0  0  2  0  0  0  0  0  0
  -24.8550  -30.7550   21.7880 N   0  0  0  0  0  0  0  0  0  0  0  0
  -23.8080  -31.7620   23.5420 O   0  0  0  0  0  0  0  0  0  0  0  0
  -22.8850  -29.1940   22.1820 C   0  0  0  0  0  0  0  0  0  0  0  0
  -21.5470  -29.0720   22.1140 N   0  0  0  0  0  0  0  0  0  0  0  0
  -23.5760  -28.4890   22.9200 O   0  0  0  0  0  0  0  0  0  0  0  0
  -21.0460  -29.6950   21.4960 H   0  0  0  0  0  0  0  0  0  0  0  0
  -18.1540  -27.9600   22.7120 C   0  0  0  0  0  0  0  0  0  0  0  0
  -20.7320  -28.1050   22.8540 C   0  0  0  0  0  3  0  0  0  0  0  0
  -20.7440  -26.7230   22.1610 C   0  0  0  0  0  2  0  0  0  0  0  0
  -19.5750  -26.5250   21.1890 C   0  0  0  0  0  2  0  0  0  0  0  0
  -18.2370  -26.6660   21.9210 C   0  0  0  0  0  2  0  0  0  0  0  0
  -19.3240  -28.6440   23.1350 C   0  0  0  0  0  0  0  0  0  0  0  0
  -19.1870  -29.8600   23.8400 C   0  0  0  0  0  3  0  0  0  0  0  0
  -17.9140  -30.3930   24.1200 C   0  0  0  0  0  3  0  0  0  0  0  0
  -16.7590  -29.7030   23.7100 C   0  0  0  0  0  3  0  0  0  0  0  0
  -16.8800  -28.4880   23.0120 C   0  0  0  0  0  3  0  0  0  0  0  0
  -26.1840  -32.0440   23.5520 C   0  0  0  0  0  3  0  0  0  0  0  0
  -25.9310  -33.4230   24.0000 N   0  0  0  0  0  0  0  0  0  0  0  0
  -26.2960  -34.5230   23.3270 C   0  0  0  0  0  0  0  0  0  0  0  0
  -26.9490  -34.4800   22.2810 O   0  0  0  0  0  0  0  0  0  0  0  0
  -25.3540  -33.5320   24.8210 H   0  0  0  0  0  0  0  0  0  0  0  0
  -24.6440  -36.4110   23.1480 C   0  0  0  0  0  1  0  0  0  0  0  0
  -25.8730  -35.8870   23.9070 C   0  0  0  0  0  3  0  0  0  0  0  0
  -28.0470  -36.6180   24.7890 C   0  0  0  0  0  1  0  0  0  0  0  0
  -26.9480  -36.9040   23.8690 N   0  0  0  0  0  0  0  0  0  0  0  0
  -26.5810  -37.8260   24.0910 H   0  0  0  0  0  0  0  0  0  0  0  0
  -26.7290  -31.1690   24.7480 C   0  0  1  0  0  0  0  0  0  0  0  0
  -25.6760  -30.8960   25.8470 C   0  0  0  0  0  1  0  0  0  0  0  0
  -27.2410  -29.8020   24.2390 C   0  0  0  0  0  1  0  0  0  0  0  0
  -27.9360  -31.8750   25.4090 C   0  0  0  0  0  1  0  0  0  0  0  0
  1  2  1  0
  3  5  1  0
  3  4  1  0
  4  1  1  0
  5 10  1  0
  5  2  1  0
  6  3  1  0
  7  6  1  0
  7 10  1  0
  8  4  1  0
 10  9  1  0
 11 14  1  0
 11  6  1  0
 12 11  1  0
 13 11  1  0
 15 16  1  0
 15 14  2  0
 17 23  1  0
 17 16  1  0
 18 23  1  0
 19 20  1  0
 19 18  1  0
 20 21  1  0
 21 28  1  0
 21 22  1  0
 23 22  1  0
 24 17  2  0
 25 26  2  0
 26 45  1  0
 27 26  1  0
 27 30  1  0
 28 29  1  0
 28 25  1  0
 29 27  2  0
 30 31  1  0
 31 32  2  0
 33 36  1  0
 33 32  1  0
 34 33  2  0
 35 34  1  0
 35 30  2  0
 36 37  1  0
 37 38  1  0
 38 39  2  0
 40 39  1  0
 40 44  1  0
 41 40  2  0
 42 37  2  0
 42 41  1  0
 43 42  1  0
 45 46  1  0
 46 49  1  0
 46 48  1  0
 47 45  2  0
 50 25  1  0
 50 51  1  0
 52 50  1  0
 53 54  1  0
 53  7  1  0
 54 56  1  0
 55 66  2  0
 55 81  1  0
 56 61  1  0
 57 65  1  0
 57 67  1  0
 58 64  1  0
 58 60  1  0
 59 65  1  0
 60 59  1  0
 61 60  2  0
 62 63  1  0
 62 56  2  0
 63 58  2  0
 64 57  1  0
 65 55  1  0
 67 69  2  0
 68 67  1  0
 68 72  1  0
 70 68  1  0
 71 80  2  0
 71 76  1  0
 72 76  1  0
 73 72  1  0
 74 75  1  0
 74 73  1  0
 75 71  1  0
 76 77  2  0
 77 78  1  0
 79 78  2  0
 80 79  1  0
 81 82  1  0
 81 91  1  0
 82 85  1  0
 83 87  1  0
 83 82  1  0
 84 83  2  0
 86 87  1  0
 89 87  1  0
 89 90  1  0
 89 88  1  0
 91 94  1  1
 91 92  1  0
 93 91  1  0
M  ISO  4  16 100  17 100  53 101  54 101
M  END
>  <TORSDO>  (27) 
F 21

>  <SCORE>  (27) 
-9.187

>  <name>  (27) 
26

>  <ligand_id>  (27) 
26

>  <original_smiles>  (27) 
[H]c1c([H])c([H])c2c(c1[H])C([H])([H])C([H])([H])C([H])([H])C2([H])N([H])C(=O)C1([H])N(C(=O)C([H])(N([H])C(=O)C([H])(N([H])C([H])([H])[H])C([H])([H])[H])C(C([H])([H])[H])(C([H])([H])[H])C([H])([H])[H])C([H])([H])c2c([H])c(OC([H])([H])C3([H])N(C([H])([H])[H])C4([H])C([H])([H])C([H])([H])C([H])(C([H])([H])[H])C4([H])C3([H])[N+]([H])([H])C([H])([H])C([H])([H])C([H])([H])C(=O)N3C([H])([H])C([H])([H])C([H])([H])C([H])(n4nc(-c5c([H])c([H])c(Oc6c([H])c([H])c(F)c([H])c6F)c([H])c5[H])c(C(=O)N([H])[H])c4N([H])[H])C3([H])[H])c([H])c([H])c2C1([H])[H]

>  <smiles>  (27) 
[H]c1c([H])c([H])c2c(c1[H])C([H])([H])C([H])([H])C([H])([H])C2([H])N([H])C(=O)C1([H])N(C(=O)C([H])(N([H])C(=O)C([H])(N([H])C([H])([H])[H])C([H])([H])[H])C(C([H])([H])[H])(C([H])([H])[H])C([H])([H])[H])C([H])([H])c2c([H])c(OC([H])([H])C3([H])N(C([H])([H])[H])C4([H])C([H])([H])C([H])([H])C([H])(C([H])([H])[H])C4([H])C3([H])[N+]([H])([H])C([H])([H])C([H])([H])C([H])([H])C(=O)N3C([H])([H])C([H])([H])C([H])([H])C([H])(n4nc(-c5c([H])c([H])c(Oc6c([H])c([H])c(F)c([H])c6F)c([H])c5[H])c(C(=O)N([H])[H])c4N([H])[H])C3([H])[H])c([H])c([H])c2C1([H])[H]

$$$$
27:0:0
     RDKit          3D

 94103  0  0  1  0  0  0  0  0999 V2000
  -29.8800  -20.1690   20.8480 C   0  0  0  0  0  3  0  0  0  0  0  0
  -29.1000  -18.5230   17.3460 C   0  0  0  0  0  2  0  0  0  0  0  0
  -30.8370  -17.8430   18.1500 C   0  0  0  0  0  2  0  0  0  0  0  0
  -28.6870  -16.6250   19.0190 C   0  0  0  0  0  2  0  0  0  0  0  0
  -29.5040  -17.1340   17.8310 C   0  0  0  0  0  3  0  0  0  0  0  0
  -29.9390  -19.0280   18.5360 C   0  0  0  0  0  3  0  0  0  0  0  0
  -29.0970  -17.3420   20.3490 C   0  0  0  0  0  3  0  0  0  0  0  0
  -29.3060  -18.9470   19.9490 C   0  0  0  0  0  3  0  0  0  0  0  0
  -30.1040  -16.4010   21.2330 C   0  0  0  0  0  2  0  0  0  0  0  0
  -30.7730  -15.0190   20.7380 C   0  0  0  0  0  0  0  0  0  0  0  0
  -30.6140  -12.7420   19.7310 C   0  0  0  0  0  2  0  0  0  0  0  0
  -29.7600  -12.8510   18.4510 C   0  0  0  0  0  2  0  0  0  0  0  0
  -28.2720  -12.6520   18.8020 C   0  0  0  0  0  2  0  0  0  0  0  0
  -27.8180  -13.5220   20.0060 C   0  0  0  0  0  3  0  0  0  0  0  0
  -28.8190  -13.4650   21.1820 C   0  0  0  0  0  2  0  0  0  0  0  0
  -30.1490  -13.7950   20.6630 N   0  0  0  0  0  0  0  0  0  0  0  0
  -31.9470  -15.0950   20.3650 O   0  0  0  0  0  0  0  0  0  0  0  0
  -25.3910  -14.0790   20.6120 C   0  0  0  0  0  0  0  0  0  0  0  0
  -24.3250  -13.2890   20.9290 C   0  0  0  0  0  0  0  0  0  0  0  0
  -24.8150  -11.9470   20.9340 C   0  0  0  0  0  0  0  0  0  0  0  0
  -26.4610  -13.2160   20.4320 N   0  0  0  0  0  0  0  0  0  0  0  0
  -26.1200  -11.9300   20.6960 N   0  0  0  0  0  0  0  0  0  0  0  0
  -24.1080  -10.6700   21.0960 C   0  0  0  0  0  0  0  0  0  0  0  0
  -24.4930   -9.7320   22.0800 C   0  0  0  0  0  3  0  0  0  0  0  0
  -23.7860   -8.5180   22.2280 C   0  0  0  0  0  3  0  0  0  0  0  0
  -22.6800   -8.2340   21.3910 C   0  0  0  0  0  0  0  0  0  0  0  0
  -22.3140   -9.1600   20.3990 C   0  0  0  0  0  3  0  0  0  0  0  0
  -23.0230  -10.3650   20.2490 C   0  0  0  0  0  3  0  0  0  0  0  0
  -21.9540   -7.0670   21.4440 O   0  0  0  0  0  0  0  0  0  0  0  0
  -21.8110   -6.3600   22.6080 C   0  0  0  0  0  0  0  0  0  0  0  0
  -21.2090   -6.9240   23.7560 C   0  0  0  0  0  3  0  0  0  0  0  0
  -21.0180   -6.1410   24.9090 C   0  0  0  0  0  3  0  0  0  0  0  0
  -21.4170   -4.7910   24.9200 C   0  0  0  0  0  0  0  0  0  0  0  0
  -22.0100   -4.2230   23.7780 C   0  0  0  0  0  3  0  0  0  0  0  0
  -22.2000   -5.0040   22.6250 C   0  0  0  0  0  0  0  0  0  0  0  0
  -22.7530   -4.4470   21.5210 F   0  0  0  0  0  0  0  0  0  0  0  0
  -21.2260   -4.0350   26.0270 F   0  0  0  0  0  0  0  0  0  0  0  0
  -22.9050  -13.7350   21.1220 C   0  0  0  0  0  0  0  0  0  0  0  0
  -22.1430  -13.0380   21.9530 N   0  0  0  0  0  0  0  0  0  0  0  0
  -22.4750  -14.7420   20.5610 O   0  0  0  0  0  0  0  0  0  0  0  0
  -22.5000  -12.2280   22.4400 H   0  0  0  0  0  0  0  0  0  0  0  0
  -21.1880  -13.3290   22.1160 H   0  0  0  0  0  0  0  0  0  0  0  0
  -25.5370  -15.4530   20.4320 N   0  0  0  0  0  0  0  0  0  0  0  0
  -24.7540  -16.0930   20.5080 H   0  0  0  0  0  0  0  0  0  0  0  0
  -26.3950  -15.9020   20.1410 H   0  0  0  0  0  0  0  0  0  0  0  0
  -28.9750  -21.3980   21.0410 N   0  0  0  0  0  4  0  0  0  0  0  0
  -28.0070  -21.1370   20.9380 H   0  0  0  0  0  0  0  0  0  0  0  0
  -29.0940  -21.6430   22.0100 H   0  0  0  0  0  0  0  0  0  0  0  0
  -29.2370  -22.6890   20.2570 C   0  0  0  0  0  3  0  0  0  0  0  0
  -28.5050  -24.0480   20.7380 C   0  0  0  0  0  3  0  0  0  0  0  0
  -28.6030  -25.3590   19.8150 C   0  0  0  0  0  2  0  0  0  0  0  0
  -28.4320  -26.7300   20.3680 O   0  0  0  0  0  0  0  0  0  0  0  0
  -24.5690  -32.0350   23.3490 C   0  0  0  0  0  0  0  0  0  0  0  0
  -27.2620  -27.5080   20.2970 C   0  0  0  0  0  0  0  0  0  0  0  0
  -23.3860  -30.6180   21.7020 C   0  0  0  0  0  3  0  0  0  0  0  0
  -24.8650  -29.0790   20.2880 C   0  0  0  0  0  0  0  0  0  0  0  0
  -25.9220  -30.9720   21.5280 C   0  0  0  0  0  2  0  0  0  0  0  0
  -26.0220  -29.5930   20.8780 C   0  0  0  0  0  0  0  0  0  0  0  0
  -27.2200  -28.8180   20.8710 C   0  0  0  0  0  3  0  0  0  0  0  0
  -26.0750  -27.0280   19.7040 C   0  0  0  0  0  3  0  0  0  0  0  0
  -24.8920  -27.8020   19.6920 C   0  0  0  0  0  3  0  0  0  0  0  0
  -23.6180  -29.9410   20.3240 C   0  0  0  0  0  2  0  0  0  0  0  0
  -24.6440  -31.2270   22.2500 N   0  0  0  0  0  0  0  0  0  0  0  0
  -23.4810  -32.2940   23.8820 O   0  0  0  0  0  0  0  0  0  0  0  0
  -22.7360  -29.5960   22.6630 C   0  0  0  0  0  0  0  0  0  0  0  0
  -21.4240  -29.3690   22.5070 N   0  0  0  0  0  0  0  0  0  0  0  0
  -23.4160  -29.0090   23.5090 O   0  0  0  0  0  0  0  0  0  0  0  0
  -20.9300  -29.8950   21.8000 H   0  0  0  0  0  0  0  0  0  0  0  0
  -18.0870  -28.0340   22.9200 C   0  0  0  0  0  0  0  0  0  0  0  0
  -20.6220  -28.4170   23.2740 C   0  0  0  0  0  3  0  0  0  0  0  0
  -20.8100  -26.9790   22.7370 C   0  0  0  0  0  2  0  0  0  0  0  0
  -19.7610  -26.5790   21.6950 C   0  0  0  0  0  2  0  0  0  0  0  0
  -18.3510  -26.6790   22.2860 C   0  0  0  0  0  2  0  0  0  0  0  0
  -19.1540  -28.8560   23.3720 C   0  0  0  0  0  0  0  0  0  0  0  0
  -18.8590  -30.1210   23.9230 C   0  0  0  0  0  3  0  0  0  0  0  0
  -17.5270  -30.5650   24.0360 C   0  0  0  0  0  3  0  0  0  0  0  0
  -16.4730  -29.7420   23.6020 C   0  0  0  0  0  3  0  0  0  0  0  0
  -16.7540  -28.4810   23.0470 C   0  0  0  0  0  3  0  0  0  0  0  0
  -25.8440  -32.6860   23.9710 C   0  0  0  0  0  3  0  0  0  0  0  0
  -25.5340  -34.0940   24.2510 N   0  0  0  0  0  0  0  0  0  0  0  0
  -25.8760  -35.1240   23.4680 C   0  0  0  0  0  0  0  0  0  0  0  0
  -26.5610  -34.9900   22.4480 O   0  0  0  0  0  0  0  0  0  0  0  0
  -24.9470  -34.2770   25.0530 H   0  0  0  0  0  0  0  0  0  0  0  0
  -24.1710  -36.9200   23.0200 C   0  0  0  0  0  1  0  0  0  0  0  0
  -25.3840  -36.5250   23.8780 C   0  0  0  0  0  3  0  0  0  0  0  0
  -27.4910  -37.4310   24.7560 C   0  0  0  0  0  1  0  0  0  0  0  0
  -26.4220  -37.5730   23.7710 N   0  0  0  0  0  0  0  0  0  0  0  0
  -26.0110  -38.4960   23.8810 H   0  0  0  0  0  0  0  0  0  0  0  0
  -26.3370  -31.9610   25.2830 C   0  0  1  0  0  0  0  0  0  0  0  0
  -25.2250  -31.7610   26.3380 C   0  0  0  0  0  1  0  0  0  0  0  0
  -26.9350  -30.5730   24.9550 C   0  0  0  0  0  1  0  0  0  0  0  0
  -27.4670  -32.7820   25.9490 C   0  0  0  0  0  1  0  0  0  0  0  0
  -31.1970  -20.7650   23.0430 C   0  0  0  0  0  1  0  0  0  0  0  0
  -30.5240  -19.6890   22.1680 C   0  0  0  0  0  2  0  0  0  0  0  0
  1 46  1  0
  1 94  1  0
  3  6  1  0
  4  7  1  0
  5  2  1  0
  5  3  1  0
  5  4  1  0
  6  2  1  0
  6  8  1  0
  7  9  1  0
  8  7  1  0
  8  1  1  0
 10  9  1  0
 11 16  1  0
 12 13  1  0
 12 11  1  0
 14 13  1  0
 14 21  1  0
 14 15  1  0
 16 10  1  0
 16 15  1  0
 17 10  2  0
 18 19  2  0
 19 20  1  0
 19 38  1  0
 20 23  1  0
 21 18  1  0
 21 22  1  0
 22 20  2  0
 23 24  1  0
 24 25  2  0
 26 29  1  0
 26 25  1  0
 27 26  2  0
 28 27  1  0
 28 23  2  0
 29 30  1  0
 30 35  2  0
 30 31  1  0
 31 32  2  0
 32 33  1  0
 33 37  1  0
 34 33  2  0
 35 34  1  0
 36 35  1  0
 38 39  1  0
 39 42  1  0
 39 41  1  0
 40 38  2  0
 43 44  1  0
 43 18  1  0
 45 43  1  0
 46 48  1  0
 47 46  1  0
 49 50  2  0
 49 46  1  0
 51 52  1  0
 51 50  1  0
 53 64  2  0
 54 52  1  0
 54 59  1  0
 55 63  1  0
 55 65  1  0
 56 62  1  0
 56 58  1  0
 57 63  1  0
 58 57  1  0
 59 58  2  0
 60 54  2  0
 61 60  1  0
 61 56  2  0
 62 55  1  0
 63 53  1  0
 65 67  2  0
 66 65  1  0
 68 66  1  0
 69 78  2  0
 69 74  1  0
 70 66  1  0
 70 74  1  0
 71 70  1  0
 72 73  1  0
 72 71  1  0
 73 69  1  0
 74 75  2  0
 75 76  1  0
 77 76  2  0
 78 77  1  0
 79 53  1  0
 79 80  1  0
 79 89  1  0
 80 83  1  0
 81 85  1  0
 81 80  1  0
 82 81  2  0
 85 84  1  0
 87 85  1  0
 87 88  1  0
 87 86  1  0
 89 92  1  1
 89 90  1  0
 91 89  1  0
 94 93  1  0
M  ISO  4   9 100  10 100  51 101  52 101
M  END
>  <TORSDO>  (28) 
F 23

>  <SCORE>  (28) 
-12.422

>  <name>  (28) 
27

>  <ligand_id>  (28) 
27

>  <original_smiles>  (28) 
[H]c1c([H])c([H])c2c(c1[H])C([H])([H])C([H])([H])C([H])([H])C2([H])N([H])C(=O)C1([H])N(C(=O)C([H])(N([H])C(=O)C([H])(N([H])C([H])([H])[H])C([H])([H])[H])C(C([H])([H])[H])(C([H])([H])[H])C([H])([H])[H])C([H])([H])c2c([H])c(OC([H])([H])C([H])([H])C([H])([H])[N+]([H])([H])C([H])(C([H])([H])C([H])([H])[H])C3([H])C([H])(C([H])([H])C(=O)N4C([H])([H])C([H])([H])C([H])([H])C([H])(n5nc(-c6c([H])c([H])c(Oc7c([H])c([H])c(F)c([H])c7F)c([H])c6[H])c(C(=O)N([H])[H])c5N([H])[H])C4([H])[H])C([H])([H])C4([H])C([H])([H])C3([H])C4([H])[H])c([H])c([H])c2C1([H])[H]

>  <smiles>  (28) 
[H]c1c([H])c([H])c2c(c1[H])C([H])([H])C([H])([H])C([H])([H])C2([H])N([H])C(=O)C1([H])N(C(=O)C([H])(N([H])C(=O)C([H])(N([H])C([H])([H])[H])C([H])([H])[H])C(C([H])([H])[H])(C([H])([H])[H])C([H])([H])[H])C([H])([H])c2c([H])c(OC([H])([H])C([H])([H])C([H])([H])[N+]([H])([H])C([H])(C([H])([H])C([H])([H])[H])C3([H])C([H])(C([H])([H])C(=O)N4C([H])([H])C([H])([H])C([H])([H])C([H])(n5nc(-c6c([H])c([H])c(Oc7c([H])c([H])c(F)c([H])c7F)c([H])c6[H])c(C(=O)N([H])[H])c5N([H])[H])C4([H])[H])C([H])([H])C4([H])C([H])([H])C3([H])C4([H])[H])c([H])c([H])c2C1([H])[H]

$$$$
28:0:0
     RDKit          3D

 95104  0  0  1  0  0  0  0  0999 V2000
  -31.6510  -20.1170   18.8490 C   0  0  0  0  0  1  0  0  0  0  0  0
  -30.2200  -19.7360   18.7290 N   0  0  1  0  0  4  0  0  0  0  0  0
  -30.0130  -19.9310   17.7560 H   0  0  0  0  0  0  0  0  0  0  0  0
  -29.9910  -18.2100   18.7920 C   0  0  0  0  0  2  0  0  0  0  0  0
  -31.2560  -14.4010   23.8490 C   0  0  0  0  0  2  0  0  0  0  0  0
  -32.3960  -14.0540   22.8860 C   0  0  0  0  0  2  0  0  0  0  0  0
  -30.7430  -15.8350   23.6240 C   0  0  0  0  0  2  0  0  0  0  0  0
  -31.9650  -14.1730   21.4100 C   0  0  0  0  0  2  0  0  0  0  0  0
  -32.0620  -17.1760   21.8530 C   0  0  0  0  0  2  0  0  0  0  0  0
  -31.7480  -17.9530   20.5880 C   0  0  0  0  0  2  0  0  0  0  0  0
  -30.5870  -15.6320   19.6570 C   0  0  0  0  0  3  0  0  0  0  0  0
  -30.8330  -16.3300   22.1610 C   0  0  0  0  0  3  0  0  0  0  0  0
  -30.7960  -15.1790   21.1500 C   0  0  0  0  0  3  0  0  0  0  0  0
  -31.1000  -17.1880   19.3700 C   0  0  0  0  0  3  0  0  0  0  0  0
  -30.8930  -14.4240   18.6180 C   0  0  0  0  0  0  0  0  0  0  0  0
  -30.0500  -12.4930   17.2300 C   0  0  0  0  0  2  0  0  0  0  0  0
  -28.8300  -12.9520   16.3910 C   0  0  0  0  0  2  0  0  0  0  0  0
  -27.5120  -12.8670   17.2020 C   0  0  0  0  0  2  0  0  0  0  0  0
  -27.6580  -13.4690   18.6250 C   0  0  0  0  0  3  0  0  0  0  0  0
  -28.9250  -12.9080   19.2890 C   0  0  0  0  0  2  0  0  0  0  0  0
  -30.0800  -13.3110   18.4660 N   0  0  0  0  0  0  0  0  0  0  0  0
  -31.8550  -14.5520   17.8550 O   0  0  0  0  0  0  0  0  0  0  0  0
  -25.6450  -14.1960   20.0520 C   0  0  0  0  0  0  0  0  0  0  0  0
  -24.6440  -13.4870   20.6500 C   0  0  0  0  0  0  0  0  0  0  0  0
  -24.9150  -12.1120   20.3740 C   0  0  0  0  0  0  0  0  0  0  0  0
  -26.4720  -13.2590   19.4510 N   0  0  0  0  0  0  0  0  0  0  0  0
  -26.0470  -11.9910   19.6920 N   0  0  0  0  0  0  0  0  0  0  0  0
  -24.1290  -10.9040   20.6570 C   0  0  0  0  0  0  0  0  0  0  0  0
  -24.6720   -9.8140   21.3670 C   0  0  0  0  0  3  0  0  0  0  0  0
  -23.8870   -8.6680   21.6420 C   0  0  0  0  0  3  0  0  0  0  0  0
  -22.5440   -8.6130   21.1990 C   0  0  0  0  0  0  0  0  0  0  0  0
  -22.0120   -9.6950   20.4710 C   0  0  0  0  0  3  0  0  0  0  0  0
  -22.7950  -10.8280   20.2020 C   0  0  0  0  0  3  0  0  0  0  0  0
  -21.7130   -7.5350   21.3930 O   0  0  0  0  0  0  0  0  0  0  0  0
  -21.8360   -6.7200   22.4900 C   0  0  0  0  0  0  0  0  0  0  0  0
  -21.7950   -7.2280   23.8080 C   0  0  0  0  0  3  0  0  0  0  0  0
  -21.8620   -6.3470   24.9060 C   0  0  0  0  0  3  0  0  0  0  0  0
  -21.9600   -4.9580   24.6880 C   0  0  0  0  0  0  0  0  0  0  0  0
  -22.0070   -4.4500   23.3780 C   0  0  0  0  0  3  0  0  0  0  0  0
  -21.9420   -5.3310   22.2830 C   0  0  0  0  0  0  0  0  0  0  0  0
  -21.9610   -4.8350   21.0220 F   0  0  0  0  0  0  0  0  0  0  0  0
  -22.0140   -4.1140   25.7430 F   0  0  0  0  0  0  0  0  0  0  0  0
  -23.4480  -14.0580   21.3570 C   0  0  0  0  0  0  0  0  0  0  0  0
  -22.9570  -13.3710   22.3800 N   0  0  0  0  0  0  0  0  0  0  0  0
  -22.9680  -15.1460   21.0330 O   0  0  0  0  0  0  0  0  0  0  0  0
  -23.3670  -12.4930   22.6670 H   0  0  0  0  0  0  0  0  0  0  0  0
  -22.1930  -13.7520   22.9190 H   0  0  0  0  0  0  0  0  0  0  0  0
  -25.9100  -15.5590   19.9480 N   0  0  0  0  0  0  0  0  0  0  0  0
  -25.2420  -16.2460   20.2860 H   0  0  0  0  0  0  0  0  0  0  0  0
  -26.6370  -15.9690   19.3790 H   0  0  0  0  0  0  0  0  0  0  0  0
  -29.2740  -20.7020   19.4650 C   0  0  0  0  0  2  0  0  0  0  0  0
  -28.9810  -22.1550   18.8200 C   0  0  0  0  0  2  0  0  0  0  0  0
  -28.4270  -23.3580   19.7450 C   0  0  0  0  0  3  0  0  0  0  0  0
  -28.2770  -24.8430   19.1270 C   0  0  0  0  0  3  0  0  0  0  0  0
  -28.0680  -26.0460   19.9860 O   0  0  0  0  0  0  0  0  0  0  0  0
  -24.4880  -31.5120   23.0830 C   0  0  0  0  0  0  0  0  0  0  0  0
  -26.9450  -26.9010   19.9410 C   0  0  0  0  0  0  0  0  0  0  0  0
  -23.2340  -30.1860   21.4200 C   0  0  0  0  0  3  0  0  0  0  0  0
  -24.6270  -28.6010   19.9710 C   0  0  0  0  0  0  0  0  0  0  0  0
  -25.7820  -30.4110   21.2400 C   0  0  0  0  0  2  0  0  0  0  0  0
  -25.8170  -29.0410   20.5680 C   0  0  0  0  0  0  0  0  0  0  0  0
  -26.9730  -28.2040   20.5430 C   0  0  0  0  0  3  0  0  0  0  0  0
  -25.7260  -26.5040   19.3480 C   0  0  0  0  0  3  0  0  0  0  0  0
  -24.5890  -27.3400   19.3560 C   0  0  0  0  0  3  0  0  0  0  0  0
  -23.4200  -29.5200   20.0320 C   0  0  0  0  0  2  0  0  0  0  0  0
  -24.5220  -30.7180   21.9730 N   0  0  0  0  0  0  0  0  0  0  0  0
  -23.4140  -31.8230   23.6200 O   0  0  0  0  0  0  0  0  0  0  0  0
  -22.5280  -29.1870   22.3660 C   0  0  0  0  0  0  0  0  0  0  0  0
  -21.1960  -29.0570   22.2220 N   0  0  0  0  0  0  0  0  0  0  0  0
  -23.1770  -28.5260   23.1800 O   0  0  0  0  0  0  0  0  0  0  0  0
  -20.7360  -29.6380   21.5350 H   0  0  0  0  0  0  0  0  0  0  0  0
  -17.7770  -27.9600   22.6670 C   0  0  0  0  0  0  0  0  0  0  0  0
  -20.3390  -28.1390   22.9750 C   0  0  0  0  0  3  0  0  0  0  0  0
  -20.4050  -26.7100   22.3870 C   0  0  0  0  0  2  0  0  0  0  0  0
  -19.3090  -26.4310   21.3550 C   0  0  0  0  0  2  0  0  0  0  0  0
  -17.9230  -26.6120   21.9810 C   0  0  0  0  0  2  0  0  0  0  0  0
  -18.9120  -28.6830   23.1210 C   0  0  0  0  0  0  0  0  0  0  0  0
  -18.7220  -29.9480   23.7200 C   0  0  0  0  0  3  0  0  0  0  0  0
  -17.4300  -30.4870   23.8750 C   0  0  0  0  0  3  0  0  0  0  0  0
  -16.3090  -29.7560   23.4450 C   0  0  0  0  0  3  0  0  0  0  0  0
  -16.4840  -28.4970   22.8450 C   0  0  0  0  0  3  0  0  0  0  0  0
  -25.7940  -32.0830   23.7220 C   0  0  0  0  0  3  0  0  0  0  0  0
  -25.5320  -33.4790   24.1030 N   0  0  0  0  0  0  0  0  0  0  0  0
  -25.8760  -34.5480   23.3720 C   0  0  0  0  0  0  0  0  0  0  0  0
  -26.5240  -34.4600   22.3250 O   0  0  0  0  0  0  0  0  0  0  0  0
  -24.9650  -33.6240   24.9260 H   0  0  0  0  0  0  0  0  0  0  0  0
  -24.1860  -36.3930   23.1320 C   0  0  0  0  0  1  0  0  0  0  0  0
  -25.4400  -35.9340   23.8890 C   0  0  0  0  0  3  0  0  0  0  0  0
  -27.6230  -36.7350   24.6750 C   0  0  0  0  0  1  0  0  0  0  0  0
  -26.4950  -36.9640   23.7760 N   0  0  0  0  0  0  0  0  0  0  0  0
  -26.1180  -37.8870   23.9720 H   0  0  0  0  0  0  0  0  0  0  0  0
  -26.2930  -31.2560   24.9690 C   0  0  1  0  0  0  0  0  0  0  0  0
  -25.1950  -31.0120   26.0330 C   0  0  0  0  0  1  0  0  0  0  0  0
  -26.8350  -29.8770   24.5300 C   0  0  0  0  0  1  0  0  0  0  0  0
  -27.4680  -31.9950   25.6560 C   0  0  0  0  0  1  0  0  0  0  0  0
  2  4  1  0
  2  1  1  0
  2 51  1  0
  2  3  1  6
  6  5  1  0
  7  5  1  0
  8  6  1  0
 10  9  1  0
 11 15  1  0
 11 13  1  0
 12  9  1  0
 12  7  1  0
 13  8  1  0
 13 12  1  0
 14  4  1  0
 14 11  1  0
 14 10  1  0
 16 21  1  0
 17 18  1  0
 17 16  1  0
 19 18  1  0
 19 20  1  0
 19 26  1  0
 21 15  1  0
 21 20  1  0
 22 15  2  0
 23 24  2  0
 24 43  1  0
 25 24  1  0
 25 28  1  0
 26 27  1  0
 26 23  1  0
 27 25  2  0
 28 29  1  0
 29 30  2  0
 31 34  1  0
 31 30  1  0
 32 31  2  0
 33 32  1  0
 33 28  2  0
 34 35  1  0
 35 36  1  0
 36 37  2  0
 38 37  1  0
 38 42  1  0
 39 38  2  0
 40 35  2  0
 40 39  1  0
 41 40  1  0
 43 44  1  0
 44 46  1  0
 44 47  1  0
 45 43  2  0
 48 23  1  0
 48 49  1  0
 50 48  1  0
 52 51  1  0
 52 53  1  0
 54 53  2  0
 54 55  1  0
 56 67  2  0
 57 55  1  0
 57 62  1  0
 58 66  1  0
 58 68  1  0
 59 65  1  0
 59 61  1  0
 60 66  1  0
 61 60  1  0
 62 61  2  0
 63 64  1  0
 63 57  2  0
 64 59  2  0
 65 58  1  0
 66 56  1  0
 68 70  2  0
 69 68  1  0
 71 69  1  0
 72 81  2  0
 72 77  1  0
 73 69  1  0
 73 77  1  0
 74 73  1  0
 75 76  1  0
 75 74  1  0
 76 72  1  0
 77 78  2  0
 78 79  1  0
 80 79  2  0
 81 80  1  0
 82 56  1  0
 82 83  1  0
 82 92  1  0
 83 86  1  0
 84 88  1  0
 84 83  1  0
 85 84  2  0
 88 87  1  0
 90 88  1  0
 90 91  1  0
 90 89  1  0
 92 95  1  1
 92 93  1  0
 94 92  1  0
M  ISO  4  11 100  15 100  54 101  55 101
M  END
>  <TORSDO>  (29) 
F 22

>  <SCORE>  (29) 
4.665

>  <name>  (29) 
28

>  <ligand_id>  (29) 
28

>  <original_smiles>  (29) 
[H]c1c([H])c([H])c2c(c1[H])C([H])([H])C([H])([H])C([H])([H])C2([H])N([H])C(=O)C1([H])N(C(=O)C([H])(N([H])C(=O)C([H])(N([H])C([H])([H])[H])C([H])([H])[H])C(C([H])([H])[H])(C([H])([H])[H])C([H])([H])[H])C([H])([H])c2c([H])c(OC([H])([H])C([H])([H])C([H])([H])C([H])([H])[N+]([H])(C([H])([H])[H])C([H])([H])C3([H])C([H])([H])C([H])([H])C4([H])C([H])([H])C([H])([H])C([H])([H])C([H])([H])C4([H])C3([H])C(=O)N3C([H])([H])C([H])([H])C([H])([H])C([H])(n4nc(-c5c([H])c([H])c(Oc6c([H])c([H])c(F)c([H])c6F)c([H])c5[H])c(C(=O)N([H])[H])c4N([H])[H])C3([H])[H])c([H])c([H])c2C1([H])[H]

>  <smiles>  (29) 
[H]c1c([H])c([H])c2c(c1[H])C([H])([H])C([H])([H])C([H])([H])C2([H])N([H])C(=O)C1([H])N(C(=O)C([H])(N([H])C(=O)C([H])(N([H])C([H])([H])[H])C([H])([H])[H])C(C([H])([H])[H])(C([H])([H])[H])C([H])([H])[H])C([H])([H])c2c([H])c(OC([H])([H])C([H])([H])C([H])([H])C([H])([H])[N+]([H])(C([H])([H])[H])C([H])([H])C3([H])C([H])([H])C([H])([H])C4([H])C([H])([H])C([H])([H])C([H])([H])C([H])([H])C4([H])C3([H])C(=O)N3C([H])([H])C([H])([H])C([H])([H])C([H])(n4nc(-c5c([H])c([H])c(Oc6c([H])c([H])c(F)c([H])c6F)c([H])c5[H])c(C(=O)N([H])[H])c4N([H])[H])C3([H])[H])c([H])c([H])c2C1([H])[H]

$$$$
29:0:0
     RDKit          3D

 95104  0  0  1  0  0  0  0  0999 V2000
  -30.4770  -21.2350   21.0270 C   0  0  0  0  0  3  0  0  0  0  0  0
  -29.0730  -23.0510   23.1100 C   0  0  0  0  0  2  0  0  0  0  0  0
  -27.1180  -23.0450   21.5950 C   0  0  0  0  0  2  0  0  0  0  0  0
  -29.7830  -23.9660   22.1020 C   0  0  0  0  0  2  0  0  0  0  0  0
  -27.9070  -23.9510   20.6380 C   0  0  0  0  0  2  0  0  0  0  0  0
  -28.2390  -22.1830   22.1710 C   0  0  0  0  0  3  0  0  0  0  0  0
  -29.1350  -22.0450   20.9380 C   0  0  0  0  0  3  0  0  0  0  0  0
  -29.3020  -23.4990   20.7880 N   0  0  0  0  0  0  0  0  0  0  0  0
  -30.4220  -19.9690   20.2360 N   0  0  0  0  0  4  0  0  0  0  0  0
  -29.6410  -20.0190   19.6000 H   0  0  0  0  0  0  0  0  0  0  0  0
  -31.2590  -19.9150   19.6780 H   0  0  0  0  0  0  0  0  0  0  0  0
  -30.3450  -18.7160   21.0470 C   0  0  0  0  0  2  0  0  0  0  0  0
  -30.4570  -17.4010   20.2310 C   0  0  0  0  0  2  0  0  0  0  0  0
  -30.3550  -16.1290   21.1230 C   0  0  0  0  0  2  0  0  0  0  0  0
  -31.0020  -14.8600   20.5130 C   0  0  0  0  0  0  0  0  0  0  0  0
  -30.8300  -12.5330   19.6850 C   0  0  0  0  0  2  0  0  0  0  0  0
  -29.9690  -12.4990   18.4070 C   0  0  0  0  0  2  0  0  0  0  0  0
  -28.4700  -12.3910   18.7530 C   0  0  0  0  0  2  0  0  0  0  0  0
  -28.0320  -13.4150   19.8350 C   0  0  0  0  0  3  0  0  0  0  0  0
  -29.0110  -13.3870   21.0310 C   0  0  0  0  0  2  0  0  0  0  0  0
  -30.3620  -13.6560   20.5140 N   0  0  0  0  0  0  0  0  0  0  0  0
  -32.1120  -15.0000   19.9900 O   0  0  0  0  0  0  0  0  0  0  0  0
  -25.6300  -14.1070   20.4470 C   0  0  0  0  0  0  0  0  0  0  0  0
  -24.5200  -13.3720   20.7650 C   0  0  0  0  0  0  0  0  0  0  0  0
  -24.9320  -12.0050   20.7400 C   0  0  0  0  0  0  0  0  0  0  0  0
  -26.6510  -13.1900   20.2530 N   0  0  0  0  0  0  0  0  0  0  0  0
  -26.2310  -11.9190   20.4830 N   0  0  0  0  0  0  0  0  0  0  0  0
  -24.1530  -10.7690   20.8900 C   0  0  0  0  0  0  0  0  0  0  0  0
  -24.5090   -9.7810   21.8360 C   0  0  0  0  0  3  0  0  0  0  0  0
  -23.7350   -8.6100   21.9740 C   0  0  0  0  0  3  0  0  0  0  0  0
  -22.5890   -8.4160   21.1660 C   0  0  0  0  0  0  0  0  0  0  0  0
  -22.2520   -9.3920   20.2110 C   0  0  0  0  0  3  0  0  0  0  0  0
  -23.0270  -10.5550   20.0710 C   0  0  0  0  0  3  0  0  0  0  0  0
  -21.7920   -7.2990   21.2120 O   0  0  0  0  0  0  0  0  0  0  0  0
  -21.6310   -6.5770   22.3680 C   0  0  0  0  0  0  0  0  0  0  0  0
  -21.1300   -7.1640   23.5500 C   0  0  0  0  0  3  0  0  0  0  0  0
  -20.9150   -6.3710   24.6950 C   0  0  0  0  0  3  0  0  0  0  0  0
  -21.1910   -4.9910   24.6570 C   0  0  0  0  0  0  0  0  0  0  0  0
  -21.6860   -4.4030   23.4800 C   0  0  0  0  0  3  0  0  0  0  0  0
  -21.9020   -5.1930   22.3370 C   0  0  0  0  0  0  0  0  0  0  0  0
  -22.3580   -4.6190   21.1990 F   0  0  0  0  0  0  0  0  0  0  0  0
  -20.9780   -4.2260   25.7540 F   0  0  0  0  0  0  0  0  0  0  0  0
  -23.1310  -13.8980   20.9890 C   0  0  0  0  0  0  0  0  0  0  0  0
  -22.3580  -13.2400   21.8460 N   0  0  0  0  0  0  0  0  0  0  0  0
  -22.7410  -14.9270   20.4400 O   0  0  0  0  0  0  0  0  0  0  0  0
  -22.6850  -12.4070   22.3110 H   0  0  0  0  0  0  0  0  0  0  0  0
  -21.4250  -13.5760   22.0410 H   0  0  0  0  0  0  0  0  0  0  0  0
  -25.8530  -15.4720   20.2850 N   0  0  0  0  0  0  0  0  0  0  0  0
  -25.1070  -16.1550   20.3600 H   0  0  0  0  0  0  0  0  0  0  0  0
  -26.7310  -15.8740   19.9840 H   0  0  0  0  0  0  0  0  0  0  0  0
  -31.7320  -22.1150   20.6880 C   0  0  0  0  0  2  0  0  0  0  0  0
  -31.6470  -23.1260   19.5070 C   0  0  0  0  0  2  0  0  0  0  0  0
  -32.1070  -24.5750   19.8530 C   0  0  0  0  0  2  0  0  0  0  0  0
  -31.2320  -25.6480   19.1630 C   0  0  0  0  0  2  0  0  0  0  0  0
  -31.0820  -26.8820   19.8980 O   0  0  0  0  0  0  0  0  0  0  0  0
  -26.1360  -29.7380   24.1690 C   0  0  0  0  0  0  0  0  0  0  0  0
  -29.7930  -27.3870   19.9920 C   0  0  0  0  0  0  0  0  0  0  0  0
  -25.3300  -28.9000   21.9890 C   0  0  0  0  0  3  0  0  0  0  0  0
  -27.1370  -28.3390   20.2790 C   0  0  0  0  0  0  0  0  0  0  0  0
  -27.7330  -29.7460   22.2530 C   0  0  0  0  0  2  0  0  0  0  0  0
  -28.1340  -28.7780   21.1580 C   0  0  0  0  0  0  0  0  0  0  0  0
  -29.4640  -28.3100   21.0160 C   0  0  0  0  0  3  0  0  0  0  0  0
  -28.7700  -26.9890   19.0980 C   0  0  0  0  0  3  0  0  0  0  0  0
  -27.4500  -27.4460   19.2430 C   0  0  0  0  0  3  0  0  0  0  0  0
  -25.7380  -28.8730   20.4930 C   0  0  0  0  0  2  0  0  0  0  0  0
  -26.4120  -29.4540   22.8650 N   0  0  0  0  0  0  0  0  0  0  0  0
  -24.9970  -29.5800   24.6330 O   0  0  0  0  0  0  0  0  0  0  0  0
  -24.8700  -27.4840   22.4050 C   0  0  0  0  0  0  0  0  0  0  0  0
  -23.6920  -27.0680   21.9130 N   0  0  0  0  0  0  0  0  0  0  0  0
  -25.5750  -26.7780   23.1300 O   0  0  0  0  0  0  0  0  0  0  0  0
  -23.1700  -27.7080   21.3310 H   0  0  0  0  0  0  0  0  0  0  0  0
  -20.8730  -24.9840   21.0380 C   0  0  0  0  0  0  0  0  0  0  0  0
  -23.0760  -25.7610   22.1420 C   0  0  0  0  0  3  0  0  0  0  0  0
  -23.7670  -24.6660   21.2990 C   0  0  0  0  0  2  0  0  0  0  0  0
  -23.0870  -24.4270   19.9470 C   0  0  0  0  0  2  0  0  0  0  0  0
  -21.6260  -24.0110   20.1460 C   0  0  0  0  0  2  0  0  0  0  0  0
  -21.5540  -25.8170   21.9630 C   0  0  0  0  0  0  0  0  0  0  0  0
  -20.8090  -26.7270   22.7430 C   0  0  0  0  0  3  0  0  0  0  0  0
  -19.4100  -26.8130   22.6110 C   0  0  0  0  0  3  0  0  0  0  0  0
  -18.7380  -25.9740   21.7040 C   0  0  0  0  0  3  0  0  0  0  0  0
  -19.4690  -25.0600   20.9240 C   0  0  0  0  0  3  0  0  0  0  0  0
  -27.2290  -30.2950   25.1320 C   0  0  0  0  0  3  0  0  0  0  0  0
  -27.5320  -29.3370   26.3480 C   0  0  1  0  0  0  0  0  0  0  0  0
  -26.2670  -28.9080   27.1270 C   0  0  0  0  0  1  0  0  0  0  0  0
  -28.2490  -28.0530   25.8700 C   0  0  0  0  0  1  0  0  0  0  0  0
  -28.4920  -30.0350   27.3400 C   0  0  0  0  0  1  0  0  0  0  0  0
  -26.7740  -31.6090   25.6030 N   0  0  0  0  0  0  0  0  0  0  0  0
  -27.2360  -32.7820   25.1500 C   0  0  0  0  0  0  0  0  0  0  0  0
  -28.1540  -32.8680   24.3300 O   0  0  0  0  0  0  0  0  0  0  0  0
  -25.9810  -31.6150   26.2310 H   0  0  0  0  0  0  0  0  0  0  0  0
  -25.6120  -34.6330   24.6380 C   0  0  0  0  0  1  0  0  0  0  0  0
  -26.5760  -34.0630   25.6920 C   0  0  0  0  0  3  0  0  0  0  0  0
  -28.3230  -34.7450   27.2780 C   0  0  0  0  0  1  0  0  0  0  0  0
  -27.5490  -35.1030   26.0920 N   0  0  0  0  0  0  0  0  0  0  0  0
  -27.0780  -35.9850   26.2750 H   0  0  0  0  0  0  0  0  0  0  0  0
  1 51  1  0
  4  2  1  0
  5  3  1  0
  6  3  1  0
  6  2  1  0
  7  1  1  0
  7  6  1  0
  8  5  1  0
  8  7  1  0
  8  4  1  0
  9  1  1  0
  9 12  1  0
 10  9  1  0
 11  9  1  0
 13 12  1  0
 13 14  1  0
 15 21  1  0
 15 14  1  0
 16 21  1  0
 17 18  1  0
 17 16  1  0
 19 18  1  0
 19 26  1  0
 19 20  1  0
 21 20  1  0
 22 15  2  0
 23 24  2  0
 24 43  1  0
 25 24  1  0
 25 28  1  0
 26 23  1  0
 26 27  1  0
 27 25  2  0
 28 29  1  0
 29 30  2  0
 31 34  1  0
 31 30  1  0
 32 31  2  0
 33 32  1  0
 33 28  2  0
 34 35  1  0
 35 36  1  0
 36 37  2  0
 38 37  1  0
 38 42  1  0
 39 38  2  0
 40 35  2  0
 40 39  1  0
 41 40  1  0
 43 44  1  0
 44 47  1  0
 44 46  1  0
 45 43  2  0
 48 49  1  0
 48 23  1  0
 50 48  1  0
 52 53  1  0
 52 51  1  0
 54 53  1  0
 54 55  1  0
 55 57  1  0
 56 67  2  0
 57 62  1  0
 58 68  1  0
 58 66  1  0
 59 65  1  0
 59 61  1  0
 60 66  1  0
 61 60  1  0
 62 61  2  0
 63 64  1  0
 63 57  2  0
 64 59  2  0
 65 58  1  0
 66 56  1  0
 68 70  2  0
 69 68  1  0
 71 69  1  0
 72 77  1  0
 73 69  1  0
 74 73  1  0
 75 76  1  0
 75 74  1  0
 76 72  1  0
 77 73  1  0
 77 78  2  0
 79 78  1  0
 80 79  2  0
 81 72  2  0
 81 80  1  0
 82 56  1  0
 82 87  1  0
 82 83  1  0
 83 84  1  1
 83 86  1  0
 85 83  1  0
 87 90  1  0
 88 87  1  0
 88 92  1  0
 89 88  2  0
 92 91  1  0
 92 94  1  0
 94 95  1  0
 94 93  1  0
M  ISO  4  14 100  15 100  54 101  55 101
M  END
>  <TORSDO>  (30) 
F 25

>  <SCORE>  (30) 
-9.250

>  <name>  (30) 
29

>  <ligand_id>  (30) 
29

>  <original_smiles>  (30) 
[H]c1c([H])c([H])c2c(c1[H])C([H])([H])C([H])([H])C([H])([H])C2([H])N([H])C(=O)C1([H])N(C(=O)C([H])(N([H])C(=O)C([H])(N([H])C([H])([H])[H])C([H])([H])[H])C(C([H])([H])[H])(C([H])([H])[H])C([H])([H])[H])C([H])([H])c2c([H])c(OC([H])([H])C([H])([H])C([H])([H])C([H])([H])C([H])(C3([H])N4C([H])([H])C([H])([H])C3([H])C([H])([H])C4([H])[H])[N+]([H])([H])C([H])([H])C([H])([H])C([H])([H])C(=O)N3C([H])([H])C([H])([H])C([H])([H])C([H])(n4nc(-c5c([H])c([H])c(Oc6c([H])c([H])c(F)c([H])c6F)c([H])c5[H])c(C(=O)N([H])[H])c4N([H])[H])C3([H])[H])c([H])c([H])c2C1([H])[H]

>  <smiles>  (30) 
[H]c1c([H])c([H])c2c(c1[H])C([H])([H])C([H])([H])C([H])([H])C2([H])N([H])C(=O)C1([H])N(C(=O)C([H])(N([H])C(=O)C([H])(N([H])C([H])([H])[H])C([H])([H])[H])C(C([H])([H])[H])(C([H])([H])[H])C([H])([H])[H])C([H])([H])c2c([H])c(OC([H])([H])C([H])([H])C([H])([H])C([H])([H])C([H])(C3([H])N4C([H])([H])C([H])([H])C3([H])C([H])([H])C4([H])[H])[N+]([H])([H])C([H])([H])C([H])([H])C([H])([H])C(=O)N3C([H])([H])C([H])([H])C([H])([H])C([H])(n4nc(-c5c([H])c([H])c(Oc6c([H])c([H])c(F)c([H])c6F)c([H])c5[H])c(C(=O)N([H])[H])c4N([H])[H])C3([H])[H])c([H])c([H])c2C1([H])[H]

$$$$
30:0:0
     RDKit          3D

 94103  0  0  1  0  0  0  0  0999 V2000
  -29.8040  -20.0190   20.7130 C   0  0  0  0  0  3  0  0  0  0  0  0
  -31.3120  -21.9860   25.0800 C   0  0  0  0  0  2  0  0  0  0  0  0
  -32.4550  -21.2080   24.3950 C   0  0  0  0  0  2  0  0  0  0  0  0
  -30.2140  -22.2310   24.0200 C   0  0  0  0  0  2  0  0  0  0  0  0
  -30.9350  -19.4480   23.1120 C   0  0  0  0  0  2  0  0  0  0  0  0
  -31.8740  -20.6610   23.1090 C   0  0  0  0  0  3  0  0  0  0  0  0
  -30.6620  -21.5020   22.7580 C   0  0  0  0  0  3  0  0  0  0  0  0
  -29.9340  -20.2390   22.2430 C   0  0  0  0  0  3  0  0  0  0  0  0
  -29.3460  -18.5990   20.4160 N   0  0  0  0  0  4  0  0  0  0  0  0
  -28.6420  -18.3620   21.0930 H   0  0  0  0  0  0  0  0  0  0  0  0
  -28.8800  -18.6280   19.5250 H   0  0  0  0  0  0  0  0  0  0  0  0
  -30.3530  -17.4540   20.3050 C   0  0  0  0  0  3  0  0  0  0  0  0
  -29.8360  -16.0080   20.7440 C   0  0  0  0  0  3  0  0  0  0  0  0
  -30.6620  -14.7190   20.3320 C   0  0  0  0  0  0  0  0  0  0  0  0
  -30.4410  -12.5050   19.2130 C   0  0  0  0  0  2  0  0  0  0  0  0
  -29.4890  -12.6670   18.0040 C   0  0  0  0  0  2  0  0  0  0  0  0
  -28.0210  -12.4900   18.4390 C   0  0  0  0  0  2  0  0  0  0  0  0
  -27.6700  -13.3350   19.6900 C   0  0  0  0  0  3  0  0  0  0  0  0
  -28.7330  -13.1680   20.8000 C   0  0  0  0  0  2  0  0  0  0  0  0
  -30.0450  -13.5000   20.2290 N   0  0  0  0  0  0  0  0  0  0  0  0
  -31.8290  -14.8620   19.9540 O   0  0  0  0  0  0  0  0  0  0  0  0
  -25.2720  -13.9330   20.3960 C   0  0  0  0  0  0  0  0  0  0  0  0
  -24.2080  -13.1550   20.7680 C   0  0  0  0  0  0  0  0  0  0  0  0
  -24.6820  -11.8080   20.7600 C   0  0  0  0  0  0  0  0  0  0  0  0
  -26.3230  -13.0540   20.1780 N   0  0  0  0  0  0  0  0  0  0  0  0
  -25.9740  -11.7740   20.4610 N   0  0  0  0  0  0  0  0  0  0  0  0
  -23.9670  -10.5420   20.9620 C   0  0  0  0  0  0  0  0  0  0  0  0
  -24.4030   -9.5920   21.9100 C   0  0  0  0  0  3  0  0  0  0  0  0
  -23.6880   -8.3900   22.0980 C   0  0  0  0  0  3  0  0  0  0  0  0
  -22.5260   -8.1290   21.3360 C   0  0  0  0  0  0  0  0  0  0  0  0
  -22.1100   -9.0690   20.3750 C   0  0  0  0  0  3  0  0  0  0  0  0
  -22.8240  -10.2630   20.1860 C   0  0  0  0  0  3  0  0  0  0  0  0
  -21.7820   -6.9780   21.4320 O   0  0  0  0  0  0  0  0  0  0  0  0
  -21.7220   -6.2580   22.5980 C   0  0  0  0  0  0  0  0  0  0  0  0
  -21.2670   -6.8310   23.8050 C   0  0  0  0  0  3  0  0  0  0  0  0
  -21.1550   -6.0360   24.9630 C   0  0  0  0  0  3  0  0  0  0  0  0
  -21.4860   -4.6680   24.9150 C   0  0  0  0  0  0  0  0  0  0  0  0
  -21.9320   -4.0940   23.7100 C   0  0  0  0  0  3  0  0  0  0  0  0
  -22.0470   -4.8870   22.5550 C   0  0  0  0  0  0  0  0  0  0  0  0
  -22.4590   -4.3250   21.3920 F   0  0  0  0  0  0  0  0  0  0  0  0
  -21.3710   -3.9020   26.0230 F   0  0  0  0  0  0  0  0  0  0  0  0
  -22.8060  -13.6250   21.0260 C   0  0  0  0  0  0  0  0  0  0  0  0
  -22.0800  -12.9310   21.8960 N   0  0  0  0  0  0  0  0  0  0  0  0
  -22.3630  -14.6410   20.4920 O   0  0  0  0  0  0  0  0  0  0  0  0
  -22.4530  -12.1060   22.3430 H   0  0  0  0  0  0  0  0  0  0  0  0
  -21.1410  -13.2270   22.1180 H   0  0  0  0  0  0  0  0  0  0  0  0
  -25.4300  -15.3000   20.2010 N   0  0  0  0  0  0  0  0  0  0  0  0
  -24.6520  -15.9470   20.2770 H   0  0  0  0  0  0  0  0  0  0  0  0
  -26.2740  -15.7340   19.8500 H   0  0  0  0  0  0  0  0  0  0  0  0
  -28.8740  -21.1520   20.0430 C   0  0  0  0  0  2  0  0  0  0  0  0
  -28.9460  -22.6650   20.5640 C   0  0  0  0  0  3  0  0  0  0  0  0
  -28.2650  -23.8610   19.7630 C   0  0  0  0  0  3  0  0  0  0  0  0
  -28.1350  -25.2270   20.5680 C   0  0  0  0  0  2  0  0  0  0  0  0
  -28.2070  -26.5300   19.8870 O   0  0  0  0  0  0  0  0  0  0  0  0
  -24.6290  -31.8540   23.1960 C   0  0  0  0  0  0  0  0  0  0  0  0
  -27.0910  -27.3630   19.9550 C   0  0  0  0  0  0  0  0  0  0  0  0
  -23.3570  -30.5070   21.5640 C   0  0  0  0  0  3  0  0  0  0  0  0
  -24.7440  -28.9730   20.0620 C   0  0  0  0  0  0  0  0  0  0  0  0
  -25.8910  -30.8110   21.3010 C   0  0  0  0  0  2  0  0  0  0  0  0
  -25.9360  -29.4490   20.6240 C   0  0  0  0  0  0  0  0  0  0  0  0
  -27.1160  -28.6550   20.5590 C   0  0  0  0  0  3  0  0  0  0  0  0
  -25.8800  -26.9250   19.3850 C   0  0  0  0  0  3  0  0  0  0  0  0
  -24.7150  -27.7160   19.4370 C   0  0  0  0  0  3  0  0  0  0  0  0
  -23.5180  -29.8590   20.1640 C   0  0  0  0  0  2  0  0  0  0  0  0
  -24.6480  -31.0730   22.0770 N   0  0  0  0  0  0  0  0  0  0  0  0
  -23.5680  -32.1270   23.7720 O   0  0  0  0  0  0  0  0  0  0  0  0
  -22.7190  -29.4730   22.5210 C   0  0  0  0  0  0  0  0  0  0  0  0
  -21.3920  -29.3010   22.4210 N   0  0  0  0  0  0  0  0  0  0  0  0
  -23.4180  -28.8330   23.3100 O   0  0  0  0  0  0  0  0  0  0  0  0
  -20.8870  -29.8710   21.7580 H   0  0  0  0  0  0  0  0  0  0  0  0
  -18.0290  -28.0800   22.9430 C   0  0  0  0  0  0  0  0  0  0  0  0
  -20.5880  -28.3500   23.1910 C   0  0  0  0  0  3  0  0  0  0  0  0
  -20.6950  -26.9220   22.6040 C   0  0  0  0  0  2  0  0  0  0  0  0
  -19.5840  -26.6010   21.6000 C   0  0  0  0  0  2  0  0  0  0  0  0
  -18.2060  -26.7360   22.2550 C   0  0  0  0  0  2  0  0  0  0  0  0
  -19.1470  -28.8440   23.3690 C   0  0  0  0  0  0  0  0  0  0  0  0
  -18.9300  -30.1030   23.9700 C   0  0  0  0  0  3  0  0  0  0  0  0
  -17.6240  -30.5960   24.1560 C   0  0  0  0  0  3  0  0  0  0  0  0
  -16.5190  -29.8260   23.7470 C   0  0  0  0  0  3  0  0  0  0  0  0
  -16.7210  -28.5730   23.1420 C   0  0  0  0  0  3  0  0  0  0  0  0
  -25.9380  -32.4600   23.7910 C   0  0  0  0  0  3  0  0  0  0  0  0
  -25.6580  -33.8580   24.1480 N   0  0  0  0  0  0  0  0  0  0  0  0
  -25.9940  -34.9170   23.4010 C   0  0  0  0  0  0  0  0  0  0  0  0
  -26.6420  -34.8200   22.3550 O   0  0  0  0  0  0  0  0  0  0  0  0
  -25.0920  -34.0110   24.9700 H   0  0  0  0  0  0  0  0  0  0  0  0
  -24.2870  -36.7390   23.1170 C   0  0  0  0  0  1  0  0  0  0  0  0
  -25.5390  -36.3050   23.8940 C   0  0  0  0  0  3  0  0  0  0  0  0
  -27.7050  -37.1420   24.6900 C   0  0  0  0  0  1  0  0  0  0  0  0
  -26.5850  -37.3450   23.7750 N   0  0  0  0  0  0  0  0  0  0  0  0
  -26.1960  -38.2680   23.9520 H   0  0  0  0  0  0  0  0  0  0  0  0
  -26.4750  -31.6660   25.0440 C   0  0  1  0  0  0  0  0  0  0  0  0
  -25.4070  -31.4390   26.1410 C   0  0  0  0  0  1  0  0  0  0  0  0
  -27.0230  -30.2850   24.6170 C   0  0  0  0  0  1  0  0  0  0  0  0
  -27.6620  -32.4290   25.6800 C   0  0  0  0  0  1  0  0  0  0  0  0
  1 50  1  0
  3  2  1  0
  4  2  1  0
  6  5  1  0
  6  3  1  0
  7  6  1  0
  7  4  1  0
  8  1  1  0
  8  7  1  0
  8  5  1  0
  9  1  1  0
  9 10  1  0
 11  9  1  0
 12  9  1  0
 12 13  2  0
 14 13  1  0
 15 20  1  0
 16 17  1  0
 16 15  1  0
 18 17  1  0
 18 25  1  0
 18 19  1  0
 20 14  1  0
 20 19  1  0
 21 14  2  0
 22 23  2  0
 23 42  1  0
 24 23  1  0
 24 27  1  0
 25 22  1  0
 25 26  1  0
 26 24  2  0
 27 28  1  0
 28 29  2  0
 30 33  1  0
 30 29  1  0
 31 30  2  0
 32 31  1  0
 32 27  2  0
 33 34  1  0
 34 35  1  0
 35 36  2  0
 37 36  1  0
 37 41  1  0
 38 37  2  0
 39 34  2  0
 39 38  1  0
 40 39  1  0
 42 43  1  0
 43 46  1  0
 43 45  1  0
 44 42  2  0
 47 48  1  0
 47 22  1  0
 49 47  1  0
 50 51  1  0
 52 51  2  0
 52 53  1  0
 54 56  1  0
 54 53  1  0
 55 66  2  0
 56 61  1  0
 57 65  1  0
 57 67  1  0
 58 64  1  0
 58 60  1  0
 59 65  1  0
 60 59  1  0
 61 60  2  0
 62 63  1  0
 62 56  2  0
 63 58  2  0
 64 57  1  0
 65 55  1  0
 67 69  2  0
 68 67  1  0
 70 68  1  0
 71 80  2  0
 71 76  1  0
 72 68  1  0
 72 76  1  0
 73 72  1  0
 74 75  1  0
 74 73  1  0
 75 71  1  0
 76 77  2  0
 77 78  1  0
 79 78  2  0
 80 79  1  0
 81 55  1  0
 81 82  1  0
 81 91  1  0
 82 85  1  0
 83 87  1  0
 83 82  1  0
 84 83  2  0
 87 86  1  0
 89 87  1  0
 89 90  1  0
 89 88  1  0
 91 94  1  1
 91 92  1  0
 93 91  1  0
M  ISO  4  13 100  14 100  53 101  54 101
M  END
>  <TORSDO>  (31) 
F 24

>  <SCORE>  (31) 
-12.245

>  <name>  (31) 
30

>  <ligand_id>  (31) 
30

>  <original_smiles>  (31) 
[H]c1c([H])c([H])c2c(c1[H])C([H])([H])C([H])([H])C([H])([H])C2([H])N([H])C(=O)C1([H])N(C(=O)C([H])(N([H])C(=O)C([H])(N([H])C([H])([H])[H])C([H])([H])[H])C(C([H])([H])[H])(C([H])([H])[H])C([H])([H])[H])C([H])([H])c2c([H])c(OC([H])([H])C([H])([H])C([H])([H])C([H])([H])C([H])(C3([H])C([H])([H])C4([H])C([H])([H])C([H])([H])C([H])([H])C43[H])[N+]([H])([H])C([H])([H])C([H])([H])C(=O)N3C([H])([H])C([H])([H])C([H])([H])C([H])(n4nc(-c5c([H])c([H])c(Oc6c([H])c([H])c(F)c([H])c6F)c([H])c5[H])c(C(=O)N([H])[H])c4N([H])[H])C3([H])[H])c([H])c([H])c2C1([H])[H]

>  <smiles>  (31) 
[H]c1c([H])c([H])c2c(c1[H])C([H])([H])C([H])([H])C([H])([H])C2([H])N([H])C(=O)C1([H])N(C(=O)C([H])(N([H])C(=O)C([H])(N([H])C([H])([H])[H])C([H])([H])[H])C(C([H])([H])[H])(C([H])([H])[H])C([H])([H])[H])C([H])([H])c2c([H])c(OC([H])([H])C([H])([H])C([H])([H])C([H])([H])C([H])(C3([H])C([H])([H])C4([H])C([H])([H])C([H])([H])C([H])([H])C43[H])[N+]([H])([H])C([H])([H])C([H])([H])C(=O)N3C([H])([H])C([H])([H])C([H])([H])C([H])(n4nc(-c5c([H])c([H])c(Oc6c([H])c([H])c(F)c([H])c6F)c([H])c5[H])c(C(=O)N([H])[H])c4N([H])[H])C3([H])[H])c([H])c([H])c2C1([H])[H]

$$$$
31:0:0
     RDKit          3D

103112  0  0  1  0  0  0  0  0999 V2000
  -26.3960  -21.5690   17.8730 C   0  0  0  0  0  2  0  0  0  0  0  0
  -31.0570  -22.5710   19.2450 C   0  0  0  0  0  2  0  0  0  0  0  0
  -31.0570  -21.5130   20.3720 C   0  0  0  0  0  2  0  0  0  0  0  0
  -27.1200  -22.6530   18.6720 C   0  0  0  0  0  2  0  0  0  0  0  0
  -28.6410  -21.0720   19.9320 C   0  0  0  0  0  2  0  0  0  0  0  0
  -27.4790  -21.0350   16.9330 C   0  0  0  0  0  2  0  0  0  0  0  0
  -29.6810  -23.2830   19.0200 C   0  0  0  0  0  3  0  0  0  0  0  0
  -30.0290  -20.4020   20.0940 C   0  0  0  0  0  3  0  0  0  0  0  0
  -28.5780  -22.1530   18.8010 C   0  0  2  0  0  0  0  0  0  0  0  0
  -28.7750  -21.5000   17.4730 N   0  0  0  0  0  4  0  0  0  0  0  0
  -29.1170  -22.1870   16.8180 H   0  0  0  0  0  0  0  0  0  0  0  0
  -29.4440  -20.7460   17.4760 H   0  0  0  0  0  0  0  0  0  0  0  0
  -30.0430  -19.3380   21.1440 N   0  0  0  0  0  4  0  0  0  0  0  0
  -29.1630  -19.3370   21.6370 H   0  0  0  0  0  0  0  0  0  0  0  0
  -30.7480  -19.5980   21.8170 H   0  0  0  0  0  0  0  0  0  0  0  0
  -30.3510  -17.9440   20.6940 C   0  0  0  0  0  3  0  0  0  0  0  0
  -29.7470  -16.7920   18.4740 C   0  0  0  0  0  1  0  0  0  0  0  0
  -29.2150  -17.3700   19.7950 C   0  0  0  0  0  2  0  0  0  0  0  0
  -30.7900  -17.0570   21.9100 C   0  0  0  0  0  2  0  0  0  0  0  0
  -30.3730  -15.5580   22.0110 C   0  0  0  0  0  2  0  0  0  0  0  0
  -30.9880  -14.5640   21.0000 C   0  0  0  0  0  0  0  0  0  0  0  0
  -30.7090  -12.5460   19.5840 C   0  0  0  0  0  2  0  0  0  0  0  0
  -29.8230  -12.8740   18.3650 C   0  0  0  0  0  2  0  0  0  0  0  0
  -28.3270  -12.7420   18.7160 C   0  0  0  0  0  2  0  0  0  0  0  0
  -27.9520  -13.4690   20.0370 C   0  0  0  0  0  3  0  0  0  0  0  0
  -28.9500  -13.0930   21.1550 C   0  0  0  0  0  2  0  0  0  0  0  0
  -30.3040  -13.4310   20.6860 N   0  0  0  0  0  0  0  0  0  0  0  0
  -32.0790  -14.8410   20.4890 O   0  0  0  0  0  0  0  0  0  0  0  0
  -25.5090  -14.0740   20.5900 C   0  0  0  0  0  0  0  0  0  0  0  0
  -24.4220  -13.3040   20.8970 C   0  0  0  0  0  0  0  0  0  0  0  0
  -24.8870  -11.9530   20.9010 C   0  0  0  0  0  0  0  0  0  0  0  0
  -26.5710  -13.1960   20.4290 N   0  0  0  0  0  0  0  0  0  0  0  0
  -26.1930  -11.9150   20.6700 N   0  0  0  0  0  0  0  0  0  0  0  0
  -24.1530  -10.6910   21.0560 C   0  0  0  0  0  0  0  0  0  0  0  0
  -24.5270   -9.7360   22.0280 C   0  0  0  0  0  3  0  0  0  0  0  0
  -23.7970   -8.5370   22.1720 C   0  0  0  0  0  3  0  0  0  0  0  0
  -22.6770   -8.2840   21.3410 C   0  0  0  0  0  0  0  0  0  0  0  0
  -22.3240   -9.2270   20.3600 C   0  0  0  0  0  3  0  0  0  0  0  0
  -23.0560  -10.4180   20.2150 C   0  0  0  0  0  3  0  0  0  0  0  0
  -21.9290   -7.1330   21.3860 O   0  0  0  0  0  0  0  0  0  0  0  0
  -21.7800   -6.4150   22.5450 C   0  0  0  0  0  0  0  0  0  0  0  0
  -21.2200   -6.9840   23.7110 C   0  0  0  0  0  3  0  0  0  0  0  0
  -21.0230   -6.1890   24.8570 C   0  0  0  0  0  3  0  0  0  0  0  0
  -21.3800   -4.8280   24.8410 C   0  0  0  0  0  0  0  0  0  0  0  0
  -21.9300   -4.2570   23.6790 C   0  0  0  0  0  3  0  0  0  0  0  0
  -22.1280   -5.0480   22.5350 C   0  0  0  0  0  0  0  0  0  0  0  0
  -22.6390   -4.4880   21.4120 F   0  0  0  0  0  0  0  0  0  0  0  0
  -21.1850   -4.0630   25.9400 F   0  0  0  0  0  0  0  0  0  0  0  0
  -23.0100  -13.7820   21.0860 C   0  0  0  0  0  0  0  0  0  0  0  0
  -22.2330  -13.0820   21.9060 N   0  0  0  0  0  0  0  0  0  0  0  0
  -22.6020  -14.8060   20.5400 O   0  0  0  0  0  0  0  0  0  0  0  0
  -22.5750  -12.2470   22.3580 H   0  0  0  0  0  0  0  0  0  0  0  0
  -21.2830  -13.3780   22.0790 H   0  0  0  0  0  0  0  0  0  0  0  0
  -25.6830  -15.4430   20.4120 N   0  0  0  0  0  0  0  0  0  0  0  0
  -24.9030  -16.0880   20.4600 H   0  0  0  0  0  0  0  0  0  0  0  0
  -26.5510  -15.8760   20.1260 H   0  0  0  0  0  0  0  0  0  0  0  0
  -29.4450  -24.4540   20.0770 C   0  0  0  0  0  3  0  0  0  0  0  0
  -30.6520  -25.3030   20.2340 N   0  0  0  0  0  4  0  0  0  0  0  0
  -30.9300  -25.7280   19.3650 H   0  0  0  0  0  0  0  0  0  0  0  0
  -31.4310  -24.7880   20.6060 H   0  0  0  0  0  0  0  0  0  0  0  0
  -30.4410  -26.0540   20.8710 H   0  0  0  0  0  0  0  0  0  0  0  0
  -28.2690  -25.4220   19.7690 C   0  0  0  0  0  2  0  0  0  0  0  0
  -28.3490  -26.7370   20.3750 O   0  0  0  0  0  0  0  0  0  0  0  0
  -24.5290  -32.0070   23.3860 C   0  0  0  0  0  0  0  0  0  0  0  0
  -27.1900  -27.5070   20.3470 C   0  0  0  0  0  0  0  0  0  0  0  0
  -23.3460  -30.6100   21.7290 C   0  0  0  0  0  3  0  0  0  0  0  0
  -24.8120  -29.0690   20.3310 C   0  0  0  0  0  0  0  0  0  0  0  0
  -25.8840  -30.9360   21.5830 C   0  0  0  0  0  2  0  0  0  0  0  0
  -25.9680  -29.5630   20.9440 C   0  0  0  0  0  0  0  0  0  0  0  0
  -27.1590  -28.7910   20.9550 C   0  0  0  0  0  3  0  0  0  0  0  0
  -26.0020  -27.0470   19.7230 C   0  0  0  0  0  3  0  0  0  0  0  0
  -24.8250  -27.8080   19.7210 C   0  0  0  0  0  3  0  0  0  0  0  0
  -23.5750  -29.9370   20.3530 C   0  0  0  0  0  2  0  0  0  0  0  0
  -24.6050  -31.2010   22.2880 N   0  0  0  0  0  0  0  0  0  0  0  0
  -23.4400  -32.2910   23.9020 O   0  0  0  0  0  0  0  0  0  0  0  0
  -22.6680  -29.5930   22.6760 C   0  0  0  0  0  0  0  0  0  0  0  0
  -21.3460  -29.4170   22.5210 N   0  0  0  0  0  0  0  0  0  0  0  0
  -23.3300  -28.9660   23.5080 O   0  0  0  0  0  0  0  0  0  0  0  0
  -20.8700  -29.9730   21.8240 H   0  0  0  0  0  0  0  0  0  0  0  0
  -17.9510  -28.2590   22.9640 C   0  0  0  0  0  0  0  0  0  0  0  0
  -20.5080  -28.4860   23.2750 C   0  0  0  0  0  3  0  0  0  0  0  0
  -20.6050  -27.0540   22.6980 C   0  0  0  0  0  2  0  0  0  0  0  0
  -19.5130  -26.7470   21.6680 C   0  0  0  0  0  2  0  0  0  0  0  0
  -18.1220  -26.9090   22.2870 C   0  0  0  0  0  2  0  0  0  0  0  0
  -19.0720  -29.0050   23.4130 C   0  0  0  0  0  0  0  0  0  0  0  0
  -18.8610  -30.2720   24.0020 C   0  0  0  0  0  3  0  0  0  0  0  0
  -17.5600  -30.7900   24.1460 C   0  0  0  0  0  3  0  0  0  0  0  0
  -16.4530  -30.0380   23.7170 C   0  0  0  0  0  3  0  0  0  0  0  0
  -16.6480  -28.7730   23.1320 C   0  0  0  0  0  3  0  0  0  0  0  0
  -25.8090  -32.6310   24.0270 C   0  0  0  0  0  3  0  0  0  0  0  0
  -25.5090  -34.0360   24.3310 N   0  0  0  0  0  0  0  0  0  0  0  0
  -25.8800  -35.0760   23.5710 C   0  0  0  0  0  0  0  0  0  0  0  0
  -26.5840  -34.9520   22.5640 O   0  0  0  0  0  0  0  0  0  0  0  0
  -24.8910  -34.2090   25.1110 H   0  0  0  0  0  0  0  0  0  0  0  0
  -24.1970  -36.8900   23.1250 C   0  0  0  0  0  1  0  0  0  0  0  0
  -25.3930  -36.4740   23.9960 C   0  0  0  0  0  3  0  0  0  0  0  0
  -27.4970  -37.3300   24.9240 C   0  0  0  0  0  1  0  0  0  0  0  0
  -26.4450  -37.5110   23.9290 N   0  0  0  0  0  0  0  0  0  0  0  0
  -26.0440  -38.4360   24.0580 H   0  0  0  0  0  0  0  0  0  0  0  0
  -26.2890  -31.8690   25.3220 C   0  0  1  0  0  0  0  0  0  0  0  0
  -25.1640  -31.6320   26.3580 C   0  0  0  0  0  1  0  0  0  0  0  0
  -26.8880  -30.4910   24.9560 C   0  0  0  0  0  1  0  0  0  0  0  0
  -27.4170  -32.6690   26.0140 C   0  0  0  0  0  1  0  0  0  0  0  0
  1  4  1  0
  2  3  1  0
  5  8  1  0
  6 10  1  0
  6  1  1  0
  7  2  1  0
  7 57  1  0
  8  3  1  0
  8 13  1  0
  9  4  1  6
  9  7  1  0
  9  5  1  0
 10 12  1  0
 10  9  1  0
 11 10  1  0
 13 14  1  0
 13 15  1  0
 16 18  1  0
 16 13  1  0
 16 19  1  0
 17 18  1  0
 19 20  1  0
 21 20  1  0
 22 27  1  0
 23 24  1  0
 23 22  1  0
 25 24  1  0
 25 32  1  0
 25 26  1  0
 27 21  1  0
 27 26  1  0
 28 21  2  0
 29 30  2  0
 30 31  1  0
 30 49  1  0
 31 34  1  0
 32 29  1  0
 32 33  1  0
 33 31  2  0
 34 35  1  0
 35 36  2  0
 37 40  1  0
 37 36  1  0
 38 37  2  0
 39 38  1  0
 39 34  2  0
 40 41  1  0
 41 42  1  0
 42 43  2  0
 44 43  1  0
 44 48  1  0
 45 44  2  0
 46 41  2  0
 46 45  1  0
 47 46  1  0
 49 50  1  0
 50 53  1  0
 50 52  1  0
 51 49  2  0
 54 55  1  0
 54 29  1  0
 56 54  1  0
 57 62  1  0
 57 58  1  0
 58 60  1  0
 58 61  1  0
 59 58  1  0
 62 63  1  0
 64 75  2  0
 65 63  1  0
 65 70  1  0
 66 74  1  0
 66 76  1  0
 67 73  1  0
 67 69  1  0
 68 74  1  0
 69 70  2  0
 69 68  1  0
 71 65  2  0
 72 71  1  0
 72 67  2  0
 73 66  1  0
 74 64  1  0
 76 78  2  0
 77 76  1  0
 79 77  1  0
 80 89  2  0
 80 85  1  0
 81 77  1  0
 81 85  1  0
 82 81  1  0
 83 84  1  0
 83 82  1  0
 84 80  1  0
 85 86  2  0
 86 87  1  0
 88 87  2  0
 89 88  1  0
 90 64  1  0
 90 91  1  0
 90100  1  0
 91 94  1  0
 92 96  1  0
 92 91  1  0
 93 92  2  0
 96 95  1  0
 98 96  1  0
 98 99  1  0
 98 97  1  0
100103  1  1
100101  1  0
102100  1  0
M  ISO  4  20 100  21 100  62 101  63 101
M  END
>  <TORSDO>  (32) 
F 24

>  <SCORE>  (32) 
-12.017

>  <name>  (32) 
31

>  <ligand_id>  (32) 
31

>  <original_smiles>  (32) 
[H]c1c([H])c([H])c2c(c1[H])C([H])([H])C([H])([H])C([H])([H])C2([H])N([H])C(=O)C1([H])N(C(=O)C([H])(N([H])C(=O)C([H])(N([H])C([H])([H])[H])C([H])([H])[H])C(C([H])([H])[H])(C([H])([H])[H])C([H])([H])[H])C([H])([H])c2c([H])c(OC([H])([H])C([H])(C3([H])C([H])([H])C([H])([H])C([H])([N+]([H])([H])C([H])(C([H])([H])C([H])([H])[H])C([H])([H])C([H])([H])C(=O)N4C([H])([H])C([H])([H])C([H])([H])C([H])(n5nc(-c6c([H])c([H])c(Oc7c([H])c([H])c(F)c([H])c7F)c([H])c6[H])c(C(=O)N([H])[H])c5N([H])[H])C4([H])[H])C([H])([H])C34C([H])([H])C([H])([H])C([H])([H])[N+]4([H])[H])[N+]([H])([H])[H])c([H])c([H])c2C1([H])[H]

>  <smiles>  (32) 
[H]c1c([H])c([H])c2c(c1[H])C([H])([H])C([H])([H])C([H])([H])C2([H])N([H])C(=O)C1([H])N(C(=O)C([H])(N([H])C(=O)C([H])(N([H])C([H])([H])[H])C([H])([H])[H])C(C([H])([H])[H])(C([H])([H])[H])C([H])([H])[H])C([H])([H])c2c([H])c(OC([H])([H])C([H])(C3([H])C([H])([H])C([H])([H])C([H])([N+]([H])([H])C([H])(C([H])([H])C([H])([H])[H])C([H])([H])C([H])([H])C(=O)N4C([H])([H])C([H])([H])C([H])([H])C([H])(n5nc(-c6c([H])c([H])c(Oc7c([H])c([H])c(F)c([H])c7F)c([H])c6[H])c(C(=O)N([H])[H])c5N([H])[H])C4([H])[H])C([H])([H])C34C([H])([H])C([H])([H])C([H])([H])[N+]4([H])[H])[N+]([H])([H])[H])c([H])c([H])c2C1([H])[H]

$$$$
32:0:0
     RDKit          3D

101107  0  0  1  0  0  0  0  0999 V2000
  -26.9250  -19.6000   20.8560 C   0  0  0  0  0  0  0  0  0  0  0  0
  -26.6790  -19.9810   19.5920 C   0  0  0  0  0  2  0  0  0  0  0  0
  -29.4020  -18.6090   20.4870 C   0  0  0  0  0  2  0  0  0  0  0  0
  -30.1940  -17.5470   21.2920 C   0  0  0  0  0  2  0  0  0  0  0  0
  -26.5620  -17.3670   22.5920 C   0  0  0  0  0  2  0  0  0  0  0  0
  -23.7940  -21.9380   22.2890 C   0  0  0  0  0  2  0  0  0  0  0  0
  -23.4000  -19.8700   24.2220 C   0  0  0  0  0  2  0  0  0  0  0  0
  -28.1080  -18.6530   21.2650 C   0  0  0  0  0  3  0  0  0  0  0  0
  -26.0640  -20.0940   22.0520 C   0  0  0  0  0  3  0  0  0  0  0  0
  -29.3050  -16.2690   21.5190 C   0  0  0  0  0  3  0  0  0  0  0  0
  -27.7740  -17.1440   21.4400 C   0  0  0  0  0  3  0  0  0  0  0  0
  -25.8230  -18.8610   22.9480 C   0  0  0  0  0  3  0  0  0  0  0  0
  -24.4940  -20.4830   21.9620 C   0  0  0  0  0  3  0  0  0  0  0  0
  -24.2550  -19.3560   22.9760 C   0  0  0  0  0  3  0  0  0  0  0  0
  -22.4240  -22.0990   23.1980 C   0  0  0  0  0  3  0  0  0  0  0  0
  -22.9370  -21.3120   24.3610 N   0  0  0  0  0  0  0  0  0  0  0  0
  -23.7150  -21.8360   24.7590 H   0  0  0  0  0  0  0  0  0  0  0  0
  -30.1550  -14.9680   20.7140 C   0  0  0  0  0  0  0  0  0  0  0  0
  -30.3870  -12.6510   19.6000 C   0  0  0  0  0  2  0  0  0  0  0  0
  -29.5200  -12.5890   18.3150 C   0  0  0  0  0  2  0  0  0  0  0  0
  -28.0420  -12.3340   18.6660 C   0  0  0  0  0  2  0  0  0  0  0  0
  -27.5790  -13.2200   19.8520 C   0  0  0  0  0  3  0  0  0  0  0  0
  -28.5290  -13.1330   21.0480 C   0  0  0  0  0  2  0  0  0  0  0  0
  -29.7790  -13.6440   20.5560 N   0  0  0  0  0  0  0  0  0  0  0  0
  -31.3090  -15.1500   20.2620 O   0  0  0  0  0  0  0  0  0  0  0  0
  -25.2060  -13.8030   20.5400 C   0  0  0  0  0  0  0  0  0  0  0  0
  -24.1490  -13.0320   20.9170 C   0  0  0  0  0  0  0  0  0  0  0  0
  -24.6150  -11.6830   20.8760 C   0  0  0  0  0  0  0  0  0  0  0  0
  -26.2410  -12.9240   20.2950 N   0  0  0  0  0  0  0  0  0  0  0  0
  -25.9010  -11.6410   20.5620 N   0  0  0  0  0  0  0  0  0  0  0  0
  -23.8940  -10.4230   21.0480 C   0  0  0  0  0  0  0  0  0  0  0  0
  -24.3570   -9.4170   21.9230 C   0  0  0  0  0  3  0  0  0  0  0  0
  -23.6270   -8.2200   22.0780 C   0  0  0  0  0  3  0  0  0  0  0  0
  -22.4240   -8.0250   21.3570 C   0  0  0  0  0  0  0  0  0  0  0  0
  -21.9860   -9.0210   20.4660 C   0  0  0  0  0  3  0  0  0  0  0  0
  -22.7160  -10.2080   20.3080 C   0  0  0  0  0  3  0  0  0  0  0  0
  -21.6610   -6.8870   21.4270 O   0  0  0  0  0  0  0  0  0  0  0  0
  -21.6830   -6.0750   22.5310 C   0  0  0  0  0  0  0  0  0  0  0  0
  -21.4000   -6.5650   23.8250 C   0  0  0  0  0  3  0  0  0  0  0  0
  -21.3640   -5.6790   24.9190 C   0  0  0  0  0  3  0  0  0  0  0  0
  -21.6050   -4.3060   24.7230 C   0  0  0  0  0  0  0  0  0  0  0  0
  -21.8820   -3.8160   23.4340 C   0  0  0  0  0  3  0  0  0  0  0  0
  -21.9180   -4.6980   22.3410 C   0  0  0  0  0  0  0  0  0  0  0  0
  -22.1660   -4.2180   21.0990 F   0  0  0  0  0  0  0  0  0  0  0  0
  -21.5620   -3.4530   25.7730 F   0  0  0  0  0  0  0  0  0  0  0  0
  -22.7570  -13.5160   21.1880 C   0  0  0  0  0  0  0  0  0  0  0  0
  -22.0250  -12.8200   22.0490 N   0  0  0  0  0  0  0  0  0  0  0  0
  -22.3300  -14.5490   20.6750 O   0  0  0  0  0  0  0  0  0  0  0  0
  -22.3840  -11.9830   22.4830 H   0  0  0  0  0  0  0  0  0  0  0  0
  -21.0900  -13.1290   22.2740 H   0  0  0  0  0  0  0  0  0  0  0  0
  -25.3620  -15.1680   20.3580 N   0  0  0  0  0  0  0  0  0  0  0  0
  -24.6060  -15.8240   20.5190 H   0  0  0  0  0  0  0  0  0  0  0  0
  -26.2220  -15.6170   20.0780 H   0  0  0  0  0  0  0  0  0  0  0  0
  -21.8990  -23.7270   23.5070 C   0  0  0  0  0  2  0  0  0  0  0  0
  -20.4470  -24.4990   23.7960 N   0  0  0  0  0  4  0  0  0  0  0  0
  -20.2240  -24.3050   24.7590 H   0  0  0  0  0  0  0  0  0  0  0  0
  -19.7900  -23.9490   23.2680 H   0  0  0  0  0  0  0  0  0  0  0  0
  -19.9500  -26.1360   23.4840 C   0  0  0  0  0  1  0  0  0  0  0  0
  -21.0590  -27.6310   21.2660 C   0  0  0  0  0 15  0  0  0  0  0  0
  -22.9850  -27.2190   20.6120 C   0  0  0  0  0  1  0  0  0  0  0  0
  -24.7720  -27.0070   21.0300 O   0  0  0  0  0  0  0  0  0  0  0  0
  -24.6610  -31.9390   23.2320 C   0  0  0  0  0  0  0  0  0  0  0  0
  -26.0950  -27.2310   20.4370 C   0  0  0  0  0  3  0  0  0  0  0  0
  -23.4650  -30.6080   21.5840 C   0  0  0  0  0  3  0  0  0  0  0  0
  -24.8550  -29.3540   19.7870 C   0  0  0  0  0  3  0  0  0  0  0  0
  -25.9890  -30.8510   21.4250 C   0  0  0  0  0  2  0  0  0  0  0  0
  -25.9240  -29.5480   20.6620 C   0  0  0  0  0  3  0  0  0  0  0  0
  -26.7440  -28.4280   20.8820 C   0  0  0  0  0  2  0  0  0  0  0  0
  -25.8470  -27.2300   19.0920 C   0  0  0  0  0  2  0  0  0  0  0  0
  -24.9490  -28.2820   18.8440 C   0  0  0  0  0  2  0  0  0  0  0  0
  -23.6060  -30.1600   20.0790 C   0  0  0  0  0  2  0  0  0  0  0  0
  -24.7210  -31.1950   22.0980 N   0  0  0  0  0  0  0  0  0  0  0  0
  -23.5800  -32.2110   23.7770 O   0  0  0  0  0  0  0  0  0  0  0  0
  -23.0540  -29.5240   22.6150 C   0  0  0  0  0  0  0  0  0  0  0  0
  -21.8040  -29.4400   22.9740 N   0  0  0  0  0  0  0  0  0  0  0  0
  -23.8590  -28.8040   23.1870 O   0  0  0  0  0  0  0  0  0  0  0  0
  -21.1470  -30.1170   22.6150 H   0  0  0  0  0  0  0  0  0  0  0  0
  -18.5240  -27.9330   22.4050 C   0  0  0  0  0  0  0  0  0  0  0  0
  -21.2470  -28.2050   23.5400 C   0  0  0  0  0  2  0  0  0  0  0  0
  -22.0590  -26.4460   22.8650 C   0  0  0  0  0 15  0  0  0  0  0  0
  -20.5550  -25.4570   21.4140 C   0  0  0  0  0 15  0  0  0  0  0  0
  -18.8370  -26.4840   21.4050 C   0  0  0  0  0  1  0  0  0  0  0  0
  -19.5680  -28.6530   23.2610 C   0  0  0  0  0  0  0  0  0  0  0  0
  -19.1340  -29.8630   23.9210 C   0  0  0  0  0  3  0  0  0  0  0  0
  -17.8050  -30.3440   23.9580 C   0  0  0  0  0  3  0  0  0  0  0  0
  -16.8030  -29.5780   23.3510 C   0  0  0  0  0  3  0  0  0  0  0  0
  -17.1630  -28.4110   22.6090 C   0  0  0  0  0  3  0  0  0  0  0  0
  -25.9520  -32.5080   23.8680 C   0  0  0  0  0  3  0  0  0  0  0  0
  -25.6390  -33.8850   24.2630 N   0  0  0  0  0  0  0  0  0  0  0  0
  -25.9130  -34.9610   23.5180 C   0  0  0  0  0  0  0  0  0  0  0  0
  -26.5490  -34.8980   22.4620 O   0  0  0  0  0  0  0  0  0  0  0  0
  -25.0770  -34.0040   25.0950 H   0  0  0  0  0  0  0  0  0  0  0  0
  -24.1520  -36.7340   23.2610 C   0  0  0  0  0  1  0  0  0  0  0  0
  -25.4140  -36.3210   24.0340 C   0  0  0  0  0  3  0  0  0  0  0  0
  -27.5600  -37.1880   24.8480 C   0  0  0  0  0  1  0  0  0  0  0  0
  -26.4340  -37.3870   23.9390 N   0  0  0  0  0  0  0  0  0  0  0  0
  -26.0250  -38.2970   24.1330 H   0  0  0  0  0  0  0  0  0  0  0  0
  -26.4620  -31.6660   25.0980 C   0  0  1  0  0  0  0  0  0  0  0  0
  -25.3700  -31.3790   26.1550 C   0  0  0  0  0  1  0  0  0  0  0  0
  -27.0450  -30.3080   24.6410 C   0  0  0  0  0  1  0  0  0  0  0  0
  -27.6210  -32.4250   25.7850 C   0  0  0  0  0  1  0  0  0  0  0  0
  1  8  1  0
  2  1  2  0
  3  4  1  0
  4 10  1  0
  6 15  1  0
  7 16  1  0
  8  3  1  0
  8 11  1  0
  9  1  1  0
  9 12  1  0
 10 18  1  0
 11 10  1  0
 11  5  1  0
 12  5  1  0
 12 14  1  0
 13  9  1  0
 13  6  1  0
 13 14  1  0
 14  7  1  0
 15 54  1  0
 15 16  1  0
 16 17  1  0
 19 24  1  0
 20 21  1  0
 20 19  1  0
 22 21  1  0
 22 29  1  0
 22 23  1  0
 24 18  1  0
 24 23  1  0
 25 18  2  0
 26 27  2  0
 27 46  1  0
 28 27  1  0
 28 31  1  0
 29 26  1  0
 29 30  1  0
 30 28  2  0
 31 32  1  0
 32 33  2  0
 34 37  1  0
 34 33  1  0
 35 34  2  0
 36 35  1  0
 36 31  2  0
 37 38  1  0
 38 39  1  0
 39 40  2  0
 41 40  1  0
 41 45  1  0
 42 41  2  0
 43 38  2  0
 43 42  1  0
 44 43  1  0
 46 47  1  0
 47 50  1  0
 47 49  1  0
 48 46  2  0
 51 52  1  0
 51 26  1  0
 53 51  1  0
 54 55  1  0
 55 56  1  0
 57 55  1  0
 58 55  1  0
 60 61  1  0
 62 73  2  0
 63 68  1  0
 63 61  1  0
 64 72  1  0
 64 74  1  0
 65 70  1  0
 65 71  1  0
 65 67  1  0
 66 72  1  0
 67 68  1  0
 67 66  1  0
 69 63  1  0
 70 69  1  0
 71 64  1  0
 72 62  1  0
 74 75  1  0
 74 76  2  0
 75 79  1  0
 77 75  1  0
 78 87  2  0
 78 83  1  0
 82 78  1  0
 83 79  1  0
 83 84  2  0
 84 85  1  0
 86 85  2  0
 87 86  1  0
 88 62  1  0
 88 89  1  0
 88 98  1  0
 89 92  1  0
 90 94  1  0
 90 89  1  0
 91 90  2  0
 94 93  1  0
 96 94  1  0
 96 97  1  0
 96 95  1  0
 98101  1  1
 98 99  1  0
100 98  1  0
M  ISO  4  10 100  18 100  60 101  61 101
M  END
>  <TORSDO>  (33) 
F 21

>  <SCORE>  (33) 
82.733

>  <name>  (33) 
32

>  <ligand_id>  (33) 
32

>  <original_smiles>  (33) 
[H]C([H])=C1C2([H])C([H])([H])C([H])([H])C([H])(C(=O)N3C([H])([H])C([H])([H])C([H])([H])C([H])(n4nc(-c5c([H])c([H])c(Oc6c([H])c([H])c(F)c([H])c6F)c([H])c5[H])c(C(=O)N([H])[H])c4N([H])[H])C3([H])[H])C2([H])C([H])([H])C2([H])C1([H])C1([H])C([H])([H])C([H])(C([H])([H])[N+]([H])([H])C([H])([H])C([H])([H])C([H])([H])Oc3c([H])c([H])c4c(c3[H])C([H])([H])N(C(=O)C([H])(N([H])C(=O)C([H])(N([H])C([H])([H])[H])C([H])([H])[H])C(C([H])([H])[H])(C([H])([H])[H])C([H])([H])[H])C([H])(C(=O)N([H])C3([H])c5c([H])c([H])c([H])c([H])c5C([H])([H])C([H])([H])C3([H])[H])C4([H])[H])N([H])C([H])([H])C12[H]

>  <smiles>  (33) 
[H]C([H])=C1C2([H])C([H])([H])C([H])([H])C([H])(C(=O)N3C([H])([H])C([H])([H])C([H])([H])C([H])(n4nc(-c5c([H])c([H])c(Oc6c([H])c([H])c(F)c([H])c6F)c([H])c5[H])c(C(=O)N([H])[H])c4N([H])[H])C3([H])[H])C2([H])C([H])([H])C2([H])C1([H])C1([H])C([H])([H])C([H])(C([H])([H])[N+]([H])([H])C([H])([H])C([H])([H])C([H])([H])Oc3c([H])c([H])c4c(c3[H])C([H])([H])N(C(=O)C([H])(N([H])C(=O)C([H])(N([H])C([H])([H])[H])C([H])([H])[H])C(C([H])([H])[H])(C([H])([H])[H])C([H])([H])[H])C([H])(C(=O)N([H])C3([H])c5c([H])c([H])c([H])c([H])c5C([H])([H])C([H])([H])C3([H])[H])C4([H])[H])N([H])C([H])([H])C12[H]

$$$$
33:0:0
     RDKit          3D

 97106  0  0  1  0  0  0  0  0999 V2000
  -29.7690  -21.0330   20.9100 C   0  0  0  0  0  3  0  0  0  0  0  0
  -32.8290  -21.9460   26.1640 C   0  0  0  0  0  3  0  0  0  0  0  0
  -31.8160  -22.9070   26.3920 C   0  0  0  0  0  3  0  0  0  0  0  0
  -32.7820  -21.1100   25.0270 C   0  0  0  0  0  3  0  0  0  0  0  0
  -30.7450  -23.0490   25.4810 C   0  0  0  0  0  3  0  0  0  0  0  0
  -31.7040  -21.2620   24.1360 C   0  0  0  0  0  0  0  0  0  0  0  0
  -30.7150  -22.2070   24.3560 C   0  0  0  0  0  0  0  0  0  0  0  0
  -31.4380  -20.4700   22.8850 C   0  0  0  0  0  2  0  0  0  0  0  0
  -29.6710  -22.1730   23.2740 C   0  0  0  0  0  2  0  0  0  0  0  0
  -29.9950  -20.8890   22.4520 C   0  0  0  0  0  3  0  0  0  0  0  0
  -29.9830  -19.7600   20.1380 N   0  0  0  0  0  4  0  0  0  0  0  0
  -29.5800  -19.8650   19.2210 H   0  0  0  0  0  0  0  0  0  0  0  0
  -30.9770  -19.6960   19.9870 H   0  0  0  0  0  0  0  0  0  0  0  0
  -29.5620  -18.4360   20.7000 C   0  0  0  0  0  2  0  0  0  0  0  0
  -30.5730  -17.2930   20.3680 C   0  0  0  0  0  3  0  0  0  0  0  0
  -30.1810  -15.8780   20.9020 C   0  0  0  0  0  3  0  0  0  0  0  0
  -30.9020  -14.6820   20.2120 C   0  0  0  0  0  0  0  0  0  0  0  0
  -30.5740  -12.5520   18.9950 C   0  0  0  0  0  2  0  0  0  0  0  0
  -29.5570  -12.7930   17.8580 C   0  0  0  0  0  2  0  0  0  0  0  0
  -28.1110  -12.6310   18.3690 C   0  0  0  0  0  2  0  0  0  0  0  0
  -27.8500  -13.4240   19.6770 C   0  0  0  0  0  3  0  0  0  0  0  0
  -28.9690  -13.1630   20.7110 C   0  0  0  0  0  2  0  0  0  0  0  0
  -30.2550  -13.4920   20.0820 N   0  0  0  0  0  0  0  0  0  0  0  0
  -32.0040  -14.8830   19.6900 O   0  0  0  0  0  0  0  0  0  0  0  0
  -25.5430  -14.0250   20.6460 C   0  0  0  0  0  0  0  0  0  0  0  0
  -24.4720  -13.2500   21.0040 C   0  0  0  0  0  0  0  0  0  0  0  0
  -24.8710  -11.8980   20.7740 C   0  0  0  0  0  0  0  0  0  0  0  0
  -26.5280  -13.1420   20.2270 N   0  0  0  0  0  0  0  0  0  0  0  0
  -26.1310  -11.8500   20.3620 N   0  0  0  0  0  0  0  0  0  0  0  0
  -24.1080  -10.6460   20.8680 C   0  0  0  0  0  0  0  0  0  0  0  0
  -24.5880   -9.5430   21.6070 C   0  0  0  0  0  3  0  0  0  0  0  0
  -23.8280   -8.3560   21.6970 C   0  0  0  0  0  3  0  0  0  0  0  0
  -22.5750   -8.2670   21.0460 C   0  0  0  0  0  0  0  0  0  0  0  0
  -22.1130   -9.3600   20.2920 C   0  0  0  0  0  3  0  0  0  0  0  0
  -22.8720  -10.5380   20.2000 C   0  0  0  0  0  3  0  0  0  0  0  0
  -21.7800   -7.1460   21.0570 O   0  0  0  0  0  0  0  0  0  0  0  0
  -21.8310   -6.2380   22.0830 C   0  0  0  0  0  0  0  0  0  0  0  0
  -21.6050   -6.6160   23.4250 C   0  0  0  0  0  3  0  0  0  0  0  0
  -21.5980   -5.6380   24.4400 C   0  0  0  0  0  3  0  0  0  0  0  0
  -21.8060   -4.2850   24.1160 C   0  0  0  0  0  0  0  0  0  0  0  0
  -22.0230   -3.9060   22.7800 C   0  0  0  0  0  3  0  0  0  0  0  0
  -22.0330   -4.8790   21.7670 C   0  0  0  0  0  0  0  0  0  0  0  0
  -22.2220   -4.5070   20.4770 F   0  0  0  0  0  0  0  0  0  0  0  0
  -21.7910   -3.3440   25.0890 F   0  0  0  0  0  0  0  0  0  0  0  0
  -23.1210  -13.7360   21.4420 C   0  0  0  0  0  0  0  0  0  0  0  0
  -22.4350  -12.9660   22.2790 N   0  0  0  0  0  0  0  0  0  0  0  0
  -22.6860  -14.8290   21.0800 O   0  0  0  0  0  0  0  0  0  0  0  0
  -22.8000  -12.0780   22.5910 H   0  0  0  0  0  0  0  0  0  0  0  0
  -21.5300  -13.2680   22.6120 H   0  0  0  0  0  0  0  0  0  0  0  0
  -25.7540  -15.3990   20.6210 N   0  0  0  0  0  0  0  0  0  0  0  0
  -25.0240  -16.0620   20.8590 H   0  0  0  0  0  0  0  0  0  0  0  0
  -26.5910  -15.8440   20.2640 H   0  0  0  0  0  0  0  0  0  0  0  0
  -28.4220  -21.7660   20.5600 C   0  0  0  0  0  2  0  0  0  0  0  0
  -28.4780  -22.8700   19.4560 C   0  0  0  0  0  2  0  0  0  0  0  0
  -27.6130  -24.1380   19.7500 C   0  0  0  0  0  2  0  0  0  0  0  0
  -27.7740  -25.3000   18.7280 C   0  0  0  0  0  2  0  0  0  0  0  0
  -27.8380  -26.6160   19.3150 O   0  0  0  0  0  0  0  0  0  0  0  0
  -24.7640  -31.5920   23.3690 C   0  0  0  0  0  0  0  0  0  0  0  0
  -26.7170  -27.4120   19.4830 C   0  0  0  0  0  0  0  0  0  0  0  0
  -23.3150  -30.5830   21.6370 C   0  0  0  0  0  3  0  0  0  0  0  0
  -24.5020  -29.1370   19.8980 C   0  0  0  0  0  0  0  0  0  0  0  0
  -25.8480  -30.7100   21.3030 C   0  0  0  0  0  2  0  0  0  0  0  0
  -25.7420  -29.4490   20.4650 C   0  0  0  0  0  0  0  0  0  0  0  0
  -26.8480  -28.5930   20.2540 C   0  0  0  0  0  3  0  0  0  0  0  0
  -25.4530  -27.1110   18.9270 C   0  0  0  0  0  3  0  0  0  0  0  0
  -24.3520  -27.9690   19.1290 C   0  0  0  0  0  3  0  0  0  0  0  0
  -23.3640  -30.0990   20.1620 C   0  0  0  0  0  2  0  0  0  0  0  0
  -24.6650  -30.9660   22.1610 N   0  0  0  0  0  0  0  0  0  0  0  0
  -23.7540  -31.8870   24.0240 O   0  0  0  0  0  0  0  0  0  0  0  0
  -22.6140  -29.5000   22.4890 C   0  0  0  0  0  0  0  0  0  0  0  0
  -21.2770  -29.4240   22.3800 N   0  0  0  0  0  0  0  0  0  0  0  0
  -23.2680  -28.7340   23.2020 O   0  0  0  0  0  0  0  0  0  0  0  0
  -20.8130  -30.0930   21.7810 H   0  0  0  0  0  0  0  0  0  0  0  0
  -17.8480  -28.3440   22.7450 C   0  0  0  0  0  0  0  0  0  0  0  0
  -20.4130  -28.4550   23.0520 C   0  0  0  0  0  3  0  0  0  0  0  0
  -20.4550  -27.0840   22.3410 C   0  0  0  0  0  2  0  0  0  0  0  0
  -19.3490  -26.9110   21.2960 C   0  0  0  0  0  2  0  0  0  0  0  0
  -17.9690  -27.0570   21.9440 C   0  0  0  0  0  2  0  0  0  0  0  0
  -18.9970  -29.0090   23.2500 C   0  0  0  0  0  0  0  0  0  0  0  0
  -18.8310  -30.2180   23.9590 C   0  0  0  0  0  3  0  0  0  0  0  0
  -17.5500  -30.7620   24.1650 C   0  0  0  0  0  3  0  0  0  0  0  0
  -16.4160  -30.0920   23.6760 C   0  0  0  0  0  3  0  0  0  0  0  0
  -16.5660  -28.8840   22.9710 C   0  0  0  0  0  3  0  0  0  0  0  0
  -26.1460  -31.9880   23.9770 C   0  0  0  0  0  3  0  0  0  0  0  0
  -26.6700  -30.9610   25.0550 C   0  0  1  0  0  0  0  0  0  0  0  0
  -25.6360  -30.6400   26.1600 C   0  0  0  0  0  1  0  0  0  0  0  0
  -27.0800  -29.6290   24.3840 C   0  0  0  0  0  1  0  0  0  0  0  0
  -27.9420  -31.5190   25.7370 C   0  0  0  0  0  1  0  0  0  0  0  0
  -26.0040  -33.3280   24.5640 N   0  0  0  0  0  0  0  0  0  0  0  0
  -26.4340  -34.4590   23.9900 C   0  0  0  0  0  0  0  0  0  0  0  0
  -27.0620  -34.4740   22.9270 O   0  0  0  0  0  0  0  0  0  0  0  0
  -25.4500  -33.3980   25.4060 H   0  0  0  0  0  0  0  0  0  0  0  0
  -24.9180  -36.4650   24.0250 C   0  0  0  0  0  1  0  0  0  0  0  0
  -26.1150  -35.7850   24.7070 C   0  0  0  0  0  3  0  0  0  0  0  0
  -28.3490  -36.2590   25.6100 C   0  0  0  0  0  1  0  0  0  0  0  0
  -27.2610  -36.7190   24.7510 N   0  0  0  0  0  0  0  0  0  0  0  0
  -26.9670  -37.6370   25.0760 H   0  0  0  0  0  0  0  0  0  0  0  0
  1 53  1  0
  2  3  1  0
  4  2  2  0
  5  3  2  0
  6  7  2  0
  6  4  1  0
  7  5  1  0
  8  6  1  0
  9  7  1  0
 10  1  1  0
 10  8  1  0
 10  9  1  0
 11 14  1  0
 11  1  1  0
 12 11  1  0
 13 11  1  0
 15 14  1  0
 15 16  2  0
 17 16  1  0
 18 23  1  0
 19 20  1  0
 19 18  1  0
 21 20  1  0
 21 28  1  0
 21 22  1  0
 23 17  1  0
 23 22  1  0
 24 17  2  0
 25 26  2  0
 26 45  1  0
 27 30  1  0
 27 26  1  0
 28 29  1  0
 28 25  1  0
 29 27  2  0
 30 31  1  0
 31 32  2  0
 33 36  1  0
 33 32  1  0
 34 33  2  0
 35 34  1  0
 35 30  2  0
 36 37  1  0
 37 38  1  0
 38 39  2  0
 40 39  1  0
 40 44  1  0
 41 40  2  0
 42 37  2  0
 42 41  1  0
 43 42  1  0
 45 46  1  0
 46 48  1  0
 46 49  1  0
 47 45  2  0
 50 25  1  0
 50 51  1  0
 52 50  1  0
 54 55  1  0
 54 53  1  0
 56 57  1  0
 56 55  1  0
 57 59  1  0
 58 69  2  0
 59 64  1  0
 60 68  1  0
 60 70  1  0
 61 67  1  0
 61 63  1  0
 62 68  1  0
 63 62  1  0
 64 63  2  0
 65 66  1  0
 65 59  2  0
 66 61  2  0
 67 60  1  0
 68 58  1  0
 70 72  2  0
 71 70  1  0
 73 71  1  0
 74 83  2  0
 74 79  1  0
 75 71  1  0
 75 79  1  0
 76 75  1  0
 77 78  1  0
 77 76  1  0
 78 74  1  0
 79 80  2  0
 80 81  1  0
 82 81  2  0
 83 82  1  0
 84 58  1  0
 84 89  1  0
 84 85  1  0
 85 88  1  1
 85 86  1  0
 87 85  1  0
 89 92  1  0
 90 89  1  0
 90 94  1  0
 91 90  2  0
 94 93  1  0
 94 96  1  0
 96 97  1  0
 96 95  1  0
M  ISO  4  16 100  17 100  56 101  57 101
M  END
>  <TORSDO>  (34) 
F 25

>  <SCORE>  (34) 
-3.680

>  <name>  (34) 
33

>  <ligand_id>  (34) 
33

>  <original_smiles>  (34) 
[H]c1c([H])c([H])c2c(c1[H])C([H])([H])C([H])([H])C([H])([H])C2([H])N([H])C(=O)C1([H])N(C(=O)C([H])(N([H])C(=O)C([H])(N([H])C([H])([H])[H])C([H])([H])[H])C(C([H])([H])[H])(C([H])([H])[H])C([H])([H])[H])C([H])([H])c2c([H])c(OC([H])([H])C([H])([H])C([H])([H])C([H])([H])C([H])(C3([H])C([H])([H])c4c([H])c([H])c([H])c([H])c4C3([H])[H])[N+]([H])([H])C([H])([H])C([H])([H])C([H])([H])C(=O)N3C([H])([H])C([H])([H])C([H])([H])C([H])(n4nc(-c5c([H])c([H])c(Oc6c([H])c([H])c(F)c([H])c6F)c([H])c5[H])c(C(=O)N([H])[H])c4N([H])[H])C3([H])[H])c([H])c([H])c2C1([H])[H]

>  <smiles>  (34) 
[H]c1c([H])c([H])c2c(c1[H])C([H])([H])C([H])([H])C([H])([H])C2([H])N([H])C(=O)C1([H])N(C(=O)C([H])(N([H])C(=O)C([H])(N([H])C([H])([H])[H])C([H])([H])[H])C(C([H])([H])[H])(C([H])([H])[H])C([H])([H])[H])C([H])([H])c2c([H])c(OC([H])([H])C([H])([H])C([H])([H])C([H])([H])C([H])(C3([H])C([H])([H])c4c([H])c([H])c([H])c([H])c4C3([H])[H])[N+]([H])([H])C([H])([H])C([H])([H])C([H])([H])C(=O)N3C([H])([H])C([H])([H])C([H])([H])C([H])(n4nc(-c5c([H])c([H])c(Oc6c([H])c([H])c(F)c([H])c6F)c([H])c5[H])c(C(=O)N([H])[H])c4N([H])[H])C3([H])[H])c([H])c([H])c2C1([H])[H]

$$$$
34:0:0
     RDKit          3D

 95104  0  0  1  0  0  0  0  0999 V2000
  -28.6810  -22.8730   19.7680 C   0  0  0  0  0  3  0  0  0  0  0  0
  -29.1310  -21.6190   21.9010 C   0  0  0  0  0  3  0  0  0  0  0  0
  -29.2290  -20.5860   20.7990 C   0  0  0  0  0  3  0  0  0  0  0  0
  -30.1730  -21.8500   22.9810 C   0  0  0  0  0  1  0  0  0  0  0  0
  -29.5840  -21.9900   20.5660 N   0  0  1  0  0  4  0  0  0  0  0  0
  -30.5730  -22.1850   20.5220 H   0  0  0  0  0  0  0  0  0  0  0  0
  -30.3950  -19.6040   20.6160 C   0  0  0  0  0  2  0  0  0  0  0  0
  -30.1440  -18.2150   21.2050 C   0  0  0  0  0  0  0  0  0  0  0  0
  -29.3860  -18.0320   22.2040 N   0  0  0  0  0  0  0  0  0  0  0  0
  -28.9730  -18.8880   22.5550 H   0  0  0  0  0  0  0  0  0  0  0  0
  -30.8890  -17.0640   20.5280 C   0  0  0  0  0  2  0  0  0  0  0  0
  -30.5680  -15.6520   21.0960 C   0  0  0  0  0  2  0  0  0  0  0  0
  -31.1800  -14.4990   20.2720 C   0  0  0  0  0  0  0  0  0  0  0  0
  -30.7650  -12.4460   18.9630 C   0  0  0  0  0  2  0  0  0  0  0  0
  -29.8000  -12.7800   17.8060 C   0  0  0  0  0  2  0  0  0  0  0  0
  -28.3310  -12.6840   18.2700 C   0  0  0  0  0  2  0  0  0  0  0  0
  -28.0700  -13.4500   19.5940 C   0  0  0  0  0  3  0  0  0  0  0  0
  -29.1390  -13.0780   20.6490 C   0  0  0  0  0  2  0  0  0  0  0  0
  -30.4610  -13.3620   20.0710 N   0  0  0  0  0  0  0  0  0  0  0  0
  -32.2770  -14.6860   19.7370 O   0  0  0  0  0  0  0  0  0  0  0  0
  -25.7070  -14.1350   20.3530 C   0  0  0  0  0  0  0  0  0  0  0  0
  -24.6170  -13.3950   20.7240 C   0  0  0  0  0  0  0  0  0  0  0  0
  -25.0260  -12.0270   20.6550 C   0  0  0  0  0  0  0  0  0  0  0  0
  -26.7160  -13.2200   20.0890 N   0  0  0  0  0  0  0  0  0  0  0  0
  -26.3080  -11.9470   20.3240 N   0  0  0  0  0  0  0  0  0  0  0  0
  -24.2570  -10.7890   20.8320 C   0  0  0  0  0  0  0  0  0  0  0  0
  -24.6380   -9.8120   21.7770 C   0  0  0  0  0  3  0  0  0  0  0  0
  -23.8750   -8.6370   21.9400 C   0  0  0  0  0  3  0  0  0  0  0  0
  -22.7140   -8.4320   21.1560 C   0  0  0  0  0  0  0  0  0  0  0  0
  -22.3530   -9.3960   20.2000 C   0  0  0  0  0  3  0  0  0  0  0  0
  -23.1170  -10.5630   20.0360 C   0  0  0  0  0  3  0  0  0  0  0  0
  -21.9240   -7.3100   21.2280 O   0  0  0  0  0  0  0  0  0  0  0  0
  -21.7790   -6.6060   22.3960 C   0  0  0  0  0  0  0  0  0  0  0  0
  -21.2960   -7.2120   23.5760 C   0  0  0  0  0  3  0  0  0  0  0  0
  -21.0960   -6.4360   24.7360 C   0  0  0  0  0  3  0  0  0  0  0  0
  -21.3680   -5.0540   24.7150 C   0  0  0  0  0  0  0  0  0  0  0  0
  -21.8440   -4.4480   23.5390 C   0  0  0  0  0  3  0  0  0  0  0  0
  -22.0450   -5.2210   22.3820 C   0  0  0  0  0  0  0  0  0  0  0  0
  -22.4830   -4.6280   21.2450 F   0  0  0  0  0  0  0  0  0  0  0  0
  -21.1700   -4.3060   25.8260 F   0  0  0  0  0  0  0  0  0  0  0  0
  -23.2430  -13.9160   21.0360 C   0  0  0  0  0  0  0  0  0  0  0  0
  -22.5150  -13.2360   21.9140 N   0  0  0  0  0  0  0  0  0  0  0  0
  -22.8250  -14.9600   20.5350 O   0  0  0  0  0  0  0  0  0  0  0  0
  -22.8660  -12.3890   22.3370 H   0  0  0  0  0  0  0  0  0  0  0  0
  -21.5940  -13.5660   22.1670 H   0  0  0  0  0  0  0  0  0  0  0  0
  -25.9210  -15.5010   20.2020 N   0  0  0  0  0  0  0  0  0  0  0  0
  -25.1880  -16.1870   20.3480 H   0  0  0  0  0  0  0  0  0  0  0  0
  -26.7960  -15.9140   19.9040 H   0  0  0  0  0  0  0  0  0  0  0  0
  -28.5170  -22.1360   16.2790 C   0  0  0  0  0  2  0  0  0  0  0  0
  -28.0510  -23.2720   17.1860 C   0  0  0  0  0  2  0  0  0  0  0  0
  -28.9890  -21.4250   17.5450 C   0  0  0  0  0  2  0  0  0  0  0  0
  -29.0460  -22.7900   18.2670 C   0  0  0  0  0  3  0  0  0  0  0  0
  -28.6770  -24.3120   20.3940 C   0  0  0  0  0  2  0  0  0  0  0  0
  -28.6850  -25.5370   19.4550 C   0  0  0  0  0  2  0  0  0  0  0  0
  -28.5040  -26.7500   20.1970 O   0  0  0  0  0  0  0  0  0  0  0  0
  -24.5390  -31.8150   23.2570 C   0  0  0  0  0  0  0  0  0  0  0  0
  -27.2760  -27.3870   20.2150 C   0  0  0  0  0  0  0  0  0  0  0  0
  -23.3600  -30.3670   21.6360 C   0  0  0  0  0  3  0  0  0  0  0  0
  -24.8390  -28.8370   20.2360 C   0  0  0  0  0  0  0  0  0  0  0  0
  -25.8790  -30.7720   21.4280 C   0  0  0  0  0  2  0  0  0  0  0  0
  -25.9900  -29.3950   20.8050 C   0  0  0  0  0  0  0  0  0  0  0  0
  -27.2080  -28.6780   20.7900 C   0  0  0  0  0  3  0  0  0  0  0  0
  -26.0880  -26.8250   19.6860 C   0  0  0  0  0  3  0  0  0  0  0  0
  -24.8800  -27.5470   19.6850 C   0  0  0  0  0  3  0  0  0  0  0  0
  -23.5810  -29.6740   20.2670 C   0  0  0  0  0  2  0  0  0  0  0  0
  -24.6110  -31.0000   22.1660 N   0  0  0  0  0  0  0  0  0  0  0  0
  -23.4520  -32.0750   23.7910 O   0  0  0  0  0  0  0  0  0  0  0  0
  -22.7330  -29.3430   22.6100 C   0  0  0  0  0  0  0  0  0  0  0  0
  -21.4160  -29.1240   22.4770 N   0  0  0  0  0  0  0  0  0  0  0  0
  -23.4300  -28.7480   23.4360 O   0  0  0  0  0  0  0  0  0  0  0  0
  -20.9160  -29.6570   21.7790 H   0  0  0  0  0  0  0  0  0  0  0  0
  -18.0720  -27.8490   22.9710 C   0  0  0  0  0  0  0  0  0  0  0  0
  -20.6190  -28.1770   23.2560 C   0  0  0  0  0  3  0  0  0  0  0  0
  -20.7640  -26.7420   22.7010 C   0  0  0  0  0  2  0  0  0  0  0  0
  -19.6770  -26.3720   21.6850 C   0  0  0  0  0  2  0  0  0  0  0  0
  -18.2880  -26.4930   22.3180 C   0  0  0  0  0  2  0  0  0  0  0  0
  -19.1680  -28.6450   23.3960 C   0  0  0  0  0  0  0  0  0  0  0  0
  -18.9130  -29.9120   23.9650 C   0  0  0  0  0  3  0  0  0  0  0  0
  -17.5950  -30.3840   24.1130 C   0  0  0  0  0  3  0  0  0  0  0  0
  -16.5140  -29.5840   23.7060 C   0  0  0  0  0  3  0  0  0  0  0  0
  -16.7530  -28.3170   23.1410 C   0  0  0  0  0  3  0  0  0  0  0  0
  -25.8120  -32.4760   23.8680 C   0  0  0  0  0  3  0  0  0  0  0  0
  -25.4760  -33.8730   24.1750 N   0  0  0  0  0  0  0  0  0  0  0  0
  -25.7870  -34.9180   23.3970 C   0  0  0  0  0  0  0  0  0  0  0  0
  -26.4590  -34.8110   22.3670 O   0  0  0  0  0  0  0  0  0  0  0  0
  -24.8780  -34.0290   24.9730 H   0  0  0  0  0  0  0  0  0  0  0  0
  -24.0230  -36.6690   23.0090 C   0  0  0  0  0  1  0  0  0  0  0  0
  -25.2700  -36.3030   23.8300 C   0  0  0  0  0  3  0  0  0  0  0  0
  -27.3850  -37.2440   24.6530 C   0  0  0  0  0  1  0  0  0  0  0  0
  -26.2820  -37.3750   23.7030 N   0  0  0  0  0  0  0  0  0  0  0  0
  -25.8570  -38.2890   23.8320 H   0  0  0  0  0  0  0  0  0  0  0  0
  -26.3450  -31.7350   25.1550 C   0  0  1  0  0  0  0  0  0  0  0  0
  -25.2520  -31.4680   26.2180 C   0  0  0  0  0  1  0  0  0  0  0  0
  -26.9770  -30.3750   24.7770 C   0  0  0  0  0  1  0  0  0  0  0  0
  -27.4680  -32.5730   25.8150 C   0  0  0  0  0  1  0  0  0  0  0  0
  1 53  1  0
  1  5  1  0
  2  4  1  0
  3  7  1  0
  3  2  1  0
  5  3  1  0
  5  2  1  0
  5  6  1  1
  7  8  1  0
  8  9  2  0
  9 10  1  0
 11 12  1  0
 11  8  1  0
 13 12  1  0
 14 19  1  0
 15 16  1  0
 15 14  1  0
 17 16  1  0
 17 24  1  0
 17 18  1  0
 19 13  1  0
 19 18  1  0
 20 13  2  0
 21 22  2  0
 22 41  1  0
 23 22  1  0
 23 26  1  0
 24 25  1  0
 24 21  1  0
 25 23  2  0
 26 27  1  0
 27 28  2  0
 29 32  1  0
 29 28  1  0
 30 29  2  0
 31 30  1  0
 31 26  2  0
 32 33  1  0
 33 34  1  0
 34 35  2  0
 36 35  1  0
 36 40  1  0
 37 36  2  0
 38 33  2  0
 38 37  1  0
 39 38  1  0
 41 42  1  0
 42 45  1  0
 42 44  1  0
 43 41  2  0
 46 47  1  0
 46 21  1  0
 48 46  1  0
 49 50  1  0
 49 51  1  0
 50 52  1  0
 51 52  1  0
 52  1  1  0
 54 55  1  0
 54 53  1  0
 55 57  1  0
 56 67  2  0
 57 62  1  0
 58 66  1  0
 58 68  1  0
 59 65  1  0
 59 61  1  0
 60 66  1  0
 61 60  1  0
 62 61  2  0
 63 57  2  0
 64 63  1  0
 64 59  2  0
 65 58  1  0
 66 56  1  0
 68 70  2  0
 69 68  1  0
 71 69  1  0
 72 81  2  0
 72 77  1  0
 73 69  1  0
 73 77  1  0
 74 73  1  0
 75 76  1  0
 75 74  1  0
 76 72  1  0
 77 78  2  0
 78 79  1  0
 80 79  2  0
 81 80  1  0
 82 56  1  0
 82 83  1  0
 82 92  1  0
 83 86  1  0
 84 88  1  0
 84 83  1  0
 85 84  2  0
 88 87  1  0
 90 88  1  0
 90 91  1  0
 90 89  1  0
 92 95  1  1
 92 93  1  0
 94 92  1  0
M  ISO  4  12 100  13 100  54 101  55 101
M  END
>  <TORSDO>  (35) 
F 24

>  <SCORE>  (35) 
-10.821

>  <name>  (35) 
34

>  <ligand_id>  (35) 
34

>  <original_smiles>  (35) 
[H]N=C(C([H])([H])C([H])([H])C(=O)N1C([H])([H])C([H])([H])C([H])([H])C([H])(n2nc(-c3c([H])c([H])c(Oc4c([H])c([H])c(F)c([H])c4F)c([H])c3[H])c(C(=O)N([H])[H])c2N([H])[H])C1([H])[H])C([H])([H])C1([H])C([H])(C([H])([H])[H])[N+]1([H])C([H])(C([H])([H])C([H])([H])Oc1c([H])c([H])c2c(c1[H])C([H])([H])N(C(=O)C([H])(N([H])C(=O)C([H])(N([H])C([H])([H])[H])C([H])([H])[H])C(C([H])([H])[H])(C([H])([H])[H])C([H])([H])[H])C([H])(C(=O)N([H])C1([H])c3c([H])c([H])c([H])c([H])c3C([H])([H])C([H])([H])C1([H])[H])C2([H])[H])C1([H])C([H])([H])C([H])([H])C1([H])[H]

>  <smiles>  (35) 
[H]N=C(C([H])([H])C([H])([H])C(=O)N1C([H])([H])C([H])([H])C([H])([H])C([H])(n2nc(-c3c([H])c([H])c(Oc4c([H])c([H])c(F)c([H])c4F)c([H])c3[H])c(C(=O)N([H])[H])c2N([H])[H])C1([H])[H])C([H])([H])C1([H])C([H])(C([H])([H])[H])[N+]1([H])C([H])(C([H])([H])C([H])([H])Oc1c([H])c([H])c2c(c1[H])C([H])([H])N(C(=O)C([H])(N([H])C(=O)C([H])(N([H])C([H])([H])[H])C([H])([H])[H])C(C([H])([H])[H])(C([H])([H])[H])C([H])([H])[H])C([H])(C(=O)N([H])C1([H])c3c([H])c([H])c([H])c([H])c3C([H])([H])C([H])([H])C1([H])[H])C2([H])[H])C1([H])C([H])([H])C([H])([H])C1([H])[H]

$$$$
35:0:0
     RDKit          3D

 98105  0  0  1  0  0  0  0  0999 V2000
  -20.1150  -27.4820   21.0280 C   0  0  0  0  0  1  0  0  0  0  0  0
  -21.4780  -26.2530   20.3340 C   0  0  0  0  0  2  0  0  0  0  0  0
  -24.5030  -23.6610   20.8930 C   0  0  0  0  0  2  0  0  0  0  0  0
  -21.2480  -24.8340   23.1630 C   0  0  0  0  0  2  0  0  0  0  0  0
  -23.7820  -25.5750   21.8560 C   0  0  0  0  0  2  0  0  0  0  0  0
  -19.8990  -26.1740   23.5730 C   0  0  0  0  0  2  0  0  0  0  0  0
  -24.9300  -25.0920   20.8950 C   0  0  0  0  0  3  0  0  0  0  0  0
  -22.9540  -23.5640   21.1170 C   0  0  0  0  0  3  0  0  0  0  0  0
  -22.2240  -25.0080   21.5480 C   0  0  2  0  0  0  0  0  0  0  0  0
  -18.7410  -25.4330   24.3520 C   0  0  0  0  0  1  0  0  0  0  0  0
  -22.4060  -22.3600   20.2410 C   0  0  0  0  0  2  0  0  0  0  0  0
  -23.4080  -21.1950   19.7100 C   0  0  0  0  0  2  0  0  0  0  0  0
  -24.3970  -20.3310   20.6260 C   0  0  0  0  0  3  0  0  0  0  0  0
  -25.4400  -19.3340   19.9030 C   0  0  0  0  0  3  0  0  0  0  0  0
  -25.8110  -17.9390   21.9410 C   0  0  0  0  0  1  0  0  0  0  0  0
  -26.4560  -18.5710   20.7640 N   0  0  1  0  0  4  0  0  0  0  0  0
  -27.0410  -19.2880   21.1610 H   0  0  0  0  0  0  0  0  0  0  0  0
  -27.4450  -17.6650   20.0090 C   0  0  0  0  0  3  0  0  0  0  0  0
  -28.4300  -16.6560   20.8020 C   0  0  0  0  0  3  0  0  0  0  0  0
  -29.5480  -15.9030   19.9270 C   0  0  0  0  0  2  0  0  0  0  0  0
  -30.4720  -14.6700   20.3800 C   0  0  0  0  0  0  0  0  0  0  0  0
  -30.4190  -12.3840   19.4670 C   0  0  0  0  0  2  0  0  0  0  0  0
  -29.5000  -12.4690   18.2270 C   0  0  0  0  0  2  0  0  0  0  0  0
  -28.0170  -12.3010   18.6260 C   0  0  0  0  0  2  0  0  0  0  0  0
  -27.6170  -13.1830   19.8360 C   0  0  0  0  0  3  0  0  0  0  0  0
  -28.6470  -13.0840   20.9740 C   0  0  0  0  0  2  0  0  0  0  0  0
  -29.9560  -13.4100   20.4180 N   0  0  0  0  0  0  0  0  0  0  0  0
  -31.6950  -14.8190   20.2570 O   0  0  0  0  0  0  0  0  0  0  0  0
  -25.2370  -13.7890   20.5520 C   0  0  0  0  0  0  0  0  0  0  0  0
  -24.1720  -13.0270   20.9260 C   0  0  0  0  0  0  0  0  0  0  0  0
  -24.6280  -11.6760   20.8820 C   0  0  0  0  0  0  0  0  0  0  0  0
  -26.2750  -12.9050   20.3140 N   0  0  0  0  0  0  0  0  0  0  0  0
  -25.9170  -11.6280   20.5770 N   0  0  0  0  0  0  0  0  0  0  0  0
  -23.8980  -10.4190   21.0470 C   0  0  0  0  0  0  0  0  0  0  0  0
  -24.3550   -9.4110   21.9210 C   0  0  0  0  0  3  0  0  0  0  0  0
  -23.6240   -8.2160   22.0770 C   0  0  0  0  0  3  0  0  0  0  0  0
  -22.4220   -8.0230   21.3560 C   0  0  0  0  0  0  0  0  0  0  0  0
  -21.9860   -9.0190   20.4660 C   0  0  0  0  0  3  0  0  0  0  0  0
  -22.7170  -10.2070   20.3080 C   0  0  0  0  0  3  0  0  0  0  0  0
  -21.6600   -6.8830   21.4240 O   0  0  0  0  0  0  0  0  0  0  0  0
  -21.6830   -6.0700   22.5280 C   0  0  0  0  0  0  0  0  0  0  0  0
  -21.3990   -6.5620   23.8200 C   0  0  0  0  0  3  0  0  0  0  0  0
  -21.3650   -5.6780   24.9180 C   0  0  0  0  0  3  0  0  0  0  0  0
  -21.6040   -4.3050   24.7230 C   0  0  0  0  0  0  0  0  0  0  0  0
  -21.8820   -3.8120   23.4360 C   0  0  0  0  0  3  0  0  0  0  0  0
  -21.9190   -4.6940   22.3410 C   0  0  0  0  0  0  0  0  0  0  0  0
  -22.1650   -4.2120   21.0990 F   0  0  0  0  0  0  0  0  0  0  0  0
  -21.5640   -3.4530   25.7750 F   0  0  0  0  0  0  0  0  0  0  0  0
  -22.7770  -13.5180   21.1900 C   0  0  0  0  0  0  0  0  0  0  0  0
  -22.0390  -12.8220   22.0490 N   0  0  0  0  0  0  0  0  0  0  0  0
  -22.3540  -14.5500   20.6740 O   0  0  0  0  0  0  0  0  0  0  0  0
  -22.3980  -11.9870   22.4860 H   0  0  0  0  0  0  0  0  0  0  0  0
  -21.1000  -13.1260   22.2660 H   0  0  0  0  0  0  0  0  0  0  0  0
  -25.3920  -15.1500   20.3410 N   0  0  0  0  0  0  0  0  0  0  0  0
  -24.5090  -15.6380   20.2340 H   0  0  0  0  0  0  0  0  0  0  0  0
  -26.0340  -15.3770   19.5960 H   0  0  0  0  0  0  0  0  0  0  0  0
  -26.5600  -25.3170   21.1750 C   0  0  0  0  0  2  0  0  0  0  0  0
  -27.5820  -26.2290   20.4960 O   0  0  0  0  0  0  0  0  0  0  0  0
  -24.6700  -31.9460   23.2160 C   0  0  0  0  0  0  0  0  0  0  0  0
  -27.0040  -27.3900   20.1090 C   0  0  0  0  0  0  0  0  0  0  0  0
  -23.4500  -30.6470   21.5550 C   0  0  0  0  0  3  0  0  0  0  0  0
  -24.8290  -29.0910   20.0550 C   0  0  0  0  0  0  0  0  0  0  0  0
  -25.9860  -30.8570   21.3940 C   0  0  0  0  0  2  0  0  0  0  0  0
  -25.9960  -29.4980   20.7250 C   0  0  0  0  0  0  0  0  0  0  0  0
  -27.0980  -28.6130   20.8060 C   0  0  0  0  0  3  0  0  0  0  0  0
  -26.0070  -27.1920   19.1620 C   0  0  0  0  0  3  0  0  0  0  0  0
  -24.8430  -27.9530   19.2440 C   0  0  0  0  0  3  0  0  0  0  0  0
  -23.5990  -29.9480   20.1770 C   0  0  0  0  0  2  0  0  0  0  0  0
  -24.7240  -31.1830   22.0910 N   0  0  0  0  0  0  0  0  0  0  0  0
  -23.5880  -32.2360   23.7560 O   0  0  0  0  0  0  0  0  0  0  0  0
  -22.8530  -29.7060   22.5890 C   0  0  0  0  0  0  0  0  0  0  0  0
  -21.5270  -29.6360   22.6050 N   0  0  0  0  0  0  0  0  0  0  0  0
  -23.5710  -29.0140   23.3230 O   0  0  0  0  0  0  0  0  0  0  0  0
  -20.9820  -30.2540   22.0240 H   0  0  0  0  0  0  0  0  0  0  0  0
  -18.0720  -27.9440   22.7130 C   0  0  0  0  0  0  0  0  0  0  0  0
  -20.8460  -28.5340   23.2320 C   0  0  0  0  0  3  0  0  0  0  0  0
  -21.5860  -27.1410   22.5940 C   0  0  0  0  0  1  0  0  0  0  0  0
  -19.5340  -25.4590   21.5450 C   0  0  0  0  0  1  0  0  0  0  0  0
  -18.0430  -26.4420   21.9040 C   0  0  0  0  0  2  0  0  0  0  0  0
  -19.2210  -28.7820   23.2300 C   0  0  0  0  0  0  0  0  0  0  0  0
  -18.9170  -30.0310   23.8510 C   0  0  0  0  0  3  0  0  0  0  0  0
  -17.6160  -30.5260   23.9970 C   0  0  0  0  0  3  0  0  0  0  0  0
  -16.5440  -29.7520   23.5470 C   0  0  0  0  0  3  0  0  0  0  0  0
  -16.7800  -28.4980   22.9380 C   0  0  0  0  0  3  0  0  0  0  0  0
  -25.9600  -32.5120   23.8560 C   0  0  0  0  0  3  0  0  0  0  0  0
  -26.4640  -31.6650   25.0860 C   0  0  1  0  0  0  0  0  0  0  0  0
  -25.3710  -31.3810   26.1420 C   0  0  0  0  0  1  0  0  0  0  0  0
  -27.0340  -30.3040   24.6240 C   0  0  0  0  0  1  0  0  0  0  0  0
  -27.6210  -32.4190   25.7800 C   0  0  0  0  0  1  0  0  0  0  0  0
  -25.6460  -33.8850   24.2570 N   0  0  0  0  0  0  0  0  0  0  0  0
  -25.9170  -34.9630   23.5150 C   0  0  0  0  0  0  0  0  0  0  0  0
  -26.5520  -34.9050   22.4590 O   0  0  0  0  0  0  0  0  0  0  0  0
  -25.0750  -33.9990   25.0810 H   0  0  0  0  0  0  0  0  0  0  0  0
  -24.1520  -36.7360   23.2600 C   0  0  0  0  0  1  0  0  0  0  0  0
  -25.4150  -36.3220   24.0320 C   0  0  0  0  0  3  0  0  0  0  0  0
  -27.5610  -37.1900   24.8470 C   0  0  0  0  0  1  0  0  0  0  0  0
  -26.4310  -37.3920   23.9410 N   0  0  0  0  0  0  0  0  0  0  0  0
  -26.0200  -38.2990   24.1480 H   0  0  0  0  0  0  0  0  0  0  0  0
  2  1  1  0
  3  7  1  0
  3  8  1  0
  4  6  1  0
  6 10  1  0
  7 57  1  0
  7  5  1  0
  8 11  1  0
  8  9  1  0
  9  2  1  6
  9  5  1  0
  9  4  1  0
 12 11  1  0
 12 13  1  0
 14 13  2  0
 14 16  1  0
 16 17  1  1
 16 15  1  0
 18 16  1  0
 18 19  2  0
 20 21  1  0
 20 19  1  0
 21 27  1  0
 22 27  1  0
 23 24  1  0
 23 22  1  0
 25 24  1  0
 25 32  1  0
 25 26  1  0
 27 26  1  0
 28 21  2  0
 29 30  2  0
 30 49  1  0
 31 30  1  0
 31 34  1  0
 32 29  1  0
 32 33  1  0
 33 31  2  0
 34 35  1  0
 35 36  2  0
 37 40  1  0
 37 36  1  0
 38 37  2  0
 39 38  1  0
 39 34  2  0
 40 41  1  0
 41 42  1  0
 42 43  2  0
 44 43  1  0
 44 48  1  0
 45 44  2  0
 46 41  2  0
 46 45  1  0
 47 46  1  0
 49 50  1  0
 50 53  1  0
 50 52  1  0
 51 49  2  0
 54 29  1  0
 55 54  1  0
 56 54  1  0
 58 57  1  0
 59 70  2  0
 60 58  1  0
 60 65  1  0
 61 69  1  0
 61 71  1  0
 62 68  1  0
 62 64  1  0
 63 69  1  0
 64 65  2  0
 64 63  1  0
 66 67  1  0
 66 60  2  0
 67 62  2  0
 68 61  1  0
 69 59  1  0
 71 72  1  0
 71 73  2  0
 72 76  1  0
 74 72  1  0
 75 84  2  0
 75 80  1  0
 76 77  1  0
 78 79  1  0
 79 75  1  0
 80 76  1  0
 80 81  2  0
 81 82  1  0
 83 82  2  0
 84 83  1  0
 85 59  1  0
 85 90  1  0
 85 86  1  0
 86 89  1  1
 86 87  1  0
 88 86  1  0
 90 93  1  0
 91 95  1  0
 91 90  1  0
 92 91  2  0
 95 94  1  0
 97 95  1  0
 97 98  1  0
 97 96  1  0
M  ISO  4  20 100  21 100  57 101  58 101
M  END
>  <TORSDO>  (36) 
F 25

>  <SCORE>  (36) 
7.727

>  <name>  (36) 
35

>  <ligand_id>  (36) 
35

>  <original_smiles>  (36) 
[H]c1c([H])c([H])c2c(c1[H])C([H])([H])C([H])([H])C([H])([H])C2([H])N([H])C(=O)C1([H])N(C(=O)C([H])(N([H])C(=O)C([H])(N([H])C([H])([H])[H])C([H])([H])[H])C(C([H])([H])[H])(C([H])([H])[H])C([H])([H])[H])C([H])([H])c2c([H])c(OC([H])([H])C3([H])C([H])([H])C([H])(C([H])([H])C([H])([H])C([H])([H])C([H])([H])[N+]([H])(C([H])([H])[H])C([H])([H])C([H])([H])C([H])([H])C(=O)N4C([H])([H])C([H])([H])C([H])([H])C([H])(n5nc(-c6c([H])c([H])c(Oc7c([H])c([H])c(F)c([H])c7F)c([H])c6[H])c(C(=O)N([H])[H])c5N([H])[H])C4([H])[H])C4(C([H])([H])C([H])([H])C([H])(C([H])([H])[H])C4([H])[H])C3([H])[H])c([H])c([H])c2C1([H])[H]

>  <smiles>  (36) 
[H]c1c([H])c([H])c2c(c1[H])C([H])([H])C([H])([H])C([H])([H])C2([H])N([H])C(=O)C1([H])N(C(=O)C([H])(N([H])C(=O)C([H])(N([H])C([H])([H])[H])C([H])([H])[H])C(C([H])([H])[H])(C([H])([H])[H])C([H])([H])[H])C([H])([H])c2c([H])c(OC([H])([H])C3([H])C([H])([H])C([H])(C([H])([H])C([H])([H])C([H])([H])C([H])([H])[N+]([H])(C([H])([H])[H])C([H])([H])C([H])([H])C([H])([H])C(=O)N4C([H])([H])C([H])([H])C([H])([H])C([H])(n5nc(-c6c([H])c([H])c(Oc7c([H])c([H])c(F)c([H])c7F)c([H])c6[H])c(C(=O)N([H])[H])c5N([H])[H])C4([H])[H])C4(C([H])([H])C([H])([H])C([H])(C([H])([H])[H])C4([H])[H])C3([H])[H])c([H])c([H])c2C1([H])[H]

$$$$
36:0:0
     RDKit          3D

 93102  0  0  1  0  0  0  0  0999 V2000
  -29.8110  -21.2700   20.0680 N   0  0  0  0  0  4  0  0  0  0  0  0
  -30.6840  -21.1600   20.5550 H   0  0  0  0  0  0  0  0  0  0  0  0
  -29.0990  -21.1570   20.7700 H   0  0  0  0  0  0  0  0  0  0  0  0
  -30.1760  -17.7370   18.1300 C   0  0  0  0  0  2  0  0  0  0  0  0
  -28.2970  -19.8610   18.6330 C   0  0  0  0  0  2  0  0  0  0  0  0
  -30.5160  -18.6540   19.3240 C   0  0  0  0  0  3  0  0  0  0  0  0
  -28.9050  -17.4080   18.9510 C   0  0  0  0  0  3  0  0  0  0  0  0
  -29.9110  -17.3710   20.1060 C   0  0  0  0  0  3  0  0  0  0  0  0
  -29.7600  -20.1000   19.0810 C   0  0  0  0  0  3  0  0  0  0  0  0
  -27.7520  -18.4500   18.9790 C   0  0  1  0  0  0  0  0  0  0  0  0
  -27.0450  -18.5060   20.3560 C   0  0  0  0  0  1  0  0  0  0  0  0
  -26.6830  -18.0570   17.9450 C   0  0  0  0  0  1  0  0  0  0  0  0
  -30.4310  -15.8680   20.5330 C   0  0  0  0  0  2  0  0  0  0  0  0
  -30.7940  -14.5410   19.6980 C   0  0  0  0  0  0  0  0  0  0  0  0
  -30.4990  -12.1600   18.9260 C   0  0  0  0  0  2  0  0  0  0  0  0
  -29.4810  -12.0780   17.7680 C   0  0  0  0  0  2  0  0  0  0  0  0
  -28.0470  -11.9500   18.3160 C   0  0  0  0  0  2  0  0  0  0  0  0
  -27.7470  -12.9790   19.4390 C   0  0  0  0  0  3  0  0  0  0  0  0
  -28.8860  -13.0310   20.4840 C   0  0  0  0  0  2  0  0  0  0  0  0
  -30.1420  -13.3220   19.7820 N   0  0  0  0  0  0  0  0  0  0  0  0
  -31.8190  -14.6020   19.0160 O   0  0  0  0  0  0  0  0  0  0  0  0
  -25.4680  -13.6620   20.3990 C   0  0  0  0  0  0  0  0  0  0  0  0
  -24.4060  -12.9370   20.8560 C   0  0  0  0  0  0  0  0  0  0  0  0
  -24.7900  -11.5650   20.7530 C   0  0  0  0  0  0  0  0  0  0  0  0
  -26.4440  -12.7430   20.0570 N   0  0  0  0  0  0  0  0  0  0  0  0
  -26.0470  -11.4720   20.3290 N   0  0  0  0  0  0  0  0  0  0  0  0
  -24.0140  -10.3400   20.9790 C   0  0  0  0  0  0  0  0  0  0  0  0
  -24.4510   -9.3490   21.8860 C   0  0  0  0  0  3  0  0  0  0  0  0
  -23.6760   -8.1910   22.1070 C   0  0  0  0  0  3  0  0  0  0  0  0
  -22.4520   -8.0140   21.4200 C   0  0  0  0  0  0  0  0  0  0  0  0
  -22.0310   -8.9950   20.5020 C   0  0  0  0  0  3  0  0  0  0  0  0
  -22.8070  -10.1440   20.2790 C   0  0  0  0  0  3  0  0  0  0  0  0
  -21.6510   -6.9060   21.5460 O   0  0  0  0  0  0  0  0  0  0  0  0
  -21.5960   -6.1870   22.7150 C   0  0  0  0  0  0  0  0  0  0  0  0
  -21.2260   -6.7850   23.9380 C   0  0  0  0  0  3  0  0  0  0  0  0
  -21.1130   -5.9950   25.1010 C   0  0  0  0  0  3  0  0  0  0  0  0
  -21.3650   -4.6120   25.0390 C   0  0  0  0  0  0  0  0  0  0  0  0
  -21.7310   -4.0150   23.8200 C   0  0  0  0  0  3  0  0  0  0  0  0
  -21.8420   -4.8010   22.6590 C   0  0  0  0  0  0  0  0  0  0  0  0
  -22.1730   -4.2170   21.4820 F   0  0  0  0  0  0  0  0  0  0  0  0
  -21.2490   -3.8510   26.1530 F   0  0  0  0  0  0  0  0  0  0  0  0
  -23.0730  -13.4810   21.2790 C   0  0  0  0  0  0  0  0  0  0  0  0
  -22.4040  -12.8130   22.2100 N   0  0  0  0  0  0  0  0  0  0  0  0
  -22.6410  -14.5390   20.8200 O   0  0  0  0  0  0  0  0  0  0  0  0
  -22.7680  -11.9580   22.6090 H   0  0  0  0  0  0  0  0  0  0  0  0
  -21.5100  -13.1580   22.5320 H   0  0  0  0  0  0  0  0  0  0  0  0
  -25.6750  -15.0230   20.2320 N   0  0  0  0  0  0  0  0  0  0  0  0
  -24.9450  -15.6970   20.4290 H   0  0  0  0  0  0  0  0  0  0  0  0
  -26.5500  -15.4450   19.9580 H   0  0  0  0  0  0  0  0  0  0  0  0
  -29.8240  -22.7360   19.5880 C   0  0  0  0  0  2  0  0  0  0  0  0
  -28.5420  -23.7310   19.6500 C   0  0  0  0  0  2  0  0  0  0  0  0
  -28.4950  -25.0620   20.5640 C   0  0  0  0  0  2  0  0  0  0  0  0
  -28.4440  -26.4690   20.0670 O   0  0  0  0  0  0  0  0  0  0  0  0
  -24.5910  -31.8320   23.1360 C   0  0  0  0  0  0  0  0  0  0  0  0
  -27.2860  -27.2650   20.1350 C   0  0  0  0  0  0  0  0  0  0  0  0
  -23.4280  -30.4320   21.4670 C   0  0  0  0  0  3  0  0  0  0  0  0
  -24.9100  -28.8690   20.0830 C   0  0  0  0  0  0  0  0  0  0  0  0
  -25.9700  -30.7530   21.3370 C   0  0  0  0  0  2  0  0  0  0  0  0
  -26.0690  -29.3710   20.6940 C   0  0  0  0  0  0  0  0  0  0  0  0
  -27.2590  -28.5820   20.7030 C   0  0  0  0  0  3  0  0  0  0  0  0
  -26.1010  -26.8080   19.5270 C   0  0  0  0  0  3  0  0  0  0  0  0
  -24.9300  -27.5980   19.4870 C   0  0  0  0  0  3  0  0  0  0  0  0
  -23.6730  -29.7480   20.0940 C   0  0  0  0  0  2  0  0  0  0  0  0
  -24.6800  -31.0240   22.0370 N   0  0  0  0  0  0  0  0  0  0  0  0
  -23.4960  -32.1050   23.6510 O   0  0  0  0  0  0  0  0  0  0  0  0
  -22.7440  -29.4180   22.4160 C   0  0  0  0  0  0  0  0  0  0  0  0
  -21.4120  -29.2710   22.2930 N   0  0  0  0  0  0  0  0  0  0  0  0
  -23.4130  -28.7640   23.2200 O   0  0  0  0  0  0  0  0  0  0  0  0
  -20.9300  -29.8550   21.6250 H   0  0  0  0  0  0  0  0  0  0  0  0
  -18.0170  -28.1320   22.8120 C   0  0  0  0  0  0  0  0  0  0  0  0
  -20.5850  -28.3270   23.0470 C   0  0  0  0  0  3  0  0  0  0  0  0
  -20.6400  -26.9180   22.4070 C   0  0  0  0  0  2  0  0  0  0  0  0
  -19.5200  -26.7020   21.3840 C   0  0  0  0  0  2  0  0  0  0  0  0
  -18.1630  -26.8050   22.0850 C   0  0  0  0  0  2  0  0  0  0  0  0
  -19.1580  -28.8580   23.2460 C   0  0  0  0  0  0  0  0  0  0  0  0
  -18.9720  -30.1120   23.8690 C   0  0  0  0  0  3  0  0  0  0  0  0
  -17.6790  -30.6340   24.0630 C   0  0  0  0  0  3  0  0  0  0  0  0
  -16.5540  -29.9070   23.6380 C   0  0  0  0  0  3  0  0  0  0  0  0
  -16.7230  -28.6560   23.0200 C   0  0  0  0  0  3  0  0  0  0  0  0
  -25.8580  -32.4680   23.7840 C   0  0  0  0  0  3  0  0  0  0  0  0
  -25.5300  -33.8590   24.1290 N   0  0  0  0  0  0  0  0  0  0  0  0
  -25.8660  -34.9250   23.3900 C   0  0  0  0  0  0  0  0  0  0  0  0
  -26.5510  -34.8430   22.3670 O   0  0  0  0  0  0  0  0  0  0  0  0
  -24.9190  -33.9980   24.9200 H   0  0  0  0  0  0  0  0  0  0  0  0
  -24.1280  -36.7080   23.0350 C   0  0  0  0  0  1  0  0  0  0  0  0
  -25.3600  -36.3020   23.8590 C   0  0  0  0  0  3  0  0  0  0  0  0
  -27.4750  -37.1930   24.7310 C   0  0  0  0  0  1  0  0  0  0  0  0
  -26.3830  -37.3650   23.7770 N   0  0  0  0  0  0  0  0  0  0  0  0
  -25.9670  -38.2790   23.9360 H   0  0  0  0  0  0  0  0  0  0  0  0
  -26.3600  -31.6870   25.0610 C   0  0  1  0  0  0  0  0  0  0  0  0
  -25.2470  -31.4280   26.1050 C   0  0  0  0  0  1  0  0  0  0  0  0
  -26.9670  -30.3220   24.6650 C   0  0  0  0  0  1  0  0  0  0  0  0
  -27.4890  -32.4890   25.7510 C   0  0  0  0  0  1  0  0  0  0  0  0
  1  2  1  0
  1  3  1  0
  5 10  1  0
  5  9  1  0
  6  4  1  0
  6  8  1  0
  7  4  1  0
  7 10  1  0
  7  8  1  0
  8 13  1  0
  9  6  1  0
  9  1  1  0
 10 11  1  1
 12 10  1  0
 14 20  1  0
 14 13  1  0
 15 20  1  0
 16 17  1  0
 16 15  1  0
 18 17  1  0
 18 25  1  0
 18 19  1  0
 20 19  1  0
 21 14  2  0
 22 23  2  0
 23 42  1  0
 24 23  1  0
 24 27  1  0
 25 26  1  0
 25 22  1  0
 26 24  2  0
 27 28  1  0
 28 29  2  0
 30 33  1  0
 30 29  1  0
 31 30  2  0
 32 31  1  0
 32 27  2  0
 33 34  1  0
 34 35  1  0
 35 36  2  0
 37 36  1  0
 37 41  1  0
 38 37  2  0
 39 34  2  0
 39 38  1  0
 40 39  1  0
 42 43  1  0
 43 46  1  0
 43 45  1  0
 44 42  2  0
 47 22  1  0
 47 48  1  0
 49 47  1  0
 50 51  1  0
 50  1  1  0
 51 52  1  0
 53 55  1  0
 53 52  1  0
 54 65  2  0
 55 60  1  0
 56 64  1  0
 56 66  1  0
 57 63  1  0
 57 59  1  0
 58 64  1  0
 59 60  2  0
 59 58  1  0
 61 55  2  0
 62 61  1  0
 62 57  2  0
 63 56  1  0
 64 54  1  0
 66 68  2  0
 67 66  1  0
 69 67  1  0
 70 79  2  0
 70 75  1  0
 71 67  1  0
 71 75  1  0
 72 71  1  0
 73 74  1  0
 73 72  1  0
 74 70  1  0
 75 76  2  0
 76 77  1  0
 78 77  2  0
 79 78  1  0
 80 54  1  0
 80 81  1  0
 80 90  1  0
 81 84  1  0
 82 86  1  0
 82 81  1  0
 83 82  2  0
 86 85  1  0
 88 86  1  0
 88 89  1  0
 88 87  1  0
 90 93  1  1
 90 91  1  0
 92 90  1  0
M  ISO  4  13 100  14 100  52 101  53 101
M  END
>  <TORSDO>  (37) 
F 21

>  <SCORE>  (37) 
-11.977

>  <name>  (37) 
36

>  <ligand_id>  (37) 
36

>  <original_smiles>  (37) 
[H]c1c([H])c([H])c2c(c1[H])C([H])([H])C([H])([H])C([H])([H])C2([H])N([H])C(=O)C1([H])N(C(=O)C([H])(N([H])C(=O)C([H])(N([H])C([H])([H])[H])C([H])([H])[H])C(C([H])([H])[H])(C([H])([H])[H])C([H])([H])[H])C([H])([H])c2c([H])c(OC([H])([H])C([H])([H])C([H])([H])[N+]([H])([H])C3([H])C([H])([H])C(C([H])([H])[H])(C([H])([H])[H])C4([H])C([H])([H])C3([H])C4([H])C([H])([H])C(=O)N3C([H])([H])C([H])([H])C([H])([H])C([H])(n4nc(-c5c([H])c([H])c(Oc6c([H])c([H])c(F)c([H])c6F)c([H])c5[H])c(C(=O)N([H])[H])c4N([H])[H])C3([H])[H])c([H])c([H])c2C1([H])[H]

>  <smiles>  (37) 
[H]c1c([H])c([H])c2c(c1[H])C([H])([H])C([H])([H])C([H])([H])C2([H])N([H])C(=O)C1([H])N(C(=O)C([H])(N([H])C(=O)C([H])(N([H])C([H])([H])[H])C([H])([H])[H])C(C([H])([H])[H])(C([H])([H])[H])C([H])([H])[H])C([H])([H])c2c([H])c(OC([H])([H])C([H])([H])C([H])([H])[N+]([H])([H])C3([H])C([H])([H])C(C([H])([H])[H])(C([H])([H])[H])C4([H])C([H])([H])C3([H])C4([H])C([H])([H])C(=O)N3C([H])([H])C([H])([H])C([H])([H])C([H])(n4nc(-c5c([H])c([H])c(Oc6c([H])c([H])c(F)c([H])c6F)c([H])c5[H])c(C(=O)N([H])[H])c4N([H])[H])C3([H])[H])c([H])c([H])c2C1([H])[H]

$$$$
37:0:0
     RDKit          3D

 94102  0  0  1  0  0  0  0  0999 V2000
  -31.5120  -22.1340   21.2910 N   0  0  0  0  0  4  0  0  0  0  0  0
  -30.6640  -21.5970   21.3670 H   0  0  0  0  0  0  0  0  0  0  0  0
  -31.6440  -22.6160   22.1670 H   0  0  0  0  0  0  0  0  0  0  0  0
  -33.9790  -21.8550   20.8730 C   0  0  0  0  0  1  0  0  0  0  0  0
  -32.6180  -21.1580   21.0880 C   0  0  0  0  0  3  0  0  0  0  0  0
  -31.3610  -19.4510   22.5530 C   0  0  0  0  0  0  0  0  0  0  0  0
  -30.8600  -18.3000   22.0610 C   0  0  0  0  0  3  0  0  0  0  0  0
  -30.7350  -20.1800   23.7140 C   0  0  0  0  0  2  0  0  0  0  0  0
  -31.9330  -20.6340   24.5510 C   0  0  0  0  0  2  0  0  0  0  0  0
  -33.1400  -20.7030   23.5950 C   0  0  0  0  0  2  0  0  0  0  0  0
  -32.6950  -20.1070   22.2380 C   0  0  0  0  0  3  0  0  0  0  0  0
  -31.4710  -17.3440   21.0410 C   0  0  0  0  0  2  0  0  0  0  0  0
  -31.1880  -15.8790   21.4560 C   0  0  0  0  0  2  0  0  0  0  0  0
  -31.7930  -14.7850   20.5430 C   0  0  0  0  0  0  0  0  0  0  0  0
  -31.3960  -12.7490   19.1900 C   0  0  0  0  0  2  0  0  0  0  0  0
  -30.4620  -13.0890   18.0100 C   0  0  0  0  0  2  0  0  0  0  0  0
  -28.9790  -13.0190   18.4290 C   0  0  0  0  0  2  0  0  0  0  0  0
  -28.6970  -13.7800   19.7510 C   0  0  0  0  0  3  0  0  0  0  0  0
  -29.7280  -13.3760   20.8300 C   0  0  0  0  0  2  0  0  0  0  0  0
  -31.0690  -13.6600   20.2950 N   0  0  0  0  0  0  0  0  0  0  0  0
  -32.8900  -14.9940   20.0150 O   0  0  0  0  0  0  0  0  0  0  0  0
  -26.3040  -14.5020   20.3890 C   0  0  0  0  0  0  0  0  0  0  0  0
  -25.2000  -13.7800   20.7520 C   0  0  0  0  0  0  0  0  0  0  0  0
  -25.6090  -12.4110   20.7590 C   0  0  0  0  0  0  0  0  0  0  0  0
  -27.3210  -13.5760   20.2040 N   0  0  0  0  0  0  0  0  0  0  0  0
  -26.9020  -12.3140   20.4790 N   0  0  0  0  0  0  0  0  0  0  0  0
  -24.8310  -11.1820   20.9610 C   0  0  0  0  0  0  0  0  0  0  0  0
  -25.1710  -10.2520   21.9690 C   0  0  0  0  0  3  0  0  0  0  0  0
  -24.3970   -9.0850   22.1570 C   0  0  0  0  0  3  0  0  0  0  0  0
  -23.2710   -8.8420   21.3350 C   0  0  0  0  0  0  0  0  0  0  0  0
  -22.9500   -9.7600   20.3200 C   0  0  0  0  0  3  0  0  0  0  0  0
  -23.7230  -10.9170   20.1310 C   0  0  0  0  0  3  0  0  0  0  0  0
  -22.4760   -7.7250   21.4290 O   0  0  0  0  0  0  0  0  0  0  0  0
  -22.2060   -7.1320   22.6360 C   0  0  0  0  0  0  0  0  0  0  0  0
  -21.5710   -7.8330   23.6840 C   0  0  0  0  0  3  0  0  0  0  0  0
  -21.2490   -7.1680   24.8830 C   0  0  0  0  0  3  0  0  0  0  0  0
  -21.5520   -5.8010   25.0340 C   0  0  0  0  0  0  0  0  0  0  0  0
  -22.1810   -5.1000   23.9890 C   0  0  0  0  0  3  0  0  0  0  0  0
  -22.5030   -5.7630   22.7920 C   0  0  0  0  0  0  0  0  0  0  0  0
  -23.0890   -5.0770   21.7810 F   0  0  0  0  0  0  0  0  0  0  0  0
  -21.2350   -5.1590   26.1830 F   0  0  0  0  0  0  0  0  0  0  0  0
  -23.8160  -14.3140   20.9880 C   0  0  0  0  0  0  0  0  0  0  0  0
  -23.0580  -13.6800   21.8740 N   0  0  0  0  0  0  0  0  0  0  0  0
  -23.4170  -15.3310   20.4190 O   0  0  0  0  0  0  0  0  0  0  0  0
  -23.3950  -12.8590   22.3560 H   0  0  0  0  0  0  0  0  0  0  0  0
  -22.1280  -14.0200   22.0760 H   0  0  0  0  0  0  0  0  0  0  0  0
  -26.5260  -15.8610   20.1840 N   0  0  0  0  0  0  0  0  0  0  0  0
  -25.7850  -16.5480   20.2640 H   0  0  0  0  0  0  0  0  0  0  0  0
  -27.4020  -16.2580   19.8700 H   0  0  0  0  0  0  0  0  0  0  0  0
  -31.3020  -23.1350   20.2160 C   0  0  0  0  0  2  0  0  0  0  0  0
  -30.0270  -23.9790   20.4530 C   0  0  0  0  0  2  0  0  0  0  0  0
  -29.7170  -24.9720   19.3120 C   0  0  0  0  0  2  0  0  0  0  0  0
  -28.3110  -25.5990   19.4010 C   0  0  0  0  0  2  0  0  0  0  0  0
  -28.2920  -26.7830   20.2020 O   0  0  0  0  0  0  0  0  0  0  0  0
  -24.8060  -32.0460   23.4840 C   0  0  0  0  0  0  0  0  0  0  0  0
  -27.1350  -27.5420   20.2300 C   0  0  0  0  0  0  0  0  0  0  0  0
  -23.4840  -30.7450   21.8500 C   0  0  0  0  0  3  0  0  0  0  0  0
  -24.8150  -29.1660   20.3550 C   0  0  0  0  0  0  0  0  0  0  0  0
  -26.0200  -30.9710   21.5910 C   0  0  0  0  0  2  0  0  0  0  0  0
  -26.0130  -29.6110   20.9260 C   0  0  0  0  0  0  0  0  0  0  0  0
  -27.1700  -28.8020   20.8710 C   0  0  0  0  0  3  0  0  0  0  0  0
  -25.9120  -27.1150   19.6540 C   0  0  0  0  0  3  0  0  0  0  0  0
  -24.7580  -27.9150   19.7220 C   0  0  0  0  0  3  0  0  0  0  0  0
  -23.6200  -30.0860   20.4520 C   0  0  0  0  0  2  0  0  0  0  0  0
  -24.7900  -31.2670   22.3660 N   0  0  0  0  0  0  0  0  0  0  0  0
  -23.7540  -32.3660   24.0570 O   0  0  0  0  0  0  0  0  0  0  0  0
  -22.8050  -29.7380   22.8060 C   0  0  0  0  0  0  0  0  0  0  0  0
  -21.4900  -29.5330   22.6250 N   0  0  0  0  0  0  0  0  0  0  0  0
  -23.4610  -29.1430   23.6660 O   0  0  0  0  0  0  0  0  0  0  0  0
  -21.0240  -30.0670   21.9050 H   0  0  0  0  0  0  0  0  0  0  0  0
  -18.1360  -28.2250   22.9280 C   0  0  0  0  0  0  0  0  0  0  0  0
  -20.6520  -28.6040   23.3810 C   0  0  0  0  0  3  0  0  0  0  0  0
  -20.8540  -27.1500   22.8950 C   0  0  0  0  0  2  0  0  0  0  0  0
  -19.8480  -26.7270   21.8200 C   0  0  0  0  0  2  0  0  0  0  0  0
  -18.4160  -26.8490   22.3450 C   0  0  0  0  0  2  0  0  0  0  0  0
  -19.1870  -29.0550   23.3990 C   0  0  0  0  0  0  0  0  0  0  0  0
  -18.8760  -30.3400   23.8950 C   0  0  0  0  0  3  0  0  0  0  0  0
  -17.5440  -30.7950   23.9300 C   0  0  0  0  0  3  0  0  0  0  0  0
  -16.5050  -29.9630   23.4780 C   0  0  0  0  0  3  0  0  0  0  0  0
  -16.8020  -28.6800   22.9830 C   0  0  0  0  0  3  0  0  0  0  0  0
  -26.1400  -32.5960   24.0800 C   0  0  0  0  0  3  0  0  0  0  0  0
  -25.8930  -33.9760   24.5200 N   0  0  0  0  0  0  0  0  0  0  0  0
  -26.2270  -35.0680   23.8210 C   0  0  0  0  0  0  0  0  0  0  0  0
  -26.8500  -35.0180   22.7560 O   0  0  0  0  0  0  0  0  0  0  0  0
  -25.3390  -34.0920   25.3560 H   0  0  0  0  0  0  0  0  0  0  0  0
  -24.5480  -36.9340   23.6600 C   0  0  0  0  0  1  0  0  0  0  0  0
  -25.8050  -36.4340   24.3930 C   0  0  0  0  0  3  0  0  0  0  0  0
  -27.9900  -37.1970   25.2110 C   0  0  0  0  0  1  0  0  0  0  0  0
  -26.8690  -37.4610   24.3130 N   0  0  0  0  0  0  0  0  0  0  0  0
  -26.4970  -38.3820   24.5300 H   0  0  0  0  0  0  0  0  0  0  0  0
  -26.6960  -31.7200   25.2680 C   0  0  1  0  0  0  0  0  0  0  0  0
  -25.6450  -31.4070   26.3570 C   0  0  0  0  0  1  0  0  0  0  0  0
  -27.2440  -30.3720   24.7430 C   0  0  0  0  0  1  0  0  0  0  0  0
  -27.8830  -32.4470   25.9430 C   0  0  0  0  0  1  0  0  0  0  0  0
  1  2  1  0
  1  3  1  0
  5  4  1  0
  5  1  1  0
  6  8  1  0
  7  6  2  0
  8  9  1  0
 10  9  1  0
 11  5  1  0
 11  6  1  0
 11 10  1  0
 12 13  1  0
 12  7  1  0
 14 13  1  0
 15 20  1  0
 16 17  1  0
 16 15  1  0
 18 17  1  0
 18 25  1  0
 18 19  1  0
 20 14  1  0
 20 19  1  0
 21 14  2  0
 22 23  2  0
 23 24  1  0
 23 42  1  0
 24 27  1  0
 25 22  1  0
 25 26  1  0
 26 24  2  0
 27 28  1  0
 28 29  2  0
 30 33  1  0
 30 29  1  0
 31 30  2  0
 32 31  1  0
 32 27  2  0
 33 34  1  0
 34 39  2  0
 34 35  1  0
 35 36  2  0
 36 37  1  0
 37 41  1  0
 38 37  2  0
 39 38  1  0
 40 39  1  0
 42 43  1  0
 43 46  1  0
 43 45  1  0
 44 42  2  0
 47 48  1  0
 47 22  1  0
 49 47  1  0
 50 51  1  0
 50  1  1  0
 52 53  1  0
 52 51  1  0
 53 54  1  0
 54 56  1  0
 55 66  2  0
 56 61  1  0
 57 65  1  0
 57 67  1  0
 58 64  1  0
 58 60  1  0
 59 65  1  0
 60 59  1  0
 61 60  2  0
 62 63  1  0
 62 56  2  0
 63 58  2  0
 64 57  1  0
 65 55  1  0
 67 69  2  0
 68 67  1  0
 70 68  1  0
 71 80  2  0
 71 76  1  0
 72 68  1  0
 72 76  1  0
 73 72  1  0
 74 75  1  0
 74 73  1  0
 75 71  1  0
 76 77  2  0
 77 78  1  0
 79 78  2  0
 80 79  1  0
 81 55  1  0
 81 82  1  0
 81 91  1  0
 82 85  1  0
 83 87  1  0
 83 82  1  0
 84 83  2  0
 87 86  1  0
 89 87  1  0
 89 90  1  0
 89 88  1  0
 91 94  1  1
 91 92  1  0
 93 91  1  0
M  ISO  4  13 100  14 100  53 101  54 101
M  END
>  <TORSDO>  (38) 
F 24

>  <SCORE>  (38) 
-10.216

>  <name>  (38) 
37

>  <ligand_id>  (38) 
37

>  <original_smiles>  (38) 
[H]C(=C1C([H])([H])C([H])([H])C([H])([H])C1([H])C([H])(C([H])([H])[H])[N+]([H])([H])C([H])([H])C([H])([H])C([H])([H])C([H])([H])Oc1c([H])c([H])c2c(c1[H])C([H])([H])N(C(=O)C([H])(N([H])C(=O)C([H])(N([H])C([H])([H])[H])C([H])([H])[H])C(C([H])([H])[H])(C([H])([H])[H])C([H])([H])[H])C([H])(C(=O)N([H])C1([H])c3c([H])c([H])c([H])c([H])c3C([H])([H])C([H])([H])C1([H])[H])C2([H])[H])C([H])([H])C([H])([H])C(=O)N1C([H])([H])C([H])([H])C([H])([H])C([H])(n2nc(-c3c([H])c([H])c(Oc4c([H])c([H])c(F)c([H])c4F)c([H])c3[H])c(C(=O)N([H])[H])c2N([H])[H])C1([H])[H]

>  <smiles>  (38) 
[H]C(=C1C([H])([H])C([H])([H])C([H])([H])C1([H])C([H])(C([H])([H])[H])[N+]([H])([H])C([H])([H])C([H])([H])C([H])([H])C([H])([H])Oc1c([H])c([H])c2c(c1[H])C([H])([H])N(C(=O)C([H])(N([H])C(=O)C([H])(N([H])C([H])([H])[H])C([H])([H])[H])C(C([H])([H])[H])(C([H])([H])[H])C([H])([H])[H])C([H])(C(=O)N([H])C1([H])c3c([H])c([H])c([H])c([H])c3C([H])([H])C([H])([H])C1([H])[H])C2([H])[H])C([H])([H])C([H])([H])C(=O)N1C([H])([H])C([H])([H])C([H])([H])C([H])(n2nc(-c3c([H])c([H])c(Oc4c([H])c([H])c(F)c([H])c4F)c([H])c3[H])c(C(=O)N([H])[H])c2N([H])[H])C1([H])[H]

$$$$
38:0:0
     RDKit          3D

 94102  0  0  1  0  0  0  0  0999 V2000
  -30.0620  -21.0420   21.4050 C   0  0  0  0  0  2  0  0  0  0  0  0
  -30.9300  -20.4030   22.4210 N   0  0  0  0  0  4  0  0  0  0  0  0
  -31.1190  -21.0830   23.1390 H   0  0  0  0  0  0  0  0  0  0  0  0
  -31.8130  -20.1650   21.9990 H   0  0  0  0  0  0  0  0  0  0  0  0
  -30.3530  -19.2030   23.0840 C   0  0  0  0  0  3  0  0  0  0  0  0
  -31.2320  -17.6640   21.1090 C   0  0  0  0  0  2  0  0  0  0  0  0
  -30.7270  -16.6640   22.1220 C   0  0  0  0  0  3  0  0  0  0  0  0
  -30.1380  -18.0750   22.0630 C   0  0  0  0  0  3  0  0  0  0  0  0
  -29.8450  -15.4700   21.7490 C   0  0  0  0  0  2  0  0  0  0  0  0
  -30.3050  -14.6000   20.5600 C   0  0  0  0  0  0  0  0  0  0  0  0
  -30.0210  -12.5490   19.2000 C   0  0  0  0  0  2  0  0  0  0  0  0
  -29.0190  -12.7340   18.0460 C   0  0  0  0  0  2  0  0  0  0  0  0
  -27.5760  -12.4930   18.5260 C   0  0  0  0  0  2  0  0  0  0  0  0
  -27.2430  -13.2760   19.8210 C   0  0  0  0  0  3  0  0  0  0  0  0
  -28.3430  -13.0630   20.8860 C   0  0  0  0  0  2  0  0  0  0  0  0
  -29.6360  -13.4490   20.2970 N   0  0  0  0  0  0  0  0  0  0  0  0
  -31.2800  -14.9580   19.8910 O   0  0  0  0  0  0  0  0  0  0  0  0
  -24.8370  -13.7420   20.6160 C   0  0  0  0  0  0  0  0  0  0  0  0
  -23.8200  -12.9050   20.9920 C   0  0  0  0  0  0  0  0  0  0  0  0
  -24.3460  -11.5810   20.9020 C   0  0  0  0  0  0  0  0  0  0  0  0
  -25.9170  -12.9230   20.3290 N   0  0  0  0  0  0  0  0  0  0  0  0
  -25.6260  -11.6160   20.5540 N   0  0  0  0  0  0  0  0  0  0  0  0
  -23.6910  -10.2770   21.0730 C   0  0  0  0  0  0  0  0  0  0  0  0
  -24.1900   -9.3140   21.9770 C   0  0  0  0  0  3  0  0  0  0  0  0
  -23.5340   -8.0740   22.1380 C   0  0  0  0  0  3  0  0  0  0  0  0
  -22.3650   -7.7890   21.3950 C   0  0  0  0  0  0  0  0  0  0  0  0
  -21.8840   -8.7420   20.4790 C   0  0  0  0  0  3  0  0  0  0  0  0
  -22.5410   -9.9730   20.3170 C   0  0  0  0  0  3  0  0  0  0  0  0
  -21.6750   -6.6020   21.4670 O   0  0  0  0  0  0  0  0  0  0  0  0
  -21.6760   -5.8380   22.6060 C   0  0  0  0  0  0  0  0  0  0  0  0
  -21.2270   -6.3460   23.8450 C   0  0  0  0  0  3  0  0  0  0  0  0
  -21.1790   -5.5050   24.9750 C   0  0  0  0  0  3  0  0  0  0  0  0
  -21.5690   -4.1560   24.8670 C   0  0  0  0  0  0  0  0  0  0  0  0
  -22.0110   -3.6470   23.6330 C   0  0  0  0  0  3  0  0  0  0  0  0
  -22.0610   -4.4860   22.5060 C   0  0  0  0  0  0  0  0  0  0  0  0
  -22.4680   -3.9840   21.3130 F   0  0  0  0  0  0  0  0  0  0  0  0
  -21.5160   -3.3460   25.9500 F   0  0  0  0  0  0  0  0  0  0  0  0
  -22.4090  -13.3000   21.3240 C   0  0  0  0  0  0  0  0  0  0  0  0
  -21.7450  -12.5400   22.1870 N   0  0  0  0  0  0  0  0  0  0  0  0
  -21.9020  -14.3170   20.8510 O   0  0  0  0  0  0  0  0  0  0  0  0
  -22.1650  -11.7170   22.5910 H   0  0  0  0  0  0  0  0  0  0  0  0
  -20.8020  -12.7870   22.4510 H   0  0  0  0  0  0  0  0  0  0  0  0
  -24.9280  -15.1250   20.4790 N   0  0  0  0  0  0  0  0  0  0  0  0
  -24.1390  -15.7410   20.6370 H   0  0  0  0  0  0  0  0  0  0  0  0
  -25.7530  -15.6120   20.1530 H   0  0  0  0  0  0  0  0  0  0  0  0
  -31.1570  -18.8540   24.3640 C   0  0  0  0  0  2  0  0  0  0  0  0
  -29.0690  -18.8690   25.9370 C   0  0  0  0  0  1  0  0  0  0  0  0
  -30.3840  -18.1890   25.5270 C   0  0  0  0  0  2  0  0  0  0  0  0
  -30.3910  -22.5390   21.1920 C   0  0  0  0  0  2  0  0  0  0  0  0
  -28.6090  -22.6850   19.4000 C   0  0  0  0  0  2  0  0  0  0  0  0
  -29.4350  -23.3030   20.2710 C   0  0  0  0  0  0  0  0  0  0  0  0
  -29.5030  -24.8290   20.4210 C   0  0  0  0  0  2  0  0  0  0  0  0
  -28.3440  -25.6100   19.7670 C   0  0  0  0  0  2  0  0  0  0  0  0
  -28.4290  -27.0200   20.0040 O   0  0  0  0  0  0  0  0  0  0  0  0
  -24.5150  -31.9760   23.2410 C   0  0  0  0  0  0  0  0  0  0  0  0
  -27.2330  -27.7130   19.9950 C   0  0  0  0  0  0  0  0  0  0  0  0
  -23.3240  -30.5960   21.5680 C   0  0  0  0  0  3  0  0  0  0  0  0
  -24.7970  -29.1500   20.0760 C   0  0  0  0  0  0  0  0  0  0  0  0
  -25.8310  -31.0380   21.3420 C   0  0  0  0  0  2  0  0  0  0  0  0
  -25.9470  -29.6890   20.6640 C   0  0  0  0  0  0  0  0  0  0  0  0
  -27.1670  -28.9790   20.6180 C   0  0  0  0  0  3  0  0  0  0  0  0
  -26.0640  -27.1920   19.3920 C   0  0  0  0  0  3  0  0  0  0  0  0
  -24.8490  -27.9010   19.4350 C   0  0  0  0  0  3  0  0  0  0  0  0
  -23.5310  -29.9710   20.1640 C   0  0  0  0  0  2  0  0  0  0  0  0
  -24.5760  -31.2170   22.1110 N   0  0  0  0  0  0  0  0  0  0  0  0
  -23.4350  -32.2000   23.8050 O   0  0  0  0  0  0  0  0  0  0  0  0
  -22.7160  -29.5260   22.5030 C   0  0  0  0  0  0  0  0  0  0  0  0
  -21.3970  -29.3070   22.3850 N   0  0  0  0  0  0  0  0  0  0  0  0
  -23.4260  -28.8950   23.2920 O   0  0  0  0  0  0  0  0  0  0  0  0
  -20.8830  -29.8770   21.7270 H   0  0  0  0  0  0  0  0  0  0  0  0
  -18.0630  -27.9990   22.8830 C   0  0  0  0  0  0  0  0  0  0  0  0
  -20.6160  -28.3200   23.1310 C   0  0  0  0  0  3  0  0  0  0  0  0
  -20.7500  -26.9120   22.5080 C   0  0  0  0  0  2  0  0  0  0  0  0
  -19.6440  -26.5920   21.4960 C   0  0  0  0  0  2  0  0  0  0  0  0
  -18.2670  -26.6780   22.1620 C   0  0  0  0  0  2  0  0  0  0  0  0
  -19.1660  -28.7770   23.3260 C   0  0  0  0  0  0  0  0  0  0  0  0
  -18.9220  -30.0140   23.9590 C   0  0  0  0  0  3  0  0  0  0  0  0
  -17.6070  -30.4750   24.1550 C   0  0  0  0  0  3  0  0  0  0  0  0
  -16.5190  -29.6960   23.7270 C   0  0  0  0  0  3  0  0  0  0  0  0
  -16.7470  -28.4590   23.0990 C   0  0  0  0  0  3  0  0  0  0  0  0
  -25.7930  -32.6190   23.8650 C   0  0  0  0  0  3  0  0  0  0  0  0
  -26.3130  -31.8580   25.1450 C   0  0  1  0  0  0  0  0  0  0  0  0
  -25.2190  -31.6140   26.2110 C   0  0  0  0  0  1  0  0  0  0  0  0
  -26.9160  -30.4870   24.7560 C   0  0  0  0  0  1  0  0  0  0  0  0
  -27.4520  -32.6690   25.8090 C   0  0  0  0  0  1  0  0  0  0  0  0
  -25.4750  -34.0170   24.1850 N   0  0  0  0  0  0  0  0  0  0  0  0
  -25.7960  -35.0640   23.4140 C   0  0  0  0  0  0  0  0  0  0  0  0
  -26.4650  -34.9550   22.3830 O   0  0  0  0  0  0  0  0  0  0  0  0
  -24.8860  -34.1760   24.9890 H   0  0  0  0  0  0  0  0  0  0  0  0
  -24.0510  -36.8340   23.0380 C   0  0  0  0  0  1  0  0  0  0  0  0
  -25.2970  -36.4530   23.8560 C   0  0  0  0  0  3  0  0  0  0  0  0
  -27.4260  -37.3630   24.6730 C   0  0  0  0  0  1  0  0  0  0  0  0
  -26.3210  -37.5130   23.7290 N   0  0  0  0  0  0  0  0  0  0  0  0
  -25.9090  -38.4320   23.8660 H   0  0  0  0  0  0  0  0  0  0  0  0
  1  2  1  0
  2  5  1  0
  2  3  1  0
  4  2  1  0
  5 46  1  0
  6  8  1  0
  6  7  1  0
  7  9  1  0
  8  7  1  0
  8  5  1  0
 10  9  1  0
 11 16  1  0
 12 13  1  0
 12 11  1  0
 14 13  1  0
 14 21  1  0
 14 15  1  0
 16 10  1  0
 16 15  1  0
 17 10  2  0
 18 19  2  0
 19 38  1  0
 20 19  1  0
 20 23  1  0
 21 22  1  0
 21 18  1  0
 22 20  2  0
 23 24  1  0
 24 25  2  0
 26 29  1  0
 26 25  1  0
 27 26  2  0
 28 27  1  0
 28 23  2  0
 29 30  1  0
 30 31  1  0
 31 32  2  0
 33 32  1  0
 33 37  1  0
 34 33  2  0
 35 30  2  0
 35 34  1  0
 36 35  1  0
 38 39  1  0
 39 42  1  0
 39 41  1  0
 40 38  2  0
 43 18  1  0
 43 44  1  0
 45 43  1  0
 46 48  1  0
 48 47  1  0
 49  1  1  0
 50 51  2  0
 51 52  1  0
 51 49  1  0
 53 54  1  0
 53 52  1  0
 55 66  2  0
 56 54  1  0
 56 61  1  0
 57 65  1  0
 57 67  1  0
 58 64  1  0
 58 60  1  0
 59 65  1  0
 60 59  1  0
 61 60  2  0
 62 63  1  0
 62 56  2  0
 63 58  2  0
 64 57  1  0
 65 55  1  0
 67 69  2  0
 68 67  1  0
 70 68  1  0
 71 80  2  0
 71 76  1  0
 72 68  1  0
 72 76  1  0
 73 72  1  0
 74 75  1  0
 74 73  1  0
 75 71  1  0
 76 77  2  0
 77 78  1  0
 79 78  2  0
 80 79  1  0
 81 55  1  0
 81 86  1  0
 81 82  1  0
 82 85  1  1
 82 83  1  0
 84 82  1  0
 86 89  1  0
 87 91  1  0
 87 86  1  0
 88 87  2  0
 91 90  1  0
 93 91  1  0
 93 94  1  0
 93 92  1  0
M  ISO  4   9 100  10 100  53 101  54 101
M  END
>  <TORSDO>  (39) 
F 26

>  <SCORE>  (39) 
-6.480

>  <name>  (39) 
38

>  <ligand_id>  (39) 
38

>  <original_smiles>  (39) 
[H]C([H])=C(C([H])([H])C([H])([H])Oc1c([H])c([H])c2c(c1[H])C([H])([H])N(C(=O)C([H])(N([H])C(=O)C([H])(N([H])C([H])([H])[H])C([H])([H])[H])C(C([H])([H])[H])(C([H])([H])[H])C([H])([H])[H])C([H])(C(=O)N([H])C1([H])c3c([H])c([H])c([H])c([H])c3C([H])([H])C([H])([H])C1([H])[H])C2([H])[H])C([H])([H])C([H])([H])[N+]([H])([H])C([H])(C([H])([H])C([H])([H])C([H])([H])[H])C1([H])C([H])([H])C1([H])C([H])([H])C(=O)N1C([H])([H])C([H])([H])C([H])([H])C([H])(n2nc(-c3c([H])c([H])c(Oc4c([H])c([H])c(F)c([H])c4F)c([H])c3[H])c(C(=O)N([H])[H])c2N([H])[H])C1([H])[H]

>  <smiles>  (39) 
[H]C([H])=C(C([H])([H])C([H])([H])Oc1c([H])c([H])c2c(c1[H])C([H])([H])N(C(=O)C([H])(N([H])C(=O)C([H])(N([H])C([H])([H])[H])C([H])([H])[H])C(C([H])([H])[H])(C([H])([H])[H])C([H])([H])[H])C([H])(C(=O)N([H])C1([H])c3c([H])c([H])c([H])c([H])c3C([H])([H])C([H])([H])C1([H])[H])C2([H])[H])C([H])([H])C([H])([H])[N+]([H])([H])C([H])(C([H])([H])C([H])([H])C([H])([H])[H])C1([H])C([H])([H])C1([H])C([H])([H])C(=O)N1C([H])([H])C([H])([H])C([H])([H])C([H])(n2nc(-c3c([H])c([H])c(Oc4c([H])c([H])c(F)c([H])c4F)c([H])c3[H])c(C(=O)N([H])[H])c2N([H])[H])C1([H])[H]

$$$$
39:0:0
     RDKit          3D

 93102  0  0  1  0  0  0  0  0999 V2000
  -32.4990  -18.9680   21.7610 C   0  0  0  0  0  2  0  0  0  0  0  0
  -28.0750  -20.2530   21.5310 C   0  0  0  0  0  2  0  0  0  0  0  0
  -32.3830  -17.7930   20.7700 C   0  0  0  0  0  2  0  0  0  0  0  0
  -28.4240  -21.3880   20.5450 C   0  0  0  0  0  2  0  0  0  0  0  0
  -31.0540  -19.3110   22.1670 C   0  0  0  0  0  2  0  0  0  0  0  0
  -28.7070  -18.9090   21.1300 C   0  0  0  0  0  2  0  0  0  0  0  0
  -30.8700  -17.5360   20.6530 C   0  0  0  0  0  3  0  0  0  0  0  0
  -29.9440  -21.5260   20.3100 C   0  0  0  0  0  3  0  0  0  0  0  0
  -30.2300  -19.0030   20.8900 C   0  0  2  0  0  0  0  0  0  0  0  0
  -30.4980  -20.1500   19.9050 N   0  0  0  0  0  4  0  0  0  0  0  0
  -31.4970  -20.2310   19.8010 H   0  0  0  0  0  0  0  0  0  0  0  0
  -30.1280  -19.8970   19.0020 H   0  0  0  0  0  0  0  0  0  0  0  0
  -30.3300  -16.4010   19.6620 C   0  0  0  0  0  2  0  0  0  0  0  0
  -31.0860  -14.9970   19.5920 C   0  0  0  0  0  0  0  0  0  0  0  0
  -30.7850  -12.6680   18.7790 C   0  0  0  0  0  2  0  0  0  0  0  0
  -29.7710  -12.6830   17.6140 C   0  0  0  0  0  2  0  0  0  0  0  0
  -28.3290  -12.5600   18.1450 C   0  0  0  0  0  2  0  0  0  0  0  0
  -28.0400  -13.5320   19.3190 C   0  0  0  0  0  3  0  0  0  0  0  0
  -29.1730  -13.5130   20.3720 C   0  0  0  0  0  2  0  0  0  0  0  0
  -30.4410  -13.7860   19.6840 N   0  0  0  0  0  0  0  0  0  0  0  0
  -32.2540  -15.0230   19.2030 O   0  0  0  0  0  0  0  0  0  0  0  0
  -25.7640  -14.1910   20.3130 C   0  0  0  0  0  0  0  0  0  0  0  0
  -24.6910  -13.4480   20.7200 C   0  0  0  0  0  0  0  0  0  0  0  0
  -25.0650  -12.0800   20.5450 C   0  0  0  0  0  0  0  0  0  0  0  0
  -26.7290  -13.2810   19.9160 N   0  0  0  0  0  0  0  0  0  0  0  0
  -26.3200  -12.0000   20.1170 N   0  0  0  0  0  0  0  0  0  0  0  0
  -24.2830  -10.8480   20.7050 C   0  0  0  0  0  0  0  0  0  0  0  0
  -24.7190   -9.8030   21.5500 C   0  0  0  0  0  3  0  0  0  0  0  0
  -23.9410   -8.6360   21.7050 C   0  0  0  0  0  3  0  0  0  0  0  0
  -22.7110   -8.5050   21.0150 C   0  0  0  0  0  0  0  0  0  0  0  0
  -22.2920   -9.5380   20.1600 C   0  0  0  0  0  3  0  0  0  0  0  0
  -23.0710  -10.6970   20.0030 C   0  0  0  0  0  3  0  0  0  0  0  0
  -21.9020   -7.3970   21.0860 O   0  0  0  0  0  0  0  0  0  0  0  0
  -21.8500   -6.6110   22.2090 C   0  0  0  0  0  0  0  0  0  0  0  0
  -21.5130   -7.1410   23.4730 C   0  0  0  0  0  3  0  0  0  0  0  0
  -21.4040   -6.2880   24.5880 C   0  0  0  0  0  3  0  0  0  0  0  0
  -21.6220   -4.9050   24.4410 C   0  0  0  0  0  0  0  0  0  0  0  0
  -21.9510   -4.3740   23.1820 C   0  0  0  0  0  3  0  0  0  0  0  0
  -22.0610   -5.2240   22.0690 C   0  0  0  0  0  0  0  0  0  0  0  0
  -22.3600   -4.7060   20.8530 F   0  0  0  0  0  0  0  0  0  0  0  0
  -21.5090   -4.0830   25.5100 F   0  0  0  0  0  0  0  0  0  0  0  0
  -23.3550  -13.9750   21.1580 C   0  0  0  0  0  0  0  0  0  0  0  0
  -22.6760  -13.2580   22.0470 N   0  0  0  0  0  0  0  0  0  0  0  0
  -22.9270  -15.0540   20.7480 O   0  0  0  0  0  0  0  0  0  0  0  0
  -23.0390  -12.3840   22.3970 H   0  0  0  0  0  0  0  0  0  0  0  0
  -21.7820  -13.5890   22.3840 H   0  0  0  0  0  0  0  0  0  0  0  0
  -25.9930  -15.5600   20.2230 N   0  0  0  0  0  0  0  0  0  0  0  0
  -25.2770  -16.2420   20.4480 H   0  0  0  0  0  0  0  0  0  0  0  0
  -26.8350  -15.9800   19.8520 H   0  0  0  0  0  0  0  0  0  0  0  0
  -30.2700  -22.7930   19.3770 C   0  0  0  0  0  2  0  0  0  0  0  0
  -30.0370  -24.2850   19.9450 C   0  0  0  0  0  3  0  0  0  0  0  0
  -29.3650  -25.3810   18.9920 C   0  0  0  0  0  3  0  0  0  0  0  0
  -29.1700  -26.7850   19.4530 O   0  0  0  0  0  0  0  0  0  0  0  0
  -24.7190  -31.3320   22.8530 C   0  0  0  0  0  0  0  0  0  0  0  0
  -27.9210  -27.4470   19.4280 C   0  0  0  0  0  0  0  0  0  0  0  0
  -23.7090  -29.9270   21.0940 C   0  0  0  0  0  3  0  0  0  0  0  0
  -25.3470  -28.7200   19.5410 C   0  0  0  0  0  0  0  0  0  0  0  0
  -26.1800  -30.6040   20.9490 C   0  0  0  0  0  2  0  0  0  0  0  0
  -26.4430  -29.3110   20.1830 C   0  0  0  0  0  0  0  0  0  0  0  0
  -27.7240  -28.6830   20.1180 C   0  0  0  0  0  3  0  0  0  0  0  0
  -26.7920  -26.9140   18.7570 C   0  0  0  0  0  3  0  0  0  0  0  0
  -25.5260  -27.5260   18.8230 C   0  0  0  0  0  3  0  0  0  0  0  0
  -24.0030  -29.4090   19.6610 C   0  0  0  0  0  2  0  0  0  0  0  0
  -24.8870  -30.6350   21.6910 N   0  0  0  0  0  0  0  0  0  0  0  0
  -23.6130  -31.4110   23.4060 O   0  0  0  0  0  0  0  0  0  0  0  0
  -23.1970  -28.7520   21.9590 C   0  0  0  0  0  0  0  0  0  0  0  0
  -21.9040  -28.4140   21.8190 N   0  0  0  0  0  0  0  0  0  0  0  0
  -23.9600  -28.1510   22.7180 O   0  0  0  0  0  0  0  0  0  0  0  0
  -21.3400  -28.9610   21.1830 H   0  0  0  0  0  0  0  0  0  0  0  0
  -18.7180  -26.7400   22.2010 C   0  0  0  0  0  0  0  0  0  0  0  0
  -21.2210  -27.3130   22.5020 C   0  0  0  0  0  3  0  0  0  0  0  0
  -21.5080  -25.9650   21.8040 C   0  0  0  0  0  2  0  0  0  0  0  0
  -20.4500  -25.5870   20.7630 C   0  0  0  0  0  2  0  0  0  0  0  0
  -19.0660  -25.4900   21.4120 C   0  0  0  0  0  2  0  0  0  0  0  0
  -19.7280  -27.6050   22.6990 C   0  0  0  0  0  0  0  0  0  0  0  0
  -19.3510  -28.7690   23.4000 C   0  0  0  0  0  3  0  0  0  0  0  0
  -17.9920  -29.0750   23.6080 C   0  0  0  0  0  3  0  0  0  0  0  0
  -16.9950  -28.2070   23.1300 C   0  0  0  0  0  3  0  0  0  0  0  0
  -17.3590  -27.0430   22.4300 C   0  0  0  0  0  3  0  0  0  0  0  0
  -25.9110  -32.0770   23.5330 C   0  0  0  0  0  3  0  0  0  0  0  0
  -26.5240  -31.2820   24.7530 C   0  0  1  0  0  0  0  0  0  0  0  0
  -25.4720  -30.8310   25.7930 C   0  0  0  0  0  1  0  0  0  0  0  0
  -27.2730  -30.0220   24.2610 C   0  0  0  0  0  1  0  0  0  0  0  0
  -27.5660  -32.1650   25.4790 C   0  0  0  0  0  1  0  0  0  0  0  0
  -25.4200  -33.3910   23.9710 N   0  0  0  0  0  0  0  0  0  0  0  0
  -25.6250  -34.5390   23.3130 C   0  0  0  0  0  0  0  0  0  0  0  0
  -26.3170  -34.6110   22.2940 O   0  0  0  0  0  0  0  0  0  0  0  0
  -24.7980  -33.3980   24.7660 H   0  0  0  0  0  0  0  0  0  0  0  0
  -23.6800  -36.1180   23.0800 C   0  0  0  0  0  1  0  0  0  0  0  0
  -24.9580  -35.8110   23.8760 C   0  0  0  0  0  3  0  0  0  0  0  0
  -26.9560  -36.8880   24.8080 C   0  0  0  0  0  1  0  0  0  0  0  0
  -25.8450  -36.9940   23.8670 N   0  0  0  0  0  0  0  0  0  0  0  0
  -25.3240  -37.8380   24.0880 H   0  0  0  0  0  0  0  0  0  0  0  0
  1  5  1  0
  3  1  1  0
  4  2  1  0
  6  2  1  0
  7 13  1  0
  7  3  1  0
  7  9  1  0
  8 50  1  0
  8  4  1  0
  9  6  1  1
  9  5  1  0
 10  8  1  0
 10  9  1  0
 11 10  1  0
 12 10  1  0
 14 13  1  0
 14 20  1  0
 15 20  1  0
 16 17  1  0
 16 15  1  0
 18 17  1  0
 18 25  1  0
 18 19  1  0
 20 19  1  0
 21 14  2  0
 22 23  2  0
 23 42  1  0
 24 27  1  0
 24 23  1  0
 25 26  1  0
 25 22  1  0
 26 24  2  0
 27 28  1  0
 28 29  2  0
 30 33  1  0
 30 29  1  0
 31 30  2  0
 32 31  1  0
 32 27  2  0
 33 34  1  0
 34 35  1  0
 35 36  2  0
 37 36  1  0
 37 41  1  0
 38 37  2  0
 39 34  2  0
 39 38  1  0
 40 39  1  0
 42 43  1  0
 43 46  1  0
 43 45  1  0
 44 42  2  0
 47 22  1  0
 47 48  1  0
 49 47  1  0
 50 51  1  0
 52 53  1  0
 52 51  2  0
 54 65  2  0
 55 53  1  0
 55 60  1  0
 56 64  1  0
 56 66  1  0
 57 63  1  0
 57 59  1  0
 58 64  1  0
 59 58  1  0
 60 59  2  0
 61 62  1  0
 61 55  2  0
 62 57  2  0
 63 56  1  0
 64 54  1  0
 66 68  2  0
 67 66  1  0
 69 67  1  0
 70 79  2  0
 70 75  1  0
 71 67  1  0
 71 75  1  0
 72 71  1  0
 73 74  1  0
 73 72  1  0
 74 70  1  0
 75 76  2  0
 76 77  1  0
 78 77  2  0
 79 78  1  0
 80 54  1  0
 80 85  1  0
 80 81  1  0
 81 84  1  1
 81 82  1  0
 83 81  1  0
 85 88  1  0
 86 90  1  0
 86 85  1  0
 87 86  2  0
 90 89  1  0
 92 90  1  0
 92 93  1  0
 92 91  1  0
M  ISO  4  13 100  14 100  52 101  53 101
M  END
>  <TORSDO>  (40) 
F 20

>  <SCORE>  (40) 
-9.349

>  <name>  (40) 
39

>  <ligand_id>  (40) 
39

>  <original_smiles>  (40) 
[H]c1c([H])c([H])c2c(c1[H])C([H])([H])C([H])([H])C([H])([H])C2([H])N([H])C(=O)C1([H])N(C(=O)C([H])(N([H])C(=O)C([H])(N([H])C([H])([H])[H])C([H])([H])[H])C(C([H])([H])[H])(C([H])([H])[H])C([H])([H])[H])C([H])([H])c2c([H])c(OC([H])([H])C([H])([H])C([H])([H])C3([H])C([H])([H])C([H])([H])C([H])([H])C4(C([H])([H])C([H])([H])C([H])([H])C4([H])C([H])([H])C(=O)N4C([H])([H])C([H])([H])C([H])([H])C([H])(n5nc(-c6c([H])c([H])c(Oc7c([H])c([H])c(F)c([H])c7F)c([H])c6[H])c(C(=O)N([H])[H])c5N([H])[H])C4([H])[H])[N+]3([H])[H])c([H])c([H])c2C1([H])[H]

>  <smiles>  (40) 
[H]c1c([H])c([H])c2c(c1[H])C([H])([H])C([H])([H])C([H])([H])C2([H])N([H])C(=O)C1([H])N(C(=O)C([H])(N([H])C(=O)C([H])(N([H])C([H])([H])[H])C([H])([H])[H])C(C([H])([H])[H])(C([H])([H])[H])C([H])([H])[H])C([H])([H])c2c([H])c(OC([H])([H])C([H])([H])C([H])([H])C3([H])C([H])([H])C([H])([H])C([H])([H])C4(C([H])([H])C([H])([H])C([H])([H])C4([H])C([H])([H])C(=O)N4C([H])([H])C([H])([H])C([H])([H])C([H])(n5nc(-c6c([H])c([H])c(Oc7c([H])c([H])c(F)c([H])c7F)c([H])c6[H])c(C(=O)N([H])[H])c5N([H])[H])C4([H])[H])[N+]3([H])[H])c([H])c([H])c2C1([H])[H]

$$$$
40:0:0
     RDKit          3D

 94103  0  0  1  0  0  0  0  0999 V2000
  -28.1540  -24.1480   22.6780 C   0  0  0  0  0  3  0  0  0  0  0  0
  -28.3910  -22.9820   21.9240 C   0  0  0  0  0  3  0  0  0  0  0  0
  -28.1400  -25.4100   22.0550 C   0  0  0  0  0  3  0  0  0  0  0  0
  -28.6120  -24.3440   19.9160 C   0  0  0  0  0  3  0  0  0  0  0  0
  -28.6290  -23.0620   20.5330 C   0  0  0  0  0  0  0  0  0  0  0  0
  -28.3640  -25.5240   20.6670 C   0  0  0  0  0  0  0  0  0  0  0  0
  -28.3680  -26.7700   20.0680 O   0  0  0  0  0  0  0  0  0  0  0  0
  -24.5920  -31.9530   23.2230 C   0  0  0  0  0  0  0  0  0  0  0  0
  -27.2100  -27.5150   20.1120 C   0  0  0  0  0  0  0  0  0  0  0  0
  -23.3720  -30.5540   21.5900 C   0  0  0  0  0  3  0  0  0  0  0  0
  -24.8140  -29.0170   20.1510 C   0  0  0  0  0  0  0  0  0  0  0  0
  -25.8940  -30.9140   21.3690 C   0  0  0  0  0  2  0  0  0  0  0  0
  -25.9770  -29.5410   20.7310 C   0  0  0  0  0  0  0  0  0  0  0  0
  -27.1800  -28.7970   20.7110 C   0  0  0  0  0  3  0  0  0  0  0  0
  -26.0330  -27.0050   19.5270 C   0  0  0  0  0  3  0  0  0  0  0  0
  -24.8360  -27.7460   19.5480 C   0  0  0  0  0  3  0  0  0  0  0  0
  -23.5700  -29.8750   20.2080 C   0  0  0  0  0  2  0  0  0  0  0  0
  -24.6390  -31.1550   22.1200 N   0  0  0  0  0  0  0  0  0  0  0  0
  -23.5160  -32.2230   23.7750 O   0  0  0  0  0  0  0  0  0  0  0  0
  -22.7300  -29.5310   22.5560 C   0  0  0  0  0  0  0  0  0  0  0  0
  -21.4060  -29.3410   22.4340 N   0  0  0  0  0  0  0  0  0  0  0  0
  -23.4210  -28.9100   23.3680 O   0  0  0  0  0  0  0  0  0  0  0  0
  -20.9090  -29.8940   21.7500 H   0  0  0  0  0  0  0  0  0  0  0  0
  -18.0440  -28.1120   22.9270 C   0  0  0  0  0  0  0  0  0  0  0  0
  -20.5980  -28.4000   23.2090 C   0  0  0  0  0  3  0  0  0  0  0  0
  -20.7190  -26.9660   22.6410 C   0  0  0  0  0  2  0  0  0  0  0  0
  -19.6250  -26.6250   21.6240 C   0  0  0  0  0  2  0  0  0  0  0  0
  -18.2390  -26.7590   22.2610 C   0  0  0  0  0  2  0  0  0  0  0  0
  -19.1530  -28.8890   23.3580 C   0  0  0  0  0  0  0  0  0  0  0  0
  -18.9190  -30.1530   23.9390 C   0  0  0  0  0  3  0  0  0  0  0  0
  -17.6080  -30.6440   24.0930 C   0  0  0  0  0  3  0  0  0  0  0  0
  -16.5140  -29.8640   23.6790 C   0  0  0  0  0  3  0  0  0  0  0  0
  -16.7320  -28.6010   23.1030 C   0  0  0  0  0  3  0  0  0  0  0  0
  -25.8830  -32.5840   23.8310 C   0  0  0  0  0  3  0  0  0  0  0  0
  -26.4120  -31.8120   25.1020 C   0  0  1  0  0  0  0  0  0  0  0  0
  -25.3300  -31.5760   26.1810 C   0  0  0  0  0  1  0  0  0  0  0  0
  -26.9880  -30.4330   24.7010 C   0  0  0  0  0  1  0  0  0  0  0  0
  -27.5720  -32.6030   25.7520 C   0  0  0  0  0  1  0  0  0  0  0  0
  -25.5800  -33.9830   24.1620 N   0  0  0  0  0  0  0  0  0  0  0  0
  -25.9070  -35.0320   23.3970 C   0  0  0  0  0  0  0  0  0  0  0  0
  -26.5700  -34.9240   22.3610 O   0  0  0  0  0  0  0  0  0  0  0  0
  -24.9920  -34.1390   24.9680 H   0  0  0  0  0  0  0  0  0  0  0  0
  -24.1760  -36.8230   23.0530 C   0  0  0  0  0  1  0  0  0  0  0  0
  -25.4250  -36.4220   23.8530 C   0  0  0  0  0  3  0  0  0  0  0  0
  -27.5690  -37.3080   24.6550 C   0  0  0  0  0  1  0  0  0  0  0  0
  -26.4560  -37.4750   23.7250 N   0  0  0  0  0  0  0  0  0  0  0  0
  -26.0520  -38.3960   23.8770 H   0  0  0  0  0  0  0  0  0  0  0  0
  -28.8870  -21.8000   19.6880 C   0  0  0  0  0  2  0  0  0  0  0  0
  -29.4510  -19.3620   19.9040 C   0  0  0  0  0  0  0  0  0  0  0  0
  -29.1250  -20.5550   20.4390 N   0  0  0  0  0  0  0  0  0  0  0  0
  -29.5550  -19.2040   18.6860 O   0  0  0  0  0  0  0  0  0  0  0  0
  -29.0710  -20.6140   21.4450 H   0  0  0  0  0  0  0  0  0  0  0  0
  -29.2260  -16.7720   20.3770 C   0  0  0  0  0  2  0  0  0  0  0  0
  -31.2100  -16.5230   21.7880 C   0  0  0  0  0  2  0  0  0  0  0  0
  -30.0700  -15.7000   21.1370 C   0  0  0  0  0  3  0  0  0  0  0  0
  -29.6920  -18.1710   20.8670 C   0  0  0  0  0  3  0  0  0  0  0  0
  -31.1770  -17.9090   21.1350 C   0  0  0  0  0  3  0  0  0  0  0  0
  -31.7320  -18.8420   21.9120 F   0  0  0  0  0  0  0  0  0  0  0  0
  -30.5930  -14.5440   20.2260 C   0  0  0  0  0  0  0  0  0  0  0  0
  -30.2390  -12.4110   19.0140 C   0  0  0  0  0  2  0  0  0  0  0  0
  -29.2540  -12.6350   17.8470 C   0  0  0  0  0  2  0  0  0  0  0  0
  -27.7960  -12.4850   18.3260 C   0  0  0  0  0  2  0  0  0  0  0  0
  -27.5080  -13.2920   19.6190 C   0  0  0  0  0  3  0  0  0  0  0  0
  -28.6030  -13.0490   20.6810 C   0  0  0  0  0  2  0  0  0  0  0  0
  -29.9060  -13.3740   20.0800 N   0  0  0  0  0  0  0  0  0  0  0  0
  -31.6400  -14.7480   19.6020 O   0  0  0  0  0  0  0  0  0  0  0  0
  -25.1330  -13.8850   20.4120 C   0  0  0  0  0  0  0  0  0  0  0  0
  -24.0810  -13.1060   20.8160 C   0  0  0  0  0  0  0  0  0  0  0  0
  -24.5470  -11.7570   20.7680 C   0  0  0  0  0  0  0  0  0  0  0  0
  -26.1740  -13.0100   20.1430 N   0  0  0  0  0  0  0  0  0  0  0  0
  -25.8260  -11.7250   20.4130 N   0  0  0  0  0  0  0  0  0  0  0  0
  -23.8350  -10.4920   20.9850 C   0  0  0  0  0  0  0  0  0  0  0  0
  -24.3080   -9.5250   21.8990 C   0  0  0  0  0  3  0  0  0  0  0  0
  -23.5950   -8.3240   22.1040 C   0  0  0  0  0  3  0  0  0  0  0  0
  -22.3960   -8.0810   21.3940 C   0  0  0  0  0  0  0  0  0  0  0  0
  -21.9400   -9.0370   20.4690 C   0  0  0  0  0  3  0  0  0  0  0  0
  -22.6530  -10.2290   20.2630 C   0  0  0  0  0  3  0  0  0  0  0  0
  -21.6520   -6.9310   21.5080 O   0  0  0  0  0  0  0  0  0  0  0  0
  -21.6590   -6.1800   22.6560 C   0  0  0  0  0  0  0  0  0  0  0  0
  -21.2980   -6.7270   23.9060 C   0  0  0  0  0  3  0  0  0  0  0  0
  -21.2500   -5.9040   25.0490 C   0  0  0  0  0  3  0  0  0  0  0  0
  -21.5530   -4.5330   24.9420 C   0  0  0  0  0  0  0  0  0  0  0  0
  -21.9060   -3.9840   23.6980 C   0  0  0  0  0  3  0  0  0  0  0  0
  -21.9560   -4.8050   22.5570 C   0  0  0  0  0  0  0  0  0  0  0  0
  -22.2760   -4.2670   21.3560 F   0  0  0  0  0  0  0  0  0  0  0  0
  -21.5000   -3.7390   26.0370 F   0  0  0  0  0  0  0  0  0  0  0  0
  -22.6920  -13.5780   21.1380 C   0  0  0  0  0  0  0  0  0  0  0  0
  -21.9980  -12.8780   22.0300 N   0  0  0  0  0  0  0  0  0  0  0  0
  -22.2310  -14.6010   20.6350 O   0  0  0  0  0  0  0  0  0  0  0  0
  -22.3870  -12.0520   22.4600 H   0  0  0  0  0  0  0  0  0  0  0  0
  -21.0680  -13.1750   22.2860 H   0  0  0  0  0  0  0  0  0  0  0  0
  -25.2830  -15.2570   20.2330 N   0  0  0  0  0  0  0  0  0  0  0  0
  -24.5170  -15.9070   20.3810 H   0  0  0  0  0  0  0  0  0  0  0  0
  -26.1200  -15.7040   19.8820 H   0  0  0  0  0  0  0  0  0  0  0  0
  2  1  2  0
  3  1  1  0
  4  5  2  0
  4  6  1  0
  5  2  1  0
  6  3  2  0
  7  9  1  0
  7  6  1  0
  8 19  2  0
  9 14  1  0
 10 18  1  0
 10 20  1  0
 11 17  1  0
 11 13  1  0
 12 18  1  0
 13 12  1  0
 14 13  2  0
 15 16  1  0
 15  9  2  0
 16 11  2  0
 17 10  1  0
 18  8  1  0
 20 22  2  0
 21 20  1  0
 23 21  1  0
 24 33  2  0
 24 29  1  0
 25 21  1  0
 25 29  1  0
 26 25  1  0
 27 28  1  0
 27 26  1  0
 28 24  1  0
 29 30  2  0
 30 31  1  0
 32 31  2  0
 33 32  1  0
 34  8  1  0
 34 39  1  0
 34 35  1  0
 35 38  1  1
 35 36  1  0
 37 35  1  0
 39 42  1  0
 40 44  1  0
 40 39  1  0
 41 40  2  0
 44 43  1  0
 46 44  1  0
 46 47  1  0
 46 45  1  0
 48 50  1  0
 48  5  1  0
 49 50  1  0
 50 52  1  0
 51 49  2  0
 53 56  1  0
 53 55  1  0
 55 59  1  0
 55 54  1  0
 56 49  1  0
 56 57  1  0
 57 54  1  0
 57 58  1  0
 60 65  1  0
 61 62  1  0
 61 60  1  0
 63 62  1  0
 63 70  1  0
 63 64  1  0
 65 59  1  0
 65 64  1  0
 66 59  2  0
 67 68  2  0
 68 87  1  0
 69 68  1  0
 69 72  1  0
 70 67  1  0
 70 71  1  0
 71 69  2  0
 72 73  1  0
 73 74  2  0
 75 78  1  0
 75 74  1  0
 76 75  2  0
 77 76  1  0
 77 72  2  0
 78 79  1  0
 79 80  1  0
 80 81  2  0
 82 81  1  0
 82 86  1  0
 83 82  2  0
 84 79  2  0
 84 83  1  0
 85 84  1  0
 87 88  1  0
 88 91  1  0
 88 90  1  0
 89 87  2  0
 92 93  1  0
 92 67  1  0
 94 92  1  0
M  ISO  4   6 101   7 101  55 100  59 100
M  END
>  <TORSDO>  (41) 
F 19

>  <SCORE>  (41) 
-14.184

>  <name>  (41) 
40

>  <ligand_id>  (41) 
40

>  <original_smiles>  (41) 
[H]c1c([H])c(Oc2c([H])c([H])c3c(c2[H])C([H])([H])N(C(=O)C([H])(N([H])C(=O)C([H])(N([H])C([H])([H])[H])C([H])([H])[H])C(C([H])([H])[H])(C([H])([H])[H])C([H])([H])[H])C([H])(C(=O)N([H])C2([H])c4c([H])c([H])c([H])c([H])c4C([H])([H])C([H])([H])C2([H])[H])C3([H])[H])c([H])c(C([H])([H])N([H])C(=O)C2([H])C([H])([H])C([H])(C(=O)N3C([H])([H])C([H])([H])C([H])([H])C([H])(n4nc(-c5c([H])c([H])c(Oc6c([H])c([H])c(F)c([H])c6F)c([H])c5[H])c(C(=O)N([H])[H])c4N([H])[H])C3([H])[H])C([H])([H])C2([H])F)c1[H]

>  <smiles>  (41) 
[H]c1c([H])c(Oc2c([H])c([H])c3c(c2[H])C([H])([H])N(C(=O)C([H])(N([H])C(=O)C([H])(N([H])C([H])([H])[H])C([H])([H])[H])C(C([H])([H])[H])(C([H])([H])[H])C([H])([H])[H])C([H])(C(=O)N([H])C2([H])c4c([H])c([H])c([H])c([H])c4C([H])([H])C([H])([H])C2([H])[H])C3([H])[H])c([H])c(C([H])([H])N([H])C(=O)C2([H])C([H])([H])C([H])(C(=O)N3C([H])([H])C([H])([H])C([H])([H])C([H])(n4nc(-c5c([H])c([H])c(Oc6c([H])c([H])c(F)c([H])c6F)c([H])c5[H])c(C(=O)N([H])[H])c4N([H])[H])C3([H])[H])C([H])([H])C2([H])F)c1[H]

$$$$
41:0:0
     RDKit          3D

 92101  0  0  1  0  0  0  0  0999 V2000
  -31.8250  -19.8180   16.8040 C   0  0  0  0  0  2  0  0  0  0  0  0
  -32.6170  -20.7960   17.6790 C   0  0  0  0  0  2  0  0  0  0  0  0
  -30.3750  -20.2910   16.6200 C   0  0  0  0  0  2  0  0  0  0  0  0
  -31.9770  -20.9200   19.0670 C   0  0  0  0  0  2  0  0  0  0  0  0
  -29.0910  -19.2750   18.6610 C   0  0  0  0  0  2  0  0  0  0  0  0
  -29.6450  -20.5270   17.9610 C   0  0  0  0  0  3  0  0  0  0  0  0
  -30.4760  -21.2780   19.0170 C   0  0  0  0  0  3  0  0  0  0  0  0
  -29.2790  -19.4550   20.1850 C   0  0  0  0  0  3  0  0  0  0  0  0
  -29.8240  -20.9490   20.3010 N   0  0  2  0  0  4  0  0  0  0  0  0
  -30.5740  -20.8670   20.9740 H   0  0  0  0  0  0  0  0  0  0  0  0
  -30.1470  -18.0750   20.6770 C   0  0  0  0  0  2  0  0  0  0  0  0
  -29.6020  -16.4700   20.5840 C   0  0  0  0  0  2  0  0  0  0  0  0
  -30.4820  -15.0580   20.4400 C   0  0  0  0  0  0  0  0  0  0  0  0
  -30.4040  -12.7030   19.4810 C   0  0  0  0  0  2  0  0  0  0  0  0
  -29.4910  -12.6980   18.2300 C   0  0  0  0  0  2  0  0  0  0  0  0
  -28.0190  -12.4790   18.6280 C   0  0  0  0  0  2  0  0  0  0  0  0
  -27.5930  -13.3770   19.8200 C   0  0  0  0  0  3  0  0  0  0  0  0
  -28.6300  -13.3700   20.9630 C   0  0  0  0  0  2  0  0  0  0  0  0
  -29.9210  -13.7790   20.3950 N   0  0  0  0  0  0  0  0  0  0  0  0
  -31.6880  -15.1310   20.1760 O   0  0  0  0  0  0  0  0  0  0  0  0
  -25.2010  -13.9570   20.5170 C   0  0  0  0  0  0  0  0  0  0  0  0
  -24.1300  -13.1840   20.8780 C   0  0  0  0  0  0  0  0  0  0  0  0
  -24.5920  -11.8330   20.8570 C   0  0  0  0  0  0  0  0  0  0  0  0
  -26.2460  -13.0770   20.2970 N   0  0  0  0  0  0  0  0  0  0  0  0
  -25.8880  -11.7930   20.5650 N   0  0  0  0  0  0  0  0  0  0  0  0
  -23.8570  -10.5730   21.0440 C   0  0  0  0  0  0  0  0  0  0  0  0
  -24.2730   -9.6140   21.9930 C   0  0  0  0  0  3  0  0  0  0  0  0
  -23.5430   -8.4180   22.1710 C   0  0  0  0  0  3  0  0  0  0  0  0
  -22.3810   -8.1740   21.3990 C   0  0  0  0  0  0  0  0  0  0  0  0
  -21.9820   -9.1240   20.4410 C   0  0  0  0  0  3  0  0  0  0  0  0
  -22.7120  -10.3130   20.2630 C   0  0  0  0  0  3  0  0  0  0  0  0
  -21.6270   -7.0290   21.4800 O   0  0  0  0  0  0  0  0  0  0  0  0
  -21.5570   -6.2940   22.6350 C   0  0  0  0  0  0  0  0  0  0  0  0
  -21.1090   -6.8540   23.8500 C   0  0  0  0  0  3  0  0  0  0  0  0
  -20.9880   -6.0450   24.9970 C   0  0  0  0  0  3  0  0  0  0  0  0
  -21.3020   -4.6730   24.9290 C   0  0  0  0  0  0  0  0  0  0  0  0
  -21.7400   -4.1120   23.7160 C   0  0  0  0  0  3  0  0  0  0  0  0
  -21.8650   -4.9200   22.5720 C   0  0  0  0  0  0  0  0  0  0  0  0
  -22.2680   -4.3700   21.4020 F   0  0  0  0  0  0  0  0  0  0  0  0
  -21.1790   -3.8930   26.0290 F   0  0  0  0  0  0  0  0  0  0  0  0
  -22.7300  -13.6660   21.1270 C   0  0  0  0  0  0  0  0  0  0  0  0
  -21.9920  -12.9740   21.9910 N   0  0  0  0  0  0  0  0  0  0  0  0
  -22.3000  -14.6860   20.5930 O   0  0  0  0  0  0  0  0  0  0  0  0
  -22.3590  -12.1510   22.4460 H   0  0  0  0  0  0  0  0  0  0  0  0
  -21.0460  -13.2630   22.1880 H   0  0  0  0  0  0  0  0  0  0  0  0
  -25.3690  -15.3240   20.3270 N   0  0  0  0  0  0  0  0  0  0  0  0
  -24.5910  -15.9730   20.3610 H   0  0  0  0  0  0  0  0  0  0  0  0
  -26.2130  -15.7400   19.9550 H   0  0  0  0  0  0  0  0  0  0  0  0
  -29.0820  -22.2250   20.8820 C   0  0  0  0  0  2  0  0  0  0  0  0
  -28.2290  -23.3950   20.0380 C   0  0  0  0  0  2  0  0  0  0  0  0
  -28.5790  -24.9950   19.6650 C   0  0  0  0  0  2  0  0  0  0  0  0
  -28.3690  -26.3540   20.3530 O   0  0  0  0  0  0  0  0  0  0  0  0
  -24.6440  -31.9210   23.2310 C   0  0  0  0  0  0  0  0  0  0  0  0
  -27.2740  -27.2640   20.2070 C   0  0  0  0  0  0  0  0  0  0  0  0
  -23.4520  -30.5040   21.5980 C   0  0  0  0  0  3  0  0  0  0  0  0
  -24.9120  -28.9460   20.1650 C   0  0  0  0  0  0  0  0  0  0  0  0
  -25.9960  -30.8140   21.4160 C   0  0  0  0  0  2  0  0  0  0  0  0
  -26.0820  -29.4230   20.7690 C   0  0  0  0  0  0  0  0  0  0  0  0
  -27.2570  -28.5930   20.7770 C   0  0  0  0  0  3  0  0  0  0  0  0
  -26.0800  -26.8700   19.5640 C   0  0  0  0  0  3  0  0  0  0  0  0
  -24.9230  -27.6840   19.5500 C   0  0  0  0  0  3  0  0  0  0  0  0
  -23.6700  -29.8240   20.2200 C   0  0  0  0  0  2  0  0  0  0  0  0
  -24.7180  -31.1010   22.1370 N   0  0  0  0  0  0  0  0  0  0  0  0
  -23.5570  -32.1950   23.7640 O   0  0  0  0  0  0  0  0  0  0  0  0
  -22.7930  -29.4920   22.5680 C   0  0  0  0  0  0  0  0  0  0  0  0
  -21.4650  -29.3050   22.4460 N   0  0  0  0  0  0  0  0  0  0  0  0
  -23.4760  -28.8750   23.3890 O   0  0  0  0  0  0  0  0  0  0  0  0
  -20.9690  -29.8580   21.7610 H   0  0  0  0  0  0  0  0  0  0  0  0
  -18.1000  -28.0800   22.9590 C   0  0  0  0  0  0  0  0  0  0  0  0
  -20.6550  -28.3640   23.2220 C   0  0  0  0  0  3  0  0  0  0  0  0
  -20.7670  -26.9310   22.6530 C   0  0  0  0  0  2  0  0  0  0  0  0
  -19.6680  -26.5970   21.6390 C   0  0  0  0  0  2  0  0  0  0  0  0
  -18.2860  -26.7330   22.2830 C   0  0  0  0  0  2  0  0  0  0  0  0
  -19.2110  -28.8550   23.3840 C   0  0  0  0  0  0  0  0  0  0  0  0
  -18.9820  -30.1170   23.9730 C   0  0  0  0  0  3  0  0  0  0  0  0
  -17.6730  -30.6060   24.1420 C   0  0  0  0  0  3  0  0  0  0  0  0
  -16.5750  -29.8290   23.7350 C   0  0  0  0  0  3  0  0  0  0  0  0
  -16.7880  -28.5690   23.1490 C   0  0  0  0  0  3  0  0  0  0  0  0
  -25.9200  -32.5710   23.8510 C   0  0  0  0  0  3  0  0  0  0  0  0
  -25.5980  -33.9720   24.1690 N   0  0  0  0  0  0  0  0  0  0  0  0
  -25.9270  -35.0220   23.4060 C   0  0  0  0  0  0  0  0  0  0  0  0
  -26.5980  -34.9150   22.3750 O   0  0  0  0  0  0  0  0  0  0  0  0
  -24.9940  -34.1280   24.9620 H   0  0  0  0  0  0  0  0  0  0  0  0
  -24.1860  -36.8050   23.0520 C   0  0  0  0  0  1  0  0  0  0  0  0
  -25.4350  -36.4120   23.8560 C   0  0  0  0  0  3  0  0  0  0  0  0
  -27.5690  -37.3180   24.6650 C   0  0  0  0  0  1  0  0  0  0  0  0
  -26.4600  -37.4710   23.7290 N   0  0  0  0  0  0  0  0  0  0  0  0
  -26.0480  -38.3890   23.8720 H   0  0  0  0  0  0  0  0  0  0  0  0
  -26.4350  -31.8170   25.1390 C   0  0  1  0  0  0  0  0  0  0  0  0
  -25.3410  -31.5860   26.2080 C   0  0  0  0  0  1  0  0  0  0  0  0
  -27.0230  -30.4360   24.7660 C   0  0  0  0  0  1  0  0  0  0  0  0
  -27.5790  -32.6260   25.7930 C   0  0  0  0  0  1  0  0  0  0  0  0
  1  2  1  0
  2  4  1  0
  3  1  1  0
  5  8  1  0
  6  3  1  0
  6  5  1  0
  6  7  1  0
  7  4  1  0
  7  9  1  0
  8  9  1  0
  8 11  1  0
  9 49  1  0
  9 10  1  1
 12 11  1  0
 13 12  1  0
 14 19  1  0
 15 16  1  0
 15 14  1  0
 17 16  1  0
 17 24  1  0
 17 18  1  0
 19 13  1  0
 19 18  1  0
 20 13  2  0
 21 22  2  0
 22 41  1  0
 23 22  1  0
 23 26  1  0
 24 21  1  0
 24 25  1  0
 25 23  2  0
 26 27  1  0
 27 28  2  0
 29 32  1  0
 29 28  1  0
 30 29  2  0
 31 30  1  0
 31 26  2  0
 32 33  1  0
 33 34  1  0
 34 35  2  0
 36 35  1  0
 36 40  1  0
 37 36  2  0
 38 33  2  0
 38 37  1  0
 39 38  1  0
 41 42  1  0
 42 45  1  0
 42 44  1  0
 43 41  2  0
 46 47  1  0
 46 21  1  0
 48 46  1  0
 50 49  1  0
 51 50  1  0
 51 52  1  0
 53 64  2  0
 54 52  1  0
 54 59  1  0
 55 63  1  0
 55 65  1  0
 56 62  1  0
 56 58  1  0
 57 63  1  0
 58 59  2  0
 58 57  1  0
 60 54  2  0
 61 60  1  0
 61 56  2  0
 62 55  1  0
 63 53  1  0
 65 67  2  0
 66 65  1  0
 68 66  1  0
 69 78  2  0
 69 74  1  0
 70 66  1  0
 70 74  1  0
 71 70  1  0
 72 73  1  0
 72 71  1  0
 73 69  1  0
 74 75  2  0
 75 76  1  0
 77 76  2  0
 78 77  1  0
 79 53  1  0
 79 80  1  0
 79 89  1  0
 80 83  1  0
 81 85  1  0
 81 80  1  0
 82 81  2  0
 85 84  1  0
 87 85  1  0
 87 88  1  0
 87 86  1  0
 89 92  1  1
 89 90  1  0
 91 89  1  0
M  ISO  4  12 100  13 100  51 101  52 101
M  END
>  <TORSDO>  (42) 
F 21

>  <SCORE>  (42) 
-14.423

>  <name>  (42) 
41

>  <ligand_id>  (42) 
41

>  <original_smiles>  (42) 
[H]c1c([H])c([H])c2c(c1[H])C([H])([H])C([H])([H])C([H])([H])C2([H])N([H])C(=O)C1([H])N(C(=O)C([H])(N([H])C(=O)C([H])(N([H])C([H])([H])[H])C([H])([H])[H])C(C([H])([H])[H])(C([H])([H])[H])C([H])([H])[H])C([H])([H])c2c([H])c(OC([H])([H])C([H])([H])C([H])([H])[N+]3([H])C([H])(C([H])([H])C([H])([H])C(=O)N4C([H])([H])C([H])([H])C([H])([H])C([H])(n5nc(-c6c([H])c([H])c(Oc7c([H])c([H])c(F)c([H])c7F)c([H])c6[H])c(C(=O)N([H])[H])c5N([H])[H])C4([H])[H])C([H])([H])C4([H])C([H])([H])C([H])([H])C([H])([H])C([H])([H])C43[H])c([H])c([H])c2C1([H])[H]

>  <smiles>  (42) 
[H]c1c([H])c([H])c2c(c1[H])C([H])([H])C([H])([H])C([H])([H])C2([H])N([H])C(=O)C1([H])N(C(=O)C([H])(N([H])C(=O)C([H])(N([H])C([H])([H])[H])C([H])([H])[H])C(C([H])([H])[H])(C([H])([H])[H])C([H])([H])[H])C([H])([H])c2c([H])c(OC([H])([H])C([H])([H])C([H])([H])[N+]3([H])C([H])(C([H])([H])C([H])([H])C(=O)N4C([H])([H])C([H])([H])C([H])([H])C([H])(n5nc(-c6c([H])c([H])c(Oc7c([H])c([H])c(F)c([H])c7F)c([H])c6[H])c(C(=O)N([H])[H])c5N([H])[H])C4([H])[H])C([H])([H])C4([H])C([H])([H])C([H])([H])C([H])([H])C([H])([H])C43[H])c([H])c([H])c2C1([H])[H]

$$$$
42:0:0
     RDKit          3D

 96104  0  0  1  0  0  0  0  0999 V2000
  -29.4590  -20.4980   20.7400 C   0  0  0  0  0  3  0  0  0  0  0  0
  -29.7850  -18.5240   17.5100 C   0  0  0  0  0  2  0  0  0  0  0  0
  -30.3900  -19.5860   18.4270 C   0  0  0  0  0  3  0  0  0  0  0  0
  -29.9040  -17.2420   18.3320 C   0  0  0  0  0  3  0  0  0  0  0  0
  -29.5850  -17.7020   19.8030 C   0  0  0  0  0  3  0  0  0  0  0  0
  -31.2990  -16.6400   18.0360 C   0  0  0  0  0  1  0  0  0  0  0  0
  -29.6880  -19.3100   19.7170 N   0  0  1  0  0  4  0  0  0  0  0  0
  -28.7540  -19.4030   19.3480 H   0  0  0  0  0  0  0  0  0  0  0  0
  -29.3550  -21.4380   17.0250 C   0  0  0  0  0  2  0  0  0  0  0  0
  -30.3510  -20.9920   17.8140 C   0  0  0  0  0  0  0  0  0  0  0  0
  -31.5790  -21.8550   18.0360 C   0  0  0  0  0  1  0  0  0  0  0  0
  -30.0580  -16.5780   20.9700 C   0  0  0  0  0  2  0  0  0  0  0  0
  -30.7650  -15.0920   20.7360 C   0  0  0  0  0  0  0  0  0  0  0  0
  -30.7000  -12.7150   19.8800 C   0  0  0  0  0  2  0  0  0  0  0  0
  -29.8680  -12.6390   18.5770 C   0  0  0  0  0  2  0  0  0  0  0  0
  -28.3750  -12.4400   18.8970 C   0  0  0  0  0  2  0  0  0  0  0  0
  -27.8760  -13.3980   20.0110 C   0  0  0  0  0  3  0  0  0  0  0  0
  -28.8410  -13.4570   21.2130 C   0  0  0  0  0  2  0  0  0  0  0  0
  -30.1620  -13.8360   20.7040 N   0  0  0  0  0  0  0  0  0  0  0  0
  -31.9810  -15.1000   20.5240 O   0  0  0  0  0  0  0  0  0  0  0  0
  -25.4400  -13.9620   20.5570 C   0  0  0  0  0  0  0  0  0  0  0  0
  -24.3620  -13.1810   20.8680 C   0  0  0  0  0  0  0  0  0  0  0  0
  -24.8440  -11.8370   20.9110 C   0  0  0  0  0  0  0  0  0  0  0  0
  -26.5090  -13.0930   20.4190 N   0  0  0  0  0  0  0  0  0  0  0  0
  -26.1550  -11.8120   20.7000 N   0  0  0  0  0  0  0  0  0  0  0  0
  -24.1200  -10.5700   21.0790 C   0  0  0  0  0  0  0  0  0  0  0  0
  -24.4970   -9.6270   22.0600 C   0  0  0  0  0  3  0  0  0  0  0  0
  -23.7720   -8.4260   22.2150 C   0  0  0  0  0  3  0  0  0  0  0  0
  -22.6540   -8.1590   21.3900 C   0  0  0  0  0  0  0  0  0  0  0  0
  -22.2970   -9.0910   20.3980 C   0  0  0  0  0  3  0  0  0  0  0  0
  -23.0230  -10.2830   20.2410 C   0  0  0  0  0  3  0  0  0  0  0  0
  -21.9060   -7.0090   21.4520 O   0  0  0  0  0  0  0  0  0  0  0  0
  -21.7910   -6.2870   22.6130 C   0  0  0  0  0  0  0  0  0  0  0  0
  -21.2750   -6.8560   23.7980 C   0  0  0  0  0  3  0  0  0  0  0  0
  -21.1080   -6.0590   24.9480 C   0  0  0  0  0  3  0  0  0  0  0  0
  -21.4490   -4.6940   24.9150 C   0  0  0  0  0  0  0  0  0  0  0  0
  -21.9600   -4.1240   23.7360 C   0  0  0  0  0  3  0  0  0  0  0  0
  -22.1280   -4.9180   22.5870 C   0  0  0  0  0  0  0  0  0  0  0  0
  -22.5990   -4.3580   21.4470 F   0  0  0  0  0  0  0  0  0  0  0  0
  -21.2840   -3.9260   26.0180 F   0  0  0  0  0  0  0  0  0  0  0  0
  -22.9420  -13.6450   21.0180 C   0  0  0  0  0  0  0  0  0  0  0  0
  -22.1590  -12.9670   21.8480 N   0  0  0  0  0  0  0  0  0  0  0  0
  -22.5350  -14.6490   20.4320 O   0  0  0  0  0  0  0  0  0  0  0  0
  -22.5000  -12.1570   22.3450 H   0  0  0  0  0  0  0  0  0  0  0  0
  -21.2020  -13.2610   21.9880 H   0  0  0  0  0  0  0  0  0  0  0  0
  -25.6020  -15.3300   20.3570 N   0  0  0  0  0  0  0  0  0  0  0  0
  -24.8190  -15.9750   20.3970 H   0  0  0  0  0  0  0  0  0  0  0  0
  -26.4640  -15.7700   20.0680 H   0  0  0  0  0  0  0  0  0  0  0  0
  -28.5890  -21.8870   20.2930 C   0  0  0  0  0  2  0  0  0  0  0  0
  -29.0170  -23.5080   20.4390 C   0  0  0  0  0  3  0  0  0  0  0  0
  -27.9970  -24.7940   20.0900 C   0  0  0  0  0  3  0  0  0  0  0  0
  -28.2710  -26.3170   20.2060 O   0  0  0  0  0  0  0  0  0  0  0  0
  -24.5540  -31.9440   23.1490 C   0  0  0  0  0  0  0  0  0  0  0  0
  -27.1980  -27.2750   20.1330 C   0  0  0  0  0  0  0  0  0  0  0  0
  -23.3730  -30.5240   21.5160 C   0  0  0  0  0  3  0  0  0  0  0  0
  -24.8410  -28.9700   20.0960 C   0  0  0  0  0  0  0  0  0  0  0  0
  -25.9210  -30.8340   21.3430 C   0  0  0  0  0  2  0  0  0  0  0  0
  -26.0150  -29.4430   20.6980 C   0  0  0  0  0  0  0  0  0  0  0  0
  -27.1950  -28.6120   20.7000 C   0  0  0  0  0  3  0  0  0  0  0  0
  -25.9960  -26.9000   19.4920 C   0  0  0  0  0  3  0  0  0  0  0  0
  -24.8440  -27.7120   19.4780 C   0  0  0  0  0  3  0  0  0  0  0  0
  -23.6000  -29.8460   20.1390 C   0  0  0  0  0  2  0  0  0  0  0  0
  -24.6360  -31.1220   22.0580 N   0  0  0  0  0  0  0  0  0  0  0  0
  -23.4640  -32.2130   23.6770 O   0  0  0  0  0  0  0  0  0  0  0  0
  -22.7130  -29.5100   22.4840 C   0  0  0  0  0  0  0  0  0  0  0  0
  -21.3830  -29.3350   22.3760 N   0  0  0  0  0  0  0  0  0  0  0  0
  -23.3970  -28.8800   23.2940 O   0  0  0  0  0  0  0  0  0  0  0  0
  -20.8880  -29.8950   21.6970 H   0  0  0  0  0  0  0  0  0  0  0  0
  -18.0090  -28.1490   22.9430 C   0  0  0  0  0  0  0  0  0  0  0  0
  -20.5750  -28.3940   23.1540 C   0  0  0  0  0  3  0  0  0  0  0  0
  -20.6550  -26.9680   22.5620 C   0  0  0  0  0  2  0  0  0  0  0  0
  -19.5290  -26.6630   21.5700 C   0  0  0  0  0  2  0  0  0  0  0  0
  -18.1620  -26.8070   22.2460 C   0  0  0  0  0  2  0  0  0  0  0  0
  -19.1410  -28.9020   23.3550 C   0  0  0  0  0  0  0  0  0  0  0  0
  -18.9410  -30.1550   23.9700 C   0  0  0  0  0  3  0  0  0  0  0  0
  -17.6430  -30.6600   24.1740 C   0  0  0  0  0  3  0  0  0  0  0  0
  -16.5260  -29.9060   23.7740 C   0  0  0  0  0  3  0  0  0  0  0  0
  -16.7100  -28.6510   23.1660 C   0  0  0  0  0  3  0  0  0  0  0  0
  -25.8240  -32.6000   23.7710 C   0  0  0  0  0  3  0  0  0  0  0  0
  -25.4910  -33.9970   24.0950 N   0  0  0  0  0  0  0  0  0  0  0  0
  -25.8390  -35.0570   23.3540 C   0  0  0  0  0  0  0  0  0  0  0  0
  -26.5390  -34.9640   22.3420 O   0  0  0  0  0  0  0  0  0  0  0  0
  -24.8710  -34.1420   24.8780 H   0  0  0  0  0  0  0  0  0  0  0  0
  -24.1280  -36.8570   22.9440 C   0  0  0  0  0  1  0  0  0  0  0  0
  -25.3300  -36.4410   23.8060 C   0  0  0  0  0  3  0  0  0  0  0  0
  -27.4220  -37.3190   24.7470 C   0  0  0  0  0  1  0  0  0  0  0  0
  -26.3660  -37.4950   23.7540 N   0  0  0  0  0  0  0  0  0  0  0  0
  -25.9520  -38.4140   23.8900 H   0  0  0  0  0  0  0  0  0  0  0  0
  -26.3450  -31.8470   25.0570 C   0  0  1  0  0  0  0  0  0  0  0  0
  -25.2490  -31.6050   26.1220 C   0  0  0  0  0  1  0  0  0  0  0  0
  -26.9480  -30.4730   24.6820 C   0  0  0  0  0  1  0  0  0  0  0  0
  -27.4810  -32.6630   25.7170 C   0  0  0  0  0  1  0  0  0  0  0  0
  -30.7210  -20.9290   21.5370 C   0  0  0  0  0  2  0  0  0  0  0  0
  -32.2140  -20.4400   23.5310 C   0  0  0  0  0  1  0  0  0  0  0  0
  -32.6120  -19.1790   21.4130 C   0  0  0  0  0  1  0  0  0  0  0  0
  -31.5320  -19.8440   22.2870 C   0  0  0  0  0  3  0  0  0  0  0  0
  1 49  1  0
  1 93  1  0
  2  4  1  0
  2  3  1  0
  3 10  1  0
  3  7  1  0
  4  6  1  0
  4  5  1  0
  5 12  1  0
  7  5  1  0
  7  1  1  0
  7  8  1  6
  9 10  2  0
 10 11  1  0
 13 12  1  0
 14 19  1  0
 15 16  1  0
 15 14  1  0
 17 16  1  0
 17 24  1  0
 17 18  1  0
 19 13  1  0
 19 18  1  0
 20 13  2  0
 21 22  2  0
 22 23  1  0
 22 41  1  0
 23 26  1  0
 24 21  1  0
 24 25  1  0
 25 23  2  0
 26 27  1  0
 27 28  2  0
 29 32  1  0
 29 28  1  0
 30 29  2  0
 31 30  1  0
 31 26  2  0
 32 33  1  0
 33 34  1  0
 34 35  2  0
 36 35  1  0
 36 40  1  0
 37 36  2  0
 38 33  2  0
 38 37  1  0
 39 38  1  0
 41 42  1  0
 42 45  1  0
 42 44  1  0
 43 41  2  0
 46 47  1  0
 46 21  1  0
 48 46  1  0
 49 50  1  0
 51 52  1  0
 51 50  2  0
 53 64  2  0
 54 52  1  0
 54 59  1  0
 55 63  1  0
 55 65  1  0
 56 62  1  0
 56 58  1  0
 57 63  1  0
 58 59  2  0
 58 57  1  0
 60 54  2  0
 61 60  1  0
 61 56  2  0
 62 55  1  0
 63 53  1  0
 65 67  2  0
 66 65  1  0
 68 66  1  0
 69 78  2  0
 69 74  1  0
 70 66  1  0
 70 74  1  0
 71 70  1  0
 72 73  1  0
 72 71  1  0
 73 69  1  0
 74 75  2  0
 75 76  1  0
 77 76  2  0
 78 77  1  0
 79 53  1  0
 79 80  1  0
 79 89  1  0
 80 83  1  0
 81 85  1  0
 81 80  1  0
 82 81  2  0
 85 84  1  0
 87 85  1  0
 87 88  1  0
 87 86  1  0
 89 92  1  1
 89 90  1  0
 91 89  1  0
 93 96  1  0
 95 96  1  0
 96 94  1  0
M  ISO  4  12 100  13 100  51 101  52 101
M  END
>  <TORSDO>  (43) 
F 24

>  <SCORE>  (43) 
-13.180

>  <name>  (43) 
42

>  <ligand_id>  (43) 
42

>  <original_smiles>  (43) 
[H]C([H])=C(C([H])([H])[H])C1([H])C([H])([H])C([H])(C([H])([H])[H])C([H])(C([H])([H])C(=O)N2C([H])([H])C([H])([H])C([H])([H])C([H])(n3nc(-c4c([H])c([H])c(Oc5c([H])c([H])c(F)c([H])c5F)c([H])c4[H])c(C(=O)N([H])[H])c3N([H])[H])C2([H])[H])[N+]1([H])C([H])(C([H])([H])C([H])([H])C([H])([H])Oc1c([H])c([H])c2c(c1[H])C([H])([H])N(C(=O)C([H])(N([H])C(=O)C([H])(N([H])C([H])([H])[H])C([H])([H])[H])C(C([H])([H])[H])(C([H])([H])[H])C([H])([H])[H])C([H])(C(=O)N([H])C1([H])c3c([H])c([H])c([H])c([H])c3C([H])([H])C([H])([H])C1([H])[H])C2([H])[H])C([H])([H])C([H])(C([H])([H])[H])C([H])([H])[H]

>  <smiles>  (43) 
[H]C([H])=C(C([H])([H])[H])C1([H])C([H])([H])C([H])(C([H])([H])[H])C([H])(C([H])([H])C(=O)N2C([H])([H])C([H])([H])C([H])([H])C([H])(n3nc(-c4c([H])c([H])c(Oc5c([H])c([H])c(F)c([H])c5F)c([H])c4[H])c(C(=O)N([H])[H])c3N([H])[H])C2([H])[H])[N+]1([H])C([H])(C([H])([H])C([H])([H])C([H])([H])Oc1c([H])c([H])c2c(c1[H])C([H])([H])N(C(=O)C([H])(N([H])C(=O)C([H])(N([H])C([H])([H])[H])C([H])([H])[H])C(C([H])([H])[H])(C([H])([H])[H])C([H])([H])[H])C([H])(C(=O)N([H])C1([H])c3c([H])c([H])c([H])c([H])c3C([H])([H])C([H])([H])C1([H])[H])C2([H])[H])C([H])([H])C([H])(C([H])([H])[H])C([H])([H])[H]

$$$$
43:0:0
     RDKit          3D

102112  0  0  1  0  0  0  0  0999 V2000
  -30.5950  -23.4730   17.1380 C   0  0  0  0  0  2  0  0  0  0  0  0
  -30.4210  -22.1480   16.3660 C   0  0  0  0  0  2  0  0  0  0  0  0
  -30.6950  -20.4760   21.9470 C   0  0  0  0  0  2  0  0  0  0  0  0
  -31.4160  -19.4630   19.8830 C   0  0  0  0  0  2  0  0  0  0  0  0
  -29.3030  -22.1090   20.5660 C   0  0  0  0  0  2  0  0  0  0  0  0
  -31.6230  -19.3800   21.3980 C   0  0  0  0  0  3  0  0  0  0  0  0
  -30.0890  -22.2900   19.2730 C   0  0  0  0  0  3  0  0  0  0  0  0
  -29.8240  -20.9750   18.5320 C   0  0  0  0  0  3  0  0  0  0  0  0
  -29.7160  -23.5040   18.4010 C   0  0  0  0  0  3  0  0  0  0  0  0
  -30.6820  -20.8940   17.2330 C   0  0  0  0  0  3  0  0  0  0  0  0
  -29.5090  -20.6280   20.9640 C   0  0  1  0  0  0  0  0  0  0  0  0
  -29.9470  -19.8910   19.6440 C   0  0  2  0  0  0  0  0  0  0  0  0
  -30.4220  -19.6270   16.4010 C   0  0  0  0  0  1  0  0  0  0  0  0
  -28.2000  -20.1240   21.6170 C   0  0  0  0  0  1  0  0  0  0  0  0
  -29.0850  -18.6400   19.3330 C   0  0  0  0  0  1  0  0  0  0  0  0
  -31.3240  -17.9900   21.9200 C   0  0  0  0  0  0  0  0  0  0  0  0
  -30.6110  -17.8080   23.0470 N   0  0  0  0  0  4  0  0  0  0  0  0
  -31.8330  -16.9350   21.2540 N   0  0  0  0  0  0  0  0  0  0  0  0
  -30.2810  -18.6080   23.5650 H   0  0  0  0  0  0  0  0  0  0  0  0
  -30.4230  -16.9030   23.4520 H   0  0  0  0  0  0  0  0  0  0  0  0
  -32.3830  -17.1270   20.4230 H   0  0  0  0  0  0  0  0  0  0  0  0
  -31.6940  -15.5110   21.6010 C   0  0  0  0  0  2  0  0  0  0  0  0
  -30.3510  -14.9120   21.1380 C   0  0  0  0  0  2  0  0  0  0  0  0
  -30.4160  -14.2220   19.7670 C   0  0  0  0  0  0  0  0  0  0  0  0
  -29.8850  -12.2170   18.4240 C   0  0  0  0  0  2  0  0  0  0  0  0
  -28.7590  -12.3920   17.3940 C   0  0  0  0  0  2  0  0  0  0  0  0
  -27.3840  -12.1770   18.0490 C   0  0  0  0  0  2  0  0  0  0  0  0
  -27.2060  -13.0020   19.3480 C   0  0  0  0  0  3  0  0  0  0  0  0
  -28.4120  -12.7990   20.2920 C   0  0  0  0  0  2  0  0  0  0  0  0
  -29.6470  -13.1240   19.5550 N   0  0  0  0  0  0  0  0  0  0  0  0
  -31.2400  -14.6210   18.9380 O   0  0  0  0  0  0  0  0  0  0  0  0
  -24.9070  -13.5210   20.3920 C   0  0  0  0  0  0  0  0  0  0  0  0
  -23.9250  -12.7070   20.8870 C   0  0  0  0  0  0  0  0  0  0  0  0
  -24.4170  -11.3710   20.7580 C   0  0  0  0  0  0  0  0  0  0  0  0
  -25.9390  -12.6800   20.0040 N   0  0  0  0  0  0  0  0  0  0  0  0
  -25.6530  -11.3810   20.2790 N   0  0  0  0  0  0  0  0  0  0  0  0
  -23.7640  -10.0810   21.0120 C   0  0  0  0  0  0  0  0  0  0  0  0
  -24.2750   -9.1680   21.9610 C   0  0  0  0  0  3  0  0  0  0  0  0
  -23.6180   -7.9420   22.2000 C   0  0  0  0  0  3  0  0  0  0  0  0
  -22.4340   -7.6190   21.4940 C   0  0  0  0  0  0  0  0  0  0  0  0
  -21.9420   -8.5220   20.5340 C   0  0  0  0  0  3  0  0  0  0  0  0
  -22.6020   -9.7390   20.2920 C   0  0  0  0  0  3  0  0  0  0  0  0
  -21.7420   -6.4430   21.6460 O   0  0  0  0  0  0  0  0  0  0  0  0
  -21.6940   -5.7840   22.8500 C   0  0  0  0  0  0  0  0  0  0  0  0
  -21.1660   -6.3920   24.0100 C   0  0  0  0  0  3  0  0  0  0  0  0
  -21.0730   -5.6560   25.2070 C   0  0  0  0  0  3  0  0  0  0  0  0
  -21.4990   -4.3150   25.2460 C   0  0  0  0  0  0  0  0  0  0  0  0
  -22.0220   -3.7080   24.0910 C   0  0  0  0  0  3  0  0  0  0  0  0
  -22.1170   -4.4410   22.8950 C   0  0  0  0  0  0  0  0  0  0  0  0
  -22.6010   -3.8450   21.7780 F   0  0  0  0  0  0  0  0  0  0  0  0
  -21.4000   -3.6060   26.3930 F   0  0  0  0  0  0  0  0  0  0  0  0
  -22.5650  -13.1290   21.3640 C   0  0  0  0  0  0  0  0  0  0  0  0
  -21.9970  -12.4040   22.3220 N   0  0  0  0  0  0  0  0  0  0  0  0
  -22.0160  -14.1370   20.9200 O   0  0  0  0  0  0  0  0  0  0  0  0
  -22.4560  -11.5890   22.7020 H   0  0  0  0  0  0  0  0  0  0  0  0
  -21.0930  -12.6690   22.6830 H   0  0  0  0  0  0  0  0  0  0  0  0
  -25.0030  -14.8990   20.2190 N   0  0  0  0  0  0  0  0  0  0  0  0
  -24.2340  -15.5280   20.4260 H   0  0  0  0  0  0  0  0  0  0  0  0
  -25.7830  -15.3620   19.7700 H   0  0  0  0  0  0  0  0  0  0  0  0
  -29.7910  -24.8560   19.1530 C   0  0  0  0  0  2  0  0  0  0  0  0
  -28.3980  -25.4790   19.2670 C   0  0  0  0  0  2  0  0  0  0  0  0
  -28.4140  -26.7480   19.9130 O   0  0  0  0  0  0  0  0  0  0  0  0
  -24.6250  -31.8360   23.1450 C   0  0  0  0  0  0  0  0  0  0  0  0
  -27.2160  -27.4350   19.9600 C   0  0  0  0  0  0  0  0  0  0  0  0
  -23.3940  -30.4560   21.5050 C   0  0  0  0  0  3  0  0  0  0  0  0
  -24.8180  -28.9350   20.0480 C   0  0  0  0  0  0  0  0  0  0  0  0
  -25.9180  -30.8100   21.2780 C   0  0  0  0  0  2  0  0  0  0  0  0
  -25.9880  -29.4480   20.6210 C   0  0  0  0  0  0  0  0  0  0  0  0
  -27.1880  -28.7050   20.5790 C   0  0  0  0  0  3  0  0  0  0  0  0
  -26.0140  -26.9270   19.4070 C   0  0  0  0  0  3  0  0  0  0  0  0
  -24.8240  -27.6710   19.4430 C   0  0  0  0  0  3  0  0  0  0  0  0
  -23.5780  -29.7930   20.1160 C   0  0  0  0  0  2  0  0  0  0  0  0
  -24.6650  -31.0480   22.0340 N   0  0  0  0  0  0  0  0  0  0  0  0
  -23.5520  -32.1060   23.7000 O   0  0  0  0  0  0  0  0  0  0  0  0
  -22.7520  -29.4230   22.4610 C   0  0  0  0  0  0  0  0  0  0  0  0
  -21.4240  -29.2580   22.3540 N   0  0  0  0  0  0  0  0  0  0  0  0
  -23.4460  -28.7750   23.2490 O   0  0  0  0  0  0  0  0  0  0  0  0
  -20.9280  -29.8340   21.6910 H   0  0  0  0  0  0  0  0  0  0  0  0
  -18.0440  -28.1140   22.9140 C   0  0  0  0  0  0  0  0  0  0  0  0
  -20.6110  -28.3160   23.1230 C   0  0  0  0  0  3  0  0  0  0  0  0
  -20.6710  -26.8980   22.5090 C   0  0  0  0  0  2  0  0  0  0  0  0
  -19.5360  -26.6210   21.5170 C   0  0  0  0  0  2  0  0  0  0  0  0
  -18.1750  -26.7780   22.2020 C   0  0  0  0  0  2  0  0  0  0  0  0
  -19.1880  -28.8450   23.3300 C   0  0  0  0  0  0  0  0  0  0  0  0
  -19.0100  -30.0980   23.9540 C   0  0  0  0  0  3  0  0  0  0  0  0
  -17.7200  -30.6220   24.1640 C   0  0  0  0  0  3  0  0  0  0  0  0
  -16.5910  -29.8860   23.7660 C   0  0  0  0  0  3  0  0  0  0  0  0
  -16.7530  -28.6340   23.1470 C   0  0  0  0  0  3  0  0  0  0  0  0
  -25.9230  -32.4540   23.7540 C   0  0  0  0  0  3  0  0  0  0  0  0
  -25.6150  -33.8410   24.1290 N   0  0  0  0  0  0  0  0  0  0  0  0
  -25.9110  -34.9130   23.3820 C   0  0  0  0  0  0  0  0  0  0  0  0
  -26.5440  -34.8400   22.3260 O   0  0  0  0  0  0  0  0  0  0  0  0
  -25.0510  -33.9710   24.9550 H   0  0  0  0  0  0  0  0  0  0  0  0
  -24.1490  -36.6890   23.1360 C   0  0  0  0  0  1  0  0  0  0  0  0
  -25.4270  -36.2860   23.8890 C   0  0  0  0  0  3  0  0  0  0  0  0
  -27.5810  -37.1780   24.6550 C   0  0  0  0  0  1  0  0  0  0  0  0
  -26.4410  -37.3530   23.7580 N   0  0  0  0  0  0  0  0  0  0  0  0
  -26.0300  -38.2640   23.9420 H   0  0  0  0  0  0  0  0  0  0  0  0
  -26.4710  -31.6480   24.9960 C   0  0  1  0  0  0  0  0  0  0  0  0
  -25.4030  -31.3730   26.0790 C   0  0  0  0  0  1  0  0  0  0  0  0
  -27.0530  -30.2880   24.5490 C   0  0  0  0  0  1  0  0  0  0  0  0
  -27.6310  -32.4310   25.6560 C   0  0  0  0  0  1  0  0  0  0  0  0
  1  9  1  0
  2  1  1  0
  2 10  1  0
  4  6  1  0
  5 11  1  0
  6 16  1  0
  6  3  1  0
  7  5  1  0
  8  7  1  0
  8 12  1  0
  9 60  1  0
  9  7  1  0
 10  8  1  0
 11 14  1  1
 11  3  1  0
 12  4  1  0
 12 11  1  0
 13 10  1  0
 12 15  1  6
 16 17  2  0
 17 20  1  0
 17 19  1  0
 18 22  1  0
 18 16  1  0
 21 18  1  0
 23 22  1  0
 24 23  1  0
 25 30  1  0
 26 27  1  0
 26 25  1  0
 27 28  1  0
 28 35  1  0
 28 29  1  0
 30 24  1  0
 30 29  1  0
 31 24  2  0
 32 33  2  0
 33 52  1  0
 34 33  1  0
 34 37  1  0
 35 36  1  0
 35 32  1  0
 36 34  2  0
 37 38  1  0
 38 39  2  0
 40 43  1  0
 40 39  1  0
 41 40  2  0
 42 41  1  0
 42 37  2  0
 43 44  1  0
 44 49  2  0
 44 45  1  0
 45 46  2  0
 46 47  1  0
 47 51  1  0
 48 47  2  0
 49 48  1  0
 50 49  1  0
 52 53  1  0
 53 56  1  0
 53 55  1  0
 54 52  2  0
 57 32  1  0
 57 58  1  0
 59 57  1  0
 60 61  1  0
 61 62  1  0
 62 64  1  0
 63 74  2  0
 63 89  1  0
 64 69  1  0
 65 73  1  0
 65 75  1  0
 66 72  1  0
 66 68  1  0
 67 73  1  0
 68 67  1  0
 69 68  2  0
 70 71  1  0
 70 64  2  0
 71 66  2  0
 72 65  1  0
 73 63  1  0
 75 77  2  0
 76 75  1  0
 76 80  1  0
 78 76  1  0
 79 88  2  0
 79 84  1  0
 80 84  1  0
 81 80  1  0
 82 83  1  0
 82 81  1  0
 83 79  1  0
 84 85  2  0
 85 86  1  0
 87 86  2  0
 88 87  1  0
 89 90  1  0
 89 99  1  0
 90 93  1  0
 91 95  1  0
 91 90  1  0
 92 91  2  0
 94 95  1  0
 97 95  1  0
 97 98  1  0
 97 96  1  0
 99102  1  1
 99100  1  0
101 99  1  0
M  ISO  4  23 100  24 100  61 101  62 101
M  END
>  <TORSDO>  (44) 
F 21

>  <SCORE>  (44) 
-11.171

>  <name>  (44) 
43

>  <ligand_id>  (44) 
43

>  <original_smiles>  (44) 
[H]c1c([H])c([H])c2c(c1[H])C([H])([H])C([H])([H])C([H])([H])C2([H])N([H])C(=O)C1([H])N(C(=O)C([H])(N([H])C(=O)C([H])(N([H])C([H])([H])[H])C([H])([H])[H])C(C([H])([H])[H])(C([H])([H])[H])C([H])([H])[H])C([H])([H])c2c([H])c(OC([H])([H])C([H])([H])C3([H])C([H])([H])C([H])([H])C([H])(C([H])([H])[H])C4([H])C3([H])C([H])([H])C3(C([H])([H])[H])C([H])([H])C([H])(C(N([H])[H])=[N+]([H])C([H])([H])C([H])([H])C(=O)N5C([H])([H])C([H])([H])C([H])([H])C([H])(n6nc(-c7c([H])c([H])c(Oc8c([H])c([H])c(F)c([H])c8F)c([H])c7[H])c(C(=O)N([H])[H])c6N([H])[H])C5([H])[H])C([H])([H])C43C([H])([H])[H])c([H])c([H])c2C1([H])[H]

>  <smiles>  (44) 
[H]c1c([H])c([H])c2c(c1[H])C([H])([H])C([H])([H])C([H])([H])C2([H])N([H])C(=O)C1([H])N(C(=O)C([H])(N([H])C(=O)C([H])(N([H])C([H])([H])[H])C([H])([H])[H])C(C([H])([H])[H])(C([H])([H])[H])C([H])([H])[H])C([H])([H])c2c([H])c(OC([H])([H])C([H])([H])C3([H])C([H])([H])C([H])([H])C([H])(C([H])([H])[H])C4([H])C3([H])C([H])([H])C3(C([H])([H])[H])C([H])([H])C([H])(C(N([H])[H])=[N+]([H])C([H])([H])C([H])([H])C(=O)N5C([H])([H])C([H])([H])C([H])([H])C([H])(n6nc(-c7c([H])c([H])c(Oc8c([H])c([H])c(F)c([H])c8F)c([H])c7[H])c(C(=O)N([H])[H])c6N([H])[H])C5([H])[H])C([H])([H])C43C([H])([H])[H])c([H])c([H])c2C1([H])[H]

$$$$
44:0:0
     RDKit          3D

 99109  0  0  1  0  0  0  0  0999 V2000
  -30.6890  -22.0630   20.4510 C   0  0  0  0  0  3  0  0  0  0  0  0
  -32.0250  -18.7860   20.0050 C   0  0  0  0  0  2  0  0  0  0  0  0
  -29.4960  -18.4550   19.3530 C   0  0  0  0  0  2  0  0  0  0  0  0
  -31.0240  -19.4570   20.9240 C   0  0  0  0  0  3  0  0  0  0  0  0
  -29.4530  -20.0020   19.1830 C   0  0  0  0  0  3  0  0  0  0  0  0
  -30.0630  -20.5900   20.4940 C   0  0  0  0  0  3  0  0  0  0  0  0
  -30.6710  -18.1470   20.2590 C   0  0  2  0  0  0  0  0  0  0  0  0
  -28.0260  -20.4690   18.8380 C   0  0  0  0  0  1  0  0  0  0  0  0
  -30.5440  -16.8680   21.1290 C   0  0  0  0  0  2  0  0  0  0  0  0
  -31.4090  -15.6110   20.8120 C   0  0  0  0  0  0  0  0  0  0  0  0
  -31.3620  -13.2240   20.1310 C   0  0  0  0  0  2  0  0  0  0  0  0
  -30.5710  -13.0970   18.8110 C   0  0  0  0  0  2  0  0  0  0  0  0
  -29.0560  -12.9740   19.0780 C   0  0  0  0  0  2  0  0  0  0  0  0
  -28.5400  -14.0520   20.0680 C   0  0  0  0  0  3  0  0  0  0  0  0
  -29.4480  -14.1240   21.3170 C   0  0  0  0  0  2  0  0  0  0  0  0
  -30.8240  -14.3790   20.8640 N   0  0  0  0  0  0  0  0  0  0  0  0
  -32.5760  -15.7580   20.4340 O   0  0  0  0  0  0  0  0  0  0  0  0
  -26.1260  -14.7590   20.6140 C   0  0  0  0  0  0  0  0  0  0  0  0
  -24.9920  -14.0310   20.8560 C   0  0  0  0  0  0  0  0  0  0  0  0
  -25.3840  -12.6580   20.7950 C   0  0  0  0  0  0  0  0  0  0  0  0
  -27.1390  -13.8330   20.4240 N   0  0  0  0  0  0  0  0  0  0  0  0
  -26.6910  -12.5610   20.5880 N   0  0  0  0  0  0  0  0  0  0  0  0
  -24.5810  -11.4310   20.8630 C   0  0  0  0  0  0  0  0  0  0  0  0
  -24.9170  -10.3770   21.7400 C   0  0  0  0  0  3  0  0  0  0  0  0
  -24.1190   -9.2140   21.8010 C   0  0  0  0  0  3  0  0  0  0  0  0
  -22.9730   -9.0970   20.9800 C   0  0  0  0  0  0  0  0  0  0  0  0
  -22.6560  -10.1390   20.0910 C   0  0  0  0  0  3  0  0  0  0  0  0
  -23.4530  -11.2940   20.0300 C   0  0  0  0  0  3  0  0  0  0  0  0
  -22.1540   -7.9930   20.9520 O   0  0  0  0  0  0  0  0  0  0  0  0
  -22.0410   -7.1530   22.0310 C   0  0  0  0  0  0  0  0  0  0  0  0
  -21.5900   -7.6120   23.2880 C   0  0  0  0  0  3  0  0  0  0  0  0
  -21.4230   -6.7010   24.3500 C   0  0  0  0  0  3  0  0  0  0  0  0
  -21.6970   -5.3340   24.1570 C   0  0  0  0  0  0  0  0  0  0  0  0
  -22.1400   -4.8740   22.9040 C   0  0  0  0  0  3  0  0  0  0  0  0
  -22.3090   -5.7820   21.8430 C   0  0  0  0  0  0  0  0  0  0  0  0
  -22.7180   -5.3310   20.6330 F   0  0  0  0  0  0  0  0  0  0  0  0
  -21.5270   -4.4570   25.1740 F   0  0  0  0  0  0  0  0  0  0  0  0
  -23.6030  -14.5710   21.0400 C   0  0  0  0  0  0  0  0  0  0  0  0
  -22.7790  -13.8850   21.8240 N   0  0  0  0  0  0  0  0  0  0  0  0
  -23.2560  -15.6340   20.5250 O   0  0  0  0  0  0  0  0  0  0  0  0
  -23.0700  -13.0230   22.2610 H   0  0  0  0  0  0  0  0  0  0  0  0
  -21.8420  -14.2260   21.9890 H   0  0  0  0  0  0  0  0  0  0  0  0
  -26.3770  -16.1250   20.5190 N   0  0  0  0  0  0  0  0  0  0  0  0
  -25.6420  -16.8190   20.6020 H   0  0  0  0  0  0  0  0  0  0  0  0
  -27.2760  -16.5270   20.2890 H   0  0  0  0  0  0  0  0  0  0  0  0
  -27.6000  -24.6820   22.4880 C   0  0  0  0  0  2  0  0  0  0  0  0
  -28.6620  -25.3500   21.6130 C   0  0  0  0  0  2  0  0  0  0  0  0
  -28.2180  -23.5450   23.3060 C   0  0  0  0  0  2  0  0  0  0  0  0
  -29.3900  -24.3280   20.7170 C   0  0  0  0  0  2  0  0  0  0  0  0
  -28.9350  -22.5360   22.3900 C   0  0  0  0  0  2  0  0  0  0  0  0
  -30.0530  -23.1270   21.4750 C   0  0  1  0  0  0  0  0  0  0  0  0
  -31.1660  -23.5970   22.4570 C   0  0  0  0  0  1  0  0  0  0  0  0
  -30.7020  -22.6070   19.0420 N   0  0  0  0  0  4  0  0  0  0  0  0
  -31.1310  -21.8930   18.4730 H   0  0  0  0  0  0  0  0  0  0  0  0
  -29.7450  -22.6930   18.7400 H   0  0  0  0  0  0  0  0  0  0  0  0
  -31.4220  -23.8960   18.7520 C   0  0  0  0  0  2  0  0  0  0  0  0
  -30.9380  -24.6870   17.4930 C   0  0  0  0  0  2  0  0  0  0  0  0
  -29.5760  -25.4380   17.6030 C   0  0  0  0  0  2  0  0  0  0  0  0
  -29.6290  -26.7310   18.2590 O   0  0  0  0  0  0  0  0  0  0  0  0
  -25.8570  -29.6840   23.5800 C   0  0  0  0  0  0  0  0  0  0  0  0
  -28.4280  -27.3200   18.6470 C   0  0  0  0  0  0  0  0  0  0  0  0
  -24.5830  -29.1000   21.5450 C   0  0  0  0  0  3  0  0  0  0  0  0
  -25.9790  -28.4950   19.4960 C   0  0  0  0  0  0  0  0  0  0  0  0
  -27.0730  -29.6850   21.3990 C   0  0  0  0  0  2  0  0  0  0  0  0
  -27.1630  -28.7700   20.1920 C   0  0  0  0  0  0  0  0  0  0  0  0
  -28.3870  -28.1910   19.7670 C   0  0  0  0  0  3  0  0  0  0  0  0
  -27.2130  -27.0710   17.9610 C   0  0  0  0  0  3  0  0  0  0  0  0
  -26.0010  -27.6470   18.3800 C   0  0  0  0  0  3  0  0  0  0  0  0
  -24.7090  -29.1440   20.0000 C   0  0  0  0  0  2  0  0  0  0  0  0
  -25.8600  -29.4790   22.2320 N   0  0  0  0  0  0  0  0  0  0  0  0
  -24.8110  -29.6000   24.2390 O   0  0  0  0  0  0  0  0  0  0  0  0
  -24.0540  -27.7060   21.9590 C   0  0  0  0  0  0  0  0  0  0  0  0
  -22.7760  -27.4330   21.6480 N   0  0  0  0  0  0  0  0  0  0  0  0
  -24.7920  -26.8930   22.5220 O   0  0  0  0  0  0  0  0  0  0  0  0
  -22.2340  -28.1550   21.1940 H   0  0  0  0  0  0  0  0  0  0  0  0
  -19.6620  -25.6700   21.1410 C   0  0  0  0  0  0  0  0  0  0  0  0
  -22.0790  -26.1730   21.9060 C   0  0  0  0  0  3  0  0  0  0  0  0
  -22.5150  -25.0790   20.9040 C   0  0  0  0  0  2  0  0  0  0  0  0
  -21.6080  -24.9950   19.6720 C   0  0  0  0  0  2  0  0  0  0  0  0
  -20.1640  -24.6980   20.0870 C   0  0  0  0  0  2  0  0  0  0  0  0
  -20.5620  -26.3750   21.9850 C   0  0  0  0  0  0  0  0  0  0  0  0
  -20.0430  -27.2940   22.9230 C   0  0  0  0  0  3  0  0  0  0  0  0
  -18.6560  -27.5100   23.0300 C   0  0  0  0  0  3  0  0  0  0  0  0
  -17.7690  -26.7980   22.2040 C   0  0  0  0  0  3  0  0  0  0  0  0
  -18.2720  -25.8790   21.2660 C   0  0  0  0  0  3  0  0  0  0  0  0
  -27.1600  -30.0590   24.3520 C   0  0  0  0  0  3  0  0  0  0  0  0
  -26.8760  -31.2670   25.1380 N   0  0  0  0  0  0  0  0  0  0  0  0
  -27.3020  -32.4980   24.8220 C   0  0  0  0  0  0  0  0  0  0  0  0
  -28.0430  -32.7230   23.8610 O   0  0  0  0  0  0  0  0  0  0  0  0
  -26.2290  -31.1660   25.9070 H   0  0  0  0  0  0  0  0  0  0  0  0
  -25.6960  -34.4240   25.0080 C   0  0  0  0  0  1  0  0  0  0  0  0
  -26.8300  -33.6620   25.7130 C   0  0  0  0  0  3  0  0  0  0  0  0
  -28.8960  -34.0320   26.9860 C   0  0  0  0  0  1  0  0  0  0  0  0
  -27.9130  -34.6050   26.0720 N   0  0  0  0  0  0  0  0  0  0  0  0
  -27.5320  -35.4430   26.5000 H   0  0  0  0  0  0  0  0  0  0  0  0
  -27.6850  -28.8970   25.2830 C   0  0  1  0  0  0  0  0  0  0  0  0
  -26.6070  -28.3250   26.2320 C   0  0  0  0  0  1  0  0  0  0  0  0
  -28.2380  -27.7260   24.4380 C   0  0  0  0  0  1  0  0  0  0  0  0
  -28.8600  -29.4110   26.1490 C   0  0  0  0  0  1  0  0  0  0  0  0
  1 53  1  0
  1 51  1  0
  2  7  1  0
  3  7  1  0
  4  2  1  0
  5  8  1  0
  5  3  1  0
  5  6  1  0
  6  1  1  0
  6  4  1  0
  7  4  1  0
  7  9  1  1
 10 16  1  0
 10  9  1  0
 11 16  1  0
 12 13  1  0
 12 11  1  0
 14 13  1  0
 14 21  1  0
 14 15  1  0
 16 15  1  0
 17 10  2  0
 18 19  2  0
 19 38  1  0
 20 19  1  0
 20 23  1  0
 21 22  1  0
 21 18  1  0
 22 20  2  0
 23 24  1  0
 24 25  2  0
 26 25  1  0
 27 26  2  0
 28 27  1  0
 28 23  2  0
 29 26  1  0
 29 30  1  0
 30 31  1  0
 31 32  2  0
 33 32  1  0
 33 37  1  0
 34 33  2  0
 35 30  2  0
 35 34  1  0
 36 35  1  0
 38 39  1  0
 39 42  1  0
 39 41  1  0
 40 38  2  0
 43 44  1  0
 43 18  1  0
 45 43  1  0
 46 48  1  0
 47 46  1  0
 49 51  1  0
 49 47  1  0
 50 48  1  0
 51 50  1  0
 51 52  1  1
 54 53  1  0
 55 53  1  0
 56 53  1  0
 57 58  1  0
 57 56  1  0
 58 59  1  0
 59 61  1  0
 60 71  2  0
 61 66  1  0
 62 72  1  0
 62 70  1  0
 63 69  1  0
 63 65  1  0
 64 70  1  0
 65 64  1  0
 66 65  2  0
 67 68  1  0
 67 61  2  0
 68 63  2  0
 69 62  1  0
 70 60  1  0
 72 74  2  0
 73 72  1  0
 75 73  1  0
 76 85  2  0
 76 81  1  0
 77 73  1  0
 77 81  1  0
 78 77  1  0
 79 80  1  0
 79 78  1  0
 80 76  1  0
 81 82  2  0
 82 83  1  0
 84 83  2  0
 85 84  1  0
 86 60  1  0
 86 87  1  0
 86 96  1  0
 87 90  1  0
 88 87  1  0
 88 92  1  0
 89 88  2  0
 92 91  1  0
 92 94  1  0
 94 95  1  0
 94 93  1  0
 96 99  1  1
 96 97  1  0
 98 96  1  0
M  ISO  4   9 100  10 100  58 101  59 101
M  END
>  <TORSDO>  (45) 
F 23

>  <SCORE>  (45) 
-5.932

>  <name>  (45) 
44

>  <ligand_id>  (45) 
44

>  <original_smiles>  (45) 
[H]c1c([H])c([H])c2c(c1[H])C([H])([H])C([H])([H])C([H])([H])C2([H])N([H])C(=O)C1([H])N(C(=O)C([H])(N([H])C(=O)C([H])(N([H])C([H])([H])[H])C([H])([H])[H])C(C([H])([H])[H])(C([H])([H])[H])C([H])([H])[H])C([H])([H])c2c([H])c(OC([H])([H])C([H])([H])C([H])([H])[N+]([H])([H])C([H])(C3([H])C([H])(C([H])([H])[H])C([H])([H])C4(C([H])([H])C(=O)N5C([H])([H])C([H])([H])C([H])([H])C([H])(n6nc(-c7c([H])c([H])c(Oc8c([H])c([H])c(F)c([H])c8F)c([H])c7[H])c(C(=O)N([H])[H])c6N([H])[H])C5([H])[H])C([H])([H])C34[H])C3(C([H])([H])[H])C([H])([H])C([H])([H])C([H])([H])C([H])([H])C3([H])[H])c([H])c([H])c2C1([H])[H]

>  <smiles>  (45) 
[H]c1c([H])c([H])c2c(c1[H])C([H])([H])C([H])([H])C([H])([H])C2([H])N([H])C(=O)C1([H])N(C(=O)C([H])(N([H])C(=O)C([H])(N([H])C([H])([H])[H])C([H])([H])[H])C(C([H])([H])[H])(C([H])([H])[H])C([H])([H])[H])C([H])([H])c2c([H])c(OC([H])([H])C([H])([H])C([H])([H])[N+]([H])([H])C([H])(C3([H])C([H])(C([H])([H])[H])C([H])([H])C4(C([H])([H])C(=O)N5C([H])([H])C([H])([H])C([H])([H])C([H])(n6nc(-c7c([H])c([H])c(Oc8c([H])c([H])c(F)c([H])c8F)c([H])c7[H])c(C(=O)N([H])[H])c6N([H])[H])C5([H])[H])C([H])([H])C34[H])C3(C([H])([H])[H])C([H])([H])C([H])([H])C([H])([H])C([H])([H])C3([H])[H])c([H])c([H])c2C1([H])[H]

$$$$
45:0:0
     RDKit          3D

 99109  0  0  1  0  0  0  0  0999 V2000
  -32.4510  -18.0350   19.8300 C   0  0  0  0  0  3  0  0  0  0  0  0
  -31.9660  -17.4430   20.9360 C   0  0  0  0  0  3  0  0  0  0  0  0
  -31.6370  -18.5760   18.6720 C   0  0  0  0  0  2  0  0  0  0  0  0
  -29.4320  -17.7310   20.3500 C   0  0  0  0  0  2  0  0  0  0  0  0
  -30.5140  -17.1100   21.2710 C   0  0  0  0  0  3  0  0  0  0  0  0
  -31.4080  -20.8850   19.8160 C   0  0  0  0  0  3  0  0  0  0  0  0
  -30.6740  -19.6990   19.1120 C   0  0  0  0  0  3  0  0  0  0  0  0
  -29.5150  -19.2480   20.0420 C   0  0  0  0  0  3  0  0  0  0  0  0
  -30.6650  -21.1450   21.1140 C   0  0  0  0  0  3  0  0  0  0  0  0
  -29.5370  -20.1570   21.2610 C   0  0  0  0  0  3  0  0  0  0  0  0
  -29.2430  -21.6520   21.2200 C   0  0  2  0  0  0  0  0  0  0  0  0
  -28.5400  -22.3000   20.0350 C   0  0  0  0  0  1  0  0  0  0  0  0
  -28.8230  -22.3550   22.4980 C   0  0  0  0  0  1  0  0  0  0  0  0
  -31.6130  -22.1470   18.9530 C   0  0  0  0  0  0  0  0  0  0  0  0
  -31.9280  -23.2750   19.6040 N   0  0  0  0  0  0  0  0  0  0  0  0
  -31.5320  -22.0990   17.7230 O   0  0  0  0  0  0  0  0  0  0  0  0
  -31.9510  -23.2310   20.6130 H   0  0  0  0  0  0  0  0  0  0  0  0
  -32.2950  -24.5430   18.9790 C   0  0  0  0  0  2  0  0  0  0  0  0
  -31.1670  -25.5890   19.0550 C   0  0  0  0  0  2  0  0  0  0  0  0
  -30.8130  -26.0370   20.4880 C   0  0  0  0  0  2  0  0  0  0  0  0
  -29.7780  -27.1790   20.5460 C   0  0  0  0  0  2  0  0  0  0  0  0
  -28.5940  -26.7540   19.8900 O   0  0  0  0  0  0  0  0  0  0  0  0
  -24.5790  -31.7620   23.1130 C   0  0  0  0  0  0  0  0  0  0  0  0
  -27.4510  -27.5190   19.9660 C   0  0  0  0  0  0  0  0  0  0  0  0
  -23.4520  -30.3650   21.4050 C   0  0  0  0  0  3  0  0  0  0  0  0
  -24.9930  -28.9180   19.9770 C   0  0  0  0  0  0  0  0  0  0  0  0
  -25.9660  -30.8230   21.2700 C   0  0  0  0  0  2  0  0  0  0  0  0
  -26.1160  -29.4720   20.6020 C   0  0  0  0  0  0  0  0  0  0  0  0
  -27.3480  -28.7800   20.6060 C   0  0  0  0  0  3  0  0  0  0  0  0
  -26.3080  -26.9770   19.3440 C   0  0  0  0  0  3  0  0  0  0  0  0
  -25.0810  -27.6640   19.3480 C   0  0  0  0  0  3  0  0  0  0  0  0
  -23.7140  -29.7260   20.0150 C   0  0  0  0  0  2  0  0  0  0  0  0
  -24.6810  -30.9980   21.9890 N   0  0  0  0  0  0  0  0  0  0  0  0
  -23.4800  -31.9820   23.6380 O   0  0  0  0  0  0  0  0  0  0  0  0
  -22.8180  -29.2990   22.3250 C   0  0  0  0  0  0  0  0  0  0  0  0
  -21.4940  -29.1110   22.1960 N   0  0  0  0  0  0  0  0  0  0  0  0
  -23.5130  -28.6420   23.1050 O   0  0  0  0  0  0  0  0  0  0  0  0
  -20.9930  -29.6940   21.5400 H   0  0  0  0  0  0  0  0  0  0  0  0
  -18.1270  -27.9100   22.7010 C   0  0  0  0  0  0  0  0  0  0  0  0
  -20.6910  -28.1330   22.9300 C   0  0  0  0  0  3  0  0  0  0  0  0
  -20.7690  -26.7380   22.2660 C   0  0  0  0  0  2  0  0  0  0  0  0
  -19.6430  -26.4850   21.2580 C   0  0  0  0  0  2  0  0  0  0  0  0
  -18.2760  -26.6020   21.9410 C   0  0  0  0  0  2  0  0  0  0  0  0
  -19.2600  -28.6360   23.1520 C   0  0  0  0  0  0  0  0  0  0  0  0
  -19.0670  -29.8640   23.8190 C   0  0  0  0  0  3  0  0  0  0  0  0
  -17.7720  -30.3650   24.0440 C   0  0  0  0  0  3  0  0  0  0  0  0
  -16.6520  -29.6340   23.6160 C   0  0  0  0  0  3  0  0  0  0  0  0
  -16.8300  -28.4070   22.9500 C   0  0  0  0  0  3  0  0  0  0  0  0
  -25.8330  -32.4160   23.7750 C   0  0  0  0  0  3  0  0  0  0  0  0
  -25.4760  -33.7920   24.1400 N   0  0  0  0  0  0  0  0  0  0  0  0
  -25.7780  -34.8750   23.4110 C   0  0  0  0  0  0  0  0  0  0  0  0
  -26.4600  -34.8220   22.3840 O   0  0  0  0  0  0  0  0  0  0  0  0
  -24.8740  -33.9070   24.9430 H   0  0  0  0  0  0  0  0  0  0  0  0
  -23.9970  -36.6160   23.0750 C   0  0  0  0  0  1  0  0  0  0  0  0
  -25.2370  -36.2330   23.8990 C   0  0  0  0  0  3  0  0  0  0  0  0
  -27.3200  -37.1670   24.8010 C   0  0  0  0  0  1  0  0  0  0  0  0
  -26.2340  -37.3230   23.8350 N   0  0  0  0  0  0  0  0  0  0  0  0
  -25.7930  -38.2240   23.9980 H   0  0  0  0  0  0  0  0  0  0  0  0
  -26.3580  -31.6220   25.0350 C   0  0  1  0  0  0  0  0  0  0  0  0
  -25.2580  -31.3180   26.0770 C   0  0  0  0  0  1  0  0  0  0  0  0
  -26.9930  -30.2780   24.6080 C   0  0  0  0  0  1  0  0  0  0  0  0
  -27.4720  -32.4330   25.7400 C   0  0  0  0  0  1  0  0  0  0  0  0
  -30.2890  -15.5780   21.4810 C   0  0  0  0  0  2  0  0  0  0  0  0
  -30.6010  -14.6210   20.2940 C   0  0  0  0  0  0  0  0  0  0  0  0
  -30.2070  -12.5590   18.9780 C   0  0  0  0  0  2  0  0  0  0  0  0
  -29.2020  -12.7820   17.8320 C   0  0  0  0  0  2  0  0  0  0  0  0
  -27.7570  -12.5990   18.3260 C   0  0  0  0  0  2  0  0  0  0  0  0
  -27.4770  -13.3870   19.6330 C   0  0  0  0  0  3  0  0  0  0  0  0
  -28.5820  -13.1350   20.6810 C   0  0  0  0  0  2  0  0  0  0  0  0
  -29.8760  -13.4870   20.0750 N   0  0  0  0  0  0  0  0  0  0  0  0
  -31.5760  -14.8820   19.5840 O   0  0  0  0  0  0  0  0  0  0  0  0
  -25.1070  -13.9390   20.4650 C   0  0  0  0  0  0  0  0  0  0  0  0
  -24.0680  -13.1420   20.8590 C   0  0  0  0  0  0  0  0  0  0  0  0
  -24.5450  -11.7970   20.7750 C   0  0  0  0  0  0  0  0  0  0  0  0
  -26.1520  -13.0810   20.1650 N   0  0  0  0  0  0  0  0  0  0  0  0
  -25.8200  -11.7860   20.4070 N   0  0  0  0  0  0  0  0  0  0  0  0
  -23.8450  -10.5200   20.9690 C   0  0  0  0  0  0  0  0  0  0  0  0
  -24.3060   -9.5560   21.8930 C   0  0  0  0  0  3  0  0  0  0  0  0
  -23.6040   -8.3470   22.0760 C   0  0  0  0  0  3  0  0  0  0  0  0
  -22.4250   -8.0920   21.3350 C   0  0  0  0  0  0  0  0  0  0  0  0
  -21.9800   -9.0440   20.4000 C   0  0  0  0  0  3  0  0  0  0  0  0
  -22.6850  -10.2460   20.2170 C   0  0  0  0  0  3  0  0  0  0  0  0
  -21.6910   -6.9330   21.4280 O   0  0  0  0  0  0  0  0  0  0  0  0
  -21.6440   -6.2030   22.5880 C   0  0  0  0  0  0  0  0  0  0  0  0
  -21.1650   -6.7540   23.7960 C   0  0  0  0  0  3  0  0  0  0  0  0
  -21.0650   -5.9470   24.9470 C   0  0  0  0  0  3  0  0  0  0  0  0
  -21.4370   -4.5900   24.8890 C   0  0  0  0  0  0  0  0  0  0  0  0
  -21.9120   -4.0390   23.6850 C   0  0  0  0  0  3  0  0  0  0  0  0
  -22.0110   -4.8430   22.5370 C   0  0  0  0  0  0  0  0  0  0  0  0
  -22.4470   -4.3010   21.3740 F   0  0  0  0  0  0  0  0  0  0  0  0
  -21.3330   -3.8120   25.9920 F   0  0  0  0  0  0  0  0  0  0  0  0
  -22.6800  -13.5890   21.2130 C   0  0  0  0  0  0  0  0  0  0  0  0
  -22.0080  -12.8620   22.0980 N   0  0  0  0  0  0  0  0  0  0  0  0
  -22.2000  -14.6200   20.7410 O   0  0  0  0  0  0  0  0  0  0  0  0
  -22.4070  -12.0210   22.4930 H   0  0  0  0  0  0  0  0  0  0  0  0
  -21.0830  -13.1480   22.3860 H   0  0  0  0  0  0  0  0  0  0  0  0
  -25.2430  -15.3180   20.3170 N   0  0  0  0  0  0  0  0  0  0  0  0
  -24.4680  -15.9560   20.4650 H   0  0  0  0  0  0  0  0  0  0  0  0
  -26.0820  -15.7850   19.9990 H   0  0  0  0  0  0  0  0  0  0  0  0
  1  2  2  0
  2  5  1  0
  3  1  1  0
  4  5  1  0
  5 63  1  0
  6 14  1  0
  6  9  1  0
  7  3  1  0
  7  6  1  0
  7  8  1  0
  8  4  1  0
  8 10  1  0
  9 11  1  0
  9 10  1  0
 10 11  1  0
 11 13  1  1
 12 11  1  0
 14 15  1  0
 15 17  1  0
 16 14  2  0
 18 19  1  0
 18 15  1  0
 19 20  1  0
 20 21  1  0
 22 24  1  0
 22 21  1  0
 23 34  2  0
 24 29  1  0
 25 33  1  0
 25 35  1  0
 26 32  1  0
 26 28  1  0
 27 33  1  0
 28 29  2  0
 28 27  1  0
 30 31  1  0
 30 24  2  0
 31 26  2  0
 32 25  1  0
 33 23  1  0
 35 37  2  0
 36 35  1  0
 38 36  1  0
 39 48  2  0
 39 44  1  0
 40 36  1  0
 40 44  1  0
 41 40  1  0
 42 43  1  0
 42 41  1  0
 43 39  1  0
 44 45  2  0
 45 46  1  0
 47 46  2  0
 48 47  1  0
 49 23  1  0
 49 50  1  0
 49 59  1  0
 50 53  1  0
 51 55  1  0
 51 50  1  0
 52 51  2  0
 55 54  1  0
 57 55  1  0
 57 58  1  0
 57 56  1  0
 59 62  1  1
 59 60  1  0
 61 59  1  0
 64 63  1  0
 65 70  1  0
 66 67  1  0
 66 65  1  0
 68 67  1  0
 68 75  1  0
 68 69  1  0
 70 64  1  0
 70 69  1  0
 71 64  2  0
 72 73  2  0
 73 92  1  0
 74 73  1  0
 74 77  1  0
 75 76  1  0
 75 72  1  0
 76 74  2  0
 77 78  1  0
 78 79  2  0
 80 83  1  0
 80 79  1  0
 81 80  2  0
 82 81  1  0
 82 77  2  0
 83 84  1  0
 84 85  1  0
 85 86  2  0
 87 86  1  0
 87 91  1  0
 88 87  2  0
 89 84  2  0
 89 88  1  0
 90 89  1  0
 92 93  1  0
 93 96  1  0
 93 95  1  0
 94 92  2  0
 97 72  1  0
 97 98  1  0
 99 97  1  0
M  ISO  4  21 101  22 101  63 100  64 100
M  END
>  <TORSDO>  (46) 
F 22

>  <SCORE>  (46) 
-13.338

>  <name>  (46) 
45

>  <ligand_id>  (46) 
45

>  <original_smiles>  (46) 
[H]C1=C([H])C([H])(C([H])([H])C(=O)N2C([H])([H])C([H])([H])C([H])([H])C([H])(n3nc(-c4c([H])c([H])c(Oc5c([H])c([H])c(F)c([H])c5F)c([H])c4[H])c(C(=O)N([H])[H])c3N([H])[H])C2([H])[H])C([H])([H])C2([H])C([H])(C1([H])[H])C([H])(C(=O)N([H])C([H])([H])C([H])([H])C([H])([H])C([H])([H])Oc1c([H])c([H])c3c(c1[H])C([H])([H])N(C(=O)C([H])(N([H])C(=O)C([H])(N([H])C([H])([H])[H])C([H])([H])[H])C(C([H])([H])[H])(C([H])([H])[H])C([H])([H])[H])C([H])(C(=O)N([H])C1([H])c4c([H])c([H])c([H])c([H])c4C([H])([H])C([H])([H])C1([H])[H])C3([H])[H])C1([H])C2([H])C1(C([H])([H])[H])C([H])([H])[H]

>  <smiles>  (46) 
[H]C1=C([H])C([H])(C([H])([H])C(=O)N2C([H])([H])C([H])([H])C([H])([H])C([H])(n3nc(-c4c([H])c([H])c(Oc5c([H])c([H])c(F)c([H])c5F)c([H])c4[H])c(C(=O)N([H])[H])c3N([H])[H])C2([H])[H])C([H])([H])C2([H])C([H])(C1([H])[H])C([H])(C(=O)N([H])C([H])([H])C([H])([H])C([H])([H])C([H])([H])Oc1c([H])c([H])c3c(c1[H])C([H])([H])N(C(=O)C([H])(N([H])C(=O)C([H])(N([H])C([H])([H])[H])C([H])([H])[H])C(C([H])([H])[H])(C([H])([H])[H])C([H])([H])[H])C([H])(C(=O)N([H])C1([H])c4c([H])c([H])c([H])c([H])c4C([H])([H])C([H])([H])C1([H])[H])C3([H])[H])C1([H])C2([H])C1(C([H])([H])[H])C([H])([H])[H]

$$$$
46:0:0
     RDKit          3D

 95 97  0  0  1  0  0  0  0  0999 V2000
  -28.3740  -17.1190   19.0080 C   0  0  0  0  0  2  0  0  0  0  0  0
  -29.4060  -12.2200   19.2240 C   0  0  0  0  0  2  0  0  0  0  0  0
  -29.4500  -12.3180   17.6770 C   0  0  0  0  0  2  0  0  0  0  0  0
  -29.6320  -13.5960   19.9470 C   0  0  0  0  0  1  0  0  0  0  0  0
  -28.8790  -15.1970   19.0050 C   0  0  0  0  0  1  0  0  0  0  0  0
  -27.8780  -14.2790   18.1530 C   0  0  0  0  0  3  0  0  0  0  0  0
  -26.4550  -14.6830   17.7320 C   0  0  0  0  0  1  0  0  0  0  0  0
  -28.5220  -13.3720   17.1670 N   0  0  0  0  0  4  0  0  0  0  0  0
  -27.7820  -12.8410   16.7200 H   0  0  0  0  0  0  0  0  0  0  0  0
  -28.9710  -13.9370   16.4730 H   0  0  0  0  0  0  0  0  0  0  0  0
  -30.6070  -13.3470   21.8580 C   0  0  0  0  0  3  0  0  0  0  0  0
  -31.7130  -13.6450   21.0150 C   0  0  0  0  0  1  0  0  0  0  0  0
  -30.7030  -15.3970   21.0140 C   0  0  0  0  0 15  0  0  0  0  0  0
  -28.8750  -15.0580   21.6760 C   0  0  0  0  0  1  0  0  0  0  0  0
  -28.2430  -13.4480   22.1520 C   0  0  0  0  0  2  0  0  0  0  0  0
  -29.4420  -12.2220   22.2950 C   0  0  0  0  0  1  0  0  0  0  0  0
  -30.9670  -12.3460   21.7660 N   0  0  0  0  0  2  0  0  0  0  0  0
  -30.9150  -14.0150   23.0200 O   0  0  0  0  0  1  0  0  0  0  0  0
  -25.7660  -13.4780   21.4700 C   0  0  0  0  0  0  0  0  0  0  0  0
  -24.7550  -12.5550   21.5720 C   0  0  0  0  0  0  0  0  0  0  0  0
  -25.3880  -11.3010   21.8080 C   0  0  0  0  0  0  0  0  0  0  0  0
  -26.9440  -12.8350   21.7230 N   0  0  0  0  0  0  0  0  0  0  0  0
  -26.6920  -11.4830   21.9160 N   0  0  0  0  0  0  0  0  0  0  0  0
  -24.7650   -9.9500   21.8940 C   0  0  0  0  0  0  0  0  0  0  0  0
  -24.7840   -9.1370   23.0530 C   0  0  0  0  0  3  0  0  0  0  0  0
  -24.1320   -7.8790   23.0680 C   0  0  0  0  0  3  0  0  0  0  0  0
  -23.3950   -7.4350   21.9470 C   0  0  0  0  0  0  0  0  0  0  0  0
  -23.3850   -8.2440   20.7970 C   0  0  0  0  0  3  0  0  0  0  0  0
  -24.0590   -9.4780   20.7680 C   0  0  0  0  0  3  0  0  0  0  0  0
  -22.7340   -6.2210   21.8780 O   0  0  0  0  0  0  0  0  0  0  0  0
  -22.0890   -5.6840   22.9590 C   0  0  0  0  0  0  0  0  0  0  0  0
  -20.9790   -6.3230   23.5470 C   0  0  0  0  0  3  0  0  0  0  0  0
  -20.2870   -5.7080   24.6070 C   0  0  0  0  0  3  0  0  0  0  0  0
  -20.7010   -4.4530   25.0870 C   0  0  0  0  0  0  0  0  0  0  0  0
  -21.8050   -3.8100   24.4990 C   0  0  0  0  0  3  0  0  0  0  0  0
  -22.4900   -4.4180   23.4330 C   0  0  0  0  0  0  0  0  0  0  0  0
  -23.5380   -3.7750   22.8650 F   0  0  0  0  0  0  0  0  0  0  0  0
  -20.0300   -3.8640   26.1060 F   0  0  0  0  0  0  0  0  0  0  0  0
  -23.2840  -12.8530   21.4600 C   0  0  0  0  0  0  0  0  0  0  0  0
  -22.4550  -12.1240   22.2040 N   0  0  0  0  0  0  0  0  0  0  0  0
  -22.8920  -13.8040   20.7930 O   0  0  0  0  0  0  0  0  0  0  0  0
  -22.8270  -11.4200   22.8400 H   0  0  0  0  0  0  0  0  0  0  0  0
  -21.4700  -12.3810   22.2880 H   0  0  0  0  0  0  0  0  0  0  0  0
  -25.7540  -14.8540   21.2960 N   0  0  0  0  0  0  0  0  0  0  0  0
  -24.8400  -15.2940   21.2650 H   0  0  0  0  0  0  0  0  0  0  0  0
  -26.5000  -15.5000   21.5460 H   0  0  0  0  0  0  0  0  0  0  0  0
  -28.4810  -18.4890   20.0670 N   0  0  0  0  0  4  0  0  0  0  0  0
  -28.1040  -18.2140   20.9410 H   0  0  0  0  0  0  0  0  0  0  0  0
  -29.4700  -18.5870   20.1810 H   0  0  0  0  0  0  0  0  0  0  0  0
  -27.9650  -20.1510   19.8830 C   0  0  0  0  0  2  0  0  0  0  0  0
  -28.2080  -21.7690   20.7970 C   0  0  0  0  0  3  0  0  0  0  0  0
  -27.6840  -23.5780   20.5970 C   0  0  0  0  0  3  0  0  0  0  0  0
  -28.0910  -25.1660   21.1400 O   0  0  0  0  0  0  0  0  0  0  0  0
  -24.6400  -31.7350   23.5010 C   0  0  0  0  0  0  0  0  0  0  0  0
  -27.2740  -26.4400   21.0410 C   0  0  0  0  0  0  0  0  0  0  0  0
  -23.5980  -30.2070   21.9030 C   0  0  0  0  0  3  0  0  0  0  0  0
  -25.1320  -28.4800   20.7430 C   0  0  0  0  0  0  0  0  0  0  0  0
  -26.1910  -30.3210   22.0120 C   0  0  0  0  0  2  0  0  0  0  0  0
  -26.2790  -28.8520   21.4430 C   0  0  0  0  0  0  0  0  0  0  0  0
  -27.3610  -27.8450   21.5780 C   0  0  0  0  0  3  0  0  0  0  0  0
  -26.1040  -26.2670   20.2860 C   0  0  0  0  0  3  0  0  0  0  0  0
  -25.0750  -27.2180   20.1490 C   0  0  0  0  0  3  0  0  0  0  0  0
  -23.9430  -29.4380   20.6090 C   0  0  0  0  0  2  0  0  0  0  0  0
  -24.8340  -30.7890   22.5210 N   0  0  0  0  0  0  0  0  0  0  0  0
  -23.5030  -32.0790   23.8710 O   0  0  0  0  0  0  0  0  0  0  0  0
  -22.8000  -29.2900   22.8670 C   0  0  0  0  0  0  0  0  0  0  0  0
  -21.4790  -29.1620   22.6520 N   0  0  0  0  0  0  0  0  0  0  0  0
  -23.3870  -28.6960   23.7760 O   0  0  0  0  0  0  0  0  0  0  0  0
  -21.0690  -29.6820   21.8950 H   0  0  0  0  0  0  0  0  0  0  0  0
  -18.0160  -28.1650   23.0560 C   0  0  0  0  0  0  0  0  0  0  0  0
  -20.5750  -28.3130   23.4300 C   0  0  0  0  0  3  0  0  0  0  0  0
  -20.6210  -26.8500   22.9290 C   0  0  0  0  0  2  0  0  0  0  0  0
  -19.5500  -26.5310   21.8800 C   0  0  0  0  0  2  0  0  0  0  0  0
  -18.1530  -26.7750   22.4510 C   0  0  0  0  0  2  0  0  0  0  0  0
  -19.1550  -28.8920   23.5030 C   0  0  0  0  0  0  0  0  0  0  0  0
  -18.9710  -30.1900   24.0290 C   0  0  0  0  0  3  0  0  0  0  0  0
  -17.6850  -30.7590   24.1140 C   0  0  0  0  0  3  0  0  0  0  0  0
  -16.5650  -30.0300   23.6870 C   0  0  0  0  0  3  0  0  0  0  0  0
  -16.7280  -28.7370   23.1630 C   0  0  0  0  0  3  0  0  0  0  0  0
  -25.8420  -32.4470   24.1990 C   0  0  0  0  0  3  0  0  0  0  0  0
  -25.5470  -33.8900   24.2440 N   0  0  0  0  0  0  0  0  0  0  0  0
  -26.0940  -34.8110   23.4420 C   0  0  0  0  0  0  0  0  0  0  0  0
  -26.9540  -34.5390   22.6040 O   0  0  0  0  0  0  0  0  0  0  0  0
  -24.8090  -34.1800   24.8660 H   0  0  0  0  0  0  0  0  0  0  0  0
  -24.5600  -36.5780   22.5100 C   0  0  0  0  0  1  0  0  0  0  0  0
  -25.6100  -36.2680   23.5910 C   0  0  0  0  0  3  0  0  0  0  0  0
  -27.6020  -37.2100   24.6720 C   0  0  0  0  0  1  0  0  0  0  0  0
  -26.7000  -37.2660   23.5230 N   0  0  0  0  0  0  0  0  0  0  0  0
  -26.3250  -38.2090   23.4650 H   0  0  0  0  0  0  0  0  0  0  0  0
  -26.1130  -31.9020   25.6560 C   0  0  1  0  0  0  0  0  0  0  0  0
  -24.8570  -31.8910   26.5610 C   0  0  0  0  0  1  0  0  0  0  0  0
  -26.6720  -30.4610   25.6200 C   0  0  0  0  0  1  0  0  0  0  0  0
  -27.1920  -32.7720   26.3420 C   0  0  0  0  0  1  0  0  0  0  0  0
  -28.2930  -18.3750   16.4400 C   0  0  0  0  0  1  0  0  0  0  0  0
  -28.9610  -17.9110   17.7400 C   0  0  0  0  0  2  0  0  0  0  0  0
  1 47  1  0
  2  4  1  0
  3  2  1  0
  6  5  1  0
  7  6  1  0
  8  3  1  0
  8  6  1  0
  9  8  1  0
 10  8  1  0
 11 12  1  0
 11 18  1  0
 14 15  1  0
 17 11  1  0
 17 16  1  0
 19 20  2  0
 19 22  1  0
 20 21  1  0
 21 24  1  0
 21 23  2  0
 22 23  1  0
 22 15  1  0
 24 25  1  0
 25 26  2  0
 27 26  1  0
 28 27  2  0
 29 28  1  0
 29 24  2  0
 30 27  1  0
 30 31  1  0
 31 36  2  0
 31 32  1  0
 32 33  2  0
 33 34  1  0
 34 38  1  0
 35 34  2  0
 36 35  1  0
 37 36  1  0
 39 20  1  0
 39 40  1  0
 40 43  1  0
 40 42  1  0
 41 39  2  0
 44 19  1  0
 44 46  1  0
 45 44  1  0
 47 49  1  0
 47 48  1  0
 50 47  1  0
 50 51  1  0
 52 51  2  0
 52 53  1  0
 54 65  2  0
 55 53  1  0
 55 60  1  0
 56 64  1  0
 56 66  1  0
 57 59  1  0
 58 64  1  0
 59 60  2  0
 59 58  1  0
 61 55  2  0
 62 61  1  0
 62 57  2  0
 63 57  1  0
 63 56  1  0
 64 54  1  0
 66 68  2  0
 67 66  1  0
 69 67  1  0
 70 79  2  0
 70 75  1  0
 71 67  1  0
 71 75  1  0
 72 71  1  0
 73 74  1  0
 73 72  1  0
 74 70  1  0
 75 76  2  0
 76 77  1  0
 78 77  2  0
 79 78  1  0
 80 54  1  0
 80 81  1  0
 80 90  1  0
 81 84  1  0
 82 86  1  0
 82 81  1  0
 83 82  2  0
 86 85  1  0
 88 86  1  0
 88 87  1  0
 89 88  1  0
 90 93  1  1
 90 91  1  0
 92 90  1  0
 94 95  1  0
 95  1  1  0
M  ISO  4   4 100  11 100  52 101  53 101
M  END
>  <TORSDO>  (47) 
F 22

>  <SCORE>  (47) 
1.945

>  <name>  (47) 
46

>  <ligand_id>  (47) 
46

>  <original_smiles>  (47) 
[H]c1c([H])c([H])c2c(c1[H])C([H])([H])C([H])([H])C([H])([H])C2([H])N([H])C(=O)C1([H])N(C(=O)C([H])(N([H])C(=O)C([H])(N([H])C([H])([H])[H])C([H])([H])[H])C(C([H])([H])[H])(C([H])([H])[H])C([H])([H])[H])C([H])([H])c2c([H])c(OC([H])([H])C([H])([H])C([H])([H])[N+]([H])([H])C([H])(C([H])([H])C([H])([H])[H])C3([H])C([H])(C(=O)N4C([H])([H])C([H])([H])C([H])([H])C([H])(n5nc(-c6c([H])c([H])c(Oc7c([H])c([H])c(F)c([H])c7F)c([H])c6[H])c(C(=O)N([H])[H])c5N([H])[H])C4([H])[H])C([H])([H])C([H])([H])[N+]([H])([H])C3([H])C([H])([H])[H])c([H])c([H])c2C1([H])[H]

>  <smiles>  (47) 
[H]c1c([H])c([H])c2c(c1[H])C([H])([H])C([H])([H])C([H])([H])C2([H])N([H])C(=O)C1([H])N(C(=O)C([H])(N([H])C(=O)C([H])(N([H])C([H])([H])[H])C([H])([H])[H])C(C([H])([H])[H])(C([H])([H])[H])C([H])([H])[H])C([H])([H])c2c([H])c(OC([H])([H])C([H])([H])C([H])([H])[N+]([H])([H])C([H])(C([H])([H])C([H])([H])[H])C3([H])C([H])(C(=O)N4C([H])([H])C([H])([H])C([H])([H])C([H])(n5nc(-c6c([H])c([H])c(Oc7c([H])c([H])c(F)c([H])c7F)c([H])c6[H])c(C(=O)N([H])[H])c5N([H])[H])C4([H])[H])C([H])([H])C([H])([H])[N+]([H])([H])C3([H])C([H])([H])[H])c([H])c([H])c2C1([H])[H]

$$$$
47:0:0
     RDKit          3D

 99108  0  0  1  0  0  0  0  0999 V2000
  -28.9750  -22.0270   18.5330 C   0  0  0  0  0  2  0  0  0  0  0  0
  -27.8680  -22.2750   17.5520 C   0  0  0  0  0  2  0  0  0  0  0  0
  -27.8100  -22.9310   18.9240 C   0  0  2  0  0  0  0  0  0  0  0  0
  -28.0190  -24.4160   18.7450 N   0  0  0  0  0  4  0  0  0  0  0  0
  -27.8060  -24.8510   19.6300 H   0  0  0  0  0  0  0  0  0  0  0  0
  -27.3350  -24.7400   18.0840 H   0  0  0  0  0  0  0  0  0  0  0  0
  -29.3490  -24.9750   18.3180 C   0  0  0  0  0  3  0  0  0  0  0  0
  -29.0010  -26.6710   20.3950 C   0  0  0  0  0  2  0  0  0  0  0  0
  -30.4100  -26.1400   20.5480 C   0  0  0  0  0  3  0  0  0  0  0  0
  -29.7420  -26.2240   19.1560 C   0  0  0  0  0  3  0  0  0  0  0  0
  -31.6930  -26.9550   20.8530 C   0  0  0  0  0  2  0  0  0  0  0  0
  -31.7210  -28.5130   20.9950 C   0  0  0  0  0  0  0  0  0  0  0  0
  -33.2620  -30.4480   21.2040 C   0  0  0  0  0  2  0  0  0  0  0  0
  -34.3350  -30.3350   20.0970 C   0  0  0  0  0  2  0  0  0  0  0  0
  -35.5080  -29.4260   20.5240 C   0  0  0  0  0  2  0  0  0  0  0  0
  -35.0240  -28.0870   21.1330 C   0  0  0  0  0  3  0  0  0  0  0  0
  -33.9230  -28.3360   22.1870 C   0  0  0  0  0  2  0  0  0  0  0  0
  -32.8320  -29.0820   21.5440 N   0  0  0  0  0  0  0  0  0  0  0  0
  -30.8180  -29.2020   20.5070 O   0  0  0  0  0  0  0  0  0  0  0  0
  -36.3730  -25.9410   21.5590 C   0  0  0  0  0  0  0  0  0  0  0  0
  -37.5670  -25.7200   22.1920 C   0  0  0  0  0  0  0  0  0  0  0  0
  -37.9960  -26.9960   22.6720 C   0  0  0  0  0  0  0  0  0  0  0  0
  -36.1250  -27.2990   21.6780 N   0  0  0  0  0  0  0  0  0  0  0  0
  -37.0870  -27.9230   22.4020 N   0  0  0  0  0  0  0  0  0  0  0  0
  -39.2500  -27.3990   23.3190 C   0  0  0  0  0  0  0  0  0  0  0  0
  -39.3620  -28.6170   24.0240 C   0  0  0  0  0  3  0  0  0  0  0  0
  -40.5760  -28.9720   24.6510 C   0  0  0  0  0  3  0  0  0  0  0  0
  -41.6900  -28.1040   24.5800 C   0  0  0  0  0  0  0  0  0  0  0  0
  -41.5830  -26.9050   23.8540 C   0  0  0  0  0  3  0  0  0  0  0  0
  -40.3760  -26.5560   23.2250 C   0  0  0  0  0  3  0  0  0  0  0  0
  -42.9160  -28.3790   25.1370 O   0  0  0  0  0  0  0  0  0  0  0  0
  -43.2100  -29.6130   25.6580 C   0  0  0  0  0  0  0  0  0  0  0  0
  -42.4030  -30.2120   26.6520 C   0  0  0  0  0  3  0  0  0  0  0  0
  -42.7760  -31.4510   27.2090 C   0  0  0  0  0  3  0  0  0  0  0  0
  -43.9590  -32.0880   26.7840 C   0  0  0  0  0  0  0  0  0  0  0  0
  -44.7650  -31.4910   25.7980 C   0  0  0  0  0  3  0  0  0  0  0  0
  -44.3920  -30.2560   25.2390 C   0  0  0  0  0  0  0  0  0  0  0  0
  -45.1820  -29.6750   24.3050 F   0  0  0  0  0  0  0  0  0  0  0  0
  -44.3240  -33.2730   27.3240 F   0  0  0  0  0  0  0  0  0  0  0  0
  -38.3170  -24.4220   22.2620 C   0  0  0  0  0  0  0  0  0  0  0  0
  -38.9650  -24.1450   23.3920 N   0  0  0  0  0  0  0  0  0  0  0  0
  -38.2990  -23.6220   21.3300 O   0  0  0  0  0  0  0  0  0  0  0  0
  -38.9650  -24.7940   24.1640 H   0  0  0  0  0  0  0  0  0  0  0  0
  -39.4650  -23.2720   23.4790 H   0  0  0  0  0  0  0  0  0  0  0  0
  -35.4940  -25.1110   20.8760 N   0  0  0  0  0  0  0  0  0  0  0  0
  -35.6840  -24.1270   20.7200 H   0  0  0  0  0  0  0  0  0  0  0  0
  -34.6570  -25.4310   20.4080 H   0  0  0  0  0  0  0  0  0  0  0  0
  -29.3790  -25.3140   16.8040 C   0  0  0  0  0  2  0  0  0  0  0  0
  -30.6730  -25.9270   16.2520 C   0  0  0  0  0  2  0  0  0  0  0  0
  -30.4590  -26.4060   14.8040 C   0  0  0  0  0  2  0  0  0  0  0  0
  -31.5160  -27.2170   12.6330 C   0  0  0  0  0  1  0  0  0  0  0  0
  -31.7640  -26.6480   14.0360 C   0  0  0  0  0  2  0  0  0  0  0  0
  -26.6470  -22.5230   19.8650 C   0  0  0  0  0  3  0  0  0  0  0  0
  -26.7810  -21.1100   20.1770 N   0  0  0  0  0  0  0  0  0  0  0  0
  -26.4550  -20.5730   19.3810 H   0  0  0  0  0  0  0  0  0  0  0  0
  -26.1120  -20.8720   20.9040 H   0  0  0  0  0  0  0  0  0  0  0  0
  -25.1720  -22.6920   19.3410 C   0  0  0  0  0  2  0  0  0  0  0  0
  -24.6220  -24.1240   19.0980 C   0  0  0  0  0  2  0  0  0  0  0  0
  -23.4430  -24.4340   19.8690 O   0  0  0  0  0  0  0  0  0  0  0  0
  -16.3570  -24.7100   20.4290 C   0  0  0  0  0  0  0  0  0  0  0  0
  -22.2830  -24.9550   19.3160 C   0  0  0  0  0  0  0  0  0  0  0  0
  -17.2960  -25.7250   18.3750 C   0  0  0  0  0  3  0  0  0  0  0  0
  -19.8360  -26.0190   18.3440 C   0  0  0  0  0  0  0  0  0  0  0  0
  -18.6760  -25.6240   20.5260 C   0  0  0  0  0  2  0  0  0  0  0  0
  -19.9190  -25.5530   19.6610 C   0  0  0  0  0  0  0  0  0  0  0  0
  -21.1390  -25.0310   20.1470 C   0  0  0  0  0  3  0  0  0  0  0  0
  -22.1810  -25.4230   17.9880 C   0  0  0  0  0  3  0  0  0  0  0  0
  -20.9650  -25.9550   17.5030 C   0  0  0  0  0  3  0  0  0  0  0  0
  -18.5030  -26.5790   17.8990 C   0  0  0  0  0  2  0  0  0  0  0  0
  -17.4170  -25.3060   19.8110 N   0  0  0  0  0  0  0  0  0  0  0  0
  -15.2780  -24.5470   19.8390 O   0  0  0  0  0  0  0  0  0  0  0  0
  -17.1210  -24.5370   17.4020 C   0  0  0  0  0  0  0  0  0  0  0  0
  -16.8500  -24.8430   16.1230 N   0  0  0  0  0  0  0  0  0  0  0  0
  -17.2590  -23.3750   17.7940 O   0  0  0  0  0  0  0  0  0  0  0  0
  -16.7460  -25.8180   15.8800 H   0  0  0  0  0  0  0  0  0  0  0  0
  -16.2130  -24.5560   12.5780 C   0  0  0  0  0  0  0  0  0  0  0  0
  -16.6920  -23.8860   15.0280 C   0  0  0  0  0  3  0  0  0  0  0  0
  -18.0670  -23.3970   14.5170 C   0  0  0  0  0  2  0  0  0  0  0  0
  -18.6010  -24.2190   13.3400 C   0  0  0  0  0  2  0  0  0  0  0  0
  -17.6220  -24.1710   12.1630 C   0  0  0  0  0  2  0  0  0  0  0  0
  -15.7820  -24.4380   13.9270 C   0  0  0  0  0  0  0  0  0  0  0  0
  -14.4720  -24.8430   14.2630 C   0  0  0  0  0  3  0  0  0  0  0  0
  -13.6020  -25.3580   13.2840 C   0  0  0  0  0  3  0  0  0  0  0  0
  -14.0270  -25.4590   11.9500 C   0  0  0  0  0  3  0  0  0  0  0  0
  -15.3270  -25.0520   11.5980 C   0  0  0  0  0  3  0  0  0  0  0  0
  -16.4360  -24.2300   21.9130 C   0  0  0  0  0  3  0  0  0  0  0  0
  -15.2240  -24.6980   22.5980 N   0  0  0  0  0  0  0  0  0  0  0  0
  -15.2100  -25.5890   23.5980 C   0  0  0  0  0  0  0  0  0  0  0  0
  -16.2390  -26.0570   24.0930 O   0  0  0  0  0  0  0  0  0  0  0  0
  -14.3420  -24.4020   22.2070 H   0  0  0  0  0  0  0  0  0  0  0  0
  -13.5640  -27.4870   23.7080 C   0  0  0  0  0  1  0  0  0  0  0  0
  -13.8360  -26.0350   24.1350 C   0  0  0  0  0  3  0  0  0  0  0  0
  -13.7030  -24.5300   26.0690 C   0  0  0  0  0  1  0  0  0  0  0  0
  -13.7100  -25.9150   25.6050 N   0  0  0  0  0  0  0  0  0  0  0  0
  -12.8570  -26.3620   25.9320 H   0  0  0  0  0  0  0  0  0  0  0  0
  -16.5850  -22.6650   22.0530 C   0  0  1  0  0  0  0  0  0  0  0  0
  -15.5500  -21.8630   21.2290 C   0  0  0  0  0  1  0  0  0  0  0  0
  -17.9930  -22.2100   21.6040 C   0  0  0  0  0  1  0  0  0  0  0  0
  -16.4430  -22.2540   23.5380 C   0  0  0  0  0  1  0  0  0  0  0  0
  1  3  1  0
  2  1  1  0
  2  3  1  0
  3 53  1  1
  4  3  1  0
  4  5  1  0
  6  4  1  0
  7 48  1  0
  7  4  1  0
  8  9  1  0
  9 11  1  0
 10  7  1  0
 10  8  1  0
 10  9  1  0
 11 12  1  0
 12 18  1  0
 13 18  1  0
 14 15  1  0
 14 13  1  0
 16 15  1  0
 16 23  1  0
 16 17  1  0
 18 17  1  0
 19 12  2  0
 20 23  1  0
 20 21  2  0
 21 40  1  0
 21 22  1  0
 22 25  1  0
 23 24  1  0
 24 22  2  0
 25 26  1  0
 26 27  2  0
 28 27  1  0
 28 31  1  0
 29 28  2  0
 30 25  2  0
 30 29  1  0
 31 32  1  0
 32 33  1  0
 33 34  2  0
 35 34  1  0
 35 39  1  0
 36 35  2  0
 37 32  2  0
 37 36  1  0
 38 37  1  0
 40 41  1  0
 41 44  1  0
 41 43  1  0
 42 40  2  0
 45 20  1  0
 46 45  1  0
 47 45  1  0
 49 48  1  0
 50 49  1  0
 51 52  1  0
 52 50  1  0
 53 57  1  0
 53 54  1  0
 54 56  1  0
 55 54  1  0
 58 57  1  0
 58 59  1  0
 61 59  1  0
 61 66  1  0
 62 72  1  0
 62 70  1  0
 63 65  1  0
 65 66  2  0
 65 64  1  0
 67 61  2  0
 68 67  1  0
 68 63  2  0
 69 63  1  0
 69 62  1  0
 70 60  1  0
 70 64  1  0
 71 60  2  0
 72 74  2  0
 73 72  1  0
 75 73  1  0
 76 81  1  0
 77 73  1  0
 78 77  1  0
 79 78  1  0
 80 76  1  0
 80 79  1  0
 81 82  2  0
 81 77  1  0
 83 82  1  0
 84 83  2  0
 85 84  1  0
 85 76  2  0
 86 60  1  0
 86 96  1  0
 86 87  1  0
 87 88  1  0
 88 89  2  0
 88 92  1  0
 90 87  1  0
 92 91  1  0
 92 94  1  0
 94 95  1  0
 94 93  1  0
 96 99  1  1
 97 96  1  0
 98 96  1  0
M  ISO  4  11 100  12 100  58 101  59 101
M  END
>  <TORSDO>  (48) 
F 28

>  <SCORE>  (48) 
-1.901

>  <name>  (48) 
47

>  <ligand_id>  (48) 
47

>  <original_smiles>  (48) 
[H]c1c([H])c([H])c2c(c1[H])C([H])([H])C([H])([H])C([H])([H])C2([H])N([H])C(=O)C1([H])N(C(=O)C([H])(N([H])C(=O)C([H])(N([H])C([H])([H])[H])C([H])([H])[H])C(C([H])([H])[H])(C([H])([H])[H])C([H])([H])[H])C([H])([H])c2c([H])c(OC([H])([H])C([H])([H])C([H])(N([H])[H])C3([N+]([H])([H])C([H])(C([H])([H])C([H])([H])C([H])([H])C([H])([H])C([H])([H])[H])C4([H])C([H])([H])C4([H])C([H])([H])C(=O)N4C([H])([H])C([H])([H])C([H])([H])C([H])(n5nc(-c6c([H])c([H])c(Oc7c([H])c([H])c(F)c([H])c7F)c([H])c6[H])c(C(=O)N([H])[H])c5N([H])[H])C4([H])[H])C([H])([H])C3([H])[H])c([H])c([H])c2C1([H])[H]

>  <smiles>  (48) 
[H]c1c([H])c([H])c2c(c1[H])C([H])([H])C([H])([H])C([H])([H])C2([H])N([H])C(=O)C1([H])N(C(=O)C([H])(N([H])C(=O)C([H])(N([H])C([H])([H])[H])C([H])([H])[H])C(C([H])([H])[H])(C([H])([H])[H])C([H])([H])[H])C([H])([H])c2c([H])c(OC([H])([H])C([H])([H])C([H])(N([H])[H])C3([N+]([H])([H])C([H])(C([H])([H])C([H])([H])C([H])([H])C([H])([H])C([H])([H])[H])C4([H])C([H])([H])C4([H])C([H])([H])C(=O)N4C([H])([H])C([H])([H])C([H])([H])C([H])(n5nc(-c6c([H])c([H])c(Oc7c([H])c([H])c(F)c([H])c7F)c([H])c6[H])c(C(=O)N([H])[H])c5N([H])[H])C4([H])[H])C([H])([H])C3([H])[H])c([H])c([H])c2C1([H])[H]

$$$$
48:0:0
     RDKit          3D

 92101  0  0  1  0  0  0  0  0999 V2000
  -27.3710  -20.6740   17.7510 C   0  0  0  0  0  2  0  0  0  0  0  0
  -27.8370  -22.1020   17.4290 C   0  0  0  0  0  2  0  0  0  0  0  0
  -29.6780  -20.6590   17.1920 C   0  0  0  0  0  2  0  0  0  0  0  0
  -28.6890  -19.9680   18.1190 C   0  0  0  0  0  3  0  0  0  0  0  0
  -29.3500  -22.0470   17.7330 C   0  0  0  0  0  3  0  0  0  0  0  0
  -29.1520  -20.4300   19.5270 C   0  0  0  0  0  3  0  0  0  0  0  0
  -29.6550  -21.9010   19.2560 C   0  0  1  0  0  0  0  0  0  0  0  0
  -31.1750  -22.0940   19.4990 C   0  0  0  0  0  1  0  0  0  0  0  0
  -30.1660  -19.4400   20.1620 C   0  0  0  0  0  2  0  0  0  0  0  0
  -29.5580  -18.0900   20.6130 C   0  0  0  0  0  2  0  0  0  0  0  0
  -30.6300  -16.9970   20.8040 C   0  0  0  0  0  2  0  0  0  0  0  0
  -30.0640  -15.5950   21.1720 C   0  0  0  0  0  2  0  0  0  0  0  0
  -30.7160  -14.4180   20.4070 C   0  0  0  0  0  0  0  0  0  0  0  0
  -30.3520  -12.3420   19.1260 C   0  0  0  0  0  2  0  0  0  0  0  0
  -29.3910  -12.6400   17.9560 C   0  0  0  0  0  2  0  0  0  0  0  0
  -27.9220  -12.5040   18.4070 C   0  0  0  0  0  2  0  0  0  0  0  0
  -27.6280  -13.2760   19.7200 C   0  0  0  0  0  3  0  0  0  0  0  0
  -28.6990  -12.9710   20.7920 C   0  0  0  0  0  2  0  0  0  0  0  0
  -30.0190  -13.2680   20.2170 N   0  0  0  0  0  0  0  0  0  0  0  0
  -31.8280  -14.5950   19.8990 O   0  0  0  0  0  0  0  0  0  0  0  0
  -25.2360  -13.8860   20.4500 C   0  0  0  0  0  0  0  0  0  0  0  0
  -24.1700  -13.1140   20.8290 C   0  0  0  0  0  0  0  0  0  0  0  0
  -24.6310  -11.7630   20.7950 C   0  0  0  0  0  0  0  0  0  0  0  0
  -26.2780  -13.0050   20.2110 N   0  0  0  0  0  0  0  0  0  0  0  0
  -25.9170  -11.7230   20.4740 N   0  0  0  0  0  0  0  0  0  0  0  0
  -23.9060  -10.5010   20.9920 C   0  0  0  0  0  0  0  0  0  0  0  0
  -24.3380   -9.5420   21.9350 C   0  0  0  0  0  3  0  0  0  0  0  0
  -23.6150   -8.3450   22.1200 C   0  0  0  0  0  3  0  0  0  0  0  0
  -22.4460   -8.0970   21.3610 C   0  0  0  0  0  0  0  0  0  0  0  0
  -22.0340   -9.0440   20.4070 C   0  0  0  0  0  3  0  0  0  0  0  0
  -22.7570  -10.2330   20.2200 C   0  0  0  0  0  3  0  0  0  0  0  0
  -21.6950   -6.9500   21.4550 O   0  0  0  0  0  0  0  0  0  0  0  0
  -21.6320   -6.2230   22.6170 C   0  0  0  0  0  0  0  0  0  0  0  0
  -21.1730   -6.7880   23.8270 C   0  0  0  0  0  3  0  0  0  0  0  0
  -21.0600   -5.9860   24.9800 C   0  0  0  0  0  3  0  0  0  0  0  0
  -21.3960   -4.6210   24.9240 C   0  0  0  0  0  0  0  0  0  0  0  0
  -21.8480   -4.0540   23.7190 C   0  0  0  0  0  3  0  0  0  0  0  0
  -21.9630   -4.8530   22.5680 C   0  0  0  0  0  0  0  0  0  0  0  0
  -22.3790   -4.2990   21.4040 F   0  0  0  0  0  0  0  0  0  0  0  0
  -21.2800   -3.8480   26.0280 F   0  0  0  0  0  0  0  0  0  0  0  0
  -22.7760  -13.5920   21.1160 C   0  0  0  0  0  0  0  0  0  0  0  0
  -22.0550  -12.8940   21.9860 N   0  0  0  0  0  0  0  0  0  0  0  0
  -22.3330  -14.6210   20.6040 O   0  0  0  0  0  0  0  0  0  0  0  0
  -22.4260  -12.0610   22.4200 H   0  0  0  0  0  0  0  0  0  0  0  0
  -21.1200  -13.1950   22.2210 H   0  0  0  0  0  0  0  0  0  0  0  0
  -25.4000  -15.2570   20.2700 N   0  0  0  0  0  0  0  0  0  0  0  0
  -24.6350  -15.9120   20.3890 H   0  0  0  0  0  0  0  0  0  0  0  0
  -26.2530  -15.6960   19.9490 H   0  0  0  0  0  0  0  0  0  0  0  0
  -28.8950  -22.9320   20.1450 C   0  0  0  0  0  2  0  0  0  0  0  0
  -29.0820  -24.4240   19.7740 C   0  0  0  0  0  2  0  0  0  0  0  0
  -28.3420  -25.3640   20.7380 C   0  0  0  0  0  2  0  0  0  0  0  0
  -28.4340  -26.7190   20.2890 O   0  0  0  0  0  0  0  0  0  0  0  0
  -24.5650  -31.8770   23.2650 C   0  0  0  0  0  0  0  0  0  0  0  0
  -27.2560  -27.4280   20.2650 C   0  0  0  0  0  0  0  0  0  0  0  0
  -23.3800  -30.4610   21.6170 C   0  0  0  0  0  3  0  0  0  0  0  0
  -24.8540  -28.9130   20.2250 C   0  0  0  0  0  0  0  0  0  0  0  0
  -25.9060  -30.8270   21.4470 C   0  0  0  0  0  2  0  0  0  0  0  0
  -26.0020  -29.4530   20.8210 C   0  0  0  0  0  0  0  0  0  0  0  0
  -27.2080  -28.7190   20.8320 C   0  0  0  0  0  3  0  0  0  0  0  0
  -26.0930  -26.8990   19.6610 C   0  0  0  0  0  3  0  0  0  0  0  0
  -24.8940  -27.6340   19.6430 C   0  0  0  0  0  3  0  0  0  0  0  0
  -23.6080  -29.7670   20.2460 C   0  0  0  0  0  2  0  0  0  0  0  0
  -24.6340  -31.0710   22.1680 N   0  0  0  0  0  0  0  0  0  0  0  0
  -23.4770  -32.1530   23.7890 O   0  0  0  0  0  0  0  0  0  0  0  0
  -22.7180  -29.4490   22.5760 C   0  0  0  0  0  0  0  0  0  0  0  0
  -21.3930  -29.2750   22.4390 N   0  0  0  0  0  0  0  0  0  0  0  0
  -23.3920  -28.8200   23.3970 O   0  0  0  0  0  0  0  0  0  0  0  0
  -20.9130  -29.8350   21.7490 H   0  0  0  0  0  0  0  0  0  0  0  0
  -18.0010  -28.1350   22.9320 C   0  0  0  0  0  0  0  0  0  0  0  0
  -20.5620  -28.3460   23.2030 C   0  0  0  0  0  3  0  0  0  0  0  0
  -20.6390  -26.9180   22.6160 C   0  0  0  0  0  2  0  0  0  0  0  0
  -19.5320  -26.6210   21.6020 C   0  0  0  0  0  2  0  0  0  0  0  0
  -18.1530  -26.7870   22.2470 C   0  0  0  0  0  2  0  0  0  0  0  0
  -19.1330  -28.8750   23.3660 C   0  0  0  0  0  0  0  0  0  0  0  0
  -18.9380  -30.1390   23.9630 C   0  0  0  0  0  3  0  0  0  0  0  0
  -17.6420  -30.6640   24.1310 C   0  0  0  0  0  3  0  0  0  0  0  0
  -16.5240  -29.9190   23.7180 C   0  0  0  0  0  3  0  0  0  0  0  0
  -16.7040  -28.6570   23.1230 C   0  0  0  0  0  3  0  0  0  0  0  0
  -25.8440  -32.5090   23.8980 C   0  0  0  0  0  3  0  0  0  0  0  0
  -25.5350  -33.9130   24.2040 N   0  0  0  0  0  0  0  0  0  0  0  0
  -25.8880  -34.9540   23.4390 C   0  0  0  0  0  0  0  0  0  0  0  0
  -26.5800  -34.8350   22.4230 O   0  0  0  0  0  0  0  0  0  0  0  0
  -24.9230  -34.0810   24.9900 H   0  0  0  0  0  0  0  0  0  0  0  0
  -24.1810  -36.7510   23.0150 C   0  0  0  0  0  1  0  0  0  0  0  0
  -25.3960  -36.3500   23.8670 C   0  0  0  0  0  3  0  0  0  0  0  0
  -27.5120  -37.2320   24.7490 C   0  0  0  0  0  1  0  0  0  0  0  0
  -26.4370  -37.3960   23.7720 N   0  0  0  0  0  0  0  0  0  0  0  0
  -26.0320  -38.3190   23.8970 H   0  0  0  0  0  0  0  0  0  0  0  0
  -26.3410  -31.7510   25.1900 C   0  0  1  0  0  0  0  0  0  0  0  0
  -25.2330  -31.5240   26.2440 C   0  0  0  0  0  1  0  0  0  0  0  0
  -26.9280  -30.3690   24.8180 C   0  0  0  0  0  1  0  0  0  0  0  0
  -27.4820  -32.5510   25.8620 C   0  0  0  0  0  1  0  0  0  0  0  0
  1  4  1  0
  2  5  1  0
  2  1  1  0
  4  3  1  0
  4  6  1  0
  5  3  1  0
  5  7  1  0
  6  9  1  0
  7  8  1  6
  7  6  1  0
  7 49  1  0
  9 10  1  0
 10 11  1  0
 11 12  1  0
 13 12  1  0
 14 19  1  0
 15 16  1  0
 15 14  1  0
 17 16  1  0
 17 24  1  0
 17 18  1  0
 19 13  1  0
 19 18  1  0
 20 13  2  0
 21 22  2  0
 22 41  1  0
 23 22  1  0
 23 26  1  0
 24 21  1  0
 24 25  1  0
 25 23  2  0
 26 27  1  0
 27 28  2  0
 29 32  1  0
 29 28  1  0
 30 29  2  0
 31 30  1  0
 31 26  2  0
 32 33  1  0
 33 34  1  0
 34 35  2  0
 36 35  1  0
 36 40  1  0
 37 36  2  0
 38 33  2  0
 38 37  1  0
 39 38  1  0
 41 42  1  0
 42 45  1  0
 42 44  1  0
 43 41  2  0
 46 47  1  0
 46 21  1  0
 48 46  1  0
 50 49  1  0
 50 51  1  0
 52 51  1  0
 53 64  2  0
 54 52  1  0
 54 59  1  0
 55 63  1  0
 55 65  1  0
 56 62  1  0
 56 58  1  0
 57 63  1  0
 58 59  2  0
 58 57  1  0
 60 54  2  0
 61 60  1  0
 61 56  2  0
 62 55  1  0
 63 53  1  0
 65 67  2  0
 66 65  1  0
 68 66  1  0
 69 78  2  0
 69 74  1  0
 70 66  1  0
 70 74  1  0
 71 70  1  0
 72 73  1  0
 72 71  1  0
 73 69  1  0
 74 75  2  0
 75 76  1  0
 77 76  2  0
 78 77  1  0
 79 53  1  0
 79 80  1  0
 79 89  1  0
 80 83  1  0
 81 85  1  0
 81 80  1  0
 82 81  2  0
 85 84  1  0
 87 85  1  0
 87 88  1  0
 87 86  1  0
 89 92  1  1
 89 90  1  0
 91 89  1  0
M  ISO  4  12 100  13 100  51 101  52 101
M  END
>  <TORSDO>  (49) 
F 23

>  <SCORE>  (49) 
-12.822

>  <name>  (49) 
48

>  <ligand_id>  (49) 
48

>  <original_smiles>  (49) 
[H]c1c([H])c([H])c2c(c1[H])C([H])([H])C([H])([H])C([H])([H])C2([H])N([H])C(=O)C1([H])N(C(=O)C([H])(N([H])C(=O)C([H])(N([H])C([H])([H])[H])C([H])([H])[H])C(C([H])([H])[H])(C([H])([H])[H])C([H])([H])[H])C([H])([H])c2c([H])c(OC([H])([H])C([H])([H])C([H])([H])C3(C([H])([H])[H])C4([H])C([H])([H])C([H])([H])C([H])(C4([H])[H])C3([H])C([H])([H])C([H])([H])C([H])([H])C([H])([H])C(=O)N3C([H])([H])C([H])([H])C([H])([H])C([H])(n4nc(-c5c([H])c([H])c(Oc6c([H])c([H])c(F)c([H])c6F)c([H])c5[H])c(C(=O)N([H])[H])c4N([H])[H])C3([H])[H])c([H])c([H])c2C1([H])[H]

>  <smiles>  (49) 
[H]c1c([H])c([H])c2c(c1[H])C([H])([H])C([H])([H])C([H])([H])C2([H])N([H])C(=O)C1([H])N(C(=O)C([H])(N([H])C(=O)C([H])(N([H])C([H])([H])[H])C([H])([H])[H])C(C([H])([H])[H])(C([H])([H])[H])C([H])([H])[H])C([H])([H])c2c([H])c(OC([H])([H])C([H])([H])C([H])([H])C3(C([H])([H])[H])C4([H])C([H])([H])C([H])([H])C([H])(C4([H])[H])C3([H])C([H])([H])C([H])([H])C([H])([H])C([H])([H])C(=O)N3C([H])([H])C([H])([H])C([H])([H])C([H])(n4nc(-c5c([H])c([H])c(Oc6c([H])c([H])c(F)c([H])c6F)c([H])c5[H])c(C(=O)N([H])[H])c4N([H])[H])C3([H])[H])c([H])c([H])c2C1([H])[H]

$$$$
49:0:0
     RDKit          3D

 91100  0  0  1  0  0  0  0  0999 V2000
  -31.4010  -16.8870   17.8740 C   0  0  0  0  0  3  0  0  0  0  0  0
  -30.9710  -18.2330   17.7790 C   0  0  0  0  0  3  0  0  0  0  0  0
  -29.6930  -16.4250   19.5200 C   0  0  0  0  0  3  0  0  0  0  0  0
  -28.2430  -19.8110   19.6140 C   0  0  0  0  0  3  0  0  0  0  0  0
  -29.2270  -17.7800   19.4410 C   0  0  0  0  0  0  0  0  0  0  0  0
  -30.7910  -15.9480   18.7500 C   0  0  0  0  0  0  0  0  0  0  0  0
  -28.1730  -18.5180   20.0800 C   0  0  0  0  0  0  0  0  0  0  0  0
  -29.9010  -18.6940   18.5660 C   0  0  0  0  0  0  0  0  0  0  0  0
  -27.1710  -17.9920   21.0610 C   0  0  0  0  0  1  0  0  0  0  0  0
  -29.2930  -19.9600   18.7100 N   0  0  0  0  0  0  0  0  0  0  0  0
  -31.4630  -14.5710   18.9010 C   0  0  0  0  0  0  0  0  0  0  0  0
  -31.0680  -12.1930   18.4100 C   0  0  0  0  0  2  0  0  0  0  0  0
  -30.0310  -12.1210   17.2680 C   0  0  0  0  0  2  0  0  0  0  0  0
  -28.6020  -12.1000   17.8440 C   0  0  0  0  0  2  0  0  0  0  0  0
  -28.3700  -13.2070   18.9090 C   0  0  0  0  0  3  0  0  0  0  0  0
  -29.5260  -13.2730   19.9250 C   0  0  0  0  0  2  0  0  0  0  0  0
  -30.7790  -13.4190   19.1800 N   0  0  0  0  0  0  0  0  0  0  0  0
  -32.6150  -14.5180   18.4620 O   0  0  0  0  0  0  0  0  0  0  0  0
  -26.1880  -14.0330   19.9800 C   0  0  0  0  0  0  0  0  0  0  0  0
  -25.1010  -13.3680   20.4770 C   0  0  0  0  0  0  0  0  0  0  0  0
  -25.3940  -11.9750   20.3470 C   0  0  0  0  0  0  0  0  0  0  0  0
  -27.0800  -13.0530   19.5740 N   0  0  0  0  0  0  0  0  0  0  0  0
  -26.6160  -11.8070   19.8570 N   0  0  0  0  0  0  0  0  0  0  0  0
  -24.5590  -10.7960   20.6080 C   0  0  0  0  0  0  0  0  0  0  0  0
  -25.0000   -9.7490   21.4480 C   0  0  0  0  0  3  0  0  0  0  0  0
  -24.1710   -8.6340   21.6990 C   0  0  0  0  0  3  0  0  0  0  0  0
  -22.8850   -8.5580   21.1130 C   0  0  0  0  0  0  0  0  0  0  0  0
  -22.4600   -9.5920   20.2600 C   0  0  0  0  0  3  0  0  0  0  0  0
  -23.2880  -10.6980   20.0070 C   0  0  0  0  0  3  0  0  0  0  0  0
  -22.0220   -7.5030   21.2780 O   0  0  0  0  0  0  0  0  0  0  0  0
  -22.0660   -6.7050   22.3930 C   0  0  0  0  0  0  0  0  0  0  0  0
  -21.8720   -7.2260   23.6910 C   0  0  0  0  0  3  0  0  0  0  0  0
  -21.8550   -6.3590   24.8020 C   0  0  0  0  0  3  0  0  0  0  0  0
  -22.0250   -4.9730   24.6170 C   0  0  0  0  0  0  0  0  0  0  0  0
  -22.2130   -4.4520   23.3250 C   0  0  0  0  0  3  0  0  0  0  0  0
  -22.2310   -5.3160   22.2160 C   0  0  0  0  0  0  0  0  0  0  0  0
  -22.3910   -4.8060   20.9710 F   0  0  0  0  0  0  0  0  0  0  0  0
  -22.0010   -4.1390   25.6840 F   0  0  0  0  0  0  0  0  0  0  0  0
  -23.8200  -13.9860   20.9560 C   0  0  0  0  0  0  0  0  0  0  0  0
  -23.1500  -13.3500   21.9110 N   0  0  0  0  0  0  0  0  0  0  0  0
  -23.4290  -15.0670   20.5160 O   0  0  0  0  0  0  0  0  0  0  0  0
  -23.4790  -12.4750   22.2890 H   0  0  0  0  0  0  0  0  0  0  0  0
  -22.2940  -13.7480   22.2710 H   0  0  0  0  0  0  0  0  0  0  0  0
  -26.4890  -15.3830   19.8200 N   0  0  0  0  0  0  0  0  0  0  0  0
  -25.8350  -16.1140   20.0750 H   0  0  0  0  0  0  0  0  0  0  0  0
  -27.3560  -15.7390   19.4370 H   0  0  0  0  0  0  0  0  0  0  0  0
  -29.6490  -21.2230   17.9950 C   0  0  0  0  0  3  0  0  0  0  0  0
  -29.2310  -22.5890   18.6710 C   0  0  0  0  0  3  0  0  0  0  0  0
  -29.3720  -23.9100   17.8110 C   0  0  0  0  0  3  0  0  0  0  0  0
  -29.1710  -25.2560   18.6050 C   0  0  0  0  0  3  0  0  0  0  0  0
  -28.9810  -26.4950   17.8500 O   0  0  0  0  0  0  0  0  0  0  0  0
  -25.9930  -30.0950   23.2940 C   0  0  0  0  0  0  0  0  0  0  0  0
  -27.9630  -27.3250   18.2990 C   0  0  0  0  0  0  0  0  0  0  0  0
  -24.5800  -29.7390   21.2980 C   0  0  0  0  0  3  0  0  0  0  0  0
  -25.7920  -28.9130   19.2080 C   0  0  0  0  0  0  0  0  0  0  0  0
  -27.1280  -29.8980   21.0760 C   0  0  0  0  0  2  0  0  0  0  0  0
  -27.0280  -28.9820   19.8670 C   0  0  0  0  0  0  0  0  0  0  0  0
  -28.1210  -28.2010   19.4070 C   0  0  0  0  0  3  0  0  0  0  0  0
  -26.7170  -27.2940   17.6400 C   0  0  0  0  0  3  0  0  0  0  0  0
  -25.6350  -28.0750   18.0900 C   0  0  0  0  0  3  0  0  0  0  0  0
  -24.6670  -29.7670   19.7500 C   0  0  0  0  0  2  0  0  0  0  0  0
  -25.9230  -29.8970   21.9460 N   0  0  0  0  0  0  0  0  0  0  0  0
  -24.9680  -30.1830   23.9850 O   0  0  0  0  0  0  0  0  0  0  0  0
  -23.8380  -28.4530   21.7320 C   0  0  0  0  0  0  0  0  0  0  0  0
  -22.5040  -28.4470   21.5690 N   0  0  0  0  0  0  0  0  0  0  0  0
  -24.4590  -27.4850   22.1790 O   0  0  0  0  0  0  0  0  0  0  0  0
  -22.0670  -29.2820   21.2030 H   0  0  0  0  0  0  0  0  0  0  0  0
  -19.0470  -27.3870   21.5130 C   0  0  0  0  0  0  0  0  0  0  0  0
  -21.6070  -27.3300   21.8700 C   0  0  0  0  0  3  0  0  0  0  0  0
  -21.6370  -26.2710   20.7420 C   0  0  0  0  0  2  0  0  0  0  0  0
  -20.5480  -26.4830   19.6870 C   0  0  0  0  0  2  0  0  0  0  0  0
  -19.1590  -26.4380   20.3320 C   0  0  0  0  0  2  0  0  0  0  0  0
  -20.1980  -27.8160   22.2260 C   0  0  0  0  0  0  0  0  0  0  0  0
  -20.0410  -28.7260   23.2940 C   0  0  0  0  0  3  0  0  0  0  0  0
  -18.7650  -29.1980   23.6560 C   0  0  0  0  0  3  0  0  0  0  0  0
  -17.6280  -28.7570   22.9570 C   0  0  0  0  0  3  0  0  0  0  0  0
  -17.7700  -27.8510   21.8920 C   0  0  0  0  0  3  0  0  0  0  0  0
  -27.3620  -30.2450   24.0290 C   0  0  0  0  0  3  0  0  0  0  0  0
  -27.8810  -28.8910   24.6540 C   0  0  1  0  0  0  0  0  0  0  0  0
  -26.8400  -28.1760   25.5460 C   0  0  0  0  0  1  0  0  0  0  0  0
  -28.3060  -27.9050   23.5400 C   0  0  0  0  0  1  0  0  0  0  0  0
  -29.1420  -29.1600   25.5090 C   0  0  0  0  0  1  0  0  0  0  0  0
  -27.1980  -31.2660   25.0720 N   0  0  0  0  0  0  0  0  0  0  0  0
  -27.6710  -32.5170   24.9920 C   0  0  0  0  0  0  0  0  0  0  0  0
  -28.3620  -32.9110   24.0480 O   0  0  0  0  0  0  0  0  0  0  0  0
  -26.5980  -31.0280   25.8480 H   0  0  0  0  0  0  0  0  0  0  0  0
  -26.1790  -34.4110   25.7050 C   0  0  0  0  0  1  0  0  0  0  0  0
  -27.3240  -33.4820   26.1410 C   0  0  0  0  0  3  0  0  0  0  0  0
  -29.5000  -33.5040   27.2790 C   0  0  0  0  0  1  0  0  0  0  0  0
  -28.4750  -34.2920   26.5980 N   0  0  0  0  0  0  0  0  0  0  0  0
  -28.1700  -35.0280   27.2300 H   0  0  0  0  0  0  0  0  0  0  0  0
  1  6  1  0
  2  1  2  0
  2  8  1  0
  4  7  2  0
  5  3  1  0
  5  7  1  0
  6 11  1  0
  6  3  2  0
  7  9  1  0
  8 10  1  0
  8  5  2  0
 10  4  1  0
 11 17  1  0
 12 17  1  0
 13 14  1  0
 13 12  1  0
 15 14  1  0
 15 22  1  0
 15 16  1  0
 17 16  1  0
 18 11  2  0
 19 20  2  0
 20 39  1  0
 21 20  1  0
 21 24  1  0
 22 23  1  0
 22 19  1  0
 23 21  2  0
 24 25  1  0
 25 26  2  0
 27 30  1  0
 27 26  1  0
 28 27  2  0
 29 28  1  0
 29 24  2  0
 30 31  1  0
 31 32  1  0
 32 33  2  0
 34 33  1  0
 34 38  1  0
 35 34  2  0
 36 31  2  0
 36 35  1  0
 37 36  1  0
 39 40  1  0
 40 43  1  0
 40 42  1  0
 41 39  2  0
 44 19  1  0
 44 45  1  0
 46 44  1  0
 47 48  2  0
 47 10  1  0
 49 50  2  0
 49 48  1  0
 51 53  1  0
 51 50  1  0
 52 63  2  0
 53 58  1  0
 54 64  1  0
 54 62  1  0
 55 61  1  0
 55 57  1  0
 56 62  1  0
 57 56  1  0
 58 57  2  0
 59 60  1  0
 59 53  2  0
 60 55  2  0
 61 54  1  0
 62 52  1  0
 64 66  2  0
 65 64  1  0
 67 65  1  0
 68 77  2  0
 68 73  1  0
 69 65  1  0
 69 73  1  0
 70 69  1  0
 71 72  1  0
 71 70  1  0
 72 68  1  0
 73 74  2  0
 74 75  1  0
 76 75  2  0
 77 76  1  0
 78 52  1  0
 78 79  1  0
 78 83  1  0
 79 82  1  1
 79 80  1  0
 81 79  1  0
 83 86  1  0
 84 83  1  0
 84 88  1  0
 85 84  2  0
 88 87  1  0
 88 90  1  0
 90 91  1  0
 90 89  1  0
M  ISO  4   6 100  11 100  50 101  51 101
M  END
>  <TORSDO>  (50) 
F 20

>  <SCORE>  (50) 
-6.839

>  <name>  (50) 
49

>  <ligand_id>  (50) 
49

>  <original_smiles>  (50) 
[H]c1c([H])c([H])c2c(c1[H])C([H])([H])C([H])([H])C([H])([H])C2([H])N([H])C(=O)C1([H])N(C(=O)C([H])(N([H])C(=O)C([H])(N([H])C([H])([H])[H])C([H])([H])[H])C(C([H])([H])[H])(C([H])([H])[H])C([H])([H])[H])C([H])([H])c2c([H])c(OC([H])([H])C([H])([H])C([H])([H])C([H])([H])n3c([H])c(C([H])([H])[H])c4c([H])c(C(=O)N5C([H])([H])C([H])([H])C([H])([H])C([H])(n6nc(-c7c([H])c([H])c(Oc8c([H])c([H])c(F)c([H])c8F)c([H])c7[H])c(C(=O)N([H])[H])c6N([H])[H])C5([H])[H])c([H])c([H])c43)c([H])c([H])c2C1([H])[H]

>  <smiles>  (50) 
[H]c1c([H])c([H])c2c(c1[H])C([H])([H])C([H])([H])C([H])([H])C2([H])N([H])C(=O)C1([H])N(C(=O)C([H])(N([H])C(=O)C([H])(N([H])C([H])([H])[H])C([H])([H])[H])C(C([H])([H])[H])(C([H])([H])[H])C([H])([H])[H])C([H])([H])c2c([H])c(OC([H])([H])C([H])([H])C([H])([H])C([H])([H])n3c([H])c(C([H])([H])[H])c4c([H])c(C(=O)N5C([H])([H])C([H])([H])C([H])([H])C([H])(n6nc(-c7c([H])c([H])c(Oc8c([H])c([H])c(F)c([H])c8F)c([H])c7[H])c(C(=O)N([H])[H])c6N([H])[H])C5([H])[H])c([H])c([H])c43)c([H])c([H])c2C1([H])[H]

$$$$
50:0:0
     RDKit          3D

 93103  0  0  1  0  0  0  0  0999 V2000
  -30.1160  -20.1670   20.4950 C   0  0  0  0  0  0  0  0  0  0  0  0
  -30.4020  -21.4970   20.6870 N   0  0  0  0  0  0  0  0  0  0  0  0
  -29.0830  -19.8020   19.9060 O   0  0  0  0  0  0  0  0  0  0  0  0
  -31.2790  -21.6060   21.1790 H   0  0  0  0  0  0  0  0  0  0  0  0
  -30.8600  -17.8520   23.4170 C   0  0  0  0  0  2  0  0  0  0  0  0
  -29.1590  -17.8250   22.3680 C   0  0  0  0  0  2  0  0  0  0  0  0
  -31.2100  -17.5230   20.8440 C   0  0  0  0  0  3  0  0  0  0  0  0
  -31.0420  -19.1000   21.2320 C   0  0  0  0  0  3  0  0  0  0  0  0
  -30.4610  -17.0350   22.1370 C   0  0  2  0  0  0  0  0  0  0  0  0
  -30.2420  -18.9030   22.5300 C   0  0  1  0  0  0  0  0  0  0  0  0
  -33.0770  -15.7210   19.8530 C   0  0  0  0  0  3  0  0  0  0  0  0
  -32.5840  -16.6870   20.7350 C   0  0  0  0  0  0  0  0  0  0  0  0
  -33.5670  -16.9550   21.9270 C   0  0  0  0  0  1  0  0  0  0  0  0
  -32.7580  -15.0300   18.5530 C   0  0  0  0  0  0  0  0  0  0  0  0
  -31.9400  -12.8800   17.4710 C   0  0  0  0  0  2  0  0  0  0  0  0
  -30.6370  -12.8900   16.6350 C   0  0  0  0  0  2  0  0  0  0  0  0
  -29.4260  -12.7980   17.5660 C   0  0  0  0  0  2  0  0  0  0  0  0
  -29.5160  -13.8330   18.7220 C   0  0  0  0  0  3  0  0  0  0  0  0
  -30.8490  -13.6690   19.4930 C   0  0  0  0  0  2  0  0  0  0  0  0
  -31.9600  -13.9060   18.5510 N   0  0  0  0  0  0  0  0  0  0  0  0
  -33.4510  -15.2600   17.5470 O   0  0  0  0  0  0  0  0  0  0  0  0
  -27.8140  -14.6990   20.4470 C   0  0  0  0  0  0  0  0  0  0  0  0
  -26.7070  -14.1070   21.0090 C   0  0  0  0  0  0  0  0  0  0  0  0
  -26.6280  -12.7930   20.4650 C   0  0  0  0  0  0  0  0  0  0  0  0
  -28.3700  -13.7290   19.6190 N   0  0  0  0  0  0  0  0  0  0  0  0
  -27.6660  -12.5680   19.6700 N   0  0  0  0  0  0  0  0  0  0  0  0
  -25.5960  -11.7500   20.6150 C   0  0  0  0  0  0  0  0  0  0  0  0
  -25.9020  -10.4670   21.1260 C   0  0  0  0  0  3  0  0  0  0  0  0
  -24.8840   -9.4830   21.2220 C   0  0  0  0  0  3  0  0  0  0  0  0
  -23.5600   -9.7910   20.8490 C   0  0  0  0  0  0  0  0  0  0  0  0
  -23.2780  -11.0450   20.3030 C   0  0  0  0  0  3  0  0  0  0  0  0
  -24.2870  -12.0110   20.1700 C   0  0  0  0  0  3  0  0  0  0  0  0
  -22.5090   -8.9060   20.9240 O   0  0  0  0  0  0  0  0  0  0  0  0
  -22.3860   -8.0170   21.9650 C   0  0  0  0  0  0  0  0  0  0  0  0
  -22.3700   -8.4360   23.3160 C   0  0  0  0  0  3  0  0  0  0  0  0
  -22.1870   -7.4950   24.3440 C   0  0  0  0  0  3  0  0  0  0  0  0
  -22.0120   -6.1340   24.0380 C   0  0  0  0  0  0  0  0  0  0  0  0
  -22.0490   -5.7120   22.6960 C   0  0  0  0  0  3  0  0  0  0  0  0
  -22.2450   -6.6470   21.6670 C   0  0  0  0  0  0  0  0  0  0  0  0
  -22.2570   -6.2280   20.3750 F   0  0  0  0  0  0  0  0  0  0  0  0
  -21.8400   -5.2320   25.0300 F   0  0  0  0  0  0  0  0  0  0  0  0
  -25.7050  -14.7680   21.9060 C   0  0  0  0  0  0  0  0  0  0  0  0
  -25.1540  -14.0300   22.8680 N   0  0  0  0  0  0  0  0  0  0  0  0
  -25.4350  -15.9610   21.8120 O   0  0  0  0  0  0  0  0  0  0  0  0
  -25.4340  -13.0730   23.0430 H   0  0  0  0  0  0  0  0  0  0  0  0
  -24.4960  -14.5060   23.4800 H   0  0  0  0  0  0  0  0  0  0  0  0
  -28.3910  -15.9550   20.5690 N   0  0  0  0  0  0  0  0  0  0  0  0
  -29.3790  -16.0640   20.3460 H   0  0  0  0  0  0  0  0  0  0  0  0
  -28.0500  -16.7220   21.1390 H   0  0  0  0  0  0  0  0  0  0  0  0
  -29.4630  -22.6760   20.7870 C   0  0  0  0  0  2  0  0  0  0  0  0
  -29.9740  -24.1470   20.4570 C   0  0  0  0  0  2  0  0  0  0  0  0
  -28.7770  -25.0810   20.0550 C   0  0  0  0  0  2  0  0  0  0  0  0
  -28.9640  -26.4030   19.4560 O   0  0  0  0  0  0  0  0  0  0  0  0
  -24.7650  -31.0910   22.8050 C   0  0  0  0  0  0  0  0  0  0  0  0
  -27.7680  -27.1240   19.4080 C   0  0  0  0  0  0  0  0  0  0  0  0
  -23.6540  -29.6600   21.1120 C   0  0  0  0  0  3  0  0  0  0  0  0
  -25.2290  -28.4080   19.5290 C   0  0  0  0  0  0  0  0  0  0  0  0
  -26.1210  -30.3170   20.8570 C   0  0  0  0  0  2  0  0  0  0  0  0
  -26.3410  -29.0060   20.1380 C   0  0  0  0  0  0  0  0  0  0  0  0
  -27.6170  -28.3760   20.0710 C   0  0  0  0  0  3  0  0  0  0  0  0
  -26.6330  -26.5970   18.7350 C   0  0  0  0  0  3  0  0  0  0  0  0
  -25.3720  -27.2110   18.8170 C   0  0  0  0  0  3  0  0  0  0  0  0
  -23.8920  -29.1050   19.6840 C   0  0  0  0  0  2  0  0  0  0  0  0
  -24.8650  -30.3680   21.6500 N   0  0  0  0  0  0  0  0  0  0  0  0
  -23.6770  -31.1990   23.3920 O   0  0  0  0  0  0  0  0  0  0  0  0
  -23.1720  -28.5080   22.0270 C   0  0  0  0  0  0  0  0  0  0  0  0
  -21.9040  -28.1020   21.8600 N   0  0  0  0  0  0  0  0  0  0  0  0
  -23.9350  -27.9850   22.8430 O   0  0  0  0  0  0  0  0  0  0  0  0
  -21.3460  -28.5860   21.1740 H   0  0  0  0  0  0  0  0  0  0  0  0
  -18.8190  -26.2410   22.1410 C   0  0  0  0  0  0  0  0  0  0  0  0
  -21.2420  -27.0210   22.5880 C   0  0  0  0  0  3  0  0  0  0  0  0
  -21.6820  -25.6450   22.0430 C   0  0  0  0  0  2  0  0  0  0  0  0
  -20.7400  -25.0970   20.9610 C   0  0  0  0  0  2  0  0  0  0  0  0
  -19.3120  -24.9580   21.5050 C   0  0  0  0  0  2  0  0  0  0  0  0
  -19.7240  -27.2150   22.6370 C   0  0  0  0  0  0  0  0  0  0  0  0
  -19.2110  -28.4060   23.1930 C   0  0  0  0  0  3  0  0  0  0  0  0
  -17.8240  -28.6300   23.2610 C   0  0  0  0  0  3  0  0  0  0  0  0
  -16.9300  -27.6510   22.7810 C   0  0  0  0  0  3  0  0  0  0  0  0
  -17.4300  -26.4580   22.2270 C   0  0  0  0  0  3  0  0  0  0  0  0
  -25.9910  -31.8430   23.4110 C   0  0  0  0  0  3  0  0  0  0  0  0
  -25.5300  -33.1630   23.8500 N   0  0  0  0  0  0  0  0  0  0  0  0
  -25.7990  -34.3070   23.2140 C   0  0  0  0  0  0  0  0  0  0  0  0
  -26.5300  -34.3720   22.2240 O   0  0  0  0  0  0  0  0  0  0  0  0
  -24.8950  -33.1820   24.6310 H   0  0  0  0  0  0  0  0  0  0  0  0
  -23.9500  -35.9850   22.8920 C   0  0  0  0  0  1  0  0  0  0  0  0
  -25.1540  -35.5930   23.7670 C   0  0  0  0  0  3  0  0  0  0  0  0
  -27.1280  -36.5460   24.8640 C   0  0  0  0  0  1  0  0  0  0  0  0
  -26.0880  -36.7350   23.8580 N   0  0  0  0  0  0  0  0  0  0  0  0
  -25.5920  -37.5950   24.0740 H   0  0  0  0  0  0  0  0  0  0  0  0
  -26.6590  -31.0540   24.5990 C   0  0  1  0  0  0  0  0  0  0  0  0
  -25.6590  -30.6070   25.6920 C   0  0  0  0  0  1  0  0  0  0  0  0
  -27.3990  -29.7960   24.0830 C   0  0  0  0  0  1  0  0  0  0  0  0
  -27.7260  -31.9450   25.2790 C   0  0  0  0  0  1  0  0  0  0  0  0
  1  2  1  0
  2 50  1  0
  2  4  1  0
  3  1  2  0
  7 12  1  0
  7  8  1  0
  7  9  1  0
  8  1  1  0
  8 10  1  0
  9  6  1  1
  9 10  1  0
  9  5  1  0
 10  6  1  1
 10  5  1  0
 11 12  2  0
 12 13  1  0
 14 11  1  0
 15 20  1  0
 16 15  1  0
 16 17  1  0
 18 17  1  0
 18 19  1  0
 18 25  1  0
 20 14  1  0
 20 19  1  0
 21 14  2  0
 22 47  1  0
 22 23  2  0
 23 42  1  0
 24 27  1  0
 24 23  1  0
 25 26  1  0
 25 22  1  0
 26 24  2  0
 27 28  1  0
 28 29  2  0
 30 33  1  0
 30 29  1  0
 31 30  2  0
 32 31  1  0
 32 27  2  0
 33 34  1  0
 34 35  1  0
 35 36  2  0
 37 36  1  0
 37 41  1  0
 38 37  2  0
 39 34  2  0
 39 38  1  0
 40 39  1  0
 42 43  1  0
 43 45  1  0
 43 46  1  0
 44 42  2  0
 47 49  1  0
 48 47  1  0
 51 50  1  0
 52 51  1  0
 53 52  1  0
 54 65  2  0
 55 53  1  0
 55 60  1  0
 56 64  1  0
 56 66  1  0
 57 63  1  0
 57 59  1  0
 58 64  1  0
 59 58  1  0
 60 59  2  0
 61 62  1  0
 61 55  2  0
 62 57  2  0
 63 56  1  0
 64 54  1  0
 66 68  2  0
 67 66  1  0
 69 67  1  0
 70 79  2  0
 70 75  1  0
 71 67  1  0
 71 75  1  0
 72 71  1  0
 73 74  1  0
 73 72  1  0
 74 70  1  0
 75 76  2  0
 76 77  1  0
 78 77  2  0
 79 78  1  0
 80 54  1  0
 80 81  1  0
 80 90  1  0
 81 84  1  0
 82 86  1  0
 82 81  1  0
 83 82  2  0
 86 85  1  0
 86 88  1  0
 88 89  1  0
 88 87  1  0
 90 93  1  1
 90 91  1  0
 92 90  1  0
M  ISO  4  11 100  14 100  52 101  53 101
M  END
>  <TORSDO>  (51) 
F 21

>  <SCORE>  (51) 
2.826

>  <name>  (51) 
50

>  <ligand_id>  (51) 
50

>  <original_smiles>  (51) 
[H]C(C(=O)N1C([H])([H])C([H])([H])C([H])([H])C([H])(n2nc(-c3c([H])c([H])c(Oc4c([H])c([H])c(F)c([H])c4F)c([H])c3[H])c(C(=O)N([H])[H])c2N([H])[H])C1([H])[H])=C(C([H])([H])[H])C1([H])C([H])(C(=O)N([H])C([H])([H])C([H])([H])C([H])([H])Oc2c([H])c([H])c3c(c2[H])C([H])([H])N(C(=O)C([H])(N([H])C(=O)C([H])(N([H])C([H])([H])[H])C([H])([H])[H])C(C([H])([H])[H])(C([H])([H])[H])C([H])([H])[H])C([H])(C(=O)N([H])C2([H])c4c([H])c([H])c([H])c([H])c4C([H])([H])C([H])([H])C2([H])[H])C3([H])[H])C2([H])C([H])([H])C1([H])C2([H])[H]

>  <smiles>  (51) 
[H]C(C(=O)N1C([H])([H])C([H])([H])C([H])([H])C([H])(n2nc(-c3c([H])c([H])c(Oc4c([H])c([H])c(F)c([H])c4F)c([H])c3[H])c(C(=O)N([H])[H])c2N([H])[H])C1([H])[H])=C(C([H])([H])[H])C1([H])C([H])(C(=O)N([H])C([H])([H])C([H])([H])C([H])([H])Oc2c([H])c([H])c3c(c2[H])C([H])([H])N(C(=O)C([H])(N([H])C(=O)C([H])(N([H])C([H])([H])[H])C([H])([H])[H])C(C([H])([H])[H])(C([H])([H])[H])C([H])([H])[H])C([H])(C(=O)N([H])C2([H])c4c([H])c([H])c([H])c([H])c4C([H])([H])C([H])([H])C2([H])[H])C3([H])[H])C2([H])C([H])([H])C1([H])C2([H])[H]

$$$$
51:0:0
     RDKit          3D

 93102  0  0  1  0  0  0  0  0999 V2000
  -30.0520  -20.2280   20.0020 C   0  0  0  0  0  0  0  0  0  0  0  0
  -29.3040  -21.3770   20.0740 N   0  0  0  0  0  0  0  0  0  0  0  0
  -30.9310  -20.0780   19.1530 O   0  0  0  0  0  0  0  0  0  0  0  0
  -28.5740  -21.3840   20.7760 H   0  0  0  0  0  0  0  0  0  0  0  0
  -32.6500  -19.1580   21.8430 C   0  0  0  0  0  2  0  0  0  0  0  0
  -32.9140  -18.1690   20.6830 C   0  0  0  0  0  2  0  0  0  0  0  0
  -30.0520  -19.6630   22.4630 C   0  0  0  0  0  2  0  0  0  0  0  0
  -29.7430  -19.1110   21.0640 C   0  0  0  0  0  3  0  0  0  0  0  0
  -31.2930  -18.7740   22.4700 C   0  0  0  0  0  3  0  0  0  0  0  0
  -31.7370  -17.2000   20.7890 C   0  0  0  0  0  3  0  0  0  0  0  0
  -30.6250  -17.9390   21.4800 N   0  0  2  0  0  4  0  0  0  0  0  0
  -30.0280  -17.2820   21.9600 H   0  0  0  0  0  0  0  0  0  0  0  0
  -31.4020  -16.1530   19.6730 C   0  0  0  0  0  2  0  0  0  0  0  0
  -32.0990  -14.7350   19.7050 C   0  0  0  0  0  0  0  0  0  0  0  0
  -31.6410  -12.4620   18.8400 C   0  0  0  0  0  2  0  0  0  0  0  0
  -30.6640  -12.5990   17.6510 C   0  0  0  0  0  2  0  0  0  0  0  0
  -29.2020  -12.5780   18.1430 C   0  0  0  0  0  2  0  0  0  0  0  0
  -28.9600  -13.5430   19.3320 C   0  0  0  0  0  3  0  0  0  0  0  0
  -30.0610  -13.4260   20.4100 C   0  0  0  0  0  2  0  0  0  0  0  0
  -31.3680  -13.5800   19.7630 N   0  0  0  0  0  0  0  0  0  0  0  0
  -33.2850  -14.7060   19.3690 O   0  0  0  0  0  0  0  0  0  0  0  0
  -26.7100  -14.3820   20.2390 C   0  0  0  0  0  0  0  0  0  0  0  0
  -25.5910  -13.7220   20.6650 C   0  0  0  0  0  0  0  0  0  0  0  0
  -25.8950  -12.3280   20.5680 C   0  0  0  0  0  0  0  0  0  0  0  0
  -27.6270  -13.3990   19.9050 N   0  0  0  0  0  0  0  0  0  0  0  0
  -27.1490  -12.1560   20.1680 N   0  0  0  0  0  0  0  0  0  0  0  0
  -25.0480  -11.1480   20.7720 C   0  0  0  0  0  0  0  0  0  0  0  0
  -25.3350  -10.1950   21.7730 C   0  0  0  0  0  3  0  0  0  0  0  0
  -24.4930   -9.0780   21.9620 C   0  0  0  0  0  3  0  0  0  0  0  0
  -23.3490   -8.9070   21.1470 C   0  0  0  0  0  0  0  0  0  0  0  0
  -23.0800   -9.8470   20.1360 C   0  0  0  0  0  3  0  0  0  0  0  0
  -23.9220  -10.9550   19.9470 C   0  0  0  0  0  3  0  0  0  0  0  0
  -22.4880   -7.8390   21.2410 O   0  0  0  0  0  0  0  0  0  0  0  0
  -22.2050   -7.2480   22.4450 C   0  0  0  0  0  0  0  0  0  0  0  0
  -21.6390   -7.9730   23.5180 C   0  0  0  0  0  3  0  0  0  0  0  0
  -21.2990   -7.3100   24.7140 C   0  0  0  0  0  3  0  0  0  0  0  0
  -21.5150   -5.9250   24.8370 C   0  0  0  0  0  0  0  0  0  0  0  0
  -22.0730   -5.2000   23.7690 C   0  0  0  0  0  3  0  0  0  0  0  0
  -22.4140   -5.8600   22.5750 C   0  0  0  0  0  0  0  0  0  0  0  0
  -22.9320   -5.1540   21.5420 F   0  0  0  0  0  0  0  0  0  0  0  0
  -21.1810   -5.2860   25.9820 F   0  0  0  0  0  0  0  0  0  0  0  0
  -24.2740  -14.3400   21.0340 C   0  0  0  0  0  0  0  0  0  0  0  0
  -23.5390  -13.7200   21.9500 N   0  0  0  0  0  0  0  0  0  0  0  0
  -23.9110  -15.4080   20.5430 O   0  0  0  0  0  0  0  0  0  0  0  0
  -23.8470  -12.8560   22.3710 H   0  0  0  0  0  0  0  0  0  0  0  0
  -22.6570  -14.1190   22.2370 H   0  0  0  0  0  0  0  0  0  0  0  0
  -27.0140  -15.7330   20.0800 N   0  0  0  0  0  0  0  0  0  0  0  0
  -26.2680  -16.4160   20.1600 H   0  0  0  0  0  0  0  0  0  0  0  0
  -27.7620  -16.0440   19.4750 H   0  0  0  0  0  0  0  0  0  0  0  0
  -29.5370  -22.6740   19.3690 C   0  0  0  0  0  2  0  0  0  0  0  0
  -28.3060  -23.6480   19.1190 C   0  0  0  0  0  2  0  0  0  0  0  0
  -28.1080  -24.9190   20.0350 C   0  0  0  0  0  2  0  0  0  0  0  0
  -28.1330  -26.2280   19.3730 O   0  0  0  0  0  0  0  0  0  0  0  0
  -24.7430  -31.4390   22.9730 C   0  0  0  0  0  0  0  0  0  0  0  0
  -27.0170  -27.0470   19.4970 C   0  0  0  0  0  0  0  0  0  0  0  0
  -23.3890  -30.1760   21.3340 C   0  0  0  0  0  3  0  0  0  0  0  0
  -24.6980  -28.6740   19.7330 C   0  0  0  0  0  0  0  0  0  0  0  0
  -25.9140  -30.4550   20.9950 C   0  0  0  0  0  2  0  0  0  0  0  0
  -25.9130  -29.1180   20.2690 C   0  0  0  0  0  0  0  0  0  0  0  0
  -27.0810  -28.3190   20.1330 C   0  0  0  0  0  3  0  0  0  0  0  0
  -25.7820  -26.6320   18.9570 C   0  0  0  0  0  3  0  0  0  0  0  0
  -24.6300  -27.4360   19.0690 C   0  0  0  0  0  3  0  0  0  0  0  0
  -23.4930  -29.5740   19.9080 C   0  0  0  0  0  2  0  0  0  0  0  0
  -24.7050  -30.7010   21.8260 N   0  0  0  0  0  0  0  0  0  0  0  0
  -23.7060  -31.7160   23.5940 O   0  0  0  0  0  0  0  0  0  0  0  0
  -22.7580  -29.1240   22.2780 C   0  0  0  0  0  0  0  0  0  0  0  0
  -21.4280  -28.9520   22.1860 N   0  0  0  0  0  0  0  0  0  0  0  0
  -23.4600  -28.4680   23.0500 O   0  0  0  0  0  0  0  0  0  0  0  0
  -20.9200  -29.5360   21.5350 H   0  0  0  0  0  0  0  0  0  0  0  0
  -18.0770  -27.6870   22.6820 C   0  0  0  0  0  0  0  0  0  0  0  0
  -20.6310  -27.9870   22.9440 C   0  0  0  0  0  3  0  0  0  0  0  0
  -20.7560  -26.5680   22.3430 C   0  0  0  0  0  2  0  0  0  0  0  0
  -19.6550  -26.2440   21.3280 C   0  0  0  0  0  2  0  0  0  0  0  0
  -18.2740  -26.3540   21.9820 C   0  0  0  0  0  2  0  0  0  0  0  0
  -19.1840  -28.4610   23.1190 C   0  0  0  0  0  0  0  0  0  0  0  0
  -18.9460  -29.7100   23.7360 C   0  0  0  0  0  3  0  0  0  0  0  0
  -17.6340  -30.1850   23.9150 C   0  0  0  0  0  3  0  0  0  0  0  0
  -16.5410  -29.4080   23.4940 C   0  0  0  0  0  3  0  0  0  0  0  0
  -16.7620  -28.1600   22.8840 C   0  0  0  0  0  3  0  0  0  0  0  0
  -26.0840  -31.9930   23.5470 C   0  0  0  0  0  3  0  0  0  0  0  0
  -25.8360  -33.3640   24.0150 N   0  0  0  0  0  0  0  0  0  0  0  0
  -26.1740  -34.4710   23.3390 C   0  0  0  0  0  0  0  0  0  0  0  0
  -26.7970  -34.4400   22.2740 O   0  0  0  0  0  0  0  0  0  0  0  0
  -25.2830  -33.4650   24.8530 H   0  0  0  0  0  0  0  0  0  0  0  0
  -24.4980  -36.3410   23.2180 C   0  0  0  0  0  1  0  0  0  0  0  0
  -25.7550  -35.8260   23.9390 C   0  0  0  0  0  3  0  0  0  0  0  0
  -27.9460  -36.5640   24.7640 C   0  0  0  0  0  1  0  0  0  0  0  0
  -26.8200  -36.8500   23.8800 N   0  0  0  0  0  0  0  0  0  0  0  0
  -26.4530  -37.7660   24.1230 H   0  0  0  0  0  0  0  0  0  0  0  0
  -26.6770  -31.1070   24.7110 C   0  0  1  0  0  0  0  0  0  0  0  0
  -25.6590  -30.7970   25.8320 C   0  0  0  0  0  1  0  0  0  0  0  0
  -27.1980  -29.7590   24.1600 C   0  0  0  0  0  1  0  0  0  0  0  0
  -27.8940  -31.8210   25.3450 C   0  0  0  0  0  1  0  0  0  0  0  0
  1  2  1  0
  2  4  1  0
  3  1  2  0
  6 10  1  0
  6  5  1  0
  7  9  1  0
  8  1  1  0
  8 11  1  0
  8  7  1  0
  9  5  1  0
 10 13  1  0
 10 11  1  0
 11 12  1  1
 11  9  1  0
 13 14  1  0
 14 20  1  0
 15 20  1  0
 16 17  1  0
 16 15  1  0
 18 17  1  0
 18 25  1  0
 18 19  1  0
 20 19  1  0
 21 14  2  0
 22 23  2  0
 23 42  1  0
 24 23  1  0
 24 27  1  0
 25 26  1  0
 25 22  1  0
 26 24  2  0
 27 28  1  0
 28 29  2  0
 30 33  1  0
 30 29  1  0
 31 30  2  0
 32 31  1  0
 32 27  2  0
 33 34  1  0
 34 39  2  0
 34 35  1  0
 35 36  2  0
 36 37  1  0
 37 41  1  0
 38 37  2  0
 39 38  1  0
 40 39  1  0
 42 43  1  0
 43 46  1  0
 43 45  1  0
 44 42  2  0
 47 48  1  0
 47 22  1  0
 49 47  1  0
 50  2  1  0
 51 50  1  0
 51 52  1  0
 53 55  1  0
 53 52  1  0
 54 65  2  0
 55 60  1  0
 56 64  1  0
 56 66  1  0
 57 63  1  0
 57 59  1  0
 58 64  1  0
 59 58  1  0
 60 59  2  0
 61 62  1  0
 61 55  2  0
 62 57  2  0
 63 56  1  0
 64 54  1  0
 66 68  2  0
 67 66  1  0
 69 67  1  0
 70 79  2  0
 70 75  1  0
 71 67  1  0
 71 75  1  0
 72 71  1  0
 73 74  1  0
 73 72  1  0
 74 70  1  0
 75 76  2  0
 76 77  1  0
 78 77  2  0
 79 78  1  0
 80 54  1  0
 80 81  1  0
 80 90  1  0
 81 84  1  0
 82 86  1  0
 82 81  1  0
 83 82  2  0
 86 85  1  0
 88 86  1  0
 88 89  1  0
 88 87  1  0
 90 93  1  1
 90 91  1  0
 92 90  1  0
M  ISO  4  13 100  14 100  52 101  53 101
M  END
>  <TORSDO>  (52) 
F 21

>  <SCORE>  (52) 
-10.136

>  <name>  (52) 
51

>  <ligand_id>  (52) 
51

>  <original_smiles>  (52) 
[H]c1c([H])c([H])c2c(c1[H])C([H])([H])C([H])([H])C([H])([H])C2([H])N([H])C(=O)C1([H])N(C(=O)C([H])(N([H])C(=O)C([H])(N([H])C([H])([H])[H])C([H])([H])[H])C(C([H])([H])[H])(C([H])([H])[H])C([H])([H])[H])C([H])([H])c2c([H])c(OC([H])([H])C([H])([H])C([H])([H])N([H])C(=O)C3([H])C([H])([H])C4([H])C([H])([H])C([H])([H])C([H])(C([H])([H])C(=O)N5C([H])([H])C([H])([H])C([H])([H])C([H])(n6nc(-c7c([H])c([H])c(Oc8c([H])c([H])c(F)c([H])c8F)c([H])c7[H])c(C(=O)N([H])[H])c6N([H])[H])C5([H])[H])[N+]34[H])c([H])c([H])c2C1([H])[H]

>  <smiles>  (52) 
[H]c1c([H])c([H])c2c(c1[H])C([H])([H])C([H])([H])C([H])([H])C2([H])N([H])C(=O)C1([H])N(C(=O)C([H])(N([H])C(=O)C([H])(N([H])C([H])([H])[H])C([H])([H])[H])C(C([H])([H])[H])(C([H])([H])[H])C([H])([H])[H])C([H])([H])c2c([H])c(OC([H])([H])C([H])([H])C([H])([H])N([H])C(=O)C3([H])C([H])([H])C4([H])C([H])([H])C([H])([H])C([H])(C([H])([H])C(=O)N5C([H])([H])C([H])([H])C([H])([H])C([H])(n6nc(-c7c([H])c([H])c(Oc8c([H])c([H])c(F)c([H])c8F)c([H])c7[H])c(C(=O)N([H])[H])c6N([H])[H])C5([H])[H])[N+]34[H])c([H])c([H])c2C1([H])[H]

$$$$
52:0:0
     RDKit          3D

 86 94  0  0  1  0  0  0  0  0999 V2000
  -28.6320  -21.7170   20.0970 C   0  0  0  0  0  2  0  0  0  0  0  0
  -29.9430  -19.2640   20.9900 C   0  0  0  0  0  0  0  0  0  0  0  0
  -29.2340  -19.0200   19.0800 C   0  0  0  0  0  2  0  0  0  0  0  0
  -30.1710  -18.0470   19.9460 C   0  0  0  0  0  3  0  0  0  0  0  0
  -29.6350  -20.3740   19.8510 C   0  0  0  0  0  3  0  0  0  0  0  0
  -29.9110  -19.3060   22.2200 O   0  0  0  0  0  0  0  0  0  0  0  0
  -29.8870  -16.4420   20.3970 C   0  0  0  0  0  2  0  0  0  0  0  0
  -30.7330  -15.0670   19.9850 C   0  0  0  0  0  0  0  0  0  0  0  0
  -30.5820  -12.7500   18.9450 C   0  0  0  0  0  2  0  0  0  0  0  0
  -29.5650  -12.7770   17.7760 C   0  0  0  0  0  2  0  0  0  0  0  0
  -28.1300  -12.5470   18.2880 C   0  0  0  0  0  2  0  0  0  0  0  0
  -27.8060  -13.4110   19.5320 C   0  0  0  0  0  3  0  0  0  0  0  0
  -28.9310  -13.3570   20.5860 C   0  0  0  0  0  2  0  0  0  0  0  0
  -30.1730  -13.7880   19.9340 N   0  0  0  0  0  0  0  0  0  0  0  0
  -31.8980  -15.1700   19.5850 O   0  0  0  0  0  0  0  0  0  0  0  0
  -25.4770  -13.9620   20.4440 C   0  0  0  0  0  0  0  0  0  0  0  0
  -24.4370  -13.1720   20.8510 C   0  0  0  0  0  0  0  0  0  0  0  0
  -24.8960  -11.8250   20.7380 C   0  0  0  0  0  0  0  0  0  0  0  0
  -26.5010  -13.0940   20.1030 N   0  0  0  0  0  0  0  0  0  0  0  0
  -26.1640  -11.8000   20.3450 N   0  0  0  0  0  0  0  0  0  0  0  0
  -24.1800  -10.5550   20.9240 C   0  0  0  0  0  0  0  0  0  0  0  0
  -24.5910   -9.6090   21.8880 C   0  0  0  0  0  3  0  0  0  0  0  0
  -23.8740   -8.4050   22.0620 C   0  0  0  0  0  3  0  0  0  0  0  0
  -22.7310   -8.1400   21.2710 C   0  0  0  0  0  0  0  0  0  0  0  0
  -22.3390   -9.0760   20.2970 C   0  0  0  0  0  3  0  0  0  0  0  0
  -23.0570  -10.2700   20.1210 C   0  0  0  0  0  3  0  0  0  0  0  0
  -21.9870   -6.9870   21.3510 O   0  0  0  0  0  0  0  0  0  0  0  0
  -21.7960   -6.3360   22.5440 C   0  0  0  0  0  0  0  0  0  0  0  0
  -21.1850   -6.9680   23.6480 C   0  0  0  0  0  3  0  0  0  0  0  0
  -20.9450   -6.2410   24.8310 C   0  0  0  0  0  3  0  0  0  0  0  0
  -21.3060   -4.8830   24.9100 C   0  0  0  0  0  0  0  0  0  0  0  0
  -21.9100   -4.2500   23.8090 C   0  0  0  0  0  3  0  0  0  0  0  0
  -22.1510   -4.9740   22.6280 C   0  0  0  0  0  0  0  0  0  0  0  0
  -22.7140   -4.3540   21.5630 F   0  0  0  0  0  0  0  0  0  0  0  0
  -21.0690   -4.1820   26.0430 F   0  0  0  0  0  0  0  0  0  0  0  0
  -23.0610  -13.6380   21.2270 C   0  0  0  0  0  0  0  0  0  0  0  0
  -22.3890  -12.9130   22.1140 N   0  0  0  0  0  0  0  0  0  0  0  0
  -22.5920  -14.6810   20.7710 O   0  0  0  0  0  0  0  0  0  0  0  0
  -22.7820  -12.0690   22.5040 H   0  0  0  0  0  0  0  0  0  0  0  0
  -21.4680  -13.2060   22.4090 H   0  0  0  0  0  0  0  0  0  0  0  0
  -25.6320  -15.3390   20.3130 N   0  0  0  0  0  0  0  0  0  0  0  0
  -24.8750  -15.9870   20.5030 H   0  0  0  0  0  0  0  0  0  0  0  0
  -26.4590  -15.7940   19.9470 H   0  0  0  0  0  0  0  0  0  0  0  0
  -29.0780  -23.3530   20.1330 C   0  0  0  0  0  3  0  0  0  0  0  0
  -28.0140  -24.6690   20.0290 C   0  0  0  0  0  3  0  0  0  0  0  0
  -28.2940  -26.2010   20.1690 O   0  0  0  0  0  0  0  0  0  0  0  0
  -24.6460  -31.8370   23.2420 C   0  0  0  0  0  0  0  0  0  0  0  0
  -27.2350  -27.1850   20.1230 C   0  0  0  0  0  0  0  0  0  0  0  0
  -23.4500  -30.4720   21.5750 C   0  0  0  0  0  3  0  0  0  0  0  0
  -24.9020  -28.9280   20.1220 C   0  0  0  0  0  0  0  0  0  0  0  0
  -26.0040  -30.7440   21.4180 C   0  0  0  0  0  2  0  0  0  0  0  0
  -26.0800  -29.3650   20.7390 C   0  0  0  0  0  0  0  0  0  0  0  0
  -27.2470  -28.5100   20.7200 C   0  0  0  0  0  3  0  0  0  0  0  0
  -26.0250  -26.8510   19.4710 C   0  0  0  0  0  3  0  0  0  0  0  0
  -24.8880  -27.6850   19.4720 C   0  0  0  0  0  3  0  0  0  0  0  0
  -23.6730  -29.8230   20.1840 C   0  0  0  0  0  2  0  0  0  0  0  0
  -24.7200  -31.0390   22.1340 N   0  0  0  0  0  0  0  0  0  0  0  0
  -23.5580  -32.1100   23.7750 O   0  0  0  0  0  0  0  0  0  0  0  0
  -22.7700  -29.4450   22.5180 C   0  0  0  0  0  0  0  0  0  0  0  0
  -21.4510  -29.2400   22.3520 N   0  0  0  0  0  0  0  0  0  0  0  0
  -23.4350  -28.8360   23.3600 O   0  0  0  0  0  0  0  0  0  0  0  0
  -20.9720  -29.7840   21.6500 H   0  0  0  0  0  0  0  0  0  0  0  0
  -18.0990  -27.9220   22.7310 C   0  0  0  0  0  0  0  0  0  0  0  0
  -20.6330  -28.2800   23.0990 C   0  0  0  0  0  3  0  0  0  0  0  0
  -20.8100  -26.8470   22.5460 C   0  0  0  0  0  2  0  0  0  0  0  0
  -19.7630  -26.4750   21.4910 C   0  0  0  0  0  2  0  0  0  0  0  0
  -18.3510  -26.5750   22.0770 C   0  0  0  0  0  2  0  0  0  0  0  0
  -19.1690  -28.7300   23.1970 C   0  0  0  0  0  0  0  0  0  0  0  0
  -18.8790  -29.9870   23.7690 C   0  0  0  0  0  3  0  0  0  0  0  0
  -17.5510  -30.4390   23.8790 C   0  0  0  0  0  3  0  0  0  0  0  0
  -16.4940  -29.6300   23.4280 C   0  0  0  0  0  3  0  0  0  0  0  0
  -16.7680  -28.3720   22.8610 C   0  0  0  0  0  3  0  0  0  0  0  0
  -25.9220  -32.4620   23.8840 C   0  0  0  0  0  3  0  0  0  0  0  0
  -26.4130  -31.6870   25.1680 C   0  0  1  0  0  0  0  0  0  0  0  0
  -25.3030  -31.4600   26.2210 C   0  0  0  0  0  1  0  0  0  0  0  0
  -26.9910  -30.3050   24.7910 C   0  0  0  0  0  1  0  0  0  0  0  0
  -27.5610  -32.4740   25.8460 C   0  0  0  0  0  1  0  0  0  0  0  0
  -25.6170  -33.8620   24.2160 N   0  0  0  0  0  0  0  0  0  0  0  0
  -25.9360  -34.9170   23.4530 C   0  0  0  0  0  0  0  0  0  0  0  0
  -26.5840  -34.8120   22.4090 O   0  0  0  0  0  0  0  0  0  0  0  0
  -25.0380  -34.0170   25.0280 H   0  0  0  0  0  0  0  0  0  0  0  0
  -24.1920  -36.7070   23.1520 C   0  0  0  0  0  1  0  0  0  0  0  0
  -25.4610  -36.3080   23.9220 C   0  0  0  0  0  3  0  0  0  0  0  0
  -27.6170  -37.2070   24.6790 C   0  0  0  0  0  1  0  0  0  0  0  0
  -26.4860  -37.3620   23.7680 N   0  0  0  0  0  0  0  0  0  0  0  0
  -26.0820  -38.2830   23.9190 H   0  0  0  0  0  0  0  0  0  0  0  0
  1 44  1  0
  2  6  2  0
  3  5  1  0
  3  4  1  0
  4  7  1  0
  4  2  1  0
  5  1  1  0
  5  2  1  0
  8  7  1  0
  9 14  1  0
 10 11  1  0
 10  9  1  0
 12 11  1  0
 12 19  1  0
 12 13  1  0
 14  8  1  0
 14 13  1  0
 15  8  2  0
 16 17  2  0
 17 36  1  0
 18 17  1  0
 18 21  1  0
 19 20  1  0
 19 16  1  0
 20 18  2  0
 21 22  1  0
 22 23  2  0
 24 27  1  0
 24 23  1  0
 25 24  2  0
 26 25  1  0
 26 21  2  0
 27 28  1  0
 28 33  2  0
 28 29  1  0
 29 30  2  0
 30 31  1  0
 31 35  1  0
 32 31  2  0
 33 32  1  0
 34 33  1  0
 36 37  1  0
 37 40  1  0
 37 39  1  0
 38 36  2  0
 41 16  1  0
 41 42  1  0
 43 41  1  0
 45 44  2  0
 45 46  1  0
 47 58  2  0
 48 46  1  0
 48 53  1  0
 49 57  1  0
 49 59  1  0
 50 56  1  0
 50 52  1  0
 51 57  1  0
 52 51  1  0
 53 52  2  0
 54 55  1  0
 54 48  2  0
 55 50  2  0
 56 49  1  0
 57 47  1  0
 59 61  2  0
 60 59  1  0
 62 60  1  0
 63 72  2  0
 63 68  1  0
 64 60  1  0
 64 68  1  0
 65 64  1  0
 66 67  1  0
 66 65  1  0
 67 63  1  0
 68 69  2  0
 69 70  1  0
 71 70  2  0
 72 71  1  0
 73 47  1  0
 73 78  1  0
 73 74  1  0
 74 77  1  1
 74 75  1  0
 76 74  1  0
 78 81  1  0
 79 83  1  0
 79 78  1  0
 80 79  2  0
 83 82  1  0
 85 86  1  0
 85 83  1  0
 85 84  1  0
M  ISO  4   7 100   8 100  45 101  46 101
M  END
>  <TORSDO>  (53) 
F 20

>  <SCORE>  (53) 
-14.062

>  <name>  (53) 
52

>  <ligand_id>  (53) 
52

>  <original_smiles>  (53) 
[H]c1c([H])c([H])c2c(c1[H])C([H])([H])C([H])([H])C([H])([H])C2([H])N([H])C(=O)C1([H])N(C(=O)C([H])(N([H])C(=O)C([H])(N([H])C([H])([H])[H])C([H])([H])[H])C(C([H])([H])[H])(C([H])([H])[H])C([H])([H])[H])C([H])([H])c2c([H])c(OC([H])([H])C([H])([H])C([H])([H])C3([H])C(=O)C([H])(C([H])([H])C(=O)N4C([H])([H])C([H])([H])C([H])([H])C([H])(n5nc(-c6c([H])c([H])c(Oc7c([H])c([H])c(F)c([H])c7F)c([H])c6[H])c(C(=O)N([H])[H])c5N([H])[H])C4([H])[H])C3([H])[H])c([H])c([H])c2C1([H])[H]

>  <smiles>  (53) 
[H]c1c([H])c([H])c2c(c1[H])C([H])([H])C([H])([H])C([H])([H])C2([H])N([H])C(=O)C1([H])N(C(=O)C([H])(N([H])C(=O)C([H])(N([H])C([H])([H])[H])C([H])([H])[H])C(C([H])([H])[H])(C([H])([H])[H])C([H])([H])[H])C([H])([H])c2c([H])c(OC([H])([H])C([H])([H])C([H])([H])C3([H])C(=O)C([H])(C([H])([H])C(=O)N4C([H])([H])C([H])([H])C([H])([H])C([H])(n5nc(-c6c([H])c([H])c(Oc7c([H])c([H])c(F)c([H])c7F)c([H])c6[H])c(C(=O)N([H])[H])c5N([H])[H])C4([H])[H])C3([H])[H])c([H])c([H])c2C1([H])[H]

$$$$
53:0:0
     RDKit          3D

 93101  0  0  1  0  0  0  0  0999 V2000
  -29.1070  -19.9080   20.5360 C   0  0  0  0  0  3  0  0  0  0  0  0
  -31.9820  -19.4540   18.9510 C   0  0  0  0  0  2  0  0  0  0  0  0
  -32.3030  -19.6290   20.4370 C   0  0  0  0  0  2  0  0  0  0  0  0
  -30.7590  -18.5320   18.8790 C   0  0  0  0  0  2  0  0  0  0  0  0
  -31.3540  -18.6930   21.1880 C   0  0  0  0  0  2  0  0  0  0  0  0
  -30.1250  -18.4520   20.2830 C   0  0  1  0  0  0  0  0  0  0  0  0
  -29.6990  -16.7310   20.5150 C   0  0  0  0  0  2  0  0  0  0  0  0
  -30.5270  -15.2280   20.1940 C   0  0  0  0  0  0  0  0  0  0  0  0
  -30.4750  -12.8180   19.2470 C   0  0  0  0  0  2  0  0  0  0  0  0
  -29.5210  -12.7170   18.0310 C   0  0  0  0  0  2  0  0  0  0  0  0
  -28.0750  -12.4590   18.4850 C   0  0  0  0  0  2  0  0  0  0  0  0
  -27.6750  -13.3660   19.6760 C   0  0  0  0  0  3  0  0  0  0  0  0
  -28.7500  -13.4340   20.7800 C   0  0  0  0  0  2  0  0  0  0  0  0
  -29.9870  -13.9160   20.1540 N   0  0  0  0  0  0  0  0  0  0  0  0
  -31.7210  -15.2550   19.8630 O   0  0  0  0  0  0  0  0  0  0  0  0
  -25.3160  -13.9230   20.4670 C   0  0  0  0  0  0  0  0  0  0  0  0
  -24.2560  -13.1450   20.8440 C   0  0  0  0  0  0  0  0  0  0  0  0
  -24.7220  -11.7960   20.7980 C   0  0  0  0  0  0  0  0  0  0  0  0
  -26.3540  -13.0480   20.2030 N   0  0  0  0  0  0  0  0  0  0  0  0
  -26.0090  -11.7610   20.4690 N   0  0  0  0  0  0  0  0  0  0  0  0
  -23.9970  -10.5340   20.9920 C   0  0  0  0  0  0  0  0  0  0  0  0
  -24.4360   -9.5670   21.9220 C   0  0  0  0  0  3  0  0  0  0  0  0
  -23.7060   -8.3730   22.1120 C   0  0  0  0  0  3  0  0  0  0  0  0
  -22.5240   -8.1390   21.3720 C   0  0  0  0  0  0  0  0  0  0  0  0
  -22.1000   -9.0970   20.4330 C   0  0  0  0  0  3  0  0  0  0  0  0
  -22.8280  -10.2840   20.2440 C   0  0  0  0  0  3  0  0  0  0  0  0
  -21.7680   -6.9950   21.4660 O   0  0  0  0  0  0  0  0  0  0  0  0
  -21.7190   -6.2560   22.6190 C   0  0  0  0  0  0  0  0  0  0  0  0
  -21.2800   -6.8090   23.8420 C   0  0  0  0  0  3  0  0  0  0  0  0
  -21.1840   -5.9970   24.9880 C   0  0  0  0  0  3  0  0  0  0  0  0
  -21.5130   -4.6310   24.9130 C   0  0  0  0  0  0  0  0  0  0  0  0
  -21.9440   -4.0750   23.6950 C   0  0  0  0  0  3  0  0  0  0  0  0
  -22.0470   -4.8850   22.5520 C   0  0  0  0  0  0  0  0  0  0  0  0
  -22.4420   -4.3420   21.3770 F   0  0  0  0  0  0  0  0  0  0  0  0
  -21.4160   -3.8470   26.0120 F   0  0  0  0  0  0  0  0  0  0  0  0
  -22.8680  -13.6260   21.1420 C   0  0  0  0  0  0  0  0  0  0  0  0
  -22.1600  -12.9280   22.0230 N   0  0  0  0  0  0  0  0  0  0  0  0
  -22.4220  -14.6530   20.6330 O   0  0  0  0  0  0  0  0  0  0  0  0
  -22.5340  -12.0960   22.4540 H   0  0  0  0  0  0  0  0  0  0  0  0
  -21.2320  -13.2340   22.2780 H   0  0  0  0  0  0  0  0  0  0  0  0
  -25.4790  -15.2940   20.3020 N   0  0  0  0  0  0  0  0  0  0  0  0
  -24.6940  -15.9330   20.3610 H   0  0  0  0  0  0  0  0  0  0  0  0
  -26.3370  -15.7420   20.0040 H   0  0  0  0  0  0  0  0  0  0  0  0
  -29.4280  -21.4740   20.1270 N   0  0  0  0  0  4  0  0  0  0  0  0
  -30.4210  -21.5780   20.2610 H   0  0  0  0  0  0  0  0  0  0  0  0
  -29.2860  -21.5170   19.1300 H   0  0  0  0  0  0  0  0  0  0  0  0
  -28.8010  -22.8790   20.7310 C   0  0  0  0  0  2  0  0  0  0  0  0
  -28.5570  -24.4350   19.9160 C   0  0  0  0  0  2  0  0  0  0  0  0
  -28.4570  -25.9910   20.3910 O   0  0  0  0  0  0  0  0  0  0  0  0
  -24.6370  -31.7680   23.1670 C   0  0  0  0  0  0  0  0  0  0  0  0
  -27.3960  -27.0080   20.2220 C   0  0  0  0  0  0  0  0  0  0  0  0
  -23.5170  -30.3570   21.4830 C   0  0  0  0  0  3  0  0  0  0  0  0
  -25.0410  -28.7870   20.1050 C   0  0  0  0  0  0  0  0  0  0  0  0
  -26.0750  -30.6360   21.4100 C   0  0  0  0  0  2  0  0  0  0  0  0
  -26.1950  -29.2360   20.7570 C   0  0  0  0  0  0  0  0  0  0  0  0
  -27.3650  -28.3660   20.7900 C   0  0  0  0  0  3  0  0  0  0  0  0
  -26.2120  -26.6940   19.5160 C   0  0  0  0  0  3  0  0  0  0  0  0
  -25.0700  -27.5360   19.4660 C   0  0  0  0  0  3  0  0  0  0  0  0
  -23.7990  -29.6750   20.1150 C   0  0  0  0  0  2  0  0  0  0  0  0
  -24.7610  -30.9460   22.0760 N   0  0  0  0  0  0  0  0  0  0  0  0
  -23.5280  -32.0330   23.6610 O   0  0  0  0  0  0  0  0  0  0  0  0
  -22.8120  -29.3470   22.4290 C   0  0  0  0  0  0  0  0  0  0  0  0
  -21.4890  -29.1670   22.2710 N   0  0  0  0  0  0  0  0  0  0  0  0
  -23.4650  -28.7280   23.2730 O   0  0  0  0  0  0  0  0  0  0  0  0
  -21.0130  -29.7190   21.5720 H   0  0  0  0  0  0  0  0  0  0  0  0
  -18.1120  -27.9170   22.7110 C   0  0  0  0  0  0  0  0  0  0  0  0
  -20.6640  -28.2130   23.0180 C   0  0  0  0  0  3  0  0  0  0  0  0
  -20.7890  -26.7860   22.4350 C   0  0  0  0  0  2  0  0  0  0  0  0
  -19.7100  -26.4600   21.3960 C   0  0  0  0  0  2  0  0  0  0  0  0
  -18.3160  -26.5800   22.0180 C   0  0  0  0  0  2  0  0  0  0  0  0
  -19.2130  -28.6900   23.1660 C   0  0  0  0  0  0  0  0  0  0  0  0
  -18.9650  -29.9370   23.7800 C   0  0  0  0  0  3  0  0  0  0  0  0
  -17.6500  -30.4170   23.9350 C   0  0  0  0  0  3  0  0  0  0  0  0
  -16.5650  -29.6440   23.4880 C   0  0  0  0  0  3  0  0  0  0  0  0
  -16.7940  -28.3950   22.8850 C   0  0  0  0  0  3  0  0  0  0  0  0
  -25.8800  -32.4280   23.8390 C   0  0  0  0  0  3  0  0  0  0  0  0
  -25.5360  -33.8270   24.1440 N   0  0  0  0  0  0  0  0  0  0  0  0
  -25.8960  -34.8850   23.4040 C   0  0  0  0  0  0  0  0  0  0  0  0
  -26.6120  -34.7850   22.4050 O   0  0  0  0  0  0  0  0  0  0  0  0
  -24.9010  -33.9750   24.9150 H   0  0  0  0  0  0  0  0  0  0  0  0
  -24.1820  -36.6790   22.9670 C   0  0  0  0  0  1  0  0  0  0  0  0
  -25.3810  -36.2740   23.8380 C   0  0  0  0  0  3  0  0  0  0  0  0
  -27.4650  -37.1760   24.7780 C   0  0  0  0  0  1  0  0  0  0  0  0
  -26.4140  -37.3320   23.7760 N   0  0  0  0  0  0  0  0  0  0  0  0
  -25.9970  -38.2510   23.8960 H   0  0  0  0  0  0  0  0  0  0  0  0
  -26.3440  -31.6860   25.1550 C   0  0  1  0  0  0  0  0  0  0  0  0
  -25.2070  -31.4600   26.1780 C   0  0  0  0  0  1  0  0  0  0  0  0
  -26.9540  -30.3040   24.8240 C   0  0  0  0  0  1  0  0  0  0  0  0
  -27.4600  -32.5010   25.8520 C   0  0  0  0  0  1  0  0  0  0  0  0
  -27.6320  -19.5840   20.1770 C   0  0  0  0  0  2  0  0  0  0  0  0
  -27.1640  -20.8390   17.9710 C   0  0  0  0  0  1  0  0  0  0  0  0
  -25.8690  -18.7670   18.5440 C   0  0  0  0  0  1  0  0  0  0  0  0
  -27.2310  -19.4710   18.6790 C   0  0  0  0  0  3  0  0  0  0  0  0
  1 90  1  0
  2  3  1  0
  3  5  1  0
  4  2  1  0
  4  6  1  0
  6  7  1  1
  6  1  1  0
  6  5  1  0
  8  7  1  0
  9 14  1  0
 10 11  1  0
 10  9  1  0
 12 11  1  0
 12 19  1  0
 12 13  1  0
 14  8  1  0
 14 13  1  0
 15  8  2  0
 16 17  2  0
 17 36  1  0
 18 17  1  0
 18 21  1  0
 19 16  1  0
 19 20  1  0
 20 18  2  0
 21 22  1  0
 22 23  2  0
 24 27  1  0
 24 23  1  0
 25 24  2  0
 26 25  1  0
 26 21  2  0
 27 28  1  0
 28 29  1  0
 29 30  2  0
 31 30  1  0
 31 35  1  0
 32 31  2  0
 33 28  2  0
 33 32  1  0
 34 33  1  0
 36 37  1  0
 37 40  1  0
 37 39  1  0
 38 36  2  0
 41 42  1  0
 41 16  1  0
 43 41  1  0
 44 45  1  0
 44  1  1  0
 44 47  1  0
 46 44  1  0
 48 49  1  0
 48 47  1  0
 50 61  2  0
 51 49  1  0
 51 56  1  0
 52 60  1  0
 52 62  1  0
 53 59  1  0
 53 55  1  0
 54 60  1  0
 55 56  2  0
 55 54  1  0
 57 51  2  0
 58 57  1  0
 58 53  2  0
 59 52  1  0
 60 50  1  0
 62 64  2  0
 63 62  1  0
 65 63  1  0
 66 75  2  0
 66 71  1  0
 67 63  1  0
 67 71  1  0
 68 67  1  0
 69 70  1  0
 69 68  1  0
 70 66  1  0
 71 72  2  0
 72 73  1  0
 74 73  2  0
 75 74  1  0
 76 50  1  0
 76 77  1  0
 76 86  1  0
 77 80  1  0
 78 82  1  0
 78 77  1  0
 79 78  2  0
 82 81  1  0
 84 82  1  0
 84 85  1  0
 84 83  1  0
 86 89  1  1
 86 87  1  0
 88 86  1  0
 91 93  1  0
 92 93  1  0
 93 90  1  0
M  ISO  4   7 100   8 100  48 101  49 101
M  END
>  <TORSDO>  (54) 
F 23

>  <SCORE>  (54) 
-14.092

>  <name>  (54) 
53

>  <ligand_id>  (54) 
53

>  <original_smiles>  (54) 
[H]c1c([H])c([H])c2c(c1[H])C([H])([H])C([H])([H])C([H])([H])C2([H])N([H])C(=O)C1([H])N(C(=O)C([H])(N([H])C(=O)C([H])(N([H])C([H])([H])[H])C([H])([H])[H])C(C([H])([H])[H])(C([H])([H])[H])C([H])([H])[H])C([H])([H])c2c([H])c(OC([H])([H])C([H])([H])[N+]([H])([H])C([H])(C([H])([H])C([H])(C([H])([H])[H])C([H])([H])[H])C3(C([H])([H])C(=O)N4C([H])([H])C([H])([H])C([H])([H])C([H])(n5nc(-c6c([H])c([H])c(Oc7c([H])c([H])c(F)c([H])c7F)c([H])c6[H])c(C(=O)N([H])[H])c5N([H])[H])C4([H])[H])C([H])([H])C([H])([H])C([H])([H])C3([H])[H])c([H])c([H])c2C1([H])[H]

>  <smiles>  (54) 
[H]c1c([H])c([H])c2c(c1[H])C([H])([H])C([H])([H])C([H])([H])C2([H])N([H])C(=O)C1([H])N(C(=O)C([H])(N([H])C(=O)C([H])(N([H])C([H])([H])[H])C([H])([H])[H])C(C([H])([H])[H])(C([H])([H])[H])C([H])([H])[H])C([H])([H])c2c([H])c(OC([H])([H])C([H])([H])[N+]([H])([H])C([H])(C([H])([H])C([H])(C([H])([H])[H])C([H])([H])[H])C3(C([H])([H])C(=O)N4C([H])([H])C([H])([H])C([H])([H])C([H])(n5nc(-c6c([H])c([H])c(Oc7c([H])c([H])c(F)c([H])c7F)c([H])c6[H])c(C(=O)N([H])[H])c5N([H])[H])C4([H])[H])C([H])([H])C([H])([H])C([H])([H])C3([H])[H])c([H])c([H])c2C1([H])[H]

$$$$
54:0:0
     RDKit          3D

 89 96  0  0  1  0  0  0  0  0999 V2000
  -28.8290  -21.0760   19.8450 C   0  0  0  0  0  0  0  0  0  0  0  0
  -29.5300  -19.8100   20.1590 N   0  0  0  0  0  0  0  0  0  0  0  0
  -28.1390  -21.0470   18.8270 O   0  0  0  0  0  0  0  0  0  0  0  0
  -30.0940  -19.8840   20.9960 H   0  0  0  0  0  0  0  0  0  0  0  0
  -28.7920  -22.6270   20.6280 C   0  0  0  0  0  2  0  0  0  0  0  0
  -27.9320  -24.1470   20.2230 C   0  0  0  0  0  2  0  0  0  0  0  0
  -28.1330  -25.7320   20.5910 O   0  0  0  0  0  0  0  0  0  0  0  0
  -24.6670  -31.8400   23.2490 C   0  0  0  0  0  0  0  0  0  0  0  0
  -27.1440  -26.8290   20.4470 C   0  0  0  0  0  0  0  0  0  0  0  0
  -23.4610  -30.4250   21.6340 C   0  0  0  0  0  3  0  0  0  0  0  0
  -24.8910  -28.7440   20.2870 C   0  0  0  0  0  0  0  0  0  0  0  0
  -26.0320  -30.5760   21.5200 C   0  0  0  0  0  2  0  0  0  0  0  0
  -26.0760  -29.1470   20.9140 C   0  0  0  0  0  0  0  0  0  0  0  0
  -27.1980  -28.2100   20.9710 C   0  0  0  0  0  3  0  0  0  0  0  0
  -25.9370  -26.5690   19.7620 C   0  0  0  0  0  3  0  0  0  0  0  0
  -24.8470  -27.4740   19.6870 C   0  0  0  0  0  3  0  0  0  0  0  0
  -23.6930  -29.6930   20.2840 C   0  0  0  0  0  2  0  0  0  0  0  0
  -24.7410  -30.9740   22.1870 N   0  0  0  0  0  0  0  0  0  0  0  0
  -23.5780  -32.1740   23.7440 O   0  0  0  0  0  0  0  0  0  0  0  0
  -22.7290  -29.4770   22.6190 C   0  0  0  0  0  0  0  0  0  0  0  0
  -21.3940  -29.3590   22.4930 N   0  0  0  0  0  0  0  0  0  0  0  0
  -23.3670  -28.8470   23.4660 O   0  0  0  0  0  0  0  0  0  0  0  0
  -20.9330  -29.9170   21.7890 H   0  0  0  0  0  0  0  0  0  0  0  0
  -17.9630  -28.3030   23.0200 C   0  0  0  0  0  0  0  0  0  0  0  0
  -20.5330  -28.4710   23.2820 C   0  0  0  0  0  3  0  0  0  0  0  0
  -20.5750  -27.0240   22.7370 C   0  0  0  0  0  2  0  0  0  0  0  0
  -19.4610  -26.7250   21.7290 C   0  0  0  0  0  2  0  0  0  0  0  0
  -18.0870  -26.9360   22.3680 C   0  0  0  0  0  2  0  0  0  0  0  0
  -19.1120  -29.0310   23.4330 C   0  0  0  0  0  0  0  0  0  0  0  0
  -18.9390  -30.3100   24.0060 C   0  0  0  0  0  3  0  0  0  0  0  0
  -17.6530  -30.8590   24.1690 C   0  0  0  0  0  3  0  0  0  0  0  0
  -16.5200  -30.1290   23.7680 C   0  0  0  0  0  3  0  0  0  0  0  0
  -16.6780  -28.8530   23.1980 C   0  0  0  0  0  3  0  0  0  0  0  0
  -25.9460  -32.4690   23.8810 C   0  0  0  0  0  3  0  0  0  0  0  0
  -25.6510  -33.8790   24.1920 N   0  0  0  0  0  0  0  0  0  0  0  0
  -26.0090  -34.9240   23.4330 C   0  0  0  0  0  0  0  0  0  0  0  0
  -26.6830  -34.8010   22.4070 O   0  0  0  0  0  0  0  0  0  0  0  0
  -25.0500  -34.0470   24.9850 H   0  0  0  0  0  0  0  0  0  0  0  0
  -24.3130  -36.7500   23.0660 C   0  0  0  0  0  1  0  0  0  0  0  0
  -25.5470  -36.3270   23.8780 C   0  0  0  0  0  3  0  0  0  0  0  0
  -27.7000  -37.1810   24.6950 C   0  0  0  0  0  1  0  0  0  0  0  0
  -26.5970  -37.3610   23.7550 N   0  0  0  0  0  0  0  0  0  0  0  0
  -26.2080  -38.2890   23.8960 H   0  0  0  0  0  0  0  0  0  0  0  0
  -26.4270  -31.7150   25.1820 C   0  0  1  0  0  0  0  0  0  0  0  0
  -25.3100  -31.5160   26.2360 C   0  0  0  0  0  1  0  0  0  0  0  0
  -26.9960  -30.3200   24.8360 C   0  0  0  0  0  1  0  0  0  0  0  0
  -27.5760  -32.5040   25.8510 C   0  0  0  0  0  1  0  0  0  0  0  0
  -29.5870  -18.2780   19.4950 C   0  0  0  0  0  3  0  0  0  0  0  0
  -29.9510  -16.6690   20.1950 C   0  0  0  0  0  2  0  0  0  0  0  0
  -30.4030  -15.0660   19.6500 C   0  0  0  0  0  0  0  0  0  0  0  0
  -30.2460  -12.5820   18.9130 C   0  0  0  0  0  2  0  0  0  0  0  0
  -29.2270  -12.3700   17.7640 C   0  0  0  0  0  2  0  0  0  0  0  0
  -27.8200  -12.1410   18.3320 C   0  0  0  0  0  2  0  0  0  0  0  0
  -27.4820  -13.1500   19.4590 C   0  0  0  0  0  3  0  0  0  0  0  0
  -28.6240  -13.3300   20.4870 C   0  0  0  0  0  2  0  0  0  0  0  0
  -29.8200  -13.7690   19.7510 N   0  0  0  0  0  0  0  0  0  0  0  0
  -31.5220  -15.0010   19.1190 O   0  0  0  0  0  0  0  0  0  0  0  0
  -25.2170  -13.7500   20.4640 C   0  0  0  0  0  0  0  0  0  0  0  0
  -24.1790  -12.9970   20.9320 C   0  0  0  0  0  0  0  0  0  0  0  0
  -24.5920  -11.6370   20.8090 C   0  0  0  0  0  0  0  0  0  0  0  0
  -26.2030  -12.8560   20.0920 N   0  0  0  0  0  0  0  0  0  0  0  0
  -25.8430  -11.5730   20.3620 N   0  0  0  0  0  0  0  0  0  0  0  0
  -23.8420  -10.3940   21.0360 C   0  0  0  0  0  0  0  0  0  0  0  0
  -24.3290   -9.3810   21.8920 C   0  0  0  0  0  3  0  0  0  0  0  0
  -23.5750   -8.2080   22.1120 C   0  0  0  0  0  3  0  0  0  0  0  0
  -22.3220   -8.0390   21.4760 C   0  0  0  0  0  0  0  0  0  0  0  0
  -21.8540   -9.0400   20.6060 C   0  0  0  0  0  3  0  0  0  0  0  0
  -22.6080  -10.2040   20.3840 C   0  0  0  0  0  3  0  0  0  0  0  0
  -21.5330   -6.9210   21.6100 O   0  0  0  0  0  0  0  0  0  0  0  0
  -21.5730   -6.1450   22.7400 C   0  0  0  0  0  0  0  0  0  0  0  0
  -21.3090   -6.6770   24.0220 C   0  0  0  0  0  3  0  0  0  0  0  0
  -21.2920   -5.8290   25.1470 C   0  0  0  0  0  3  0  0  0  0  0  0
  -21.5300   -4.4500   24.9940 C   0  0  0  0  0  0  0  0  0  0  0  0
  -21.7880   -3.9180   23.7190 C   0  0  0  0  0  3  0  0  0  0  0  0
  -21.8060   -4.7620   22.5940 C   0  0  0  0  0  0  0  0  0  0  0  0
  -22.0340   -4.2410   21.3650 F   0  0  0  0  0  0  0  0  0  0  0  0
  -21.5060   -3.6340   26.0720 F   0  0  0  0  0  0  0  0  0  0  0  0
  -22.8400  -13.5140   21.3700 C   0  0  0  0  0  0  0  0  0  0  0  0
  -22.1920  -12.8210   22.2970 N   0  0  0  0  0  0  0  0  0  0  0  0
  -22.3850  -14.5660   20.9220 O   0  0  0  0  0  0  0  0  0  0  0  0
  -22.5780  -11.9690   22.6750 H   0  0  0  0  0  0  0  0  0  0  0  0
  -21.2970  -13.1460   22.6370 H   0  0  0  0  0  0  0  0  0  0  0  0
  -25.3910  -15.1180   20.2930 N   0  0  0  0  0  0  0  0  0  0  0  0
  -24.6580  -15.7820   20.5140 H   0  0  0  0  0  0  0  0  0  0  0  0
  -26.2080  -15.5500   19.8830 H   0  0  0  0  0  0  0  0  0  0  0  0
  -28.1800  -18.0680   18.8770 C   0  0  0  0  0  2  0  0  0  0  0  0
  -26.1450  -19.3300   19.8610 C   0  0  0  0  0  1  0  0  0  0  0  0
  -26.1410  -16.8120   19.8290 C   0  0  0  0  0  1  0  0  0  0  0  0
  -27.0250  -18.0680   19.9250 C   0  0  0  0  0  3  0  0  0  0  0  0
  1  2  1  0
  1  5  1  0
  2  4  1  0
  3  1  2  0
  6  7  1  0
  6  5  1  0
  8 19  2  0
  9  7  1  0
  9 14  1  0
 10 18  1  0
 10 20  1  0
 11 13  1  0
 12 18  1  0
 13 14  2  0
 13 12  1  0
 15  9  2  0
 16 15  1  0
 16 11  2  0
 17 11  1  0
 17 10  1  0
 18  8  1  0
 20 22  2  0
 21 20  1  0
 23 21  1  0
 24 33  2  0
 24 29  1  0
 25 21  1  0
 25 29  1  0
 26 25  1  0
 27 28  1  0
 27 26  1  0
 28 24  1  0
 29 30  2  0
 30 31  1  0
 32 31  2  0
 33 32  1  0
 34  8  1  0
 34 35  1  0
 34 44  1  0
 35 38  1  0
 36 40  1  0
 36 35  1  0
 37 36  2  0
 40 39  1  0
 42 40  1  0
 42 43  1  0
 42 41  1  0
 44 47  1  1
 44 45  1  0
 46 44  1  0
 48 86  1  0
 48  2  1  0
 48 49  1  0
 50 56  1  0
 50 49  1  0
 51 56  1  0
 52 53  1  0
 52 51  1  0
 54 53  1  0
 54 61  1  0
 54 55  1  0
 56 55  1  0
 57 50  2  0
 58 59  2  0
 59 78  1  0
 60 59  1  0
 60 63  1  0
 61 62  1  0
 61 58  1  0
 62 60  2  0
 63 64  1  0
 64 65  2  0
 66 69  1  0
 66 65  1  0
 67 66  2  0
 68 67  1  0
 68 63  2  0
 69 70  1  0
 70 71  1  0
 71 72  2  0
 73 72  1  0
 73 77  1  0
 74 73  2  0
 75 70  2  0
 75 74  1  0
 76 75  1  0
 78 79  1  0
 79 82  1  0
 79 81  1  0
 80 78  2  0
 83 58  1  0
 83 84  1  0
 85 83  1  0
 86 89  1  0
 87 89  1  0
 88 89  1  0
M  ISO  4   6 101   7 101  49 100  50 100
M  END
>  <TORSDO>  (55) 
F 22

>  <SCORE>  (55) 
-13.343

>  <name>  (55) 
54

>  <ligand_id>  (55) 
54

>  <original_smiles>  (55) 
[H]c1c([H])c([H])c2c(c1[H])C([H])([H])C([H])([H])C([H])([H])C2([H])N([H])C(=O)C1([H])N(C(=O)C([H])(N([H])C(=O)C([H])(N([H])C([H])([H])[H])C([H])([H])[H])C(C([H])([H])[H])(C([H])([H])[H])C([H])([H])[H])C([H])([H])c2c([H])c(OC([H])([H])C([H])([H])C(=O)N([H])C([H])(C([H])([H])C(=O)N3C([H])([H])C([H])([H])C([H])([H])C([H])(n4nc(-c5c([H])c([H])c(Oc6c([H])c([H])c(F)c([H])c6F)c([H])c5[H])c(C(=O)N([H])[H])c4N([H])[H])C3([H])[H])C([H])([H])C([H])(C([H])([H])[H])C([H])([H])[H])c([H])c([H])c2C1([H])[H]

>  <smiles>  (55) 
[H]c1c([H])c([H])c2c(c1[H])C([H])([H])C([H])([H])C([H])([H])C2([H])N([H])C(=O)C1([H])N(C(=O)C([H])(N([H])C(=O)C([H])(N([H])C([H])([H])[H])C([H])([H])[H])C(C([H])([H])[H])(C([H])([H])[H])C([H])([H])[H])C([H])([H])c2c([H])c(OC([H])([H])C([H])([H])C(=O)N([H])C([H])(C([H])([H])C(=O)N3C([H])([H])C([H])([H])C([H])([H])C([H])(n4nc(-c5c([H])c([H])c(Oc6c([H])c([H])c(F)c([H])c6F)c([H])c5[H])c(C(=O)N([H])[H])c4N([H])[H])C3([H])[H])C([H])([H])C([H])(C([H])([H])[H])C([H])([H])[H])c([H])c([H])c2C1([H])[H]

$$$$
55:0:0
     RDKit          3D

 97 99  0  0  1  0  0  0  0  0999 V2000
  -28.1850  -17.5630   18.5700 C   0  0  0  0  0  2  0  0  0  0  0  0
  -29.0240  -12.8420   19.6450 C   0  0  0  0  0  2  0  0  0  0  0  0
  -28.5640  -13.0690   18.9730 C   0  0  0  0  0  0  0  0  0  0  0  0
  -29.5870  -15.1300   19.3210 C   0  0  0  0  0  2  0  0  0  0  0  0
  -28.9250  -15.7100   18.5270 C   0  0  0  0  0  2  0  0  0  0  0  0
  -30.2970  -15.9300   18.3260 N   0  0  0  0  0  0  0  0  0  0  0  0
  -31.1510  -17.1600   18.5810 C   0  0  0  0  0  2  0  0  0  0  0  0
  -31.2160  -18.1040   19.8540 C   0  0  0  0  0  2  0  0  0  0  0  0
  -31.7430  -17.7360   21.2690 C   0  0  0  0  0  2  0  0  0  0  0  0
  -30.7040  -17.1320   22.2480 C   0  0  0  0  0  2  0  0  0  0  0  0
  -31.0870  -15.8080   22.9570 C   0  0  0  0  0  2  0  0  0  0  0  0
  -31.5310  -14.7400   21.9690 C   0  0  0  0  0  0  0  0  0  0  0  0
  -31.5160  -12.8220   19.9800 C   0  0  0  0  0 15  0  0  0  0  0  0
  -30.4090  -12.5330   18.0640 C   0  0  0  0  0 15  0  0  0  0  0  0
  -28.0880  -12.8950   17.9590 C   0  0  0  0  0  1  0  0  0  0  0  0
  -27.4650  -13.8610   20.0330 C   0  0  0  0  0  2  0  0  0  0  0  0
  -28.7850  -14.1570   21.7890 C   0  0  0  0  0 15  0  0  0  0  0  0
  -30.7410  -13.7130   21.6560 N   0  0  0  0  0  1  0  0  0  0  0  0
  -32.5430  -14.9310   21.2980 O   0  0  0  0  0  0  0  0  0  0  0  0
  -25.1830  -13.9810   20.5740 C   0  0  0  0  0  0  0  0  0  0  0  0
  -24.2020  -13.1370   20.9090 C   0  0  0  0  0  0  0  0  0  0  0  0
  -24.7380  -11.8090   20.9370 C   0  0  0  0  0  0  0  0  0  0  0  0
  -26.2740  -13.2200   20.4680 N   0  0  0  0  0  0  0  0  0  0  0  0
  -26.0510  -11.8770   20.7060 N   0  0  0  0  0  0  0  0  0  0  0  0
  -24.0190  -10.5360   21.1320 C   0  0  0  0  0  0  0  0  0  0  0  0
  -24.3930   -9.5720   22.0980 C   0  0  0  0  0  3  0  0  0  0  0  0
  -23.5980   -8.4200   22.3070 C   0  0  0  0  0  3  0  0  0  0  0  0
  -22.4180   -8.2210   21.5440 C   0  0  0  0  0  0  0  0  0  0  0  0
  -22.0690   -9.1640   20.5670 C   0  0  0  0  0  3  0  0  0  0  0  0
  -22.8640  -10.3030   20.3550 C   0  0  0  0  0  3  0  0  0  0  0  0
  -21.5980   -7.1230   21.6540 O   0  0  0  0  0  0  0  0  0  0  0  0
  -21.5380   -6.3720   22.8030 C   0  0  0  0  0  0  0  0  0  0  0  0
  -21.1570   -6.9330   24.0410 C   0  0  0  0  0  3  0  0  0  0  0  0
  -21.0450   -6.1130   25.1810 C   0  0  0  0  0  3  0  0  0  0  0  0
  -21.3040   -4.7320   25.0830 C   0  0  0  0  0  0  0  0  0  0  0  0
  -21.6810   -4.1710   23.8510 C   0  0  0  0  0  3  0  0  0  0  0  0
  -21.7930   -4.9880   22.7110 C   0  0  0  0  0  0  0  0  0  0  0  0
  -22.1300   -4.4380   21.5200 F   0  0  0  0  0  0  0  0  0  0  0  0
  -21.1930   -3.9440   26.1780 F   0  0  0  0  0  0  0  0  0  0  0  0
  -22.8130  -13.6120   21.0910 C   0  0  0  0  0  0  0  0  0  0  0  0
  -22.0720  -12.9680   21.9740 N   0  0  0  0  0  0  0  0  0  0  0  0
  -22.4240  -14.6240   20.5100 O   0  0  0  0  0  0  0  0  0  0  0  0
  -22.4310  -12.1550   22.4550 H   0  0  0  0  0  0  0  0  0  0  0  0
  -21.1350  -13.2900   22.1770 H   0  0  0  0  0  0  0  0  0  0  0  0
  -25.2090  -15.3550   20.3390 N   0  0  0  0  0  0  0  0  0  0  0  0
  -24.3150  -15.8190   20.2100 H   0  0  0  0  0  0  0  0  0  0  0  0
  -25.9760  -15.8650   19.9340 H   0  0  0  0  0  0  0  0  0  0  0  0
  -28.3580  -19.0730   19.4540 N   0  0  0  0  0  4  0  0  0  0  0  0
  -27.9190  -18.8670   20.3360 H   0  0  0  0  0  0  0  0  0  0  0  0
  -29.3450  -19.1320   19.6470 H   0  0  0  0  0  0  0  0  0  0  0  0
  -27.9130  -20.7510   19.2200 C   0  0  0  0  0  2  0  0  0  0  0  0
  -28.2310  -22.4240   20.1070 C   0  0  0  0  0  3  0  0  0  0  0  0
  -27.6220  -24.2450   20.0620 C   0  0  0  0  0  3  0  0  0  0  0  0
  -27.9880  -25.8470   20.6510 O   0  0  0  0  0  0  0  0  0  0  0  0
  -24.6780  -32.2120   23.6220 C   0  0  0  0  0  0  0  0  0  0  0  0
  -27.1450  -27.1260   20.6270 C   0  0  0  0  0  0  0  0  0  0  0  0
  -23.5290  -30.8510   21.9340 C   0  0  0  0  0  3  0  0  0  0  0  0
  -24.9800  -29.2040   20.5560 C   0  0  0  0  0  0  0  0  0  0  0  0
  -26.1140  -30.9360   21.9200 C   0  0  0  0  0  2  0  0  0  0  0  0
  -26.1620  -29.5160   21.2430 C   0  0  0  0  0  0  0  0  0  0  0  0
  -27.2410  -28.4950   21.2640 C   0  0  0  0  0  3  0  0  0  0  0  0
  -25.9580  -27.0310   19.8880 C   0  0  0  0  0  3  0  0  0  0  0  0
  -24.9190  -27.9870   19.8630 C   0  0  0  0  0  3  0  0  0  0  0  0
  -23.8010  -30.1770   20.5650 C   0  0  0  0  0  2  0  0  0  0  0  0
  -24.7980  -31.3670   22.5420 N   0  0  0  0  0  0  0  0  0  0  0  0
  -23.5720  -32.5280   24.0880 O   0  0  0  0  0  0  0  0  0  0  0  0
  -22.7670  -29.8690   22.8640 C   0  0  0  0  0  0  0  0  0  0  0  0
  -21.4600  -29.6560   22.6200 N   0  0  0  0  0  0  0  0  0  0  0  0
  -23.3630  -29.2970   23.7810 O   0  0  0  0  0  0  0  0  0  0  0  0
  -21.0210  -30.1700   21.8680 H   0  0  0  0  0  0  0  0  0  0  0  0
  -18.0970  -28.3020   22.8340 C   0  0  0  0  0  0  0  0  0  0  0  0
  -20.6000  -28.7170   23.3490 C   0  0  0  0  0  3  0  0  0  0  0  0
  -20.8270  -27.2630   22.8700 C   0  0  0  0  0  2  0  0  0  0  0  0
  -19.8610  -26.8360   21.7590 C   0  0  0  0  0  2  0  0  0  0  0  0
  -18.4120  -26.9350   22.2450 C   0  0  0  0  0  2  0  0  0  0  0  0
  -19.1250  -29.1440   23.3390 C   0  0  0  0  0  0  0  0  0  0  0  0
  -18.7810  -30.4130   23.8500 C   0  0  0  0  0  3  0  0  0  0  0  0
  -17.4430  -30.8490   23.8550 C   0  0  0  0  0  3  0  0  0  0  0  0
  -16.4280  -30.0100   23.3620 C   0  0  0  0  0  3  0  0  0  0  0  0
  -16.7540  -28.7360   22.8620 C   0  0  0  0  0  3  0  0  0  0  0  0
  -25.9270  -32.8370   24.3100 C   0  0  0  0  0  3  0  0  0  0  0  0
  -25.6590  -34.2750   24.5130 N   0  0  0  0  0  0  0  0  0  0  0  0
  -26.0960  -35.2640   23.7190 C   0  0  0  0  0  0  0  0  0  0  0  0
  -26.8260  -35.0590   22.7460 O   0  0  0  0  0  0  0  0  0  0  0  0
  -25.0140  -34.5100   25.2530 H   0  0  0  0  0  0  0  0  0  0  0  0
  -24.4920  -37.1270   23.1560 C   0  0  0  0  0  1  0  0  0  0  0  0
  -25.6630  -36.7060   24.0600 C   0  0  0  0  0  3  0  0  0  0  0  0
  -27.7940  -37.5470   24.9490 C   0  0  0  0  0  1  0  0  0  0  0  0
  -26.7540  -37.6980   23.9350 N   0  0  0  0  0  0  0  0  0  0  0  0
  -26.3870  -38.6430   23.9940 H   0  0  0  0  0  0  0  0  0  0  0  0
  -26.2750  -32.1550   25.6920 C   0  0  1  0  0  0  0  0  0  0  0  0
  -25.0720  -32.0470   26.6580 C   0  0  0  0  0  1  0  0  0  0  0  0
  -26.8290  -30.7260   25.4870 C   0  0  0  0  0  1  0  0  0  0  0  0
  -27.3880  -32.9580   26.4030 C   0  0  0  0  0  1  0  0  0  0  0  0
  -26.8410  -17.6590   17.7970 C   0  0  0  0  0  2  0  0  0  0  0  0
  -25.4480  -19.0190   16.0850 C   0  0  0  0  0  1  0  0  0  0  0  0
  -26.8100  -18.8050   16.7610 C   0  0  0  0  0  2  0  0  0  0  0  0
  1 48  1  0
  3  2  2  0
  3 16  1  0
  5  4  1  0
  6  5  1  0
  6  7  1  0
  6  4  1  0
  7  8  1  0
  8  9  1  0
  9 10  1  0
 10 11  1  0
 12 11  1  0
 15  3  1  0
 16 23  1  0
 18 12  1  0
 19 12  2  0
 20 21  2  0
 21 22  1  0
 21 40  1  0
 22 25  1  0
 23 20  1  0
 23 24  1  0
 24 22  2  0
 25 26  1  0
 26 27  2  0
 28 31  1  0
 28 27  1  0
 29 28  2  0
 30 29  1  0
 30 25  2  0
 31 32  1  0
 32 33  1  0
 33 34  2  0
 35 34  1  0
 35 39  1  0
 36 35  2  0
 37 32  2  0
 37 36  1  0
 38 37  1  0
 40 41  1  0
 41 44  1  0
 41 43  1  0
 42 40  2  0
 45 20  1  0
 46 45  1  0
 47 45  1  0
 48 50  1  0
 48 49  1  0
 51 48  1  0
 51 52  1  0
 53 52  2  0
 53 54  1  0
 55 66  2  0
 56 54  1  0
 56 61  1  0
 57 65  1  0
 57 67  1  0
 58 64  1  0
 58 60  1  0
 59 65  1  0
 60 61  2  0
 60 59  1  0
 62 56  2  0
 63 62  1  0
 63 58  2  0
 64 57  1  0
 65 55  1  0
 67 69  2  0
 68 67  1  0
 70 68  1  0
 71 80  2  0
 71 76  1  0
 72 68  1  0
 73 72  1  0
 74 75  1  0
 74 73  1  0
 75 71  1  0
 76 72  1  0
 76 77  2  0
 77 78  1  0
 79 78  2  0
 80 79  1  0
 81 55  1  0
 81 82  1  0
 81 91  1  0
 82 85  1  0
 83 87  1  0
 83 82  1  0
 84 83  2  0
 87 86  1  0
 89 90  1  0
 89 87  1  0
 89 88  1  0
 91 94  1  1
 91 92  1  0
 93 91  1  0
 95  1  1  0
 96 97  1  0
 97 95  1  0
M  ISO  4  11 100  12 100  53 101  54 101
M  END
>  <TORSDO>  (56) 
F 28

>  <SCORE>  (56) 
-6.151

>  <name>  (56) 
55

>  <ligand_id>  (56) 
55

>  <original_smiles>  (56) 
[H]c1c([H])c([H])c2c(c1[H])C([H])([H])C([H])([H])C([H])([H])C2([H])N([H])C(=O)C1([H])N(C(=O)C([H])(N([H])C(=O)C([H])(N([H])C([H])([H])[H])C([H])([H])[H])C(C([H])([H])[H])(C([H])([H])[H])C([H])([H])[H])C([H])([H])c2c([H])c(OC([H])([H])C([H])([H])C([H])([H])[N+]([H])([H])C([H])(C([H])([H])C([H])([H])C([H])([H])[H])C3([H])N(C([H])([H])C([H])([H])C([H])([H])C([H])([H])C([H])([H])C(=O)N4C([H])([H])C([H])([H])C([H])([H])C([H])(n5nc(-c6c([H])c([H])c(Oc7c([H])c([H])c(F)c([H])c7F)c([H])c6[H])c(C(=O)N([H])[H])c5N([H])[H])C4([H])[H])C([H])([H])C([H])([H])C3([H])[H])c([H])c([H])c2C1([H])[H]

>  <smiles>  (56) 
[H]c1c([H])c([H])c2c(c1[H])C([H])([H])C([H])([H])C([H])([H])C2([H])N([H])C(=O)C1([H])N(C(=O)C([H])(N([H])C(=O)C([H])(N([H])C([H])([H])[H])C([H])([H])[H])C(C([H])([H])[H])(C([H])([H])[H])C([H])([H])[H])C([H])([H])c2c([H])c(OC([H])([H])C([H])([H])C([H])([H])[N+]([H])([H])C([H])(C([H])([H])C([H])([H])C([H])([H])[H])C3([H])N(C([H])([H])C([H])([H])C([H])([H])C([H])([H])C([H])([H])C(=O)N4C([H])([H])C([H])([H])C([H])([H])C([H])(n5nc(-c6c([H])c([H])c(Oc7c([H])c([H])c(F)c([H])c7F)c([H])c6[H])c(C(=O)N([H])[H])c5N([H])[H])C4([H])[H])C([H])([H])C([H])([H])C3([H])[H])c([H])c([H])c2C1([H])[H]

$$$$
56:0:0
     RDKit          3D

 97106  0  0  1  0  0  0  0  0999 V2000
  -29.5580  -20.8240   20.8620 C   0  0  0  0  0  3  0  0  0  0  0  0
  -33.2810  -21.7820   21.7440 C   0  0  0  0  0  2  0  0  0  0  0  0
  -30.2760  -21.6600   24.8350 C   0  0  0  0  0  2  0  0  0  0  0  0
  -33.5490  -20.9330   22.9920 C   0  0  0  0  0  2  0  0  0  0  0  0
  -31.7720  -21.9230   24.6160 C   0  0  0  0  0  2  0  0  0  0  0  0
  -32.1270  -21.2050   20.9100 C   0  0  0  0  0  2  0  0  0  0  0  0
  -29.9690  -20.3440   24.1020 C   0  0  0  0  0  2  0  0  0  0  0  0
  -32.2840  -20.7010   23.8360 C   0  0  0  0  0  3  0  0  0  0  0  0
  -30.8370  -21.0490   21.7530 C   0  0  0  0  0  3  0  0  0  0  0  0
  -31.0720  -20.1580   23.0370 C   0  0  2  0  0  0  0  0  0  0  0  0
  -31.3040  -18.6620   22.7320 C   0  0  0  0  0  1  0  0  0  0  0  0
  -29.7060  -19.5700   20.0060 N   0  0  0  0  0  4  0  0  0  0  0  0
  -29.3360  -19.7710   19.0900 H   0  0  0  0  0  0  0  0  0  0  0  0
  -30.6960  -19.4420   19.8860 H   0  0  0  0  0  0  0  0  0  0  0  0
  -29.1210  -18.2350   20.4430 C   0  0  0  0  0  3  0  0  0  0  0  0
  -29.9710  -16.9340   20.0570 C   0  0  0  0  0  3  0  0  0  0  0  0
  -29.6110  -15.5360   20.7410 C   0  0  0  0  0  2  0  0  0  0  0  0
  -30.4010  -14.2400   20.2850 C   0  0  0  0  0  0  0  0  0  0  0  0
  -30.2190  -11.9370   19.3480 C   0  0  0  0  0  2  0  0  0  0  0  0
  -29.2360  -11.9730   18.1550 C   0  0  0  0  0  2  0  0  0  0  0  0
  -27.7840  -11.7920   18.6410 C   0  0  0  0  0  2  0  0  0  0  0  0
  -27.4380  -12.7210   19.8340 C   0  0  0  0  0  3  0  0  0  0  0  0
  -28.5330  -12.6700   20.9230 C   0  0  0  0  0  2  0  0  0  0  0  0
  -29.8160  -13.0000   20.2910 N   0  0  0  0  0  0  0  0  0  0  0  0
  -31.5300  -14.3920   19.8090 O   0  0  0  0  0  0  0  0  0  0  0  0
  -25.0800  -13.3130   20.6670 C   0  0  0  0  0  0  0  0  0  0  0  0
  -24.0320  -12.5350   21.0780 C   0  0  0  0  0  0  0  0  0  0  0  0
  -24.4940  -11.1840   21.0150 C   0  0  0  0  0  0  0  0  0  0  0  0
  -26.1130  -12.4350   20.3790 N   0  0  0  0  0  0  0  0  0  0  0  0
  -25.7690  -11.1500   20.6490 N   0  0  0  0  0  0  0  0  0  0  0  0
  -23.7790   -9.9190   21.2270 C   0  0  0  0  0  0  0  0  0  0  0  0
  -24.2340   -8.9610   22.1590 C   0  0  0  0  0  3  0  0  0  0  0  0
  -23.5180   -7.7600   22.3580 C   0  0  0  0  0  3  0  0  0  0  0  0
  -22.3340   -7.5100   21.6240 C   0  0  0  0  0  0  0  0  0  0  0  0
  -21.8990   -8.4580   20.6820 C   0  0  0  0  0  3  0  0  0  0  0  0
  -22.6140   -9.6490   20.4810 C   0  0  0  0  0  3  0  0  0  0  0  0
  -21.5870   -6.3620   21.7330 O   0  0  0  0  0  0  0  0  0  0  0  0
  -21.5520   -5.6340   22.8960 C   0  0  0  0  0  0  0  0  0  0  0  0
  -21.1120   -6.1970   24.1150 C   0  0  0  0  0  3  0  0  0  0  0  0
  -21.0240   -5.3940   25.2690 C   0  0  0  0  0  3  0  0  0  0  0  0
  -21.3680   -4.0300   25.2070 C   0  0  0  0  0  0  0  0  0  0  0  0
  -21.8020   -3.4670   23.9940 C   0  0  0  0  0  3  0  0  0  0  0  0
  -21.8910   -4.2670   22.8420 C   0  0  0  0  0  0  0  0  0  0  0  0
  -22.2880   -3.7150   21.6700 F   0  0  0  0  0  0  0  0  0  0  0  0
  -21.2770   -3.2560   26.3140 F   0  0  0  0  0  0  0  0  0  0  0  0
  -22.6470  -13.0060   21.4170 C   0  0  0  0  0  0  0  0  0  0  0  0
  -21.9620  -12.3050   22.3120 N   0  0  0  0  0  0  0  0  0  0  0  0
  -22.1830  -14.0330   20.9210 O   0  0  0  0  0  0  0  0  0  0  0  0
  -22.3500  -11.4720   22.7300 H   0  0  0  0  0  0  0  0  0  0  0  0
  -21.0360  -12.6040   22.5820 H   0  0  0  0  0  0  0  0  0  0  0  0
  -25.2350  -14.6850   20.4940 N   0  0  0  0  0  0  0  0  0  0  0  0
  -24.4710  -15.3360   20.6350 H   0  0  0  0  0  0  0  0  0  0  0  0
  -26.0690  -15.1260   20.1270 H   0  0  0  0  0  0  0  0  0  0  0  0
  -29.2070  -22.1570   20.0270 C   0  0  0  0  0  2  0  0  0  0  0  0
  -29.1420  -23.5900   20.7470 C   0  0  0  0  0  3  0  0  0  0  0  0
  -28.4150  -24.7870   20.0030 C   0  0  0  0  0  3  0  0  0  0  0  0
  -28.4560  -26.1400   20.6080 O   0  0  0  0  0  0  0  0  0  0  0  0
  -24.6490  -31.5400   23.4860 C   0  0  0  0  0  0  0  0  0  0  0  0
  -27.3510  -26.9980   20.4850 C   0  0  0  0  0  0  0  0  0  0  0  0
  -23.5140  -30.1890   21.7580 C   0  0  0  0  0  3  0  0  0  0  0  0
  -25.0150  -28.6470   20.3810 C   0  0  0  0  0  0  0  0  0  0  0  0
  -26.0620  -30.4700   21.7190 C   0  0  0  0  0  2  0  0  0  0  0  0
  -26.1540  -29.1020   21.0550 C   0  0  0  0  0  0  0  0  0  0  0  0
  -27.3210  -28.2850   21.1070 C   0  0  0  0  0  3  0  0  0  0  0  0
  -26.1960  -26.6110   19.7630 C   0  0  0  0  0  3  0  0  0  0  0  0
  -25.0380  -27.4070   19.7260 C   0  0  0  0  0  3  0  0  0  0  0  0
  -23.7920  -29.5400   20.3780 C   0  0  0  0  0  2  0  0  0  0  0  0
  -24.7570  -30.7500   22.3790 N   0  0  0  0  0  0  0  0  0  0  0  0
  -23.5440  -31.8260   23.9680 O   0  0  0  0  0  0  0  0  0  0  0  0
  -22.7880  -29.1660   22.6630 C   0  0  0  0  0  0  0  0  0  0  0  0
  -21.4770  -28.9820   22.4330 N   0  0  0  0  0  0  0  0  0  0  0  0
  -23.4060  -28.5420   23.5290 O   0  0  0  0  0  0  0  0  0  0  0  0
  -21.0390  -29.5410   21.7140 H   0  0  0  0  0  0  0  0  0  0  0  0
  -18.0800  -27.7590   22.6600 C   0  0  0  0  0  0  0  0  0  0  0  0
  -20.6050  -28.0390   23.1370 C   0  0  0  0  0  3  0  0  0  0  0  0
  -20.7650  -26.6080   22.5750 C   0  0  0  0  0  2  0  0  0  0  0  0
  -19.7530  -26.2750   21.4740 C   0  0  0  0  0  2  0  0  0  0  0  0
  -18.3220  -26.4100   22.0030 C   0  0  0  0  0  2  0  0  0  0  0  0
  -19.1550  -28.5310   23.1770 C   0  0  0  0  0  0  0  0  0  0  0  0
  -18.8780  -29.7940   23.7450 C   0  0  0  0  0  3  0  0  0  0  0  0
  -17.5610  -30.2860   23.8010 C   0  0  0  0  0  3  0  0  0  0  0  0
  -16.5000  -29.5110   23.3010 C   0  0  0  0  0  3  0  0  0  0  0  0
  -16.7600  -28.2500   22.7380 C   0  0  0  0  0  3  0  0  0  0  0  0
  -25.9080  -32.1390   24.1850 C   0  0  0  0  0  3  0  0  0  0  0  0
  -25.6530  -33.5700   24.4080 N   0  0  0  0  0  0  0  0  0  0  0  0
  -26.0980  -34.5540   23.6160 C   0  0  0  0  0  0  0  0  0  0  0  0
  -26.8380  -34.3530   22.6490 O   0  0  0  0  0  0  0  0  0  0  0  0
  -25.0110  -33.8020   25.1500 H   0  0  0  0  0  0  0  0  0  0  0  0
  -24.5060  -36.4080   23.0190 C   0  0  0  0  0  1  0  0  0  0  0  0
  -25.6550  -35.9920   23.9500 C   0  0  0  0  0  3  0  0  0  0  0  0
  -27.7650  -36.8150   24.9000 C   0  0  0  0  0  1  0  0  0  0  0  0
  -26.7500  -36.9830   23.8630 N   0  0  0  0  0  0  0  0  0  0  0  0
  -26.3850  -37.9280   23.9310 H   0  0  0  0  0  0  0  0  0  0  0  0
  -26.2650  -31.4210   25.5450 C   0  0  1  0  0  0  0  0  0  0  0  0
  -25.0650  -31.2830   26.5100 C   0  0  0  0  0  1  0  0  0  0  0  0
  -26.8230  -30.0020   25.2820 C   0  0  0  0  0  1  0  0  0  0  0  0
  -27.3810  -32.2050   26.2770 C   0  0  0  0  0  1  0  0  0  0  0  0
  1 54  1  0
  2  4  1  0
  5  3  1  0
  6  2  1  0
  6  9  1  0
  7  3  1  0
  8  4  1  0
  8  5  1  0
  9  1  1  0
  9 10  1  0
 10 11  1  6
 10  8  1  0
 10  7  1  0
 12 15  1  0
 12  1  1  0
 13 12  1  0
 14 12  1  0
 16 15  2  0
 16 17  1  0
 18 24  1  0
 18 17  1  0
 19 24  1  0
 20 21  1  0
 20 19  1  0
 22 21  1  0
 22 29  1  0
 22 23  1  0
 24 23  1  0
 25 18  2  0
 26 27  2  0
 27 46  1  0
 28 27  1  0
 28 31  1  0
 29 30  1  0
 29 26  1  0
 30 28  2  0
 31 32  1  0
 32 33  2  0
 34 37  1  0
 34 33  1  0
 35 34  2  0
 36 35  1  0
 36 31  2  0
 37 38  1  0
 38 39  1  0
 39 40  2  0
 41 40  1  0
 41 45  1  0
 42 41  2  0
 43 38  2  0
 43 42  1  0
 44 43  1  0
 46 47  1  0
 47 50  1  0
 47 49  1  0
 48 46  2  0
 51 52  1  0
 51 26  1  0
 53 51  1  0
 54 55  1  0
 56 57  1  0
 56 55  2  0
 58 69  2  0
 59 57  1  0
 59 64  1  0
 60 68  1  0
 60 70  1  0
 61 63  1  0
 62 68  1  0
 63 64  2  0
 63 62  1  0
 65 59  2  0
 66 65  1  0
 66 61  2  0
 67 61  1  0
 67 60  1  0
 68 58  1  0
 70 72  2  0
 71 70  1  0
 73 71  1  0
 74 83  2  0
 74 79  1  0
 75 71  1  0
 75 79  1  0
 76 75  1  0
 77 78  1  0
 77 76  1  0
 78 74  1  0
 79 80  2  0
 80 81  1  0
 82 81  2  0
 83 82  1  0
 84 58  1  0
 84 85  1  0
 84 94  1  0
 85 88  1  0
 86 90  1  0
 86 85  1  0
 87 86  2  0
 90 89  1  0
 92 93  1  0
 92 90  1  0
 92 91  1  0
 94 97  1  1
 94 95  1  0
 96 94  1  0
M  ISO  4  17 100  18 100  56 101  57 101
M  END
>  <TORSDO>  (57) 
F 24

>  <SCORE>  (57) 
-10.333

>  <name>  (57) 
56

>  <ligand_id>  (57) 
56

>  <original_smiles>  (57) 
[H]c1c([H])c([H])c2c(c1[H])C([H])([H])C([H])([H])C([H])([H])C2([H])N([H])C(=O)C1([H])N(C(=O)C([H])(N([H])C(=O)C([H])(N([H])C([H])([H])[H])C([H])([H])[H])C(C([H])([H])[H])(C([H])([H])[H])C([H])([H])[H])C([H])([H])c2c([H])c(OC([H])([H])C([H])([H])C([H])([H])C([H])(C3([H])C([H])([H])C([H])([H])C([H])([H])C4([H])C([H])([H])C([H])([H])C([H])([H])C43C([H])([H])[H])[N+]([H])([H])C([H])([H])C([H])([H])C([H])([H])C(=O)N3C([H])([H])C([H])([H])C([H])([H])C([H])(n4nc(-c5c([H])c([H])c(Oc6c([H])c([H])c(F)c([H])c6F)c([H])c5[H])c(C(=O)N([H])[H])c4N([H])[H])C3([H])[H])c([H])c([H])c2C1([H])[H]

>  <smiles>  (57) 
[H]c1c([H])c([H])c2c(c1[H])C([H])([H])C([H])([H])C([H])([H])C2([H])N([H])C(=O)C1([H])N(C(=O)C([H])(N([H])C(=O)C([H])(N([H])C([H])([H])[H])C([H])([H])[H])C(C([H])([H])[H])(C([H])([H])[H])C([H])([H])[H])C([H])([H])c2c([H])c(OC([H])([H])C([H])([H])C([H])([H])C([H])(C3([H])C([H])([H])C([H])([H])C([H])([H])C4([H])C([H])([H])C([H])([H])C([H])([H])C43C([H])([H])[H])[N+]([H])([H])C([H])([H])C([H])([H])C([H])([H])C(=O)N3C([H])([H])C([H])([H])C([H])([H])C([H])(n4nc(-c5c([H])c([H])c(Oc6c([H])c([H])c(F)c([H])c6F)c([H])c5[H])c(C(=O)N([H])[H])c4N([H])[H])C3([H])[H])c([H])c([H])c2C1([H])[H]

$$$$
57:0:0
     RDKit          3D

 97106  0  0  1  0  0  0  0  0999 V2000
  -29.9380  -24.6090   21.4860 C   0  0  0  0  0  2  0  0  0  0  0  0
  -30.1690  -25.6470   19.3500 C   0  0  0  0  0  2  0  0  0  0  0  0
  -29.1070  -25.1970   20.3510 C   0  0  0  0  0  3  0  0  0  0  0  0
  -31.1020  -25.6050   21.6400 C   0  0  0  0  0  3  0  0  0  0  0  0
  -31.2720  -26.2430   20.2340 C   0  0  0  0  0  3  0  0  0  0  0  0
  -32.9880  -24.8540   19.1280 C   0  0  0  0  0  0  0  0  0  0  0  0
  -32.6120  -25.9850   19.7320 N   0  0  0  0  0  0  0  0  0  0  0  0
  -32.4590  -23.7610   19.3370 O   0  0  0  0  0  0  0  0  0  0  0  0
  -33.1540  -26.8070   19.5020 H   0  0  0  0  0  0  0  0  0  0  0  0
  -34.0250  -25.0290   18.0210 C   0  0  0  0  0  2  0  0  0  0  0  0
  -36.1990  -22.1450   16.6710 C   0  0  0  0  0  2  0  0  0  0  0  0
  -34.8970  -22.9390   16.7160 C   0  0  0  0  0  2  0  0  0  0  0  0
  -36.4750  -24.1950   17.9880 C   0  0  0  0  0  2  0  0  0  0  0  0
  -37.1640  -22.8730   17.6220 C   0  0  0  0  0  3  0  0  0  0  0  0
  -34.9910  -23.8220   17.9710 C   0  0  0  0  0  3  0  0  0  0  0  0
  -38.6060  -22.9790   17.0840 C   0  0  0  0  0  2  0  0  0  0  0  0
  -39.6340  -22.9670   18.2310 C   0  0  0  0  0  0  0  0  0  0  0  0
  -41.0470  -24.1930   19.8540 C   0  0  0  0  0  2  0  0  0  0  0  0
  -40.2880  -24.5460   21.1470 C   0  0  0  0  0  2  0  0  0  0  0  0
  -39.5210  -25.8720   20.9830 C   0  0  0  0  0  2  0  0  0  0  0  0
  -38.6630  -25.8990   19.6930 C   0  0  0  0  0  3  0  0  0  0  0  0
  -39.5040  -25.4660   18.4710 C   0  0  0  0  0  2  0  0  0  0  0  0
  -40.0830  -24.1410   18.7440 N   0  0  0  0  0  0  0  0  0  0  0  0
  -40.0210  -21.8700   18.6470 O   0  0  0  0  0  0  0  0  0  0  0  0
  -36.6980  -27.5450   19.4280 C   0  0  0  0  0  0  0  0  0  0  0  0
  -36.6630  -28.9070   19.2820 C   0  0  0  0  0  0  0  0  0  0  0  0
  -38.0260  -29.3360   19.2590 C   0  0  0  0  0  0  0  0  0  0  0  0
  -38.0420  -27.2050   19.4820 N   0  0  0  0  0  0  0  0  0  0  0  0
  -38.8410  -28.2900   19.3230 N   0  0  0  0  0  0  0  0  0  0  0  0
  -38.6060  -30.6840   19.2360 C   0  0  0  0  0  0  0  0  0  0  0  0
  -39.1970  -31.2140   18.0680 C   0  0  0  0  0  3  0  0  0  0  0  0
  -39.7340  -32.5190   18.0680 C   0  0  0  0  0  3  0  0  0  0  0  0
  -39.6790  -33.3090   19.2390 C   0  0  0  0  0  0  0  0  0  0  0  0
  -39.1100  -32.7690   20.4060 C   0  0  0  0  0  3  0  0  0  0  0  0
  -38.5810  -31.4680   20.4080 C   0  0  0  0  0  3  0  0  0  0  0  0
  -40.1980  -34.5780   19.3380 O   0  0  0  0  0  0  0  0  0  0  0  0
  -39.9640  -35.5280   18.3790 C   0  0  0  0  0  0  0  0  0  0  0  0
  -38.6540  -35.8720   17.9760 C   0  0  0  0  0  3  0  0  0  0  0  0
  -38.4540  -36.9040   17.0360 C   0  0  0  0  0  3  0  0  0  0  0  0
  -39.5600  -37.5970   16.5070 C   0  0  0  0  0  0  0  0  0  0  0  0
  -40.8630  -37.2620   16.9120 C   0  0  0  0  0  3  0  0  0  0  0  0
  -41.0640  -36.2310   17.8470 C   0  0  0  0  0  0  0  0  0  0  0  0
  -42.3200  -35.9240   18.2490 F   0  0  0  0  0  0  0  0  0  0  0  0
  -39.3690  -38.5950   15.6110 F   0  0  0  0  0  0  0  0  0  0  0  0
  -35.4390  -29.7760   19.2660 C   0  0  0  0  0  0  0  0  0  0  0  0
  -35.4800  -30.8800   18.5310 N   0  0  0  0  0  0  0  0  0  0  0  0
  -34.4180  -29.4540   19.8710 O   0  0  0  0  0  0  0  0  0  0  0  0
  -36.3100  -31.1360   18.0170 H   0  0  0  0  0  0  0  0  0  0  0  0
  -34.6680  -31.4780   18.4810 H   0  0  0  0  0  0  0  0  0  0  0  0
  -35.7060  -26.5770   19.5360 N   0  0  0  0  0  0  0  0  0  0  0  0
  -34.7190  -26.8110   19.5460 H   0  0  0  0  0  0  0  0  0  0  0  0
  -35.8800  -25.5910   19.6800 H   0  0  0  0  0  0  0  0  0  0  0  0
  -30.8400  -26.6830   22.7130 C   0  0  0  0  0  2  0  0  0  0  0  0
  -29.3420  -26.3830   24.7290 C   0  0  0  0  0  2  0  0  0  0  0  0
  -30.4790  -26.1090   24.0680 C   0  0  0  0  0  3  0  0  0  0  0  0
  -28.0150  -24.2940   19.7660 C   0  0  0  0  0  2  0  0  0  0  0  0
  -26.9480  -25.1830   19.4770 O   0  0  0  0  0  0  0  0  0  0  0  0
  -29.7780  -26.6830   13.1130 C   0  0  0  0  0  0  0  0  0  0  0  0
  -27.1720  -26.0830   18.4760 C   0  0  0  0  0  0  0  0  0  0  0  0
  -28.8610  -28.6000   14.3830 C   0  0  0  0  0  3  0  0  0  0  0  0
  -27.4900  -28.0030   16.4470 C   0  0  0  0  0  0  0  0  0  0  0  0
  -27.9410  -26.2440   14.7270 C   0  0  0  0  0  2  0  0  0  0  0  0
  -27.6340  -26.6420   16.1520 C   0  0  0  0  0  0  0  0  0  0  0  0
  -27.4870  -25.6720   17.1640 C   0  0  0  0  0  3  0  0  0  0  0  0
  -27.0200  -27.4510   18.7670 C   0  0  0  0  0  3  0  0  0  0  0  0
  -27.1910  -28.4190   17.7580 C   0  0  0  0  0  3  0  0  0  0  0  0
  -27.6620  -28.9670   15.2970 C   0  0  0  0  0  2  0  0  0  0  0  0
  -28.9070  -27.1390   14.0560 N   0  0  0  0  0  0  0  0  0  0  0  0
  -30.5070  -27.4650   12.4860 O   0  0  0  0  0  0  0  0  0  0  0  0
  -30.1590  -29.1230   15.0380 C   0  0  0  0  0  0  0  0  0  0  0  0
  -30.4300  -30.4280   14.8680 N   0  0  0  0  0  0  0  0  0  0  0  0
  -30.8770  -28.3720   15.7030 O   0  0  0  0  0  0  0  0  0  0  0  0
  -29.7920  -30.9740   14.3070 H   0  0  0  0  0  0  0  0  0  0  0  0
  -32.0580  -33.6460   14.9910 C   0  0  0  0  0  0  0  0  0  0  0  0
  -31.5750  -31.1450   15.4250 C   0  0  0  0  0  3  0  0  0  0  0  0
  -31.3150  -31.5560   16.8930 C   0  0  0  0  0  2  0  0  0  0  0  0
  -30.7280  -32.9630   17.0300 C   0  0  0  0  0  2  0  0  0  0  0  0
  -31.6690  -34.0010   16.4150 C   0  0  0  0  0  2  0  0  0  0  0  0
  -32.0000  -32.3070   14.5200 C   0  0  0  0  0  0  0  0  0  0  0  0
  -32.3380  -32.0360   13.1770 C   0  0  0  0  0  3  0  0  0  0  0  0
  -32.7330  -33.0730   12.3120 C   0  0  0  0  0  3  0  0  0  0  0  0
  -32.8080  -34.3930   12.7870 C   0  0  0  0  0  3  0  0  0  0  0  0
  -32.4740  -34.6780   14.1240 C   0  0  0  0  0  3  0  0  0  0  0  0
  -29.8860  -25.1660   12.7610 C   0  0  0  0  0  3  0  0  0  0  0  0
  -30.3170  -25.0680   11.3620 N   0  0  0  0  0  0  0  0  0  0  0  0
  -29.4850  -24.9670   10.3170 C   0  0  0  0  0  0  0  0  0  0  0  0
  -28.2620  -24.8740   10.4420 O   0  0  0  0  0  0  0  0  0  0  0  0
  -31.3010  -25.1970   11.1800 H   0  0  0  0  0  0  0  0  0  0  0  0
  -29.9850  -26.3780    8.2960 C   0  0  0  0  0  1  0  0  0  0  0  0
  -30.1100  -24.9740    8.9080 C   0  0  0  0  0  3  0  0  0  0  0  0
  -29.8440  -22.6000    8.3440 C   0  0  0  0  0  1  0  0  0  0  0  0
  -29.5100  -23.9770    7.9940 N   0  0  0  0  0  0  0  0  0  0  0  0
  -29.8000  -24.1450    7.0340 H   0  0  0  0  0  0  0  0  0  0  0  0
  -30.8730  -24.3780   13.7070 C   0  0  1  0  0  0  0  0  0  0  0  0
  -32.2680  -25.0330   13.8360 C   0  0  0  0  0  1  0  0  0  0  0  0
  -30.2810  -24.2460   15.1300 C   0  0  0  0  0  1  0  0  0  0  0  0
  -31.0700  -22.9370   13.1760 C   0  0  0  0  0  1  0  0  0  0  0  0
  1  4  1  0
  2  5  1  0
  2  3  1  0
  3 56  1  0
  3  1  1  0
  4 53  1  0
  5  7  1  0
  5  4  1  0
  6  8  2  0
  6  7  1  0
  9  7  1  0
 10  6  1  0
 11 12  1  0
 11 14  1  0
 12 15  1  0
 14 16  1  0
 14 13  1  0
 15 13  1  0
 15 10  1  0
 16 17  1  0
 17 24  2  0
 17 23  1  0
 18 19  1  0
 20 19  1  0
 21 22  1  0
 21 20  1  0
 22 23  1  0
 23 18  1  0
 25 28  1  0
 25 50  1  0
 26 25  2  0
 27 26  1  0
 27 29  2  0
 28 21  1  0
 29 28  1  0
 30 27  1  0
 30 35  1  0
 31 32  1  0
 31 30  2  0
 32 33  2  0
 33 36  1  0
 33 34  1  0
 34 35  2  0
 37 36  1  0
 38 37  1  0
 39 38  2  0
 40 41  2  0
 40 39  1  0
 41 42  1  0
 42 43  1  0
 42 37  2  0
 44 40  1  0
 45 26  1  0
 45 47  2  0
 46 45  1  0
 48 46  1  0
 49 46  1  0
 50 51  1  0
 50 52  1  0
 53 55  1  0
 55 54  2  0
 57 56  1  0
 58 68  1  0
 59 65  1  0
 59 57  1  0
 60 70  1  0
 60 67  1  0
 61 66  1  0
 62 63  1  0
 63 61  2  0
 63 64  1  0
 64 59  2  0
 66 65  2  0
 67 61  1  0
 68 60  1  0
 68 62  1  0
 69 58  2  0
 70 72  2  0
 71 70  1  0
 73 71  1  0
 74 78  1  0
 75 71  1  0
 75 76  1  0
 76 77  1  0
 78 77  1  0
 79 74  1  0
 79 75  1  0
 80 79  2  0
 81 82  2  0
 81 80  1  0
 82 83  1  0
 83 74  2  0
 84 58  1  0
 84 94  1  0
 85 84  1  0
 86 87  2  0
 86 85  1  0
 88 85  1  0
 90 89  1  0
 90 86  1  0
 92 91  1  0
 92 90  1  0
 93 92  1  0
 94 95  1  1
 94 96  1  0
 97 94  1  0
M  ISO  4  16 100  17 100  56 101  57 101
M  END
>  <TORSDO>  (58) 
F 23

>  <SCORE>  (58) 
-0.803

>  <name>  (58) 
57

>  <ligand_id>  (58) 
57

>  <original_smiles>  (58) 
[H]C([H])=C([H])C([H])([H])C1([H])C([H])([H])C([H])(C([H])([H])Oc2c([H])c([H])c3c(c2[H])C([H])([H])N(C(=O)C([H])(N([H])C(=O)C([H])(N([H])C([H])([H])[H])C([H])([H])[H])C(C([H])([H])[H])(C([H])([H])[H])C([H])([H])[H])C([H])(C(=O)N([H])C2([H])c4c([H])c([H])c([H])c([H])c4C([H])([H])C([H])([H])C2([H])[H])C3([H])[H])C([H])([H])C1([H])N([H])C(=O)C([H])([H])C1([H])C([H])([H])C([H])([H])C([H])(C([H])([H])C(=O)N2C([H])([H])C([H])([H])C([H])([H])C([H])(n3nc(-c4c([H])c([H])c(Oc5c([H])c([H])c(F)c([H])c5F)c([H])c4[H])c(C(=O)N([H])[H])c3N([H])[H])C2([H])[H])C1([H])[H]

>  <smiles>  (58) 
[H]C([H])=C([H])C([H])([H])C1([H])C([H])([H])C([H])(C([H])([H])Oc2c([H])c([H])c3c(c2[H])C([H])([H])N(C(=O)C([H])(N([H])C(=O)C([H])(N([H])C([H])([H])[H])C([H])([H])[H])C(C([H])([H])[H])(C([H])([H])[H])C([H])([H])[H])C([H])(C(=O)N([H])C2([H])c4c([H])c([H])c([H])c([H])c4C([H])([H])C([H])([H])C2([H])[H])C3([H])[H])C([H])([H])C1([H])N([H])C(=O)C([H])([H])C1([H])C([H])([H])C([H])([H])C([H])(C([H])([H])C(=O)N2C([H])([H])C([H])([H])C([H])([H])C([H])(n3nc(-c4c([H])c([H])c(Oc5c([H])c([H])c(F)c([H])c5F)c([H])c4[H])c(C(=O)N([H])[H])c3N([H])[H])C2([H])[H])C1([H])[H]

$$$$
58:0:0
     RDKit          3D

 93101  0  0  1  0  0  0  0  0999 V2000
  -30.9780  -24.7670   19.7190 C   0  0  0  0  0  2  0  0  0  0  0  0
  -31.0440  -23.2370   19.4970 C   0  0  0  0  0  2  0  0  0  0  0  0
  -29.8830  -25.0060   20.7720 C   0  0  0  0  0  3  0  0  0  0  0  0
  -28.9590  -23.7620   20.6150 C   0  0  0  0  0  3  0  0  0  0  0  0
  -30.0050  -22.6100   20.4500 C   0  0  0  0  0  3  0  0  0  0  0  0
  -29.4730  -21.2820   20.0030 N   0  0  0  0  0  4  0  0  0  0  0  0
  -29.0470  -21.3750   19.0940 H   0  0  0  0  0  0  0  0  0  0  0  0
  -28.7430  -21.0300   20.6490 H   0  0  0  0  0  0  0  0  0  0  0  0
  -30.4510  -20.1440   19.9720 C   0  0  0  0  0  2  0  0  0  0  0  0
  -29.7990  -18.7270   20.1190 C   0  0  0  0  0  2  0  0  0  0  0  0
  -30.7770  -17.5120   19.9840 C   0  0  0  0  0  3  0  0  0  0  0  0
  -30.2060  -16.1230   20.4450 C   0  0  0  0  0  3  0  0  0  0  0  0
  -30.9500  -14.8570   19.9170 C   0  0  0  0  0  0  0  0  0  0  0  0
  -30.6920  -12.5840   18.9610 C   0  0  0  0  0  2  0  0  0  0  0  0
  -29.7070  -12.6580   17.7740 C   0  0  0  0  0  2  0  0  0  0  0  0
  -28.2490  -12.5230   18.2590 C   0  0  0  0  0  2  0  0  0  0  0  0
  -27.9300  -13.4620   19.4520 C   0  0  0  0  0  3  0  0  0  0  0  0
  -29.0230  -13.3680   20.5400 C   0  0  0  0  0  2  0  0  0  0  0  0
  -30.3220  -13.6470   19.9110 N   0  0  0  0  0  0  0  0  0  0  0  0
  -32.0630  -15.0060   19.4040 O   0  0  0  0  0  0  0  0  0  0  0  0
  -25.5850  -14.1120   20.2860 C   0  0  0  0  0  0  0  0  0  0  0  0
  -24.5190  -13.3580   20.6980 C   0  0  0  0  0  0  0  0  0  0  0  0
  -24.9500  -11.9980   20.6320 C   0  0  0  0  0  0  0  0  0  0  0  0
  -26.5970  -13.2120   19.9950 N   0  0  0  0  0  0  0  0  0  0  0  0
  -26.2220  -11.9340   20.2620 N   0  0  0  0  0  0  0  0  0  0  0  0
  -24.2080  -10.7490   20.8440 C   0  0  0  0  0  0  0  0  0  0  0  0
  -24.6170   -9.8000   21.8070 C   0  0  0  0  0  3  0  0  0  0  0  0
  -23.8760   -8.6150   22.0050 C   0  0  0  0  0  3  0  0  0  0  0  0
  -22.7110   -8.3710   21.2400 C   0  0  0  0  0  0  0  0  0  0  0  0
  -22.3200   -9.3080   20.2670 C   0  0  0  0  0  3  0  0  0  0  0  0
  -23.0620  -10.4850   20.0680 C   0  0  0  0  0  3  0  0  0  0  0  0
  -21.9410   -7.2370   21.3460 O   0  0  0  0  0  0  0  0  0  0  0  0
  -21.8330   -6.5500   22.5270 C   0  0  0  0  0  0  0  0  0  0  0  0
  -21.3080   -7.1490   23.6930 C   0  0  0  0  0  3  0  0  0  0  0  0
  -21.1490   -6.3870   24.8670 C   0  0  0  0  0  3  0  0  0  0  0  0
  -21.5040   -5.0240   24.8750 C   0  0  0  0  0  0  0  0  0  0  0  0
  -22.0220   -4.4240   23.7140 C   0  0  0  0  0  3  0  0  0  0  0  0
  -22.1830   -5.1850   22.5420 C   0  0  0  0  0  0  0  0  0  0  0  0
  -22.6630   -4.5950   21.4200 F   0  0  0  0  0  0  0  0  0  0  0  0
  -21.3450   -4.2880   26.0000 F   0  0  0  0  0  0  0  0  0  0  0  0
  -23.1470  -13.8600   21.0430 C   0  0  0  0  0  0  0  0  0  0  0  0
  -22.4460  -13.1670   21.9340 N   0  0  0  0  0  0  0  0  0  0  0  0
  -22.7060  -14.9020   20.5580 O   0  0  0  0  0  0  0  0  0  0  0  0
  -22.8160  -12.3240   22.3460 H   0  0  0  0  0  0  0  0  0  0  0  0
  -21.5270  -13.4840   22.2080 H   0  0  0  0  0  0  0  0  0  0  0  0
  -25.7700  -15.4810   20.1140 N   0  0  0  0  0  0  0  0  0  0  0  0
  -25.0250  -16.1510   20.2680 H   0  0  0  0  0  0  0  0  0  0  0  0
  -26.6160  -15.9050   19.7570 H   0  0  0  0  0  0  0  0  0  0  0  0
  -26.6920  -22.7480   21.3130 C   0  0  0  0  0  1  0  0  0  0  0  0
  -28.4600  -23.0940   23.0930 C   0  0  0  0  0  1  0  0  0  0  0  0
  -27.9020  -23.5940   21.7460 C   0  0  0  0  0  3  0  0  0  0  0  0
  -29.2830  -26.4530   20.8270 C   0  0  0  0  0  2  0  0  0  0  0  0
  -28.7640  -26.9580   19.5920 O   0  0  0  0  0  0  0  0  0  0  0  0
  -24.6580  -31.7380   23.0370 C   0  0  0  0  0  0  0  0  0  0  0  0
  -27.5920  -27.6800   19.6850 C   0  0  0  0  0  0  0  0  0  0  0  0
  -23.5520  -30.3790   21.2900 C   0  0  0  0  0  3  0  0  0  0  0  0
  -25.1110  -29.0390   19.7760 C   0  0  0  0  0  0  0  0  0  0  0  0
  -26.0530  -30.9040   21.1450 C   0  0  0  0  0  2  0  0  0  0  0  0
  -26.2300  -29.5850   20.4190 C   0  0  0  0  0  0  0  0  0  0  0  0
  -27.4750  -28.9090   20.3820 C   0  0  0  0  0  3  0  0  0  0  0  0
  -26.4610  -27.1580   19.0300 C   0  0  0  0  0  3  0  0  0  0  0  0
  -25.2210  -27.8230   19.0800 C   0  0  0  0  0  3  0  0  0  0  0  0
  -23.8130  -29.8110   19.8700 C   0  0  0  0  0  2  0  0  0  0  0  0
  -24.7700  -31.0210   21.8830 N   0  0  0  0  0  0  0  0  0  0  0  0
  -23.5580  -31.9040   23.5840 O   0  0  0  0  0  0  0  0  0  0  0  0
  -22.9610  -29.2560   22.1730 C   0  0  0  0  0  0  0  0  0  0  0  0
  -21.6430  -29.0280   22.0530 N   0  0  0  0  0  0  0  0  0  0  0  0
  -23.6860  -28.5950   22.9220 O   0  0  0  0  0  0  0  0  0  0  0  0
  -21.1170  -29.6180   21.4220 H   0  0  0  0  0  0  0  0  0  0  0  0
  -18.3200  -27.7040   22.5660 C   0  0  0  0  0  0  0  0  0  0  0  0
  -20.8820  -27.9950   22.7540 C   0  0  0  0  0  3  0  0  0  0  0  0
  -20.9880  -26.6350   22.0270 C   0  0  0  0  0  2  0  0  0  0  0  0
  -19.8470  -26.3930   21.0320 C   0  0  0  0  0  2  0  0  0  0  0  0
  -18.4930  -26.4360   21.7460 C   0  0  0  0  0  2  0  0  0  0  0  0
  -19.4410  -28.4440   23.0260 C   0  0  0  0  0  0  0  0  0  0  0  0
  -19.2240  -29.6350   23.7540 C   0  0  0  0  0  3  0  0  0  0  0  0
  -17.9180  -30.0840   24.0260 C   0  0  0  0  0  3  0  0  0  0  0  0
  -16.8120  -29.3380   23.5830 C   0  0  0  0  0  3  0  0  0  0  0  0
  -17.0140  -28.1500   22.8580 C   0  0  0  0  0  3  0  0  0  0  0  0
  -25.8980  -32.4050   23.7090 C   0  0  0  0  0  3  0  0  0  0  0  0
  -25.5100  -33.7660   24.1050 N   0  0  0  0  0  0  0  0  0  0  0  0
  -25.7960  -34.8710   23.4040 C   0  0  0  0  0  0  0  0  0  0  0  0
  -26.4860  -34.8560   22.3810 O   0  0  0  0  0  0  0  0  0  0  0  0
  -24.8960  -33.8470   24.9010 H   0  0  0  0  0  0  0  0  0  0  0  0
  -23.9750  -36.5800   23.1130 C   0  0  0  0  0  1  0  0  0  0  0  0
  -25.2270  -36.2060   23.9220 C   0  0  0  0  0  3  0  0  0  0  0  0
  -27.2940  -37.1690   24.8310 C   0  0  0  0  0  1  0  0  0  0  0  0
  -26.2010  -37.3180   23.8750 N   0  0  0  0  0  0  0  0  0  0  0  0
  -25.7410  -38.2070   24.0560 H   0  0  0  0  0  0  0  0  0  0  0  0
  -26.4420  -31.5960   24.9510 C   0  0  1  0  0  0  0  0  0  0  0  0
  -25.3510  -31.2430   25.9870 C   0  0  0  0  0  1  0  0  0  0  0  0
  -27.1050  -30.2750   24.4930 C   0  0  0  0  0  1  0  0  0  0  0  0
  -27.5380  -32.4160   25.6700 C   0  0  0  0  0  1  0  0  0  0  0  0
  1  3  1  0
  2  1  1  0
  2  5  1  0
  3 52  1  0
  4  3  1  0
  4 51  1  0
  5  6  1  0
  5  4  1  0
  6  8  1  0
  7  6  1  0
  9  6  1  0
  9 10  1  0
 11 10  1  0
 11 12  2  0
 13 12  1  0
 14 19  1  0
 15 16  1  0
 15 14  1  0
 17 16  1  0
 17 24  1  0
 17 18  1  0
 19 13  1  0
 19 18  1  0
 20 13  2  0
 21 22  2  0
 22 41  1  0
 23 22  1  0
 23 26  1  0
 24 25  1  0
 24 21  1  0
 25 23  2  0
 26 27  1  0
 27 28  2  0
 29 32  1  0
 29 28  1  0
 30 29  2  0
 31 30  1  0
 31 26  2  0
 32 33  1  0
 33 38  2  0
 33 34  1  0
 34 35  2  0
 35 36  1  0
 36 40  1  0
 37 36  2  0
 38 37  1  0
 39 38  1  0
 41 42  1  0
 42 45  1  0
 42 44  1  0
 43 41  2  0
 46 47  1  0
 46 21  1  0
 48 46  1  0
 49 51  1  0
 51 50  1  0
 53 55  1  0
 53 52  1  0
 54 65  2  0
 55 60  1  0
 56 64  1  0
 56 66  1  0
 57 63  1  0
 57 59  1  0
 58 64  1  0
 59 58  1  0
 60 59  2  0
 61 62  1  0
 61 55  2  0
 62 57  2  0
 63 56  1  0
 64 54  1  0
 66 68  2  0
 67 66  1  0
 69 67  1  0
 70 79  2  0
 70 75  1  0
 71 67  1  0
 71 75  1  0
 72 71  1  0
 73 74  1  0
 73 72  1  0
 74 70  1  0
 75 76  2  0
 76 77  1  0
 78 77  2  0
 79 78  1  0
 80 54  1  0
 80 81  1  0
 80 90  1  0
 81 84  1  0
 82 86  1  0
 82 81  1  0
 83 82  2  0
 86 85  1  0
 88 86  1  0
 88 89  1  0
 88 87  1  0
 90 93  1  1
 90 91  1  0
 92 90  1  0
M  ISO  4  12 100  13 100  52 101  53 101
M  END
>  <TORSDO>  (59) 
F 23

>  <SCORE>  (59) 
-11.001

>  <name>  (59) 
58

>  <ligand_id>  (59) 
58

>  <original_smiles>  (59) 
[H]c1c([H])c([H])c2c(c1[H])C([H])([H])C([H])([H])C([H])([H])C2([H])N([H])C(=O)C1([H])N(C(=O)C([H])(N([H])C(=O)C([H])(N([H])C([H])([H])[H])C([H])([H])[H])C(C([H])([H])[H])(C([H])([H])[H])C([H])([H])[H])C([H])([H])c2c([H])c(OC([H])([H])C3([H])C([H])([H])C([H])([H])C([H])([N+]([H])([H])C([H])([H])C([H])([H])C([H])([H])C([H])([H])C(=O)N4C([H])([H])C([H])([H])C([H])([H])C([H])(n5nc(-c6c([H])c([H])c(Oc7c([H])c([H])c(F)c([H])c7F)c([H])c6[H])c(C(=O)N([H])[H])c5N([H])[H])C4([H])[H])C3([H])C([H])(C([H])([H])[H])C([H])([H])[H])c([H])c([H])c2C1([H])[H]

>  <smiles>  (59) 
[H]c1c([H])c([H])c2c(c1[H])C([H])([H])C([H])([H])C([H])([H])C2([H])N([H])C(=O)C1([H])N(C(=O)C([H])(N([H])C(=O)C([H])(N([H])C([H])([H])[H])C([H])([H])[H])C(C([H])([H])[H])(C([H])([H])[H])C([H])([H])[H])C([H])([H])c2c([H])c(OC([H])([H])C3([H])C([H])([H])C([H])([H])C([H])([N+]([H])([H])C([H])([H])C([H])([H])C([H])([H])C([H])([H])C(=O)N4C([H])([H])C([H])([H])C([H])([H])C([H])(n5nc(-c6c([H])c([H])c(Oc7c([H])c([H])c(F)c([H])c7F)c([H])c6[H])c(C(=O)N([H])[H])c5N([H])[H])C4([H])[H])C3([H])C([H])(C([H])([H])[H])C([H])([H])[H])c([H])c([H])c2C1([H])[H]

$$$$
59:0:0
     RDKit          3D

 98107  0  0  1  0  0  0  0  0999 V2000
  -29.8440  -23.1690   22.7070 C   0  0  0  0  0  3  0  0  0  0  0  0
  -29.2780  -22.7040   19.6140 C   0  0  0  0  0  2  0  0  0  0  0  0
  -29.1560  -21.3130   20.2280 C   0  0  0  0  0  2  0  0  0  0  0  0
  -31.5640  -21.7850   19.9200 C   0  0  0  0  0  2  0  0  0  0  0  0
  -30.6700  -23.0180   20.1370 C   0  0  0  0  0  3  0  0  0  0  0  0
  -30.8050  -22.6160   21.6270 C   0  0  0  0  0  3  0  0  0  0  0  0
  -30.5250  -21.2520   20.9240 C   0  0  1  0  0  0  0  0  0  0  0  0
  -30.7750  -19.9350   21.6630 C   0  0  0  0  0  2  0  0  0  0  0  0
  -31.2180  -18.7830   20.7480 C   0  0  0  0  0  2  0  0  0  0  0  0
  -30.9620  -17.4060   21.3780 C   0  0  0  0  0  2  0  0  0  0  0  0
  -31.4090  -16.2610   20.4560 C   0  0  0  0  0  2  0  0  0  0  0  0
  -30.7450  -14.9160   20.8130 C   0  0  0  0  0  2  0  0  0  0  0  0
  -31.1850  -13.7480   19.9130 C   0  0  0  0  0  0  0  0  0  0  0  0
  -30.7480  -11.4880   19.0120 C   0  0  0  0  0  2  0  0  0  0  0  0
  -29.7350  -11.5340   17.8530 C   0  0  0  0  0  2  0  0  0  0  0  0
  -28.2890  -11.4960   18.3860 C   0  0  0  0  0  2  0  0  0  0  0  0
  -28.0430  -12.5280   19.5190 C   0  0  0  0  0  3  0  0  0  0  0  0
  -29.1540  -12.4360   20.5890 C   0  0  0  0  0  2  0  0  0  0  0  0
  -30.4530  -12.6070   19.9180 N   0  0  0  0  0  0  0  0  0  0  0  0
  -32.1840  -13.8870   19.2000 O   0  0  0  0  0  0  0  0  0  0  0  0
  -25.7720  -13.3340   20.4330 C   0  0  0  0  0  0  0  0  0  0  0  0
  -24.6720  -12.6520   20.8770 C   0  0  0  0  0  0  0  0  0  0  0  0
  -25.0030  -11.2650   20.7820 C   0  0  0  0  0  0  0  0  0  0  0  0
  -26.7120  -12.3680   20.1030 N   0  0  0  0  0  0  0  0  0  0  0  0
  -26.2540  -11.1180   20.3660 N   0  0  0  0  0  0  0  0  0  0  0  0
  -24.1830  -10.0680   21.0110 C   0  0  0  0  0  0  0  0  0  0  0  0
  -24.5480   -9.0960   21.9680 C   0  0  0  0  0  3  0  0  0  0  0  0
  -23.7330   -7.9620   22.1820 C   0  0  0  0  0  3  0  0  0  0  0  0
  -22.5410   -7.7940   21.4400 C   0  0  0  0  0  0  0  0  0  0  0  0
  -22.1940   -8.7540   20.4730 C   0  0  0  0  0  3  0  0  0  0  0  0
  -23.0080   -9.8790   20.2560 C   0  0  0  0  0  3  0  0  0  0  0  0
  -21.7030   -6.7130   21.5620 O   0  0  0  0  0  0  0  0  0  0  0  0
  -21.5510   -6.0500   22.7550 C   0  0  0  0  0  0  0  0  0  0  0  0
  -21.0730   -6.7020   23.9120 C   0  0  0  0  0  3  0  0  0  0  0  0
  -20.8670   -5.9680   25.0980 C   0  0  0  0  0  3  0  0  0  0  0  0
  -21.1280   -4.5840   25.1250 C   0  0  0  0  0  0  0  0  0  0  0  0
  -21.5980   -3.9330   23.9710 C   0  0  0  0  0  3  0  0  0  0  0  0
  -21.8060   -4.6650   22.7880 C   0  0  0  0  0  0  0  0  0  0  0  0
  -22.2400   -4.0290   21.6730 F   0  0  0  0  0  0  0  0  0  0  0  0
  -20.9220   -3.8780   26.2600 F   0  0  0  0  0  0  0  0  0  0  0  0
  -23.3510  -13.2440   21.2780 C   0  0  0  0  0  0  0  0  0  0  0  0
  -22.6390  -12.5950   22.1910 N   0  0  0  0  0  0  0  0  0  0  0  0
  -22.9640  -14.3160   20.8130 O   0  0  0  0  0  0  0  0  0  0  0  0
  -22.9650  -11.7250   22.5870 H   0  0  0  0  0  0  0  0  0  0  0  0
  -21.7550  -12.9730   22.5010 H   0  0  0  0  0  0  0  0  0  0  0  0
  -26.0490  -14.6880   20.2650 N   0  0  0  0  0  0  0  0  0  0  0  0
  -25.3640  -15.4120   20.4520 H   0  0  0  0  0  0  0  0  0  0  0  0
  -26.9150  -15.0510   19.8870 H   0  0  0  0  0  0  0  0  0  0  0  0
  -30.3610  -24.4180   23.3180 N   0  0  0  0  0  4  0  0  0  0  0  0
  -29.7510  -24.6990   24.0700 H   0  0  0  0  0  0  0  0  0  0  0  0
  -31.2540  -24.2060   23.7360 H   0  0  0  0  0  0  0  0  0  0  0  0
  -30.5410  -25.5790   22.4110 C   0  0  0  0  0  2  0  0  0  0  0  0
  -29.2260  -26.1870   21.8670 C   0  0  0  0  0  2  0  0  0  0  0  0
  -28.5200  -25.3730   20.7600 C   0  0  0  0  0  2  0  0  0  0  0  0
  -28.0770  -26.1540   19.6560 O   0  0  0  0  0  0  0  0  0  0  0  0
  -24.9340  -31.3980   23.2960 C   0  0  0  0  0  0  0  0  0  0  0  0
  -26.9640  -26.9300   19.8580 C   0  0  0  0  0  0  0  0  0  0  0  0
  -23.4960  -30.1930   21.6780 C   0  0  0  0  0  3  0  0  0  0  0  0
  -24.7060  -28.5990   20.0980 C   0  0  0  0  0  0  0  0  0  0  0  0
  -26.0200  -30.3470   21.3190 C   0  0  0  0  0  2  0  0  0  0  0  0
  -25.9380  -29.0070   20.6250 C   0  0  0  0  0  0  0  0  0  0  0  0
  -27.0720  -28.1800   20.5000 C   0  0  0  0  0  3  0  0  0  0  0  0
  -25.7210  -26.5220   19.3350 C   0  0  0  0  0  3  0  0  0  0  0  0
  -24.5880  -27.3530   19.4550 C   0  0  0  0  0  3  0  0  0  0  0  0
  -23.5490  -29.5590   20.2610 C   0  0  0  0  0  2  0  0  0  0  0  0
  -24.8390  -30.6550   22.1560 N   0  0  0  0  0  0  0  0  0  0  0  0
  -23.9220  -31.7380   23.9220 O   0  0  0  0  0  0  0  0  0  0  0  0
  -22.8160  -29.1910   22.6370 C   0  0  0  0  0  0  0  0  0  0  0  0
  -21.4910  -29.0340   22.4950 N   0  0  0  0  0  0  0  0  0  0  0  0
  -23.4800  -28.5540   23.4610 O   0  0  0  0  0  0  0  0  0  0  0  0
  -21.0220  -29.5970   21.8000 H   0  0  0  0  0  0  0  0  0  0  0  0
  -18.1130  -27.8040   22.8470 C   0  0  0  0  0  0  0  0  0  0  0  0
  -20.6460  -28.1160   23.2580 C   0  0  0  0  0  3  0  0  0  0  0  0
  -20.8040  -26.6630   22.7530 C   0  0  0  0  0  2  0  0  0  0  0  0
  -19.7680  -26.2780   21.6900 C   0  0  0  0  0  2  0  0  0  0  0  0
  -18.3490  -26.4290   22.2440 C   0  0  0  0  0  2  0  0  0  0  0  0
  -19.1930  -28.6020   23.3100 C   0  0  0  0  0  0  0  0  0  0  0  0
  -18.9200  -29.8880   23.8270 C   0  0  0  0  0  3  0  0  0  0  0  0
  -17.6010  -30.3750   23.8880 C   0  0  0  0  0  3  0  0  0  0  0  0
  -16.5350  -29.5730   23.4450 C   0  0  0  0  0  3  0  0  0  0  0  0
  -16.7920  -28.2900   22.9310 C   0  0  0  0  0  3  0  0  0  0  0  0
  -26.3140  -31.8720   23.8500 C   0  0  0  0  0  3  0  0  0  0  0  0
  -26.1660  -33.2750   24.2570 N   0  0  0  0  0  0  0  0  0  0  0  0
  -26.5740  -34.3230   23.5290 C   0  0  0  0  0  0  0  0  0  0  0  0
  -27.1870  -34.2030   22.4660 O   0  0  0  0  0  0  0  0  0  0  0  0
  -25.6250  -33.4510   25.0900 H   0  0  0  0  0  0  0  0  0  0  0  0
  -25.0290  -36.2940   23.3310 C   0  0  0  0  0  1  0  0  0  0  0  0
  -26.2510  -35.7290   24.0700 C   0  0  0  0  0  3  0  0  0  0  0  0
  -28.4920  -36.3560   24.8520 C   0  0  0  0  0  1  0  0  0  0  0  0
  -27.3820  -36.6760   23.9580 N   0  0  0  0  0  0  0  0  0  0  0  0
  -27.0790  -37.6260   24.1580 H   0  0  0  0  0  0  0  0  0  0  0  0
  -26.8360  -30.9940   25.0530 C   0  0  1  0  0  0  0  0  0  0  0  0
  -25.7950  -30.8100   26.1820 C   0  0  0  0  0  1  0  0  0  0  0  0
  -27.2510  -29.5890   24.5550 C   0  0  0  0  0  1  0  0  0  0  0  0
  -28.1000  -31.6420   25.6670 C   0  0  0  0  0  1  0  0  0  0  0  0
  -29.5130  -22.1420   23.8150 C   0  0  0  0  0  2  0  0  0  0  0  0
  -30.1720  -20.0690   25.1500 C   0  0  0  0  0  1  0  0  0  0  0  0
  -30.6460  -21.1630   24.1870 C   0  0  0  0  0  2  0  0  0  0  0  0
  1 49  1  0
  1 96  1  0
  2  3  1  0
  3  7  1  0
  4  5  1  0
  4  7  1  0
  5  2  1  0
  5  6  1  0
  6  1  1  0
  7  6  1  0
  7  8  1  1
  9 10  1  0
  9  8  1  0
 11 12  1  0
 11 10  1  0
 13 19  1  0
 13 12  1  0
 14 19  1  0
 15 16  1  0
 15 14  1  0
 17 16  1  0
 17 24  1  0
 17 18  1  0
 19 18  1  0
 20 13  2  0
 21 22  2  0
 22 41  1  0
 23 22  1  0
 23 26  1  0
 24 25  1  0
 24 21  1  0
 25 23  2  0
 26 27  1  0
 27 28  2  0
 29 32  1  0
 29 28  1  0
 30 29  2  0
 31 30  1  0
 31 26  2  0
 32 33  1  0
 33 38  2  0
 33 34  1  0
 34 35  2  0
 35 36  1  0
 36 40  1  0
 37 36  2  0
 38 37  1  0
 39 38  1  0
 41 42  1  0
 42 45  1  0
 42 44  1  0
 43 41  2  0
 46 21  1  0
 46 47  1  0
 48 46  1  0
 49 51  1  0
 49 50  1  0
 52 49  1  0
 53 52  1  0
 54 53  1  0
 55 57  1  0
 55 54  1  0
 56 67  2  0
 57 62  1  0
 58 66  1  0
 58 68  1  0
 59 65  1  0
 59 61  1  0
 60 66  1  0
 61 60  1  0
 62 61  2  0
 63 64  1  0
 63 57  2  0
 64 59  2  0
 65 58  1  0
 66 56  1  0
 68 70  2  0
 69 68  1  0
 71 69  1  0
 72 81  2  0
 72 77  1  0
 73 69  1  0
 73 77  1  0
 74 73  1  0
 75 76  1  0
 75 74  1  0
 76 72  1  0
 77 78  2  0
 78 79  1  0
 80 79  2  0
 81 80  1  0
 82 56  1  0
 82 83  1  0
 82 92  1  0
 83 86  1  0
 84 88  1  0
 84 83  1  0
 85 84  2  0
 88 87  1  0
 90 88  1  0
 90 91  1  0
 90 89  1  0
 92 95  1  1
 92 93  1  0
 94 92  1  0
 96 98  1  0
 98 97  1  0
M  ISO  4  12 100  13 100  54 101  55 101
M  END
>  <TORSDO>  (60) 
F 28

>  <SCORE>  (60) 
-8.926

>  <name>  (60) 
59

>  <ligand_id>  (60) 
59

>  <original_smiles>  (60) 
[H]c1c([H])c([H])c2c(c1[H])C([H])([H])C([H])([H])C([H])([H])C2([H])N([H])C(=O)C1([H])N(C(=O)C([H])(N([H])C(=O)C([H])(N([H])C([H])([H])[H])C([H])([H])[H])C(C([H])([H])[H])(C([H])([H])[H])C([H])([H])[H])C([H])([H])c2c([H])c(OC([H])([H])C([H])([H])C([H])([H])[N+]([H])([H])C([H])(C([H])([H])C([H])([H])C([H])([H])[H])C3([H])C4([H])C([H])([H])C([H])([H])C3(C([H])([H])C([H])([H])C([H])([H])C([H])([H])C([H])([H])C(=O)N3C([H])([H])C([H])([H])C([H])([H])C([H])(n5nc(-c6c([H])c([H])c(Oc7c([H])c([H])c(F)c([H])c7F)c([H])c6[H])c(C(=O)N([H])[H])c5N([H])[H])C3([H])[H])C4([H])[H])c([H])c([H])c2C1([H])[H]

>  <smiles>  (60) 
[H]c1c([H])c([H])c2c(c1[H])C([H])([H])C([H])([H])C([H])([H])C2([H])N([H])C(=O)C1([H])N(C(=O)C([H])(N([H])C(=O)C([H])(N([H])C([H])([H])[H])C([H])([H])[H])C(C([H])([H])[H])(C([H])([H])[H])C([H])([H])[H])C([H])([H])c2c([H])c(OC([H])([H])C([H])([H])C([H])([H])[N+]([H])([H])C([H])(C([H])([H])C([H])([H])C([H])([H])[H])C3([H])C4([H])C([H])([H])C([H])([H])C3(C([H])([H])C([H])([H])C([H])([H])C([H])([H])C([H])([H])C(=O)N3C([H])([H])C([H])([H])C([H])([H])C([H])(n5nc(-c6c([H])c([H])c(Oc7c([H])c([H])c(F)c([H])c7F)c([H])c6[H])c(C(=O)N([H])[H])c5N([H])[H])C3([H])[H])C4([H])[H])c([H])c([H])c2C1([H])[H]

$$$$
60:0:0
     RDKit          3D

 92101  0  0  1  0  0  0  0  0999 V2000
  -28.9200  -22.9630   18.1550 C   0  0  0  0  0  2  0  0  0  0  0  0
  -29.1780  -20.3330   18.2550 C   0  0  0  0  0  2  0  0  0  0  0  0
  -30.4780  -20.8250   20.2390 C   0  0  0  0  0  2  0  0  0  0  0  0
  -29.7780  -21.7140   18.0930 C   0  0  0  0  0  3  0  0  0  0  0  0
  -30.3850  -22.1200   19.4100 C   0  0  0  0  0  3  0  0  0  0  0  0
  -29.2110  -23.0070   19.5890 N   0  0  0  0  0  0  0  0  0  0  0  0
  -29.8190  -19.7180   19.4580 N   0  0  2  0  0  4  0  0  0  0  0  0
  -29.0600  -19.4030   20.0440 H   0  0  0  0  0  0  0  0  0  0  0  0
  -29.7980  -17.4090   18.3860 C   0  0  0  0  0  1  0  0  0  0  0  0
  -30.6310  -18.4890   19.1190 C   0  0  0  0  0  3  0  0  0  0  0  0
  -31.4640  -17.8300   20.2640 C   0  0  0  0  0  2  0  0  0  0  0  0
  -30.7750  -17.0690   21.4390 C   0  0  0  0  0  2  0  0  0  0  0  0
  -29.9870  -15.7320   21.2280 C   0  0  0  0  0  2  0  0  0  0  0  0
  -30.7000  -14.5210   20.5720 C   0  0  0  0  0  0  0  0  0  0  0  0
  -30.3960  -12.3850   19.3630 C   0  0  0  0  0  2  0  0  0  0  0  0
  -29.4670  -12.6330   18.1550 C   0  0  0  0  0  2  0  0  0  0  0  0
  -27.9840  -12.4970   18.5610 C   0  0  0  0  0  2  0  0  0  0  0  0
  -27.6420  -13.3050   19.8410 C   0  0  0  0  0  3  0  0  0  0  0  0
  -28.6870  -13.0480   20.9510 C   0  0  0  0  0  2  0  0  0  0  0  0
  -30.0200  -13.3510   20.4070 N   0  0  0  0  0  0  0  0  0  0  0  0
  -31.8270  -14.6860   20.1020 O   0  0  0  0  0  0  0  0  0  0  0  0
  -25.2310  -13.9220   20.5050 C   0  0  0  0  0  0  0  0  0  0  0  0
  -24.1550  -13.1560   20.8630 C   0  0  0  0  0  0  0  0  0  0  0  0
  -24.6130  -11.8030   20.8510 C   0  0  0  0  0  0  0  0  0  0  0  0
  -26.2780  -13.0370   20.2980 N   0  0  0  0  0  0  0  0  0  0  0  0
  -25.9070  -11.7580   20.5620 N   0  0  0  0  0  0  0  0  0  0  0  0
  -23.8800  -10.5450   21.0390 C   0  0  0  0  0  0  0  0  0  0  0  0
  -24.3050   -9.5750   21.9740 C   0  0  0  0  0  3  0  0  0  0  0  0
  -23.5720   -8.3820   22.1520 C   0  0  0  0  0  3  0  0  0  0  0  0
  -22.3990   -8.1490   21.3930 C   0  0  0  0  0  0  0  0  0  0  0  0
  -21.9950   -9.1080   20.4480 C   0  0  0  0  0  3  0  0  0  0  0  0
  -22.7290  -10.2940   20.2690 C   0  0  0  0  0  3  0  0  0  0  0  0
  -21.6380   -7.0100   21.4800 O   0  0  0  0  0  0  0  0  0  0  0  0
  -21.5900   -6.2600   22.6290 C   0  0  0  0  0  0  0  0  0  0  0  0
  -21.1870   -6.8160   23.8630 C   0  0  0  0  0  3  0  0  0  0  0  0
  -21.0840   -5.9950   25.0040 C   0  0  0  0  0  3  0  0  0  0  0  0
  -21.3750   -4.6210   24.9110 C   0  0  0  0  0  0  0  0  0  0  0  0
  -21.7730   -4.0650   23.6830 C   0  0  0  0  0  3  0  0  0  0  0  0
  -21.8770   -4.8820   22.5440 C   0  0  0  0  0  0  0  0  0  0  0  0
  -22.2400   -4.3380   21.3570 F   0  0  0  0  0  0  0  0  0  0  0  0
  -21.2700   -3.8300   26.0060 F   0  0  0  0  0  0  0  0  0  0  0  0
  -22.7530  -13.6390   21.1110 C   0  0  0  0  0  0  0  0  0  0  0  0
  -22.0140  -12.9490   21.9720 N   0  0  0  0  0  0  0  0  0  0  0  0
  -22.3240  -14.6610   20.5780 O   0  0  0  0  0  0  0  0  0  0  0  0
  -22.3770  -12.1230   22.4220 H   0  0  0  0  0  0  0  0  0  0  0  0
  -21.0720  -13.2480   22.1810 H   0  0  0  0  0  0  0  0  0  0  0  0
  -25.4030  -15.2910   20.3180 N   0  0  0  0  0  0  0  0  0  0  0  0
  -24.6410  -15.9550   20.4110 H   0  0  0  0  0  0  0  0  0  0  0  0
  -26.2640  -15.7190   20.0070 H   0  0  0  0  0  0  0  0  0  0  0  0
  -29.5000  -24.4020   19.9930 C   0  0  0  0  0  2  0  0  0  0  0  0
  -28.2390  -25.2920   19.8090 C   0  0  0  0  0  2  0  0  0  0  0  0
  -28.3680  -26.6850   20.1510 O   0  0  0  0  0  0  0  0  0  0  0  0
  -24.5950  -31.8980   23.2300 C   0  0  0  0  0  0  0  0  0  0  0  0
  -27.1960  -27.4320   20.1290 C   0  0  0  0  0  0  0  0  0  0  0  0
  -23.3670  -30.4950   21.6070 C   0  0  0  0  0  3  0  0  0  0  0  0
  -24.8010  -28.9580   20.1670 C   0  0  0  0  0  0  0  0  0  0  0  0
  -25.8940  -30.8450   21.3800 C   0  0  0  0  0  2  0  0  0  0  0  0
  -25.9690  -29.4730   20.7420 C   0  0  0  0  0  0  0  0  0  0  0  0
  -27.1670  -28.7170   20.7240 C   0  0  0  0  0  3  0  0  0  0  0  0
  -26.0010  -26.9460   19.5390 C   0  0  0  0  0  3  0  0  0  0  0  0
  -24.8130  -27.6920   19.5650 C   0  0  0  0  0  3  0  0  0  0  0  0
  -23.5570  -29.8150   20.2270 C   0  0  0  0  0  2  0  0  0  0  0  0
  -24.6380  -31.0950   22.1280 N   0  0  0  0  0  0  0  0  0  0  0  0
  -23.5210  -32.1730   23.7820 O   0  0  0  0  0  0  0  0  0  0  0  0
  -22.7300  -29.4730   22.5770 C   0  0  0  0  0  0  0  0  0  0  0  0
  -21.4060  -29.2790   22.4560 N   0  0  0  0  0  0  0  0  0  0  0  0
  -23.4220  -28.8590   23.3930 O   0  0  0  0  0  0  0  0  0  0  0  0
  -20.9100  -29.8240   21.7640 H   0  0  0  0  0  0  0  0  0  0  0  0
  -18.0460  -28.0530   22.9630 C   0  0  0  0  0  0  0  0  0  0  0  0
  -20.6000  -28.3430   23.2370 C   0  0  0  0  0  3  0  0  0  0  0  0
  -20.7210  -26.9070   22.6780 C   0  0  0  0  0  2  0  0  0  0  0  0
  -19.6250  -26.5580   21.6670 C   0  0  0  0  0  2  0  0  0  0  0  0
  -18.2400  -26.6960   22.3060 C   0  0  0  0  0  2  0  0  0  0  0  0
  -19.1550  -28.8320   23.3850 C   0  0  0  0  0  0  0  0  0  0  0  0
  -18.9220  -30.1020   23.9580 C   0  0  0  0  0  3  0  0  0  0  0  0
  -17.6130  -30.5910   24.1150 C   0  0  0  0  0  3  0  0  0  0  0  0
  -16.5180  -29.8080   23.7100 C   0  0  0  0  0  3  0  0  0  0  0  0
  -16.7360  -28.5420   23.1400 C   0  0  0  0  0  3  0  0  0  0  0  0
  -25.8900  -32.5290   23.8320 C   0  0  0  0  0  3  0  0  0  0  0  0
  -25.5870  -33.9280   24.1600 N   0  0  0  0  0  0  0  0  0  0  0  0
  -25.9150  -34.9770   23.3930 C   0  0  0  0  0  0  0  0  0  0  0  0
  -26.5800  -34.8670   22.3590 O   0  0  0  0  0  0  0  0  0  0  0  0
  -24.9970  -34.0880   24.9640 H   0  0  0  0  0  0  0  0  0  0  0  0
  -24.1920  -36.7710   23.0350 C   0  0  0  0  0  1  0  0  0  0  0  0
  -25.4330  -36.3670   23.8470 C   0  0  0  0  0  3  0  0  0  0  0  0
  -27.5730  -37.2460   24.6700 C   0  0  0  0  0  1  0  0  0  0  0  0
  -26.4690  -37.4160   23.7290 N   0  0  0  0  0  0  0  0  0  0  0  0
  -26.0670  -38.3390   23.8730 H   0  0  0  0  0  0  0  0  0  0  0  0
  -26.4250  -31.7590   25.1020 C   0  0  1  0  0  0  0  0  0  0  0  0
  -25.3460  -31.5220   26.1850 C   0  0  0  0  0  1  0  0  0  0  0  0
  -27.0030  -30.3810   24.7030 C   0  0  0  0  0  1  0  0  0  0  0  0
  -27.5850  -32.5550   25.7460 C   0  0  0  0  0  1  0  0  0  0  0  0
  1  6  1  0
  2  7  1  0
  4  1  1  0
  4  2  1  0
  4  5  1  0
  5  6  1  0
  5  3  1  0
  6 50  1  0
  7  8  1  1
  7  3  1  0
 10  9  1  0
 10  7  1  0
 10 11  1  0
 11 12  1  0
 13 12  1  0
 14 13  1  0
 15 20  1  0
 16 17  1  0
 16 15  1  0
 18 17  1  0
 18 25  1  0
 18 19  1  0
 20 14  1  0
 20 19  1  0
 21 14  2  0
 22 23  2  0
 23 42  1  0
 24 23  1  0
 24 27  1  0
 25 22  1  0
 25 26  1  0
 26 24  2  0
 27 28  1  0
 28 29  2  0
 30 33  1  0
 30 29  1  0
 31 30  2  0
 32 31  1  0
 32 27  2  0
 33 34  1  0
 34 35  1  0
 35 36  2  0
 37 36  1  0
 37 41  1  0
 38 37  2  0
 39 34  2  0
 39 38  1  0
 40 39  1  0
 42 43  1  0
 43 46  1  0
 43 45  1  0
 44 42  2  0
 47 48  1  0
 47 22  1  0
 49 47  1  0
 51 50  1  0
 51 52  1  0
 53 64  2  0
 54 52  1  0
 54 59  1  0
 55 63  1  0
 55 65  1  0
 56 62  1  0
 56 58  1  0
 57 63  1  0
 58 57  1  0
 59 58  2  0
 60 61  1  0
 60 54  2  0
 61 56  2  0
 62 55  1  0
 63 53  1  0
 65 67  2  0
 66 65  1  0
 68 66  1  0
 69 78  2  0
 69 74  1  0
 70 66  1  0
 70 74  1  0
 71 70  1  0
 72 73  1  0
 72 71  1  0
 73 69  1  0
 74 75  2  0
 75 76  1  0
 77 76  2  0
 78 77  1  0
 79 53  1  0
 79 80  1  0
 79 89  1  0
 80 83  1  0
 81 85  1  0
 81 80  1  0
 82 81  2  0
 85 84  1  0
 87 85  1  0
 87 88  1  0
 87 86  1  0
 89 92  1  1
 89 90  1  0
 91 89  1  0
M  ISO  4  13 100  14 100  51 101  52 101
M  END
>  <TORSDO>  (61) 
F 22

>  <SCORE>  (61) 
-13.110

>  <name>  (61) 
60

>  <ligand_id>  (61) 
60

>  <original_smiles>  (61) 
[H]c1c([H])c([H])c2c(c1[H])C([H])([H])C([H])([H])C([H])([H])C2([H])N([H])C(=O)C1([H])N(C(=O)C([H])(N([H])C(=O)C([H])(N([H])C([H])([H])[H])C([H])([H])[H])C(C([H])([H])[H])(C([H])([H])[H])C([H])([H])[H])C([H])([H])c2c([H])c(OC([H])([H])C([H])([H])N3C([H])([H])C4([H])C3([H])C([H])([H])[N+]([H])(C([H])(C([H])([H])[H])C([H])([H])C([H])([H])C([H])([H])C(=O)N3C([H])([H])C([H])([H])C([H])([H])C([H])(n5nc(-c6c([H])c([H])c(Oc7c([H])c([H])c(F)c([H])c7F)c([H])c6[H])c(C(=O)N([H])[H])c5N([H])[H])C3([H])[H])C4([H])[H])c([H])c([H])c2C1([H])[H]

>  <smiles>  (61) 
[H]c1c([H])c([H])c2c(c1[H])C([H])([H])C([H])([H])C([H])([H])C2([H])N([H])C(=O)C1([H])N(C(=O)C([H])(N([H])C(=O)C([H])(N([H])C([H])([H])[H])C([H])([H])[H])C(C([H])([H])[H])(C([H])([H])[H])C([H])([H])[H])C([H])([H])c2c([H])c(OC([H])([H])C([H])([H])N3C([H])([H])C4([H])C3([H])C([H])([H])[N+]([H])(C([H])(C([H])([H])[H])C([H])([H])C([H])([H])C([H])([H])C(=O)N3C([H])([H])C([H])([H])C([H])([H])C([H])(n5nc(-c6c([H])c([H])c(Oc7c([H])c([H])c(F)c([H])c7F)c([H])c6[H])c(C(=O)N([H])[H])c5N([H])[H])C3([H])[H])C4([H])[H])c([H])c([H])c2C1([H])[H]

$$$$
61:0:0
     RDKit          3D

 94103  0  0  1  0  0  0  0  0999 V2000
  -30.9190  -21.0670   19.6810 C   0  0  0  0  0  0  0  0  0  0  0  0
  -30.0210  -21.9360   19.1630 N   0  0  0  0  0  0  0  0  0  0  0  0
  -32.0990  -21.3970   19.8290 O   0  0  0  0  0  0  0  0  0  0  0  0
  -29.0790  -21.6050   18.9930 H   0  0  0  0  0  0  0  0  0  0  0  0
  -29.5020  -20.9250   22.4380 C   0  0  0  0  0  2  0  0  0  0  0  0
  -32.1300  -18.8330   21.7530 C   0  0  0  0  0  2  0  0  0  0  0  0
  -30.4260  -19.6680   20.1610 C   0  0  0  0  0  3  0  0  0  0  0  0
  -29.8310  -19.6860   21.5850 C   0  0  0  0  0  3  0  0  0  0  0  0
  -30.9730  -19.4040   22.5570 C   0  0  0  0  0  3  0  0  0  0  0  0
  -31.5820  -18.6070   20.3180 C   0  0  0  0  0  3  0  0  0  0  0  0
  -30.9440  -20.8960   22.9630 C   0  0  0  0  0  3  0  0  0  0  0  0
  -31.2280  -21.3120   24.3940 C   0  0  0  0  0  1  0  0  0  0  0  0
  -31.0790  -17.1400   20.1190 C   0  0  0  0  0  2  0  0  0  0  0  0
  -31.8790  -16.0430   20.8810 C   0  0  0  0  0  2  0  0  0  0  0  0
  -32.2540  -14.8250   20.0080 C   0  0  0  0  0  0  0  0  0  0  0  0
  -31.7420  -12.6550   18.9410 C   0  0  0  0  0  2  0  0  0  0  0  0
  -30.7870  -12.8380   17.7440 C   0  0  0  0  0  2  0  0  0  0  0  0
  -29.3200  -12.8150   18.2120 C   0  0  0  0  0  2  0  0  0  0  0  0
  -29.0670  -13.7650   19.4110 C   0  0  0  0  0  3  0  0  0  0  0  0
  -30.1260  -13.5570   20.5150 C   0  0  0  0  0  2  0  0  0  0  0  0
  -31.4610  -13.7200   19.9190 N   0  0  0  0  0  0  0  0  0  0  0  0
  -33.3060  -14.9220   19.3700 O   0  0  0  0  0  0  0  0  0  0  0  0
  -26.7630  -14.5920   20.2100 C   0  0  0  0  0  0  0  0  0  0  0  0
  -25.6350  -13.9200   20.6050 C   0  0  0  0  0  0  0  0  0  0  0  0
  -25.9620  -12.5300   20.5420 C   0  0  0  0  0  0  0  0  0  0  0  0
  -27.7080  -13.6180   19.9320 N   0  0  0  0  0  0  0  0  0  0  0  0
  -27.2310  -12.3710   20.1870 N   0  0  0  0  0  0  0  0  0  0  0  0
  -25.1240  -11.3390   20.7400 C   0  0  0  0  0  0  0  0  0  0  0  0
  -25.4240  -10.3800   21.7330 C   0  0  0  0  0  3  0  0  0  0  0  0
  -24.5930   -9.2530   21.9160 C   0  0  0  0  0  3  0  0  0  0  0  0
  -23.4460   -9.0790   21.1050 C   0  0  0  0  0  0  0  0  0  0  0  0
  -23.1630  -10.0250   20.1040 C   0  0  0  0  0  3  0  0  0  0  0  0
  -23.9950  -11.1430   19.9210 C   0  0  0  0  0  3  0  0  0  0  0  0
  -22.5980   -8.0020   21.1920 O   0  0  0  0  0  0  0  0  0  0  0  0
  -22.3100   -7.4080   22.3960 C   0  0  0  0  0  0  0  0  0  0  0  0
  -21.7460   -8.1300   23.4680 C   0  0  0  0  0  3  0  0  0  0  0  0
  -21.4080   -7.4640   24.6650 C   0  0  0  0  0  3  0  0  0  0  0  0
  -21.6220   -6.0780   24.7830 C   0  0  0  0  0  0  0  0  0  0  0  0
  -22.1800   -5.3560   23.7130 C   0  0  0  0  0  3  0  0  0  0  0  0
  -22.5210   -6.0200   22.5220 C   0  0  0  0  0  0  0  0  0  0  0  0
  -23.0400   -5.3170   21.4860 F   0  0  0  0  0  0  0  0  0  0  0  0
  -21.2880   -5.4350   25.9270 F   0  0  0  0  0  0  0  0  0  0  0  0
  -24.3000  -14.5270   20.9260 C   0  0  0  0  0  0  0  0  0  0  0  0
  -23.5510  -13.9140   21.8380 N   0  0  0  0  0  0  0  0  0  0  0  0
  -23.9290  -15.5770   20.4060 O   0  0  0  0  0  0  0  0  0  0  0  0
  -23.8610  -13.0630   22.2830 H   0  0  0  0  0  0  0  0  0  0  0  0
  -22.6570  -14.3060   22.0990 H   0  0  0  0  0  0  0  0  0  0  0  0
  -27.0550  -15.9410   20.0490 N   0  0  0  0  0  0  0  0  0  0  0  0
  -26.3670  -16.6690   20.2150 H   0  0  0  0  0  0  0  0  0  0  0  0
  -27.9450  -16.3000   19.7280 H   0  0  0  0  0  0  0  0  0  0  0  0
  -30.2820  -23.3860   19.0800 C   0  0  0  0  0  2  0  0  0  0  0  0
  -29.0180  -24.2900   18.9280 C   0  0  0  0  0  2  0  0  0  0  0  0
  -29.0320  -25.5280   19.8700 C   0  0  0  0  0  2  0  0  0  0  0  0
  -28.9220  -26.8080   19.2240 O   0  0  0  0  0  0  0  0  0  0  0  0
  -24.9870  -31.3360   23.1050 C   0  0  0  0  0  0  0  0  0  0  0  0
  -27.7230  -27.4700   19.3860 C   0  0  0  0  0  0  0  0  0  0  0  0
  -23.7890  -30.1010   21.3280 C   0  0  0  0  0  3  0  0  0  0  0  0
  -25.2600  -28.8300   19.6770 C   0  0  0  0  0  0  0  0  0  0  0  0
  -26.2880  -30.6070   21.1080 C   0  0  0  0  0  2  0  0  0  0  0  0
  -26.4130  -29.3340   20.2920 C   0  0  0  0  0  0  0  0  0  0  0  0
  -27.6510  -28.6640   20.1420 C   0  0  0  0  0  3  0  0  0  0  0  0
  -26.5540  -26.9770   18.7720 C   0  0  0  0  0  3  0  0  0  0  0  0
  -25.3250  -27.6500   18.9140 C   0  0  0  0  0  3  0  0  0  0  0  0
  -23.9790  -29.6080   19.8690 C   0  0  0  0  0  2  0  0  0  0  0  0
  -25.0410  -30.6890   21.9050 N   0  0  0  0  0  0  0  0  0  0  0  0
  -23.9140  -31.4860   23.7040 O   0  0  0  0  0  0  0  0  0  0  0  0
  -23.2170  -28.9380   22.1690 C   0  0  0  0  0  0  0  0  0  0  0  0
  -21.9150  -28.6620   21.9990 N   0  0  0  0  0  0  0  0  0  0  0  0
  -23.9440  -28.2890   22.9250 O   0  0  0  0  0  0  0  0  0  0  0  0
  -21.3890  -29.2430   21.3620 H   0  0  0  0  0  0  0  0  0  0  0  0
  -18.6750  -27.0750   22.2080 C   0  0  0  0  0  0  0  0  0  0  0  0
  -21.1720  -27.5800   22.6450 C   0  0  0  0  0  3  0  0  0  0  0  0
  -21.4590  -26.2250   21.9590 C   0  0  0  0  0  2  0  0  0  0  0  0
  -20.4490  -25.8800   20.8610 C   0  0  0  0  0  2  0  0  0  0  0  0
  -19.0300  -25.8200   21.4310 C   0  0  0  0  0  2  0  0  0  0  0  0
  -19.6790  -27.9130   22.7620 C   0  0  0  0  0  0  0  0  0  0  0  0
  -19.2930  -29.0940   23.4340 C   0  0  0  0  0  3  0  0  0  0  0  0
  -17.9330  -29.4370   23.5610 C   0  0  0  0  0  3  0  0  0  0  0  0
  -16.9430  -28.5950   23.0260 C   0  0  0  0  0  3  0  0  0  0  0  0
  -17.3140  -27.4140   22.3570 C   0  0  0  0  0  3  0  0  0  0  0  0
  -26.2660  -31.9400   23.7670 C   0  0  0  0  0  3  0  0  0  0  0  0
  -25.9140  -33.2760   24.2670 N   0  0  0  0  0  0  0  0  0  0  0  0
  -26.2220  -34.4250   23.6510 C   0  0  0  0  0  0  0  0  0  0  0  0
  -26.9060  -34.4700   22.6260 O   0  0  0  0  0  0  0  0  0  0  0  0
  -25.3080  -33.3110   25.0740 H   0  0  0  0  0  0  0  0  0  0  0  0
  -24.4530  -36.2040   23.4950 C   0  0  0  0  0  1  0  0  0  0  0  0
  -25.6890  -35.7300   24.2740 C   0  0  0  0  0  3  0  0  0  0  0  0
  -27.7810  -36.5520   25.2610 C   0  0  0  0  0  1  0  0  0  0  0  0
  -26.6950  -36.8120   24.3190 N   0  0  0  0  0  0  0  0  0  0  0  0
  -26.2620  -37.6960   24.5730 H   0  0  0  0  0  0  0  0  0  0  0  0
  -26.8480  -31.0440   24.9280 C   0  0  1  0  0  0  0  0  0  0  0  0
  -25.7970  -30.6410   25.9890 C   0  0  0  0  0  1  0  0  0  0  0  0
  -27.4680  -29.7470   24.3580 C   0  0  0  0  0  1  0  0  0  0  0  0
  -27.9920  -31.7980   25.6480 C   0  0  0  0  0  1  0  0  0  0  0  0
  1  3  2  0
  2  1  1  0
  4  2  1  0
  5 11  1  0
  7  1  1  0
  7 10  1  0
  7  8  1  0
  8  5  1  0
  8  9  1  0
  9  6  1  0
  9 11  1  0
 10 13  1  0
 10  6  1  0
 11 12  1  0
 13 14  1  0
 15 14  1  0
 16 21  1  0
 17 18  1  0
 17 16  1  0
 19 18  1  0
 19 26  1  0
 19 20  1  0
 21 15  1  0
 21 20  1  0
 22 15  2  0
 23 24  2  0
 24 43  1  0
 25 24  1  0
 25 28  1  0
 26 27  1  0
 26 23  1  0
 27 25  2  0
 28 29  1  0
 29 30  2  0
 31 34  1  0
 31 30  1  0
 32 31  2  0
 33 32  1  0
 33 28  2  0
 34 35  1  0
 35 40  2  0
 35 36  1  0
 36 37  2  0
 37 38  1  0
 38 42  1  0
 39 38  2  0
 40 39  1  0
 41 40  1  0
 43 44  1  0
 44 47  1  0
 44 46  1  0
 45 43  2  0
 48 23  1  0
 48 49  1  0
 50 48  1  0
 51  2  1  0
 52 51  1  0
 52 53  1  0
 54 56  1  0
 54 53  1  0
 55 66  2  0
 56 61  1  0
 57 65  1  0
 57 67  1  0
 58 64  1  0
 58 60  1  0
 59 65  1  0
 60 59  1  0
 61 60  2  0
 62 63  1  0
 62 56  2  0
 63 58  2  0
 64 57  1  0
 65 55  1  0
 67 69  2  0
 68 67  1  0
 70 68  1  0
 71 80  2  0
 71 76  1  0
 72 68  1  0
 72 76  1  0
 73 72  1  0
 74 75  1  0
 74 73  1  0
 75 71  1  0
 76 77  2  0
 77 78  1  0
 79 78  2  0
 80 79  1  0
 81 55  1  0
 81 82  1  0
 81 91  1  0
 82 85  1  0
 83 82  1  0
 83 87  1  0
 84 83  2  0
 87 86  1  0
 87 89  1  0
 89 90  1  0
 89 88  1  0
 91 94  1  1
 91 92  1  0
 93 91  1  0
M  ISO  4  14 100  15 100  53 101  54 101
M  END
>  <TORSDO>  (62) 
F 22

>  <SCORE>  (62) 
-9.204

>  <name>  (62) 
61

>  <ligand_id>  (62) 
61

>  <original_smiles>  (62) 
[H]c1c([H])c([H])c2c(c1[H])C([H])([H])C([H])([H])C([H])([H])C2([H])N([H])C(=O)C1([H])N(C(=O)C([H])(N([H])C(=O)C([H])(N([H])C([H])([H])[H])C([H])([H])[H])C(C([H])([H])[H])(C([H])([H])[H])C([H])([H])[H])C([H])([H])c2c([H])c(OC([H])([H])C([H])([H])C([H])([H])N([H])C(=O)C3([H])C([H])(C([H])([H])C([H])([H])C(=O)N4C([H])([H])C([H])([H])C([H])([H])C([H])(n5nc(-c6c([H])c([H])c(Oc7c([H])c([H])c(F)c([H])c7F)c([H])c6[H])c(C(=O)N([H])[H])c5N([H])[H])C4([H])[H])C([H])([H])C4([H])C([H])(C([H])([H])[H])C([H])([H])C34[H])c([H])c([H])c2C1([H])[H]

>  <smiles>  (62) 
[H]c1c([H])c([H])c2c(c1[H])C([H])([H])C([H])([H])C([H])([H])C2([H])N([H])C(=O)C1([H])N(C(=O)C([H])(N([H])C(=O)C([H])(N([H])C([H])([H])[H])C([H])([H])[H])C(C([H])([H])[H])(C([H])([H])[H])C([H])([H])[H])C([H])([H])c2c([H])c(OC([H])([H])C([H])([H])C([H])([H])N([H])C(=O)C3([H])C([H])(C([H])([H])C([H])([H])C(=O)N4C([H])([H])C([H])([H])C([H])([H])C([H])(n5nc(-c6c([H])c([H])c(Oc7c([H])c([H])c(F)c([H])c7F)c([H])c6[H])c(C(=O)N([H])[H])c5N([H])[H])C4([H])[H])C([H])([H])C4([H])C([H])(C([H])([H])[H])C([H])([H])C34[H])c([H])c([H])c2C1([H])[H]

$$$$
62:0:0
     RDKit          3D

 91 99  0  0  1  0  0  0  0  0999 V2000
  -28.3350  -21.9750   18.9530 C   0  0  0  0  0  2  0  0  0  0  0  0
  -27.9880  -23.3500   18.3830 C   0  0  0  0  0  2  0  0  0  0  0  0
  -29.5610  -23.6910   20.1990 C   0  0  0  0  0  2  0  0  0  0  0  0
  -29.6190  -22.2000   19.7650 C   0  0  0  0  0  3  0  0  0  0  0  0
  -28.3410  -24.3350   19.5010 C   0  0  0  0  0  3  0  0  0  0  0  0
  -29.7580  -21.2110   20.9400 C   0  0  0  0  0  0  0  0  0  0  0  0
  -30.7330  -20.2910   20.8570 N   0  0  0  0  0  0  0  0  0  0  0  0
  -29.0130  -21.2980   21.9180 O   0  0  0  0  0  0  0  0  0  0  0  0
  -31.2880  -20.2780   20.0110 H   0  0  0  0  0  0  0  0  0  0  0  0
  -31.1630  -19.4120   21.9470 C   0  0  0  0  0  2  0  0  0  0  0  0
  -30.4930  -18.0230   21.9290 C   0  0  0  0  0  2  0  0  0  0  0  0
  -31.1370  -16.9950   20.9740 C   0  0  0  0  0  2  0  0  0  0  0  0
  -30.5050  -15.5910   21.1350 C   0  0  0  0  0  2  0  0  0  0  0  0
  -31.1050  -14.4790   20.2490 C   0  0  0  0  0  0  0  0  0  0  0  0
  -30.7130  -12.3760   19.0030 C   0  0  0  0  0  2  0  0  0  0  0  0
  -29.7490  -12.6420   17.8290 C   0  0  0  0  0  2  0  0  0  0  0  0
  -28.2780  -12.5570   18.2870 C   0  0  0  0  0  2  0  0  0  0  0  0
  -28.0050  -13.3820   19.5730 C   0  0  0  0  0  3  0  0  0  0  0  0
  -29.0680  -13.0690   20.6500 C   0  0  0  0  0  2  0  0  0  0  0  0
  -30.3940  -13.3340   20.0680 N   0  0  0  0  0  0  0  0  0  0  0  0
  -32.1840  -14.6820   19.6810 O   0  0  0  0  0  0  0  0  0  0  0  0
  -25.6360  -14.0850   20.2980 C   0  0  0  0  0  0  0  0  0  0  0  0
  -24.5460  -13.3560   20.6930 C   0  0  0  0  0  0  0  0  0  0  0  0
  -24.9610  -11.9890   20.6780 C   0  0  0  0  0  0  0  0  0  0  0  0
  -26.6480  -13.1660   20.0710 N   0  0  0  0  0  0  0  0  0  0  0  0
  -26.2450  -11.9000   20.3530 N   0  0  0  0  0  0  0  0  0  0  0  0
  -24.1960  -10.7550   20.8980 C   0  0  0  0  0  0  0  0  0  0  0  0
  -24.6080   -9.7910   21.8450 C   0  0  0  0  0  3  0  0  0  0  0  0
  -23.8460   -8.6200   22.0510 C   0  0  0  0  0  3  0  0  0  0  0  0
  -22.6600   -8.4060   21.3100 C   0  0  0  0  0  0  0  0  0  0  0  0
  -22.2680   -9.3580   20.3530 C   0  0  0  0  0  3  0  0  0  0  0  0
  -23.0300  -10.5200   20.1450 C   0  0  0  0  0  3  0  0  0  0  0  0
  -21.8700   -7.2870   21.4250 O   0  0  0  0  0  0  0  0  0  0  0  0
  -21.7990   -6.5740   22.5950 C   0  0  0  0  0  0  0  0  0  0  0  0
  -21.4060   -7.1760   23.8110 C   0  0  0  0  0  3  0  0  0  0  0  0
  -21.2780   -6.3910   24.9740 C   0  0  0  0  0  3  0  0  0  0  0  0
  -21.5330   -5.0070   24.9230 C   0  0  0  0  0  0  0  0  0  0  0  0
  -21.9180   -4.4060   23.7130 C   0  0  0  0  0  3  0  0  0  0  0  0
  -22.0470   -5.1870   22.5510 C   0  0  0  0  0  0  0  0  0  0  0  0
  -22.3990   -4.6000   21.3820 F   0  0  0  0  0  0  0  0  0  0  0  0
  -21.4020   -4.2520   26.0400 F   0  0  0  0  0  0  0  0  0  0  0  0
  -23.1690  -13.8840   20.9770 C   0  0  0  0  0  0  0  0  0  0  0  0
  -22.4340  -13.2290   21.8710 N   0  0  0  0  0  0  0  0  0  0  0  0
  -22.7540  -14.9110   20.4430 O   0  0  0  0  0  0  0  0  0  0  0  0
  -22.7820  -12.3980   22.3260 H   0  0  0  0  0  0  0  0  0  0  0  0
  -21.5120  -13.5650   22.1050 H   0  0  0  0  0  0  0  0  0  0  0  0
  -25.8440  -15.4470   20.0960 N   0  0  0  0  0  0  0  0  0  0  0  0
  -25.1040  -16.1310   20.2060 H   0  0  0  0  0  0  0  0  0  0  0  0
  -26.7110  -15.8510   19.7640 H   0  0  0  0  0  0  0  0  0  0  0  0
  -28.5720  -25.7730   18.9760 C   0  0  0  0  0  2  0  0  0  0  0  0
  -28.3860  -26.7820   19.9730 O   0  0  0  0  0  0  0  0  0  0  0  0
  -24.6020  -31.8820   23.1900 C   0  0  0  0  0  0  0  0  0  0  0  0
  -27.1880  -27.4690   20.0100 C   0  0  0  0  0  0  0  0  0  0  0  0
  -23.3640  -30.5020   21.5520 C   0  0  0  0  0  3  0  0  0  0  0  0
  -24.7880  -28.9720   20.0940 C   0  0  0  0  0  0  0  0  0  0  0  0
  -25.8870  -30.8520   21.3200 C   0  0  0  0  0  2  0  0  0  0  0  0
  -25.9560  -29.4850   20.6710 C   0  0  0  0  0  0  0  0  0  0  0  0
  -27.1530  -28.7370   20.6360 C   0  0  0  0  0  3  0  0  0  0  0  0
  -25.9920  -26.9600   19.4490 C   0  0  0  0  0  3  0  0  0  0  0  0
  -24.7990  -27.7050   19.4890 C   0  0  0  0  0  3  0  0  0  0  0  0
  -23.5500  -29.8360   20.1640 C   0  0  0  0  0  2  0  0  0  0  0  0
  -24.6370  -31.0930   22.0800 N   0  0  0  0  0  0  0  0  0  0  0  0
  -23.5300  -32.1530   23.7490 O   0  0  0  0  0  0  0  0  0  0  0  0
  -22.7250  -29.4730   22.5120 C   0  0  0  0  0  0  0  0  0  0  0  0
  -21.4010  -29.2860   22.3920 N   0  0  0  0  0  0  0  0  0  0  0  0
  -23.4170  -28.8470   23.3200 O   0  0  0  0  0  0  0  0  0  0  0  0
  -20.9040  -29.8440   21.7120 H   0  0  0  0  0  0  0  0  0  0  0  0
  -18.0400  -28.0540   22.8770 C   0  0  0  0  0  0  0  0  0  0  0  0
  -20.5920  -28.3410   23.1630 C   0  0  0  0  0  3  0  0  0  0  0  0
  -20.7160  -26.9090   22.5930 C   0  0  0  0  0  2  0  0  0  0  0  0
  -19.6230  -26.5700   21.5750 C   0  0  0  0  0  2  0  0  0  0  0  0
  -18.2350  -26.7030   22.2100 C   0  0  0  0  0  2  0  0  0  0  0  0
  -19.1470  -28.8300   23.3110 C   0  0  0  0  0  0  0  0  0  0  0  0
  -18.9110  -30.0940   23.8930 C   0  0  0  0  0  3  0  0  0  0  0  0
  -17.6010  -30.5830   24.0480 C   0  0  0  0  0  3  0  0  0  0  0  0
  -16.5080  -29.8030   23.6320 C   0  0  0  0  0  3  0  0  0  0  0  0
  -16.7270  -28.5410   23.0530 C   0  0  0  0  0  3  0  0  0  0  0  0
  -25.9010  -32.5010   23.7960 C   0  0  0  0  0  3  0  0  0  0  0  0
  -25.6000  -33.8930   24.1570 N   0  0  0  0  0  0  0  0  0  0  0  0
  -25.9210  -34.9580   23.4110 C   0  0  0  0  0  0  0  0  0  0  0  0
  -26.5720  -34.8720   22.3660 O   0  0  0  0  0  0  0  0  0  0  0  0
  -25.0230  -34.0340   24.9730 H   0  0  0  0  0  0  0  0  0  0  0  0
  -24.1860  -36.7540   23.1180 C   0  0  0  0  0  1  0  0  0  0  0  0
  -25.4420  -36.3370   23.9010 C   0  0  0  0  0  3  0  0  0  0  0  0
  -27.5920  -37.2040   24.7060 C   0  0  0  0  0  1  0  0  0  0  0  0
  -26.4720  -37.3930   23.7890 N   0  0  0  0  0  0  0  0  0  0  0  0
  -26.0690  -38.3090   23.9650 H   0  0  0  0  0  0  0  0  0  0  0  0
  -26.4460  -31.7060   25.0450 C   0  0  1  0  0  0  0  0  0  0  0  0
  -25.3770  -31.4480   26.1320 C   0  0  0  0  0  1  0  0  0  0  0  0
  -27.0190  -30.3360   24.6100 C   0  0  0  0  0  1  0  0  0  0  0  0
  -27.6120  -32.4860   25.6960 C   0  0  0  0  0  1  0  0  0  0  0  0
  1  4  1  0
  2  1  1  0
  2  5  1  0
  4  3  1  0
  4  6  1  0
  5 50  1  0
  5  3  1  0
  6  8  2  0
  7  6  1  0
  7 10  1  0
  9  7  1  0
 11 10  1  0
 12 13  1  0
 12 11  1  0
 14 13  1  0
 15 20  1  0
 16 17  1  0
 16 15  1  0
 18 17  1  0
 18 25  1  0
 18 19  1  0
 20 14  1  0
 20 19  1  0
 21 14  2  0
 22 23  2  0
 23 42  1  0
 24 23  1  0
 24 27  1  0
 25 22  1  0
 25 26  1  0
 26 24  2  0
 27 28  1  0
 28 29  2  0
 30 33  1  0
 30 29  1  0
 31 30  2  0
 32 31  1  0
 32 27  2  0
 33 34  1  0
 34 35  1  0
 35 36  2  0
 37 36  1  0
 37 41  1  0
 38 37  2  0
 39 34  2  0
 39 38  1  0
 40 39  1  0
 42 43  1  0
 43 46  1  0
 43 45  1  0
 44 42  2  0
 47 48  1  0
 47 22  1  0
 49 47  1  0
 50 51  1  0
 51 53  1  0
 52 63  2  0
 53 58  1  0
 54 62  1  0
 54 64  1  0
 55 61  1  0
 55 57  1  0
 56 62  1  0
 57 56  1  0
 58 57  2  0
 59 60  1  0
 59 53  2  0
 60 55  2  0
 61 54  1  0
 62 52  1  0
 64 66  2  0
 65 64  1  0
 67 65  1  0
 68 77  2  0
 68 73  1  0
 69 65  1  0
 69 73  1  0
 70 69  1  0
 71 72  1  0
 71 70  1  0
 72 68  1  0
 73 74  2  0
 74 75  1  0
 76 75  2  0
 77 76  1  0
 78 52  1  0
 78 79  1  0
 78 88  1  0
 79 82  1  0
 80 84  1  0
 80 79  1  0
 81 80  2  0
 84 83  1  0
 86 84  1  0
 86 87  1  0
 86 85  1  0
 88 91  1  1
 88 89  1  0
 90 88  1  0
M  ISO  4  13 100  14 100  50 101  51 101
M  END
>  <TORSDO>  (63) 
F 22

>  <SCORE>  (63) 
-12.925

>  <name>  (63) 
62

>  <ligand_id>  (63) 
62

>  <original_smiles>  (63) 
[H]c1c([H])c([H])c2c(c1[H])C([H])([H])C([H])([H])C([H])([H])C2([H])N([H])C(=O)C1([H])N(C(=O)C([H])(N([H])C(=O)C([H])(N([H])C([H])([H])[H])C([H])([H])[H])C(C([H])([H])[H])(C([H])([H])[H])C([H])([H])[H])C([H])([H])c2c([H])c(OC([H])([H])C3([H])C([H])([H])C([H])([H])C([H])(C(=O)N([H])C([H])([H])C([H])([H])C([H])([H])C([H])([H])C(=O)N4C([H])([H])C([H])([H])C([H])([H])C([H])(n5nc(-c6c([H])c([H])c(Oc7c([H])c([H])c(F)c([H])c7F)c([H])c6[H])c(C(=O)N([H])[H])c5N([H])[H])C4([H])[H])C3([H])[H])c([H])c([H])c2C1([H])[H]

>  <smiles>  (63) 
[H]c1c([H])c([H])c2c(c1[H])C([H])([H])C([H])([H])C([H])([H])C2([H])N([H])C(=O)C1([H])N(C(=O)C([H])(N([H])C(=O)C([H])(N([H])C([H])([H])[H])C([H])([H])[H])C(C([H])([H])[H])(C([H])([H])[H])C([H])([H])[H])C([H])([H])c2c([H])c(OC([H])([H])C3([H])C([H])([H])C([H])([H])C([H])(C(=O)N([H])C([H])([H])C([H])([H])C([H])([H])C([H])([H])C(=O)N4C([H])([H])C([H])([H])C([H])([H])C([H])(n5nc(-c6c([H])c([H])c(Oc7c([H])c([H])c(F)c([H])c7F)c([H])c6[H])c(C(=O)N([H])[H])c5N([H])[H])C4([H])[H])C3([H])[H])c([H])c([H])c2C1([H])[H]

$$$$
63:0:0
     RDKit          3D

 90 99  0  0  1  0  0  0  0  0999 V2000
  -28.7610  -21.1890   20.4760 C   0  0  0  0  0  0  0  0  0  0  0  0
  -32.4810  -19.8270   17.9440 C   0  0  0  0  0  2  0  0  0  0  0  0
  -33.0670  -19.6490   19.3510 C   0  0  0  0  0  2  0  0  0  0  0  0
  -31.3830  -18.6290   21.0470 C   0  0  0  0  0  2  0  0  0  0  0  0
  -30.9690  -19.8760   18.1610 C   0  0  0  0  0  2  0  0  0  0  0  0
  -31.8870  -19.8820   20.3150 C   0  0  0  0  0  3  0  0  0  0  0  0
  -29.8860  -18.4840   20.7120 C   0  0  0  0  0  3  0  0  0  0  0  0
  -29.5910  -20.0170   20.1230 N   0  0  0  0  0  0  0  0  0  0  0  0
  -30.7840  -20.4030   19.5150 N   0  0  0  0  0  0  0  0  0  0  0  0
  -27.7500  -20.9500   21.1370 O   0  0  0  0  0  0  0  0  0  0  0  0
  -29.6550  -16.8260   20.0810 C   0  0  0  0  0  2  0  0  0  0  0  0
  -30.5040  -15.3000   20.2130 C   0  0  0  0  0  0  0  0  0  0  0  0
  -30.5030  -12.8480   19.3870 C   0  0  0  0  0  2  0  0  0  0  0  0
  -29.5860  -12.6640   18.1510 C   0  0  0  0  0  2  0  0  0  0  0  0
  -28.1290  -12.4100   18.5760 C   0  0  0  0  0  2  0  0  0  0  0  0
  -27.6760  -13.3710   19.7020 C   0  0  0  0  0  3  0  0  0  0  0  0
  -28.7180  -13.5060   20.8280 C   0  0  0  0  0  2  0  0  0  0  0  0
  -29.9660  -13.9850   20.2170 N   0  0  0  0  0  0  0  0  0  0  0  0
  -31.7320  -15.2900   20.0420 O   0  0  0  0  0  0  0  0  0  0  0  0
  -25.3040  -13.9280   20.4590 C   0  0  0  0  0  0  0  0  0  0  0  0
  -24.2410  -13.1500   20.8210 C   0  0  0  0  0  0  0  0  0  0  0  0
  -24.7060  -11.7990   20.7810 C   0  0  0  0  0  0  0  0  0  0  0  0
  -26.3460  -13.0540   20.2080 N   0  0  0  0  0  0  0  0  0  0  0  0
  -25.9980  -11.7660   20.4710 N   0  0  0  0  0  0  0  0  0  0  0  0
  -23.9760  -10.5360   20.9610 C   0  0  0  0  0  0  0  0  0  0  0  0
  -24.3940   -9.5660   21.9000 C   0  0  0  0  0  3  0  0  0  0  0  0
  -23.6610   -8.3720   22.0690 C   0  0  0  0  0  3  0  0  0  0  0  0
  -22.4970   -8.1370   21.2980 C   0  0  0  0  0  0  0  0  0  0  0  0
  -22.1000   -9.0940   20.3490 C   0  0  0  0  0  3  0  0  0  0  0  0
  -22.8320  -10.2810   20.1790 C   0  0  0  0  0  3  0  0  0  0  0  0
  -21.7400   -6.9940   21.3740 O   0  0  0  0  0  0  0  0  0  0  0  0
  -21.6580   -6.2600   22.5310 C   0  0  0  0  0  0  0  0  0  0  0  0
  -21.1850   -6.8200   23.7370 C   0  0  0  0  0  3  0  0  0  0  0  0
  -21.0510   -6.0130   24.8840 C   0  0  0  0  0  3  0  0  0  0  0  0
  -21.3820   -4.6460   24.8250 C   0  0  0  0  0  0  0  0  0  0  0  0
  -21.8490   -4.0850   23.6240 C   0  0  0  0  0  3  0  0  0  0  0  0
  -21.9840   -4.8900   22.4790 C   0  0  0  0  0  0  0  0  0  0  0  0
  -22.4150   -4.3390   21.3190 F   0  0  0  0  0  0  0  0  0  0  0  0
  -21.2480   -3.8680   25.9260 F   0  0  0  0  0  0  0  0  0  0  0  0
  -22.8430  -13.6260   21.0860 C   0  0  0  0  0  0  0  0  0  0  0  0
  -22.1090  -12.9250   21.9410 N   0  0  0  0  0  0  0  0  0  0  0  0
  -22.4120  -14.6590   20.5730 O   0  0  0  0  0  0  0  0  0  0  0  0
  -22.4730  -12.0900   22.3770 H   0  0  0  0  0  0  0  0  0  0  0  0
  -21.1710  -13.2280   22.1630 H   0  0  0  0  0  0  0  0  0  0  0  0
  -25.4690  -15.3010   20.2960 N   0  0  0  0  0  0  0  0  0  0  0  0
  -24.7040  -15.9560   20.4110 H   0  0  0  0  0  0  0  0  0  0  0  0
  -26.3180  -15.7390   19.9600 H   0  0  0  0  0  0  0  0  0  0  0  0
  -29.0220  -22.8850   20.1620 C   0  0  0  0  0  3  0  0  0  0  0  0
  -27.9800  -24.3340   20.2980 C   0  0  0  0  0  3  0  0  0  0  0  0
  -28.2310  -25.9550   20.2370 O   0  0  0  0  0  0  0  0  0  0  0  0
  -24.6340  -31.8830   23.1890 C   0  0  0  0  0  0  0  0  0  0  0  0
  -27.2010  -27.0250   20.1950 C   0  0  0  0  0  0  0  0  0  0  0  0
  -23.4390  -30.4760   21.5610 C   0  0  0  0  0  3  0  0  0  0  0  0
  -24.8890  -28.8730   20.1450 C   0  0  0  0  0  0  0  0  0  0  0  0
  -26.0020  -30.7070   21.4000 C   0  0  0  0  0  2  0  0  0  0  0  0
  -26.0770  -29.2970   20.7540 C   0  0  0  0  0  0  0  0  0  0  0  0
  -27.2300  -28.3930   20.7520 C   0  0  0  0  0  3  0  0  0  0  0  0
  -25.9790  -26.7450   19.5420 C   0  0  0  0  0  3  0  0  0  0  0  0
  -24.8630  -27.6170   19.5200 C   0  0  0  0  0  3  0  0  0  0  0  0
  -23.6640  -29.7850   20.1880 C   0  0  0  0  0  2  0  0  0  0  0  0
  -24.7130  -31.0500   22.1030 N   0  0  0  0  0  0  0  0  0  0  0  0
  -23.5450  -32.1720   23.7120 O   0  0  0  0  0  0  0  0  0  0  0  0
  -22.7540  -29.4810   22.5320 C   0  0  0  0  0  0  0  0  0  0  0  0
  -21.4240  -29.3110   22.4130 N   0  0  0  0  0  0  0  0  0  0  0  0
  -23.4260  -28.8600   23.3610 O   0  0  0  0  0  0  0  0  0  0  0  0
  -20.9360  -29.8620   21.7220 H   0  0  0  0  0  0  0  0  0  0  0  0
  -18.0450  -28.1060   22.9480 C   0  0  0  0  0  0  0  0  0  0  0  0
  -20.6060  -28.3740   23.1910 C   0  0  0  0  0  3  0  0  0  0  0  0
  -20.7050  -26.9410   22.6190 C   0  0  0  0  0  2  0  0  0  0  0  0
  -19.5950  -26.6170   21.6120 C   0  0  0  0  0  2  0  0  0  0  0  0
  -18.2190  -26.7590   22.2670 C   0  0  0  0  0  2  0  0  0  0  0  0
  -19.1660  -28.8720   23.3660 C   0  0  0  0  0  0  0  0  0  0  0  0
  -18.9470  -30.1320   23.9650 C   0  0  0  0  0  3  0  0  0  0  0  0
  -17.6410  -30.6260   24.1460 C   0  0  0  0  0  3  0  0  0  0  0  0
  -16.5370  -29.8580   23.7410 C   0  0  0  0  0  3  0  0  0  0  0  0
  -16.7390  -28.6000   23.1480 C   0  0  0  0  0  3  0  0  0  0  0  0
  -25.9050  -32.5340   23.8150 C   0  0  0  0  0  3  0  0  0  0  0  0
  -26.4180  -31.7740   25.1010 C   0  0  1  0  0  0  0  0  0  0  0  0
  -25.3210  -31.5400   26.1660 C   0  0  0  0  0  1  0  0  0  0  0  0
  -27.0090  -30.3960   24.7290 C   0  0  0  0  0  1  0  0  0  0  0  0
  -27.5610  -32.5790   25.7630 C   0  0  0  0  0  1  0  0  0  0  0  0
  -25.5810  -33.9320   24.1470 N   0  0  0  0  0  0  0  0  0  0  0  0
  -25.9070  -34.9950   23.3990 C   0  0  0  0  0  0  0  0  0  0  0  0
  -26.5750  -34.9000   22.3670 O   0  0  0  0  0  0  0  0  0  0  0  0
  -24.9820  -34.0780   24.9480 H   0  0  0  0  0  0  0  0  0  0  0  0
  -24.1750  -36.7920   23.0610 C   0  0  0  0  0  1  0  0  0  0  0  0
  -25.4180  -36.3800   23.8680 C   0  0  0  0  0  3  0  0  0  0  0  0
  -27.5470  -37.2690   24.7100 C   0  0  0  0  0  1  0  0  0  0  0  0
  -26.4480  -37.4360   23.7620 N   0  0  0  0  0  0  0  0  0  0  0  0
  -26.0390  -38.3550   23.9110 H   0  0  0  0  0  0  0  0  0  0  0  0
  1 10  2  0
  2  5  1  0
  2  3  1  0
  6  3  1  0
  6  4  1  0
  7 11  1  0
  7  4  1  0
  8  1  1  0
  8  7  1  0
  9  5  1  0
  9  8  1  0
  9  6  1  0
 11 12  1  0
 12 18  1  0
 13 18  1  0
 14 15  1  0
 14 13  1  0
 16 15  1  0
 16 23  1  0
 16 17  1  0
 18 17  1  0
 19 12  2  0
 20 21  2  0
 21 40  1  0
 22 21  1  0
 22 25  1  0
 23 20  1  0
 23 24  1  0
 24 22  2  0
 25 26  1  0
 26 27  2  0
 28 31  1  0
 28 27  1  0
 29 28  2  0
 30 29  1  0
 30 25  2  0
 31 32  1  0
 32 33  1  0
 33 34  2  0
 35 34  1  0
 35 39  1  0
 36 35  2  0
 37 32  2  0
 37 36  1  0
 38 37  1  0
 40 41  1  0
 41 44  1  0
 41 43  1  0
 42 40  2  0
 45 46  1  0
 45 20  1  0
 47 45  1  0
 48 49  2  0
 48  1  1  0
 50 49  1  0
 51 62  2  0
 52 50  1  0
 52 57  1  0
 53 61  1  0
 53 63  1  0
 54 60  1  0
 54 56  1  0
 55 61  1  0
 56 55  1  0
 57 56  2  0
 58 52  2  0
 59 58  1  0
 59 54  2  0
 60 53  1  0
 61 51  1  0
 63 65  2  0
 64 63  1  0
 66 64  1  0
 67 76  2  0
 67 72  1  0
 68 64  1  0
 68 72  1  0
 69 68  1  0
 70 71  1  0
 70 69  1  0
 71 67  1  0
 72 73  2  0
 73 74  1  0
 75 74  2  0
 76 75  1  0
 77 51  1  0
 77 82  1  0
 77 78  1  0
 78 81  1  1
 78 79  1  0
 80 78  1  0
 82 85  1  0
 83 87  1  0
 83 82  1  0
 84 83  2  0
 87 86  1  0
 89 87  1  0
 89 90  1  0
 89 88  1  0
M  ISO  4  11 100  12 100  49 101  50 101
M  END
>  <TORSDO>  (64) 
F 19

>  <SCORE>  (64) 
-16.199

>  <name>  (64) 
63

>  <ligand_id>  (64) 
63

>  <original_smiles>  (64) 
[H]c1c([H])c([H])c2c(c1[H])C([H])([H])C([H])([H])C([H])([H])C2([H])N([H])C(=O)C1([H])N(C(=O)C([H])(N([H])C(=O)C([H])(N([H])C([H])([H])[H])C([H])([H])[H])C(C([H])([H])[H])(C([H])([H])[H])C([H])([H])[H])C([H])([H])c2c([H])c(OC([H])([H])C([H])([H])C(=O)N3N4C([H])([H])C([H])([H])C([H])([H])C4([H])C([H])([H])C3([H])C([H])([H])C(=O)N3C([H])([H])C([H])([H])C([H])([H])C([H])(n4nc(-c5c([H])c([H])c(Oc6c([H])c([H])c(F)c([H])c6F)c([H])c5[H])c(C(=O)N([H])[H])c4N([H])[H])C3([H])[H])c([H])c([H])c2C1([H])[H]

>  <smiles>  (64) 
[H]c1c([H])c([H])c2c(c1[H])C([H])([H])C([H])([H])C([H])([H])C2([H])N([H])C(=O)C1([H])N(C(=O)C([H])(N([H])C(=O)C([H])(N([H])C([H])([H])[H])C([H])([H])[H])C(C([H])([H])[H])(C([H])([H])[H])C([H])([H])[H])C([H])([H])c2c([H])c(OC([H])([H])C([H])([H])C(=O)N3N4C([H])([H])C([H])([H])C([H])([H])C4([H])C([H])([H])C3([H])C([H])([H])C(=O)N3C([H])([H])C([H])([H])C([H])([H])C([H])(n4nc(-c5c([H])c([H])c(Oc6c([H])c([H])c(F)c([H])c6F)c([H])c5[H])c(C(=O)N([H])[H])c4N([H])[H])C3([H])[H])c([H])c([H])c2C1([H])[H]

$$$$
64:0:0
     RDKit          3D

 93102  0  0  1  0  0  0  0  0999 V2000
  -29.5750  -25.1820   21.4580 C   0  0  0  0  0  2  0  0  0  0  0  0
  -29.8880  -22.1610   19.0190 C   0  0  0  0  0  2  0  0  0  0  0  0
  -28.2870  -24.1960   19.6460 C   0  0  0  0  0  2  0  0  0  0  0  0
  -30.3900  -24.1540   20.6700 C   0  0  0  0  0  3  0  0  0  0  0  0
  -28.9580  -21.9020   20.9220 C   0  0  0  0  0  3  0  0  0  0  0  0
  -29.1920  -20.9720   19.7070 C   0  0  0  0  0  3  0  0  0  0  0  0
  -28.2960  -25.3970   20.6440 C   0  0  0  0  0  3  0  0  0  0  0  0
  -29.3710  -23.1630   20.0790 C   0  0  2  0  0  0  0  0  0  0  0  0
  -31.5510  -23.5640   21.4880 C   0  0  0  0  0  1  0  0  0  0  0  0
  -27.5970  -21.8740   21.6140 C   0  0  0  0  0  1  0  0  0  0  0  0
  -30.0940  -19.7840   19.9100 N   0  0  0  0  0  4  0  0  0  0  0  0
  -30.8670  -20.0330   20.5070 H   0  0  0  0  0  0  0  0  0  0  0  0
  -30.4850  -19.5730   19.0060 H   0  0  0  0  0  0  0  0  0  0  0  0
  -29.4880  -18.5090   20.4040 C   0  0  0  0  0  2  0  0  0  0  0  0
  -30.4230  -17.2580   20.2260 C   0  0  0  0  0  3  0  0  0  0  0  0
  -29.8850  -15.8890   20.7830 C   0  0  0  0  0  3  0  0  0  0  0  0
  -30.6330  -14.6080   20.2880 C   0  0  0  0  0  0  0  0  0  0  0  0
  -30.3580  -12.3980   19.2080 C   0  0  0  0  0  2  0  0  0  0  0  0
  -29.4030  -12.5600   18.0060 C   0  0  0  0  0  2  0  0  0  0  0  0
  -27.9330  -12.4170   18.4530 C   0  0  0  0  0  2  0  0  0  0  0  0
  -27.6000  -13.2850   19.6940 C   0  0  0  0  0  3  0  0  0  0  0  0
  -28.6710  -13.1220   20.7980 C   0  0  0  0  0  2  0  0  0  0  0  0
  -29.9850  -13.4110   20.2090 N   0  0  0  0  0  0  0  0  0  0  0  0
  -31.7770  -14.7500   19.8440 O   0  0  0  0  0  0  0  0  0  0  0  0
  -25.2170  -13.9060   20.4370 C   0  0  0  0  0  0  0  0  0  0  0  0
  -24.1500  -13.1400   20.8220 C   0  0  0  0  0  0  0  0  0  0  0  0
  -24.6040  -11.7860   20.7910 C   0  0  0  0  0  0  0  0  0  0  0  0
  -26.2550  -13.0180   20.1960 N   0  0  0  0  0  0  0  0  0  0  0  0
  -25.8900  -11.7390   20.4690 N   0  0  0  0  0  0  0  0  0  0  0  0
  -23.8740  -10.5290   20.9930 C   0  0  0  0  0  0  0  0  0  0  0  0
  -24.3090   -9.5640   21.9290 C   0  0  0  0  0  3  0  0  0  0  0  0
  -23.5790   -8.3710   22.1190 C   0  0  0  0  0  3  0  0  0  0  0  0
  -22.4000   -8.1340   21.3740 C   0  0  0  0  0  0  0  0  0  0  0  0
  -21.9840   -9.0870   20.4270 C   0  0  0  0  0  3  0  0  0  0  0  0
  -22.7140  -10.2720   20.2350 C   0  0  0  0  0  3  0  0  0  0  0  0
  -21.6420   -6.9930   21.4740 O   0  0  0  0  0  0  0  0  0  0  0  0
  -21.5950   -6.2580   22.6310 C   0  0  0  0  0  0  0  0  0  0  0  0
  -21.1820   -6.8240   23.8570 C   0  0  0  0  0  3  0  0  0  0  0  0
  -21.0830   -6.0150   25.0070 C   0  0  0  0  0  3  0  0  0  0  0  0
  -21.3860   -4.6420   24.9310 C   0  0  0  0  0  0  0  0  0  0  0  0
  -21.7940   -4.0770   23.7110 C   0  0  0  0  0  3  0  0  0  0  0  0
  -21.8940   -4.8830   22.5630 C   0  0  0  0  0  0  0  0  0  0  0  0
  -22.2660   -4.3280   21.3840 F   0  0  0  0  0  0  0  0  0  0  0  0
  -21.2850   -3.8640   26.0350 F   0  0  0  0  0  0  0  0  0  0  0  0
  -22.7570  -13.6250   21.1080 C   0  0  0  0  0  0  0  0  0  0  0  0
  -22.0360  -12.9340   21.9820 N   0  0  0  0  0  0  0  0  0  0  0  0
  -22.3200  -14.6540   20.5910 O   0  0  0  0  0  0  0  0  0  0  0  0
  -22.4040  -12.1030   22.4200 H   0  0  0  0  0  0  0  0  0  0  0  0
  -21.1020  -13.2400   22.2170 H   0  0  0  0  0  0  0  0  0  0  0  0
  -25.3860  -15.2750   20.2520 N   0  0  0  0  0  0  0  0  0  0  0  0
  -24.6200  -15.9310   20.3650 H   0  0  0  0  0  0  0  0  0  0  0  0
  -26.2340  -15.7100   19.9120 H   0  0  0  0  0  0  0  0  0  0  0  0
  -28.3720  -26.7180   20.0600 O   0  0  0  0  0  0  0  0  0  0  0  0
  -24.5700  -31.8860   23.2300 C   0  0  0  0  0  0  0  0  0  0  0  0
  -27.2140  -27.4690   20.0910 C   0  0  0  0  0  0  0  0  0  0  0  0
  -23.3680  -30.5070   21.5660 C   0  0  0  0  0  3  0  0  0  0  0  0
  -24.8250  -28.9870   20.1230 C   0  0  0  0  0  0  0  0  0  0  0  0
  -25.8970  -30.8650   21.3770 C   0  0  0  0  0  2  0  0  0  0  0  0
  -25.9840  -29.5030   20.7140 C   0  0  0  0  0  0  0  0  0  0  0  0
  -27.1880  -28.7540   20.6880 C   0  0  0  0  0  3  0  0  0  0  0  0
  -26.0370  -26.9700   19.4980 C   0  0  0  0  0  3  0  0  0  0  0  0
  -24.8470  -27.7210   19.5090 C   0  0  0  0  0  3  0  0  0  0  0  0
  -23.5810  -29.8470   20.1780 C   0  0  0  0  0  2  0  0  0  0  0  0
  -24.6300  -31.1000   22.1150 N   0  0  0  0  0  0  0  0  0  0  0  0
  -23.4860  -32.1480   23.7700 O   0  0  0  0  0  0  0  0  0  0  0  0
  -22.7150  -29.4720   22.5110 C   0  0  0  0  0  0  0  0  0  0  0  0
  -21.3890  -29.2940   22.3820 N   0  0  0  0  0  0  0  0  0  0  0  0
  -23.3970  -28.8330   23.3160 O   0  0  0  0  0  0  0  0  0  0  0  0
  -20.8990  -29.8660   21.7090 H   0  0  0  0  0  0  0  0  0  0  0  0
  -18.0140  -28.0950   22.8550 C   0  0  0  0  0  0  0  0  0  0  0  0
  -20.5710  -28.3440   23.1360 C   0  0  0  0  0  3  0  0  0  0  0  0
  -20.6740  -26.9220   22.5390 C   0  0  0  0  0  2  0  0  0  0  0  0
  -19.5730  -26.6170   21.5180 C   0  0  0  0  0  2  0  0  0  0  0  0
  -18.1900  -26.7560   22.1610 C   0  0  0  0  0  2  0  0  0  0  0  0
  -19.1320  -28.8480   23.2990 C   0  0  0  0  0  0  0  0  0  0  0  0
  -18.9140  -30.1040   23.9070 C   0  0  0  0  0  3  0  0  0  0  0  0
  -17.6100  -30.6050   24.0760 C   0  0  0  0  0  3  0  0  0  0  0  0
  -16.5050  -29.8480   23.6500 C   0  0  0  0  0  3  0  0  0  0  0  0
  -16.7080  -28.5950   23.0440 C   0  0  0  0  0  3  0  0  0  0  0  0
  -25.8530  -32.5100   23.8600 C   0  0  0  0  0  3  0  0  0  0  0  0
  -26.3750  -31.7170   25.1200 C   0  0  1  0  0  0  0  0  0  0  0  0
  -25.2840  -31.4560   26.1850 C   0  0  0  0  0  1  0  0  0  0  0  0
  -26.9630  -30.3490   24.6970 C   0  0  0  0  0  1  0  0  0  0  0  0
  -27.5240  -32.5020   25.7960 C   0  0  0  0  0  1  0  0  0  0  0  0
  -25.5400  -33.9000   24.2160 N   0  0  0  0  0  0  0  0  0  0  0  0
  -25.8690  -34.9660   23.4760 C   0  0  0  0  0  0  0  0  0  0  0  0
  -26.5410  -34.8820   22.4430 O   0  0  0  0  0  0  0  0  0  0  0  0
  -24.9500  -34.0400   25.0230 H   0  0  0  0  0  0  0  0  0  0  0  0
  -24.1380  -36.7590   23.1500 C   0  0  0  0  0  1  0  0  0  0  0  0
  -25.3790  -36.3440   23.9580 C   0  0  0  0  0  3  0  0  0  0  0  0
  -27.5110  -37.2180   24.8040 C   0  0  0  0  0  1  0  0  0  0  0  0
  -26.4090  -37.4020   23.8640 N   0  0  0  0  0  0  0  0  0  0  0  0
  -26.0000  -38.3190   24.0300 H   0  0  0  0  0  0  0  0  0  0  0  0
  2  6  1  0
  8  3  1  6
  3  7  1  0
  4  1  1  0
  4  9  1  0
  5 10  1  0
  6 11  1  0
  6  5  1  0
  7 53  1  0
  7  1  1  0
  8  2  1  0
  8  4  1  0
  8  5  1  0
 11 14  1  0
 11 12  1  0
 13 11  1  0
 15 14  1  0
 15 16  2  0
 17 16  1  0
 18 23  1  0
 19 20  1  0
 19 18  1  0
 21 20  1  0
 21 28  1  0
 21 22  1  0
 23 17  1  0
 23 22  1  0
 24 17  2  0
 25 26  2  0
 26 45  1  0
 27 26  1  0
 27 30  1  0
 28 25  1  0
 28 29  1  0
 29 27  2  0
 30 31  1  0
 31 32  2  0
 33 36  1  0
 33 32  1  0
 34 33  2  0
 35 34  1  0
 35 30  2  0
 36 37  1  0
 37 38  1  0
 38 39  2  0
 40 39  1  0
 40 44  1  0
 41 40  2  0
 42 37  2  0
 42 41  1  0
 43 42  1  0
 45 46  1  0
 46 49  1  0
 46 48  1  0
 47 45  2  0
 50 51  1  0
 50 25  1  0
 52 50  1  0
 53 55  1  0
 54 65  2  0
 55 60  1  0
 56 64  1  0
 56 66  1  0
 57 63  1  0
 57 59  1  0
 58 64  1  0
 59 58  1  0
 60 59  2  0
 61 62  1  0
 61 55  2  0
 62 57  2  0
 63 56  1  0
 64 54  1  0
 66 68  2  0
 67 66  1  0
 69 67  1  0
 70 79  2  0
 70 75  1  0
 71 67  1  0
 71 75  1  0
 72 71  1  0
 73 74  1  0
 73 72  1  0
 74 70  1  0
 75 76  2  0
 76 77  1  0
 78 77  2  0
 79 78  1  0
 80 54  1  0
 80 85  1  0
 80 81  1  0
 81 84  1  1
 81 82  1  0
 83 81  1  0
 85 88  1  0
 86 90  1  0
 86 85  1  0
 87 86  2  0
 90 89  1  0
 92 90  1  0
 92 93  1  0
 92 91  1  0
M  ISO  4   7 101  16 100  17 100  53 101
M  END
>  <TORSDO>  (65) 
F 20

>  <SCORE>  (65) 
-13.191

>  <name>  (65) 
64

>  <ligand_id>  (65) 
64

>  <original_smiles>  (65) 
[H]c1c([H])c([H])c2c(c1[H])C([H])([H])C([H])([H])C([H])([H])C2([H])N([H])C(=O)C1([H])N(C(=O)C([H])(N([H])C(=O)C([H])(N([H])C([H])([H])[H])C([H])([H])[H])C(C([H])([H])[H])(C([H])([H])[H])C([H])([H])[H])C([H])([H])c2c([H])c(OC3([H])C([H])([H])C([H])(C([H])([H])[H])C4(C3([H])[H])C([H])([H])C([H])([N+]([H])([H])C([H])([H])C([H])([H])C([H])([H])C(=O)N3C([H])([H])C([H])([H])C([H])([H])C([H])(n5nc(-c6c([H])c([H])c(Oc7c([H])c([H])c(F)c([H])c7F)c([H])c6[H])c(C(=O)N([H])[H])c5N([H])[H])C3([H])[H])C4([H])C([H])([H])[H])c([H])c([H])c2C1([H])[H]

>  <smiles>  (65) 
[H]c1c([H])c([H])c2c(c1[H])C([H])([H])C([H])([H])C([H])([H])C2([H])N([H])C(=O)C1([H])N(C(=O)C([H])(N([H])C(=O)C([H])(N([H])C([H])([H])[H])C([H])([H])[H])C(C([H])([H])[H])(C([H])([H])[H])C([H])([H])[H])C([H])([H])c2c([H])c(OC3([H])C([H])([H])C([H])(C([H])([H])[H])C4(C3([H])[H])C([H])([H])C([H])([N+]([H])([H])C([H])([H])C([H])([H])C([H])([H])C(=O)N3C([H])([H])C([H])([H])C([H])([H])C([H])(n5nc(-c6c([H])c([H])c(Oc7c([H])c([H])c(F)c([H])c7F)c([H])c6[H])c(C(=O)N([H])[H])c5N([H])[H])C3([H])[H])C4([H])C([H])([H])[H])c([H])c([H])c2C1([H])[H]

$$$$
65:0:0
     RDKit          3D

 91 99  0  0  1  0  0  0  0  0999 V2000
  -29.5720  -19.9890   20.0420 C   0  0  0  0  0  0  0  0  0  0  0  0
  -29.4780  -21.2530   20.5750 N   0  0  0  0  0  0  0  0  0  0  0  0
  -29.1200  -19.7620   18.9190 O   0  0  0  0  0  0  0  0  0  0  0  0
  -29.8840  -21.3790   21.4940 H   0  0  0  0  0  0  0  0  0  0  0  0
  -32.5650  -18.2400   21.3040 C   0  0  0  0  0  2  0  0  0  0  0  0
  -32.1520  -17.7050   19.9400 C   0  0  0  0  0  2  0  0  0  0  0  0
  -30.1820  -18.7740   20.8700 C   0  0  0  0  0  3  0  0  0  0  0  0
  -31.4400  -19.2060   21.6830 C   0  0  0  0  0  3  0  0  0  0  0  0
  -30.6410  -17.4490   20.0790 C   0  0  0  0  0  3  0  0  0  0  0  0
  -31.1990  -19.2800   23.1970 C   0  0  0  0  0  1  0  0  0  0  0  0
  -30.3090  -16.0190   20.7510 C   0  0  0  0  0  2  0  0  0  0  0  0
  -30.9850  -14.6930   20.1910 C   0  0  0  0  0  0  0  0  0  0  0  0
  -30.6810  -12.4620   19.1320 C   0  0  0  0  0  2  0  0  0  0  0  0
  -29.7230  -12.6170   17.9320 C   0  0  0  0  0  2  0  0  0  0  0  0
  -28.2580  -12.4780   18.3880 C   0  0  0  0  0  2  0  0  0  0  0  0
  -27.9370  -13.3440   19.6340 C   0  0  0  0  0  3  0  0  0  0  0  0
  -29.0170  -13.1960   20.7290 C   0  0  0  0  0  2  0  0  0  0  0  0
  -30.3220  -13.4950   20.1260 N   0  0  0  0  0  0  0  0  0  0  0  0
  -32.1130  -14.7790   19.7030 O   0  0  0  0  0  0  0  0  0  0  0  0
  -25.5680  -13.9620   20.4150 C   0  0  0  0  0  0  0  0  0  0  0  0
  -24.5000  -13.1980   20.8010 C   0  0  0  0  0  0  0  0  0  0  0  0
  -24.9450  -11.8410   20.7480 C   0  0  0  0  0  0  0  0  0  0  0  0
  -26.5970  -13.0720   20.1490 N   0  0  0  0  0  0  0  0  0  0  0  0
  -26.2280  -11.7900   20.4110 N   0  0  0  0  0  0  0  0  0  0  0  0
  -24.2070  -10.5870   20.9440 C   0  0  0  0  0  0  0  0  0  0  0  0
  -24.6220   -9.6240   21.8920 C   0  0  0  0  0  3  0  0  0  0  0  0
  -23.8850   -8.4350   22.0750 C   0  0  0  0  0  3  0  0  0  0  0  0
  -22.7180   -8.1980   21.3100 C   0  0  0  0  0  0  0  0  0  0  0  0
  -22.3220   -9.1480   20.3520 C   0  0  0  0  0  3  0  0  0  0  0  0
  -23.0590  -10.3290   20.1680 C   0  0  0  0  0  3  0  0  0  0  0  0
  -21.9540   -7.0590   21.4020 O   0  0  0  0  0  0  0  0  0  0  0  0
  -21.8580   -6.3480   22.5720 C   0  0  0  0  0  0  0  0  0  0  0  0
  -21.3740   -6.9340   23.7620 C   0  0  0  0  0  3  0  0  0  0  0  0
  -21.2260   -6.1490   24.9230 C   0  0  0  0  0  3  0  0  0  0  0  0
  -21.5530   -4.7800   24.8950 C   0  0  0  0  0  0  0  0  0  0  0  0
  -22.0290   -4.1940   23.7090 C   0  0  0  0  0  3  0  0  0  0  0  0
  -22.1790   -4.9760   22.5510 C   0  0  0  0  0  0  0  0  0  0  0  0
  -22.6190   -4.4020   21.4050 F   0  0  0  0  0  0  0  0  0  0  0  0
  -21.4040   -4.0240   26.0080 F   0  0  0  0  0  0  0  0  0  0  0  0
  -23.1160  -13.6890   21.1090 C   0  0  0  0  0  0  0  0  0  0  0  0
  -22.4040  -13.0020   21.9950 N   0  0  0  0  0  0  0  0  0  0  0  0
  -22.6750  -14.7180   20.5970 O   0  0  0  0  0  0  0  0  0  0  0  0
  -22.7760  -12.1690   22.4290 H   0  0  0  0  0  0  0  0  0  0  0  0
  -21.4750  -13.3120   22.2430 H   0  0  0  0  0  0  0  0  0  0  0  0
  -25.7470  -15.3310   20.2470 N   0  0  0  0  0  0  0  0  0  0  0  0
  -24.9940  -15.9970   20.3820 H   0  0  0  0  0  0  0  0  0  0  0  0
  -26.6000  -15.7610   19.9090 H   0  0  0  0  0  0  0  0  0  0  0  0
  -28.6770  -22.4070   20.0320 C   0  0  0  0  0  2  0  0  0  0  0  0
  -29.0160  -23.8960   20.4970 C   0  0  0  0  0  2  0  0  0  0  0  0
  -28.0210  -25.0130   19.9510 C   0  0  0  0  0  2  0  0  0  0  0  0
  -28.2250  -26.4590   20.2220 O   0  0  0  0  0  0  0  0  0  0  0  0
  -24.6440  -31.9640   23.2090 C   0  0  0  0  0  0  0  0  0  0  0  0
  -27.1140  -27.3200   20.1620 C   0  0  0  0  0  0  0  0  0  0  0  0
  -23.3740  -30.5430   21.6420 C   0  0  0  0  0  3  0  0  0  0  0  0
  -24.7630  -28.9560   20.1970 C   0  0  0  0  0  0  0  0  0  0  0  0
  -25.9090  -30.8330   21.3700 C   0  0  0  0  0  2  0  0  0  0  0  0
  -25.9540  -29.4420   20.7510 C   0  0  0  0  0  0  0  0  0  0  0  0
  -27.1310  -28.6320   20.7300 C   0  0  0  0  0  3  0  0  0  0  0  0
  -25.9020  -26.9040   19.5600 C   0  0  0  0  0  3  0  0  0  0  0  0
  -24.7390  -27.6920   19.5920 C   0  0  0  0  0  3  0  0  0  0  0  0
  -23.5360  -29.8390   20.2700 C   0  0  0  0  0  2  0  0  0  0  0  0
  -24.6630  -31.1320   22.1300 N   0  0  0  0  0  0  0  0  0  0  0  0
  -23.5810  -32.2650   23.7720 O   0  0  0  0  0  0  0  0  0  0  0  0
  -22.7350  -29.5510   22.6430 C   0  0  0  0  0  0  0  0  0  0  0  0
  -21.4150  -29.3300   22.5170 N   0  0  0  0  0  0  0  0  0  0  0  0
  -23.4250  -28.9840   23.4940 O   0  0  0  0  0  0  0  0  0  0  0  0
  -20.9160  -29.8390   21.8010 H   0  0  0  0  0  0  0  0  0  0  0  0
  -18.0820  -28.0110   23.0050 C   0  0  0  0  0  0  0  0  0  0  0  0
  -20.6180  -28.4090   23.3280 C   0  0  0  0  0  3  0  0  0  0  0  0
  -20.8020  -26.9480   22.8540 C   0  0  0  0  0  2  0  0  0  0  0  0
  -19.7480  -26.5060   21.8340 C   0  0  0  0  0  2  0  0  0  0  0  0
  -18.3410  -26.6290   22.4290 C   0  0  0  0  0  2  0  0  0  0  0  0
  -19.1520  -28.8520   23.4140 C   0  0  0  0  0  0  0  0  0  0  0  0
  -18.8580  -30.1390   23.9120 C   0  0  0  0  0  3  0  0  0  0  0  0
  -17.5270  -30.5880   24.0070 C   0  0  0  0  0  3  0  0  0  0  0  0
  -16.4720  -29.7460   23.6170 C   0  0  0  0  0  3  0  0  0  0  0  0
  -16.7500  -28.4590   23.1220 C   0  0  0  0  0  3  0  0  0  0  0  0
  -25.9520  -32.5970   23.7730 C   0  0  0  0  0  3  0  0  0  0  0  0
  -25.6500  -33.9880   24.1410 N   0  0  0  0  0  0  0  0  0  0  0  0
  -25.9340  -35.0560   23.3830 C   0  0  0  0  0  0  0  0  0  0  0  0
  -26.5480  -34.9730   22.3160 O   0  0  0  0  0  0  0  0  0  0  0  0
  -25.0970  -34.1250   24.9740 H   0  0  0  0  0  0  0  0  0  0  0  0
  -24.1780  -36.8420   23.1480 C   0  0  0  0  0  1  0  0  0  0  0  0
  -25.4610  -36.4330   23.8880 C   0  0  0  0  0  3  0  0  0  0  0  0
  -27.6270  -37.3210   24.6300 C   0  0  0  0  0  1  0  0  0  0  0  0
  -26.4800  -37.4940   23.7410 N   0  0  0  0  0  0  0  0  0  0  0  0
  -26.0760  -38.4100   23.9230 H   0  0  0  0  0  0  0  0  0  0  0  0
  -26.5390  -31.8110   25.0090 C   0  0  1  0  0  0  0  0  0  0  0  0
  -25.4990  -31.5300   26.1190 C   0  0  0  0  0  1  0  0  0  0  0  0
  -27.1290  -30.4530   24.5640 C   0  0  0  0  0  1  0  0  0  0  0  0
  -27.7060  -32.6130   25.6330 C   0  0  0  0  0  1  0  0  0  0  0  0
  1  2  1  0
  2  4  1  0
  3  1  2  0
  5  8  1  0
  6  9  1  0
  6  5  1  0
  7  1  1  0
  7  8  1  0
  8 10  1  0
  9 11  1  0
  9  7  1  0
 12 11  1  0
 13 18  1  0
 14 15  1  0
 14 13  1  0
 16 15  1  0
 16 23  1  0
 16 17  1  0
 18 12  1  0
 18 17  1  0
 19 12  2  0
 20 21  2  0
 21 40  1  0
 22 21  1  0
 22 25  1  0
 23 24  1  0
 23 20  1  0
 24 22  2  0
 25 26  1  0
 26 27  2  0
 28 31  1  0
 28 27  1  0
 29 28  2  0
 30 29  1  0
 30 25  2  0
 31 32  1  0
 32 33  1  0
 33 34  2  0
 35 34  1  0
 35 39  1  0
 36 35  2  0
 37 32  2  0
 37 36  1  0
 38 37  1  0
 40 41  1  0
 41 44  1  0
 41 43  1  0
 42 40  2  0
 45 46  1  0
 45 20  1  0
 47 45  1  0
 48 49  1  0
 48  2  1  0
 50 51  1  0
 50 49  1  0
 52 63  2  0
 53 51  1  0
 53 58  1  0
 54 62  1  0
 54 64  1  0
 55 61  1  0
 55 57  1  0
 56 62  1  0
 57 56  1  0
 58 57  2  0
 59 60  1  0
 59 53  2  0
 60 55  2  0
 61 54  1  0
 62 52  1  0
 64 66  2  0
 65 64  1  0
 67 65  1  0
 68 77  2  0
 68 73  1  0
 69 65  1  0
 69 73  1  0
 70 69  1  0
 71 72  1  0
 71 70  1  0
 72 68  1  0
 73 74  2  0
 74 75  1  0
 76 75  2  0
 77 76  1  0
 78 52  1  0
 78 79  1  0
 78 88  1  0
 79 82  1  0
 80 84  1  0
 80 79  1  0
 81 80  2  0
 84 83  1  0
 86 84  1  0
 86 87  1  0
 86 85  1  0
 88 91  1  1
 88 89  1  0
 90 88  1  0
M  ISO  4  11 100  12 100  50 101  51 101
M  END
>  <TORSDO>  (66) 
F 21

>  <SCORE>  (66) 
-13.094

>  <name>  (66) 
65

>  <ligand_id>  (66) 
65

>  <original_smiles>  (66) 
[H]c1c([H])c([H])c2c(c1[H])C([H])([H])C([H])([H])C([H])([H])C2([H])N([H])C(=O)C1([H])N(C(=O)C([H])(N([H])C(=O)C([H])(N([H])C([H])([H])[H])C([H])([H])[H])C(C([H])([H])[H])(C([H])([H])[H])C([H])([H])[H])C([H])([H])c2c([H])c(OC([H])([H])C([H])([H])C([H])([H])N([H])C(=O)C3([H])C([H])(C([H])([H])[H])C([H])([H])C([H])([H])C3([H])C([H])([H])C(=O)N3C([H])([H])C([H])([H])C([H])([H])C([H])(n4nc(-c5c([H])c([H])c(Oc6c([H])c([H])c(F)c([H])c6F)c([H])c5[H])c(C(=O)N([H])[H])c4N([H])[H])C3([H])[H])c([H])c([H])c2C1([H])[H]

>  <smiles>  (66) 
[H]c1c([H])c([H])c2c(c1[H])C([H])([H])C([H])([H])C([H])([H])C2([H])N([H])C(=O)C1([H])N(C(=O)C([H])(N([H])C(=O)C([H])(N([H])C([H])([H])[H])C([H])([H])[H])C(C([H])([H])[H])(C([H])([H])[H])C([H])([H])[H])C([H])([H])c2c([H])c(OC([H])([H])C([H])([H])C([H])([H])N([H])C(=O)C3([H])C([H])(C([H])([H])[H])C([H])([H])C([H])([H])C3([H])C([H])([H])C(=O)N3C([H])([H])C([H])([H])C([H])([H])C([H])(n4nc(-c5c([H])c([H])c(Oc6c([H])c([H])c(F)c([H])c6F)c([H])c5[H])c(C(=O)N([H])[H])c4N([H])[H])C3([H])[H])c([H])c([H])c2C1([H])[H]

$$$$
66:0:0
     RDKit          3D

 97106  0  0  1  0  0  0  0  0999 V2000
  -27.0430  -21.1500   21.5600 C   0  0  0  0  0  1  0  0  0  0  0  0
  -28.3720  -21.4280   20.8120 C   0  0  0  0  0  3  0  0  0  0  0  0
  -30.9600  -16.7270   18.6310 C   0  0  0  0  0  2  0  0  0  0  0  0
  -29.6860  -21.0640   18.5690 C   0  0  0  0  0  2  0  0  0  0  0  0
  -29.8610  -17.6320   18.1250 C   0  0  0  0  0  2  0  0  0  0  0  0
  -30.6010  -19.9060   18.9520 C   0  0  0  0  0  2  0  0  0  0  0  0
  -30.1230  -17.9610   20.5370 C   0  0  0  0  0  2  0  0  0  0  0  0
  -30.5990  -16.5660   20.1100 C   0  0  0  0  0  3  0  0  0  0  0  0
  -28.3850  -20.8460   19.3620 C   0  0  0  0  0  3  0  0  0  0  0  0
  -28.2320  -19.3010   19.2980 C   0  0  0  0  0  3  0  0  0  0  0  0
  -29.6780  -18.6990   19.2330 C   0  0  2  0  0  0  0  0  0  0  0  0
  -27.2970  -18.9170   18.1330 C   0  0  0  0  0  1  0  0  0  0  0  0
  -31.6960  -15.9180   20.9900 C   0  0  0  0  0  2  0  0  0  0  0  0
  -32.2540  -14.6150   20.3910 C   0  0  0  0  0  0  0  0  0  0  0  0
  -31.9460  -12.2570   19.7400 C   0  0  0  0  0  2  0  0  0  0  0  0
  -30.9950  -12.1320   18.5340 C   0  0  0  0  0  2  0  0  0  0  0  0
  -29.5350  -12.0560   19.0170 C   0  0  0  0  0  2  0  0  0  0  0  0
  -29.1830  -13.1980   20.0010 C   0  0  0  0  0  3  0  0  0  0  0  0
  -30.2410  -13.2980   21.1270 C   0  0  0  0  0  2  0  0  0  0  0  0
  -31.5670  -13.4490   20.5090 N   0  0  0  0  0  0  0  0  0  0  0  0
  -33.3100  -14.6990   19.7580 O   0  0  0  0  0  0  0  0  0  0  0  0
  -26.9540  -14.0380   20.9830 C   0  0  0  0  0  0  0  0  0  0  0  0
  -25.7990  -13.3790   21.3180 C   0  0  0  0  0  0  0  0  0  0  0  0
  -26.0510  -11.9980   21.0650 C   0  0  0  0  0  0  0  0  0  0  0  0
  -27.8340  -13.0620   20.5460 N   0  0  0  0  0  0  0  0  0  0  0  0
  -27.2990  -11.8190   20.6580 N   0  0  0  0  0  0  0  0  0  0  0  0
  -25.1540  -10.8370   21.1290 C   0  0  0  0  0  0  0  0  0  0  0  0
  -25.4480   -9.7310   21.9570 C   0  0  0  0  0  3  0  0  0  0  0  0
  -24.5680   -8.6300   22.0170 C   0  0  0  0  0  3  0  0  0  0  0  0
  -23.3800   -8.6280   21.2460 C   0  0  0  0  0  0  0  0  0  0  0  0
  -23.1040   -9.7230   20.4080 C   0  0  0  0  0  3  0  0  0  0  0  0
  -23.9840  -10.8160   20.3460 C   0  0  0  0  0  3  0  0  0  0  0  0
  -22.4820   -7.5880   21.2220 O   0  0  0  0  0  0  0  0  0  0  0  0
  -22.1840   -6.8670   22.3510 C   0  0  0  0  0  0  0  0  0  0  0  0
  -21.6100   -7.4690   23.4910 C   0  0  0  0  0  3  0  0  0  0  0  0
  -21.2520   -6.6810   24.6020 C   0  0  0  0  0  3  0  0  0  0  0  0
  -21.4600   -5.2870   24.5750 C   0  0  0  0  0  0  0  0  0  0  0  0
  -22.0270   -4.6840   23.4380 C   0  0  0  0  0  3  0  0  0  0  0  0
  -22.3820   -5.4710   22.3280 C   0  0  0  0  0  0  0  0  0  0  0  0
  -22.9100   -4.8820   21.2280 F   0  0  0  0  0  0  0  0  0  0  0  0
  -21.1080   -4.5260   25.6360 F   0  0  0  0  0  0  0  0  0  0  0  0
  -24.5070  -13.9970   21.7620 C   0  0  0  0  0  0  0  0  0  0  0  0
  -23.7570  -13.3030   22.6140 N   0  0  0  0  0  0  0  0  0  0  0  0
  -24.1700  -15.1230   21.3930 O   0  0  0  0  0  0  0  0  0  0  0  0
  -24.0420  -12.3920   22.9400 H   0  0  0  0  0  0  0  0  0  0  0  0
  -22.8910  -13.6970   22.9500 H   0  0  0  0  0  0  0  0  0  0  0  0
  -27.3150  -15.3800   21.0000 N   0  0  0  0  0  0  0  0  0  0  0  0
  -26.6740  -16.1140   21.2840 H   0  0  0  0  0  0  0  0  0  0  0  0
  -28.2090  -15.7270   20.6760 H   0  0  0  0  0  0  0  0  0  0  0  0
  -28.6090  -22.8950   20.8050 N   0  0  0  0  0  4  0  0  0  0  0  0
  -28.1990  -23.2850   19.9740 H   0  0  0  0  0  0  0  0  0  0  0  0
  -28.1150  -23.2890   21.5910 H   0  0  0  0  0  0  0  0  0  0  0  0
  -30.0220  -23.3120   20.9340 C   0  0  0  0  0  2  0  0  0  0  0  0
  -30.2300  -24.8360   20.7890 C   0  0  0  0  0  2  0  0  0  0  0  0
  -29.4990  -25.4880   19.6000 C   0  0  0  0  0  2  0  0  0  0  0  0
  -29.9790  -26.9210   19.2960 C   0  0  0  0  0  2  0  0  0  0  0  0
  -29.1590  -27.5420   18.3140 O   0  0  0  0  0  0  0  0  0  0  0  0
  -24.6430  -30.3440   23.1350 C   0  0  0  0  0  0  0  0  0  0  0  0
  -27.8900  -27.9120   18.6880 C   0  0  0  0  0  0  0  0  0  0  0  0
  -23.6210  -29.3620   21.1070 C   0  0  0  0  0  3  0  0  0  0  0  0
  -25.2470  -28.7400   19.2390 C   0  0  0  0  0  0  0  0  0  0  0  0
  -26.0020  -30.2940   21.0440 C   0  0  0  0  0  2  0  0  0  0  0  0
  -26.3140  -29.2630   19.9800 C   0  0  0  0  0  0  0  0  0  0  0  0
  -27.6400  -28.8430   19.7210 C   0  0  0  0  0  3  0  0  0  0  0  0
  -26.8090  -27.4120   17.9350 C   0  0  0  0  0  3  0  0  0  0  0  0
  -25.4870  -27.8070   18.2160 C   0  0  0  0  0  3  0  0  0  0  0  0
  -23.8630  -29.2450   19.5790 C   0  0  0  0  0  2  0  0  0  0  0  0
  -24.7740  -29.9990   21.8230 N   0  0  0  0  0  0  0  0  0  0  0  0
  -23.5730  -30.1820   23.7360 O   0  0  0  0  0  0  0  0  0  0  0  0
  -23.2510  -27.9640   21.6510 C   0  0  0  0  0  0  0  0  0  0  0  0
  -22.0170  -27.5180   21.3650 N   0  0  0  0  0  0  0  0  0  0  0  0
  -24.0720  -27.2930   22.2820 O   0  0  0  0  0  0  0  0  0  0  0  0
  -21.4020  -28.1280   20.8440 H   0  0  0  0  0  0  0  0  0  0  0  0
  -19.1370  -25.3640   21.0390 C   0  0  0  0  0  0  0  0  0  0  0  0
  -21.4750  -26.2090   21.7380 C   0  0  0  0  0  3  0  0  0  0  0  0
  -22.0440  -25.0860   20.8360 C   0  0  0  0  0  2  0  0  0  0  0  0
  -21.1560  -24.7900   19.6220 C   0  0  0  0  0  2  0  0  0  0  0  0
  -19.7510  -24.3680   20.0700 C   0  0  0  0  0  2  0  0  0  0  0  0
  -19.9440  -26.2360   21.8130 C   0  0  0  0  0  0  0  0  0  0  0  0
  -19.3200  -27.1650   22.6730 C   0  0  0  0  0  3  0  0  0  0  0  0
  -17.9180  -27.2320   22.7630 C   0  0  0  0  0  3  0  0  0  0  0  0
  -17.1240  -26.3600   21.9980 C   0  0  0  0  0  3  0  0  0  0  0  0
  -17.7330  -25.4200   21.1480 C   0  0  0  0  0  3  0  0  0  0  0  0
  -25.8230  -30.9810   23.9320 C   0  0  0  0  0  3  0  0  0  0  0  0
  -25.4030  -32.3240   24.3450 N   0  0  0  0  0  0  0  0  0  0  0  0
  -25.8380  -33.4650   23.7880 C   0  0  0  0  0  0  0  0  0  0  0  0
  -26.7010  -33.4910   22.9050 O   0  0  0  0  0  0  0  0  0  0  0  0
  -24.6530  -32.3740   25.0200 H   0  0  0  0  0  0  0  0  0  0  0  0
  -24.2170  -35.3070   23.2420 C   0  0  0  0  0  1  0  0  0  0  0  0
  -25.2170  -34.7810   24.2860 C   0  0  0  0  0  3  0  0  0  0  0  0
  -27.0330  -35.5240   25.7610 C   0  0  0  0  0  1  0  0  0  0  0  0
  -26.2140  -35.8290   24.5900 N   0  0  0  0  0  0  0  0  0  0  0  0
  -25.7620  -36.7260   24.7430 H   0  0  0  0  0  0  0  0  0  0  0  0
  -26.2630  -30.1230   25.1820 C   0  0  1  0  0  0  0  0  0  0  0  0
  -25.0890  -29.7460   26.1160 C   0  0  0  0  0  1  0  0  0  0  0  0
  -26.9490  -28.8140   24.7280 C   0  0  0  0  0  1  0  0  0  0  0  0
  -27.3080  -30.9040   26.0110 C   0  0  0  0  0  1  0  0  0  0  0  0
  2  1  1  0
  3  8  1  0
  4  6  1  0
  4  9  1  0
  5  3  1  0
 11  6  1  6
  8  7  1  0
  8 13  1  0
  9  2  1  0
 10 12  1  0
 10  9  1  0
 11  5  1  0
 11 10  1  0
 11  7  1  0
 14 20  1  0
 14 13  1  0
 15 20  1  0
 16 17  1  0
 16 15  1  0
 18 17  1  0
 18 25  1  0
 18 19  1  0
 20 19  1  0
 21 14  2  0
 22 47  1  0
 22 23  2  0
 23 42  1  0
 24 27  1  0
 24 23  1  0
 25 26  1  0
 25 22  1  0
 26 24  2  0
 27 28  1  0
 28 29  2  0
 30 29  1  0
 31 30  2  0
 32 31  1  0
 32 27  2  0
 33 30  1  0
 33 34  1  0
 34 35  1  0
 35 36  2  0
 37 36  1  0
 37 41  1  0
 38 37  2  0
 39 34  2  0
 39 38  1  0
 40 39  1  0
 42 43  1  0
 43 45  1  0
 43 46  1  0
 44 42  2  0
 47 48  1  0
 49 47  1  0
 50  2  1  0
 50 53  1  0
 50 52  1  0
 51 50  1  0
 54 53  1  0
 55 54  1  0
 56 55  1  0
 57 59  1  0
 57 56  1  0
 58 69  2  0
 59 64  1  0
 60 70  1  0
 60 68  1  0
 61 67  1  0
 61 63  1  0
 62 68  1  0
 63 62  1  0
 64 63  2  0
 65 66  1  0
 65 59  2  0
 66 61  2  0
 67 60  1  0
 68 58  1  0
 70 72  2  0
 71 70  1  0
 73 71  1  0
 74 83  2  0
 74 79  1  0
 75 71  1  0
 75 79  1  0
 76 75  1  0
 77 78  1  0
 77 76  1  0
 78 74  1  0
 79 80  2  0
 80 81  1  0
 82 81  2  0
 83 82  1  0
 84 58  1  0
 84 85  1  0
 84 94  1  0
 85 88  1  0
 86 90  1  0
 86 85  1  0
 87 86  2  0
 90 89  1  0
 90 92  1  0
 92 93  1  0
 92 91  1  0
 94 97  1  1
 94 95  1  0
 96 94  1  0
M  ISO  4  13 100  14 100  56 101  57 101
M  END
>  <TORSDO>  (67) 
F 23

>  <SCORE>  (67) 
-5.556

>  <name>  (67) 
66

>  <ligand_id>  (67) 
66

>  <original_smiles>  (67) 
[H]c1c([H])c([H])c2c(c1[H])C([H])([H])C([H])([H])C([H])([H])C2([H])N([H])C(=O)C1([H])N(C(=O)C([H])(N([H])C(=O)C([H])(N([H])C([H])([H])[H])C([H])([H])[H])C(C([H])([H])[H])(C([H])([H])[H])C([H])([H])[H])C([H])([H])c2c([H])c(OC([H])([H])C([H])([H])C([H])([H])C([H])([H])[N+]([H])([H])C([H])(C([H])([H])[H])C3([H])C([H])([H])C([H])([H])C4(C([H])([H])C([H])([H])C([H])(C([H])([H])C(=O)N5C([H])([H])C([H])([H])C([H])([H])C([H])(n6nc(-c7c([H])c([H])c(Oc8c([H])c([H])c(F)c([H])c8F)c([H])c7[H])c(C(=O)N([H])[H])c6N([H])[H])C5([H])[H])C4([H])[H])C3([H])C([H])([H])[H])c([H])c([H])c2C1([H])[H]

>  <smiles>  (67) 
[H]c1c([H])c([H])c2c(c1[H])C([H])([H])C([H])([H])C([H])([H])C2([H])N([H])C(=O)C1([H])N(C(=O)C([H])(N([H])C(=O)C([H])(N([H])C([H])([H])[H])C([H])([H])[H])C(C([H])([H])[H])(C([H])([H])[H])C([H])([H])[H])C([H])([H])c2c([H])c(OC([H])([H])C([H])([H])C([H])([H])C([H])([H])[N+]([H])([H])C([H])(C([H])([H])[H])C3([H])C([H])([H])C([H])([H])C4(C([H])([H])C([H])([H])C([H])(C([H])([H])C(=O)N5C([H])([H])C([H])([H])C([H])([H])C([H])(n6nc(-c7c([H])c([H])c(Oc8c([H])c([H])c(F)c([H])c8F)c([H])c7[H])c(C(=O)N([H])[H])c6N([H])[H])C5([H])[H])C4([H])[H])C3([H])C([H])([H])[H])c([H])c([H])c2C1([H])[H]

$$$$
67:0:0
     RDKit          3D

102111  0  0  1  0  0  0  0  0999 V2000
  -23.8270  -18.8370   19.2570 C   0  0  0  0  0  2  0  0  0  0  0  0
  -23.0220  -20.1020   18.9260 C   0  0  0  0  0  2  0  0  0  0  0  0
  -25.1810  -18.8150   18.5260 C   0  0  0  0  0  2  0  0  0  0  0  0
  -25.1390  -21.3580   18.4910 C   0  0  0  0  0  2  0  0  0  0  0  0
  -23.8300  -21.3520   19.3000 C   0  0  0  0  0  3  0  0  0  0  0  0
  -26.0010  -20.1060   18.7590 C   0  0  0  0  0  3  0  0  0  0  0  0
  -23.0250  -22.6540   19.1210 C   0  0  0  0  0  2  0  0  0  0  0  0
  -22.9050  -25.1270   20.0490 C   0  0  0  0  0  2  0  0  0  0  0  0
  -24.0570  -25.9170   19.4510 C   0  0  0  0  0  2  0  0  0  0  0  0
  -23.7270  -23.8780   19.7290 C   0  0  0  0  0  3  0  0  0  0  0  0
  -24.4470  -24.6970   18.7430 N   0  0  2  0  0  4  0  0  0  0  0  0
  -23.9850  -24.6530   17.8480 H   0  0  0  0  0  0  0  0  0  0  0  0
  -25.9090  -24.4650   18.6240 C   0  0  0  0  0  2  0  0  0  0  0  0
  -26.6610  -25.7650   18.2760 C   0  0  0  0  0  2  0  0  0  0  0  0
  -27.9970  -25.5590   17.5380 C   0  0  0  0  0  2  0  0  0  0  0  0
  -28.9580  -26.7610   17.6610 C   0  0  0  0  0  2  0  0  0  0  0  0
  -28.3430  -27.9620   17.2010 O   0  0  0  0  0  0  0  0  0  0  0  0
  -25.7600  -28.9120   23.7850 C   0  0  0  0  0  0  0  0  0  0  0  0
  -27.3770  -28.4910   18.0160 C   0  0  0  0  0  0  0  0  0  0  0  0
  -24.2880  -29.6080   21.9220 C   0  0  0  0  0  3  0  0  0  0  0  0
  -25.3760  -29.6670   19.6140 C   0  0  0  0  0  0  0  0  0  0  0  0
  -26.8290  -29.6030   21.6480 C   0  0  0  0  0  2  0  0  0  0  0  0
  -26.6080  -29.3140   20.1810 C   0  0  0  0  0  0  0  0  0  0  0  0
  -27.6110  -28.7140   19.3900 C   0  0  0  0  0  3  0  0  0  0  0  0
  -26.1460  -28.8740   17.4500 C   0  0  0  0  0  3  0  0  0  0  0  0
  -25.1350  -29.4410   18.2470 C   0  0  0  0  0  3  0  0  0  0  0  0
  -24.3580  -30.3010   20.5350 C   0  0  0  0  0  2  0  0  0  0  0  0
  -25.6450  -29.3340   22.4960 N   0  0  0  0  0  0  0  0  0  0  0  0
  -24.7620  -28.7870   24.5090 O   0  0  0  0  0  0  0  0  0  0  0  0
  -23.4110  -28.3410   21.7970 C   0  0  0  0  0  0  0  0  0  0  0  0
  -22.0940  -28.5420   21.6310 N   0  0  0  0  0  0  0  0  0  0  0  0
  -23.9160  -27.2160   21.8200 O   0  0  0  0  0  0  0  0  0  0  0  0
  -21.7560  -29.4940   21.6320 H   0  0  0  0  0  0  0  0  0  0  0  0
  -18.5670  -27.9760   21.0880 C   0  0  0  0  0  0  0  0  0  0  0  0
  -21.0810  -27.5020   21.4540 C   0  0  0  0  0  3  0  0  0  0  0  0
  -21.0870  -26.9600   20.0050 C   0  0  0  0  0  2  0  0  0  0  0  0
  -20.0920  -27.6800   19.0890 C   0  0  0  0  0  2  0  0  0  0  0  0
  -18.6670  -27.5460   19.6330 C   0  0  0  0  0  2  0  0  0  0  0  0
  -19.7040  -27.9690   21.9380 C   0  0  0  0  0  0  0  0  0  0  0  0
  -19.5660  -28.4120   23.2710 C   0  0  0  0  0  3  0  0  0  0  0  0
  -18.3200  -28.8490   23.7590 C   0  0  0  0  0  3  0  0  0  0  0  0
  -17.1930  -28.8380   22.9180 C   0  0  0  0  0  3  0  0  0  0  0  0
  -17.3180  -28.3990   21.5880 C   0  0  0  0  0  3  0  0  0  0  0  0
  -27.1490  -28.5870   24.4200 C   0  0  0  0  0  3  0  0  0  0  0  0
  -27.3050  -29.4430   25.6030 N   0  0  0  0  0  0  0  0  0  0  0  0
  -28.0910  -30.5270   25.6580 C   0  0  0  0  0  0  0  0  0  0  0  0
  -28.8230  -30.8720   24.7250 O   0  0  0  0  0  0  0  0  0  0  0  0
  -26.6980  -29.2500   26.3840 H   0  0  0  0  0  0  0  0  0  0  0  0
  -27.2320  -32.6390   26.7200 C   0  0  0  0  0  1  0  0  0  0  0  0
  -28.0570  -31.3620   26.9510 C   0  0  0  0  0  3  0  0  0  0  0  0
  -30.1570  -30.5760   27.9490 C   0  0  0  0  0  1  0  0  0  0  0  0
  -29.4000  -31.7230   27.4550 N   0  0  0  0  0  0  0  0  0  0  0  0
  -29.3340  -32.4060   28.2040 H   0  0  0  0  0  0  0  0  0  0  0  0
  -27.3170  -27.0660   24.8040 C   0  0  1  0  0  0  0  0  0  0  0  0
  -26.1610  -26.5110   25.6700 C   0  0  0  0  0  1  0  0  0  0  0  0
  -27.4190  -26.1880   23.5330 C   0  0  0  0  0  1  0  0  0  0  0  0
  -28.6350  -26.8660   25.5880 C   0  0  0  0  0  1  0  0  0  0  0  0
  -27.2750  -20.1480   17.8830 C   0  0  0  0  0  2  0  0  0  0  0  0
  -28.2870  -18.9910   18.0750 C   0  0  0  0  0  3  0  0  0  0  0  0
  -28.2840  -18.4960   19.4890 N   0  0  0  0  0  4  0  0  0  0  0  0
  -27.9350  -19.2240   20.0910 H   0  0  0  0  0  0  0  0  0  0  0  0
  -27.5950  -17.7540   19.5000 H   0  0  0  0  0  0  0  0  0  0  0  0
  -29.5670  -17.9920   20.0620 C   0  0  0  0  0  2  0  0  0  0  0  0
  -29.4160  -17.0460   21.2860 C   0  0  0  0  0  2  0  0  0  0  0  0
  -30.4810  -15.9260   21.2190 C   0  0  0  0  0  0  0  0  0  0  0  0
  -30.7670  -13.6360   20.3920 C   0  0  0  0  0  2  0  0  0  0  0  0
  -29.9900  -13.5410   19.0600 C   0  0  0  0  0  2  0  0  0  0  0  0
  -28.5040  -13.1980   19.2970 C   0  0  0  0  0  2  0  0  0  0  0  0
  -27.8570  -14.0850   20.3920 C   0  0  0  0  0  3  0  0  0  0  0  0
  -28.7570  -14.1460   21.6450 C   0  0  0  0  0  2  0  0  0  0  0  0
  -30.0820  -14.6290   21.2310 N   0  0  0  0  0  0  0  0  0  0  0  0
  -31.6370  -16.2630   20.9410 O   0  0  0  0  0  0  0  0  0  0  0  0
  -25.3580  -14.4060   20.8820 C   0  0  0  0  0  0  0  0  0  0  0  0
  -24.3460  -13.5070   21.0910 C   0  0  0  0  0  0  0  0  0  0  0  0
  -24.9530  -12.2130   21.0440 C   0  0  0  0  0  0  0  0  0  0  0  0
  -26.5050  -13.6490   20.7140 N   0  0  0  0  0  0  0  0  0  0  0  0
  -26.2610  -12.3260   20.8670 N   0  0  0  0  0  0  0  0  0  0  0  0
  -24.3620  -10.8710   21.1060 C   0  0  0  0  0  0  0  0  0  0  0  0
  -24.7990   -9.9160   22.0500 C   0  0  0  0  0  3  0  0  0  0  0  0
  -24.2030   -8.6390   22.1060 C   0  0  0  0  0  3  0  0  0  0  0  0
  -23.1650   -8.3020   21.2050 C   0  0  0  0  0  0  0  0  0  0  0  0
  -22.7480   -9.2490   20.2520 C   0  0  0  0  0  3  0  0  0  0  0  0
  -23.3440  -10.5200   20.1990 C   0  0  0  0  0  3  0  0  0  0  0  0
  -22.5470   -7.0740   21.1600 O   0  0  0  0  0  0  0  0  0  0  0  0
  -22.3390   -6.3350   22.2940 C   0  0  0  0  0  0  0  0  0  0  0  0
  -21.6480   -6.8600   23.4080 C   0  0  0  0  0  3  0  0  0  0  0  0
  -21.3910   -6.0420   24.5260 C   0  0  0  0  0  3  0  0  0  0  0  0
  -21.8140   -4.6990   24.5300 C   0  0  0  0  0  0  0  0  0  0  0  0
  -22.5000   -4.1730   23.4200 C   0  0  0  0  0  3  0  0  0  0  0  0
  -22.7580   -4.9880   22.3050 C   0  0  0  0  0  0  0  0  0  0  0  0
  -23.4010   -4.4710   21.2310 F   0  0  0  0  0  0  0  0  0  0  0  0
  -21.5600   -3.9100   25.6020 F   0  0  0  0  0  0  0  0  0  0  0  0
  -22.8870  -13.8190   21.2500 C   0  0  0  0  0  0  0  0  0  0  0  0
  -22.1670  -13.0150   22.0210 N   0  0  0  0  0  0  0  0  0  0  0  0
  -22.3910  -14.8150   20.7260 O   0  0  0  0  0  0  0  0  0  0  0  0
  -22.5830  -12.2020   22.4510 H   0  0  0  0  0  0  0  0  0  0  0  0
  -21.1880  -13.2110   22.1780 H   0  0  0  0  0  0  0  0  0  0  0  0
  -25.4100  -15.7990   20.8210 N   0  0  0  0  0  0  0  0  0  0  0  0
  -24.5070  -16.0840   20.4530 H   0  0  0  0  0  0  0  0  0  0  0  0
  -25.3470  -16.0860   21.7930 H   0  0  0  0  0  0  0  0  0  0  0  0
  -29.9820  -18.7280   16.1540 C   0  0  0  0  0  1  0  0  0  0  0  0
  -29.6700  -19.4210   17.4870 C   0  0  0  0  0  2  0  0  0  0  0  0
  2  1  1  0
  2  5  1  0
  3  6  1  0
  3  1  1  0
  4  6  1  0
  4  5  1  0
  5  7  1  0
  6 58  1  0
  9  8  1  0
 10  7  1  0
 10  8  1  0
 11  9  1  0
 11 10  1  0
 11 12  1  6
 13 11  1  0
 14 13  1  0
 15 16  1  0
 15 14  1  0
 17 16  1  0
 17 19  1  0
 18 29  2  0
 19 24  1  0
 20 30  1  0
 20 28  1  0
 21 23  1  0
 21 27  1  0
 22 28  1  0
 23 22  1  0
 24 23  2  0
 25 19  2  0
 25 26  1  0
 26 21  2  0
 27 20  1  0
 28 18  1  0
 30 32  2  0
 31 33  1  0
 31 30  1  0
 34 43  2  0
 34 39  1  0
 35 31  1  0
 35 39  1  0
 36 35  1  0
 37 38  1  0
 37 36  1  0
 38 34  1  0
 39 40  2  0
 40 41  1  0
 42 41  2  0
 43 42  1  0
 44 18  1  0
 44 54  1  0
 44 45  1  0
 45 46  1  0
 45 48  1  0
 46 50  1  0
 47 46  2  0
 50 49  1  0
 50 52  1  0
 52 51  1  0
 52 53  1  0
 54 57  1  1
 54 55  1  0
 56 54  1  0
 58 59  1  0
 59102  1  0
 59 60  1  0
 60 62  1  0
 60 63  1  0
 60 61  1  0
 63 64  1  0
 65 71  1  0
 65 64  1  0
 66 71  1  0
 67 68  1  0
 67 66  1  0
 69 68  1  0
 69 76  1  0
 69 70  1  0
 71 70  1  0
 72 65  2  0
 73 74  2  0
 74 93  1  0
 75 74  1  0
 75 78  1  0
 76 77  1  0
 76 73  1  0
 77 75  2  0
 78 79  1  0
 79 80  2  0
 81 80  1  0
 82 81  2  0
 83 82  1  0
 83 78  2  0
 84 81  1  0
 84 85  1  0
 85 90  2  0
 85 86  1  0
 86 87  2  0
 87 88  1  0
 88 92  1  0
 89 88  2  0
 90 89  1  0
 91 90  1  0
 93 94  1  0
 94 97  1  0
 94 96  1  0
 95 93  2  0
 98 73  1  0
 98100  1  0
 99 98  1  0
101102  1  0
M  ISO  4  16 101  17 101  64 100  65 100
M  END
>  <TORSDO>  (68) 
F 28

>  <SCORE>  (68) 
0.150

>  <name>  (68) 
67

>  <ligand_id>  (68) 
67

>  <original_smiles>  (68) 
[H]c1c([H])c([H])c2c(c1[H])C([H])([H])C([H])([H])C([H])([H])C2([H])N([H])C(=O)C1([H])N(C(=O)C([H])(N([H])C(=O)C([H])(N([H])C([H])([H])[H])C([H])([H])[H])C(C([H])([H])[H])(C([H])([H])[H])C([H])([H])[H])C([H])([H])c2c([H])c(OC([H])([H])C([H])([H])C([H])([H])C([H])([H])[N+]3([H])C([H])([H])C([H])([H])C3([H])C([H])([H])C3([H])C([H])([H])C([H])([H])C([H])([H])C([H])(C([H])([H])C([H])(C([H])([H])C([H])([H])[H])[N+]([H])([H])C([H])([H])C([H])([H])C(=O)N4C([H])([H])C([H])([H])C([H])([H])C([H])(n5nc(-c6c([H])c([H])c(Oc7c([H])c([H])c(F)c([H])c7F)c([H])c6[H])c(C(=O)N([H])[H])c5N([H])[H])C4([H])[H])C3([H])[H])c([H])c([H])c2C1([H])[H]

>  <smiles>  (68) 
[H]c1c([H])c([H])c2c(c1[H])C([H])([H])C([H])([H])C([H])([H])C2([H])N([H])C(=O)C1([H])N(C(=O)C([H])(N([H])C(=O)C([H])(N([H])C([H])([H])[H])C([H])([H])[H])C(C([H])([H])[H])(C([H])([H])[H])C([H])([H])[H])C([H])([H])c2c([H])c(OC([H])([H])C([H])([H])C([H])([H])C([H])([H])[N+]3([H])C([H])([H])C([H])([H])C3([H])C([H])([H])C3([H])C([H])([H])C([H])([H])C([H])([H])C([H])(C([H])([H])C([H])(C([H])([H])C([H])([H])[H])[N+]([H])([H])C([H])([H])C([H])([H])C(=O)N4C([H])([H])C([H])([H])C([H])([H])C([H])(n5nc(-c6c([H])c([H])c(Oc7c([H])c([H])c(F)c([H])c7F)c([H])c6[H])c(C(=O)N([H])[H])c5N([H])[H])C4([H])[H])C3([H])[H])c([H])c([H])c2C1([H])[H]

$$$$
68:0:0
     RDKit          3D

100109  0  0  1  0  0  0  0  0999 V2000
  -30.0690  -22.4700   21.2030 C   0  0  0  0  0  3  0  0  0  0  0  0
  -32.5800  -21.5080   20.8280 C   0  0  0  0  0  2  0  0  0  0  0  0
  -32.7980  -19.7110   18.7880 C   0  0  0  0  0  2  0  0  0  0  0  0
  -30.9040  -20.9250   17.9410 C   0  0  0  0  0  2  0  0  0  0  0  0
  -32.8560  -21.1380   19.3570 C   0  0  0  0  0  3  0  0  0  0  0  0
  -31.5080  -21.7660   19.0400 C   0  0  0  0  0  3  0  0  0  0  0  0
  -31.0730  -21.5180   20.5200 C   0  0  0  0  0  3  0  0  0  0  0  0
  -31.4010  -19.5850   18.2990 N   0  0  1  0  0  4  0  0  0  0  0  0
  -30.8860  -19.3470   19.1330 H   0  0  0  0  0  0  0  0  0  0  0  0
  -31.0290  -18.4950   17.3850 C   0  0  0  0  0  2  0  0  0  0  0  0
  -29.9020  -17.7060   18.0700 C   0  0  0  0  0  2  0  0  0  0  0  0
  -29.9110  -15.5730   19.3680 C   0  0  0  0  0  3  0  0  0  0  0  0
  -30.4620  -16.7670   19.1120 C   0  0  0  0  0  3  0  0  0  0  0  0
  -30.6110  -14.5730   20.1530 C   0  0  0  0  0  0  0  0  0  0  0  0
  -30.2680  -12.3700   19.2280 C   0  0  0  0  0  2  0  0  0  0  0  0
  -29.3390  -12.5880   18.0140 C   0  0  0  0  0  2  0  0  0  0  0  0
  -27.8610  -12.4810   18.4490 C   0  0  0  0  0  2  0  0  0  0  0  0
  -27.5210  -13.3040   19.7240 C   0  0  0  0  0  3  0  0  0  0  0  0
  -28.6130  -13.1770   20.8150 C   0  0  0  0  0  2  0  0  0  0  0  0
  -29.9400  -13.3960   20.2170 N   0  0  0  0  0  0  0  0  0  0  0  0
  -31.8350  -14.6510   20.2000 O   0  0  0  0  0  0  0  0  0  0  0  0
  -25.1400  -13.8700   20.4960 C   0  0  0  0  0  0  0  0  0  0  0  0
  -24.0900  -13.0810   20.8740 C   0  0  0  0  0  0  0  0  0  0  0  0
  -24.5710  -11.7370   20.8210 C   0  0  0  0  0  0  0  0  0  0  0  0
  -26.1920  -13.0030   20.2360 N   0  0  0  0  0  0  0  0  0  0  0  0
  -25.8550  -11.7140   20.4890 N   0  0  0  0  0  0  0  0  0  0  0  0
  -23.8650  -10.4640   21.0080 C   0  0  0  0  0  0  0  0  0  0  0  0
  -24.3120   -9.5060   21.9450 C   0  0  0  0  0  3  0  0  0  0  0  0
  -23.6060   -8.2960   22.1190 C   0  0  0  0  0  3  0  0  0  0  0  0
  -22.4420   -8.0380   21.3600 C   0  0  0  0  0  0  0  0  0  0  0  0
  -22.0150   -8.9860   20.4140 C   0  0  0  0  0  3  0  0  0  0  0  0
  -22.7210  -10.1880   20.2360 C   0  0  0  0  0  3  0  0  0  0  0  0
  -21.7070   -6.8820   21.4470 O   0  0  0  0  0  0  0  0  0  0  0  0
  -21.6550   -6.1490   22.6070 C   0  0  0  0  0  0  0  0  0  0  0  0
  -21.1740   -6.6970   23.8160 C   0  0  0  0  0  3  0  0  0  0  0  0
  -21.0750   -5.8890   24.9650 C   0  0  0  0  0  3  0  0  0  0  0  0
  -21.4450   -4.5320   24.9040 C   0  0  0  0  0  0  0  0  0  0  0  0
  -21.9210   -3.9830   23.7010 C   0  0  0  0  0  3  0  0  0  0  0  0
  -22.0240   -4.7900   22.5540 C   0  0  0  0  0  0  0  0  0  0  0  0
  -22.4640   -4.2520   21.3910 F   0  0  0  0  0  0  0  0  0  0  0  0
  -21.3420   -3.7520   26.0060 F   0  0  0  0  0  0  0  0  0  0  0  0
  -22.6910  -13.5400   21.1700 C   0  0  0  0  0  0  0  0  0  0  0  0
  -21.9800  -12.8270   22.0350 N   0  0  0  0  0  0  0  0  0  0  0  0
  -22.2380  -14.5690   20.6680 O   0  0  0  0  0  0  0  0  0  0  0  0
  -22.3530  -11.9930   22.4660 H   0  0  0  0  0  0  0  0  0  0  0  0
  -21.0420  -13.1190   22.2780 H   0  0  0  0  0  0  0  0  0  0  0  0
  -25.2820  -15.2430   20.3330 N   0  0  0  0  0  0  0  0  0  0  0  0
  -24.4990  -15.8760   20.4590 H   0  0  0  0  0  0  0  0  0  0  0  0
  -26.1250  -15.7010   20.0140 H   0  0  0  0  0  0  0  0  0  0  0  0
  -28.7570  -22.3110   20.5170 N   0  0  0  0  0  4  0  0  0  0  0  0
  -28.7140  -21.3870   20.1230 H   0  0  0  0  0  0  0  0  0  0  0  0
  -28.0180  -22.3560   21.1980 H   0  0  0  0  0  0  0  0  0  0  0  0
  -28.4570  -23.2930   19.4540 C   0  0  0  0  0  2  0  0  0  0  0  0
  -28.1180  -24.6470   20.0610 C   0  0  0  0  0  2  0  0  0  0  0  0
  -28.4460  -25.8150   19.1420 C   0  0  0  0  0  2  0  0  0  0  0  0
  -28.3140  -26.9620   19.9550 O   0  0  0  0  0  0  0  0  0  0  0  0
  -24.4470  -31.9010   23.2180 C   0  0  0  0  0  0  0  0  0  0  0  0
  -27.0850  -27.5630   20.0330 C   0  0  0  0  0  0  0  0  0  0  0  0
  -23.2340  -30.5350   21.5530 C   0  0  0  0  0  3  0  0  0  0  0  0
  -24.6750  -29.0210   20.1110 C   0  0  0  0  0  0  0  0  0  0  0  0
  -25.7560  -30.8980   21.3570 C   0  0  0  0  0  2  0  0  0  0  0  0
  -25.8330  -29.5400   20.7060 C   0  0  0  0  0  0  0  0  0  0  0  0
  -27.0330  -28.8130   20.6800 C   0  0  0  0  0  3  0  0  0  0  0  0
  -25.8960  -27.0300   19.4690 C   0  0  0  0  0  3  0  0  0  0  0  0
  -24.6950  -27.7570   19.5060 C   0  0  0  0  0  3  0  0  0  0  0  0
  -23.4380  -29.8860   20.1610 C   0  0  0  0  0  2  0  0  0  0  0  0
  -24.4970  -31.1260   22.0990 N   0  0  0  0  0  0  0  0  0  0  0  0
  -23.3700  -32.1610   23.7670 O   0  0  0  0  0  0  0  0  0  0  0  0
  -22.5880  -29.4900   22.4900 C   0  0  0  0  0  0  0  0  0  0  0  0
  -21.2670  -29.2970   22.3420 N   0  0  0  0  0  0  0  0  0  0  0  0
  -23.2680  -28.8570   23.3010 O   0  0  0  0  0  0  0  0  0  0  0  0
  -20.7820  -29.8540   21.6550 H   0  0  0  0  0  0  0  0  0  0  0  0
  -17.8960  -28.0910   22.7820 C   0  0  0  0  0  0  0  0  0  0  0  0
  -20.4490  -28.3480   23.0940 C   0  0  0  0  0  3  0  0  0  0  0  0
  -20.5660  -26.9230   22.5040 C   0  0  0  0  0  2  0  0  0  0  0  0
  -19.4800  -26.6090   21.4720 C   0  0  0  0  0  2  0  0  0  0  0  0
  -18.0880  -26.7490   22.0940 C   0  0  0  0  0  2  0  0  0  0  0  0
  -19.0070  -28.8490   23.2360 C   0  0  0  0  0  0  0  0  0  0  0  0
  -18.7760  -30.1090   23.8290 C   0  0  0  0  0  3  0  0  0  0  0  0
  -17.4670  -30.6080   23.9780 C   0  0  0  0  0  3  0  0  0  0  0  0
  -16.3720  -29.8440   23.5420 C   0  0  0  0  0  3  0  0  0  0  0  0
  -16.5870  -28.5880   22.9480 C   0  0  0  0  0  3  0  0  0  0  0  0
  -25.7370  -32.5120   23.8470 C   0  0  0  0  0  3  0  0  0  0  0  0
  -26.2330  -31.7390   25.1290 C   0  0  1  0  0  0  0  0  0  0  0  0
  -25.1250  -31.5170   26.1870 C   0  0  0  0  0  1  0  0  0  0  0  0
  -26.8000  -30.3550   24.7390 C   0  0  0  0  0  1  0  0  0  0  0  0
  -27.3900  -32.5170   25.7990 C   0  0  0  0  0  1  0  0  0  0  0  0
  -25.4470  -33.9170   24.1650 N   0  0  0  0  0  0  0  0  0  0  0  0
  -25.8180  -34.9580   23.4090 C   0  0  0  0  0  0  0  0  0  0  0  0
  -26.5120  -34.8360   22.3940 O   0  0  0  0  0  0  0  0  0  0  0  0
  -24.8420  -34.0890   24.9560 H   0  0  0  0  0  0  0  0  0  0  0  0
  -24.1410  -36.7790   22.9800 C   0  0  0  0  0  1  0  0  0  0  0  0
  -25.3410  -36.3560   23.8440 C   0  0  0  0  0  3  0  0  0  0  0  0
  -27.4590  -37.1960   24.7640 C   0  0  0  0  0  1  0  0  0  0  0  0
  -26.4000  -37.3860   23.7730 N   0  0  0  0  0  0  0  0  0  0  0  0
  -26.0100  -38.3160   23.9010 H   0  0  0  0  0  0  0  0  0  0  0  0
  -29.4500  -23.6470   23.4040 C   0  0  0  0  0  1  0  0  0  0  0  0
  -29.8320  -22.2970   22.7490 C   0  0  0  0  0  3  0  0  0  0  0  0
  -30.7720  -21.5510   25.0650 C   0  0  0  0  0  1  0  0  0  0  0  0
  -30.9680  -21.5940   23.5340 C   0  0  0  0  0  2  0  0  0  0  0  0
  1 50  1  0
  1 98  1  0
  4  8  1  0
  5  3  1  0
  5  2  1  0
  6  4  1  0
  6  5  1  0
  6  7  1  0
  7  2  1  0
  7  1  1  0
  8  3  1  0
  8  9  1  1
 10 11  1  0
 10  8  1  0
 11 13  1  0
 12 14  1  0
 13 12  2  0
 14 21  2  0
 14 20  1  0
 15 20  1  0
 16 17  1  0
 16 15  1  0
 18 17  1  0
 18 25  1  0
 18 19  1  0
 20 19  1  0
 22 23  2  0
 23 42  1  0
 24 23  1  0
 24 27  1  0
 25 26  1  0
 25 22  1  0
 26 24  2  0
 27 28  1  0
 28 29  2  0
 30 33  1  0
 30 29  1  0
 31 30  2  0
 32 31  1  0
 32 27  2  0
 33 34  1  0
 34 35  1  0
 35 36  2  0
 37 36  1  0
 37 41  1  0
 38 37  2  0
 39 34  2  0
 39 38  1  0
 40 39  1  0
 42 43  1  0
 43 46  1  0
 43 45  1  0
 44 42  2  0
 47 48  1  0
 47 22  1  0
 49 47  1  0
 50 52  1  0
 51 50  1  0
 53 54  1  0
 53 50  1  0
 55 56  1  0
 55 54  1  0
 56 58  1  0
 57 68  2  0
 58 63  1  0
 59 67  1  0
 59 69  1  0
 60 66  1  0
 60 62  1  0
 61 67  1  0
 62 61  1  0
 63 62  2  0
 64 65  1  0
 64 58  2  0
 65 60  2  0
 66 59  1  0
 67 57  1  0
 69 71  2  0
 70 69  1  0
 72 70  1  0
 73 82  2  0
 73 78  1  0
 74 70  1  0
 74 78  1  0
 75 74  1  0
 76 77  1  0
 76 75  1  0
 77 73  1  0
 78 79  2  0
 79 80  1  0
 81 80  2  0
 82 81  1  0
 83 57  1  0
 83 88  1  0
 83 84  1  0
 84 87  1  1
 84 85  1  0
 86 84  1  0
 88 91  1  0
 89 93  1  0
 89 88  1  0
 90 89  2  0
 93 92  1  0
 95 93  1  0
 95 96  1  0
 95 94  1  0
 98 97  1  0
 98100  1  0
100 99  1  0
M  ISO  4  12 100  14 100  55 101  56 101
M  END
>  <TORSDO>  (69) 
F 26

>  <SCORE>  (69) 
-12.102

>  <name>  (69) 
68

>  <ligand_id>  (69) 
68

>  <original_smiles>  (69) 
[H]C(C(=O)N1C([H])([H])C([H])([H])C([H])([H])C([H])(n2nc(-c3c([H])c([H])c(Oc4c([H])c([H])c(F)c([H])c4F)c([H])c3[H])c(C(=O)N([H])[H])c2N([H])[H])C1([H])[H])=C([H])C([H])([H])C([H])([H])[N+]1([H])C([H])([H])C2([H])C([H])([H])C([H])(C([H])(C([H])(C([H])([H])[H])C([H])([H])C([H])([H])[H])[N+]([H])([H])C([H])([H])C([H])([H])C([H])([H])Oc3c([H])c([H])c4c(c3[H])C([H])([H])N(C(=O)C([H])(N([H])C(=O)C([H])(N([H])C([H])([H])[H])C([H])([H])[H])C(C([H])([H])[H])(C([H])([H])[H])C([H])([H])[H])C([H])(C(=O)N([H])C3([H])c5c([H])c([H])c([H])c([H])c5C([H])([H])C([H])([H])C3([H])[H])C4([H])[H])C2([H])C1([H])[H]

>  <smiles>  (69) 
[H]C(C(=O)N1C([H])([H])C([H])([H])C([H])([H])C([H])(n2nc(-c3c([H])c([H])c(Oc4c([H])c([H])c(F)c([H])c4F)c([H])c3[H])c(C(=O)N([H])[H])c2N([H])[H])C1([H])[H])=C([H])C([H])([H])C([H])([H])[N+]1([H])C([H])([H])C2([H])C([H])([H])C([H])(C([H])(C([H])(C([H])([H])[H])C([H])([H])C([H])([H])[H])[N+]([H])([H])C([H])([H])C([H])([H])C([H])([H])Oc3c([H])c([H])c4c(c3[H])C([H])([H])N(C(=O)C([H])(N([H])C(=O)C([H])(N([H])C([H])([H])[H])C([H])([H])[H])C(C([H])([H])[H])(C([H])([H])[H])C([H])([H])[H])C([H])(C(=O)N([H])C3([H])c5c([H])c([H])c([H])c([H])c5C([H])([H])C([H])([H])C3([H])[H])C4([H])[H])C2([H])C1([H])[H]

$$$$
69:0:0
     RDKit          3D

 93102  0  0  1  0  0  0  0  0999 V2000
  -29.9450  -20.5900   21.2830 C   0  0  0  0  0  0  0  0  0  0  0  0
  -29.7990  -19.5710   20.4080 C   0  0  0  0  0  3  0  0  0  0  0  0
  -31.8440  -21.1280   24.5420 C   0  0  0  0  0  2  0  0  0  0  0  0
  -30.7720  -22.1630   24.9420 C   0  0  0  0  0  2  0  0  0  0  0  0
  -31.4610  -20.2810   23.2990 C   0  0  0  0  0  2  0  0  0  0  0  0
  -30.2970  -22.9820   23.7220 C   0  0  0  0  0  2  0  0  0  0  0  0
  -30.1060  -22.1170   21.1730 C   0  0  0  0  0  3  0  0  0  0  0  0
  -30.0410  -20.5730   22.7950 C   0  0  0  0  0  3  0  0  0  0  0  0
  -29.6580  -22.0630   22.6740 C   0  0  0  0  0  3  0  0  0  0  0  0
  -28.2450  -22.3740   19.4570 C   0  0  0  0  0  2  0  0  0  0  0  0
  -29.1560  -22.9420   20.2730 C   0  0  0  0  0  0  0  0  0  0  0  0
  -29.3200  -24.4790   20.3670 C   0  0  0  0  0  2  0  0  0  0  0  0
  -28.1380  -25.3200   19.8160 C   0  0  0  0  0  2  0  0  0  0  0  0
  -28.2710  -26.7420   19.9950 O   0  0  0  0  0  0  0  0  0  0  0  0
  -24.5380  -31.8980   23.1770 C   0  0  0  0  0  0  0  0  0  0  0  0
  -27.0980  -27.4880   19.9830 C   0  0  0  0  0  0  0  0  0  0  0  0
  -23.2920  -30.5140   21.5490 C   0  0  0  0  0  3  0  0  0  0  0  0
  -24.7090  -29.0120   20.0560 C   0  0  0  0  0  0  0  0  0  0  0  0
  -25.8060  -30.8920   21.2790 C   0  0  0  0  0  2  0  0  0  0  0  0
  -25.8770  -29.5230   20.6310 C   0  0  0  0  0  0  0  0  0  0  0  0
  -27.0690  -28.7600   20.6020 C   0  0  0  0  0  3  0  0  0  0  0  0
  -25.9100  -27.0130   19.3760 C   0  0  0  0  0  3  0  0  0  0  0  0
  -24.7190  -27.7600   19.4230 C   0  0  0  0  0  3  0  0  0  0  0  0
  -23.4630  -29.8610   20.1540 C   0  0  0  0  0  2  0  0  0  0  0  0
  -24.5660  -31.1130   22.0630 N   0  0  0  0  0  0  0  0  0  0  0  0
  -23.4690  -32.1660   23.7470 O   0  0  0  0  0  0  0  0  0  0  0  0
  -22.6620  -29.4830   22.5110 C   0  0  0  0  0  0  0  0  0  0  0  0
  -21.3350  -29.2990   22.4080 N   0  0  0  0  0  0  0  0  0  0  0  0
  -23.3640  -28.8480   23.3030 O   0  0  0  0  0  0  0  0  0  0  0  0
  -20.8290  -29.8540   21.7310 H   0  0  0  0  0  0  0  0  0  0  0  0
  -17.9780  -28.0730   22.9360 C   0  0  0  0  0  0  0  0  0  0  0  0
  -20.5370  -28.3530   23.1880 C   0  0  0  0  0  3  0  0  0  0  0  0
  -20.6500  -26.9270   22.6040 C   0  0  0  0  0  2  0  0  0  0  0  0
  -19.5420  -26.6000   21.5970 C   0  0  0  0  0  2  0  0  0  0  0  0
  -18.1650  -26.7270   22.2560 C   0  0  0  0  0  2  0  0  0  0  0  0
  -19.0940  -28.8400   23.3620 C   0  0  0  0  0  0  0  0  0  0  0  0
  -18.8710  -30.0970   23.9650 C   0  0  0  0  0  3  0  0  0  0  0  0
  -17.5650  -30.5880   24.1470 C   0  0  0  0  0  3  0  0  0  0  0  0
  -16.4630  -29.8160   23.7420 C   0  0  0  0  0  3  0  0  0  0  0  0
  -16.6700  -28.5620   23.1410 C   0  0  0  0  0  3  0  0  0  0  0  0
  -25.8380  -32.5210   23.7720 C   0  0  0  0  0  3  0  0  0  0  0  0
  -25.5470  -33.9170   24.1260 N   0  0  0  0  0  0  0  0  0  0  0  0
  -25.8900  -34.9750   23.3790 C   0  0  0  0  0  0  0  0  0  0  0  0
  -26.5620  -34.8780   22.3500 O   0  0  0  0  0  0  0  0  0  0  0  0
  -24.9430  -34.0700   24.9200 H   0  0  0  0  0  0  0  0  0  0  0  0
  -24.2060  -36.8080   23.0180 C   0  0  0  0  0  1  0  0  0  0  0  0
  -25.4150  -36.3590   23.8550 C   0  0  0  0  0  3  0  0  0  0  0  0
  -27.5340  -37.1920   24.7740 C   0  0  0  0  0  1  0  0  0  0  0  0
  -26.4690  -37.3950   23.7960 N   0  0  0  0  0  0  0  0  0  0  0  0
  -26.0740  -38.3190   23.9520 H   0  0  0  0  0  0  0  0  0  0  0  0
  -26.3900  -31.7280   25.0210 C   0  0  1  0  0  0  0  0  0  0  0  0
  -25.3260  -31.4750   26.1150 C   0  0  0  0  0  1  0  0  0  0  0  0
  -26.9590  -30.3570   24.5870 C   0  0  0  0  0  1  0  0  0  0  0  0
  -27.5630  -32.5040   25.6670 C   0  0  0  0  0  1  0  0  0  0  0  0
  -29.5090  -18.1170   20.7910 C   0  0  0  0  0  2  0  0  0  0  0  0
  -30.7070  -17.1370   20.6840 C   0  0  0  0  0  2  0  0  0  0  0  0
  -30.3110  -15.6810   21.0780 C   0  0  0  0  0  2  0  0  0  0  0  0
  -30.8800  -14.5620   20.1760 C   0  0  0  0  0  0  0  0  0  0  0  0
  -30.4970  -12.4950   18.8810 C   0  0  0  0  0  2  0  0  0  0  0  0
  -29.4790  -12.7500   17.7530 C   0  0  0  0  0  2  0  0  0  0  0  0
  -28.0310  -12.5950   18.2610 C   0  0  0  0  0  2  0  0  0  0  0  0
  -27.7700  -13.3650   19.5830 C   0  0  0  0  0  3  0  0  0  0  0  0
  -28.8890  -13.0640   20.6040 C   0  0  0  0  0  2  0  0  0  0  0  0
  -30.1800  -13.4080   19.9880 N   0  0  0  0  0  0  0  0  0  0  0  0
  -31.9450  -14.7800   19.5950 O   0  0  0  0  0  0  0  0  0  0  0  0
  -25.3940  -13.9400   20.4000 C   0  0  0  0  0  0  0  0  0  0  0  0
  -24.3490  -13.1580   20.8030 C   0  0  0  0  0  0  0  0  0  0  0  0
  -24.8140  -11.8100   20.7260 C   0  0  0  0  0  0  0  0  0  0  0  0
  -26.4400  -13.0720   20.1170 N   0  0  0  0  0  0  0  0  0  0  0  0
  -26.0920  -11.7830   20.3650 N   0  0  0  0  0  0  0  0  0  0  0  0
  -24.1020  -10.5410   20.9210 C   0  0  0  0  0  0  0  0  0  0  0  0
  -24.5500   -9.5770   21.8490 C   0  0  0  0  0  3  0  0  0  0  0  0
  -23.8370   -8.3710   22.0320 C   0  0  0  0  0  3  0  0  0  0  0  0
  -22.6590   -8.1230   21.2890 C   0  0  0  0  0  0  0  0  0  0  0  0
  -22.2330   -9.0730   20.3460 C   0  0  0  0  0  3  0  0  0  0  0  0
  -22.9470  -10.2700   20.1600 C   0  0  0  0  0  3  0  0  0  0  0  0
  -21.9120   -6.9760   21.3880 O   0  0  0  0  0  0  0  0  0  0  0  0
  -21.8390   -6.2630   22.5580 C   0  0  0  0  0  0  0  0  0  0  0  0
  -21.3340   -6.8320   23.7490 C   0  0  0  0  0  3  0  0  0  0  0  0
  -21.2190   -6.0400   24.9110 C   0  0  0  0  0  3  0  0  0  0  0  0
  -21.5960   -4.6850   24.8790 C   0  0  0  0  0  0  0  0  0  0  0  0
  -22.0900   -4.1160   23.6920 C   0  0  0  0  0  3  0  0  0  0  0  0
  -22.2140   -4.9050   22.5350 C   0  0  0  0  0  0  0  0  0  0  0  0
  -22.6730   -4.3480   21.3890 F   0  0  0  0  0  0  0  0  0  0  0  0
  -21.4730   -3.9230   25.9910 F   0  0  0  0  0  0  0  0  0  0  0  0
  -22.9600  -13.6240   21.1420 C   0  0  0  0  0  0  0  0  0  0  0  0
  -22.2690  -12.9090   22.0250 N   0  0  0  0  0  0  0  0  0  0  0  0
  -22.5020  -14.6570   20.6590 O   0  0  0  0  0  0  0  0  0  0  0  0
  -22.6590  -12.0810   22.4500 H   0  0  0  0  0  0  0  0  0  0  0  0
  -21.3330  -13.1920   22.2850 H   0  0  0  0  0  0  0  0  0  0  0  0
  -25.5480  -15.3140   20.2300 N   0  0  0  0  0  0  0  0  0  0  0  0
  -24.7770  -15.9600   20.3600 H   0  0  0  0  0  0  0  0  0  0  0  0
  -26.3870  -15.7620   19.8830 H   0  0  0  0  0  0  0  0  0  0  0  0
  1  8  1  0
  2 55  1  0
  2  1  2  0
  3  4  1  0
  5  3  1  0
  6  4  1  0
  7 11  1  0
  7  1  1  0
  7  9  1  0
  8  5  1  0
  9  8  1  0
  9  6  1  0
 10 11  2  0
 11 12  1  0
 13 14  1  0
 13 12  1  0
 15 26  2  0
 16 14  1  0
 16 21  1  0
 17 25  1  0
 17 27  1  0
 18 24  1  0
 18 20  1  0
 19 25  1  0
 20 19  1  0
 21 20  2  0
 22 23  1  0
 22 16  2  0
 23 18  2  0
 24 17  1  0
 25 15  1  0
 27 29  2  0
 28 27  1  0
 30 28  1  0
 31 40  2  0
 31 36  1  0
 32 28  1  0
 32 36  1  0
 33 32  1  0
 34 35  1  0
 34 33  1  0
 35 31  1  0
 36 37  2  0
 37 38  1  0
 39 38  2  0
 40 39  1  0
 41 15  1  0
 41 42  1  0
 41 51  1  0
 42 45  1  0
 43 47  1  0
 43 42  1  0
 44 43  2  0
 47 46  1  0
 49 47  1  0
 49 50  1  0
 49 48  1  0
 51 54  1  1
 51 52  1  0
 53 51  1  0
 56 55  1  0
 56 57  1  0
 58 57  1  0
 59 64  1  0
 60 61  1  0
 60 59  1  0
 62 61  1  0
 62 69  1  0
 62 63  1  0
 64 58  1  0
 64 63  1  0
 65 58  2  0
 66 67  2  0
 67 86  1  0
 68 67  1  0
 68 71  1  0
 69 70  1  0
 69 66  1  0
 70 68  2  0
 71 72  1  0
 72 73  2  0
 74 77  1  0
 74 73  1  0
 75 74  2  0
 76 75  1  0
 76 71  2  0
 77 78  1  0
 78 79  1  0
 79 80  2  0
 81 80  1  0
 81 85  1  0
 82 81  2  0
 83 78  2  0
 83 82  1  0
 84 83  1  0
 86 87  1  0
 87 90  1  0
 87 89  1  0
 88 86  2  0
 91 92  1  0
 91 66  1  0
 93 91  1  0
M  ISO  4  13 101  14 101  57 100  58 100
M  END
>  <TORSDO>  (70) 
F 22

>  <SCORE>  (70) 
-13.080

>  <name>  (70) 
69

>  <ligand_id>  (70) 
69

>  <original_smiles>  (70) 
[H]C([H])=C(C([H])([H])C([H])([H])Oc1c([H])c([H])c2c(c1[H])C([H])([H])N(C(=O)C([H])(N([H])C(=O)C([H])(N([H])C([H])([H])[H])C([H])([H])[H])C(C([H])([H])[H])(C([H])([H])[H])C([H])([H])[H])C([H])(C(=O)N([H])C1([H])c3c([H])c([H])c([H])c([H])c3C([H])([H])C([H])([H])C1([H])[H])C2([H])[H])C1([H])C(=C([H])C([H])([H])C([H])([H])C([H])([H])C(=O)N2C([H])([H])C([H])([H])C([H])([H])C([H])(n3nc(-c4c([H])c([H])c(Oc5c([H])c([H])c(F)c([H])c5F)c([H])c4[H])c(C(=O)N([H])[H])c3N([H])[H])C2([H])[H])C2([H])C([H])([H])C([H])([H])C([H])([H])C([H])([H])C12[H]

>  <smiles>  (70) 
[H]C([H])=C(C([H])([H])C([H])([H])Oc1c([H])c([H])c2c(c1[H])C([H])([H])N(C(=O)C([H])(N([H])C(=O)C([H])(N([H])C([H])([H])[H])C([H])([H])[H])C(C([H])([H])[H])(C([H])([H])[H])C([H])([H])[H])C([H])(C(=O)N([H])C1([H])c3c([H])c([H])c([H])c([H])c3C([H])([H])C([H])([H])C1([H])[H])C2([H])[H])C1([H])C(=C([H])C([H])([H])C([H])([H])C([H])([H])C(=O)N2C([H])([H])C([H])([H])C([H])([H])C([H])(n3nc(-c4c([H])c([H])c(Oc5c([H])c([H])c(F)c([H])c5F)c([H])c4[H])c(C(=O)N([H])[H])c3N([H])[H])C2([H])[H])C2([H])C([H])([H])C([H])([H])C([H])([H])C([H])([H])C12[H]

$$$$
70:0:0
     RDKit          3D

 90 99  0  0  1  0  0  0  0  0999 V2000
  -29.7640  -20.9460   18.9780 C   0  0  0  0  0  0  0  0  0  0  0  0
  -31.5160  -19.0590   18.8030 C   0  0  0  0  0  2  0  0  0  0  0  0
  -31.5870  -17.9050   19.8250 C   0  0  0  0  0  2  0  0  0  0  0  0
  -29.1110  -19.7740   20.8430 C   0  0  0  0  0  2  0  0  0  0  0  0
  -30.0290  -19.4650   18.6730 C   0  0  0  0  0  3  0  0  0  0  0  0
  -29.2780  -18.6510   19.7390 C   0  0  0  0  0  3  0  0  0  0  0  0
  -30.1700  -17.3230   19.8450 C   0  0  0  0  0  3  0  0  0  0  0  0
  -29.1660  -21.1150   20.1680 N   0  0  0  0  0  0  0  0  0  0  0  0
  -30.0640  -21.8380   18.1800 O   0  0  0  0  0  0  0  0  0  0  0  0
  -29.8920  -16.0400   20.7740 C   0  0  0  0  0  2  0  0  0  0  0  0
  -30.6220  -14.6710   20.3790 C   0  0  0  0  0  0  0  0  0  0  0  0
  -30.3720  -12.4270   19.3280 C   0  0  0  0  0  2  0  0  0  0  0  0
  -29.4350  -12.5690   18.1080 C   0  0  0  0  0  2  0  0  0  0  0  0
  -27.9610  -12.4200   18.5340 C   0  0  0  0  0  2  0  0  0  0  0  0
  -27.6100  -13.2850   19.7740 C   0  0  0  0  0  3  0  0  0  0  0  0
  -28.6680  -13.1420   20.8890 C   0  0  0  0  0  2  0  0  0  0  0  0
  -29.9780  -13.4600   20.3110 N   0  0  0  0  0  0  0  0  0  0  0  0
  -31.7920  -14.7460   19.9970 O   0  0  0  0  0  0  0  0  0  0  0  0
  -25.2240  -13.8940   20.4970 C   0  0  0  0  0  0  0  0  0  0  0  0
  -24.1540  -13.1270   20.8700 C   0  0  0  0  0  0  0  0  0  0  0  0
  -24.6090  -11.7730   20.8430 C   0  0  0  0  0  0  0  0  0  0  0  0
  -26.2630  -13.0080   20.2640 N   0  0  0  0  0  0  0  0  0  0  0  0
  -25.9000  -11.7280   20.5340 N   0  0  0  0  0  0  0  0  0  0  0  0
  -23.8750  -10.5160   21.0380 C   0  0  0  0  0  0  0  0  0  0  0  0
  -24.3070   -9.5450   21.9680 C   0  0  0  0  0  3  0  0  0  0  0  0
  -23.5760   -8.3530   22.1520 C   0  0  0  0  0  3  0  0  0  0  0  0
  -22.3960   -8.1220   21.4040 C   0  0  0  0  0  0  0  0  0  0  0  0
  -21.9820   -9.0820   20.4630 C   0  0  0  0  0  3  0  0  0  0  0  0
  -22.7150  -10.2650   20.2770 C   0  0  0  0  0  3  0  0  0  0  0  0
  -21.6340   -6.9830   21.4970 O   0  0  0  0  0  0  0  0  0  0  0  0
  -21.5950   -6.2340   22.6460 C   0  0  0  0  0  0  0  0  0  0  0  0
  -21.1960   -6.7870   23.8820 C   0  0  0  0  0  3  0  0  0  0  0  0
  -21.1030   -5.9660   25.0230 C   0  0  0  0  0  3  0  0  0  0  0  0
  -21.3990   -4.5920   24.9290 C   0  0  0  0  0  0  0  0  0  0  0  0
  -21.7910   -4.0380   23.6970 C   0  0  0  0  0  3  0  0  0  0  0  0
  -21.8850   -4.8570   22.5590 C   0  0  0  0  0  0  0  0  0  0  0  0
  -22.2430   -4.3150   21.3690 F   0  0  0  0  0  0  0  0  0  0  0  0
  -21.3020   -3.8020   26.0230 F   0  0  0  0  0  0  0  0  0  0  0  0
  -22.7590  -13.6140   21.1390 C   0  0  0  0  0  0  0  0  0  0  0  0
  -22.0260  -12.9230   22.0060 N   0  0  0  0  0  0  0  0  0  0  0  0
  -22.3280  -14.6390   20.6160 O   0  0  0  0  0  0  0  0  0  0  0  0
  -22.3880  -12.0920   22.4510 H   0  0  0  0  0  0  0  0  0  0  0  0
  -21.0900  -13.2310   22.2290 H   0  0  0  0  0  0  0  0  0  0  0  0
  -25.3960  -15.2630   20.3160 N   0  0  0  0  0  0  0  0  0  0  0  0
  -24.6340  -15.9240   20.4270 H   0  0  0  0  0  0  0  0  0  0  0  0
  -26.2530  -15.6980   19.9980 H   0  0  0  0  0  0  0  0  0  0  0  0
  -28.6480  -22.4030   20.7890 C   0  0  0  0  0  2  0  0  0  0  0  0
  -28.7930  -23.8250   20.0490 C   0  0  0  0  0  3  0  0  0  0  0  0
  -28.1600  -25.1060   20.7690 C   0  0  0  0  0  3  0  0  0  0  0  0
  -28.3450  -26.4690   20.2090 O   0  0  0  0  0  0  0  0  0  0  0  0
  -24.6160  -31.8660   23.2390 C   0  0  0  0  0  0  0  0  0  0  0  0
  -27.2300  -27.3180   20.1920 C   0  0  0  0  0  0  0  0  0  0  0  0
  -23.4110  -30.4650   21.6000 C   0  0  0  0  0  3  0  0  0  0  0  0
  -24.8620  -28.9150   20.1740 C   0  0  0  0  0  0  0  0  0  0  0  0
  -25.9470  -30.7940   21.4070 C   0  0  0  0  0  2  0  0  0  0  0  0
  -26.0300  -29.4140   20.7650 C   0  0  0  0  0  0  0  0  0  0  0  0
  -27.2210  -28.6290   20.7590 C   0  0  0  0  0  3  0  0  0  0  0  0
  -26.0430  -26.8680   19.5750 C   0  0  0  0  0  3  0  0  0  0  0  0
  -24.8710  -27.6480   19.5670 C   0  0  0  0  0  3  0  0  0  0  0  0
  -23.6210  -29.7860   20.2210 C   0  0  0  0  0  2  0  0  0  0  0  0
  -24.6760  -31.0590   22.1400 N   0  0  0  0  0  0  0  0  0  0  0  0
  -23.5330  -32.1410   23.7760 O   0  0  0  0  0  0  0  0  0  0  0  0
  -22.7520  -29.4490   22.5640 C   0  0  0  0  0  0  0  0  0  0  0  0
  -21.4250  -29.2710   22.4400 N   0  0  0  0  0  0  0  0  0  0  0  0
  -23.4330  -28.8230   23.3800 O   0  0  0  0  0  0  0  0  0  0  0  0
  -20.9360  -29.8260   21.7520 H   0  0  0  0  0  0  0  0  0  0  0  0
  -18.0500  -28.0740   22.9470 C   0  0  0  0  0  0  0  0  0  0  0  0
  -20.6090  -28.3340   23.2130 C   0  0  0  0  0  3  0  0  0  0  0  0
  -20.7100  -26.9030   22.6380 C   0  0  0  0  0  2  0  0  0  0  0  0
  -19.6070  -26.5790   21.6260 C   0  0  0  0  0  2  0  0  0  0  0  0
  -18.2260  -26.7240   22.2710 C   0  0  0  0  0  2  0  0  0  0  0  0
  -19.1690  -28.8370   23.3750 C   0  0  0  0  0  0  0  0  0  0  0  0
  -18.9510  -30.1000   23.9670 C   0  0  0  0  0  3  0  0  0  0  0  0
  -17.6470  -30.6000   24.1360 C   0  0  0  0  0  3  0  0  0  0  0  0
  -16.5420  -29.8350   23.7230 C   0  0  0  0  0  3  0  0  0  0  0  0
  -16.7450  -28.5740   23.1350 C   0  0  0  0  0  3  0  0  0  0  0  0
  -25.8990  -32.4990   23.8590 C   0  0  0  0  0  3  0  0  0  0  0  0
  -26.4190  -31.7290   25.1340 C   0  0  1  0  0  0  0  0  0  0  0  0
  -25.3280  -31.4900   26.2040 C   0  0  0  0  0  1  0  0  0  0  0  0
  -27.0010  -30.3520   24.7400 C   0  0  0  0  0  1  0  0  0  0  0  0
  -27.5720  -32.5220   25.7920 C   0  0  0  0  0  1  0  0  0  0  0  0
  -25.5870  -33.8970   24.1910 N   0  0  0  0  0  0  0  0  0  0  0  0
  -25.9140  -34.9530   23.4350 C   0  0  0  0  0  0  0  0  0  0  0  0
  -26.5810  -34.8520   22.3990 O   0  0  0  0  0  0  0  0  0  0  0  0
  -24.9950  -34.0490   24.9960 H   0  0  0  0  0  0  0  0  0  0  0  0
  -24.1810  -36.7420   23.0910 C   0  0  0  0  0  1  0  0  0  0  0  0
  -25.4270  -36.3400   23.8950 C   0  0  0  0  0  3  0  0  0  0  0  0
  -27.5650  -37.2270   24.7150 C   0  0  0  0  0  1  0  0  0  0  0  0
  -26.4570  -37.3950   23.7780 N   0  0  0  0  0  0  0  0  0  0  0  0
  -26.0510  -38.3140   23.9290 H   0  0  0  0  0  0  0  0  0  0  0  0
  1  8  1  0
  2  3  1  0
  3  7  1  0
  5  2  1  0
  5  1  1  0
  5  6  1  0
  6  7  1  0
  6  4  1  0
  7 10  1  0
  8 47  1  0
  8  4  1  0
  9  1  2  0
 11 10  1  0
 12 17  1  0
 13 14  1  0
 13 12  1  0
 15 14  1  0
 15 22  1  0
 15 16  1  0
 17 11  1  0
 17 16  1  0
 18 11  2  0
 19 20  2  0
 20 39  1  0
 21 20  1  0
 21 24  1  0
 22 19  1  0
 22 23  1  0
 23 21  2  0
 24 25  1  0
 25 26  2  0
 27 30  1  0
 27 26  1  0
 28 27  2  0
 29 28  1  0
 29 24  2  0
 30 31  1  0
 31 32  1  0
 32 33  2  0
 34 33  1  0
 34 38  1  0
 35 34  2  0
 36 31  2  0
 36 35  1  0
 37 36  1  0
 39 40  1  0
 40 43  1  0
 40 42  1  0
 41 39  2  0
 44 45  1  0
 44 19  1  0
 46 44  1  0
 48 49  2  0
 48 47  1  0
 50 49  1  0
 51 62  2  0
 52 50  1  0
 52 57  1  0
 53 61  1  0
 53 63  1  0
 54 60  1  0
 54 56  1  0
 55 61  1  0
 56 55  1  0
 57 56  2  0
 58 52  2  0
 59 58  1  0
 59 54  2  0
 60 53  1  0
 61 51  1  0
 63 65  2  0
 64 63  1  0
 66 64  1  0
 67 76  2  0
 67 72  1  0
 68 64  1  0
 68 72  1  0
 69 68  1  0
 70 71  1  0
 70 69  1  0
 71 67  1  0
 72 73  2  0
 73 74  1  0
 75 74  2  0
 76 75  1  0
 77 51  1  0
 77 82  1  0
 77 78  1  0
 78 81  1  1
 78 79  1  0
 80 78  1  0
 82 85  1  0
 83 87  1  0
 83 82  1  0
 84 83  2  0
 87 86  1  0
 89 87  1  0
 89 90  1  0
 89 88  1  0
M  ISO  4  10 100  11 100  49 101  50 101
M  END
>  <TORSDO>  (71) 
F 20

>  <SCORE>  (71) 
-13.826

>  <name>  (71) 
70

>  <ligand_id>  (71) 
70

>  <original_smiles>  (71) 
[H]c1c([H])c([H])c2c(c1[H])C([H])([H])C([H])([H])C([H])([H])C2([H])N([H])C(=O)C1([H])N(C(=O)C([H])(N([H])C(=O)C([H])(N([H])C([H])([H])[H])C([H])([H])[H])C(C([H])([H])[H])(C([H])([H])[H])C([H])([H])[H])C([H])([H])c2c([H])c(OC([H])([H])C([H])([H])C([H])([H])N3C(=O)C4([H])C([H])([H])C([H])([H])C([H])(C([H])([H])C(=O)N5C([H])([H])C([H])([H])C([H])([H])C([H])(n6nc(-c7c([H])c([H])c(Oc8c([H])c([H])c(F)c([H])c8F)c([H])c7[H])c(C(=O)N([H])[H])c6N([H])[H])C5([H])[H])C4([H])C3([H])[H])c([H])c([H])c2C1([H])[H]

>  <smiles>  (71) 
[H]c1c([H])c([H])c2c(c1[H])C([H])([H])C([H])([H])C([H])([H])C2([H])N([H])C(=O)C1([H])N(C(=O)C([H])(N([H])C(=O)C([H])(N([H])C([H])([H])[H])C([H])([H])[H])C(C([H])([H])[H])(C([H])([H])[H])C([H])([H])[H])C([H])([H])c2c([H])c(OC([H])([H])C([H])([H])C([H])([H])N3C(=O)C4([H])C([H])([H])C([H])([H])C([H])(C([H])([H])C(=O)N5C([H])([H])C([H])([H])C([H])([H])C([H])(n6nc(-c7c([H])c([H])c(Oc8c([H])c([H])c(F)c([H])c8F)c([H])c7[H])c(C(=O)N([H])[H])c6N([H])[H])C5([H])[H])C4([H])C3([H])[H])c([H])c([H])c2C1([H])[H]

$$$$
71:0:0
     RDKit          3D

 96 95  0  0  1  0  0  0  0  0999 V2000
  -25.7280  -12.2220   22.8940 C   0  0  0  0  0  1  0  0  0  0  0  0
  -22.9390  -12.4000   20.5910 C   0  0  0  0  0  1  0  0  0  0  0  0
  -24.2500  -11.4450   22.8480 C   0  0  0  0  0  1  0  0  0  0  0  0
  -25.8460  -12.6200   19.2080 C   0  0  0  0  0  1  0  0  0  0  0  0
  -26.0030   -9.8810   21.9110 C   0  0  0  0  0  1  0  0  0  0  0  0
  -26.1790  -10.2550   19.5790 C   0  0  0  0  0  1  0  0  0  0  0  0
  -24.2590  -13.9070   19.1220 C   0  0  0  0  0  1  0  0  0  0  0  0
  -27.1640   -9.4970   22.8910 C   0  0  0  0  0  1  0  0  0  0  0  0
  -23.6550  -13.7150   17.7300 C   0  0  0  0  0  1  0  0  0  0  0  0
  -27.0380   -9.3090   18.8370 N   0  0  0  0  0  4  0  0  0  0  0  0
  -26.7910   -9.4050   17.8660 H   0  0  0  0  0  0  0  0  0  0  0  0
  -26.7040   -8.3970   19.1080 H   0  0  0  0  0  0  0  0  0  0  0  0
  -28.5180   -9.2310   18.8650 C   0  0  0  0  0  2  0  0  0  0  0  0
  -29.3700   -9.4390   20.1760 C   0  0  0  0  0  2  0  0  0  0  0  0
  -29.9100  -10.8410   20.7850 C   0  0  0  0  0  1  0  0  0  0  0  0
  -31.5140  -12.7410   20.0470 C   0  0  0  0  0  2  0  0  0  0  0  0
  -32.4130  -13.0850   21.1030 C   0  0  0  0  0  3  0  0  0  0  0  0
  -32.3060  -10.7370   19.9590 C   0  0  0  0  0  2  0  0  0  0  0  0
  -31.1020  -10.9940   18.4950 C   0  0  0  0  0  3  0  0  0  0  0  0
  -29.5520  -12.0490   18.7840 C   0  0  0  0  0  3  0  0  0  0  0  0
  -29.2090  -12.9810   20.4090 C   0  0  0  0  0  3  0  0  0  0  0  0
  -30.2710  -12.7190   21.8630 C   0  0  0  0  0  2  0  0  0  0  0  0
  -31.8240  -11.9720   21.2950 N   0  0  2  0  0  4  0  0  0  0  0  0
  -33.5380  -13.4070   20.7370 O   0  0  0  0  0  1  0  0  0  0  0  0
  -27.1620  -14.2930   21.1430 C   0  0  0  0  0  3  0  0  0  0  0  0
  -25.7920  -13.9920   21.1570 C   0  0  0  0  0  3  0  0  0  0  0  0
  -25.5620  -12.2950   20.5290 C   0  0  0  0  0  3  0  0  0  0  0  0
  -27.9910  -13.1630   20.9220 N   0  0  0  0  0  0  0  0  0  0  0  0
  -27.3680  -12.0630   20.6990 N   0  0  0  0  0  2  0  0  0  0  0  0
  -24.0680  -10.9100   20.4150 C   0  0  0  0  0  3  0  0  0  0  0  0
  -23.7530   -9.8830   21.5600 C   0  0  0  0  0  2  0  0  0  0  0  0
  -23.3330   -8.5840   21.6040 C   0  0  0  0  0  2  0  0  0  0  0  0
  -22.3960   -8.3610   20.6650 C   0  0  0  0  0  0  0  0  0  0  0  0
  -22.3290   -9.2960   19.5820 C   0  0  0  0  0  3  0  0  0  0  0  0
  -23.1950  -10.4500   19.4180 C   0  0  0  0  0  2  0  0  0  0  0  0
  -21.5320   -7.3040   20.8340 O   0  0  0  0  0  0  0  0  0  0  0  0
  -21.4200   -6.5670   22.0110 C   0  0  0  0  0  0  0  0  0  0  0  0
  -21.0960   -7.1200   23.2800 C   0  0  0  0  0  3  0  0  0  0  0  0
  -20.8700   -6.2770   24.3950 C   0  0  0  0  0  3  0  0  0  0  0  0
  -20.9400   -4.8760   24.2490 C   0  0  0  0  0  0  0  0  0  0  0  0
  -21.2840   -4.3260   23.0020 C   0  0  0  0  0  3  0  0  0  0  0  0
  -21.5300   -5.1690   21.9010 C   0  0  0  0  0  0  0  0  0  0  0  0
  -21.8400   -4.6270   20.7030 F   0  0  0  0  0  0  0  0  0  0  0  0
  -20.6800   -4.0540   25.2970 F   0  0  0  0  0  0  0  0  0  0  0  0
  -24.7690  -14.9550   21.9110 C   0  0  0  0  0  0  0  0  0  0  0  0
  -23.8870  -14.4180   22.7910 N   0  0  0  0  0  0  0  0  0  0  0  0
  -24.2310  -15.8380   21.2450 O   0  0  0  0  0  0  0  0  0  0  0  0
  -24.0280  -13.5010   23.1870 H   0  0  0  0  0  0  0  0  0  0  0  0
  -23.1260  -14.9970   23.1200 H   0  0  0  0  0  0  0  0  0  0  0  0
  -27.7400  -15.4930   21.1200 N   0  0  0  0  0  0  0  0  0  0  0  0
  -27.2120  -16.3520   21.0870 H   0  0  0  0  0  0  0  0  0  0  0  0
  -28.7360  -15.6160   20.9730 H   0  0  0  0  0  0  0  0  0  0  0  0
  -24.7620  -16.3730   18.9970 C   0  0  0  0  0 15  0  0  0  0  0  0
  -25.7070  -18.6720   19.1690 C   0  0  0  0  0 15  0  0  0  0  0  0
  -25.9410  -21.1390   18.9440 C   0  0  0  0  0 15  0  0  0  0  0  0
  -26.7940  -23.1710   19.1600 O   0  0  0  0  0  1  0  0  0  0  0  0
  -24.6790  -30.6790   22.4290 C   0  0  0  0  0  0  0  0  0  0  0  0
  -26.5130  -24.9140   19.2280 C   0  0  0  0  0  0  0  0  0  0  0  0
  -23.5140  -29.2950   20.8060 C   0  0  0  0  0  3  0  0  0  0  0  0
  -24.8570  -27.6370   19.2590 C   0  0  0  0  0  0  0  0  0  0  0  0
  -26.0950  -29.1580   20.7420 C   0  0  0  0  0  2  0  0  0  0  0  0
  -26.0320  -27.6820   19.9970 C   0  0  0  0  0  0  0  0  0  0  0  0
  -26.8650  -26.3460   19.9470 C   0  0  0  0  0  3  0  0  0  0  0  0
  -25.5350  -25.3790   18.3360 C   0  0  0  0  0  3  0  0  0  0  0  0
  -24.7240  -26.5550   18.3830 C   0  0  0  0  0  3  0  0  0  0  0  0
  -23.7430  -28.6950   19.3880 C   0  0  0  0  0  2  0  0  0  0  0  0
  -24.8090  -29.7770   21.3700 N   0  0  0  0  0  0  0  0  0  0  0  0
  -23.5700  -30.9560   22.9270 O   0  0  0  0  0  0  0  0  0  0  0  0
  -22.8390  -28.2680   21.7580 C   0  0  0  0  0  0  0  0  0  0  0  0
  -21.5050  -28.0970   21.6850 N   0  0  0  0  0  0  0  0  0  0  0  0
  -23.5320  -27.6340   22.5570 O   0  0  0  0  0  0  0  0  0  0  0  0
  -20.9860  -28.6600   21.0270 H   0  0  0  0  0  0  0  0  0  0  0  0
  -18.1920  -26.7220   22.2610 C   0  0  0  0  0  0  0  0  0  0  0  0
  -20.7420  -27.1090   22.4570 C   0  0  0  0  0  3  0  0  0  0  0  0
  -20.8940  -25.6940   21.8510 C   0  0  0  0  0  2  0  0  0  0  0  0
  -19.7860  -25.3480   20.8540 C   0  0  0  0  0  2  0  0  0  0  0  0
  -18.4160  -25.4050   21.5360 C   0  0  0  0  0  2  0  0  0  0  0  0
  -19.2820  -27.5310   22.6790 C   0  0  0  0  0  0  0  0  0  0  0  0
  -19.0150  -28.7560   23.3260 C   0  0  0  0  0  3  0  0  0  0  0  0
  -17.6910  -29.1790   23.5500 C   0  0  0  0  0  3  0  0  0  0  0  0
  -16.6170  -28.3700   23.1420 C   0  0  0  0  0  3  0  0  0  0  0  0
  -16.8670  -27.1430   22.5030 C   0  0  0  0  0  3  0  0  0  0  0  0
  -25.8860  -31.4230   23.0790 C   0  0  0  0  0  3  0  0  0  0  0  0
  -25.4010  -32.6890   23.6910 N   0  0  0  0  0  0  0  0  0  0  0  0
  -25.6750  -33.9310   23.2660 C   0  0  0  0  0  0  0  0  0  0  0  0
  -26.4080  -34.1460   22.3000 O   0  0  0  0  0  0  0  0  0  0  0  0
  -24.7440  -32.5880   24.4510 H   0  0  0  0  0  0  0  0  0  0  0  0
  -23.8520  -35.6830   23.2320 C   0  0  0  0  0  1  0  0  0  0  0  0
  -25.0460  -35.1260   24.0260 C   0  0  0  0  0  3  0  0  0  0  0  0
  -27.0170  -35.8800   25.2880 C   0  0  0  0  0  1  0  0  0  0  0  0
  -25.9960  -36.2270   24.3030 N   0  0  0  0  0  0  0  0  0  0  0  0
  -25.5040  -37.0510   24.6380 H   0  0  0  0  0  0  0  0  0  0  0  0
  -26.5990  -30.5660   24.2010 C   0  0  1  0  0  0  0  0  0  0  0  0
  -25.6380  -30.0160   25.2820 C   0  0  0  0  0  1  0  0  0  0  0  0
  -27.3390  -29.3590   23.5960 C   0  0  0  0  0  1  0  0  0  0  0  0
  -27.6770  -31.4200   24.9090 C   0  0  0  0  0  1  0  0  0  0  0  0
  3  1  1  0
  5  8  1  0
  9  7  1  0
 10 13  1  0
 10 12  1  0
 10  6  1  0
 11 10  1  0
 13 14  1  0
 14 15  1  0
 16 17  1  0
 23 16  1  6
 17 24  1  0
 17 23  1  0
 19 20  2  0
 19 18  1  0
 21 20  1  0
 21 28  1  0
 21 22  1  0
 23 18  1  0
 23 22  1  0
 25 50  1  0
 25 26  1  0
 26 45  1  0
 27  4  1  0
 27 29  1  0
 27 26  1  0
 28 29  1  0
 28 25  1  0
 30  2  1  0
 30 31  1  0
 31 32  1  0
 33 36  1  0
 33 32  1  0
 34 33  2  0
 35 34  1  0
 35 30  1  0
 36 37  1  0
 37 38  1  0
 38 39  2  0
 40 39  1  0
 40 44  1  0
 41 40  2  0
 42 37  2  0
 42 41  1  0
 43 42  1  0
 45 46  1  0
 46 49  1  0
 46 48  1  0
 47 45  2  0
 51 50  1  0
 52 50  1  0
 56 58  1  0
 57 68  2  0
 58 63  1  0
 59 67  1  0
 59 69  1  0
 60 66  1  0
 60 62  1  0
 61 67  1  0
 62 61  1  0
 63 62  2  0
 64 65  1  0
 64 58  2  0
 65 60  2  0
 66 59  1  0
 67 57  1  0
 69 71  2  0
 70 69  1  0
 72 70  1  0
 73 82  2  0
 73 78  1  0
 74 70  1  0
 74 78  1  0
 75 74  1  0
 76 77  1  0
 76 75  1  0
 77 73  1  0
 78 79  2  0
 79 80  1  0
 81 80  2  0
 82 81  1  0
 83 57  1  0
 83 84  1  0
 83 93  1  0
 84 87  1  0
 85 84  1  0
 85 89  1  0
 86 85  2  0
 89 88  1  0
 89 91  1  0
 91 92  1  0
 91 90  1  0
 93 96  1  1
 93 94  1  0
 95 93  1  0
M  ISO  4  16 100  17 100  55 101  56 101
M  END
>  <TORSDO>  (72) 
F 24

>  <SCORE>  (72) 
8.686

>  <name>  (72) 
71

>  <ligand_id>  (72) 
71

>  <original_smiles>  (72) 
[H]c1c([H])c([H])c2c(c1[H])C([H])([H])C([H])([H])C([H])([H])C2([H])N([H])C(=O)C1([H])N(C(=O)C([H])(N([H])C(=O)C([H])(N([H])C([H])([H])[H])C([H])([H])[H])C(C([H])([H])[H])(C([H])([H])[H])C([H])([H])[H])C([H])([H])c2c([H])c(OC([H])([H])C([H])([H])C([H])([H])C3(C([H])([H])[H])C([H])([H])C4([H])C([H])([H])C3([H])C([H])([N+]([H])([H])C([H])([H])C([H])([H])C([H])([H])C([H])([H])C(=O)N3C([H])([H])C([H])([H])C([H])([H])C([H])(n5nc(-c6c([H])c([H])c(Oc7c([H])c([H])c(F)c([H])c7F)c([H])c6[H])c(C(=O)N([H])[H])c5N([H])[H])C3([H])[H])C4([H])C([H])([H])[H])c([H])c([H])c2C1([H])[H]

>  <smiles>  (72) 
[H]c1c([H])c([H])c2c(c1[H])C([H])([H])C([H])([H])C([H])([H])C2([H])N([H])C(=O)C1([H])N(C(=O)C([H])(N([H])C(=O)C([H])(N([H])C([H])([H])[H])C([H])([H])[H])C(C([H])([H])[H])(C([H])([H])[H])C([H])([H])[H])C([H])([H])c2c([H])c(OC([H])([H])C([H])([H])C([H])([H])C3(C([H])([H])[H])C([H])([H])C4([H])C([H])([H])C3([H])C([H])([N+]([H])([H])C([H])([H])C([H])([H])C([H])([H])C([H])([H])C(=O)N3C([H])([H])C([H])([H])C([H])([H])C([H])(n5nc(-c6c([H])c([H])c(Oc7c([H])c([H])c(F)c([H])c7F)c([H])c6[H])c(C(=O)N([H])[H])c5N([H])[H])C3([H])[H])C4([H])C([H])([H])[H])c([H])c([H])c2C1([H])[H]

$$$$
72:0:0
     RDKit          3D

 90 98  0  0  1  0  0  0  0  0999 V2000
  -29.0000  -20.5050   20.5280 C   0  0  0  0  0  0  0  0  0  0  0  0
  -29.5990  -19.2960   19.6360 C   0  0  0  0  0  3  0  0  0  0  0  0
  -29.4500  -22.0280   20.0700 C   0  0  0  0  0  3  0  0  0  0  0  0
  -30.6220  -20.1770   18.8540 C   0  0  0  0  0  3  0  0  0  0  0  0
  -30.8830  -19.6150   17.4400 C   0  0  0  0  0  1  0  0  0  0  0  0
  -31.2750  -22.5690   18.4760 C   0  0  0  0  0  1  0  0  0  0  0  0
  -30.1780  -21.6280   18.8230 N   0  0  2  0  0  4  0  0  0  0  0  0
  -28.2650  -20.2650   21.4890 O   0  0  0  0  0  0  0  0  0  0  0  0
  -29.4950  -21.6850   18.0820 H   0  0  0  0  0  0  0  0  0  0  0  0
  -29.8230  -16.4650   19.9090 C   0  0  0  0  0  3  0  0  0  0  0  0
  -30.2310  -17.8190   20.0870 C   0  0  0  0  0  3  0  0  0  0  0  0
  -30.6520  -15.1460   20.0410 C   0  0  0  0  0  0  0  0  0  0  0  0
  -30.4910  -12.7790   19.1470 C   0  0  0  0  0  2  0  0  0  0  0  0
  -29.5300  -12.7280   17.9360 C   0  0  0  0  0  2  0  0  0  0  0  0
  -28.0770  -12.5130   18.4030 C   0  0  0  0  0  2  0  0  0  0  0  0
  -27.6940  -13.4440   19.5840 C   0  0  0  0  0  3  0  0  0  0  0  0
  -28.7820  -13.4970   20.6760 C   0  0  0  0  0  2  0  0  0  0  0  0
  -30.0390  -13.8910   20.0320 N   0  0  0  0  0  0  0  0  0  0  0  0
  -31.8720  -15.1490   19.8500 O   0  0  0  0  0  0  0  0  0  0  0  0
  -25.3510  -14.0120   20.4310 C   0  0  0  0  0  0  0  0  0  0  0  0
  -24.2960  -13.2330   20.8190 C   0  0  0  0  0  0  0  0  0  0  0  0
  -24.7540  -11.8810   20.7500 C   0  0  0  0  0  0  0  0  0  0  0  0
  -26.3800  -13.1360   20.1330 N   0  0  0  0  0  0  0  0  0  0  0  0
  -26.0350  -11.8470   20.3930 N   0  0  0  0  0  0  0  0  0  0  0  0
  -24.0290  -10.6180   20.9400 C   0  0  0  0  0  0  0  0  0  0  0  0
  -24.4660   -9.6490   21.8690 C   0  0  0  0  0  3  0  0  0  0  0  0
  -23.7420   -8.4490   22.0480 C   0  0  0  0  0  3  0  0  0  0  0  0
  -22.5660   -8.2130   21.2950 C   0  0  0  0  0  0  0  0  0  0  0  0
  -22.1490   -9.1710   20.3540 C   0  0  0  0  0  3  0  0  0  0  0  0
  -22.8730  -10.3610   20.1750 C   0  0  0  0  0  3  0  0  0  0  0  0
  -21.8100   -7.0700   21.3840 O   0  0  0  0  0  0  0  0  0  0  0  0
  -21.7460   -6.3380   22.5430 C   0  0  0  0  0  0  0  0  0  0  0  0
  -21.2600   -6.8900   23.7480 C   0  0  0  0  0  3  0  0  0  0  0  0
  -21.1480   -6.0840   24.8980 C   0  0  0  0  0  3  0  0  0  0  0  0
  -21.5070   -4.7240   24.8420 C   0  0  0  0  0  0  0  0  0  0  0  0
  -21.9860   -4.1700   23.6410 C   0  0  0  0  0  3  0  0  0  0  0  0
  -22.1020   -4.9750   22.4940 C   0  0  0  0  0  0  0  0  0  0  0  0
  -22.5440   -4.4320   21.3350 F   0  0  0  0  0  0  0  0  0  0  0  0
  -21.3910   -3.9450   25.9430 F   0  0  0  0  0  0  0  0  0  0  0  0
  -22.9100  -13.7110   21.1400 C   0  0  0  0  0  0  0  0  0  0  0  0
  -22.2030  -12.9990   22.0090 N   0  0  0  0  0  0  0  0  0  0  0  0
  -22.4630  -14.7480   20.6520 O   0  0  0  0  0  0  0  0  0  0  0  0
  -22.5790  -12.1600   22.4260 H   0  0  0  0  0  0  0  0  0  0  0  0
  -21.2720  -13.2990   22.2660 H   0  0  0  0  0  0  0  0  0  0  0  0
  -25.5140  -15.3850   20.2770 N   0  0  0  0  0  0  0  0  0  0  0  0
  -24.7560  -16.0390   20.4390 H   0  0  0  0  0  0  0  0  0  0  0  0
  -26.3610  -15.8310   19.9500 H   0  0  0  0  0  0  0  0  0  0  0  0
  -28.4370  -23.3880   19.8400 C   0  0  0  0  0  2  0  0  0  0  0  0
  -28.4240  -24.8810   20.6480 C   0  0  0  0  0  2  0  0  0  0  0  0
  -28.3840  -26.3600   20.1410 O   0  0  0  0  0  0  0  0  0  0  0  0
  -24.6150  -31.9450   23.2410 C   0  0  0  0  0  0  0  0  0  0  0  0
  -27.2690  -27.2730   20.2060 C   0  0  0  0  0  0  0  0  0  0  0  0
  -23.4370  -30.5420   21.5870 C   0  0  0  0  0  3  0  0  0  0  0  0
  -24.9100  -28.9790   20.1760 C   0  0  0  0  0  0  0  0  0  0  0  0
  -25.9890  -30.8380   21.4360 C   0  0  0  0  0  2  0  0  0  0  0  0
  -26.0820  -29.4460   20.7840 C   0  0  0  0  0  0  0  0  0  0  0  0
  -27.2640  -28.6120   20.7750 C   0  0  0  0  0  3  0  0  0  0  0  0
  -26.0660  -26.8930   19.5800 C   0  0  0  0  0  3  0  0  0  0  0  0
  -24.9140  -27.7150   19.5610 C   0  0  0  0  0  3  0  0  0  0  0  0
  -23.6750  -29.8650   20.2110 C   0  0  0  0  0  2  0  0  0  0  0  0
  -24.6990  -31.1320   22.1430 N   0  0  0  0  0  0  0  0  0  0  0  0
  -23.5220  -32.2150   23.7650 O   0  0  0  0  0  0  0  0  0  0  0  0
  -22.7640  -29.5290   22.5450 C   0  0  0  0  0  0  0  0  0  0  0  0
  -21.4370  -29.3500   22.4130 N   0  0  0  0  0  0  0  0  0  0  0  0
  -23.4370  -28.9020   23.3650 O   0  0  0  0  0  0  0  0  0  0  0  0
  -20.9490  -29.9060   21.7240 H   0  0  0  0  0  0  0  0  0  0  0  0
  -18.0580  -28.1420   22.9220 C   0  0  0  0  0  0  0  0  0  0  0  0
  -20.6190  -28.4010   23.1750 C   0  0  0  0  0  3  0  0  0  0  0  0
  -20.7170  -26.9780   22.5790 C   0  0  0  0  0  2  0  0  0  0  0  0
  -19.6080  -26.6710   21.5670 C   0  0  0  0  0  2  0  0  0  0  0  0
  -18.2310  -26.8050   22.2200 C   0  0  0  0  0  2  0  0  0  0  0  0
  -19.1790  -28.8990   23.3550 C   0  0  0  0  0  0  0  0  0  0  0  0
  -18.9640  -30.1490   23.9720 C   0  0  0  0  0  3  0  0  0  0  0  0
  -17.6610  -30.6460   24.1570 C   0  0  0  0  0  3  0  0  0  0  0  0
  -16.5530  -29.8880   23.7390 C   0  0  0  0  0  3  0  0  0  0  0  0
  -16.7530  -28.6370   23.1270 C   0  0  0  0  0  3  0  0  0  0  0  0
  -25.8820  -32.5910   23.8800 C   0  0  0  0  0  3  0  0  0  0  0  0
  -26.3720  -31.8380   25.1790 C   0  0  1  0  0  0  0  0  0  0  0  0
  -25.2570  -31.6120   26.2260 C   0  0  0  0  0  1  0  0  0  0  0  0
  -26.9670  -30.4560   24.8230 C   0  0  0  0  0  1  0  0  0  0  0  0
  -27.5060  -32.6450   25.8540 C   0  0  0  0  0  1  0  0  0  0  0  0
  -25.5630  -33.9920   24.1930 N   0  0  0  0  0  0  0  0  0  0  0  0
  -25.9040  -35.0420   23.4330 C   0  0  0  0  0  0  0  0  0  0  0  0
  -26.5860  -34.9330   22.4110 O   0  0  0  0  0  0  0  0  0  0  0  0
  -24.9570  -34.1520   24.9840 H   0  0  0  0  0  0  0  0  0  0  0  0
  -24.1870  -36.8410   23.0410 C   0  0  0  0  0  1  0  0  0  0  0  0
  -25.4110  -36.4350   23.8770 C   0  0  0  0  0  3  0  0  0  0  0  0
  -27.5250  -37.3270   24.7530 C   0  0  0  0  0  1  0  0  0  0  0  0
  -26.4470  -37.4860   23.7790 N   0  0  0  0  0  0  0  0  0  0  0  0
  -26.0390  -38.4080   23.9070 H   0  0  0  0  0  0  0  0  0  0  0  0
  1  8  2  0
  2 11  1  0
  2  1  1  0
  3 48  1  0
  3  1  1  0
  4  5  1  0
  4  2  1  0
  6  7  1  0
  7  4  1  0
  7  3  1  0
  7  9  1  6
 10 12  1  0
 10 11  2  0
 13 18  1  0
 14 15  1  0
 14 13  1  0
 16 15  1  0
 16 23  1  0
 16 17  1  0
 18 12  1  0
 18 17  1  0
 19 12  2  0
 20 21  2  0
 21 40  1  0
 22 21  1  0
 22 25  1  0
 23 24  1  0
 23 20  1  0
 24 22  2  0
 25 26  1  0
 26 27  2  0
 28 31  1  0
 28 27  1  0
 29 28  2  0
 30 29  1  0
 30 25  2  0
 31 32  1  0
 32 33  1  0
 33 34  2  0
 35 34  1  0
 35 39  1  0
 36 35  2  0
 37 32  2  0
 37 36  1  0
 38 37  1  0
 40 41  1  0
 41 44  1  0
 41 43  1  0
 42 40  2  0
 45 20  1  0
 45 46  1  0
 47 45  1  0
 48 49  1  0
 50 52  1  0
 50 49  1  0
 51 62  2  0
 52 57  1  0
 53 61  1  0
 53 63  1  0
 54 60  1  0
 54 56  1  0
 55 61  1  0
 56 55  1  0
 57 56  2  0
 58 52  2  0
 59 58  1  0
 59 54  2  0
 60 53  1  0
 61 51  1  0
 63 65  2  0
 64 63  1  0
 66 64  1  0
 67 76  2  0
 67 72  1  0
 68 64  1  0
 68 72  1  0
 69 68  1  0
 70 71  1  0
 70 69  1  0
 71 67  1  0
 72 73  2  0
 73 74  1  0
 75 74  2  0
 76 75  1  0
 77 51  1  0
 77 82  1  0
 77 78  1  0
 78 81  1  1
 78 79  1  0
 80 78  1  0
 82 85  1  0
 83 87  1  0
 83 82  1  0
 84 83  2  0
 87 86  1  0
 89 87  1  0
 89 90  1  0
 89 88  1  0
M  ISO  4  10 100  12 100  49 101  50 101
M  END
>  <TORSDO>  (73) 
F 19

>  <SCORE>  (73) 
-14.737

>  <name>  (73) 
72

>  <ligand_id>  (73) 
72

>  <original_smiles>  (73) 
[H]C(C(=O)N1C([H])([H])C([H])([H])C([H])([H])C([H])(n2nc(-c3c([H])c([H])c(Oc4c([H])c([H])c(F)c([H])c4F)c([H])c3[H])c(C(=O)N([H])[H])c2N([H])[H])C1([H])[H])=C([H])C1([H])C(=O)C([H])(C([H])([H])C([H])([H])Oc2c([H])c([H])c3c(c2[H])C([H])([H])N(C(=O)C([H])(N([H])C(=O)C([H])(N([H])C([H])([H])[H])C([H])([H])[H])C(C([H])([H])[H])(C([H])([H])[H])C([H])([H])[H])C([H])(C(=O)N([H])C2([H])c4c([H])c([H])c([H])c([H])c4C([H])([H])C([H])([H])C2([H])[H])C3([H])[H])[N+]([H])(C([H])([H])[H])C1([H])C([H])([H])[H]

>  <smiles>  (73) 
[H]C(C(=O)N1C([H])([H])C([H])([H])C([H])([H])C([H])(n2nc(-c3c([H])c([H])c(Oc4c([H])c([H])c(F)c([H])c4F)c([H])c3[H])c(C(=O)N([H])[H])c2N([H])[H])C1([H])[H])=C([H])C1([H])C(=O)C([H])(C([H])([H])C([H])([H])Oc2c([H])c([H])c3c(c2[H])C([H])([H])N(C(=O)C([H])(N([H])C(=O)C([H])(N([H])C([H])([H])[H])C([H])([H])[H])C(C([H])([H])[H])(C([H])([H])[H])C([H])([H])[H])C([H])(C(=O)N([H])C2([H])c4c([H])c([H])c([H])c([H])c4C([H])([H])C([H])([H])C2([H])[H])C3([H])[H])[N+]([H])(C([H])([H])[H])C1([H])C([H])([H])[H]

$$$$
73:0:0
     RDKit          3D

 96104  0  0  1  0  0  0  0  0999 V2000
  -29.5530  -23.0170   19.8840 C   0  0  0  0  0  2  0  0  0  0  0  0
  -29.4700  -21.7850   20.7400 N   0  0  0  0  0  4  0  0  0  0  0  0
  -28.5160  -21.4610   20.6530 H   0  0  0  0  0  0  0  0  0  0  0  0
  -29.5890  -22.0440   21.7110 H   0  0  0  0  0  0  0  0  0  0  0  0
  -31.8970  -21.0290   20.3110 C   0  0  0  0  0  1  0  0  0  0  0  0
  -30.3810  -20.6580   20.3360 C   0  0  0  0  0  3  0  0  0  0  0  0
  -30.4290  -18.0370   20.2750 C   0  0  0  0  0  0  0  0  0  0  0  0
  -31.2370  -17.5860   22.5170 C   0  0  0  0  0  2  0  0  0  0  0  0
  -30.8670  -19.0820   22.4230 C   0  0  0  0  0  2  0  0  0  0  0  0
  -31.0960  -16.9350   21.1120 C   0  0  0  0  0  3  0  0  0  0  0  0
  -30.0980  -19.3040   21.0930 C   0  0  0  0  0  3  0  0  0  0  0  0
  -30.2270  -17.9240   19.0650 O   0  0  0  0  0  0  0  0  0  0  0  0
  -30.3340  -15.5490   21.0850 C   0  0  0  0  0  2  0  0  0  0  0  0
  -31.0060  -14.4160   20.2280 C   0  0  0  0  0  0  0  0  0  0  0  0
  -30.7240  -12.3150   18.9300 C   0  0  0  0  0  2  0  0  0  0  0  0
  -29.7270  -12.5100   17.7640 C   0  0  0  0  0  2  0  0  0  0  0  0
  -28.2520  -12.4230   18.2140 C   0  0  0  0  0  2  0  0  0  0  0  0
  -27.9710  -13.2230   19.5150 C   0  0  0  0  0  3  0  0  0  0  0  0
  -29.0370  -12.8880   20.5790 C   0  0  0  0  0  2  0  0  0  0  0  0
  -30.3520  -13.2400   20.0190 N   0  0  0  0  0  0  0  0  0  0  0  0
  -32.0930  -14.6370   19.6750 O   0  0  0  0  0  0  0  0  0  0  0  0
  -25.6010  -13.8960   20.2700 C   0  0  0  0  0  0  0  0  0  0  0  0
  -24.5210  -13.1610   20.6600 C   0  0  0  0  0  0  0  0  0  0  0  0
  -24.9340  -11.7940   20.6120 C   0  0  0  0  0  0  0  0  0  0  0  0
  -26.6180  -12.9870   20.0120 N   0  0  0  0  0  0  0  0  0  0  0  0
  -26.2180  -11.7180   20.2720 N   0  0  0  0  0  0  0  0  0  0  0  0
  -24.1760  -10.5570   20.8170 C   0  0  0  0  0  0  0  0  0  0  0  0
  -24.5740   -9.6050   21.7830 C   0  0  0  0  0  3  0  0  0  0  0  0
  -23.8250   -8.4270   21.9760 C   0  0  0  0  0  3  0  0  0  0  0  0
  -22.6590   -8.1960   21.2110 C   0  0  0  0  0  0  0  0  0  0  0  0
  -22.2800   -9.1290   20.2350 C   0  0  0  0  0  3  0  0  0  0  0  0
  -23.0270  -10.3030   20.0400 C   0  0  0  0  0  3  0  0  0  0  0  0
  -21.8810   -7.0670   21.3120 O   0  0  0  0  0  0  0  0  0  0  0  0
  -21.7590   -6.3830   22.4940 C   0  0  0  0  0  0  0  0  0  0  0  0
  -21.2740   -7.0040   23.6650 C   0  0  0  0  0  3  0  0  0  0  0  0
  -21.0980   -6.2460   24.8410 C   0  0  0  0  0  3  0  0  0  0  0  0
  -21.3850   -4.8670   24.8460 C   0  0  0  0  0  0  0  0  0  0  0  0
  -21.8560   -4.2490   23.6770 C   0  0  0  0  0  3  0  0  0  0  0  0
  -22.0390   -5.0030   22.5060 C   0  0  0  0  0  0  0  0  0  0  0  0
  -22.4780   -4.3970   21.3780 F   0  0  0  0  0  0  0  0  0  0  0  0
  -21.2060   -4.1400   25.9740 F   0  0  0  0  0  0  0  0  0  0  0  0
  -23.1410  -13.6740   20.9740 C   0  0  0  0  0  0  0  0  0  0  0  0
  -22.4180  -13.0050   21.8630 N   0  0  0  0  0  0  0  0  0  0  0  0
  -22.7210  -14.7060   20.4540 O   0  0  0  0  0  0  0  0  0  0  0  0
  -22.7700  -12.1650   22.2990 H   0  0  0  0  0  0  0  0  0  0  0  0
  -21.4940  -13.3350   22.1040 H   0  0  0  0  0  0  0  0  0  0  0  0
  -25.8120  -15.2630   20.0920 N   0  0  0  0  0  0  0  0  0  0  0  0
  -25.0780  -15.9520   20.2130 H   0  0  0  0  0  0  0  0  0  0  0  0
  -26.6750  -15.6580   19.7450 H   0  0  0  0  0  0  0  0  0  0  0  0
  -29.3290  -24.4060   20.5810 C   0  0  0  0  0  3  0  0  0  0  0  0
  -30.4030  -23.8170   22.8900 C   0  0  0  0  0  1  0  0  0  0  0  0
  -29.1790  -24.3580   22.1290 C   0  0  2  0  0  0  0  0  0  0  0  0
  -28.1010  -23.6520   22.4670 F   0  0  0  0  0  0  0  0  0  0  0  0
  -29.0090  -25.5970   22.5890 F   0  0  0  0  0  0  0  0  0  0  0  0
  -28.1730  -25.2070   19.9190 C   0  0  0  0  0  2  0  0  0  0  0  0
  -28.3270  -26.6310   20.0730 O   0  0  0  0  0  0  0  0  0  0  0  0
  -24.5820  -31.8400   23.1660 C   0  0  0  0  0  0  0  0  0  0  0  0
  -27.1700  -27.3900   20.0450 C   0  0  0  0  0  0  0  0  0  0  0  0
  -23.3600  -30.4660   21.5120 C   0  0  0  0  0  3  0  0  0  0  0  0
  -24.8000  -28.9330   20.0690 C   0  0  0  0  0  0  0  0  0  0  0  0
  -25.8910  -30.8040   21.3160 C   0  0  0  0  0  2  0  0  0  0  0  0
  -25.9650  -29.4370   20.6610 C   0  0  0  0  0  0  0  0  0  0  0  0
  -27.1570  -28.6760   20.6390 C   0  0  0  0  0  3  0  0  0  0  0  0
  -25.9850  -26.9100   19.4420 C   0  0  0  0  0  3  0  0  0  0  0  0
  -24.8060  -27.6710   19.4550 C   0  0  0  0  0  3  0  0  0  0  0  0
  -23.5620  -29.7970   20.1270 C   0  0  0  0  0  2  0  0  0  0  0  0
  -24.6290  -31.0490   22.0560 N   0  0  0  0  0  0  0  0  0  0  0  0
  -23.5050  -32.1170   23.7070 O   0  0  0  0  0  0  0  0  0  0  0  0
  -22.7000  -29.4410   22.4620 C   0  0  0  0  0  0  0  0  0  0  0  0
  -21.3730  -29.2810   22.3370 N   0  0  0  0  0  0  0  0  0  0  0  0
  -23.3780  -28.7980   23.2670 O   0  0  0  0  0  0  0  0  0  0  0  0
  -20.8890  -29.8530   21.6600 H   0  0  0  0  0  0  0  0  0  0  0  0
  -17.9810  -28.1350   22.8290 C   0  0  0  0  0  0  0  0  0  0  0  0
  -20.5440  -28.3430   23.0940 C   0  0  0  0  0  3  0  0  0  0  0  0
  -20.6190  -26.9200   22.4970 C   0  0  0  0  0  2  0  0  0  0  0  0
  -19.5080  -26.6310   21.4830 C   0  0  0  0  0  2  0  0  0  0  0  0
  -18.1320  -26.7930   22.1330 C   0  0  0  0  0  2  0  0  0  0  0  0
  -19.1140  -28.8700   23.2670 C   0  0  0  0  0  0  0  0  0  0  0  0
  -18.9240  -30.1290   23.8750 C   0  0  0  0  0  3  0  0  0  0  0  0
  -17.6280  -30.6530   24.0510 C   0  0  0  0  0  3  0  0  0  0  0  0
  -16.5080  -29.9140   23.6320 C   0  0  0  0  0  3  0  0  0  0  0  0
  -16.6860  -28.6550   23.0280 C   0  0  0  0  0  3  0  0  0  0  0  0
  -25.8740  -32.4500   23.7940 C   0  0  0  0  0  3  0  0  0  0  0  0
  -25.5800  -33.8450   24.1430 N   0  0  0  0  0  0  0  0  0  0  0  0
  -25.9280  -34.9050   23.3990 C   0  0  0  0  0  0  0  0  0  0  0  0
  -26.6020  -34.8060   22.3710 O   0  0  0  0  0  0  0  0  0  0  0  0
  -24.9820  -33.9980   24.9420 H   0  0  0  0  0  0  0  0  0  0  0  0
  -24.2220  -36.7190   23.0590 C   0  0  0  0  0  1  0  0  0  0  0  0
  -25.4530  -36.2920   23.8720 C   0  0  0  0  0  3  0  0  0  0  0  0
  -27.5890  -37.1390   24.7340 C   0  0  0  0  0  1  0  0  0  0  0  0
  -26.4980  -37.3320   23.7820 N   0  0  0  0  0  0  0  0  0  0  0  0
  -26.1030  -38.2550   23.9370 H   0  0  0  0  0  0  0  0  0  0  0  0
  -26.3870  -31.6560   25.0570 C   0  0  1  0  0  0  0  0  0  0  0  0
  -25.2900  -31.4130   26.1210 C   0  0  0  0  0  1  0  0  0  0  0  0
  -26.9540  -30.2790   24.6420 C   0  0  0  0  0  1  0  0  0  0  0  0
  -27.5470  -32.4290   25.7300 C   0  0  0  0  0  1  0  0  0  0  0  0
  1  2  1  0
  2  4  1  0
  3  2  1  0
  6  5  1  0
  6  2  1  0
  7 11  1  0
  7 10  1  0
  9  8  1  0
 10 13  1  0
 10  8  1  0
 11  6  1  0
 11  9  1  0
 12  7  2  0
 14 13  1  0
 15 20  1  0
 16 17  1  0
 16 15  1  0
 18 17  1  0
 18 25  1  0
 18 19  1  0
 20 14  1  0
 20 19  1  0
 21 14  2  0
 22 23  2  0
 23 42  1  0
 24 23  1  0
 24 27  1  0
 25 22  1  0
 25 26  1  0
 26 24  2  0
 27 28  1  0
 28 29  2  0
 30 33  1  0
 30 29  1  0
 31 30  2  0
 32 31  1  0
 32 27  2  0
 33 34  1  0
 34 39  2  0
 34 35  1  0
 35 36  2  0
 36 37  1  0
 37 41  1  0
 38 37  2  0
 39 38  1  0
 40 39  1  0
 42 43  1  0
 43 46  1  0
 43 45  1  0
 44 42  2  0
 47 48  1  0
 47 22  1  0
 49 47  1  0
 50  1  1  0
 50 52  1  0
 52 53  1  0
 52 54  1  0
 52 51  1  1
 55 56  1  0
 55 50  1  0
 57 68  2  0
 58 56  1  0
 58 63  1  0
 59 67  1  0
 59 69  1  0
 60 66  1  0
 60 62  1  0
 61 67  1  0
 62 61  1  0
 63 62  2  0
 64 65  1  0
 64 58  2  0
 65 60  2  0
 66 59  1  0
 67 57  1  0
 69 71  2  0
 70 69  1  0
 72 70  1  0
 73 82  2  0
 73 78  1  0
 74 70  1  0
 74 78  1  0
 75 74  1  0
 76 77  1  0
 76 75  1  0
 77 73  1  0
 78 79  2  0
 79 80  1  0
 81 80  2  0
 82 81  1  0
 83 57  1  0
 83 84  1  0
 83 93  1  0
 84 87  1  0
 85 89  1  0
 85 84  1  0
 86 85  2  0
 89 88  1  0
 91 89  1  0
 91 92  1  0
 91 90  1  0
 93 96  1  1
 93 94  1  0
 95 93  1  0
M  ISO  4  13 100  14 100  55 101  56 101
M  END
>  <TORSDO>  (74) 
F 23

>  <SCORE>  (74) 
-12.074

>  <name>  (74) 
73

>  <ligand_id>  (74) 
73

>  <original_smiles>  (74) 
[H]c1c([H])c([H])c2c(c1[H])C([H])([H])C([H])([H])C([H])([H])C2([H])N([H])C(=O)C1([H])N(C(=O)C([H])(N([H])C(=O)C([H])(N([H])C([H])([H])[H])C([H])([H])[H])C(C([H])([H])[H])(C([H])([H])[H])C([H])([H])[H])C([H])([H])c2c([H])c(OC([H])([H])C([H])(C(F)(F)C([H])([H])[H])C([H])([H])[N+]([H])([H])C([H])(C([H])([H])[H])C3([H])C(=O)C([H])(C([H])([H])C(=O)N4C([H])([H])C([H])([H])C([H])([H])C([H])(n5nc(-c6c([H])c([H])c(Oc7c([H])c([H])c(F)c([H])c7F)c([H])c6[H])c(C(=O)N([H])[H])c5N([H])[H])C4([H])[H])C([H])([H])C3([H])[H])c([H])c([H])c2C1([H])[H]

>  <smiles>  (74) 
[H]c1c([H])c([H])c2c(c1[H])C([H])([H])C([H])([H])C([H])([H])C2([H])N([H])C(=O)C1([H])N(C(=O)C([H])(N([H])C(=O)C([H])(N([H])C([H])([H])[H])C([H])([H])[H])C(C([H])([H])[H])(C([H])([H])[H])C([H])([H])[H])C([H])([H])c2c([H])c(OC([H])([H])C([H])(C(F)(F)C([H])([H])[H])C([H])([H])[N+]([H])([H])C([H])(C([H])([H])[H])C3([H])C(=O)C([H])(C([H])([H])C(=O)N4C([H])([H])C([H])([H])C([H])([H])C([H])(n5nc(-c6c([H])c([H])c(Oc7c([H])c([H])c(F)c([H])c7F)c([H])c6[H])c(C(=O)N([H])[H])c5N([H])[H])C4([H])[H])C([H])([H])C3([H])[H])c([H])c([H])c2C1([H])[H]

$$$$
74:0:0
     RDKit          3D

 90 99  0  0  1  0  0  0  0  0999 V2000
  -29.8320  -20.9490   20.5980 C   0  0  0  0  0  3  0  0  0  0  0  0
  -28.1790  -18.3520   21.0820 C   0  0  0  0  0  2  0  0  0  0  0  0
  -29.3490  -18.3120   22.0840 C   0  0  0  0  0  2  0  0  0  0  0  0
  -29.3200  -17.1890   19.0970 C   0  0  0  0  0  2  0  0  0  0  0  0
  -31.1660  -17.1930   20.6870 C   0  0  0  0  0  2  0  0  0  0  0  0
  -30.1130  -16.2060   20.0580 C   0  0  0  0  0  3  0  0  0  0  0  0
  -28.8750  -18.6060   19.7310 C   0  0  0  0  0  3  0  0  0  0  0  0
  -30.5850  -18.5840   21.1970 C   0  0  0  0  0  3  0  0  0  0  0  0
  -30.0430  -19.4740   20.1070 N   0  0  2  0  0  4  0  0  0  0  0  0
  -30.6980  -19.5040   19.3410 H   0  0  0  0  0  0  0  0  0  0  0  0
  -30.7320  -14.8310   19.4540 C   0  0  0  0  0  0  0  0  0  0  0  0
  -30.4000  -12.5660   18.4260 C   0  0  0  0  0  2  0  0  0  0  0  0
  -29.3160  -12.6660   17.3270 C   0  0  0  0  0  2  0  0  0  0  0  0
  -27.9110  -12.4790   17.9310 C   0  0  0  0  0  2  0  0  0  0  0  0
  -27.6960  -13.3370   19.2050 C   0  0  0  0  0  3  0  0  0  0  0  0
  -28.8860  -13.2260   20.1830 C   0  0  0  0  0  2  0  0  0  0  0  0
  -30.1040  -13.5990   19.4510 N   0  0  0  0  0  0  0  0  0  0  0  0
  -31.8300  -14.9190   18.8940 O   0  0  0  0  0  0  0  0  0  0  0  0
  -25.4420  -13.9140   20.2810 C   0  0  0  0  0  0  0  0  0  0  0  0
  -24.4190  -13.1360   20.7460 C   0  0  0  0  0  0  0  0  0  0  0  0
  -24.8430  -11.7820   20.5760 C   0  0  0  0  0  0  0  0  0  0  0  0
  -26.4240  -13.0360   19.8550 N   0  0  0  0  0  0  0  0  0  0  0  0
  -26.0800  -11.7440   20.0940 N   0  0  0  0  0  0  0  0  0  0  0  0
  -24.1200  -10.5210   20.7900 C   0  0  0  0  0  0  0  0  0  0  0  0
  -24.5780   -9.5540   21.7110 C   0  0  0  0  0  3  0  0  0  0  0  0
  -23.8560   -8.3590   21.9130 C   0  0  0  0  0  3  0  0  0  0  0  0
  -22.6600   -8.1220   21.1940 C   0  0  0  0  0  0  0  0  0  0  0  0
  -22.2190   -9.0780   20.2620 C   0  0  0  0  0  3  0  0  0  0  0  0
  -22.9430  -10.2650   20.0580 C   0  0  0  0  0  3  0  0  0  0  0  0
  -21.9050   -6.9790   21.3070 O   0  0  0  0  0  0  0  0  0  0  0  0
  -21.7670   -6.3230   22.5030 C   0  0  0  0  0  0  0  0  0  0  0  0
  -21.2180   -6.9560   23.6410 C   0  0  0  0  0  3  0  0  0  0  0  0
  -21.0300   -6.2240   24.8310 C   0  0  0  0  0  3  0  0  0  0  0  0
  -21.3770   -4.8610   24.8830 C   0  0  0  0  0  0  0  0  0  0  0  0
  -21.9180   -4.2290   23.7490 C   0  0  0  0  0  3  0  0  0  0  0  0
  -22.1080   -4.9570   22.5630 C   0  0  0  0  0  0  0  0  0  0  0  0
  -22.6090   -4.3370   21.4670 F   0  0  0  0  0  0  0  0  0  0  0  0
  -21.1890   -4.1560   26.0220 F   0  0  0  0  0  0  0  0  0  0  0  0
  -23.0810  -13.6160   21.2310 C   0  0  0  0  0  0  0  0  0  0  0  0
  -22.4690  -12.8890   22.1590 N   0  0  0  0  0  0  0  0  0  0  0  0
  -22.5930  -14.6690   20.8220 O   0  0  0  0  0  0  0  0  0  0  0  0
  -22.8780  -12.0350   22.5080 H   0  0  0  0  0  0  0  0  0  0  0  0
  -21.5760  -13.1900   22.5250 H   0  0  0  0  0  0  0  0  0  0  0  0
  -25.6100  -15.2900   20.1620 N   0  0  0  0  0  0  0  0  0  0  0  0
  -24.8740  -15.9450   20.4030 H   0  0  0  0  0  0  0  0  0  0  0  0
  -26.4080  -15.7320   19.7260 H   0  0  0  0  0  0  0  0  0  0  0  0
  -29.2320  -22.1830   19.7210 C   0  0  0  0  0  3  0  0  0  0  0  0
  -29.2100  -23.6950   20.3700 C   0  0  0  0  0  3  0  0  0  0  0  0
  -28.2820  -24.9040   19.7880 C   0  0  0  0  0  3  0  0  0  0  0  0
  -28.3780  -26.3450   20.2610 O   0  0  0  0  0  0  0  0  0  0  0  0
  -24.5040  -31.7510   23.2100 C   0  0  0  0  0  0  0  0  0  0  0  0
  -27.2640  -27.2220   20.1640 C   0  0  0  0  0  0  0  0  0  0  0  0
  -23.3580  -30.3270   21.5540 C   0  0  0  0  0  3  0  0  0  0  0  0
  -24.8660  -28.8230   20.1290 C   0  0  0  0  0  0  0  0  0  0  0  0
  -25.8950  -30.7000   21.4020 C   0  0  0  0  0  2  0  0  0  0  0  0
  -26.0180  -29.3230   20.7470 C   0  0  0  0  0  0  0  0  0  0  0  0
  -27.2170  -28.5350   20.7550 C   0  0  0  0  0  3  0  0  0  0  0  0
  -26.0890  -26.8070   19.4960 C   0  0  0  0  0  3  0  0  0  0  0  0
  -24.9080  -27.5750   19.4900 C   0  0  0  0  0  3  0  0  0  0  0  0
  -23.6050  -29.6670   20.1720 C   0  0  0  0  0  2  0  0  0  0  0  0
  -24.6040  -30.9460   22.1110 N   0  0  0  0  0  0  0  0  0  0  0  0
  -23.4070  -31.9960   23.7350 O   0  0  0  0  0  0  0  0  0  0  0  0
  -22.7130  -29.2880   22.5050 C   0  0  0  0  0  0  0  0  0  0  0  0
  -21.3990  -29.0530   22.3470 N   0  0  0  0  0  0  0  0  0  0  0  0
  -23.3960  -28.6980   23.3450 O   0  0  0  0  0  0  0  0  0  0  0  0
  -20.9040  -29.5840   21.6450 H   0  0  0  0  0  0  0  0  0  0  0  0
  -18.0670  -27.7020   22.7680 C   0  0  0  0  0  0  0  0  0  0  0  0
  -20.6020  -28.0850   23.1040 C   0  0  0  0  0  3  0  0  0  0  0  0
  -20.7870  -26.6540   22.5460 C   0  0  0  0  0  2  0  0  0  0  0  0
  -19.7300  -26.2720   21.5040 C   0  0  0  0  0  2  0  0  0  0  0  0
  -18.3250  -26.3580   22.1090 C   0  0  0  0  0  2  0  0  0  0  0  0
  -19.1370  -28.5200   23.2210 C   0  0  0  0  0  0  0  0  0  0  0  0
  -18.8420  -29.7760   23.7950 C   0  0  0  0  0  3  0  0  0  0  0  0
  -17.5110  -30.2150   23.9230 C   0  0  0  0  0  3  0  0  0  0  0  0
  -16.4560  -29.3960   23.4870 C   0  0  0  0  0  3  0  0  0  0  0  0
  -16.7340  -28.1420   22.9140 C   0  0  0  0  0  3  0  0  0  0  0  0
  -25.7610  -32.4210   23.8470 C   0  0  0  0  0  3  0  0  0  0  0  0
  -26.2340  -31.7120   25.1750 C   0  0  1  0  0  0  0  0  0  0  0  0
  -25.1020  -31.5070   26.2100 C   0  0  0  0  0  1  0  0  0  0  0  0
  -26.8480  -30.3270   24.8680 C   0  0  0  0  0  1  0  0  0  0  0  0
  -27.3480  -32.5500   25.8460 C   0  0  0  0  0  1  0  0  0  0  0  0
  -25.4310  -33.8310   24.1040 N   0  0  0  0  0  0  0  0  0  0  0  0
  -25.7510  -34.8490   23.2950 C   0  0  0  0  0  0  0  0  0  0  0  0
  -26.4230  -34.7040   22.2710 O   0  0  0  0  0  0  0  0  0  0  0  0
  -24.8370  -34.0180   24.8980 H   0  0  0  0  0  0  0  0  0  0  0  0
  -23.9870  -36.5930   22.8730 C   0  0  0  0  0  1  0  0  0  0  0  0
  -25.2480  -36.2530   23.6840 C   0  0  0  0  0  3  0  0  0  0  0  0
  -27.3740  -37.2250   24.4370 C   0  0  0  0  0  1  0  0  0  0  0  0
  -26.2600  -37.3160   23.4980 N   0  0  0  0  0  0  0  0  0  0  0  0
  -25.8370  -38.2360   23.5950 H   0  0  0  0  0  0  0  0  0  0  0  0
  2  3  1  0
  4  6  1  0
  6 11  1  0
  6  5  1  0
  7  4  1  0
  7  9  1  0
  7  2  1  0
  8  5  1  0
  8  3  1  0
  9  1  1  0
  9  8  1  0
  9 10  1  6
 12 17  1  0
 13 14  1  0
 13 12  1  0
 15 14  1  0
 15 22  1  0
 15 16  1  0
 17 11  1  0
 17 16  1  0
 18 11  2  0
 19 20  2  0
 20 39  1  0
 21 20  1  0
 21 24  1  0
 22 23  1  0
 22 19  1  0
 23 21  2  0
 24 25  1  0
 25 26  2  0
 27 30  1  0
 27 26  1  0
 28 27  2  0
 29 28  1  0
 29 24  2  0
 30 31  1  0
 31 36  2  0
 31 32  1  0
 32 33  2  0
 33 34  1  0
 34 38  1  0
 35 34  2  0
 36 35  1  0
 37 36  1  0
 39 40  1  0
 40 42  1  0
 40 43  1  0
 41 39  2  0
 44 19  1  0
 44 45  1  0
 46 44  1  0
 47 48  1  0
 47  1  2  0
 49 50  1  0
 49 48  2  0
 51 62  2  0
 52 50  1  0
 52 57  1  0
 53 61  1  0
 53 63  1  0
 54 60  1  0
 54 56  1  0
 55 61  1  0
 56 57  2  0
 56 55  1  0
 58 52  2  0
 59 58  1  0
 59 54  2  0
 60 53  1  0
 61 51  1  0
 63 65  2  0
 64 63  1  0
 66 64  1  0
 67 76  2  0
 67 72  1  0
 68 64  1  0
 68 72  1  0
 69 68  1  0
 70 71  1  0
 70 69  1  0
 71 67  1  0
 72 73  2  0
 73 74  1  0
 75 74  2  0
 76 75  1  0
 77 51  1  0
 77 82  1  0
 77 78  1  0
 78 81  1  1
 78 79  1  0
 80 78  1  0
 82 85  1  0
 83 87  1  0
 83 82  1  0
 84 83  2  0
 87 86  1  0
 89 90  1  0
 89 87  1  0
 89 88  1  0
M  ISO  4   6 100  11 100  49 101  50 101
M  END
>  <TORSDO>  (75) 
F 20

>  <SCORE>  (75) 
-10.768

>  <name>  (75) 
74

>  <ligand_id>  (75) 
74

>  <original_smiles>  (75) 
[H]c1c([H])c([H])c2c(c1[H])C([H])([H])C([H])([H])C([H])([H])C2([H])N([H])C(=O)C1([H])N(C(=O)C([H])(N([H])C(=O)C([H])(N([H])C([H])([H])[H])C([H])([H])[H])C(C([H])([H])[H])(C([H])([H])[H])C([H])([H])[H])C([H])([H])c2c([H])c(OC([H])([H])C([H])([H])C([H])([H])C([H])([H])[N+]3([H])C4([H])C([H])([H])C([H])([H])C3([H])C([H])([H])C([H])(C(=O)N3C([H])([H])C([H])([H])C([H])([H])C([H])(n5nc(-c6c([H])c([H])c(Oc7c([H])c([H])c(F)c([H])c7F)c([H])c6[H])c(C(=O)N([H])[H])c5N([H])[H])C3([H])[H])C4([H])[H])c([H])c([H])c2C1([H])[H]

>  <smiles>  (75) 
[H]c1c([H])c([H])c2c(c1[H])C([H])([H])C([H])([H])C([H])([H])C2([H])N([H])C(=O)C1([H])N(C(=O)C([H])(N([H])C(=O)C([H])(N([H])C([H])([H])[H])C([H])([H])[H])C(C([H])([H])[H])(C([H])([H])[H])C([H])([H])[H])C([H])([H])c2c([H])c(OC([H])([H])C([H])([H])C([H])([H])C([H])([H])[N+]3([H])C4([H])C([H])([H])C([H])([H])C3([H])C([H])([H])C([H])(C(=O)N3C([H])([H])C([H])([H])C([H])([H])C([H])(n5nc(-c6c([H])c([H])c(Oc7c([H])c([H])c(F)c([H])c7F)c([H])c6[H])c(C(=O)N([H])[H])c5N([H])[H])C3([H])[H])C4([H])[H])c([H])c([H])c2C1([H])[H]

$$$$
75:0:0
     RDKit          3D

 98108  0  0  1  0  0  0  0  0999 V2000
  -31.5540  -20.4880   19.4310 C   0  0  0  0  0  3  0  0  0  0  0  0
  -27.4890  -18.5900   20.0350 C   0  0  0  0  0  2  0  0  0  0  0  0
  -27.5640  -20.1110   20.2910 C   0  0  0  0  0  2  0  0  0  0  0  0
  -28.7630  -18.0060   20.6830 C   0  0  0  0  0  3  0  0  0  0  0  0
  -29.7470  -19.1540   20.7330 C   0  0  0  0  0  3  0  0  0  0  0  0
  -30.1070  -19.9990   19.5200 C   0  0  0  0  0  3  0  0  0  0  0  0
  -29.0300  -20.4480   20.5090 C   0  0  1  0  0  0  0  0  0  0  0  0
  -29.2200  -21.6510   21.4190 C   0  0  0  0  0  1  0  0  0  0  0  0
  -29.8190  -15.7370   20.8360 C   0  0  0  0  0  3  0  0  0  0  0  0
  -29.3680  -16.7470   20.0520 C   0  0  0  0  0  0  0  0  0  0  0  0
  -29.4870  -16.7440   18.5230 C   0  0  0  0  0  1  0  0  0  0  0  0
  -30.5830  -14.6240   20.2890 C   0  0  0  0  0  0  0  0  0  0  0  0
  -30.3670  -12.3650   19.3450 C   0  0  0  0  0  2  0  0  0  0  0  0
  -29.4200  -12.4260   18.1280 C   0  0  0  0  0  2  0  0  0  0  0  0
  -27.9540  -12.2640   18.5770 C   0  0  0  0  0  2  0  0  0  0  0  0
  -27.5790  -13.2040   19.7560 C   0  0  0  0  0  3  0  0  0  0  0  0
  -28.6410  -13.1300   20.8760 C   0  0  0  0  0  2  0  0  0  0  0  0
  -29.9570  -13.4190   20.2840 N   0  0  0  0  0  0  0  0  0  0  0  0
  -31.6800  -14.8030   19.7520 O   0  0  0  0  0  0  0  0  0  0  0  0
  -25.1980  -13.7820   20.5460 C   0  0  0  0  0  0  0  0  0  0  0  0
  -24.1470  -12.9930   20.9340 C   0  0  0  0  0  0  0  0  0  0  0  0
  -24.6170  -11.6460   20.8630 C   0  0  0  0  0  0  0  0  0  0  0  0
  -26.2410  -12.9110   20.2670 N   0  0  0  0  0  0  0  0  0  0  0  0
  -25.8970  -11.6220   20.5140 N   0  0  0  0  0  0  0  0  0  0  0  0
  -23.9070  -10.3740   21.0510 C   0  0  0  0  0  0  0  0  0  0  0  0
  -24.3660   -9.4000   21.9640 C   0  0  0  0  0  3  0  0  0  0  0  0
  -23.6550   -8.1920   22.1390 C   0  0  0  0  0  3  0  0  0  0  0  0
  -22.4720   -7.9530   21.4020 C   0  0  0  0  0  0  0  0  0  0  0  0
  -22.0330   -8.9150   20.4770 C   0  0  0  0  0  3  0  0  0  0  0  0
  -22.7440  -10.1140   20.2990 C   0  0  0  0  0  3  0  0  0  0  0  0
  -21.7290   -6.8000   21.4880 O   0  0  0  0  0  0  0  0  0  0  0  0
  -21.6900   -6.0530   22.6390 C   0  0  0  0  0  0  0  0  0  0  0  0
  -21.2540   -6.5960   23.8660 C   0  0  0  0  0  3  0  0  0  0  0  0
  -21.1650   -5.7760   25.0080 C   0  0  0  0  0  3  0  0  0  0  0  0
  -21.5020   -4.4120   24.9230 C   0  0  0  0  0  0  0  0  0  0  0  0
  -21.9310   -3.8680   23.7010 C   0  0  0  0  0  3  0  0  0  0  0  0
  -22.0230   -4.6860   22.5610 C   0  0  0  0  0  0  0  0  0  0  0  0
  -22.4170   -4.1510   21.3810 F   0  0  0  0  0  0  0  0  0  0  0  0
  -21.4090   -3.6220   26.0180 F   0  0  0  0  0  0  0  0  0  0  0  0
  -22.7540  -13.4540   21.2600 C   0  0  0  0  0  0  0  0  0  0  0  0
  -22.0640  -12.7420   22.1450 N   0  0  0  0  0  0  0  0  0  0  0  0
  -22.2870  -14.4780   20.7660 O   0  0  0  0  0  0  0  0  0  0  0  0
  -22.4490  -11.9090   22.5640 H   0  0  0  0  0  0  0  0  0  0  0  0
  -21.1340  -13.0360   22.4040 H   0  0  0  0  0  0  0  0  0  0  0  0
  -25.3520  -15.1560   20.3890 N   0  0  0  0  0  0  0  0  0  0  0  0
  -24.5950  -15.8140   20.5410 H   0  0  0  0  0  0  0  0  0  0  0  0
  -26.2100  -15.6000   20.0880 H   0  0  0  0  0  0  0  0  0  0  0  0
  -31.7120  -21.6220   18.4930 N   0  0  0  0  0  4  0  0  0  0  0  0
  -32.6590  -21.5590   18.1530 H   0  0  0  0  0  0  0  0  0  0  0  0
  -31.1140  -21.5150   17.6910 H   0  0  0  0  0  0  0  0  0  0  0  0
  -31.5950  -22.9770   19.0660 C   0  0  0  0  0  2  0  0  0  0  0  0
  -30.2250  -23.6080   18.7940 C   0  0  0  0  0  2  0  0  0  0  0  0
  -30.0630  -24.9490   19.5220 C   0  0  0  0  0  2  0  0  0  0  0  0
  -28.6490  -25.5070   19.3770 C   0  0  0  0  0  2  0  0  0  0  0  0
  -28.5780  -26.7710   20.0260 O   0  0  0  0  0  0  0  0  0  0  0  0
  -24.5380  -31.7210   23.1320 C   0  0  0  0  0  0  0  0  0  0  0  0
  -27.3640  -27.4230   20.0160 C   0  0  0  0  0  0  0  0  0  0  0  0
  -23.4080  -30.3300   21.4270 C   0  0  0  0  0  3  0  0  0  0  0  0
  -24.9300  -28.8610   20.0120 C   0  0  0  0  0  0  0  0  0  0  0  0
  -25.9290  -30.7520   21.3060 C   0  0  0  0  0  2  0  0  0  0  0  0
  -26.0610  -29.3990   20.6410 C   0  0  0  0  0  0  0  0  0  0  0  0
  -27.2780  -28.6870   20.6420 C   0  0  0  0  0  3  0  0  0  0  0  0
  -26.2060  -26.8890   19.4000 C   0  0  0  0  0  3  0  0  0  0  0  0
  -24.9960  -27.6040   19.3930 C   0  0  0  0  0  3  0  0  0  0  0  0
  -23.6680  -29.6890   20.0400 C   0  0  0  0  0  2  0  0  0  0  0  0
  -24.6420  -30.9470   22.0150 N   0  0  0  0  0  0  0  0  0  0  0  0
  -23.4370  -31.9570   23.6480 O   0  0  0  0  0  0  0  0  0  0  0  0
  -22.7570  -29.2710   22.3440 C   0  0  0  0  0  0  0  0  0  0  0  0
  -21.4310  -29.1000   22.2120 N   0  0  0  0  0  0  0  0  0  0  0  0
  -23.4390  -28.6080   23.1310 O   0  0  0  0  0  0  0  0  0  0  0  0
  -20.9430  -29.6900   21.5520 H   0  0  0  0  0  0  0  0  0  0  0  0
  -18.0430  -27.9490   22.7060 C   0  0  0  0  0  0  0  0  0  0  0  0
  -20.6100  -28.1360   22.9410 C   0  0  0  0  0  3  0  0  0  0  0  0
  -20.6700  -26.7390   22.2800 C   0  0  0  0  0  2  0  0  0  0  0  0
  -19.5420  -26.4990   21.2730 C   0  0  0  0  0  2  0  0  0  0  0  0
  -18.1750  -26.6380   21.9510 C   0  0  0  0  0  2  0  0  0  0  0  0
  -19.1860  -28.6620   23.1560 C   0  0  0  0  0  0  0  0  0  0  0  0
  -19.0080  -29.8950   23.8210 C   0  0  0  0  0  3  0  0  0  0  0  0
  -17.7180  -30.4150   24.0400 C   0  0  0  0  0  3  0  0  0  0  0  0
  -16.5890  -29.6980   23.6070 C   0  0  0  0  0  3  0  0  0  0  0  0
  -16.7530  -28.4660   22.9450 C   0  0  0  0  0  3  0  0  0  0  0  0
  -25.7930  -32.3640   23.8000 C   0  0  0  0  0  3  0  0  0  0  0  0
  -25.4490  -33.7500   24.1400 N   0  0  0  0  0  0  0  0  0  0  0  0
  -25.7750  -34.8180   23.3970 C   0  0  0  0  0  0  0  0  0  0  0  0
  -26.4690  -34.7390   22.3790 O   0  0  0  0  0  0  0  0  0  0  0  0
  -24.8380  -33.8870   24.9310 H   0  0  0  0  0  0  0  0  0  0  0  0
  -24.0120  -36.5710   23.0280 C   0  0  0  0  0  1  0  0  0  0  0  0
  -25.2480  -36.1900   23.8570 C   0  0  0  0  0  3  0  0  0  0  0  0
  -27.3470  -37.1170   24.7320 C   0  0  0  0  0  1  0  0  0  0  0  0
  -26.2580  -37.2670   23.7710 N   0  0  0  0  0  0  0  0  0  0  0  0
  -25.8270  -38.1750   23.9200 H   0  0  0  0  0  0  0  0  0  0  0  0
  -26.2860  -31.5820   25.0790 C   0  0  1  0  0  0  0  0  0  0  0  0
  -25.1650  -31.3030   26.1080 C   0  0  0  0  0  1  0  0  0  0  0  0
  -26.9080  -30.2220   24.6800 C   0  0  0  0  0  1  0  0  0  0  0  0
  -27.4000  -32.3870   25.7890 C   0  0  0  0  0  1  0  0  0  0  0  0
  -33.8990  -19.2900   19.4220 C   0  0  0  0  0  2  0  0  0  0  0  0
  -32.9040  -18.2290   19.8270 C   0  0  0  0  0  2  0  0  0  0  0  0
  -32.4680  -19.3740   18.9410 C   0  0  0  0  0  3  0  0  0  0  0  0
  1 48  1  0
  1  6  1  0
  2  3  1  0
  2  4  1  0
  3  7  1  0
  4 10  1  0
  4  5  1  0
  6  7  1  0
  6  5  1  0
  7  5  1  0
  7  8  1  1
 10  9  2  0
 11 10  1  0
 12  9  1  0
 13 18  1  0
 14 15  1  0
 14 13  1  0
 15 16  1  0
 16 23  1  0
 16 17  1  0
 18 12  1  0
 18 17  1  0
 19 12  2  0
 20 21  2  0
 21 40  1  0
 22 21  1  0
 22 25  1  0
 23 24  1  0
 23 20  1  0
 24 22  2  0
 25 26  1  0
 26 27  2  0
 28 31  1  0
 28 27  1  0
 29 28  2  0
 30 29  1  0
 30 25  2  0
 31 32  1  0
 32 33  1  0
 33 34  2  0
 35 34  1  0
 35 39  1  0
 36 35  2  0
 37 32  2  0
 37 36  1  0
 38 37  1  0
 40 41  1  0
 41 44  1  0
 41 43  1  0
 42 40  2  0
 45 46  1  0
 45 20  1  0
 47 45  1  0
 48 51  1  0
 49 48  1  0
 50 48  1  0
 52 51  1  0
 52 53  1  0
 54 53  1  0
 54 55  1  0
 56 67  2  0
 56 82  1  0
 57 55  1  0
 57 62  1  0
 58 66  1  0
 58 68  1  0
 59 65  1  0
 59 61  1  0
 60 66  1  0
 61 62  2  0
 61 60  1  0
 63 57  2  0
 64 63  1  0
 64 59  2  0
 65 58  1  0
 66 56  1  0
 68 70  2  0
 69 68  1  0
 69 73  1  0
 71 69  1  0
 72 81  2  0
 72 77  1  0
 73 77  1  0
 74 73  1  0
 75 76  1  0
 75 74  1  0
 76 72  1  0
 77 78  2  0
 78 79  1  0
 80 79  2  0
 81 80  1  0
 82 83  1  0
 82 92  1  0
 83 86  1  0
 84 88  1  0
 84 83  1  0
 85 84  2  0
 87 88  1  0
 90 88  1  0
 90 91  1  0
 90 89  1  0
 92 95  1  1
 92 93  1  0
 94 92  1  0
 96 97  1  0
 98 96  1  0
 98  1  1  0
 98 97  1  0
M  ISO  4   9 100  12 100  54 101  55 101
M  END
>  <TORSDO>  (76) 
F 24

>  <SCORE>  (76) 
-12.318

>  <name>  (76) 
75

>  <ligand_id>  (76) 
75

>  <original_smiles>  (76) 
[H]C(C(=O)N1C([H])([H])C([H])([H])C([H])([H])C([H])(n2nc(-c3c([H])c([H])c(Oc4c([H])c([H])c(F)c([H])c4F)c([H])c3[H])c(C(=O)N([H])[H])c2N([H])[H])C1([H])[H])=C(C([H])([H])[H])C1([H])C([H])([H])C([H])([H])C2(C([H])([H])[H])C1([H])C2([H])C([H])(C1([H])C([H])([H])C1([H])[H])[N+]([H])([H])C([H])([H])C([H])([H])C([H])([H])C([H])([H])Oc1c([H])c([H])c2c(c1[H])C([H])([H])N(C(=O)C([H])(N([H])C(=O)C([H])(N([H])C([H])([H])[H])C([H])([H])[H])C(C([H])([H])[H])(C([H])([H])[H])C([H])([H])[H])C([H])(C(=O)N([H])C1([H])c3c([H])c([H])c([H])c([H])c3C([H])([H])C([H])([H])C1([H])[H])C2([H])[H]

>  <smiles>  (76) 
[H]C(C(=O)N1C([H])([H])C([H])([H])C([H])([H])C([H])(n2nc(-c3c([H])c([H])c(Oc4c([H])c([H])c(F)c([H])c4F)c([H])c3[H])c(C(=O)N([H])[H])c2N([H])[H])C1([H])[H])=C(C([H])([H])[H])C1([H])C([H])([H])C([H])([H])C2(C([H])([H])[H])C1([H])C2([H])C([H])(C1([H])C([H])([H])C1([H])[H])[N+]([H])([H])C([H])([H])C([H])([H])C([H])([H])C([H])([H])Oc1c([H])c([H])c2c(c1[H])C([H])([H])N(C(=O)C([H])(N([H])C(=O)C([H])(N([H])C([H])([H])[H])C([H])([H])[H])C(C([H])([H])[H])(C([H])([H])[H])C([H])([H])[H])C([H])(C(=O)N([H])C1([H])c3c([H])c([H])c([H])c([H])c3C([H])([H])C([H])([H])C1([H])[H])C2([H])[H]

$$$$
76:0:0
     RDKit          3D

 95104  0  0  1  0  0  0  0  0999 V2000
  -32.4690  -23.5370   17.8270 C   0  0  0  0  0  2  0  0  0  0  0  0
  -32.7200  -22.5600   18.9920 C   0  0  0  0  0  2  0  0  0  0  0  0
  -31.3420  -24.4910   18.2680 C   0  0  0  0  0  2  0  0  0  0  0  0
  -31.0960  -22.8610   21.1650 C   0  0  0  0  0  3  0  0  0  0  0  0
  -32.2420  -23.2990   20.2400 C   0  0  0  0  0  3  0  0  0  0  0  0
  -31.3300  -24.4180   19.7860 C   0  0  0  0  0  3  0  0  0  0  0  0
  -30.1830  -23.6950   20.3650 N   0  0  2  0  0  4  0  0  0  0  0  0
  -29.7230  -23.0620   19.7210 H   0  0  0  0  0  0  0  0  0  0  0  0
  -30.7180  -21.3640   21.1710 C   0  0  0  0  0  0  0  0  0  0  0  0
  -31.5820  -20.5280   21.7710 N   0  0  0  0  0  0  0  0  0  0  0  0
  -29.6370  -20.9990   20.7050 O   0  0  0  0  0  0  0  0  0  0  0  0
  -32.4610  -20.9370   22.0600 H   0  0  0  0  0  0  0  0  0  0  0  0
  -31.3280  -19.1860   22.3130 C   0  0  0  0  0  2  0  0  0  0  0  0
  -31.0580  -18.0630   21.2800 C   0  0  0  0  0  2  0  0  0  0  0  0
  -30.9860  -16.6570   21.9420 C   0  0  0  0  0  2  0  0  0  0  0  0
  -29.9880  -15.6340   21.3200 C   0  0  0  0  0  2  0  0  0  0  0  0
  -30.5930  -14.4770   20.4830 C   0  0  0  0  0  0  0  0  0  0  0  0
  -30.2770  -12.3500   19.2540 C   0  0  0  0  0  2  0  0  0  0  0  0
  -29.3140  -12.5390   18.0640 C   0  0  0  0  0  2  0  0  0  0  0  0
  -27.8480  -12.3740   18.5120 C   0  0  0  0  0  2  0  0  0  0  0  0
  -27.5140  -13.2100   19.7750 C   0  0  0  0  0  3  0  0  0  0  0  0
  -28.5800  -12.9870   20.8670 C   0  0  0  0  0  2  0  0  0  0  0  0
  -29.9030  -13.3130   20.3040 N   0  0  0  0  0  0  0  0  0  0  0  0
  -31.6710  -14.6830   19.9200 O   0  0  0  0  0  0  0  0  0  0  0  0
  -25.1160  -13.8000   20.5030 C   0  0  0  0  0  0  0  0  0  0  0  0
  -24.0580  -13.0180   20.8850 C   0  0  0  0  0  0  0  0  0  0  0  0
  -24.5300  -11.6710   20.8550 C   0  0  0  0  0  0  0  0  0  0  0  0
  -26.1650  -12.9280   20.2670 N   0  0  0  0  0  0  0  0  0  0  0  0
  -25.8170  -11.6400   20.5330 N   0  0  0  0  0  0  0  0  0  0  0  0
  -23.8170  -10.4030   21.0590 C   0  0  0  0  0  0  0  0  0  0  0  0
  -24.2830   -9.4320   21.9740 C   0  0  0  0  0  3  0  0  0  0  0  0
  -23.5730   -8.2280   22.1630 C   0  0  0  0  0  3  0  0  0  0  0  0
  -22.3830   -7.9830   21.4380 C   0  0  0  0  0  0  0  0  0  0  0  0
  -21.9370   -8.9420   20.5130 C   0  0  0  0  0  3  0  0  0  0  0  0
  -22.6460  -10.1410   20.3210 C   0  0  0  0  0  3  0  0  0  0  0  0
  -21.6380   -6.8330   21.5390 O   0  0  0  0  0  0  0  0  0  0  0  0
  -21.6470   -6.0670   22.6770 C   0  0  0  0  0  0  0  0  0  0  0  0
  -21.2910   -6.5970   23.9350 C   0  0  0  0  0  3  0  0  0  0  0  0
  -21.2530   -5.7590   25.0670 C   0  0  0  0  0  3  0  0  0  0  0  0
  -21.5510   -4.3900   24.9410 C   0  0  0  0  0  0  0  0  0  0  0  0
  -21.8940   -3.8570   23.6870 C   0  0  0  0  0  3  0  0  0  0  0  0
  -21.9400   -4.6940   22.5590 C   0  0  0  0  0  0  0  0  0  0  0  0
  -22.2550   -4.1710   21.3490 F   0  0  0  0  0  0  0  0  0  0  0  0
  -21.5020   -3.5820   26.0270 F   0  0  0  0  0  0  0  0  0  0  0  0
  -22.6590  -13.4830   21.1700 C   0  0  0  0  0  0  0  0  0  0  0  0
  -21.9490  -12.7810   22.0470 N   0  0  0  0  0  0  0  0  0  0  0  0
  -22.2050  -14.5010   20.6500 O   0  0  0  0  0  0  0  0  0  0  0  0
  -22.3310  -11.9610   22.4950 H   0  0  0  0  0  0  0  0  0  0  0  0
  -21.0080  -13.0680   22.2750 H   0  0  0  0  0  0  0  0  0  0  0  0
  -25.2700  -15.1710   20.3200 N   0  0  0  0  0  0  0  0  0  0  0  0
  -24.5050  -15.8280   20.4360 H   0  0  0  0  0  0  0  0  0  0  0  0
  -26.1240  -15.6140   20.0060 H   0  0  0  0  0  0  0  0  0  0  0  0
  -29.2210  -24.5460   21.1220 C   0  0  0  0  0  2  0  0  0  0  0  0
  -28.1480  -25.2390   20.2410 C   0  0  0  0  0  2  0  0  0  0  0  0
  -28.3230  -26.6690   20.1170 O   0  0  0  0  0  0  0  0  0  0  0  0
  -24.5360  -31.8620   23.1730 C   0  0  0  0  0  0  0  0  0  0  0  0
  -27.1600  -27.4230   20.0660 C   0  0  0  0  0  0  0  0  0  0  0  0
  -23.3200  -30.4660   21.5330 C   0  0  0  0  0  3  0  0  0  0  0  0
  -24.7630  -28.9410   20.0870 C   0  0  0  0  0  0  0  0  0  0  0  0
  -25.8450  -30.8270   21.3190 C   0  0  0  0  0  2  0  0  0  0  0  0
  -25.9280  -29.4610   20.6670 C   0  0  0  0  0  0  0  0  0  0  0  0
  -27.1300  -28.7130   20.6470 C   0  0  0  0  0  3  0  0  0  0  0  0
  -25.9810  -26.9310   19.4580 C   0  0  0  0  0  3  0  0  0  0  0  0
  -24.7890  -27.6770   19.4740 C   0  0  0  0  0  3  0  0  0  0  0  0
  -23.5170  -29.7960   20.1470 C   0  0  0  0  0  2  0  0  0  0  0  0
  -24.5870  -31.0660   22.0660 N   0  0  0  0  0  0  0  0  0  0  0  0
  -23.4580  -32.1330   23.7190 O   0  0  0  0  0  0  0  0  0  0  0  0
  -22.6760  -29.4410   22.4940 C   0  0  0  0  0  0  0  0  0  0  0  0
  -21.3490  -29.2700   22.3870 N   0  0  0  0  0  0  0  0  0  0  0  0
  -23.3680  -28.8040   23.2930 O   0  0  0  0  0  0  0  0  0  0  0  0
  -20.8510  -29.8330   21.7110 H   0  0  0  0  0  0  0  0  0  0  0  0
  -17.9750  -28.0990   22.9300 C   0  0  0  0  0  0  0  0  0  0  0  0
  -20.5380  -28.3310   23.1630 C   0  0  0  0  0  3  0  0  0  0  0  0
  -20.6190  -26.9050   22.5700 C   0  0  0  0  0  2  0  0  0  0  0  0
  -19.4980  -26.6040   21.5700 C   0  0  0  0  0  2  0  0  0  0  0  0
  -18.1280  -26.7550   22.2380 C   0  0  0  0  0  2  0  0  0  0  0  0
  -19.1070  -28.8450   23.3500 C   0  0  0  0  0  0  0  0  0  0  0  0
  -18.9100  -30.1050   23.9580 C   0  0  0  0  0  3  0  0  0  0  0  0
  -17.6130  -30.6170   24.1480 C   0  0  0  0  0  3  0  0  0  0  0  0
  -16.4960  -29.8690   23.7430 C   0  0  0  0  0  3  0  0  0  0  0  0
  -16.6770  -28.6110   23.1400 C   0  0  0  0  0  3  0  0  0  0  0  0
  -25.8270  -32.4910   23.7830 C   0  0  0  0  0  3  0  0  0  0  0  0
  -25.5140  -33.8810   24.1390 N   0  0  0  0  0  0  0  0  0  0  0  0
  -25.8320  -34.9480   23.3930 C   0  0  0  0  0  0  0  0  0  0  0  0
  -26.4900  -34.8660   22.3510 O   0  0  0  0  0  0  0  0  0  0  0  0
  -24.9250  -34.0210   24.9450 H   0  0  0  0  0  0  0  0  0  0  0  0
  -24.0830  -36.7300   23.0900 C   0  0  0  0  0  1  0  0  0  0  0  0
  -25.3400  -36.3240   23.8770 C   0  0  0  0  0  3  0  0  0  0  0  0
  -27.4830  -37.2090   24.6880 C   0  0  0  0  0  1  0  0  0  0  0  0
  -26.3620  -37.3870   23.7660 N   0  0  0  0  0  0  0  0  0  0  0  0
  -25.9520  -38.3010   23.9370 H   0  0  0  0  0  0  0  0  0  0  0  0
  -26.3670  -31.7020   25.0380 C   0  0  1  0  0  0  0  0  0  0  0  0
  -25.2930  -31.4460   26.1180 C   0  0  0  0  0  1  0  0  0  0  0  0
  -26.9440  -30.3300   24.6140 C   0  0  0  0  0  1  0  0  0  0  0  0
  -27.5210  -32.4950   25.7000 C   0  0  0  0  0  1  0  0  0  0  0  0
  1  3  1  0
  1  2  1  0
  4  9  1  0
  5  2  1  0
  5  4  1  0
  6  3  1  0
  6  5  1  0
  6  7  1  0
  7 53  1  0
  7  4  1  0
  7  8  1  6
  9 10  1  0
 10 12  1  0
 10 13  1  0
 11  9  2  0
 14 15  1  0
 14 13  1  0
 16 15  1  0
 17 16  1  0
 18 23  1  0
 19 20  1  0
 19 18  1  0
 21 20  1  0
 21 28  1  0
 21 22  1  0
 23 17  1  0
 23 22  1  0
 24 17  2  0
 25 26  2  0
 26 45  1  0
 27 26  1  0
 27 30  1  0
 28 25  1  0
 28 29  1  0
 29 27  2  0
 30 31  1  0
 31 32  2  0
 33 36  1  0
 33 32  1  0
 34 33  2  0
 35 34  1  0
 35 30  2  0
 36 37  1  0
 37 38  1  0
 38 39  2  0
 40 39  1  0
 40 44  1  0
 41 40  2  0
 42 37  2  0
 42 41  1  0
 43 42  1  0
 45 46  1  0
 46 49  1  0
 46 48  1  0
 47 45  2  0
 50 51  1  0
 50 25  1  0
 52 50  1  0
 54 53  1  0
 55 54  1  0
 56 67  2  0
 57 55  1  0
 57 62  1  0
 58 66  1  0
 58 68  1  0
 59 65  1  0
 59 61  1  0
 60 66  1  0
 61 60  1  0
 62 61  2  0
 63 64  1  0
 63 57  2  0
 64 59  2  0
 65 58  1  0
 66 56  1  0
 68 70  2  0
 69 68  1  0
 71 69  1  0
 72 81  2  0
 72 77  1  0
 73 69  1  0
 73 77  1  0
 74 73  1  0
 75 76  1  0
 75 74  1  0
 76 72  1  0
 77 78  2  0
 78 79  1  0
 80 79  2  0
 81 80  1  0
 82 56  1  0
 82 83  1  0
 82 92  1  0
 83 86  1  0
 84 88  1  0
 84 83  1  0
 85 84  2  0
 88 87  1  0
 90 88  1  0
 90 91  1  0
 90 89  1  0
 92 95  1  1
 92 93  1  0
 94 92  1  0
M  ISO  4  16 100  17 100  54 101  55 101
M  END
>  <TORSDO>  (77) 
F 23

>  <SCORE>  (77) 
-12.781

>  <name>  (77) 
76

>  <ligand_id>  (77) 
76

>  <original_smiles>  (77) 
[H]c1c([H])c([H])c2c(c1[H])C([H])([H])C([H])([H])C([H])([H])C2([H])N([H])C(=O)C1([H])N(C(=O)C([H])(N([H])C(=O)C([H])(N([H])C([H])([H])[H])C([H])([H])[H])C(C([H])([H])[H])(C([H])([H])[H])C([H])([H])[H])C([H])([H])c2c([H])c(OC([H])([H])C([H])([H])[N+]3([H])C([H])(C(=O)N([H])C([H])([H])C([H])([H])C([H])([H])C([H])([H])C(=O)N4C([H])([H])C([H])([H])C([H])([H])C([H])(n5nc(-c6c([H])c([H])c(Oc7c([H])c([H])c(F)c([H])c7F)c([H])c6[H])c(C(=O)N([H])[H])c5N([H])[H])C4([H])[H])C4([H])C([H])([H])C([H])([H])C([H])([H])C43[H])c([H])c([H])c2C1([H])[H]

>  <smiles>  (77) 
[H]c1c([H])c([H])c2c(c1[H])C([H])([H])C([H])([H])C([H])([H])C2([H])N([H])C(=O)C1([H])N(C(=O)C([H])(N([H])C(=O)C([H])(N([H])C([H])([H])[H])C([H])([H])[H])C(C([H])([H])[H])(C([H])([H])[H])C([H])([H])[H])C([H])([H])c2c([H])c(OC([H])([H])C([H])([H])[N+]3([H])C([H])(C(=O)N([H])C([H])([H])C([H])([H])C([H])([H])C([H])([H])C(=O)N4C([H])([H])C([H])([H])C([H])([H])C([H])(n5nc(-c6c([H])c([H])c(Oc7c([H])c([H])c(F)c([H])c7F)c([H])c6[H])c(C(=O)N([H])[H])c5N([H])[H])C4([H])[H])C4([H])C([H])([H])C([H])([H])C([H])([H])C43[H])c([H])c([H])c2C1([H])[H]

$$$$
77:0:0
     RDKit          3D

 90 98  0  0  1  0  0  0  0  0999 V2000
  -29.2630  -21.2810   20.7890 C   0  0  0  0  0  3  0  0  0  0  0  0
  -28.7850  -22.5090   19.9030 C   0  0  0  0  0  2  0  0  0  0  0  0
  -28.8700  -23.9730   20.5260 C   0  0  0  0  0  3  0  0  0  0  0  0
  -28.0040  -25.1000   19.8300 C   0  0  0  0  0  3  0  0  0  0  0  0
  -28.1900  -26.5210   20.2100 O   0  0  0  0  0  0  0  0  0  0  0  0
  -24.5630  -31.9420   23.2780 C   0  0  0  0  0  0  0  0  0  0  0  0
  -27.0870  -27.3870   20.1500 C   0  0  0  0  0  0  0  0  0  0  0  0
  -23.3290  -30.5720   21.6400 C   0  0  0  0  0  3  0  0  0  0  0  0
  -24.7480  -29.0310   20.1810 C   0  0  0  0  0  0  0  0  0  0  0  0
  -25.8700  -30.8640   21.4360 C   0  0  0  0  0  2  0  0  0  0  0  0
  -25.9260  -29.4930   20.7790 C   0  0  0  0  0  0  0  0  0  0  0  0
  -27.0980  -28.6790   20.7630 C   0  0  0  0  0  3  0  0  0  0  0  0
  -25.8920  -26.9980   19.5000 C   0  0  0  0  0  3  0  0  0  0  0  0
  -24.7320  -27.7890   19.5340 C   0  0  0  0  0  3  0  0  0  0  0  0
  -23.5210  -29.9140   20.2510 C   0  0  0  0  0  2  0  0  0  0  0  0
  -24.6080  -31.1420   22.1750 N   0  0  0  0  0  0  0  0  0  0  0  0
  -23.4880  -32.2280   23.8250 O   0  0  0  0  0  0  0  0  0  0  0  0
  -22.6690  -29.5490   22.5950 C   0  0  0  0  0  0  0  0  0  0  0  0
  -21.3500  -29.3400   22.4380 N   0  0  0  0  0  0  0  0  0  0  0  0
  -23.3420  -28.9450   23.4350 O   0  0  0  0  0  0  0  0  0  0  0  0
  -20.8660  -29.8790   21.7340 H   0  0  0  0  0  0  0  0  0  0  0  0
  -17.9970  -28.0450   22.8390 C   0  0  0  0  0  0  0  0  0  0  0  0
  -20.5330  -28.3950   23.2020 C   0  0  0  0  0  3  0  0  0  0  0  0
  -20.7040  -26.9530   22.6710 C   0  0  0  0  0  2  0  0  0  0  0  0
  -19.6540  -26.5670   21.6240 C   0  0  0  0  0  2  0  0  0  0  0  0
  -18.2440  -26.6840   22.2090 C   0  0  0  0  0  2  0  0  0  0  0  0
  -19.0730  -28.8550   23.2900 C   0  0  0  0  0  0  0  0  0  0  0  0
  -18.7890  -30.1260   23.8360 C   0  0  0  0  0  3  0  0  0  0  0  0
  -17.4630  -30.5880   23.9360 C   0  0  0  0  0  3  0  0  0  0  0  0
  -16.4030  -29.7750   23.5020 C   0  0  0  0  0  3  0  0  0  0  0  0
  -16.6700  -28.5060   22.9590 C   0  0  0  0  0  3  0  0  0  0  0  0
  -25.8580  -32.5580   23.8910 C   0  0  0  0  0  3  0  0  0  0  0  0
  -25.5640  -33.9540   24.2410 N   0  0  0  0  0  0  0  0  0  0  0  0
  -25.8930  -35.0130   23.4880 C   0  0  0  0  0  0  0  0  0  0  0  0
  -26.5470  -34.9150   22.4460 O   0  0  0  0  0  0  0  0  0  0  0  0
  -24.9840  -34.1040   25.0530 H   0  0  0  0  0  0  0  0  0  0  0  0
  -24.1740  -36.8230   23.1740 C   0  0  0  0  0  1  0  0  0  0  0  0
  -25.4220  -36.4000   23.9660 C   0  0  0  0  0  3  0  0  0  0  0  0
  -27.5710  -37.2630   24.7820 C   0  0  0  0  0  1  0  0  0  0  0  0
  -26.4610  -37.4460   23.8510 N   0  0  0  0  0  0  0  0  0  0  0  0
  -26.0640  -38.3680   24.0130 H   0  0  0  0  0  0  0  0  0  0  0  0
  -26.3850  -31.7680   25.1530 C   0  0  1  0  0  0  0  0  0  0  0  0
  -25.2990  -31.5120   26.2240 C   0  0  0  0  0  1  0  0  0  0  0  0
  -26.9660  -30.3970   24.7370 C   0  0  0  0  0  1  0  0  0  0  0  0
  -27.5400  -32.5520   25.8180 C   0  0  0  0  0  1  0  0  0  0  0  0
  -29.4720  -19.8600   20.0850 C   0  0  0  0  0  3  0  0  0  0  0  0
  -32.1730  -18.6960   21.3900 C   0  0  0  0  0  0  0  0  0  0  0  0
  -32.0070  -17.7330   20.2350 C   0  0  0  0  0  2  0  0  0  0  0  0
  -30.8340  -18.9980   22.0260 C   0  0  0  0  0  2  0  0  0  0  0  0
  -30.4850  -17.4630   20.2030 C   0  0  0  0  0  3  0  0  0  0  0  0
  -29.8780  -18.6590   20.9440 N   0  0  2  0  0  4  0  0  0  0  0  0
  -33.2520  -19.1760   21.7520 O   0  0  0  0  0  0  0  0  0  0  0  0
  -29.0250  -18.3600   21.3950 H   0  0  0  0  0  0  0  0  0  0  0  0
  -30.1200  -16.0110   20.7890 C   0  0  0  0  0  2  0  0  0  0  0  0
  -30.8120  -14.7280   20.1620 C   0  0  0  0  0  0  0  0  0  0  0  0
  -30.5280  -12.5230   19.0360 C   0  0  0  0  0  2  0  0  0  0  0  0
  -29.5590  -12.6890   17.8460 C   0  0  0  0  0  2  0  0  0  0  0  0
  -28.1000  -12.5240   18.3110 C   0  0  0  0  0  2  0  0  0  0  0  0
  -27.7780  -13.3700   19.5730 C   0  0  0  0  0  3  0  0  0  0  0  0
  -28.8630  -13.1990   20.6610 C   0  0  0  0  0  2  0  0  0  0  0  0
  -30.1630  -13.5250   20.0600 N   0  0  0  0  0  0  0  0  0  0  0  0
  -31.9350  -14.8550   19.6670 O   0  0  0  0  0  0  0  0  0  0  0  0
  -25.3990  -13.9630   20.3440 C   0  0  0  0  0  0  0  0  0  0  0  0
  -24.3440  -13.1880   20.7400 C   0  0  0  0  0  0  0  0  0  0  0  0
  -24.8100  -11.8380   20.7020 C   0  0  0  0  0  0  0  0  0  0  0  0
  -26.4410  -13.0850   20.0890 N   0  0  0  0  0  0  0  0  0  0  0  0
  -26.0930  -11.8030   20.3650 N   0  0  0  0  0  0  0  0  0  0  0  0
  -24.0930  -10.5740   20.9110 C   0  0  0  0  0  0  0  0  0  0  0  0
  -24.5030   -9.6440   21.8930 C   0  0  0  0  0  3  0  0  0  0  0  0
  -23.7860   -8.4440   22.0870 C   0  0  0  0  0  3  0  0  0  0  0  0
  -22.6430   -8.1650   21.3000 C   0  0  0  0  0  0  0  0  0  0  0  0
  -22.2530   -9.0820   20.3090 C   0  0  0  0  0  3  0  0  0  0  0  0
  -22.9720  -10.2740   20.1140 C   0  0  0  0  0  3  0  0  0  0  0  0
  -21.9000   -7.0140   21.4010 O   0  0  0  0  0  0  0  0  0  0  0  0
  -21.7600   -6.3490   22.5940 C   0  0  0  0  0  0  0  0  0  0  0  0
  -21.2010   -6.9710   23.7320 C   0  0  0  0  0  3  0  0  0  0  0  0
  -21.0120   -6.2320   24.9170 C   0  0  0  0  0  3  0  0  0  0  0  0
  -21.3710   -4.8710   24.9630 C   0  0  0  0  0  0  0  0  0  0  0  0
  -21.9230   -4.2490   23.8290 C   0  0  0  0  0  3  0  0  0  0  0  0
  -22.1140   -4.9860   22.6470 C   0  0  0  0  0  0  0  0  0  0  0  0
  -22.6270   -4.3770   21.5510 F   0  0  0  0  0  0  0  0  0  0  0  0
  -21.1830   -4.1580   26.0980 F   0  0  0  0  0  0  0  0  0  0  0  0
  -22.9510  -13.6600   21.0410 C   0  0  0  0  0  0  0  0  0  0  0  0
  -22.2460  -12.9670   21.9290 N   0  0  0  0  0  0  0  0  0  0  0  0
  -22.4970  -14.6800   20.5240 O   0  0  0  0  0  0  0  0  0  0  0  0
  -22.6260  -12.1420   22.3680 H   0  0  0  0  0  0  0  0  0  0  0  0
  -21.3130  -13.2670   22.1720 H   0  0  0  0  0  0  0  0  0  0  0  0
  -25.5540  -15.3340   20.1570 N   0  0  0  0  0  0  0  0  0  0  0  0
  -24.7810  -15.9800   20.2670 H   0  0  0  0  0  0  0  0  0  0  0  0
  -26.3810  -15.7680   19.7690 H   0  0  0  0  0  0  0  0  0  0  0  0
  2  3  1  0
  2  1  1  0
  4  5  1  0
  4  3  2  0
  6 17  2  0
  7  5  1  0
  7 12  1  0
  8 16  1  0
  8 18  1  0
  9 15  1  0
  9 11  1  0
 10 16  1  0
 11 10  1  0
 12 11  2  0
 13 14  1  0
 13  7  2  0
 14  9  2  0
 15  8  1  0
 16  6  1  0
 18 20  2  0
 19 18  1  0
 21 19  1  0
 22 31  2  0
 22 27  1  0
 23 19  1  0
 23 27  1  0
 24 23  1  0
 25 26  1  0
 25 24  1  0
 26 22  1  0
 27 28  2  0
 28 29  1  0
 30 29  2  0
 31 30  1  0
 32  6  1  0
 32 33  1  0
 32 42  1  0
 33 36  1  0
 34 38  1  0
 34 33  1  0
 35 34  2  0
 38 37  1  0
 40 38  1  0
 40 41  1  0
 40 39  1  0
 42 45  1  1
 42 43  1  0
 44 42  1  0
 46  1  2  0
 46 51  1  0
 47 52  2  0
 47 49  1  0
 48 47  1  0
 50 48  1  0
 50 54  1  0
 50 51  1  0
 51 53  1  1
 51 49  1  0
 55 54  1  0
 56 61  1  0
 57 58  1  0
 57 56  1  0
 59 58  1  0
 59 66  1  0
 59 60  1  0
 61 55  1  0
 61 60  1  0
 62 55  2  0
 63 64  2  0
 64 83  1  0
 65 64  1  0
 65 68  1  0
 66 63  1  0
 66 67  1  0
 67 65  2  0
 68 69  1  0
 69 70  2  0
 71 74  1  0
 71 70  1  0
 72 71  2  0
 73 72  1  0
 73 68  2  0
 74 75  1  0
 75 80  2  0
 75 76  1  0
 76 77  2  0
 77 78  1  0
 78 82  1  0
 79 78  2  0
 80 79  1  0
 81 80  1  0
 83 84  1  0
 84 87  1  0
 84 86  1  0
 85 83  2  0
 88 89  1  0
 88 63  1  0
 90 88  1  0
M  ISO  4   4 101   5 101  54 100  55 100
M  END
>  <TORSDO>  (78) 
F 22

>  <SCORE>  (78) 
-13.087

>  <name>  (78) 
77

>  <ligand_id>  (78) 
77

>  <original_smiles>  (78) 
[H]c1c([H])c([H])c2c(c1[H])C([H])([H])C([H])([H])C([H])([H])C2([H])N([H])C(=O)C1([H])N(C(=O)C([H])(N([H])C(=O)C([H])(N([H])C([H])([H])[H])C([H])([H])[H])C(C([H])([H])[H])(C([H])([H])[H])C([H])([H])[H])C([H])([H])c2c([H])c(OC([H])([H])C([H])([H])C([H])([H])C([H])([H])C([H])([H])[N+]3([H])C([H])([H])C(=O)C([H])([H])C3([H])C([H])([H])C(=O)N3C([H])([H])C([H])([H])C([H])([H])C([H])(n4nc(-c5c([H])c([H])c(Oc6c([H])c([H])c(F)c([H])c6F)c([H])c5[H])c(C(=O)N([H])[H])c4N([H])[H])C3([H])[H])c([H])c([H])c2C1([H])[H]

>  <smiles>  (78) 
[H]c1c([H])c([H])c2c(c1[H])C([H])([H])C([H])([H])C([H])([H])C2([H])N([H])C(=O)C1([H])N(C(=O)C([H])(N([H])C(=O)C([H])(N([H])C([H])([H])[H])C([H])([H])[H])C(C([H])([H])[H])(C([H])([H])[H])C([H])([H])[H])C([H])([H])c2c([H])c(OC([H])([H])C([H])([H])C([H])([H])C([H])([H])C([H])([H])[N+]3([H])C([H])([H])C(=O)C([H])([H])C3([H])C([H])([H])C(=O)N3C([H])([H])C([H])([H])C([H])([H])C([H])(n4nc(-c5c([H])c([H])c(Oc6c([H])c([H])c(F)c([H])c6F)c([H])c5[H])c(C(=O)N([H])[H])c4N([H])[H])C3([H])[H])c([H])c([H])c2C1([H])[H]

$$$$
78:0:0
     RDKit          3D

 93101  0  0  1  0  0  0  0  0999 V2000
  -30.7080  -23.5320   20.9620 C   0  0  0  0  0  2  0  0  0  0  0  0
  -31.4000  -22.2750   20.4350 C   0  0  0  0  0  2  0  0  0  0  0  0
  -29.1330  -21.6800   20.6230 C   0  0  0  0  0  2  0  0  0  0  0  0
  -29.2260  -23.1570   21.1150 C   0  0  0  0  0  3  0  0  0  0  0  0
  -30.5380  -21.0660   20.8720 C   0  0  0  0  0  3  0  0  0  0  0  0
  -28.2910  -24.2060   20.4490 C   0  0  0  0  0  2  0  0  0  0  0  0
  -28.3710  -25.6180   21.1020 C   0  0  0  0  0  2  0  0  0  0  0  0
  -28.3600  -26.6940   20.1520 O   0  0  0  0  0  0  0  0  0  0  0  0
  -24.5830  -31.8870   23.2320 C   0  0  0  0  0  0  0  0  0  0  0  0
  -27.2100  -27.4410   20.1560 C   0  0  0  0  0  0  0  0  0  0  0  0
  -23.3710  -30.4620   21.6100 C   0  0  0  0  0  3  0  0  0  0  0  0
  -24.8210  -28.9260   20.1790 C   0  0  0  0  0  0  0  0  0  0  0  0
  -25.8860  -30.8430   21.3790 C   0  0  0  0  0  2  0  0  0  0  0  0
  -25.9770  -29.4670   20.7530 C   0  0  0  0  0  0  0  0  0  0  0  0
  -27.1830  -28.7280   20.7370 C   0  0  0  0  0  3  0  0  0  0  0  0
  -26.0420  -26.9150   19.5730 C   0  0  0  0  0  3  0  0  0  0  0  0
  -24.8450  -27.6560   19.5810 C   0  0  0  0  0  3  0  0  0  0  0  0
  -23.5720  -29.7740   20.2320 C   0  0  0  0  0  2  0  0  0  0  0  0
  -24.6330  -31.0760   22.1360 N   0  0  0  0  0  0  0  0  0  0  0  0
  -23.5050  -32.1570   23.7790 O   0  0  0  0  0  0  0  0  0  0  0  0
  -22.7300  -29.4510   22.5830 C   0  0  0  0  0  0  0  0  0  0  0  0
  -21.4050  -29.2730   22.4670 N   0  0  0  0  0  0  0  0  0  0  0  0
  -23.4180  -28.8290   23.3940 O   0  0  0  0  0  0  0  0  0  0  0  0
  -20.9110  -29.8260   21.7820 H   0  0  0  0  0  0  0  0  0  0  0  0
  -18.0380  -28.0690   22.9730 C   0  0  0  0  0  0  0  0  0  0  0  0
  -20.5930  -28.3400   23.2480 C   0  0  0  0  0  3  0  0  0  0  0  0
  -20.7070  -26.9040   22.6820 C   0  0  0  0  0  2  0  0  0  0  0  0
  -19.6060  -26.5660   21.6720 C   0  0  0  0  0  2  0  0  0  0  0  0
  -18.2230  -26.7160   22.3120 C   0  0  0  0  0  2  0  0  0  0  0  0
  -19.1520  -28.8410   23.3970 C   0  0  0  0  0  0  0  0  0  0  0  0
  -18.9250  -30.1120   23.9710 C   0  0  0  0  0  3  0  0  0  0  0  0
  -17.6170  -30.6030   24.1380 C   0  0  0  0  0  3  0  0  0  0  0  0
  -16.5170  -29.8270   23.7350 C   0  0  0  0  0  3  0  0  0  0  0  0
  -16.7300  -28.5630   23.1530 C   0  0  0  0  0  3  0  0  0  0  0  0
  -25.8740  -32.5260   23.8370 C   0  0  0  0  0  3  0  0  0  0  0  0
  -25.5650  -33.9230   24.1770 N   0  0  0  0  0  0  0  0  0  0  0  0
  -25.8840  -34.9750   23.4150 C   0  0  0  0  0  0  0  0  0  0  0  0
  -26.5400  -34.8760   22.3730 O   0  0  0  0  0  0  0  0  0  0  0  0
  -24.9870  -34.0740   24.9910 H   0  0  0  0  0  0  0  0  0  0  0  0
  -24.1410  -36.7570   23.0930 C   0  0  0  0  0  1  0  0  0  0  0  0
  -25.3990  -36.3620   23.8820 C   0  0  0  0  0  3  0  0  0  0  0  0
  -27.5430  -37.2540   24.6760 C   0  0  0  0  0  1  0  0  0  0  0  0
  -26.4240  -37.4190   23.7530 N   0  0  0  0  0  0  0  0  0  0  0  0
  -26.0160  -38.3360   23.9200 H   0  0  0  0  0  0  0  0  0  0  0  0
  -26.4180  -31.7530   25.0990 C   0  0  1  0  0  0  0  0  0  0  0  0
  -25.3430  -31.4970   26.1820 C   0  0  0  0  0  1  0  0  0  0  0  0
  -26.9990  -30.3830   24.6840 C   0  0  0  0  0  1  0  0  0  0  0  0
  -27.5770  -32.5460   25.7500 C   0  0  0  0  0  1  0  0  0  0  0  0
  -30.8830  -19.6860   20.1690 C   0  0  0  0  0  3  0  0  0  0  0  0
  -30.2840  -18.4740   20.8440 N   0  0  0  0  0  4  0  0  0  0  0  0
  -30.5480  -18.4900   21.8160 H   0  0  0  0  0  0  0  0  0  0  0  0
  -29.2810  -18.5650   20.8170 H   0  0  0  0  0  0  0  0  0  0  0  0
  -30.6480  -17.1250   20.2730 C   0  0  0  0  0  2  0  0  0  0  0  0
  -30.0540  -15.8500   20.9780 C   0  0  0  0  0  2  0  0  0  0  0  0
  -30.6890  -14.5260   20.4480 C   0  0  0  0  0  0  0  0  0  0  0  0
  -30.3380  -12.3450   19.3440 C   0  0  0  0  0  2  0  0  0  0  0  0
  -29.4100  -12.5800   18.1350 C   0  0  0  0  0  2  0  0  0  0  0  0
  -27.9350  -12.4610   18.5570 C   0  0  0  0  0  2  0  0  0  0  0  0
  -27.6050  -13.2810   19.8360 C   0  0  0  0  0  3  0  0  0  0  0  0
  -28.6720  -13.0810   20.9390 C   0  0  0  0  0  2  0  0  0  0  0  0
  -29.9930  -13.3580   20.3580 N   0  0  0  0  0  0  0  0  0  0  0  0
  -31.8300  -14.6100   19.9870 O   0  0  0  0  0  0  0  0  0  0  0  0
  -25.2100  -13.8790   20.5370 C   0  0  0  0  0  0  0  0  0  0  0  0
  -24.1420  -13.1100   20.9030 C   0  0  0  0  0  0  0  0  0  0  0  0
  -24.5970  -11.7560   20.8750 C   0  0  0  0  0  0  0  0  0  0  0  0
  -26.2550  -12.9980   20.3150 N   0  0  0  0  0  0  0  0  0  0  0  0
  -25.8910  -11.7130   20.5750 N   0  0  0  0  0  0  0  0  0  0  0  0
  -23.8660  -10.4970   21.0680 C   0  0  0  0  0  0  0  0  0  0  0  0
  -24.3080   -9.5180   21.9860 C   0  0  0  0  0  3  0  0  0  0  0  0
  -23.5770   -8.3260   22.1720 C   0  0  0  0  0  3  0  0  0  0  0  0
  -22.3890   -8.1020   21.4380 C   0  0  0  0  0  0  0  0  0  0  0  0
  -21.9610   -9.0690   20.5140 C   0  0  0  0  0  3  0  0  0  0  0  0
  -22.6920  -10.2540   20.3260 C   0  0  0  0  0  3  0  0  0  0  0  0
  -21.6290   -6.9600   21.5300 O   0  0  0  0  0  0  0  0  0  0  0  0
  -21.6190   -6.1920   22.6660 C   0  0  0  0  0  0  0  0  0  0  0  0
  -21.2650   -6.7280   23.9230 C   0  0  0  0  0  3  0  0  0  0  0  0
  -21.2050   -5.8880   25.0530 C   0  0  0  0  0  3  0  0  0  0  0  0
  -21.4790   -4.5140   24.9280 C   0  0  0  0  0  0  0  0  0  0  0  0
  -21.8200   -3.9760   23.6750 C   0  0  0  0  0  3  0  0  0  0  0  0
  -21.8880   -4.8130   22.5460 C   0  0  0  0  0  0  0  0  0  0  0  0
  -22.1980   -4.2860   21.3370 F   0  0  0  0  0  0  0  0  0  0  0  0
  -21.4130   -3.7050   26.0120 F   0  0  0  0  0  0  0  0  0  0  0  0
  -22.7440  -13.5900   21.1660 C   0  0  0  0  0  0  0  0  0  0  0  0
  -22.0150  -12.9030   22.0340 N   0  0  0  0  0  0  0  0  0  0  0  0
  -22.3080  -14.6130   20.6360 O   0  0  0  0  0  0  0  0  0  0  0  0
  -22.3830  -12.0780   22.4840 H   0  0  0  0  0  0  0  0  0  0  0  0
  -21.0770  -13.2080   22.2470 H   0  0  0  0  0  0  0  0  0  0  0  0
  -25.3800  -15.2510   20.3530 N   0  0  0  0  0  0  0  0  0  0  0  0
  -24.6110  -15.9030   20.4590 H   0  0  0  0  0  0  0  0  0  0  0  0
  -26.2290  -15.6890   20.0140 H   0  0  0  0  0  0  0  0  0  0  0  0
  -32.4160  -19.5120   19.9110 C   0  0  0  0  0  2  0  0  0  0  0  0
  -33.8080  -20.3530   21.9710 C   0  0  0  0  0  1  0  0  0  0  0  0
  -33.3010  -19.1650   21.1400 C   0  0  0  0  0  2  0  0  0  0  0  0
  1  4  1  0
  2  5  1  0
  2  1  1  0
  3  5  1  0
  3  4  1  0
  4  6  1  0
  5 49  1  0
  6  7  1  0
  8 10  1  0
  8  7  1  0
  9 20  2  0
 10 15  1  0
 11 19  1  0
 11 21  1  0
 12 18  1  0
 12 14  1  0
 13 19  1  0
 14 13  1  0
 15 14  2  0
 16 17  1  0
 16 10  2  0
 17 12  2  0
 18 11  1  0
 19  9  1  0
 21 23  2  0
 22 21  1  0
 24 22  1  0
 25 34  2  0
 25 30  1  0
 26 22  1  0
 26 30  1  0
 27 26  1  0
 28 29  1  0
 28 27  1  0
 29 25  1  0
 30 31  2  0
 31 32  1  0
 33 32  2  0
 34 33  1  0
 35  9  1  0
 35 36  1  0
 35 45  1  0
 36 39  1  0
 37 41  1  0
 37 36  1  0
 38 37  2  0
 41 40  1  0
 43 41  1  0
 43 44  1  0
 43 42  1  0
 45 48  1  1
 45 46  1  0
 47 45  1  0
 49 91  1  0
 49 50  1  0
 50 51  1  0
 52 50  1  0
 53 50  1  0
 53 54  1  0
 55 54  1  0
 56 61  1  0
 57 58  1  0
 57 56  1  0
 59 58  1  0
 59 66  1  0
 59 60  1  0
 61 55  1  0
 61 60  1  0
 62 55  2  0
 63 64  2  0
 64 83  1  0
 65 64  1  0
 65 68  1  0
 66 63  1  0
 66 67  1  0
 67 65  2  0
 68 69  1  0
 69 70  2  0
 71 74  1  0
 71 70  1  0
 72 71  2  0
 73 72  1  0
 73 68  2  0
 74 75  1  0
 75 76  1  0
 76 77  2  0
 78 77  1  0
 78 82  1  0
 79 78  2  0
 80 75  2  0
 80 79  1  0
 81 80  1  0
 83 84  1  0
 84 87  1  0
 84 86  1  0
 85 83  2  0
 88 89  1  0
 88 63  1  0
 90 88  1  0
 91 93  1  0
 93 92  1  0
M  ISO  4   7 101   8 101  54 100  55 100
M  END
>  <TORSDO>  (79) 
F 24

>  <SCORE>  (79) 
-12.700

>  <name>  (79) 
78

>  <ligand_id>  (79) 
78

>  <original_smiles>  (79) 
[H]c1c([H])c([H])c2c(c1[H])C([H])([H])C([H])([H])C([H])([H])C2([H])N([H])C(=O)C1([H])N(C(=O)C([H])(N([H])C(=O)C([H])(N([H])C([H])([H])[H])C([H])([H])[H])C(C([H])([H])[H])(C([H])([H])[H])C([H])([H])[H])C([H])([H])c2c([H])c(OC([H])([H])C([H])([H])C3([H])C([H])([H])C([H])([H])C([H])(C([H])(C([H])([H])C([H])([H])C([H])([H])[H])[N+]([H])([H])C([H])([H])C([H])([H])C(=O)N4C([H])([H])C([H])([H])C([H])([H])C([H])(n5nc(-c6c([H])c([H])c(Oc7c([H])c([H])c(F)c([H])c7F)c([H])c6[H])c(C(=O)N([H])[H])c5N([H])[H])C4([H])[H])C3([H])[H])c([H])c([H])c2C1([H])[H]

>  <smiles>  (79) 
[H]c1c([H])c([H])c2c(c1[H])C([H])([H])C([H])([H])C([H])([H])C2([H])N([H])C(=O)C1([H])N(C(=O)C([H])(N([H])C(=O)C([H])(N([H])C([H])([H])[H])C([H])([H])[H])C(C([H])([H])[H])(C([H])([H])[H])C([H])([H])[H])C([H])([H])c2c([H])c(OC([H])([H])C([H])([H])C3([H])C([H])([H])C([H])([H])C([H])(C([H])(C([H])([H])C([H])([H])C([H])([H])[H])[N+]([H])([H])C([H])([H])C([H])([H])C(=O)N4C([H])([H])C([H])([H])C([H])([H])C([H])(n5nc(-c6c([H])c([H])c(Oc7c([H])c([H])c(F)c([H])c7F)c([H])c6[H])c(C(=O)N([H])[H])c5N([H])[H])C4([H])[H])C3([H])[H])c([H])c([H])c2C1([H])[H]

$$$$
79:0:0
     RDKit          3D

 94102  0  0  1  0  0  0  0  0999 V2000
  -30.2570  -21.7680   20.7740 C   0  0  0  0  0  3  0  0  0  0  0  0
  -30.3530  -20.4580   20.0400 N   0  0  0  0  0  4  0  0  0  0  0  0
  -30.7310  -20.6170   19.1190 H   0  0  0  0  0  0  0  0  0  0  0  0
  -31.0600  -19.9370   20.5340 H   0  0  0  0  0  0  0  0  0  0  0  0
  -27.8460  -20.0990   20.4290 C   0  0  0  0  0  1  0  0  0  0  0  0
  -29.1880  -19.5190   19.9220 C   0  0  0  0  0  3  0  0  0  0  0  0
  -29.4480  -18.1390   20.6220 C   0  0  0  0  0  2  0  0  0  0  0  0
  -30.1370  -16.9880   19.8230 C   0  0  0  0  0  2  0  0  0  0  0  0
  -30.0650  -15.6140   20.5730 C   0  0  0  0  0  2  0  0  0  0  0  0
  -30.6670  -14.3790   19.8370 C   0  0  0  0  0  0  0  0  0  0  0  0
  -30.3360  -12.1380   18.8290 C   0  0  0  0  0  2  0  0  0  0  0  0
  -29.3020  -12.2480   17.6890 C   0  0  0  0  0  2  0  0  0  0  0  0
  -27.8620  -12.1350   18.2310 C   0  0  0  0  0  2  0  0  0  0  0  0
  -27.6140  -13.0470   19.4630 C   0  0  0  0  0  3  0  0  0  0  0  0
  -28.7470  -12.8730   20.4980 C   0  0  0  0  0  2  0  0  0  0  0  0
  -30.0190  -13.1780   19.8230 N   0  0  0  0  0  0  0  0  0  0  0  0
  -31.7240  -14.5450   19.2210 O   0  0  0  0  0  0  0  0  0  0  0  0
  -25.3070  -13.7190   20.3850 C   0  0  0  0  0  0  0  0  0  0  0  0
  -24.2470  -12.9750   20.8300 C   0  0  0  0  0  0  0  0  0  0  0  0
  -24.6550  -11.6100   20.7310 C   0  0  0  0  0  0  0  0  0  0  0  0
  -26.2970  -12.8080   20.0490 N   0  0  0  0  0  0  0  0  0  0  0  0
  -25.9120  -11.5330   20.3110 N   0  0  0  0  0  0  0  0  0  0  0  0
  -23.9030  -10.3690   20.9590 C   0  0  0  0  0  0  0  0  0  0  0  0
  -24.3710   -9.3760   21.8480 C   0  0  0  0  0  3  0  0  0  0  0  0
  -23.6220   -8.2000   22.0640 C   0  0  0  0  0  3  0  0  0  0  0  0
  -22.3910   -8.0080   21.3930 C   0  0  0  0  0  0  0  0  0  0  0  0
  -21.9410   -8.9890   20.4910 C   0  0  0  0  0  3  0  0  0  0  0  0
  -22.6910  -10.1580   20.2730 C   0  0  0  0  0  3  0  0  0  0  0  0
  -21.6090   -6.8860   21.5200 O   0  0  0  0  0  0  0  0  0  0  0  0
  -21.6130   -6.1310   22.6660 C   0  0  0  0  0  0  0  0  0  0  0  0
  -21.2750   -6.6830   23.9220 C   0  0  0  0  0  3  0  0  0  0  0  0
  -21.2260   -5.8560   25.0630 C   0  0  0  0  0  3  0  0  0  0  0  0
  -21.5030   -4.4810   24.9500 C   0  0  0  0  0  0  0  0  0  0  0  0
  -21.8350   -3.9300   23.6990 C   0  0  0  0  0  3  0  0  0  0  0  0
  -21.8860   -4.7530   22.5600 C   0  0  0  0  0  0  0  0  0  0  0  0
  -22.1850   -4.2130   21.3540 F   0  0  0  0  0  0  0  0  0  0  0  0
  -21.4480   -3.6860   26.0430 F   0  0  0  0  0  0  0  0  0  0  0  0
  -22.8970  -13.4930   21.2340 C   0  0  0  0  0  0  0  0  0  0  0  0
  -22.2240  -12.8030   22.1480 N   0  0  0  0  0  0  0  0  0  0  0  0
  -22.4510  -14.5440   20.7740 O   0  0  0  0  0  0  0  0  0  0  0  0
  -22.5980  -11.9520   22.5410 H   0  0  0  0  0  0  0  0  0  0  0  0
  -21.3200  -13.1300   22.4600 H   0  0  0  0  0  0  0  0  0  0  0  0
  -25.5060  -15.0870   20.2220 N   0  0  0  0  0  0  0  0  0  0  0  0
  -24.7770  -15.7670   20.4100 H   0  0  0  0  0  0  0  0  0  0  0  0
  -26.3470  -15.5030   19.8420 H   0  0  0  0  0  0  0  0  0  0  0  0
  -31.6100  -22.0290   21.4740 C   0  0  0  0  0  2  0  0  0  0  0  0
  -33.0620  -20.8190   23.3150 C   0  0  0  0  0  2  0  0  0  0  0  0
  -31.7020  -20.1610   23.3210 C   0  0  0  0  0  2  0  0  0  0  0  0
  -32.2400  -20.7710   22.0480 C   0  0  0  0  0  3  0  0  0  0  0  0
  -29.8220  -22.9680   19.8590 C   0  0  0  0  0  2  0  0  0  0  0  0
  -31.0230  -25.2060   20.2950 C   0  0  0  0  0  1  0  0  0  0  0  0
  -29.7340  -24.3920   20.5270 C   0  0  0  0  0  3  0  0  0  0  0  0
  -28.5210  -25.2300   20.0350 C   0  0  0  0  0  2  0  0  0  0  0  0
  -28.5500  -26.5970   20.5000 O   0  0  0  0  0  0  0  0  0  0  0  0
  -24.6200  -31.8320   23.3450 C   0  0  0  0  0  0  0  0  0  0  0  0
  -27.3800  -27.3380   20.4150 C   0  0  0  0  0  0  0  0  0  0  0  0
  -23.4800  -30.4120   21.6750 C   0  0  0  0  0  3  0  0  0  0  0  0
  -24.9880  -28.8640   20.3200 C   0  0  0  0  0  0  0  0  0  0  0  0
  -26.0150  -30.7660   21.5720 C   0  0  0  0  0  2  0  0  0  0  0  0
  -26.1250  -29.3870   20.9470 C   0  0  0  0  0  0  0  0  0  0  0  0
  -27.3240  -28.6330   20.9890 C   0  0  0  0  0  3  0  0  0  0  0  0
  -26.2200  -26.8400   19.7750 C   0  0  0  0  0  3  0  0  0  0  0  0
  -25.0330  -27.5910   19.7280 C   0  0  0  0  0  3  0  0  0  0  0  0
  -23.7440  -29.7220   20.3110 C   0  0  0  0  0  2  0  0  0  0  0  0
  -24.7210  -31.0190   22.2550 N   0  0  0  0  0  0  0  0  0  0  0  0
  -23.5190  -32.1080   23.8410 O   0  0  0  0  0  0  0  0  0  0  0  0
  -22.7950  -29.3970   22.6190 C   0  0  0  0  0  0  0  0  0  0  0  0
  -21.4760  -29.2160   22.4470 N   0  0  0  0  0  0  0  0  0  0  0  0
  -23.4480  -28.7790   23.4640 O   0  0  0  0  0  0  0  0  0  0  0  0
  -21.0100  -29.7700   21.7410 H   0  0  0  0  0  0  0  0  0  0  0  0
  -18.0790  -28.0470   22.8480 C   0  0  0  0  0  0  0  0  0  0  0  0
  -20.6280  -28.2860   23.1940 C   0  0  0  0  0  3  0  0  0  0  0  0
  -20.7370  -26.8530   22.6220 C   0  0  0  0  0  2  0  0  0  0  0  0
  -19.6620  -26.5360   21.5780 C   0  0  0  0  0  2  0  0  0  0  0  0
  -18.2640  -26.6940   22.1810 C   0  0  0  0  0  2  0  0  0  0  0  0
  -19.1900  -28.8020   23.3090 C   0  0  0  0  0  0  0  0  0  0  0  0
  -18.9640  -30.0680   23.8910 C   0  0  0  0  0  3  0  0  0  0  0  0
  -17.6590  -30.5790   24.0180 C   0  0  0  0  0  3  0  0  0  0  0  0
  -16.5620  -29.8220   23.5740 C   0  0  0  0  0  3  0  0  0  0  0  0
  -16.7720  -28.5580   22.9940 C   0  0  0  0  0  3  0  0  0  0  0  0
  -25.8810  -32.4730   24.0090 C   0  0  0  0  0  3  0  0  0  0  0  0
  -26.3150  -31.7530   25.3450 C   0  0  1  0  0  0  0  0  0  0  0  0
  -25.1590  -31.5680   26.3560 C   0  0  0  0  0  1  0  0  0  0  0  0
  -26.9070  -30.3580   25.0410 C   0  0  0  0  0  1  0  0  0  0  0  0
  -27.4310  -32.5680   26.0400 C   0  0  0  0  0  1  0  0  0  0  0  0
  -25.5790  -33.8890   24.2570 N   0  0  0  0  0  0  0  0  0  0  0  0
  -25.9540  -34.8970   23.4590 C   0  0  0  0  0  0  0  0  0  0  0  0
  -26.6590  -34.7330   22.4590 O   0  0  0  0  0  0  0  0  0  0  0  0
  -24.9620  -34.0930   25.0300 H   0  0  0  0  0  0  0  0  0  0  0  0
  -24.2590  -36.6840   22.9560 C   0  0  0  0  0  1  0  0  0  0  0  0
  -25.4680  -36.3110   23.8280 C   0  0  0  0  0  3  0  0  0  0  0  0
  -27.5830  -37.2190   24.6810 C   0  0  0  0  0  1  0  0  0  0  0  0
  -26.5160  -37.3460   23.6930 N   0  0  0  0  0  0  0  0  0  0  0  0
  -26.1160  -38.2770   23.7760 H   0  0  0  0  0  0  0  0  0  0  0  0
  1 50  1  0
  1 46  1  0
  2  4  1  0
  2  1  1  0
  3  2  1  0
  6  2  1  0
  6  5  1  0
  6  7  1  0
  8  9  1  0
  8  7  1  0
 10  9  1  0
 11 16  1  0
 12 13  1  0
 12 11  1  0
 14 13  1  0
 14 21  1  0
 14 15  1  0
 16 10  1  0
 16 15  1  0
 17 10  2  0
 18 19  2  0
 19 38  1  0
 20 19  1  0
 20 23  1  0
 21 22  1  0
 21 18  1  0
 22 20  2  0
 23 24  1  0
 24 25  2  0
 26 29  1  0
 26 25  1  0
 27 26  2  0
 28 27  1  0
 28 23  2  0
 29 30  1  0
 30 31  1  0
 31 32  2  0
 33 32  1  0
 33 37  1  0
 34 33  2  0
 35 30  2  0
 35 34  1  0
 36 35  1  0
 38 39  1  0
 39 42  1  0
 39 41  1  0
 40 38  2  0
 43 18  1  0
 43 44  1  0
 45 43  1  0
 46 49  1  0
 47 48  1  0
 49 47  1  0
 49 48  1  0
 50 52  1  0
 52 51  1  0
 53 54  1  0
 53 52  1  0
 55 66  2  0
 56 54  1  0
 56 61  1  0
 57 65  1  0
 57 67  1  0
 58 60  1  0
 59 65  1  0
 60 61  2  0
 60 59  1  0
 62 56  2  0
 63 62  1  0
 63 58  2  0
 64 58  1  0
 64 57  1  0
 65 55  1  0
 67 69  2  0
 68 67  1  0
 70 68  1  0
 71 80  2  0
 71 76  1  0
 72 68  1  0
 72 76  1  0
 73 72  1  0
 74 75  1  0
 74 73  1  0
 75 71  1  0
 76 77  2  0
 77 78  1  0
 79 78  2  0
 80 79  1  0
 81 55  1  0
 81 86  1  0
 81 82  1  0
 82 85  1  1
 82 83  1  0
 84 82  1  0
 86 89  1  0
 87 91  1  0
 87 86  1  0
 88 87  2  0
 91 90  1  0
 93 94  1  0
 93 91  1  0
 93 92  1  0
M  ISO  4   9 100  10 100  53 101  54 101
M  END
>  <TORSDO>  (80) 
F 26

>  <SCORE>  (80) 
-11.685

>  <name>  (80) 
79

>  <ligand_id>  (80) 
79

>  <original_smiles>  (80) 
[H]c1c([H])c([H])c2c(c1[H])C([H])([H])C([H])([H])C([H])([H])C2([H])N([H])C(=O)C1([H])N(C(=O)C([H])(N([H])C(=O)C([H])(N([H])C([H])([H])[H])C([H])([H])[H])C(C([H])([H])[H])(C([H])([H])[H])C([H])([H])[H])C([H])([H])c2c([H])c(OC([H])([H])C([H])(C([H])([H])[H])C([H])([H])C([H])(C([H])([H])C3([H])C([H])([H])C3([H])[H])[N+]([H])([H])C([H])(C([H])([H])[H])C([H])([H])C([H])([H])C([H])([H])C(=O)N3C([H])([H])C([H])([H])C([H])([H])C([H])(n4nc(-c5c([H])c([H])c(Oc6c([H])c([H])c(F)c([H])c6F)c([H])c5[H])c(C(=O)N([H])[H])c4N([H])[H])C3([H])[H])c([H])c([H])c2C1([H])[H]

>  <smiles>  (80) 
[H]c1c([H])c([H])c2c(c1[H])C([H])([H])C([H])([H])C([H])([H])C2([H])N([H])C(=O)C1([H])N(C(=O)C([H])(N([H])C(=O)C([H])(N([H])C([H])([H])[H])C([H])([H])[H])C(C([H])([H])[H])(C([H])([H])[H])C([H])([H])[H])C([H])([H])c2c([H])c(OC([H])([H])C([H])(C([H])([H])[H])C([H])([H])C([H])(C([H])([H])C3([H])C([H])([H])C3([H])[H])[N+]([H])([H])C([H])(C([H])([H])[H])C([H])([H])C([H])([H])C([H])([H])C(=O)N3C([H])([H])C([H])([H])C([H])([H])C([H])(n4nc(-c5c([H])c([H])c(Oc6c([H])c([H])c(F)c([H])c6F)c([H])c5[H])c(C(=O)N([H])[H])c4N([H])[H])C3([H])[H])c([H])c([H])c2C1([H])[H]

$$$$
80:0:0
     RDKit          3D

 94102  0  0  1  0  0  0  0  0999 V2000
  -31.6520  -21.7310   21.6510 C   0  0  0  0  0  1  0  0  0  0  0  0
  -30.2570  -21.2170   21.2180 C   0  0  0  0  0  3  0  0  0  0  0  0
  -29.5640  -22.2570   20.4040 N   0  0  0  0  0  4  0  0  0  0  0  0
  -30.1480  -22.4660   19.6100 H   0  0  0  0  0  0  0  0  0  0  0  0
  -28.7080  -21.8640   20.0440 H   0  0  0  0  0  0  0  0  0  0  0  0
  -29.2230  -23.5370   21.0780 C   0  0  0  0  0  2  0  0  0  0  0  0
  -28.8860  -24.6510   20.0630 C   0  0  0  0  0  2  0  0  0  0  0  0
  -28.7010  -26.0300   20.7210 C   0  0  0  0  0  2  0  0  0  0  0  0
  -28.5190  -27.0340   19.7220 O   0  0  0  0  0  0  0  0  0  0  0  0
  -24.6460  -31.8780   23.2080 C   0  0  0  0  0  0  0  0  0  0  0  0
  -27.3380  -27.7230   19.8170 C   0  0  0  0  0  0  0  0  0  0  0  0
  -23.4440  -30.5590   21.4910 C   0  0  0  0  0  3  0  0  0  0  0  0
  -24.9100  -29.1450   19.9560 C   0  0  0  0  0  0  0  0  0  0  0  0
  -25.9550  -30.9900   21.2840 C   0  0  0  0  0  2  0  0  0  0  0  0
  -26.0620  -29.6650   20.5610 C   0  0  0  0  0  0  0  0  0  0  0  0
  -27.2810  -28.9580   20.4940 C   0  0  0  0  0  3  0  0  0  0  0  0
  -26.1770  -27.2060   19.2100 C   0  0  0  0  0  3  0  0  0  0  0  0
  -24.9610  -27.9120   19.2790 C   0  0  0  0  0  3  0  0  0  0  0  0
  -23.6480  -29.9710   20.0690 C   0  0  0  0  0  2  0  0  0  0  0  0
  -24.7000  -31.1530   22.0540 N   0  0  0  0  0  0  0  0  0  0  0  0
  -23.5680  -32.0910   23.7790 O   0  0  0  0  0  0  0  0  0  0  0  0
  -22.8290  -29.4640   22.3930 C   0  0  0  0  0  0  0  0  0  0  0  0
  -21.5060  -29.2710   22.2760 N   0  0  0  0  0  0  0  0  0  0  0  0
  -23.5380  -28.7960   23.1500 O   0  0  0  0  0  0  0  0  0  0  0  0
  -20.9950  -29.8650   21.6370 H   0  0  0  0  0  0  0  0  0  0  0  0
  -18.1540  -28.0170   22.7710 C   0  0  0  0  0  0  0  0  0  0  0  0
  -20.7160  -28.2710   22.9940 C   0  0  0  0  0  3  0  0  0  0  0  0
  -20.8110  -26.8900   22.3060 C   0  0  0  0  0  2  0  0  0  0  0  0
  -19.6830  -26.6380   21.3000 C   0  0  0  0  0  2  0  0  0  0  0  0
  -18.3190  -26.7240   21.9900 C   0  0  0  0  0  2  0  0  0  0  0  0
  -19.2800  -28.7510   23.2290 C   0  0  0  0  0  0  0  0  0  0  0  0
  -19.0730  -29.9650   23.9190 C   0  0  0  0  0  3  0  0  0  0  0  0
  -17.7700  -30.4450   24.1560 C   0  0  0  0  0  3  0  0  0  0  0  0
  -16.6590  -29.7060   23.7150 C   0  0  0  0  0  3  0  0  0  0  0  0
  -16.8520  -28.4930   23.0290 C   0  0  0  0  0  3  0  0  0  0  0  0
  -25.9290  -32.4910   23.8490 C   0  0  0  0  0  3  0  0  0  0  0  0
  -25.6120  -33.8730   24.2340 N   0  0  0  0  0  0  0  0  0  0  0  0
  -25.9540  -34.9560   23.5230 C   0  0  0  0  0  0  0  0  0  0  0  0
  -26.6390  -34.8970   22.4980 O   0  0  0  0  0  0  0  0  0  0  0  0
  -25.0050  -33.9940   25.0310 H   0  0  0  0  0  0  0  0  0  0  0  0
  -24.2290  -36.7590   23.2100 C   0  0  0  0  0  1  0  0  0  0  0  0
  -25.4540  -36.3230   24.0290 C   0  0  0  0  0  3  0  0  0  0  0  0
  -27.5680  -37.1740   24.9420 C   0  0  0  0  0  1  0  0  0  0  0  0
  -26.4880  -37.3810   23.9830 N   0  0  0  0  0  0  0  0  0  0  0  0
  -26.0770  -38.2930   24.1580 H   0  0  0  0  0  0  0  0  0  0  0  0
  -26.4570  -31.6720   25.0910 C   0  0  1  0  0  0  0  0  0  0  0  0
  -25.3690  -31.3780   26.1500 C   0  0  0  0  0  1  0  0  0  0  0  0
  -27.0540  -30.3200   24.6370 C   0  0  0  0  0  1  0  0  0  0  0  0
  -27.6010  -32.4500   25.7830 C   0  0  0  0  0  1  0  0  0  0  0  0
  -30.3930  -19.8980   20.3910 C   0  0  0  0  0  2  0  0  0  0  0  0
  -31.7530  -17.3790   21.2480 C   0  0  0  0  0  2  0  0  0  0  0  0
  -30.7630  -17.9710   22.2480 C   0  0  0  0  0  3  0  0  0  0  0  0
  -30.5860  -17.2670   20.2410 C   0  0  1  0  0  0  0  0  0  0  0  0
  -29.9860  -18.5140   21.0150 C   0  0  2  0  0  0  0  0  0  0  0  0
  -31.2610  -18.8370   23.3980 C   0  0  0  0  0  1  0  0  0  0  0  0
  -30.9040  -17.5410   18.7500 C   0  0  0  0  0  1  0  0  0  0  0  0
  -28.4550  -18.5200   21.1510 C   0  0  0  0  0  1  0  0  0  0  0  0
  -29.8050  -15.9020   20.3010 C   0  0  0  0  0  2  0  0  0  0  0  0
  -30.5580  -14.6490   19.7740 C   0  0  0  0  0  0  0  0  0  0  0  0
  -30.3190  -12.3870   18.8250 C   0  0  0  0  0  2  0  0  0  0  0  0
  -29.3080  -12.4450   17.6630 C   0  0  0  0  0  2  0  0  0  0  0  0
  -27.8700  -12.2570   18.1860 C   0  0  0  0  0  2  0  0  0  0  0  0
  -27.5460  -13.1840   19.3890 C   0  0  0  0  0  3  0  0  0  0  0  0
  -28.6700  -13.1350   20.4480 C   0  0  0  0  0  2  0  0  0  0  0  0
  -29.9450  -13.4360   19.7840 N   0  0  0  0  0  0  0  0  0  0  0  0
  -31.6580  -14.8040   19.2360 O   0  0  0  0  0  0  0  0  0  0  0  0
  -25.1870  -13.7180   20.2660 C   0  0  0  0  0  0  0  0  0  0  0  0
  -24.1770  -12.9150   20.7230 C   0  0  0  0  0  0  0  0  0  0  0  0
  -24.6830  -11.5800   20.6750 C   0  0  0  0  0  0  0  0  0  0  0  0
  -26.2430  -12.8710   19.9710 N   0  0  0  0  0  0  0  0  0  0  0  0
  -25.9480  -11.5810   20.2730 N   0  0  0  0  0  0  0  0  0  0  0  0
  -24.0180  -10.2950   20.9340 C   0  0  0  0  0  0  0  0  0  0  0  0
  -24.4750   -9.4180   21.9420 C   0  0  0  0  0  3  0  0  0  0  0  0
  -23.8070   -8.1970   22.1830 C   0  0  0  0  0  3  0  0  0  0  0  0
  -22.6720   -7.8450   21.4150 C   0  0  0  0  0  0  0  0  0  0  0  0
  -22.2370   -8.7120   20.3980 C   0  0  0  0  0  3  0  0  0  0  0  0
  -22.9050   -9.9250   20.1560 C   0  0  0  0  0  3  0  0  0  0  0  0
  -21.9770   -6.6690   21.5620 O   0  0  0  0  0  0  0  0  0  0  0  0
  -21.8420   -6.0600   22.7840 C   0  0  0  0  0  0  0  0  0  0  0  0
  -21.2480   -6.7170   23.8830 C   0  0  0  0  0  3  0  0  0  0  0  0
  -21.0670   -6.0300   25.1010 C   0  0  0  0  0  3  0  0  0  0  0  0
  -21.4690   -4.6850   25.2170 C   0  0  0  0  0  0  0  0  0  0  0  0
  -22.0560   -4.0280   24.1220 C   0  0  0  0  0  3  0  0  0  0  0  0
  -22.2390   -4.7130   22.9080 C   0  0  0  0  0  0  0  0  0  0  0  0
  -22.7850   -4.0680   21.8490 F   0  0  0  0  0  0  0  0  0  0  0  0
  -21.2890   -4.0230   26.3840 F   0  0  0  0  0  0  0  0  0  0  0  0
  -22.7870  -13.3470   21.0900 C   0  0  0  0  0  0  0  0  0  0  0  0
  -22.1490  -12.6360   22.0140 N   0  0  0  0  0  0  0  0  0  0  0  0
  -22.2750  -14.3490   20.5930 O   0  0  0  0  0  0  0  0  0  0  0  0
  -22.5760  -11.8250   22.4370 H   0  0  0  0  0  0  0  0  0  0  0  0
  -21.2200  -12.9080   22.3040 H   0  0  0  0  0  0  0  0  0  0  0  0
  -25.2900  -15.0910   20.0610 N   0  0  0  0  0  0  0  0  0  0  0  0
  -24.5120  -15.7220   20.2190 H   0  0  0  0  0  0  0  0  0  0  0  0
  -26.1040  -15.5550   19.6770 H   0  0  0  0  0  0  0  0  0  0  0  0
  2  1  1  0
  3  6  1  0
  3  2  1  0
  4  3  1  0
  5  3  1  0
  7  8  1  0
  7  6  1  0
  9 11  1  0
  9  8  1  0
 10 21  2  0
 11 16  1  0
 12 20  1  0
 12 22  1  0
 13 19  1  0
 13 15  1  0
 14 20  1  0
 15 14  1  0
 16 15  2  0
 17 18  1  0
 17 11  2  0
 18 13  2  0
 19 12  1  0
 20 10  1  0
 22 24  2  0
 23 22  1  0
 25 23  1  0
 26 35  2  0
 26 31  1  0
 27 23  1  0
 27 31  1  0
 28 27  1  0
 29 30  1  0
 29 28  1  0
 30 26  1  0
 31 32  2  0
 32 33  1  0
 34 33  2  0
 35 34  1  0
 36 10  1  0
 36 37  1  0
 36 46  1  0
 37 40  1  0
 38 42  1  0
 38 37  1  0
 39 38  2  0
 42 41  1  0
 44 42  1  0
 44 45  1  0
 44 43  1  0
 46 49  1  1
 46 47  1  0
 48 46  1  0
 50 54  1  0
 50  2  1  0
 51 52  1  0
 52 55  1  0
 53 56  1  6
 53 58  1  0
 53 54  1  0
 53 51  1  0
 54 57  1  1
 54 52  1  0
 59 65  1  0
 59 58  1  0
 60 65  1  0
 61 62  1  0
 61 60  1  0
 63 62  1  0
 63 70  1  0
 63 64  1  0
 65 64  1  0
 66 59  2  0
 67 68  2  0
 68 87  1  0
 69 68  1  0
 69 72  1  0
 70 67  1  0
 70 71  1  0
 71 69  2  0
 72 73  1  0
 73 74  2  0
 75 78  1  0
 75 74  1  0
 76 75  2  0
 77 76  1  0
 77 72  2  0
 78 79  1  0
 79 84  2  0
 79 80  1  0
 80 81  2  0
 81 82  1  0
 82 86  1  0
 83 82  2  0
 84 83  1  0
 85 84  1  0
 87 88  1  0
 88 91  1  0
 88 90  1  0
 89 87  2  0
 92 93  1  0
 92 67  1  0
 94 92  1  0
M  ISO  4   8 101   9 101  58 100  59 100
M  END
>  <TORSDO>  (81) 
F 23

>  <SCORE>  (81) 
-11.105

>  <name>  (81) 
80

>  <ligand_id>  (81) 
80

>  <original_smiles>  (81) 
[H]c1c([H])c([H])c2c(c1[H])C([H])([H])C([H])([H])C([H])([H])C2([H])N([H])C(=O)C1([H])N(C(=O)C([H])(N([H])C(=O)C([H])(N([H])C([H])([H])[H])C([H])([H])[H])C(C([H])([H])[H])(C([H])([H])[H])C([H])([H])[H])C([H])([H])c2c([H])c(OC([H])([H])C([H])([H])C([H])([H])[N+]([H])([H])C([H])(C([H])([H])[H])C([H])([H])C3(C([H])([H])[H])C([H])(C([H])([H])[H])C([H])([H])C3(C([H])([H])[H])C([H])([H])C(=O)N3C([H])([H])C([H])([H])C([H])([H])C([H])(n4nc(-c5c([H])c([H])c(Oc6c([H])c([H])c(F)c([H])c6F)c([H])c5[H])c(C(=O)N([H])[H])c4N([H])[H])C3([H])[H])c([H])c([H])c2C1([H])[H]

>  <smiles>  (81) 
[H]c1c([H])c([H])c2c(c1[H])C([H])([H])C([H])([H])C([H])([H])C2([H])N([H])C(=O)C1([H])N(C(=O)C([H])(N([H])C(=O)C([H])(N([H])C([H])([H])[H])C([H])([H])[H])C(C([H])([H])[H])(C([H])([H])[H])C([H])([H])[H])C([H])([H])c2c([H])c(OC([H])([H])C([H])([H])C([H])([H])[N+]([H])([H])C([H])(C([H])([H])[H])C([H])([H])C3(C([H])([H])[H])C([H])(C([H])([H])[H])C([H])([H])C3(C([H])([H])[H])C([H])([H])C(=O)N3C([H])([H])C([H])([H])C([H])([H])C([H])(n4nc(-c5c([H])c([H])c(Oc6c([H])c([H])c(F)c([H])c6F)c([H])c5[H])c(C(=O)N([H])[H])c4N([H])[H])C3([H])[H])c([H])c([H])c2C1([H])[H]

$$$$
81:0:0
     RDKit          3D

 93101  0  0  1  0  0  0  0  0999 V2000
  -30.5300  -20.8990   21.4280 C   0  0  0  0  0  3  0  0  0  0  0  0
  -30.1430  -20.3580   23.9960 C   0  0  0  0  0  2  0  0  0  0  0  0
  -30.8850  -20.8100   25.2560 C   0  0  0  0  0  2  0  0  0  0  0  0
  -31.8510  -21.8820   23.4360 C   0  0  0  0  0  2  0  0  0  0  0  0
  -31.1200  -20.6690   22.8580 C   0  0  0  0  0  3  0  0  0  0  0  0
  -32.0140  -21.5590   24.8110 O   0  0  0  0  0  0  0  0  0  0  0  0
  -30.4590  -19.6520   20.5900 N   0  0  0  0  0  4  0  0  0  0  0  0
  -29.8670  -19.8340   19.7960 H   0  0  0  0  0  0  0  0  0  0  0  0
  -31.3880  -19.5190   20.2200 H   0  0  0  0  0  0  0  0  0  0  0  0
  -30.0620  -18.3470   21.2090 C   0  0  0  0  0  2  0  0  0  0  0  0
  -30.3970  -17.1180   20.3140 C   0  0  0  0  0  2  0  0  0  0  0  0
  -30.0480  -15.7240   20.9370 C   0  0  0  0  0  2  0  0  0  0  0  0
  -30.6530  -14.5100   20.1760 C   0  0  0  0  0  0  0  0  0  0  0  0
  -30.2880  -12.3790   18.9740 C   0  0  0  0  0  2  0  0  0  0  0  0
  -29.2930  -12.6240   17.8190 C   0  0  0  0  0  2  0  0  0  0  0  0
  -27.8390  -12.4770   18.3100 C   0  0  0  0  0  2  0  0  0  0  0  0
  -27.5650  -13.2810   19.6120 C   0  0  0  0  0  3  0  0  0  0  0  0
  -28.6720  -13.0240   20.6610 C   0  0  0  0  0  2  0  0  0  0  0  0
  -29.9680  -13.3390   20.0440 N   0  0  0  0  0  0  0  0  0  0  0  0
  -31.7430  -14.6790   19.6230 O   0  0  0  0  0  0  0  0  0  0  0  0
  -25.1960  -13.8790   20.4220 C   0  0  0  0  0  0  0  0  0  0  0  0
  -24.1440  -13.1020   20.8280 C   0  0  0  0  0  0  0  0  0  0  0  0
  -24.6050  -11.7510   20.7690 C   0  0  0  0  0  0  0  0  0  0  0  0
  -26.2330  -13.0000   20.1430 N   0  0  0  0  0  0  0  0  0  0  0  0
  -25.8820  -11.7160   20.4070 N   0  0  0  0  0  0  0  0  0  0  0  0
  -23.8880  -10.4870   20.9780 C   0  0  0  0  0  0  0  0  0  0  0  0
  -24.3530   -9.5170   21.8940 C   0  0  0  0  0  3  0  0  0  0  0  0
  -23.6380   -8.3180   22.0920 C   0  0  0  0  0  3  0  0  0  0  0  0
  -22.4410   -8.0780   21.3750 C   0  0  0  0  0  0  0  0  0  0  0  0
  -21.9940   -9.0360   20.4480 C   0  0  0  0  0  3  0  0  0  0  0  0
  -22.7110  -10.2280   20.2470 C   0  0  0  0  0  3  0  0  0  0  0  0
  -21.6930   -6.9310   21.4840 O   0  0  0  0  0  0  0  0  0  0  0  0
  -21.6790   -6.1870   22.6380 C   0  0  0  0  0  0  0  0  0  0  0  0
  -21.2850   -6.7390   23.8750 C   0  0  0  0  0  3  0  0  0  0  0  0
  -21.2200   -5.9210   25.0220 C   0  0  0  0  0  3  0  0  0  0  0  0
  -21.5370   -4.5530   24.9300 C   0  0  0  0  0  0  0  0  0  0  0  0
  -21.9230   -4.0000   23.6960 C   0  0  0  0  0  3  0  0  0  0  0  0
  -21.9910   -4.8160   22.5530 C   0  0  0  0  0  0  0  0  0  0  0  0
  -22.3430   -4.2730   21.3630 F   0  0  0  0  0  0  0  0  0  0  0  0
  -21.4660   -3.7650   26.0280 F   0  0  0  0  0  0  0  0  0  0  0  0
  -22.7580  -13.5760   21.1590 C   0  0  0  0  0  0  0  0  0  0  0  0
  -22.0670  -12.8710   22.0490 N   0  0  0  0  0  0  0  0  0  0  0  0
  -22.3000  -14.6050   20.6660 O   0  0  0  0  0  0  0  0  0  0  0  0
  -22.4520  -12.0410   22.4730 H   0  0  0  0  0  0  0  0  0  0  0  0
  -21.1380  -13.1690   22.3100 H   0  0  0  0  0  0  0  0  0  0  0  0
  -25.3530  -15.2510   20.2470 N   0  0  0  0  0  0  0  0  0  0  0  0
  -24.5890  -15.9030   20.3870 H   0  0  0  0  0  0  0  0  0  0  0  0
  -26.1900  -15.6930   19.8910 H   0  0  0  0  0  0  0  0  0  0  0  0
  -29.2320  -21.7740   21.4030 C   0  0  0  0  0  2  0  0  0  0  0  0
  -29.0810  -22.8170   20.2500 C   0  0  0  0  0  2  0  0  0  0  0  0
  -29.1220  -24.3240   20.6740 C   0  0  0  0  0  2  0  0  0  0  0  0
  -28.3730  -25.2660   19.6920 C   0  0  0  0  0  2  0  0  0  0  0  0
  -28.4130  -26.6720   20.0480 O   0  0  0  0  0  0  0  0  0  0  0  0
  -24.5880  -31.8250   23.1690 C   0  0  0  0  0  0  0  0  0  0  0  0
  -27.2450  -27.4250   20.0010 C   0  0  0  0  0  0  0  0  0  0  0  0
  -23.3920  -30.4610   21.4920 C   0  0  0  0  0  3  0  0  0  0  0  0
  -24.8530  -28.9640   20.0320 C   0  0  0  0  0  0  0  0  0  0  0  0
  -25.9230  -30.8150   21.3190 C   0  0  0  0  0  2  0  0  0  0  0  0
  -26.0090  -29.4580   20.6460 C   0  0  0  0  0  0  0  0  0  0  0  0
  -27.2040  -28.6950   20.6330 C   0  0  0  0  0  3  0  0  0  0  0  0
  -26.0710  -26.9760   19.3460 C   0  0  0  0  0  3  0  0  0  0  0  0
  -24.8810  -27.7230   19.3770 C   0  0  0  0  0  3  0  0  0  0  0  0
  -23.6090  -29.8210   20.0950 C   0  0  0  0  0  2  0  0  0  0  0  0
  -24.6520  -31.0480   22.0510 N   0  0  0  0  0  0  0  0  0  0  0  0
  -23.5030  -32.0820   23.7080 O   0  0  0  0  0  0  0  0  0  0  0  0
  -22.7390  -29.4130   22.4240 C   0  0  0  0  0  0  0  0  0  0  0  0
  -21.4180  -29.2210   22.2790 N   0  0  0  0  0  0  0  0  0  0  0  0
  -23.4190  -28.7780   23.2350 O   0  0  0  0  0  0  0  0  0  0  0  0
  -20.9290  -29.7890   21.6000 H   0  0  0  0  0  0  0  0  0  0  0  0
  -18.0510  -27.9810   22.7120 C   0  0  0  0  0  0  0  0  0  0  0  0
  -20.6010  -28.2630   23.0240 C   0  0  0  0  0  3  0  0  0  0  0  0
  -20.7280  -26.8430   22.4270 C   0  0  0  0  0  2  0  0  0  0  0  0
  -19.6430  -26.5240   21.3930 C   0  0  0  0  0  2  0  0  0  0  0  0
  -18.2510  -26.6430   22.0200 C   0  0  0  0  0  2  0  0  0  0  0  0
  -19.1560  -28.7480   23.1700 C   0  0  0  0  0  0  0  0  0  0  0  0
  -18.9140  -30.0000   23.7770 C   0  0  0  0  0  3  0  0  0  0  0  0
  -17.6020  -30.4850   23.9310 C   0  0  0  0  0  3  0  0  0  0  0  0
  -16.5120  -29.7140   23.4900 C   0  0  0  0  0  3  0  0  0  0  0  0
  -16.7370  -28.4640   22.8860 C   0  0  0  0  0  3  0  0  0  0  0  0
  -25.8690  -32.4460   23.8070 C   0  0  0  0  0  3  0  0  0  0  0  0
  -26.3750  -31.6570   25.0770 C   0  0  1  0  0  0  0  0  0  0  0  0
  -25.2730  -31.4080   26.1340 C   0  0  0  0  0  1  0  0  0  0  0  0
  -26.9580  -30.2840   24.6700 C   0  0  0  0  0  1  0  0  0  0  0  0
  -27.5230  -32.4400   25.7570 C   0  0  0  0  0  1  0  0  0  0  0  0
  -25.5600  -33.8400   24.1510 N   0  0  0  0  0  0  0  0  0  0  0  0
  -25.9000  -34.9010   23.4070 C   0  0  0  0  0  0  0  0  0  0  0  0
  -26.5790  -34.8080   22.3810 O   0  0  0  0  0  0  0  0  0  0  0  0
  -24.9570  -33.9860   24.9480 H   0  0  0  0  0  0  0  0  0  0  0  0
  -24.1780  -36.7010   23.0530 C   0  0  0  0  0  1  0  0  0  0  0  0
  -25.4090  -36.2850   23.8740 C   0  0  0  0  0  3  0  0  0  0  0  0
  -27.5370  -37.1550   24.7390 C   0  0  0  0  0  1  0  0  0  0  0  0
  -26.4460  -37.3370   23.7840 N   0  0  0  0  0  0  0  0  0  0  0  0
  -26.0410  -38.2570   23.9360 H   0  0  0  0  0  0  0  0  0  0  0  0
  1 49  1  0
  2  3  1  0
  4  6  1  0
  5  1  1  0
  5  4  1  0
  5  2  1  0
  6  3  1  0
  7 10  1  0
  7  1  1  0
  8  7  1  0
  9  7  1  0
 11 12  1  0
 11 10  1  0
 13 12  1  0
 14 19  1  0
 15 16  1  0
 15 14  1  0
 17 16  1  0
 17 24  1  0
 17 18  1  0
 19 13  1  0
 19 18  1  0
 20 13  2  0
 21 22  2  0
 22 41  1  0
 23 22  1  0
 23 26  1  0
 24 25  1  0
 24 21  1  0
 25 23  2  0
 26 27  1  0
 27 28  2  0
 29 32  1  0
 29 28  1  0
 30 29  2  0
 31 30  1  0
 31 26  2  0
 32 33  1  0
 33 34  1  0
 34 35  2  0
 36 35  1  0
 36 40  1  0
 37 36  2  0
 38 33  2  0
 38 37  1  0
 39 38  1  0
 41 42  1  0
 42 45  1  0
 42 44  1  0
 43 41  2  0
 46 47  1  0
 46 21  1  0
 48 46  1  0
 50 51  1  0
 50 49  1  0
 52 53  1  0
 52 51  1  0
 54 65  2  0
 55 53  1  0
 55 60  1  0
 56 64  1  0
 56 66  1  0
 57 63  1  0
 57 59  1  0
 58 64  1  0
 59 58  1  0
 60 59  2  0
 61 62  1  0
 61 55  2  0
 62 57  2  0
 63 56  1  0
 64 54  1  0
 66 68  2  0
 67 66  1  0
 69 67  1  0
 70 79  2  0
 70 75  1  0
 71 67  1  0
 71 75  1  0
 72 71  1  0
 73 74  1  0
 73 72  1  0
 74 70  1  0
 75 76  2  0
 76 77  1  0
 78 77  2  0
 79 78  1  0
 80 54  1  0
 80 85  1  0
 80 81  1  0
 81 84  1  1
 81 82  1  0
 83 81  1  0
 85 88  1  0
 86 90  1  0
 86 85  1  0
 87 86  2  0
 90 89  1  0
 92 90  1  0
 92 93  1  0
 92 91  1  0
M  ISO  4  12 100  13 100  52 101  53 101
M  END
>  <TORSDO>  (82) 
F 25

>  <SCORE>  (82) 
-10.794

>  <name>  (82) 
81

>  <ligand_id>  (82) 
81

>  <original_smiles>  (82) 
[H]c1c([H])c([H])c2c(c1[H])C([H])([H])C([H])([H])C([H])([H])C2([H])N([H])C(=O)C1([H])N(C(=O)C([H])(N([H])C(=O)C([H])(N([H])C([H])([H])[H])C([H])([H])[H])C(C([H])([H])[H])(C([H])([H])[H])C([H])([H])[H])C([H])([H])c2c([H])c(OC([H])([H])C([H])([H])C([H])([H])C([H])([H])C([H])(C3([H])C([H])([H])OC([H])([H])C3([H])[H])[N+]([H])([H])C([H])([H])C([H])([H])C([H])([H])C(=O)N3C([H])([H])C([H])([H])C([H])([H])C([H])(n4nc(-c5c([H])c([H])c(Oc6c([H])c([H])c(F)c([H])c6F)c([H])c5[H])c(C(=O)N([H])[H])c4N([H])[H])C3([H])[H])c([H])c([H])c2C1([H])[H]

>  <smiles>  (82) 
[H]c1c([H])c([H])c2c(c1[H])C([H])([H])C([H])([H])C([H])([H])C2([H])N([H])C(=O)C1([H])N(C(=O)C([H])(N([H])C(=O)C([H])(N([H])C([H])([H])[H])C([H])([H])[H])C(C([H])([H])[H])(C([H])([H])[H])C([H])([H])[H])C([H])([H])c2c([H])c(OC([H])([H])C([H])([H])C([H])([H])C([H])([H])C([H])(C3([H])C([H])([H])OC([H])([H])C3([H])[H])[N+]([H])([H])C([H])([H])C([H])([H])C([H])([H])C(=O)N3C([H])([H])C([H])([H])C([H])([H])C([H])(n4nc(-c5c([H])c([H])c(Oc6c([H])c([H])c(F)c([H])c6F)c([H])c5[H])c(C(=O)N([H])[H])c4N([H])[H])C3([H])[H])c([H])c([H])c2C1([H])[H]

$$$$
82:0:0
     RDKit          3D

 87 96  0  0  1  0  0  0  0  0999 V2000
  -28.8010  -20.8410   22.1760 C   0  0  0  0  0  2  0  0  0  0  0  0
  -27.9560  -20.6820   20.8940 C   0  0  0  0  0  2  0  0  0  0  0  0
  -30.8770  -19.9880   20.9950 C   0  0  0  0  0  2  0  0  0  0  0  0
  -30.2200  -22.6140   21.0580 C   0  0  0  0  0  2  0  0  0  0  0  0
  -30.2530  -21.2090   21.7960 C   0  0  0  0  0  3  0  0  0  0  0  0
  -28.8820  -20.9050   19.6880 C   0  0  0  0  0  3  0  0  0  0  0  0
  -29.9960  -19.4350   19.8230 C   0  0  0  0  0  3  0  0  0  0  0  0
  -29.2490  -22.7130   19.8310 C   0  0  0  0  0  3  0  0  0  0  0  0
  -29.7740  -17.5480   19.9120 C   0  0  0  0  0  2  0  0  0  0  0  0
  -30.6990  -15.9650   19.7700 C   0  0  0  0  0  0  0  0  0  0  0  0
  -30.8210  -13.4280   19.0070 C   0  0  0  0  0  2  0  0  0  0  0  0
  -29.8630  -13.0700   17.8350 C   0  0  0  0  0  2  0  0  0  0  0  0
  -28.4560  -12.7270   18.3520 C   0  0  0  0  0  2  0  0  0  0  0  0
  -28.0000  -13.7220   19.4450 C   0  0  0  0  0  3  0  0  0  0  0  0
  -29.0830  -14.0030   20.5060 C   0  0  0  0  0  2  0  0  0  0  0  0
  -30.2470  -14.5880   19.8100 N   0  0  0  0  0  0  0  0  0  0  0  0
  -31.9090  -15.9750   19.4810 O   0  0  0  0  0  0  0  0  0  0  0  0
  -25.6980  -14.2290   20.4010 C   0  0  0  0  0  0  0  0  0  0  0  0
  -24.6610  -13.4360   20.8010 C   0  0  0  0  0  0  0  0  0  0  0  0
  -25.1180  -12.0880   20.6670 C   0  0  0  0  0  0  0  0  0  0  0  0
  -26.7150  -13.3680   20.0340 N   0  0  0  0  0  0  0  0  0  0  0  0
  -26.3850  -12.0690   20.2630 N   0  0  0  0  0  0  0  0  0  0  0  0
  -24.3960  -10.8200   20.8420 C   0  0  0  0  0  0  0  0  0  0  0  0
  -24.7890   -9.8720   21.8130 C   0  0  0  0  0  3  0  0  0  0  0  0
  -24.0640   -8.6710   21.9770 C   0  0  0  0  0  3  0  0  0  0  0  0
  -22.9320   -8.4090   21.1690 C   0  0  0  0  0  0  0  0  0  0  0  0
  -22.5590   -9.3450   20.1880 C   0  0  0  0  0  3  0  0  0  0  0  0
  -23.2850  -10.5380   20.0240 C   0  0  0  0  0  3  0  0  0  0  0  0
  -22.1830   -7.2590   21.2390 O   0  0  0  0  0  0  0  0  0  0  0  0
  -21.9260   -6.6390   22.4360 C   0  0  0  0  0  0  0  0  0  0  0  0
  -21.2320   -7.2900   23.4780 C   0  0  0  0  0  3  0  0  0  0  0  0
  -20.9270   -6.5930   24.6640 C   0  0  0  0  0  3  0  0  0  0  0  0
  -21.3070   -5.2460   24.8070 C   0  0  0  0  0  0  0  0  0  0  0  0
  -21.9940   -4.5940   23.7680 C   0  0  0  0  0  3  0  0  0  0  0  0
  -22.2990   -5.2880   22.5840 C   0  0  0  0  0  0  0  0  0  0  0  0
  -22.9420   -4.6480   21.5780 F   0  0  0  0  0  0  0  0  0  0  0  0
  -21.0090   -4.5740   25.9430 F   0  0  0  0  0  0  0  0  0  0  0  0
  -23.2880  -13.9020   21.1890 C   0  0  0  0  0  0  0  0  0  0  0  0
  -22.6250  -13.1790   22.0830 N   0  0  0  0  0  0  0  0  0  0  0  0
  -22.8160  -14.9430   20.7330 O   0  0  0  0  0  0  0  0  0  0  0  0
  -23.0220  -12.3360   22.4720 H   0  0  0  0  0  0  0  0  0  0  0  0
  -21.7070  -13.4730   22.3850 H   0  0  0  0  0  0  0  0  0  0  0  0
  -25.8560  -15.6070   20.2870 N   0  0  0  0  0  0  0  0  0  0  0  0
  -25.1050  -16.2560   20.4960 H   0  0  0  0  0  0  0  0  0  0  0  0
  -26.6860  -16.0640   19.9350 H   0  0  0  0  0  0  0  0  0  0  0  0
  -28.2630  -24.3420   19.8160 C   0  0  0  0  0  2  0  0  0  0  0  0
  -28.4620  -26.0520   19.9320 O   0  0  0  0  0  0  0  0  0  0  0  0
  -24.8790  -31.9290   23.3780 C   0  0  0  0  0  0  0  0  0  0  0  0
  -27.4540  -27.2050   19.9840 C   0  0  0  0  0  0  0  0  0  0  0  0
  -23.6920  -30.6490   21.6460 C   0  0  0  0  0  3  0  0  0  0  0  0
  -25.1480  -29.1500   20.0980 C   0  0  0  0  0  0  0  0  0  0  0  0
  -26.2640  -30.8600   21.5090 C   0  0  0  0  0  2  0  0  0  0  0  0
  -26.3420  -29.4910   20.7440 C   0  0  0  0  0  0  0  0  0  0  0  0
  -27.4830  -28.5480   20.6570 C   0  0  0  0  0  3  0  0  0  0  0  0
  -26.2220  -27.0530   19.3020 C   0  0  0  0  0  3  0  0  0  0  0  0
  -25.1210  -27.9560   19.3560 C   0  0  0  0  0  3  0  0  0  0  0  0
  -23.9260  -30.0680   20.2220 C   0  0  0  0  0  2  0  0  0  0  0  0
  -24.9680  -31.1730   22.2320 N   0  0  0  0  0  0  0  0  0  0  0  0
  -23.7870  -32.1690   23.9220 O   0  0  0  0  0  0  0  0  0  0  0  0
  -23.0030  -29.5840   22.5410 C   0  0  0  0  0  0  0  0  0  0  0  0
  -21.6790  -29.3930   22.3880 N   0  0  0  0  0  0  0  0  0  0  0  0
  -23.6720  -28.9280   23.3440 O   0  0  0  0  0  0  0  0  0  0  0  0
  -21.1900  -29.9750   21.7230 H   0  0  0  0  0  0  0  0  0  0  0  0
  -18.3250  -28.0540   22.7790 C   0  0  0  0  0  0  0  0  0  0  0  0
  -20.8740  -28.3850   23.0880 C   0  0  0  0  0  3  0  0  0  0  0  0
  -21.0260  -26.9960   22.4250 C   0  0  0  0  0  2  0  0  0  0  0  0
  -19.9450  -26.7050   21.3790 C   0  0  0  0  0  2  0  0  0  0  0  0
  -18.5530  -26.7610   22.0140 C   0  0  0  0  0  2  0  0  0  0  0  0
  -19.4150  -28.8240   23.2690 C   0  0  0  0  0  0  0  0  0  0  0  0
  -19.1460  -30.0310   23.9480 C   0  0  0  0  0  3  0  0  0  0  0  0
  -17.8220  -30.4720   24.1390 C   0  0  0  0  0  3  0  0  0  0  0  0
  -16.7480  -29.7000   23.6630 C   0  0  0  0  0  3  0  0  0  0  0  0
  -17.0010  -28.4920   22.9890 C   0  0  0  0  0  3  0  0  0  0  0  0
  -26.1410  -32.5410   24.0560 C   0  0  0  0  0  3  0  0  0  0  0  0
  -25.8270  -33.9300   24.4420 N   0  0  0  0  0  0  0  0  0  0  0  0
  -26.1210  -35.0180   23.7160 C   0  0  0  0  0  0  0  0  0  0  0  0
  -26.7450  -34.9570   22.6530 O   0  0  0  0  0  0  0  0  0  0  0  0
  -25.2670  -34.0490   25.2720 H   0  0  0  0  0  0  0  0  0  0  0  0
  -24.3420  -36.7950   23.5580 C   0  0  0  0  0  1  0  0  0  0  0  0
  -25.6530  -36.3880   24.2500 C   0  0  0  0  0  3  0  0  0  0  0  0
  -27.8240  -37.3090   24.9380 C   0  0  0  0  0  1  0  0  0  0  0  0
  -26.6550  -37.4630   24.0770 N   0  0  0  0  0  0  0  0  0  0  0  0
  -26.2430  -38.3740   24.2610 H   0  0  0  0  0  0  0  0  0  0  0  0
  -26.6190  -31.7270   25.3230 C   0  0  1  0  0  0  0  0  0  0  0  0
  -25.4940  -31.4600   26.3530 C   0  0  0  0  0  1  0  0  0  0  0  0
  -27.2090  -30.3600   24.9140 C   0  0  0  0  0  1  0  0  0  0  0  0
  -27.7520  -32.4950   26.0430 C   0  0  0  0  0  1  0  0  0  0  0  0
  2  1  1  0
  4  5  1  0
  5  3  1  0
  5  1  1  0
  6  7  1  0
  6  8  1  0
  6  2  1  0
  7  9  1  0
  7  3  1  0
  8 46  1  0
  8  4  1  0
 10 16  1  0
 10  9  1  0
 11 16  1  0
 12 13  1  0
 12 11  1  0
 14 13  1  0
 14 21  1  0
 14 15  1  0
 16 15  1  0
 17 10  2  0
 18 19  2  0
 19 38  1  0
 20 19  1  0
 20 23  1  0
 21 22  1  0
 21 18  1  0
 22 20  2  0
 23 24  1  0
 24 25  2  0
 26 29  1  0
 26 25  1  0
 27 26  2  0
 28 27  1  0
 28 23  2  0
 29 30  1  0
 30 35  2  0
 30 31  1  0
 31 32  2  0
 32 33  1  0
 33 37  1  0
 34 33  2  0
 35 34  1  0
 36 35  1  0
 38 39  1  0
 39 42  1  0
 39 41  1  0
 40 38  2  0
 43 18  1  0
 43 44  1  0
 45 43  1  0
 46 47  1  0
 47 49  1  0
 48 59  2  0
 49 54  1  0
 50 58  1  0
 50 60  1  0
 51 57  1  0
 51 53  1  0
 52 58  1  0
 53 52  1  0
 54 53  2  0
 55 56  1  0
 55 49  2  0
 56 51  2  0
 57 50  1  0
 58 48  1  0
 60 62  2  0
 61 60  1  0
 63 61  1  0
 64 73  2  0
 64 69  1  0
 65 61  1  0
 65 69  1  0
 66 65  1  0
 67 68  1  0
 67 66  1  0
 68 64  1  0
 69 70  2  0
 70 71  1  0
 72 71  2  0
 73 72  1  0
 74 48  1  0
 74 75  1  0
 74 84  1  0
 75 78  1  0
 76 80  1  0
 76 75  1  0
 77 76  2  0
 80 79  1  0
 82 80  1  0
 82 83  1  0
 82 81  1  0
 84 87  1  1
 84 85  1  0
 86 84  1  0
M  ISO  4   9 100  10 100  46 101  47 101
M  END
>  <TORSDO>  (83) 
F 18

>  <SCORE>  (83) 
-14.479

>  <name>  (83) 
82

>  <ligand_id>  (83) 
82

>  <original_smiles>  (83) 
[H]c1c([H])c([H])c2c(c1[H])C([H])([H])C([H])([H])C([H])([H])C2([H])N([H])C(=O)C1([H])N(C(=O)C([H])(N([H])C(=O)C([H])(N([H])C([H])([H])[H])C([H])([H])[H])C(C([H])([H])[H])(C([H])([H])[H])C([H])([H])[H])C([H])([H])c2c([H])c(OC([H])([H])C3([H])C([H])([H])C4([H])C([H])([H])C([H])([H])C3([H])C([H])(C([H])([H])C(=O)N3C([H])([H])C([H])([H])C([H])([H])C([H])(n5nc(-c6c([H])c([H])c(Oc7c([H])c([H])c(F)c([H])c7F)c([H])c6[H])c(C(=O)N([H])[H])c5N([H])[H])C3([H])[H])C4([H])[H])c([H])c([H])c2C1([H])[H]

>  <smiles>  (83) 
[H]c1c([H])c([H])c2c(c1[H])C([H])([H])C([H])([H])C([H])([H])C2([H])N([H])C(=O)C1([H])N(C(=O)C([H])(N([H])C(=O)C([H])(N([H])C([H])([H])[H])C([H])([H])[H])C(C([H])([H])[H])(C([H])([H])[H])C([H])([H])[H])C([H])([H])c2c([H])c(OC([H])([H])C3([H])C([H])([H])C4([H])C([H])([H])C([H])([H])C3([H])C([H])(C([H])([H])C(=O)N3C([H])([H])C([H])([H])C([H])([H])C([H])(n5nc(-c6c([H])c([H])c(Oc7c([H])c([H])c(F)c([H])c7F)c([H])c6[H])c(C(=O)N([H])[H])c5N([H])[H])C3([H])[H])C4([H])[H])c([H])c([H])c2C1([H])[H]

$$$$
83:0:0
     RDKit          3D

 98107  0  0  1  0  0  0  0  0999 V2000
  -28.6890  -18.7670   18.9740 C   0  0  0  0  0  0  0  0  0  0  0  0
  -29.6100  -17.8150   19.2550 C   0  0  0  0  0  3  0  0  0  0  0  0
  -27.2420  -18.3640   18.6820 C   0  0  0  0  0  2  0  0  0  0  0  0
  -27.6350  -19.8980   16.5980 C   0  0  0  0  0  2  0  0  0  0  0  0
  -26.4750  -20.7560   18.0500 C   0  0  0  0  0  2  0  0  0  0  0  0
  -28.9430  -20.2880   18.8400 C   0  0  0  0  0  3  0  0  0  0  0  0
  -26.6470  -19.2930   17.6140 C   0  0  0  0  0  3  0  0  0  0  0  0
  -27.9870  -20.8520   17.7600 C   0  0  0  0  0  3  0  0  0  0  0  0
  -28.8490  -21.0750   20.1630 C   0  0  0  0  0  0  0  0  0  0  0  0
  -29.1360  -22.3850   20.1240 N   0  0  0  0  0  0  0  0  0  0  0  0
  -28.5490  -20.4990   21.2120 O   0  0  0  0  0  0  0  0  0  0  0  0
  -29.3850  -22.7740   19.2250 H   0  0  0  0  0  0  0  0  0  0  0  0
  -29.2080  -23.2630   21.2940 C   0  0  0  0  0  2  0  0  0  0  0  0
  -28.4100  -24.5700   21.1380 C   0  0  0  0  0  2  0  0  0  0  0  0
  -28.9370  -25.5200   20.0440 C   0  0  0  0  0  2  0  0  0  0  0  0
  -28.8020  -26.8850   20.4410 O   0  0  0  0  0  0  0  0  0  0  0  0
  -24.6370  -31.8900   23.2780 C   0  0  0  0  0  0  0  0  0  0  0  0
  -27.5750  -27.5090   20.3770 C   0  0  0  0  0  0  0  0  0  0  0  0
  -23.5610  -30.4380   21.5870 C   0  0  0  0  0  3  0  0  0  0  0  0
  -25.1290  -28.9250   20.2660 C   0  0  0  0  0  0  0  0  0  0  0  0
  -26.0820  -30.8670   21.5250 C   0  0  0  0  0  2  0  0  0  0  0  0
  -26.2370  -29.4930   20.9060 C   0  0  0  0  0  0  0  0  0  0  0  0
  -27.4590  -28.7900   20.9630 C   0  0  0  0  0  3  0  0  0  0  0  0
  -26.4430  -26.9450   19.7440 C   0  0  0  0  0  3  0  0  0  0  0  0
  -25.2250  -27.6470   19.6900 C   0  0  0  0  0  3  0  0  0  0  0  0
  -23.8610  -29.7460   20.2310 C   0  0  0  0  0  2  0  0  0  0  0  0
  -24.7740  -31.0810   22.1890 N   0  0  0  0  0  0  0  0  0  0  0  0
  -23.5200  -32.1380   23.7540 O   0  0  0  0  0  0  0  0  0  0  0  0
  -22.8880  -29.4090   22.5210 C   0  0  0  0  0  0  0  0  0  0  0  0
  -21.5740  -29.2030   22.3320 N   0  0  0  0  0  0  0  0  0  0  0  0
  -23.5440  -28.7990   23.3690 O   0  0  0  0  0  0  0  0  0  0  0  0
  -21.1070  -29.7510   21.6230 H   0  0  0  0  0  0  0  0  0  0  0  0
  -18.1930  -27.9860   22.6990 C   0  0  0  0  0  0  0  0  0  0  0  0
  -20.7380  -28.2510   23.0630 C   0  0  0  0  0  3  0  0  0  0  0  0
  -20.8670  -26.8280   22.4750 C   0  0  0  0  0  2  0  0  0  0  0  0
  -19.8030  -26.5100   21.4210 C   0  0  0  0  0  2  0  0  0  0  0  0
  -18.3980  -26.6440   22.0190 C   0  0  0  0  0  2  0  0  0  0  0  0
  -19.2930  -28.7490   23.1750 C   0  0  0  0  0  0  0  0  0  0  0  0
  -19.0490  -30.0070   23.7680 C   0  0  0  0  0  3  0  0  0  0  0  0
  -17.7380  -30.5020   23.8920 C   0  0  0  0  0  3  0  0  0  0  0  0
  -16.6510  -29.7350   23.4360 C   0  0  0  0  0  3  0  0  0  0  0  0
  -16.8800  -28.4800   22.8450 C   0  0  0  0  0  3  0  0  0  0  0  0
  -25.8710  -32.5600   23.9620 C   0  0  0  0  0  3  0  0  0  0  0  0
  -25.5150  -33.9580   24.2400 N   0  0  0  0  0  0  0  0  0  0  0  0
  -25.8610  -34.9970   23.4670 C   0  0  0  0  0  0  0  0  0  0  0  0
  -26.5820  -34.8830   22.4720 O   0  0  0  0  0  0  0  0  0  0  0  0
  -24.8820  -34.1210   25.0090 H   0  0  0  0  0  0  0  0  0  0  0  0
  -24.1060  -36.7320   22.9870 C   0  0  0  0  0  1  0  0  0  0  0  0
  -25.3200  -36.3830   23.8630 C   0  0  0  0  0  3  0  0  0  0  0  0
  -27.3880  -37.3500   24.7670 C   0  0  0  0  0  1  0  0  0  0  0  0
  -26.3310  -37.4590   23.7660 N   0  0  0  0  0  0  0  0  0  0  0  0
  -25.8950  -38.3730   23.8600 H   0  0  0  0  0  0  0  0  0  0  0  0
  -26.3240  -31.8270   25.2840 C   0  0  1  0  0  0  0  0  0  0  0  0
  -25.1720  -31.5820   26.2870 C   0  0  0  0  0  1  0  0  0  0  0  0
  -26.9640  -30.4580   24.9550 C   0  0  0  0  0  1  0  0  0  0  0  0
  -27.4090  -32.6640   26.0020 C   0  0  0  0  0  1  0  0  0  0  0  0
  -31.0370  -18.0520   19.4020 C   0  0  0  0  0  0  0  0  0  0  0  0
  -31.6420  -17.3510   20.3700 N   0  0  0  0  0  0  0  0  0  0  0  0
  -31.7100  -18.7520   18.6480 O   0  0  0  0  0  0  0  0  0  0  0  0
  -32.6500  -17.4300   20.3730 H   0  0  0  0  0  0  0  0  0  0  0  0
  -31.0900  -16.6540   21.5420 C   0  0  0  0  0  2  0  0  0  0  0  0
  -30.3080  -15.3290   21.3250 C   0  0  0  0  0  2  0  0  0  0  0  0
  -30.8460  -14.3090   20.2980 C   0  0  0  0  0  0  0  0  0  0  0  0
  -30.3900  -12.3150   18.9060 C   0  0  0  0  0  2  0  0  0  0  0  0
  -29.3890  -12.6650   17.7890 C   0  0  0  0  0  2  0  0  0  0  0  0
  -27.9360  -12.5370   18.2890 C   0  0  0  0  0  2  0  0  0  0  0  0
  -27.7010  -13.2630   19.6410 C   0  0  0  0  0  3  0  0  0  0  0  0
  -28.8050  -12.8910   20.6560 C   0  0  0  0  0  2  0  0  0  0  0  0
  -30.1110  -13.1940   20.0490 N   0  0  0  0  0  0  0  0  0  0  0  0
  -31.8940  -14.5510   19.6890 O   0  0  0  0  0  0  0  0  0  0  0  0
  -25.3370  -13.8740   20.4620 C   0  0  0  0  0  0  0  0  0  0  0  0
  -24.2800  -13.1020   20.8600 C   0  0  0  0  0  0  0  0  0  0  0  0
  -24.7270  -11.7480   20.7810 C   0  0  0  0  0  0  0  0  0  0  0  0
  -26.3660  -12.9920   20.1700 N   0  0  0  0  0  0  0  0  0  0  0  0
  -26.0030  -11.7060   20.4160 N   0  0  0  0  0  0  0  0  0  0  0  0
  -24.0000  -10.4870   20.9770 C   0  0  0  0  0  0  0  0  0  0  0  0
  -24.4410   -9.5150   21.9010 C   0  0  0  0  0  3  0  0  0  0  0  0
  -23.7140   -8.3190   22.0850 C   0  0  0  0  0  3  0  0  0  0  0  0
  -22.5300   -8.0870   21.3440 C   0  0  0  0  0  0  0  0  0  0  0  0
  -22.1070   -9.0480   20.4100 C   0  0  0  0  0  3  0  0  0  0  0  0
  -22.8360  -10.2360   20.2240 C   0  0  0  0  0  3  0  0  0  0  0  0
  -21.7740   -6.9430   21.4380 O   0  0  0  0  0  0  0  0  0  0  0  0
  -21.7170   -6.2110   22.5960 C   0  0  0  0  0  0  0  0  0  0  0  0
  -21.2470   -6.7660   23.8070 C   0  0  0  0  0  3  0  0  0  0  0  0
  -21.1380   -5.9590   24.9560 C   0  0  0  0  0  3  0  0  0  0  0  0
  -21.4880   -4.5960   24.8960 C   0  0  0  0  0  0  0  0  0  0  0  0
  -21.9510   -4.0400   23.6900 C   0  0  0  0  0  3  0  0  0  0  0  0
  -22.0610   -4.8460   22.5430 C   0  0  0  0  0  0  0  0  0  0  0  0
  -22.4870   -4.2990   21.3780 F   0  0  0  0  0  0  0  0  0  0  0  0
  -21.3760   -3.8190   25.9970 F   0  0  0  0  0  0  0  0  0  0  0  0
  -22.8990  -13.5850   21.2030 C   0  0  0  0  0  0  0  0  0  0  0  0
  -22.2000  -12.8740   22.0800 N   0  0  0  0  0  0  0  0  0  0  0  0
  -22.4490  -14.6260   20.7280 O   0  0  0  0  0  0  0  0  0  0  0  0
  -22.5760  -12.0300   22.4880 H   0  0  0  0  0  0  0  0  0  0  0  0
  -21.2770  -13.1810   22.3490 H   0  0  0  0  0  0  0  0  0  0  0  0
  -25.5040  -15.2470   20.3080 N   0  0  0  0  0  0  0  0  0  0  0  0
  -24.7480  -15.9030   20.4700 H   0  0  0  0  0  0  0  0  0  0  0  0
  -26.3520  -15.6920   19.9820 H   0  0  0  0  0  0  0  0  0  0  0  0
  1  2  2  0
  2 57  1  0
  3  1  1  0
  6  1  1  0
  6  9  1  0
  7  4  1  0
  7  5  1  0
  7  3  1  0
  8  4  1  0
  8  5  1  0
  8  6  1  0
  9 11  2  0
 10  9  1  0
 10 13  1  0
 12 10  1  0
 14 13  1  0
 15 16  1  0
 15 14  1  0
 17 28  2  0
 18 16  1  0
 18 23  1  0
 19 27  1  0
 19 29  1  0
 20 22  1  0
 21 27  1  0
 22 23  2  0
 22 21  1  0
 24 18  2  0
 25 24  1  0
 25 20  2  0
 26 20  1  0
 26 19  1  0
 27 17  1  0
 29 31  2  0
 30 29  1  0
 32 30  1  0
 33 42  2  0
 33 38  1  0
 34 30  1  0
 34 38  1  0
 35 34  1  0
 36 37  1  0
 36 35  1  0
 37 33  1  0
 38 39  2  0
 39 40  1  0
 41 40  2  0
 42 41  1  0
 43 17  1  0
 43 44  1  0
 43 53  1  0
 44 47  1  0
 45 49  1  0
 45 44  1  0
 46 45  2  0
 49 48  1  0
 51 52  1  0
 51 49  1  0
 51 50  1  0
 53 56  1  1
 53 54  1  0
 55 53  1  0
 57 58  1  0
 58 60  1  0
 58 61  1  0
 59 57  2  0
 62 61  1  0
 63 62  1  0
 64 69  1  0
 65 66  1  0
 65 64  1  0
 67 66  1  0
 67 74  1  0
 67 68  1  0
 69 63  1  0
 69 68  1  0
 70 63  2  0
 71 72  2  0
 72 91  1  0
 73 72  1  0
 73 76  1  0
 74 75  1  0
 74 71  1  0
 75 73  2  0
 76 77  1  0
 77 78  2  0
 79 82  1  0
 79 78  1  0
 80 79  2  0
 81 80  1  0
 81 76  2  0
 82 83  1  0
 83 84  1  0
 84 85  2  0
 86 85  1  0
 86 90  1  0
 87 86  2  0
 88 83  2  0
 88 87  1  0
 89 88  1  0
 91 92  1  0
 92 95  1  0
 92 94  1  0
 93 91  2  0
 96 71  1  0
 96 97  1  0
 98 96  1  0
M  ISO  4  15 101  16 101  62 100  63 100
M  END
>  <TORSDO>  (84) 
F 23

>  <SCORE>  (84) 
-12.748

>  <name>  (84) 
83

>  <ligand_id>  (84) 
83

>  <original_smiles>  (84) 
[H]C(C(=O)N([H])C([H])([H])C([H])([H])C(=O)N1C([H])([H])C([H])([H])C([H])([H])C([H])(n2nc(-c3c([H])c([H])c(Oc4c([H])c([H])c(F)c([H])c4F)c([H])c3[H])c(C(=O)N([H])[H])c2N([H])[H])C1([H])[H])=C1C([H])([H])C2([H])C([H])([H])C([H])(C1([H])C(=O)N([H])C([H])([H])C([H])([H])C([H])([H])Oc1c([H])c([H])c3c(c1[H])C([H])([H])N(C(=O)C([H])(N([H])C(=O)C([H])(N([H])C([H])([H])[H])C([H])([H])[H])C(C([H])([H])[H])(C([H])([H])[H])C([H])([H])[H])C([H])(C(=O)N([H])C1([H])c4c([H])c([H])c([H])c([H])c4C([H])([H])C([H])([H])C1([H])[H])C3([H])[H])C2([H])[H]

>  <smiles>  (84) 
[H]C(C(=O)N([H])C([H])([H])C([H])([H])C(=O)N1C([H])([H])C([H])([H])C([H])([H])C([H])(n2nc(-c3c([H])c([H])c(Oc4c([H])c([H])c(F)c([H])c4F)c([H])c3[H])c(C(=O)N([H])[H])c2N([H])[H])C1([H])[H])=C1C([H])([H])C2([H])C([H])([H])C([H])(C1([H])C(=O)N([H])C([H])([H])C([H])([H])C([H])([H])Oc1c([H])c([H])c3c(c1[H])C([H])([H])N(C(=O)C([H])(N([H])C(=O)C([H])(N([H])C([H])([H])[H])C([H])([H])[H])C(C([H])([H])[H])(C([H])([H])[H])C([H])([H])[H])C([H])(C(=O)N([H])C1([H])c4c([H])c([H])c([H])c([H])c4C([H])([H])C([H])([H])C1([H])[H])C3([H])[H])C2([H])[H]

$$$$
84:0:0
     RDKit          3D

 93100  0  0  1  0  0  0  0  0999 V2000
  -28.5500  -20.7880   20.6990 C   0  0  0  0  0  2  0  0  0  0  0  0
  -29.4500  -22.0470   20.7780 C   0  0  0  0  0  0  0  0  0  0  0  0
  -30.6700  -21.9120   20.6730 O   0  0  0  0  0  0  0  0  0  0  0  0
  -28.8520  -23.4380   21.1310 C   0  0  0  0  0  2  0  0  0  0  0  0
  -27.8440  -24.0970   20.1330 C   0  0  0  0  0  2  0  0  0  0  0  0
  -28.3340  -25.3570   19.3450 C   0  0  0  0  0  2  0  0  0  0  0  0
  -28.2670  -26.6360   20.0200 O   0  0  0  0  0  0  0  0  0  0  0  0
  -24.5560  -31.8730   23.1680 C   0  0  0  0  0  0  0  0  0  0  0  0
  -27.0940  -27.3830   20.0130 C   0  0  0  0  0  0  0  0  0  0  0  0
  -23.3090  -30.4860   21.5480 C   0  0  0  0  0  3  0  0  0  0  0  0
  -24.7170  -28.9420   20.0820 C   0  0  0  0  0  0  0  0  0  0  0  0
  -25.8370  -30.8120   21.3070 C   0  0  0  0  0  2  0  0  0  0  0  0
  -25.8930  -29.4400   20.6570 C   0  0  0  0  0  0  0  0  0  0  0  0
  -27.0800  -28.6650   20.6220 C   0  0  0  0  0  3  0  0  0  0  0  0
  -25.8910  -26.9120   19.4350 C   0  0  0  0  0  3  0  0  0  0  0  0
  -24.7120  -27.6790   19.4690 C   0  0  0  0  0  3  0  0  0  0  0  0
  -23.4840  -29.8140   20.1580 C   0  0  0  0  0  2  0  0  0  0  0  0
  -24.5870  -31.0740   22.0630 N   0  0  0  0  0  0  0  0  0  0  0  0
  -23.4870  -32.1510   23.7300 O   0  0  0  0  0  0  0  0  0  0  0  0
  -22.6680  -29.4660   22.5160 C   0  0  0  0  0  0  0  0  0  0  0  0
  -21.3410  -29.2900   22.4130 N   0  0  0  0  0  0  0  0  0  0  0  0
  -23.3620  -28.8350   23.3190 O   0  0  0  0  0  0  0  0  0  0  0  0
  -20.8400  -29.8530   21.7390 H   0  0  0  0  0  0  0  0  0  0  0  0
  -17.9730  -28.0930   22.9620 C   0  0  0  0  0  0  0  0  0  0  0  0
  -20.5360  -28.3540   23.1960 C   0  0  0  0  0  3  0  0  0  0  0  0
  -20.6300  -26.9210   22.6210 C   0  0  0  0  0  2  0  0  0  0  0  0
  -19.5120  -26.5970   21.6230 C   0  0  0  0  0  2  0  0  0  0  0  0
  -18.1390  -26.7430   22.2850 C   0  0  0  0  0  2  0  0  0  0  0  0
  -19.0990  -28.8560   23.3750 C   0  0  0  0  0  0  0  0  0  0  0  0
  -18.8870  -30.1220   23.9670 C   0  0  0  0  0  3  0  0  0  0  0  0
  -17.5860  -30.6230   24.1500 C   0  0  0  0  0  3  0  0  0  0  0  0
  -16.4750  -29.8580   23.7520 C   0  0  0  0  0  3  0  0  0  0  0  0
  -16.6700  -28.5960   23.1640 C   0  0  0  0  0  3  0  0  0  0  0  0
  -25.8580  -32.4920   23.7630 C   0  0  0  0  0  3  0  0  0  0  0  0
  -26.4130  -31.7020   25.0140 C   0  0  1  0  0  0  0  0  0  0  0  0
  -25.3530  -31.4470   26.1100 C   0  0  0  0  0  1  0  0  0  0  0  0
  -26.9880  -30.3300   24.5880 C   0  0  0  0  0  1  0  0  0  0  0  0
  -27.5810  -32.4890   25.6540 C   0  0  0  0  0  1  0  0  0  0  0  0
  -25.5620  -33.8850   24.1250 N   0  0  0  0  0  0  0  0  0  0  0  0
  -25.8840  -34.9490   23.3760 C   0  0  0  0  0  0  0  0  0  0  0  0
  -26.5350  -34.8610   22.3320 O   0  0  0  0  0  0  0  0  0  0  0  0
  -24.9820  -34.0270   24.9390 H   0  0  0  0  0  0  0  0  0  0  0  0
  -24.1620  -36.7580   23.0750 C   0  0  0  0  0  1  0  0  0  0  0  0
  -25.4080  -36.3310   23.8670 C   0  0  0  0  0  3  0  0  0  0  0  0
  -27.5570  -37.1880   24.6900 C   0  0  0  0  0  1  0  0  0  0  0  0
  -26.4450  -37.3800   23.7630 N   0  0  0  0  0  0  0  0  0  0  0  0
  -26.0450  -38.3000   23.9340 H   0  0  0  0  0  0  0  0  0  0  0  0
  -29.2180  -19.4880   20.1070 C   0  0  0  0  0  2  0  0  0  0  0  0
  -30.0410  -18.5280   21.0540 C   0  0  0  0  0  3  0  0  0  0  0  0
  -31.2460  -19.2310   21.5570 N   0  0  0  0  0  4  0  0  0  0  0  0
  -32.0420  -18.7380   21.1820 H   0  0  0  0  0  0  0  0  0  0  0  0
  -31.2830  -20.1690   21.1790 H   0  0  0  0  0  0  0  0  0  0  0  0
  -30.7530  -20.4990   23.6720 C   0  0  0  0  0  1  0  0  0  0  0  0
  -31.4200  -19.2710   23.0290 C   0  0  0  0  0  2  0  0  0  0  0  0
  -30.4140  -15.9610   20.9870 C   0  0  0  0  0  3  0  0  0  0  0  0
  -30.5370  -17.1990   20.3940 C   0  0  0  0  0  0  0  0  0  0  0  0
  -31.2160  -17.4300   19.0360 C   0  0  0  0  0  1  0  0  0  0  0  0
  -31.0750  -14.7260   20.4870 C   0  0  0  0  0  0  0  0  0  0  0  0
  -30.7280  -12.5360   19.4010 C   0  0  0  0  0  2  0  0  0  0  0  0
  -29.8370  -12.7280   18.1580 C   0  0  0  0  0  2  0  0  0  0  0  0
  -28.3500  -12.6160   18.5460 C   0  0  0  0  0  2  0  0  0  0  0  0
  -27.9900  -13.4820   19.7830 C   0  0  0  0  0  3  0  0  0  0  0  0
  -29.0110  -13.3020   20.9260 C   0  0  0  0  0  2  0  0  0  0  0  0
  -30.3510  -13.5700   20.3870 N   0  0  0  0  0  0  0  0  0  0  0  0
  -32.2460  -14.7480   20.1040 O   0  0  0  0  0  0  0  0  0  0  0  0
  -25.5900  -14.1250   20.4320 C   0  0  0  0  0  0  0  0  0  0  0  0
  -24.5010  -13.3710   20.7850 C   0  0  0  0  0  0  0  0  0  0  0  0
  -24.9430  -12.0130   20.7850 C   0  0  0  0  0  0  0  0  0  0  0  0
  -26.6260  -13.2260   20.2400 N   0  0  0  0  0  0  0  0  0  0  0  0
  -26.2420  -11.9510   20.5140 N   0  0  0  0  0  0  0  0  0  0  0  0
  -24.1920  -10.7620   20.9730 C   0  0  0  0  0  0  0  0  0  0  0  0
  -24.5790   -9.8060   21.9380 C   0  0  0  0  0  3  0  0  0  0  0  0
  -23.8290   -8.6240   22.1150 C   0  0  0  0  0  3  0  0  0  0  0  0
  -22.6800   -8.3870   21.3250 C   0  0  0  0  0  0  0  0  0  0  0  0
  -22.3110   -9.3330   20.3510 C   0  0  0  0  0  3  0  0  0  0  0  0
  -23.0620  -10.5070   20.1720 C   0  0  0  0  0  3  0  0  0  0  0  0
  -21.9050   -7.2550   21.4070 O   0  0  0  0  0  0  0  0  0  0  0  0
  -21.7920   -6.5440   22.5750 C   0  0  0  0  0  0  0  0  0  0  0  0
  -21.3290   -7.1410   23.7680 C   0  0  0  0  0  3  0  0  0  0  0  0
  -21.1540   -6.3560   24.9260 C   0  0  0  0  0  3  0  0  0  0  0  0
  -21.4390   -4.9770   24.8920 C   0  0  0  0  0  0  0  0  0  0  0  0
  -21.8960   -4.3820   23.7040 C   0  0  0  0  0  3  0  0  0  0  0  0
  -22.0680   -5.1620   22.5470 C   0  0  0  0  0  0  0  0  0  0  0  0
  -22.4880   -4.5790   21.4000 F   0  0  0  0  0  0  0  0  0  0  0  0
  -21.2650   -4.2220   26.0030 F   0  0  0  0  0  0  0  0  0  0  0  0
  -23.1050  -13.8740   21.0150 C   0  0  0  0  0  0  0  0  0  0  0  0
  -22.3500  -13.2040   21.8770 N   0  0  0  0  0  0  0  0  0  0  0  0
  -22.6960  -14.8970   20.4670 O   0  0  0  0  0  0  0  0  0  0  0  0
  -22.6990  -12.3790   22.3390 H   0  0  0  0  0  0  0  0  0  0  0  0
  -21.4120  -13.5200   22.0790 H   0  0  0  0  0  0  0  0  0  0  0  0
  -25.7820  -15.4860   20.2360 N   0  0  0  0  0  0  0  0  0  0  0  0
  -25.0220  -16.1560   20.2850 H   0  0  0  0  0  0  0  0  0  0  0  0
  -26.6490  -15.8910   19.9040 H   0  0  0  0  0  0  0  0  0  0  0  0
  1  2  1  0
  2  4  1  0
  3  2  2  0
  5  4  1  0
  6  7  1  0
  6  5  1  0
  8 19  2  0
  9  7  1  0
  9 14  1  0
 10 18  1  0
 10 20  1  0
 11 17  1  0
 11 13  1  0
 12 18  1  0
 13 12  1  0
 14 13  2  0
 15 16  1  0
 15  9  2  0
 16 11  2  0
 17 10  1  0
 18  8  1  0
 20 22  2  0
 21 20  1  0
 23 21  1  0
 24 33  2  0
 24 29  1  0
 25 21  1  0
 25 29  1  0
 26 25  1  0
 27 28  1  0
 27 26  1  0
 28 24  1  0
 29 30  2  0
 30 31  1  0
 32 31  2  0
 33 32  1  0
 34  8  1  0
 34 39  1  0
 34 35  1  0
 35 38  1  1
 35 36  1  0
 37 35  1  0
 39 42  1  0
 40 44  1  0
 40 39  1  0
 41 40  2  0
 44 43  1  0
 46 44  1  0
 46 47  1  0
 46 45  1  0
 48  1  1  0
 49 48  1  0
 49 50  1  0
 50 54  1  0
 51 50  1  0
 52 50  1  0
 54 53  1  0
 56 55  2  0
 56 49  1  0
 57 56  1  0
 58 55  1  0
 59 64  1  0
 60 61  1  0
 60 59  1  0
 62 61  1  0
 62 69  1  0
 62 63  1  0
 64 58  1  0
 64 63  1  0
 65 58  2  0
 66 67  2  0
 67 86  1  0
 68 67  1  0
 68 71  1  0
 69 66  1  0
 69 70  1  0
 70 68  2  0
 71 72  1  0
 72 73  2  0
 74 77  1  0
 74 73  1  0
 75 74  2  0
 76 75  1  0
 76 71  2  0
 77 78  1  0
 78 79  1  0
 79 80  2  0
 81 80  1  0
 81 85  1  0
 82 81  2  0
 83 78  2  0
 83 82  1  0
 84 83  1  0
 86 87  1  0
 87 90  1  0
 87 89  1  0
 88 86  2  0
 91 92  1  0
 91 66  1  0
 93 91  1  0
M  ISO  4   6 101   7 101  55 100  58 100
M  END
>  <TORSDO>  (85) 
F 25

>  <SCORE>  (85) 
-12.125

>  <name>  (85) 
84

>  <ligand_id>  (85) 
84

>  <original_smiles>  (85) 
[H]C(C(=O)N1C([H])([H])C([H])([H])C([H])([H])C([H])(n2nc(-c3c([H])c([H])c(Oc4c([H])c([H])c(F)c([H])c4F)c([H])c3[H])c(C(=O)N([H])[H])c2N([H])[H])C1([H])[H])=C(C([H])([H])[H])C([H])(C([H])([H])C([H])([H])C(=O)C([H])([H])C([H])([H])C([H])([H])Oc1c([H])c([H])c2c(c1[H])C([H])([H])N(C(=O)C([H])(N([H])C(=O)C([H])(N([H])C([H])([H])[H])C([H])([H])[H])C(C([H])([H])[H])(C([H])([H])[H])C([H])([H])[H])C([H])(C(=O)N([H])C1([H])c3c([H])c([H])c([H])c([H])c3C([H])([H])C([H])([H])C1([H])[H])C2([H])[H])[N+]([H])([H])C([H])([H])C([H])([H])[H]

>  <smiles>  (85) 
[H]C(C(=O)N1C([H])([H])C([H])([H])C([H])([H])C([H])(n2nc(-c3c([H])c([H])c(Oc4c([H])c([H])c(F)c([H])c4F)c([H])c3[H])c(C(=O)N([H])[H])c2N([H])[H])C1([H])[H])=C(C([H])([H])[H])C([H])(C([H])([H])C([H])([H])C(=O)C([H])([H])C([H])([H])C([H])([H])Oc1c([H])c([H])c2c(c1[H])C([H])([H])N(C(=O)C([H])(N([H])C(=O)C([H])(N([H])C([H])([H])[H])C([H])([H])[H])C(C([H])([H])[H])(C([H])([H])[H])C([H])([H])[H])C([H])(C(=O)N([H])C1([H])c3c([H])c([H])c([H])c([H])c3C([H])([H])C([H])([H])C1([H])[H])C2([H])[H])[N+]([H])([H])C([H])([H])C([H])([H])[H]

$$$$
85:0:0
     RDKit          3D

 90 99  0  0  1  0  0  0  0  0999 V2000
  -29.0660  -17.8040   17.6980 C   0  0  0  0  0  2  0  0  0  0  0  0
  -28.4930  -19.1620   18.1410 C   0  0  0  0  0  2  0  0  0  0  0  0
  -30.0890  -17.2440   18.7010 C   0  0  0  0  0  2  0  0  0  0  0  0
  -27.6200  -20.5840   20.0740 C   0  0  0  0  0  2  0  0  0  0  0  0
  -29.8330  -19.8330   20.7720 C   0  0  0  0  0  2  0  0  0  0  0  0
  -27.9160  -19.1460   19.5800 C   0  0  0  0  0  3  0  0  0  0  0  0
  -28.9250  -18.5520   20.5870 C   0  0  0  0  0  3  0  0  0  0  0  0
  -29.4360  -17.1040   20.0910 C   0  0  0  0  0  3  0  0  0  0  0  0
  -28.8920  -21.1210   20.7700 C   0  0  0  0  0  3  0  0  0  0  0  0
  -30.1120  -16.0470   21.0870 C   0  0  0  0  0  2  0  0  0  0  0  0
  -30.7480  -14.7070   20.5060 C   0  0  0  0  0  0  0  0  0  0  0  0
  -30.5080  -12.4800   19.4140 C   0  0  0  0  0  2  0  0  0  0  0  0
  -29.6030  -12.6300   18.1710 C   0  0  0  0  0  2  0  0  0  0  0  0
  -28.1210  -12.4700   18.5620 C   0  0  0  0  0  2  0  0  0  0  0  0
  -27.7390  -13.3260   19.7990 C   0  0  0  0  0  3  0  0  0  0  0  0
  -28.7680  -13.1770   20.9390 C   0  0  0  0  0  2  0  0  0  0  0  0
  -30.0920  -13.5050   20.3990 N   0  0  0  0  0  0  0  0  0  0  0  0
  -31.9010  -14.8030   20.0710 O   0  0  0  0  0  0  0  0  0  0  0  0
  -25.3270  -13.9190   20.4500 C   0  0  0  0  0  0  0  0  0  0  0  0
  -24.2570  -13.1450   20.8050 C   0  0  0  0  0  0  0  0  0  0  0  0
  -24.7260  -11.7960   20.8080 C   0  0  0  0  0  0  0  0  0  0  0  0
  -26.3810  -13.0410   20.2540 N   0  0  0  0  0  0  0  0  0  0  0  0
  -26.0240  -11.7600   20.5300 N   0  0  0  0  0  0  0  0  0  0  0  0
  -24.0010  -10.5330   21.0020 C   0  0  0  0  0  0  0  0  0  0  0  0
  -24.4180   -9.5800   21.9570 C   0  0  0  0  0  3  0  0  0  0  0  0
  -23.6910   -8.3830   22.1370 C   0  0  0  0  0  3  0  0  0  0  0  0
  -22.5340   -8.1310   21.3620 C   0  0  0  0  0  0  0  0  0  0  0  0
  -22.1370   -9.0740   20.3960 C   0  0  0  0  0  3  0  0  0  0  0  0
  -22.8640  -10.2620   20.2140 C   0  0  0  0  0  3  0  0  0  0  0  0
  -21.7800   -6.9850   21.4490 O   0  0  0  0  0  0  0  0  0  0  0  0
  -21.7110   -6.2570   22.6090 C   0  0  0  0  0  0  0  0  0  0  0  0
  -21.2660   -6.8290   23.8220 C   0  0  0  0  0  3  0  0  0  0  0  0
  -21.1440   -6.0290   24.9750 C   0  0  0  0  0  3  0  0  0  0  0  0
  -21.4540   -4.6570   24.9170 C   0  0  0  0  0  0  0  0  0  0  0  0
  -21.8920   -4.0850   23.7090 C   0  0  0  0  0  3  0  0  0  0  0  0
  -22.0160   -4.8820   22.5590 C   0  0  0  0  0  0  0  0  0  0  0  0
  -22.4180   -4.3210   21.3920 F   0  0  0  0  0  0  0  0  0  0  0  0
  -21.3300   -3.8850   26.0230 F   0  0  0  0  0  0  0  0  0  0  0  0
  -22.8510  -13.6190   21.0360 C   0  0  0  0  0  0  0  0  0  0  0  0
  -22.1060  -12.9340   21.8970 N   0  0  0  0  0  0  0  0  0  0  0  0
  -22.4200  -14.6350   20.4890 O   0  0  0  0  0  0  0  0  0  0  0  0
  -22.4660  -12.1120   22.3590 H   0  0  0  0  0  0  0  0  0  0  0  0
  -21.1630  -13.2350   22.0940 H   0  0  0  0  0  0  0  0  0  0  0  0
  -25.4890  -15.2870   20.2560 N   0  0  0  0  0  0  0  0  0  0  0  0
  -24.7190  -15.9410   20.3400 H   0  0  0  0  0  0  0  0  0  0  0  0
  -26.3510  -15.7260   19.9570 H   0  0  0  0  0  0  0  0  0  0  0  0
  -29.4230  -22.5040   20.1530 C   0  0  0  0  0  2  0  0  0  0  0  0
  -29.0120  -23.9310   20.7740 C   0  0  0  0  0  2  0  0  0  0  0  0
  -28.3370  -25.0510   19.8540 C   0  0  0  0  0  2  0  0  0  0  0  0
  -28.3850  -26.4870   20.2610 O   0  0  0  0  0  0  0  0  0  0  0  0
  -24.6300  -31.8860   23.2370 C   0  0  0  0  0  0  0  0  0  0  0  0
  -27.2590  -27.3330   20.1730 C   0  0  0  0  0  0  0  0  0  0  0  0
  -23.4320  -30.4870   21.5950 C   0  0  0  0  0  3  0  0  0  0  0  0
  -24.8900  -28.9520   20.1580 C   0  0  0  0  0  0  0  0  0  0  0  0
  -25.9690  -30.8160   21.4130 C   0  0  0  0  0  2  0  0  0  0  0  0
  -26.0560  -29.4370   20.7650 C   0  0  0  0  0  0  0  0  0  0  0  0
  -27.2380  -28.6360   20.7690 C   0  0  0  0  0  3  0  0  0  0  0  0
  -26.0750  -26.9230   19.5160 C   0  0  0  0  0  3  0  0  0  0  0  0
  -24.9040  -27.7020   19.5240 C   0  0  0  0  0  3  0  0  0  0  0  0
  -23.6490  -29.8200   20.2110 C   0  0  0  0  0  2  0  0  0  0  0  0
  -24.6960  -31.0790   22.1390 N   0  0  0  0  0  0  0  0  0  0  0  0
  -23.5470  -32.1590   23.7730 O   0  0  0  0  0  0  0  0  0  0  0  0
  -22.7760  -29.4640   22.5520 C   0  0  0  0  0  0  0  0  0  0  0  0
  -21.4490  -29.2840   22.4300 N   0  0  0  0  0  0  0  0  0  0  0  0
  -23.4590  -28.8330   23.3650 O   0  0  0  0  0  0  0  0  0  0  0  0
  -20.9570  -29.8470   21.7510 H   0  0  0  0  0  0  0  0  0  0  0  0
  -18.0760  -28.0800   22.9400 C   0  0  0  0  0  0  0  0  0  0  0  0
  -20.6350  -28.3430   23.2010 C   0  0  0  0  0  3  0  0  0  0  0  0
  -20.7370  -26.9140   22.6220 C   0  0  0  0  0  2  0  0  0  0  0  0
  -19.6330  -26.5910   21.6120 C   0  0  0  0  0  2  0  0  0  0  0  0
  -18.2530  -26.7330   22.2600 C   0  0  0  0  0  2  0  0  0  0  0  0
  -19.1960  -28.8430   23.3670 C   0  0  0  0  0  0  0  0  0  0  0  0
  -18.9770  -30.1040   23.9650 C   0  0  0  0  0  3  0  0  0  0  0  0
  -17.6730  -30.6020   24.1370 C   0  0  0  0  0  3  0  0  0  0  0  0
  -16.5680  -29.8370   23.7240 C   0  0  0  0  0  3  0  0  0  0  0  0
  -16.7700  -28.5780   23.1320 C   0  0  0  0  0  3  0  0  0  0  0  0
  -25.9110  -32.5250   23.8590 C   0  0  0  0  0  3  0  0  0  0  0  0
  -26.4280  -31.7570   25.1370 C   0  0  1  0  0  0  0  0  0  0  0  0
  -25.3340  -31.5170   26.2040 C   0  0  0  0  0  1  0  0  0  0  0  0
  -27.0160  -30.3810   24.7500 C   0  0  0  0  0  1  0  0  0  0  0  0
  -27.5770  -32.5550   25.7990 C   0  0  0  0  0  1  0  0  0  0  0  0
  -25.5920  -33.9210   24.1890 N   0  0  0  0  0  0  0  0  0  0  0  0
  -25.9190  -34.9760   23.4290 C   0  0  0  0  0  0  0  0  0  0  0  0
  -26.5880  -34.8760   22.3970 O   0  0  0  0  0  0  0  0  0  0  0  0
  -24.9920  -34.0720   24.9850 H   0  0  0  0  0  0  0  0  0  0  0  0
  -24.1810  -36.7640   23.0800 C   0  0  0  0  0  1  0  0  0  0  0  0
  -25.4250  -36.3620   23.8880 C   0  0  0  0  0  3  0  0  0  0  0  0
  -27.5580  -37.2580   24.7150 C   0  0  0  0  0  1  0  0  0  0  0  0
  -26.4530  -37.4200   23.7730 N   0  0  0  0  0  0  0  0  0  0  0  0
  -26.0420  -38.3390   23.9210 H   0  0  0  0  0  0  0  0  0  0  0  0
  1  2  1  0
  1  3  1  0
  3  8  1  0
  4  9  1  0
  6  2  1  0
  6  4  1  0
  6  7  1  0
  7  5  1  0
  8  7  1  0
  8 10  1  0
  9 47  1  0
  9  5  1  0
 11 10  1  0
 12 17  1  0
 13 14  1  0
 13 12  1  0
 15 14  1  0
 15 22  1  0
 15 16  1  0
 17 11  1  0
 17 16  1  0
 18 11  2  0
 19 20  2  0
 20 21  1  0
 20 39  1  0
 21 24  1  0
 22 19  1  0
 22 23  1  0
 23 21  2  0
 24 25  1  0
 25 26  2  0
 27 30  1  0
 27 26  1  0
 28 27  2  0
 29 28  1  0
 29 24  2  0
 30 31  1  0
 31 32  1  0
 32 33  2  0
 34 33  1  0
 34 38  1  0
 35 34  2  0
 36 31  2  0
 36 35  1  0
 37 36  1  0
 39 40  1  0
 40 43  1  0
 40 42  1  0
 41 39  2  0
 44 45  1  0
 44 19  1  0
 46 44  1  0
 47 48  1  0
 49 50  1  0
 49 48  1  0
 51 62  2  0
 52 50  1  0
 52 57  1  0
 53 61  1  0
 53 63  1  0
 54 60  1  0
 54 56  1  0
 55 61  1  0
 56 57  2  0
 56 55  1  0
 58 59  1  0
 58 52  2  0
 59 54  2  0
 60 53  1  0
 61 51  1  0
 63 65  2  0
 64 63  1  0
 66 64  1  0
 67 76  2  0
 67 72  1  0
 68 64  1  0
 68 72  1  0
 69 68  1  0
 70 71  1  0
 70 69  1  0
 71 67  1  0
 72 73  2  0
 73 74  1  0
 75 74  2  0
 76 75  1  0
 77 51  1  0
 77 82  1  0
 77 78  1  0
 78 81  1  1
 78 79  1  0
 80 78  1  0
 82 85  1  0
 83 87  1  0
 83 82  1  0
 84 83  2  0
 87 86  1  0
 89 87  1  0
 89 90  1  0
 89 88  1  0
M  ISO  4  10 100  11 100  49 101  50 101
M  END
>  <TORSDO>  (86) 
F 20

>  <SCORE>  (86) 
-13.712

>  <name>  (86) 
85

>  <ligand_id>  (86) 
85

>  <original_smiles>  (86) 
[H]c1c([H])c([H])c2c(c1[H])C([H])([H])C([H])([H])C([H])([H])C2([H])N([H])C(=O)C1([H])N(C(=O)C([H])(N([H])C(=O)C([H])(N([H])C([H])([H])[H])C([H])([H])[H])C(C([H])([H])[H])(C([H])([H])[H])C([H])([H])[H])C([H])([H])c2c([H])c(OC([H])([H])C([H])([H])C([H])([H])C3([H])C([H])([H])C4([H])C([H])([H])C([H])([H])C([H])([H])C([H])(C([H])([H])C(=O)N5C([H])([H])C([H])([H])C([H])([H])C([H])(n6nc(-c7c([H])c([H])c(Oc8c([H])c([H])c(F)c([H])c8F)c([H])c7[H])c(C(=O)N([H])[H])c6N([H])[H])C5([H])[H])C4([H])C3([H])[H])c([H])c([H])c2C1([H])[H]

>  <smiles>  (86) 
[H]c1c([H])c([H])c2c(c1[H])C([H])([H])C([H])([H])C([H])([H])C2([H])N([H])C(=O)C1([H])N(C(=O)C([H])(N([H])C(=O)C([H])(N([H])C([H])([H])[H])C([H])([H])[H])C(C([H])([H])[H])(C([H])([H])[H])C([H])([H])[H])C([H])([H])c2c([H])c(OC([H])([H])C([H])([H])C([H])([H])C3([H])C([H])([H])C4([H])C([H])([H])C([H])([H])C([H])([H])C([H])(C([H])([H])C(=O)N5C([H])([H])C([H])([H])C([H])([H])C([H])(n6nc(-c7c([H])c([H])c(Oc8c([H])c([H])c(F)c([H])c8F)c([H])c7[H])c(C(=O)N([H])[H])c6N([H])[H])C5([H])[H])C4([H])C3([H])[H])c([H])c([H])c2C1([H])[H]

$$$$
86:0:0
     RDKit          3D

 98108  0  0  1  0  0  0  0  0999 V2000
  -28.7180  -21.8350   19.2560 C   0  0  0  0  0  3  0  0  0  0  0  0
  -29.6330  -19.2520   17.1800 C   0  0  0  0  0  2  0  0  0  0  0  0
  -30.3610  -20.4260   17.8210 C   0  0  0  0  0  2  0  0  0  0  0  0
  -29.6500  -18.3090   20.6910 C   0  0  0  0  0  2  0  0  0  0  0  0
  -30.5530  -17.1420   20.1520 C   0  0  0  0  0  3  0  0  0  0  0  0
  -30.2060  -17.0710   18.6380 C   0  0  0  0  0  3  0  0  0  0  0  0
  -29.2730  -18.3100   18.3410 C   0  0  0  0  0  3  0  0  0  0  0  0
  -29.7590  -20.5770   19.2320 C   0  0  0  0  0  3  0  0  0  0  0  0
  -29.2180  -19.1810   19.5330 N   0  0  0  0  0  0  0  0  0  0  0  0
  -31.0830  -15.8330   20.9820 C   0  0  0  0  0  0  0  0  0  0  0  0
  -31.0410  -13.3960   20.5800 C   0  0  0  0  0  2  0  0  0  0  0  0
  -30.4030  -13.1880   19.1970 C   0  0  0  0  0  2  0  0  0  0  0  0
  -28.8690  -13.0790   19.3070 C   0  0  0  0  0  2  0  0  0  0  0  0
  -28.2370  -14.1440   20.2480 C   0  0  0  0  0  3  0  0  0  0  0  0
  -29.0480  -14.3890   21.5310 C   0  0  0  0  0  2  0  0  0  0  0  0
  -30.4380  -14.6250   21.1360 N   0  0  0  0  0  0  0  0  0  0  0  0
  -32.2920  -15.8430   21.2190 O   0  0  0  0  0  0  0  0  0  0  0  0
  -25.7990  -14.8280   20.5770 C   0  0  0  0  0  0  0  0  0  0  0  0
  -24.6530  -14.0930   20.7310 C   0  0  0  0  0  0  0  0  0  0  0  0
  -25.0630  -12.7260   20.7520 C   0  0  0  0  0  0  0  0  0  0  0  0
  -26.8280  -13.9040   20.5060 N   0  0  0  0  0  0  0  0  0  0  0  0
  -26.3850  -12.6360   20.6750 N   0  0  0  0  0  0  0  0  0  0  0  0
  -24.2670  -11.4920   20.7820 C   0  0  0  0  0  0  0  0  0  0  0  0
  -24.6400  -10.3910   21.5850 C   0  0  0  0  0  3  0  0  0  0  0  0
  -23.8460   -9.2240   21.6070 C   0  0  0  0  0  3  0  0  0  0  0  0
  -22.6640   -9.1530   20.8310 C   0  0  0  0  0  0  0  0  0  0  0  0
  -22.3120  -10.2450   20.0190 C   0  0  0  0  0  3  0  0  0  0  0  0
  -23.1060  -11.4030   19.9920 C   0  0  0  0  0  3  0  0  0  0  0  0
  -21.8450   -8.0520   20.7780 O   0  0  0  0  0  0  0  0  0  0  0  0
  -21.8950   -7.0750   21.7410 C   0  0  0  0  0  0  0  0  0  0  0  0
  -21.7790   -7.3780   23.1150 C   0  0  0  0  0  3  0  0  0  0  0  0
  -21.7570   -6.3370   24.0650 C   0  0  0  0  0  3  0  0  0  0  0  0
  -21.8390   -4.9960   23.6440 C   0  0  0  0  0  0  0  0  0  0  0  0
  -21.9530   -4.6950   22.2760 C   0  0  0  0  0  3  0  0  0  0  0  0
  -21.9750   -5.7320   21.3280 C   0  0  0  0  0  0  0  0  0  0  0  0
  -22.0600   -5.4340   20.0090 F   0  0  0  0  0  0  0  0  0  0  0  0
  -21.8090   -3.9950   24.5540 F   0  0  0  0  0  0  0  0  0  0  0  0
  -23.2530  -14.6310   20.7560 C   0  0  0  0  0  0  0  0  0  0  0  0
  -22.3620  -14.0150   21.5270 N   0  0  0  0  0  0  0  0  0  0  0  0
  -22.9480  -15.6390   20.1240 O   0  0  0  0  0  0  0  0  0  0  0  0
  -22.6040  -13.2060   22.0770 H   0  0  0  0  0  0  0  0  0  0  0  0
  -21.4150  -14.3680   21.5600 H   0  0  0  0  0  0  0  0  0  0  0  0
  -26.0400  -16.1960   20.4770 N   0  0  0  0  0  0  0  0  0  0  0  0
  -25.2800  -16.8630   20.5260 H   0  0  0  0  0  0  0  0  0  0  0  0
  -26.9480  -16.6380   20.4240 H   0  0  0  0  0  0  0  0  0  0  0  0
  -31.2810  -16.0480   16.4820 C   0  0  0  0  0  1  0  0  0  0  0  0
  -31.4620  -16.9400   17.7310 C   0  0  0  0  0  2  0  0  0  0  0  0
  -29.2230  -23.1970   18.7390 N   0  0  0  0  0  4  0  0  0  0  0  0
  -29.9300  -23.5150   19.3810 H   0  0  0  0  0  0  0  0  0  0  0  0
  -29.7070  -23.0030   17.8760 H   0  0  0  0  0  0  0  0  0  0  0  0
  -28.2460  -24.3510   18.3980 C   0  0  0  0  0  2  0  0  0  0  0  0
  -28.1570  -25.6750   19.3270 C   0  0  0  0  0  2  0  0  0  0  0  0
  -28.0590  -27.0730   18.7880 O   0  0  0  0  0  0  0  0  0  0  0  0
  -24.3660  -31.6200   23.0950 C   0  0  0  0  0  0  0  0  0  0  0  0
  -26.9070  -27.8270   19.0580 C   0  0  0  0  0  0  0  0  0  0  0  0
  -23.0850  -30.3710   21.3990 C   0  0  0  0  0  3  0  0  0  0  0  0
  -24.4560  -29.1940   19.5910 C   0  0  0  0  0  0  0  0  0  0  0  0
  -25.5520  -30.9450   20.9920 C   0  0  0  0  0  2  0  0  0  0  0  0
  -25.6530  -29.6990   20.1180 C   0  0  0  0  0  0  0  0  0  0  0  0
  -26.8860  -29.0280   19.8330 C   0  0  0  0  0  3  0  0  0  0  0  0
  -25.6840  -27.3870   18.5130 C   0  0  0  0  0  3  0  0  0  0  0  0
  -24.4720  -28.0470   18.7850 C   0  0  0  0  0  3  0  0  0  0  0  0
  -23.1750  -29.9400   19.9150 C   0  0  0  0  0  2  0  0  0  0  0  0
  -24.3600  -30.9910   21.8840 N   0  0  0  0  0  0  0  0  0  0  0  0
  -23.3410  -31.7120   23.7820 O   0  0  0  0  0  0  0  0  0  0  0  0
  -22.6310  -29.1590   22.2490 C   0  0  0  0  0  0  0  0  0  0  0  0
  -21.3360  -28.8100   22.1630 N   0  0  0  0  0  0  0  0  0  0  0  0
  -23.4370  -28.5430   22.9500 O   0  0  0  0  0  0  0  0  0  0  0  0
  -20.7310  -29.3870   21.5980 H   0  0  0  0  0  0  0  0  0  0  0  0
  -18.2430  -26.9610   22.5120 C   0  0  0  0  0  0  0  0  0  0  0  0
  -20.7070  -27.6720   22.8400 C   0  0  0  0  0  3  0  0  0  0  0  0
  -21.0750  -26.3390   22.1470 C   0  0  0  0  0  2  0  0  0  0  0  0
  -20.0480  -25.8940   21.1000 C   0  0  0  0  0  2  0  0  0  0  0  0
  -18.6680  -25.7250   21.7440 C   0  0  0  0  0  2  0  0  0  0  0  0
  -19.1990  -27.8840   23.0150 C   0  0  0  0  0  0  0  0  0  0  0  0
  -18.7450  -29.0390   23.6870 C   0  0  0  0  0  3  0  0  0  0  0  0
  -17.3680  -29.2750   23.8660 C   0  0  0  0  0  3  0  0  0  0  0  0
  -16.4300  -28.3490   23.3810 C   0  0  0  0  0  3  0  0  0  0  0  0
  -16.8650  -27.1940   22.7080 C   0  0  0  0  0  3  0  0  0  0  0  0
  -25.6620  -32.2780   23.6620 C   0  0  0  0  0  3  0  0  0  0  0  0
  -25.3260  -33.6520   24.0590 N   0  0  0  0  0  0  0  0  0  0  0  0
  -25.6580  -34.7490   23.3670 C   0  0  0  0  0  0  0  0  0  0  0  0
  -26.3460  -34.7080   22.3420 O   0  0  0  0  0  0  0  0  0  0  0  0
  -24.7210  -33.7560   24.8620 H   0  0  0  0  0  0  0  0  0  0  0  0
  -23.9430  -36.5570   23.0380 C   0  0  0  0  0  1  0  0  0  0  0  0
  -25.1400  -36.1040   23.8880 C   0  0  0  0  0  3  0  0  0  0  0  0
  -27.2260  -36.9270   24.8870 C   0  0  0  0  0  1  0  0  0  0  0  0
  -26.1730  -37.1620   23.9020 N   0  0  0  0  0  0  0  0  0  0  0  0
  -25.7570  -38.0680   24.0960 H   0  0  0  0  0  0  0  0  0  0  0  0
  -26.2770  -31.4850   24.8790 C   0  0  1  0  0  0  0  0  0  0  0  0
  -25.2540  -31.1880   26.0050 C   0  0  0  0  0  1  0  0  0  0  0  0
  -26.8700  -30.1360   24.4120 C   0  0  0  0  0  1  0  0  0  0  0  0
  -27.4480  -32.2930   25.4860 C   0  0  0  0  0  1  0  0  0  0  0  0
  -28.2310  -21.9760   20.7130 C   0  0  0  0  0  2  0  0  0  0  0  0
  -28.3900  -23.3530   21.3660 C   0  0  0  0  0  2  0  0  0  0  0  0
  -27.0870  -25.0490   22.8910 C   0  0  0  0  0  2  0  0  0  0  0  0
  -26.2070  -24.7830   21.6920 C   0  0  0  0  0  2  0  0  0  0  0  0
  -27.1650  -23.7240   22.1800 C   0  0  0  0  0  3  0  0  0  0  0  0
  1 94  1  0
  2  3  1  0
  3  8  1  0
  5  4  1  0
  5 10  1  0
  6 47  1  0
  6  5  1  0
  7  2  1  0
  7  6  1  0
  7  9  1  0
  8  1  1  0
  8  9  1  0
  9  4  1  0
 10 16  1  0
 10 17  2  0
 11 16  1  0
 12 13  1  0
 12 11  1  0
 14 13  1  0
 14 21  1  0
 14 15  1  0
 16 15  1  0
 18 19  2  0
 19 20  1  0
 19 38  1  0
 20 23  1  0
 21 18  1  0
 21 22  1  0
 22 20  2  0
 23 24  1  0
 24 25  2  0
 26 25  1  0
 27 26  2  0
 28 27  1  0
 28 23  2  0
 29 26  1  0
 29 30  1  0
 30 31  1  0
 31 32  2  0
 33 32  1  0
 33 37  1  0
 34 33  2  0
 35 30  2  0
 35 34  1  0
 36 35  1  0
 38 39  1  0
 39 42  1  0
 39 41  1  0
 40 38  2  0
 43 44  1  0
 43 18  1  0
 45 43  1  0
 46 47  1  0
 48  1  1  0
 48 49  1  0
 50 48  1  0
 51 48  1  0
 51 52  1  0
 53 55  1  0
 53 52  1  0
 54 65  2  0
 55 60  1  0
 56 64  1  0
 56 66  1  0
 57 63  1  0
 57 59  1  0
 58 64  1  0
 59 58  1  0
 60 59  2  0
 61 62  1  0
 61 55  2  0
 62 57  2  0
 63 56  1  0
 64 54  1  0
 66 68  2  0
 67 66  1  0
 69 67  1  0
 70 79  2  0
 70 75  1  0
 71 67  1  0
 71 75  1  0
 72 71  1  0
 73 74  1  0
 73 72  1  0
 74 70  1  0
 75 76  2  0
 76 77  1  0
 78 77  2  0
 79 78  1  0
 80 54  1  0
 80 81  1  0
 80 90  1  0
 81 84  1  0
 82 86  1  0
 82 81  1  0
 83 82  2  0
 86 85  1  0
 86 88  1  0
 88 89  1  0
 88 87  1  0
 90 93  1  1
 90 91  1  0
 92 90  1  0
 94 95  1  0
 95 98  1  0
 97 98  1  0
 97 96  1  0
 98 96  1  0
M  ISO  4   5 100  10 100  52 101  53 101
M  END
>  <TORSDO>  (87) 
F 24

>  <SCORE>  (87) 
-8.133

>  <name>  (87) 
86

>  <ligand_id>  (87) 
86

>  <original_smiles>  (87) 
[H]c1c([H])c([H])c2c(c1[H])C([H])([H])C([H])([H])C([H])([H])C2([H])N([H])C(=O)C1([H])N(C(=O)C([H])(N([H])C(=O)C([H])(N([H])C([H])([H])[H])C([H])([H])[H])C(C([H])([H])[H])(C([H])([H])[H])C([H])([H])[H])C([H])([H])c2c([H])c(OC([H])([H])C([H])([H])[N+]([H])([H])C([H])(C([H])([H])C([H])([H])C3([H])C([H])([H])C3([H])[H])C3([H])N4C([H])([H])C([H])(C(=O)N5C([H])([H])C([H])([H])C([H])([H])C([H])(n6nc(-c7c([H])c([H])c(Oc8c([H])c([H])c(F)c([H])c8F)c([H])c7[H])c(C(=O)N([H])[H])c6N([H])[H])C5([H])[H])C([H])(C([H])([H])C([H])([H])[H])C4([H])C([H])([H])C3([H])[H])c([H])c([H])c2C1([H])[H]

>  <smiles>  (87) 
[H]c1c([H])c([H])c2c(c1[H])C([H])([H])C([H])([H])C([H])([H])C2([H])N([H])C(=O)C1([H])N(C(=O)C([H])(N([H])C(=O)C([H])(N([H])C([H])([H])[H])C([H])([H])[H])C(C([H])([H])[H])(C([H])([H])[H])C([H])([H])[H])C([H])([H])c2c([H])c(OC([H])([H])C([H])([H])[N+]([H])([H])C([H])(C([H])([H])C([H])([H])C3([H])C([H])([H])C3([H])[H])C3([H])N4C([H])([H])C([H])(C(=O)N5C([H])([H])C([H])([H])C([H])([H])C([H])(n6nc(-c7c([H])c([H])c(Oc8c([H])c([H])c(F)c([H])c8F)c([H])c7[H])c(C(=O)N([H])[H])c6N([H])[H])C5([H])[H])C([H])(C([H])([H])C([H])([H])[H])C4([H])C([H])([H])C3([H])[H])c([H])c([H])c2C1([H])[H]

$$$$
87:0:0
     RDKit          3D

 91 99  0  0  1  0  0  0  0  0999 V2000
  -29.6410  -19.3580   21.1310 C   0  0  0  0  0  3  0  0  0  0  0  0
  -31.6250  -18.2550   19.4820 C   0  0  0  0  0  2  0  0  0  0  0  0
  -30.4590  -18.7960   18.7270 C   0  0  0  0  0  3  0  0  0  0  0  0
  -30.2480  -18.1800   20.1460 C   0  0  2  0  0  0  0  0  0  0  0  0
  -29.9140  -18.1400   17.4840 C   0  0  0  0  0  0  0  0  0  0  0  0
  -28.7980  -18.4920   15.3180 C   0  0  0  0  0  1  0  0  0  0  0  0
  -30.3080  -20.2530   16.1800 C   0  0  0  0  0  1  0  0  0  0  0  0
  -29.6850  -18.9360   16.4030 N   0  0  0  0  0  0  0  0  0  0  0  0
  -29.6110  -16.9480   17.4730 O   0  0  0  0  0  0  0  0  0  0  0  0
  -29.8440  -16.6100   20.4920 C   0  0  0  0  0  2  0  0  0  0  0  0
  -30.7610  -15.2500   20.2700 C   0  0  0  0  0  0  0  0  0  0  0  0
  -30.7580  -12.8820   19.4200 C   0  0  0  0  0  2  0  0  0  0  0  0
  -29.8340  -12.8380   18.1820 C   0  0  0  0  0  2  0  0  0  0  0  0
  -28.3530  -12.6580   18.5850 C   0  0  0  0  0  2  0  0  0  0  0  0
  -27.9350  -13.5690   19.7670 C   0  0  0  0  0  3  0  0  0  0  0  0
  -28.9790  -13.5500   20.8990 C   0  0  0  0  0  2  0  0  0  0  0  0
  -30.2560  -13.9620   20.3090 N   0  0  0  0  0  0  0  0  0  0  0  0
  -31.9580  -15.3670   19.9790 O   0  0  0  0  0  0  0  0  0  0  0  0
  -25.5680  -14.1530   20.5490 C   0  0  0  0  0  0  0  0  0  0  0  0
  -24.4940  -13.3820   20.8870 C   0  0  0  0  0  0  0  0  0  0  0  0
  -24.9290  -12.0230   20.7600 C   0  0  0  0  0  0  0  0  0  0  0  0
  -26.5920  -13.2710   20.2480 N   0  0  0  0  0  0  0  0  0  0  0  0
  -26.2140  -11.9810   20.4350 N   0  0  0  0  0  0  0  0  0  0  0  0
  -24.1780  -10.7690   20.8700 C   0  0  0  0  0  0  0  0  0  0  0  0
  -24.5890   -9.7320   21.7370 C   0  0  0  0  0  3  0  0  0  0  0  0
  -23.8360   -8.5420   21.8370 C   0  0  0  0  0  3  0  0  0  0  0  0
  -22.6590   -8.3790   21.0680 C   0  0  0  0  0  0  0  0  0  0  0  0
  -22.2680   -9.4040   20.1880 C   0  0  0  0  0  3  0  0  0  0  0  0
  -23.0210  -10.5850   20.0850 C   0  0  0  0  0  3  0  0  0  0  0  0
  -21.8780   -7.2480   21.0840 O   0  0  0  0  0  0  0  0  0  0  0  0
  -21.8150   -6.4330   22.1860 C   0  0  0  0  0  0  0  0  0  0  0  0
  -21.4080   -6.9180   23.4490 C   0  0  0  0  0  3  0  0  0  0  0  0
  -21.2860   -6.0300   24.5380 C   0  0  0  0  0  3  0  0  0  0  0  0
  -21.5680   -4.6620   24.3670 C   0  0  0  0  0  0  0  0  0  0  0  0
  -21.9680   -4.1770   23.1100 C   0  0  0  0  0  3  0  0  0  0  0  0
  -22.0890   -5.0610   22.0220 C   0  0  0  0  0  0  0  0  0  0  0  0
  -22.4540   -4.5840   20.8080 F   0  0  0  0  0  0  0  0  0  0  0  0
  -21.4460   -3.8080   25.4110 F   0  0  0  0  0  0  0  0  0  0  0  0
  -23.1120  -13.8650   21.2080 C   0  0  0  0  0  0  0  0  0  0  0  0
  -22.3790  -13.1340   22.0400 N   0  0  0  0  0  0  0  0  0  0  0  0
  -22.6900  -14.9320   20.7580 O   0  0  0  0  0  0  0  0  0  0  0  0
  -22.7310  -12.2680   22.4240 H   0  0  0  0  0  0  0  0  0  0  0  0
  -21.4530  -13.4430   22.2970 H   0  0  0  0  0  0  0  0  0  0  0  0
  -25.7570  -15.5260   20.4300 N   0  0  0  0  0  0  0  0  0  0  0  0
  -24.9510  -16.1390   20.3800 H   0  0  0  0  0  0  0  0  0  0  0  0
  -26.5420  -15.8740   19.8930 H   0  0  0  0  0  0  0  0  0  0  0  0
  -29.8110  -20.9980   20.8430 C   0  0  0  0  0  3  0  0  0  0  0  0
  -29.0300  -22.2350   21.6100 C   0  0  0  0  0  2  0  0  0  0  0  0
  -29.4010  -23.8260   21.3240 C   0  0  0  0  0  3  0  0  0  0  0  0
  -28.3890  -25.1040   21.6140 C   0  0  0  0  0  3  0  0  0  0  0  0
  -28.6980  -26.5840   21.3280 O   0  0  0  0  0  0  0  0  0  0  0  0
  -24.6980  -32.2980   23.5250 C   0  0  0  0  0  0  0  0  0  0  0  0
  -27.6290  -27.5030   21.1040 C   0  0  0  0  0  0  0  0  0  0  0  0
  -23.6830  -30.7510   21.8960 C   0  0  0  0  0  3  0  0  0  0  0  0
  -25.2900  -29.1390   20.7140 C   0  0  0  0  0  0  0  0  0  0  0  0
  -26.2250  -31.0990   21.9290 C   0  0  0  0  0  2  0  0  0  0  0  0
  -26.3920  -29.6690   21.3990 C   0  0  0  0  0  0  0  0  0  0  0  0
  -27.5620  -28.8600   21.5900 C   0  0  0  0  0  3  0  0  0  0  0  0
  -26.5240  -27.0640   20.3450 C   0  0  0  0  0  3  0  0  0  0  0  0
  -25.3630  -27.8470   20.1720 C   0  0  0  0  0  3  0  0  0  0  0  0
  -24.0430  -29.9960   20.5880 C   0  0  0  0  0  2  0  0  0  0  0  0
  -24.8810  -31.4070   22.5040 N   0  0  0  0  0  0  0  0  0  0  0  0
  -23.5640  -32.5860   23.9340 O   0  0  0  0  0  0  0  0  0  0  0  0
  -22.9550  -29.7870   22.8670 C   0  0  0  0  0  0  0  0  0  0  0  0
  -21.6580  -29.5350   22.6140 N   0  0  0  0  0  0  0  0  0  0  0  0
  -23.5610  -29.2700   23.8100 O   0  0  0  0  0  0  0  0  0  0  0  0
  -21.2310  -29.9990   21.8250 H   0  0  0  0  0  0  0  0  0  0  0  0
  -18.3020  -28.2010   22.8590 C   0  0  0  0  0  0  0  0  0  0  0  0
  -20.8000  -28.6250   23.3750 C   0  0  0  0  0  3  0  0  0  0  0  0
  -21.0360  -27.1580   22.9510 C   0  0  0  0  0  2  0  0  0  0  0  0
  -20.0710  -26.6840   21.8580 C   0  0  0  0  0  2  0  0  0  0  0  0
  -18.6170  -26.8090   22.3280 C   0  0  0  0  0  2  0  0  0  0  0  0
  -19.3310  -29.0580   23.3360 C   0  0  0  0  0  0  0  0  0  0  0  0
  -18.9890  -30.3530   23.7850 C   0  0  0  0  0  3  0  0  0  0  0  0
  -17.6520  -30.7930   23.7630 C   0  0  0  0  0  3  0  0  0  0  0  0
  -16.6390  -29.9340   23.3080 C   0  0  0  0  0  3  0  0  0  0  0  0
  -16.9630  -28.6420   22.8590 C   0  0  0  0  0  3  0  0  0  0  0  0
  -25.9030  -33.0160   24.2080 C   0  0  0  0  0  3  0  0  0  0  0  0
  -25.5350  -34.4290   24.3910 N   0  0  0  0  0  0  0  0  0  0  0  0
  -25.9130  -35.4300   23.5830 C   0  0  0  0  0  0  0  0  0  0  0  0
  -26.6690  -35.2620   22.6220 O   0  0  0  0  0  0  0  0  0  0  0  0
  -24.8770  -34.6290   25.1290 H   0  0  0  0  0  0  0  0  0  0  0  0
  -24.1770  -37.1400   22.9570 C   0  0  0  0  0  1  0  0  0  0  0  0
  -25.3590  -36.8360   23.8880 C   0  0  0  0  0  3  0  0  0  0  0  0
  -27.4170  -37.8320   24.7850 C   0  0  0  0  0  1  0  0  0  0  0  0
  -26.3730  -37.9030   23.7690 N   0  0  0  0  0  0  0  0  0  0  0  0
  -25.9380  -38.8170   23.8340 H   0  0  0  0  0  0  0  0  0  0  0  0
  -26.3130  -32.3660   25.5850 C   0  0  1  0  0  0  0  0  0  0  0  0
  -25.1170  -32.1180   26.5350 C   0  0  0  0  0  1  0  0  0  0  0  0
  -27.0280  -31.0140   25.3620 C   0  0  0  0  0  1  0  0  0  0  0  0
  -27.3230  -33.2820   26.3160 C   0  0  0  0  0  1  0  0  0  0  0  0
  2  4  1  0
  3  5  1  0
  3  2  1  0
  3  4  1  0
  4 10  1  6
  4  1  1  0
  6  8  1  0
  7  8  1  0
  8  5  1  0
  9  5  2  0
 11 17  1  0
 11 10  1  0
 12 17  1  0
 13 14  1  0
 13 12  1  0
 15 14  1  0
 15 22  1  0
 15 16  1  0
 17 16  1  0
 18 11  2  0
 19 20  2  0
 20 39  1  0
 21 24  1  0
 21 20  1  0
 22 23  1  0
 22 19  1  0
 23 21  2  0
 24 25  1  0
 25 26  2  0
 27 30  1  0
 27 26  1  0
 28 27  2  0
 29 28  1  0
 29 24  2  0
 30 31  1  0
 31 32  1  0
 32 33  2  0
 34 33  1  0
 34 38  1  0
 35 34  2  0
 36 31  2  0
 36 35  1  0
 37 36  1  0
 39 40  1  0
 40 43  1  0
 40 42  1  0
 41 39  2  0
 44 19  1  0
 45 44  1  0
 46 44  1  0
 47  1  2  0
 47 48  1  0
 49 48  1  0
 49 50  2  0
 51 50  1  0
 52 63  2  0
 53 51  1  0
 53 58  1  0
 54 62  1  0
 54 64  1  0
 55 57  1  0
 56 62  1  0
 57 58  2  0
 57 56  1  0
 59 53  2  0
 60 59  1  0
 60 55  2  0
 61 55  1  0
 61 54  1  0
 62 52  1  0
 64 66  2  0
 65 64  1  0
 67 65  1  0
 68 73  1  0
 69 65  1  0
 70 69  1  0
 71 72  1  0
 71 70  1  0
 72 68  1  0
 73 69  1  0
 73 74  2  0
 75 74  1  0
 76 75  2  0
 77 68  2  0
 77 76  1  0
 78 52  1  0
 78 79  1  0
 78 88  1  0
 79 82  1  0
 80 84  1  0
 80 79  1  0
 81 80  2  0
 84 83  1  0
 86 87  1  0
 86 84  1  0
 86 85  1  0
 88 91  1  1
 88 89  1  0
 90 88  1  0
M  ISO  4  10 100  11 100  50 101  51 101
M  END
>  <TORSDO>  (88) 
F 23

>  <SCORE>  (88) 
-10.258

>  <name>  (88) 
87

>  <ligand_id>  (88) 
87

>  <original_smiles>  (88) 
[H]c1c([H])c([H])c2c(c1[H])C([H])([H])C([H])([H])C([H])([H])C2([H])N([H])C(=O)C1([H])N(C(=O)C([H])(N([H])C(=O)C([H])(N([H])C([H])([H])[H])C([H])([H])[H])C(C([H])([H])[H])(C([H])([H])[H])C([H])([H])[H])C([H])([H])c2c([H])c(OC([H])([H])C([H])([H])C([H])([H])C([H])([H])C([H])([H])C3(C([H])([H])C(=O)N4C([H])([H])C([H])([H])C([H])([H])C([H])(n5nc(-c6c([H])c([H])c(Oc7c([H])c([H])c(F)c([H])c7F)c([H])c6[H])c(C(=O)N([H])[H])c5N([H])[H])C4([H])[H])C([H])([H])C3([H])C(=O)N(C([H])([H])[H])C([H])([H])[H])c([H])c([H])c2C1([H])[H]

>  <smiles>  (88) 
[H]c1c([H])c([H])c2c(c1[H])C([H])([H])C([H])([H])C([H])([H])C2([H])N([H])C(=O)C1([H])N(C(=O)C([H])(N([H])C(=O)C([H])(N([H])C([H])([H])[H])C([H])([H])[H])C(C([H])([H])[H])(C([H])([H])[H])C([H])([H])[H])C([H])([H])c2c([H])c(OC([H])([H])C([H])([H])C([H])([H])C([H])([H])C([H])([H])C3(C([H])([H])C(=O)N4C([H])([H])C([H])([H])C([H])([H])C([H])(n5nc(-c6c([H])c([H])c(Oc7c([H])c([H])c(F)c([H])c7F)c([H])c6[H])c(C(=O)N([H])[H])c5N([H])[H])C4([H])[H])C([H])([H])C3([H])C(=O)N(C([H])([H])[H])C([H])([H])[H])c([H])c([H])c2C1([H])[H]

$$$$
88:0:0
     RDKit          3D

100112  0  0  1  0  0  0  0  0999 V2000
  -28.9080  -21.5630   17.5440 C   0  0  0  0  0  2  0  0  0  0  0  0
  -28.0540  -21.1520   19.8140 C   0  0  0  0  0  2  0  0  0  0  0  0
  -28.4640  -20.4660   18.5270 C   0  0  1  0  0  0  0  0  0  0  0  0
  -29.9730  -20.1270   18.5460 C   0  0  0  0  0  3  0  0  0  0  0  0
  -29.9560  -21.6780   18.6750 C   0  0  1  0  0  0  0  0  0  0  0  0
  -29.2320  -22.0350   19.9270 N   0  0  1  0  0  4  0  0  0  0  0  0
  -29.8020  -21.7260   20.6980 H   0  0  0  0  0  0  0  0  0  0  0  0
  -30.0490  -18.1580   20.0840 C   0  0  0  0  0  0  0  0  0  0  0  0
  -30.4390  -19.3960   19.7320 N   0  0  0  0  0  0  0  0  0  0  0  0
  -29.1830  -17.5350   19.4670 O   0  0  0  0  0  0  0  0  0  0  0  0
  -31.2310  -19.7720   20.2370 H   0  0  0  0  0  0  0  0  0  0  0  0
  -30.7440  -18.4100   22.5650 C   0  0  0  0  0  2  0  0  0  0  0  0
  -30.7460  -17.5340   21.3070 C   0  0  0  0  0  3  0  0  0  0  0  0
  -29.9950  -17.3350   23.3190 C   0  0  0  0  0  3  0  0  0  0  0  0
  -29.9570  -16.4610   22.0770 C   0  0  1  0  0  0  0  0  0  0  0  0
  -28.6700  -16.7710   22.8710 C   0  0  2  0  0  0  0  0  0  0  0  0
  -27.6100  -17.7210   22.3380 C   0  0  0  0  0  1  0  0  0  0  0  0
  -27.9920  -15.7400   23.7640 C   0  0  0  0  0  1  0  0  0  0  0  0
  -30.6230  -15.0730   22.1000 C   0  0  0  0  0  2  0  0  0  0  0  0
  -30.7960  -14.3460   20.7510 C   0  0  0  0  0  0  0  0  0  0  0  0
  -30.4140  -12.3160   19.3860 C   0  0  0  0  0  2  0  0  0  0  0  0
  -29.4810  -12.5580   18.1890 C   0  0  0  0  0  2  0  0  0  0  0  0
  -28.0100  -12.3930   18.6070 C   0  0  0  0  0  2  0  0  0  0  0  0
  -27.6700  -13.2070   19.8830 C   0  0  0  0  0  3  0  0  0  0  0  0
  -28.7100  -12.9550   20.9980 C   0  0  0  0  0  2  0  0  0  0  0  0
  -30.0490  -13.2480   20.4630 N   0  0  0  0  0  0  0  0  0  0  0  0
  -31.7410  -14.6990   20.0370 O   0  0  0  0  0  0  0  0  0  0  0  0
  -25.2620  -13.8160   20.5650 C   0  0  0  0  0  0  0  0  0  0  0  0
  -24.1880  -13.0440   20.9150 C   0  0  0  0  0  0  0  0  0  0  0  0
  -24.6430  -11.6900   20.8730 C   0  0  0  0  0  0  0  0  0  0  0  0
  -26.3080  -12.9340   20.3400 N   0  0  0  0  0  0  0  0  0  0  0  0
  -25.9370  -11.6490   20.5760 N   0  0  0  0  0  0  0  0  0  0  0  0
  -23.9100  -10.4290   21.0400 C   0  0  0  0  0  0  0  0  0  0  0  0
  -24.3640   -9.4200   21.9180 C   0  0  0  0  0  3  0  0  0  0  0  0
  -23.6300   -8.2240   22.0760 C   0  0  0  0  0  3  0  0  0  0  0  0
  -22.4280   -8.0280   21.3550 C   0  0  0  0  0  0  0  0  0  0  0  0
  -21.9930   -9.0270   20.4650 C   0  0  0  0  0  3  0  0  0  0  0  0
  -22.7270  -10.2140   20.3050 C   0  0  0  0  0  3  0  0  0  0  0  0
  -21.6640   -6.8880   21.4240 O   0  0  0  0  0  0  0  0  0  0  0  0
  -21.6860   -6.0730   22.5270 C   0  0  0  0  0  0  0  0  0  0  0  0
  -21.4020   -6.5640   23.8210 C   0  0  0  0  0  3  0  0  0  0  0  0
  -21.3660   -5.6790   24.9170 C   0  0  0  0  0  3  0  0  0  0  0  0
  -21.6050   -4.3060   24.7220 C   0  0  0  0  0  0  0  0  0  0  0  0
  -21.8820   -3.8150   23.4340 C   0  0  0  0  0  3  0  0  0  0  0  0
  -21.9190   -4.6960   22.3400 C   0  0  0  0  0  0  0  0  0  0  0  0
  -22.1660   -4.2140   21.0980 F   0  0  0  0  0  0  0  0  0  0  0  0
  -21.5630   -3.4540   25.7740 F   0  0  0  0  0  0  0  0  0  0  0  0
  -22.7890  -13.5240   21.1810 C   0  0  0  0  0  0  0  0  0  0  0  0
  -22.0550  -12.8220   22.0370 N   0  0  0  0  0  0  0  0  0  0  0  0
  -22.3570  -14.5540   20.6670 O   0  0  0  0  0  0  0  0  0  0  0  0
  -22.4180  -11.9860   22.4720 H   0  0  0  0  0  0  0  0  0  0  0  0
  -21.1170  -13.1230   22.2590 H   0  0  0  0  0  0  0  0  0  0  0  0
  -25.4340  -15.1860   20.3990 N   0  0  0  0  0  0  0  0  0  0  0  0
  -24.6750  -15.8470   20.5080 H   0  0  0  0  0  0  0  0  0  0  0  0
  -26.2960  -15.6180   20.0910 H   0  0  0  0  0  0  0  0  0  0  0  0
  -28.9370  -23.4790   20.1310 C   0  0  0  0  0  2  0  0  0  0  0  0
  -28.7860  -23.8060   21.6320 C   0  0  0  0  0  2  0  0  0  0  0  0
  -28.2390  -25.2070   21.9870 C   0  0  0  0  0  2  0  0  0  0  0  0
  -28.9670  -26.4040   21.3380 C   0  0  0  0  0  2  0  0  0  0  0  0
  -28.3930  -26.7090   20.0640 O   0  0  0  0  0  0  0  0  0  0  0  0
  -24.6100  -31.8700   23.2130 C   0  0  0  0  0  0  0  0  0  0  0  0
  -27.2470  -27.4680   20.0980 C   0  0  0  0  0  0  0  0  0  0  0  0
  -23.3960  -30.4910   21.5530 C   0  0  0  0  0  3  0  0  0  0  0  0
  -24.8480  -28.9590   20.1160 C   0  0  0  0  0  0  0  0  0  0  0  0
  -25.9200  -30.8470   21.3600 C   0  0  0  0  0  2  0  0  0  0  0  0
  -26.0010  -29.4800   20.7160 C   0  0  0  0  0  0  0  0  0  0  0  0
  -27.2030  -28.7420   20.7090 C   0  0  0  0  0  3  0  0  0  0  0  0
  -26.0850  -26.9600   19.4840 C   0  0  0  0  0  3  0  0  0  0  0  0
  -24.8820  -27.6950   19.4980 C   0  0  0  0  0  3  0  0  0  0  0  0
  -23.6040  -29.8160   20.1690 C   0  0  0  0  0  2  0  0  0  0  0  0
  -24.6600  -31.0820   22.1020 N   0  0  0  0  0  0  0  0  0  0  0  0
  -23.5300  -32.1430   23.7550 O   0  0  0  0  0  0  0  0  0  0  0  0
  -22.7380  -29.4660   22.5020 C   0  0  0  0  0  0  0  0  0  0  0  0
  -21.4100  -29.3020   22.3760 N   0  0  0  0  0  0  0  0  0  0  0  0
  -23.4160  -28.8200   23.3040 O   0  0  0  0  0  0  0  0  0  0  0  0
  -20.9240  -29.8720   21.6970 H   0  0  0  0  0  0  0  0  0  0  0  0
  -18.0260  -28.1370   22.8510 C   0  0  0  0  0  0  0  0  0  0  0  0
  -20.5840  -28.3650   23.1340 C   0  0  0  0  0  3  0  0  0  0  0  0
  -20.6760  -26.9400   22.5420 C   0  0  0  0  0  2  0  0  0  0  0  0
  -19.5740  -26.6380   21.5210 C   0  0  0  0  0  2  0  0  0  0  0  0
  -18.1910  -26.7930   22.1610 C   0  0  0  0  0  2  0  0  0  0  0  0
  -19.1500  -28.8830   23.2920 C   0  0  0  0  0  0  0  0  0  0  0  0
  -18.9430  -30.1440   23.8920 C   0  0  0  0  0  3  0  0  0  0  0  0
  -17.6440  -30.6590   24.0550 C   0  0  0  0  0  3  0  0  0  0  0  0
  -16.5330  -29.9080   23.6330 C   0  0  0  0  0  3  0  0  0  0  0  0
  -16.7250  -28.6490   23.0380 C   0  0  0  0  0  3  0  0  0  0  0  0
  -25.9010  -32.4840   23.8410 C   0  0  0  0  0  3  0  0  0  0  0  0
  -25.5890  -33.8640   24.2360 N   0  0  0  0  0  0  0  0  0  0  0  0
  -25.9030  -34.9480   23.5140 C   0  0  0  0  0  0  0  0  0  0  0  0
  -26.5570  -34.8920   22.4690 O   0  0  0  0  0  0  0  0  0  0  0  0
  -25.0090  -33.9830   25.0530 H   0  0  0  0  0  0  0  0  0  0  0  0
  -24.1480  -36.7310   23.2630 C   0  0  0  0  0  1  0  0  0  0  0  0
  -25.4100  -36.3120   24.0340 C   0  0  0  0  0  3  0  0  0  0  0  0
  -27.5580  -37.1800   24.8460 C   0  0  0  0  0  1  0  0  0  0  0  0
  -26.4290  -37.3800   23.9420 N   0  0  0  0  0  0  0  0  0  0  0  0
  -26.0180  -38.2880   24.1440 H   0  0  0  0  0  0  0  0  0  0  0  0
  -26.4460  -31.6610   25.0710 C   0  0  1  0  0  0  0  0  0  0  0  0
  -25.3740  -31.3690   26.1460 C   0  0  0  0  0  1  0  0  0  0  0  0
  -27.0300  -30.3060   24.6070 C   0  0  0  0  0  1  0  0  0  0  0  0
  -27.6050  -32.4310   25.7480 C   0  0  0  0  0  1  0  0  0  0  0  0
  2  6  1  0
  3  1  1  6
  3  4  1  0
  3  5  1  0
  3  2  1  0
  4  5  1  0
  4  9  1  0
  5  1  1  6
  5  6  1  0
  6 56  1  0
  6  7  1  1
  9  8  1  0
  9 11  1  0
 10  8  2  0
 13  8  1  0
 13 15  1  0
 13 12  1  0
 14 12  1  0
 15 19  1  6
 15 16  1  0
 15 14  1  0
 16 14  1  0
 16 18  1  1
 17 16  1  0
 20 19  1  0
 21 26  1  0
 22 23  1  0
 22 21  1  0
 24 23  1  0
 24 31  1  0
 24 25  1  0
 26 20  1  0
 26 25  1  0
 27 20  2  0
 28 29  2  0
 29 48  1  0
 30 29  1  0
 30 33  1  0
 31 28  1  0
 31 32  1  0
 32 30  2  0
 33 34  1  0
 34 35  2  0
 36 39  1  0
 36 35  1  0
 37 36  2  0
 38 37  1  0
 38 33  2  0
 39 40  1  0
 40 41  1  0
 41 42  2  0
 43 42  1  0
 43 47  1  0
 44 43  2  0
 45 40  2  0
 45 44  1  0
 46 45  1  0
 48 49  1  0
 49 52  1  0
 49 51  1  0
 50 48  2  0
 53 54  1  0
 53 28  1  0
 55 53  1  0
 56 57  1  0
 57 58  1  0
 59 58  1  0
 60 62  1  0
 60 59  1  0
 61 72  2  0
 62 67  1  0
 63 71  1  0
 63 73  1  0
 64 70  1  0
 64 66  1  0
 65 71  1  0
 66 65  1  0
 67 66  2  0
 68 69  1  0
 68 62  2  0
 69 64  2  0
 70 63  1  0
 71 61  1  0
 73 75  2  0
 74 73  1  0
 76 74  1  0
 77 86  2  0
 77 82  1  0
 78 74  1  0
 78 82  1  0
 79 78  1  0
 80 81  1  0
 80 79  1  0
 81 77  1  0
 82 83  2  0
 83 84  1  0
 85 84  2  0
 86 85  1  0
 87 61  1  0
 87 88  1  0
 87 97  1  0
 88 91  1  0
 89 93  1  0
 89 88  1  0
 90 89  2  0
 93 92  1  0
 95 93  1  0
 95 96  1  0
 95 94  1  0
 97100  1  1
 97 98  1  0
 99 97  1  0
M  ISO  4  19 100  20 100  59 101  60 101
M  END
>  <TORSDO>  (89) 
F 23

>  <SCORE>  (89) 
7.244

>  <name>  (89) 
88

>  <ligand_id>  (89) 
88

>  <original_smiles>  (89) 
[H]c1c([H])c([H])c2c(c1[H])C([H])([H])C([H])([H])C([H])([H])C2([H])N([H])C(=O)C1([H])N(C(=O)C([H])(N([H])C(=O)C([H])(N([H])C([H])([H])[H])C([H])([H])[H])C(C([H])([H])[H])(C([H])([H])[H])C([H])([H])[H])C([H])([H])c2c([H])c(OC([H])([H])C([H])([H])C([H])([H])C([H])([H])[N+]3([H])C([H])([H])C4([H])C([H])([H])C3([H])C4([H])N([H])C(=O)C3([H])C([H])([H])C4([H])C(C([H])([H])[H])(C([H])([H])[H])C34C([H])([H])C(=O)N3C([H])([H])C([H])([H])C([H])([H])C([H])(n4nc(-c5c([H])c([H])c(Oc6c([H])c([H])c(F)c([H])c6F)c([H])c5[H])c(C(=O)N([H])[H])c4N([H])[H])C3([H])[H])c([H])c([H])c2C1([H])[H]

>  <smiles>  (89) 
[H]c1c([H])c([H])c2c(c1[H])C([H])([H])C([H])([H])C([H])([H])C2([H])N([H])C(=O)C1([H])N(C(=O)C([H])(N([H])C(=O)C([H])(N([H])C([H])([H])[H])C([H])([H])[H])C(C([H])([H])[H])(C([H])([H])[H])C([H])([H])[H])C([H])([H])c2c([H])c(OC([H])([H])C([H])([H])C([H])([H])C([H])([H])[N+]3([H])C([H])([H])C4([H])C([H])([H])C3([H])C4([H])N([H])C(=O)C3([H])C([H])([H])C4([H])C(C([H])([H])[H])(C([H])([H])[H])C34C([H])([H])C(=O)N3C([H])([H])C([H])([H])C([H])([H])C([H])(n4nc(-c5c([H])c([H])c(Oc6c([H])c([H])c(F)c([H])c6F)c([H])c5[H])c(C(=O)N([H])[H])c4N([H])[H])C3([H])[H])c([H])c([H])c2C1([H])[H]

$$$$
89:0:0
     RDKit          3D

 95104  0  0  1  0  0  0  0  0999 V2000
  -28.0390  -21.9830   22.5380 C   0  0  0  0  0  3  0  0  0  0  0  0
  -26.9720  -22.3960   21.7010 C   0  0  0  0  0  3  0  0  0  0  0  0
  -29.2290  -21.4590   21.9790 C   0  0  0  0  0  3  0  0  0  0  0  0
  -27.0760  -22.2870   20.2940 C   0  0  0  0  0  3  0  0  0  0  0  0
  -29.3140  -21.3640   20.5780 C   0  0  0  0  0  0  0  0  0  0  0  0
  -28.2730  -21.7650   19.7590 C   0  0  0  0  0  0  0  0  0  0  0  0
  -30.4400  -20.8180   19.7280 C   0  0  0  0  0  2  0  0  0  0  0  0
  -28.7080  -21.6270   18.3220 C   0  0  0  0  0  3  0  0  0  0  0  0
  -29.7870  -20.3930   18.4680 N   0  0  0  0  0  0  0  0  0  0  0  0
  -28.4500  -18.4810   19.7010 C   0  0  0  0  0  1  0  0  0  0  0  0
  -29.5060  -18.7830   18.6170 C   0  0  0  0  0  3  0  0  0  0  0  0
  -30.3960  -17.2610   18.3150 C   0  0  0  0  0  2  0  0  0  0  0  0
  -31.1920  -15.8730   19.0110 C   0  0  0  0  0  0  0  0  0  0  0  0
  -31.2150  -13.3100   18.6800 C   0  0  0  0  0  2  0  0  0  0  0  0
  -30.1990  -12.8050   17.6290 C   0  0  0  0  0  2  0  0  0  0  0  0
  -28.8140  -12.5890   18.2610 C   0  0  0  0  0  2  0  0  0  0  0  0
  -28.4100  -13.7620   19.1920 C   0  0  0  0  0  3  0  0  0  0  0  0
  -29.5440  -14.2050   20.1330 C   0  0  0  0  0  2  0  0  0  0  0  0
  -30.6840  -14.5810   19.2880 N   0  0  0  0  0  0  0  0  0  0  0  0
  -32.4190  -15.8440   18.8320 O   0  0  0  0  0  0  0  0  0  0  0  0
  -26.2860  -14.4310   20.4350 C   0  0  0  0  0  0  0  0  0  0  0  0
  -25.2300  -13.7140   20.9210 C   0  0  0  0  0  0  0  0  0  0  0  0
  -25.5300  -12.3440   20.6570 C   0  0  0  0  0  0  0  0  0  0  0  0
  -27.1670  -13.5040   19.9070 N   0  0  0  0  0  0  0  0  0  0  0  0
  -26.7370  -12.2310   20.1090 N   0  0  0  0  0  0  0  0  0  0  0  0
  -24.7090  -11.1420   20.8500 C   0  0  0  0  0  0  0  0  0  0  0  0
  -25.1720  -10.0400   21.6010 C   0  0  0  0  0  3  0  0  0  0  0  0
  -24.3510   -8.9050   21.7820 C   0  0  0  0  0  3  0  0  0  0  0  0
  -23.0530   -8.8680   21.2170 C   0  0  0  0  0  0  0  0  0  0  0  0
  -22.6060   -9.9600   20.4530 C   0  0  0  0  0  3  0  0  0  0  0  0
  -23.4290  -11.0830   20.2620 C   0  0  0  0  0  3  0  0  0  0  0  0
  -22.2000   -7.7960   21.3240 O   0  0  0  0  0  0  0  0  0  0  0  0
  -22.0700   -7.0960   22.4980 C   0  0  0  0  0  0  0  0  0  0  0  0
  -21.6850   -7.7280   23.7000 C   0  0  0  0  0  3  0  0  0  0  0  0
  -21.4870   -6.9620   24.8650 C   0  0  0  0  0  3  0  0  0  0  0  0
  -21.6650   -5.5650   24.8320 C   0  0  0  0  0  0  0  0  0  0  0  0
  -22.0430   -4.9350   23.6340 C   0  0  0  0  0  3  0  0  0  0  0  0
  -22.2430   -5.6970   22.4700 C   0  0  0  0  0  0  0  0  0  0  0  0
  -22.5840   -5.0810   21.3120 F   0  0  0  0  0  0  0  0  0  0  0  0
  -21.4660   -4.8290   25.9500 F   0  0  0  0  0  0  0  0  0  0  0  0
  -23.9660  -14.2840   21.4930 C   0  0  0  0  0  0  0  0  0  0  0  0
  -23.3220  -13.5500   22.3930 N   0  0  0  0  0  0  0  0  0  0  0  0
  -23.5690  -15.4040   21.1840 O   0  0  0  0  0  0  0  0  0  0  0  0
  -23.6680  -12.6430   22.6680 H   0  0  0  0  0  0  0  0  0  0  0  0
  -22.4810  -13.9050   22.8250 H   0  0  0  0  0  0  0  0  0  0  0  0
  -26.5510  -15.7930   20.3630 N   0  0  0  0  0  0  0  0  0  0  0  0
  -25.8560  -16.4830   20.6310 H   0  0  0  0  0  0  0  0  0  0  0  0
  -27.3410  -16.1910   19.8790 H   0  0  0  0  0  0  0  0  0  0  0  0
  -28.9500  -23.3020   17.8060 C   0  0  0  0  0  3  0  0  0  0  0  0
  -29.3990  -23.2360   16.4050 N   0  0  0  0  0  4  0  0  0  0  0  0
  -28.6540  -22.9850   15.7830 H   0  0  0  0  0  0  0  0  0  0  0  0
  -30.1300  -22.5470   16.3250 H   0  0  0  0  0  0  0  0  0  0  0  0
  -29.7880  -24.1150   16.1110 H   0  0  0  0  0  0  0  0  0  0  0  0
  -27.8730  -24.7050   17.9590 C   0  0  0  0  0  2  0  0  0  0  0  0
  -28.1060  -26.3140   17.9800 O   0  0  0  0  0  0  0  0  0  0  0  0
  -25.1610  -30.4940   23.4370 C   0  0  0  0  0  0  0  0  0  0  0  0
  -27.1350  -27.3160   18.4590 C   0  0  0  0  0  0  0  0  0  0  0  0
  -23.7280  -29.8900   21.5270 C   0  0  0  0  0  3  0  0  0  0  0  0
  -24.9320  -29.0220   19.4210 C   0  0  0  0  0  0  0  0  0  0  0  0
  -26.2660  -30.1640   21.1780 C   0  0  0  0  0  2  0  0  0  0  0  0
  -26.1960  -29.1500   20.0090 C   0  0  0  0  0  0  0  0  0  0  0  0
  -27.2960  -28.3290   19.5140 C   0  0  0  0  0  3  0  0  0  0  0  0
  -25.8440  -27.3280   17.8870 C   0  0  0  0  0  3  0  0  0  0  0  0
  -24.7750  -28.1350   18.3460 C   0  0  0  0  0  3  0  0  0  0  0  0
  -23.7720  -29.8390   19.9760 C   0  0  0  0  0  2  0  0  0  0  0  0
  -25.0790  -30.1830   22.1040 N   0  0  0  0  0  0  0  0  0  0  0  0
  -24.1520  -30.5420   24.1570 O   0  0  0  0  0  0  0  0  0  0  0  0
  -23.1040  -28.5830   22.0710 C   0  0  0  0  0  0  0  0  0  0  0  0
  -21.8280  -28.3200   21.7350 N   0  0  0  0  0  0  0  0  0  0  0  0
  -23.7750  -27.8110   22.7620 O   0  0  0  0  0  0  0  0  0  0  0  0
  -21.3360  -28.9990   21.1710 H   0  0  0  0  0  0  0  0  0  0  0  0
  -18.7200  -26.5280   21.2200 C   0  0  0  0  0  0  0  0  0  0  0  0
  -21.0790  -27.1140   22.1010 C   0  0  0  0  0  3  0  0  0  0  0  0
  -21.5670  -25.8890   21.2950 C   0  0  0  0  0  2  0  0  0  0  0  0
  -20.7630  -25.6490   20.0130 C   0  0  0  0  0  2  0  0  0  0  0  0
  -19.2850  -25.4220   20.3440 C   0  0  0  0  0  2  0  0  0  0  0  0
  -19.5630  -27.3330   22.0330 C   0  0  0  0  0  0  0  0  0  0  0  0
  -18.9870  -28.3650   22.8040 C   0  0  0  0  0  3  0  0  0  0  0  0
  -17.6000  -28.6030   22.7670 C   0  0  0  0  0  3  0  0  0  0  0  0
  -16.7680  -27.7950   21.9710 C   0  0  0  0  0  3  0  0  0  0  0  0
  -17.3290  -26.7570   21.2060 C   0  0  0  0  0  3  0  0  0  0  0  0
  -26.5260  -30.8190   24.1170 C   0  0  0  0  0  3  0  0  0  0  0  0
  -26.4400  -32.1810   24.6750 N   0  0  0  0  0  0  0  0  0  0  0  0
  -26.9370  -33.2810   24.0900 C   0  0  0  0  0  0  0  0  0  0  0  0
  -27.5820  -33.2450   23.0390 O   0  0  0  0  0  0  0  0  0  0  0  0
  -25.8810  -32.2930   25.5070 H   0  0  0  0  0  0  0  0  0  0  0  0
  -25.5270  -35.3650   24.0710 C   0  0  0  0  0  1  0  0  0  0  0  0
  -26.6780  -34.6330   24.7810 C   0  0  0  0  0  3  0  0  0  0  0  0
  -28.9460  -34.9760   25.6650 C   0  0  0  0  0  1  0  0  0  0  0  0
  -27.8720  -35.5090   24.8280 N   0  0  0  0  0  0  0  0  0  0  0  0
  -27.6270  -36.4300   25.1770 H   0  0  0  0  0  0  0  0  0  0  0  0
  -26.9170  -29.7910   25.2510 C   0  0  1  0  0  0  0  0  0  0  0  0
  -25.7700  -29.4930   26.2420 C   0  0  0  0  0  1  0  0  0  0  0  0
  -27.3730  -28.4450   24.6450 C   0  0  0  0  0  1  0  0  0  0  0  0
  -28.1150  -30.3360   26.0650 C   0  0  0  0  0  1  0  0  0  0  0  0
  2  1  2  0
  3  1  1  0
  4  2  1  0
  5  3  2  0
  6  4  2  0
  6  5  1  0
  7  5  1  0
  8 49  1  0
  8  9  1  0
  8  6  1  0
  9 11  1  0
  9  7  1  0
 11 10  1  0
 12 11  1  0
 12 13  1  0
 13 19  1  0
 14 19  1  0
 15 16  1  0
 15 14  1  0
 17 16  1  0
 17 24  1  0
 17 18  1  0
 19 18  1  0
 20 13  2  0
 21 22  2  0
 22 41  1  0
 23 26  1  0
 23 22  1  0
 24 25  1  0
 24 21  1  0
 25 23  2  0
 26 27  1  0
 27 28  2  0
 29 32  1  0
 29 28  1  0
 30 29  2  0
 31 30  1  0
 31 26  2  0
 32 33  1  0
 33 34  1  0
 34 35  2  0
 36 35  1  0
 36 40  1  0
 37 36  2  0
 38 33  2  0
 38 37  1  0
 39 38  1  0
 41 42  1  0
 42 44  1  0
 42 45  1  0
 43 41  2  0
 46 21  1  0
 46 47  1  0
 48 46  1  0
 49 54  1  0
 50 49  1  0
 51 50  1  0
 52 50  1  0
 53 50  1  0
 54 55  1  0
 55 57  1  0
 56 67  2  0
 57 62  1  0
 58 68  1  0
 58 66  1  0
 59 65  1  0
 59 61  1  0
 60 66  1  0
 61 60  1  0
 62 61  2  0
 63 64  1  0
 63 57  2  0
 64 59  2  0
 65 58  1  0
 66 56  1  0
 68 70  2  0
 69 68  1  0
 71 69  1  0
 72 77  1  0
 73 69  1  0
 74 73  1  0
 75 76  1  0
 75 74  1  0
 76 72  1  0
 77 73  1  0
 77 78  2  0
 79 78  1  0
 80 79  2  0
 81 72  2  0
 81 80  1  0
 82 56  1  0
 82 83  1  0
 82 92  1  0
 83 86  1  0
 84 83  1  0
 84 88  1  0
 85 84  2  0
 88 87  1  0
 88 90  1  0
 90 91  1  0
 90 89  1  0
 92 95  1  1
 92 93  1  0
 94 92  1  0
M  ISO  4  12 100  13 100  54 101  55 101
M  END
>  <TORSDO>  (90) 
F 21

>  <SCORE>  (90) 
-9.264

>  <name>  (90) 
89

>  <ligand_id>  (90) 
89

>  <original_smiles>  (90) 
[H]c1c([H])c([H])c2c(c1[H])C([H])([H])N(C([H])(C([H])([H])[H])C([H])([H])C(=O)N1C([H])([H])C([H])([H])C([H])([H])C([H])(n3nc(-c4c([H])c([H])c(Oc5c([H])c([H])c(F)c([H])c5F)c([H])c4[H])c(C(=O)N([H])[H])c3N([H])[H])C1([H])[H])C2([H])C([H])(C([H])([H])Oc1c([H])c([H])c2c(c1[H])C([H])([H])N(C(=O)C([H])(N([H])C(=O)C([H])(N([H])C([H])([H])[H])C([H])([H])[H])C(C([H])([H])[H])(C([H])([H])[H])C([H])([H])[H])C([H])(C(=O)N([H])C1([H])c3c([H])c([H])c([H])c([H])c3C([H])([H])C([H])([H])C1([H])[H])C2([H])[H])[N+]([H])([H])[H]

>  <smiles>  (90) 
[H]c1c([H])c([H])c2c(c1[H])C([H])([H])N(C([H])(C([H])([H])[H])C([H])([H])C(=O)N1C([H])([H])C([H])([H])C([H])([H])C([H])(n3nc(-c4c([H])c([H])c(Oc5c([H])c([H])c(F)c([H])c5F)c([H])c4[H])c(C(=O)N([H])[H])c3N([H])[H])C1([H])[H])C2([H])C([H])(C([H])([H])Oc1c([H])c([H])c2c(c1[H])C([H])([H])N(C(=O)C([H])(N([H])C(=O)C([H])(N([H])C([H])([H])[H])C([H])([H])[H])C(C([H])([H])[H])(C([H])([H])[H])C([H])([H])[H])C([H])(C(=O)N([H])C1([H])c3c([H])c([H])c([H])c([H])c3C([H])([H])C([H])([H])C1([H])[H])C2([H])[H])[N+]([H])([H])[H]

$$$$
90:0:0
     RDKit          3D

 89 97  0  0  1  0  0  0  0  0999 V2000
  -29.5220  -20.6300   20.0520 C   0  0  0  0  0  0  0  0  0  0  0  0
  -30.3980  -21.0390   18.8900 C   0  0  0  0  0  1  0  0  0  0  0  0
  -29.3550  -19.3260   20.4020 N   0  0  0  0  0  0  0  0  0  0  0  0
  -29.0550  -22.0310   20.8280 C   0  0  0  0  0  2  0  0  0  0  0  0
  -28.1000  -23.2940   20.2480 C   0  0  0  0  0  2  0  0  0  0  0  0
  -28.4580  -24.8930   19.8150 C   0  0  0  0  0  2  0  0  0  0  0  0
  -28.2890  -26.2940   20.4780 O   0  0  0  0  0  0  0  0  0  0  0  0
  -24.6360  -32.0030   23.3010 C   0  0  0  0  0  0  0  0  0  0  0  0
  -27.2180  -27.2470   20.3300 C   0  0  0  0  0  0  0  0  0  0  0  0
  -23.4420  -30.5930   21.6700 C   0  0  0  0  0  3  0  0  0  0  0  0
  -24.8900  -28.9980   20.2610 C   0  0  0  0  0  0  0  0  0  0  0  0
  -25.9950  -30.8510   21.5140 C   0  0  0  0  0  2  0  0  0  0  0  0
  -26.0630  -29.4480   20.8790 C   0  0  0  0  0  0  0  0  0  0  0  0
  -27.2200  -28.5850   20.9000 C   0  0  0  0  0  3  0  0  0  0  0  0
  -26.0210  -26.8910   19.6740 C   0  0  0  0  0  3  0  0  0  0  0  0
  -24.8830  -27.7320   19.6460 C   0  0  0  0  0  3  0  0  0  0  0  0
  -23.6680  -29.9020   20.2960 C   0  0  0  0  0  2  0  0  0  0  0  0
  -24.7110  -31.1730   22.2160 N   0  0  0  0  0  0  0  0  0  0  0  0
  -23.5470  -32.2940   23.8200 O   0  0  0  0  0  0  0  0  0  0  0  0
  -22.7570  -29.5980   22.6410 C   0  0  0  0  0  0  0  0  0  0  0  0
  -21.4350  -29.4130   22.4940 N   0  0  0  0  0  0  0  0  0  0  0  0
  -23.4200  -28.9940   23.4890 O   0  0  0  0  0  0  0  0  0  0  0  0
  -20.9540  -29.9550   21.7890 H   0  0  0  0  0  0  0  0  0  0  0  0
  -18.0560  -28.1850   22.9500 C   0  0  0  0  0  0  0  0  0  0  0  0
  -20.6060  -28.4840   23.2670 C   0  0  0  0  0  3  0  0  0  0  0  0
  -20.7360  -27.0390   22.7290 C   0  0  0  0  0  2  0  0  0  0  0  0
  -19.6620  -26.6810   21.6980 C   0  0  0  0  0  2  0  0  0  0  0  0
  -18.2640  -26.8230   22.3050 C   0  0  0  0  0  2  0  0  0  0  0  0
  -19.1560  -28.9690   23.3860 C   0  0  0  0  0  0  0  0  0  0  0  0
  -18.9070  -30.2420   23.9460 C   0  0  0  0  0  3  0  0  0  0  0  0
  -17.5910  -30.7270   24.0770 C   0  0  0  0  0  3  0  0  0  0  0  0
  -16.5070  -29.9370   23.6560 C   0  0  0  0  0  3  0  0  0  0  0  0
  -16.7400  -28.6690   23.0960 C   0  0  0  0  0  3  0  0  0  0  0  0
  -25.9110  -32.6460   23.9310 C   0  0  0  0  0  3  0  0  0  0  0  0
  -25.5940  -34.0420   24.2660 N   0  0  0  0  0  0  0  0  0  0  0  0
  -25.9180  -35.1020   23.5120 C   0  0  0  0  0  0  0  0  0  0  0  0
  -26.5860  -35.0060   22.4790 O   0  0  0  0  0  0  0  0  0  0  0  0
  -25.0090  -34.1930   25.0750 H   0  0  0  0  0  0  0  0  0  0  0  0
  -24.1770  -36.8870   23.1840 C   0  0  0  0  0  1  0  0  0  0  0  0
  -25.4300  -36.4870   23.9800 C   0  0  0  0  0  3  0  0  0  0  0  0
  -27.5690  -37.3820   24.7890 C   0  0  0  0  0  1  0  0  0  0  0  0
  -26.4540  -37.5470   23.8590 N   0  0  0  0  0  0  0  0  0  0  0  0
  -26.0420  -38.4630   24.0190 H   0  0  0  0  0  0  0  0  0  0  0  0
  -26.4230  -31.8820   25.2130 C   0  0  1  0  0  0  0  0  0  0  0  0
  -25.3260  -31.6290   26.2750 C   0  0  0  0  0  1  0  0  0  0  0  0
  -27.0320  -30.5140   24.8270 C   0  0  0  0  0  1  0  0  0  0  0  0
  -27.5570  -32.6920   25.8870 C   0  0  0  0  0  1  0  0  0  0  0  0
  -29.9410  -17.9950   19.7430 C   0  0  0  0  0  3  0  0  0  0  0  0
  -29.8480  -16.5150   20.5570 C   0  0  0  0  0  2  0  0  0  0  0  0
  -30.5440  -15.0720   20.0880 C   0  0  0  0  0  0  0  0  0  0  0  0
  -30.3830  -12.7270   19.1250 C   0  0  0  0  0  2  0  0  0  0  0  0
  -29.4170  -12.7150   17.9190 C   0  0  0  0  0  2  0  0  0  0  0  0
  -27.9700  -12.4880   18.3900 C   0  0  0  0  0  2  0  0  0  0  0  0
  -27.6000  -13.3880   19.5970 C   0  0  0  0  0  3  0  0  0  0  0  0
  -28.6910  -13.3850   20.6880 C   0  0  0  0  0  2  0  0  0  0  0  0
  -29.9500  -13.8030   20.0590 N   0  0  0  0  0  0  0  0  0  0  0  0
  -31.7060  -15.1210   19.6710 O   0  0  0  0  0  0  0  0  0  0  0  0
  -25.2400  -13.9240   20.4310 C   0  0  0  0  0  0  0  0  0  0  0  0
  -24.2000  -13.1310   20.8240 C   0  0  0  0  0  0  0  0  0  0  0  0
  -24.6770  -11.7870   20.7570 C   0  0  0  0  0  0  0  0  0  0  0  0
  -26.2850  -13.0640   20.1370 N   0  0  0  0  0  0  0  0  0  0  0  0
  -25.9570  -11.7730   20.4040 N   0  0  0  0  0  0  0  0  0  0  0  0
  -23.9720  -10.5130   20.9540 C   0  0  0  0  0  0  0  0  0  0  0  0
  -24.4220   -9.5580   21.8910 C   0  0  0  0  0  3  0  0  0  0  0  0
  -23.7170   -8.3500   22.0750 C   0  0  0  0  0  3  0  0  0  0  0  0
  -22.5480   -8.0870   21.3240 C   0  0  0  0  0  0  0  0  0  0  0  0
  -22.1200   -9.0290   20.3740 C   0  0  0  0  0  3  0  0  0  0  0  0
  -22.8240  -10.2300   20.1870 C   0  0  0  0  0  3  0  0  0  0  0  0
  -21.8130   -6.9290   21.4160 O   0  0  0  0  0  0  0  0  0  0  0  0
  -21.7430   -6.2140   22.5850 C   0  0  0  0  0  0  0  0  0  0  0  0
  -21.2660   -6.7880   23.7840 C   0  0  0  0  0  3  0  0  0  0  0  0
  -21.1430   -5.9980   24.9430 C   0  0  0  0  0  3  0  0  0  0  0  0
  -21.4890   -4.6330   24.9060 C   0  0  0  0  0  0  0  0  0  0  0  0
  -21.9590   -4.0590   23.7120 C   0  0  0  0  0  3  0  0  0  0  0  0
  -22.0840   -4.8470   22.5550 C   0  0  0  0  0  0  0  0  0  0  0  0
  -22.5180   -4.2840   21.4020 F   0  0  0  0  0  0  0  0  0  0  0  0
  -21.3650   -3.8710   26.0180 F   0  0  0  0  0  0  0  0  0  0  0  0
  -22.8080  -13.5860   21.1490 C   0  0  0  0  0  0  0  0  0  0  0  0
  -22.1180  -12.8700   22.0280 N   0  0  0  0  0  0  0  0  0  0  0  0
  -22.3430  -14.6150   20.6570 O   0  0  0  0  0  0  0  0  0  0  0  0
  -22.5080  -12.0410   22.4520 H   0  0  0  0  0  0  0  0  0  0  0  0
  -21.1840  -13.1580   22.2840 H   0  0  0  0  0  0  0  0  0  0  0  0
  -25.3850  -15.3000   20.2710 N   0  0  0  0  0  0  0  0  0  0  0  0
  -24.6210  -15.9460   20.4370 H   0  0  0  0  0  0  0  0  0  0  0  0
  -26.2270  -15.7540   19.9430 H   0  0  0  0  0  0  0  0  0  0  0  0
  -29.2680  -17.7290   18.3670 C   0  0  0  0  0  2  0  0  0  0  0  0
  -28.9990  -18.3500   15.8710 C   0  0  0  0  0  2  0  0  0  0  0  0
  -29.0600  -19.6900   16.5540 C   0  0  0  0  0  2  0  0  0  0  0  0
  -29.7770  -18.4980   17.1580 C   0  0  0  0  0  3  0  0  0  0  0  0
  1  3  2  0
  1  4  1  0
  2  1  1  0
  5  4  1  0
  6  5  1  0
  6  7  1  0
  8 19  2  0
  9  7  1  0
  9 14  1  0
 10 18  1  0
 10 20  1  0
 11 17  1  0
 11 13  1  0
 12 18  1  0
 13 14  2  0
 13 12  1  0
 15  9  2  0
 16 15  1  0
 16 11  2  0
 17 10  1  0
 18  8  1  0
 20 22  2  0
 21 20  1  0
 23 21  1  0
 24 33  2  0
 24 29  1  0
 25 21  1  0
 25 29  1  0
 26 25  1  0
 27 28  1  0
 27 26  1  0
 28 24  1  0
 29 30  2  0
 30 31  1  0
 32 31  2  0
 33 32  1  0
 34  8  1  0
 34 35  1  0
 34 44  1  0
 35 38  1  0
 36 40  1  0
 36 35  1  0
 37 36  2  0
 40 39  1  0
 42 40  1  0
 42 43  1  0
 42 41  1  0
 44 47  1  1
 44 45  1  0
 46 44  1  0
 48 86  1  0
 48  3  1  0
 48 49  1  0
 50 49  1  0
 51 56  1  0
 52 53  1  0
 52 51  1  0
 54 53  1  0
 54 61  1  0
 54 55  1  0
 56 50  1  0
 56 55  1  0
 57 50  2  0
 58 59  2  0
 59 78  1  0
 60 59  1  0
 60 63  1  0
 61 62  1  0
 61 58  1  0
 62 60  2  0
 63 64  1  0
 64 65  2  0
 66 69  1  0
 66 65  1  0
 67 66  2  0
 68 67  1  0
 68 63  2  0
 69 70  1  0
 70 71  1  0
 71 72  2  0
 73 72  1  0
 73 77  1  0
 74 73  2  0
 75 70  2  0
 75 74  1  0
 76 75  1  0
 78 79  1  0
 79 82  1  0
 79 81  1  0
 80 78  2  0
 83 58  1  0
 83 84  1  0
 85 83  1  0
 87 88  1  0
 87 89  1  0
 88 89  1  0
 89 86  1  0
M  ISO  4   6 101   7 101  49 100  50 100
M  END
>  <TORSDO>  (91) 
F 23

>  <SCORE>  (91) 
-13.205

>  <name>  (91) 
90

>  <ligand_id>  (91) 
90

>  <original_smiles>  (91) 
[H]c1c([H])c([H])c2c(c1[H])C([H])([H])C([H])([H])C([H])([H])C2([H])N([H])C(=O)C1([H])N(C(=O)C([H])(N([H])C(=O)C([H])(N([H])C([H])([H])[H])C([H])([H])[H])C(C([H])([H])[H])(C([H])([H])[H])C([H])([H])[H])C([H])([H])c2c([H])c(OC([H])([H])C([H])([H])C([H])([H])C(=NC([H])(C([H])([H])C(=O)N3C([H])([H])C([H])([H])C([H])([H])C([H])(n4nc(-c5c([H])c([H])c(Oc6c([H])c([H])c(F)c([H])c6F)c([H])c5[H])c(C(=O)N([H])[H])c4N([H])[H])C3([H])[H])C([H])([H])C3([H])C([H])([H])C3([H])[H])C([H])([H])[H])c([H])c([H])c2C1([H])[H]

>  <smiles>  (91) 
[H]c1c([H])c([H])c2c(c1[H])C([H])([H])C([H])([H])C([H])([H])C2([H])N([H])C(=O)C1([H])N(C(=O)C([H])(N([H])C(=O)C([H])(N([H])C([H])([H])[H])C([H])([H])[H])C(C([H])([H])[H])(C([H])([H])[H])C([H])([H])[H])C([H])([H])c2c([H])c(OC([H])([H])C([H])([H])C([H])([H])C(=NC([H])(C([H])([H])C(=O)N3C([H])([H])C([H])([H])C([H])([H])C([H])(n4nc(-c5c([H])c([H])c(Oc6c([H])c([H])c(F)c([H])c6F)c([H])c5[H])c(C(=O)N([H])[H])c4N([H])[H])C3([H])[H])C([H])([H])C3([H])C([H])([H])C3([H])[H])C([H])([H])[H])c([H])c([H])c2C1([H])[H]

$$$$
91:0:0
     RDKit          3D

 91 99  0  0  1  0  0  0  0  0999 V2000
  -30.1930  -20.1670   20.6460 C   0  0  0  0  0  0  0  0  0  0  0  0
  -29.2270  -21.1390   20.7260 N   0  0  0  0  0  0  0  0  0  0  0  0
  -31.3800  -20.4900   20.5670 O   0  0  0  0  0  0  0  0  0  0  0  0
  -28.2770  -20.7830   20.7200 H   0  0  0  0  0  0  0  0  0  0  0  0
  -31.0630  -17.4550   22.6950 C   0  0  0  0  0  2  0  0  0  0  0  0
  -32.2990  -17.7340   21.8230 C   0  0  0  0  0  2  0  0  0  0  0  0
  -29.7730  -18.1600   22.2060 C   0  0  0  0  0  2  0  0  0  0  0  0
  -32.0780  -17.4510   20.3220 C   0  0  0  0  0  2  0  0  0  0  0  0
  -29.7920  -18.6200   20.7200 C   0  0  0  0  0  3  0  0  0  0  0  0
  -30.5940  -17.5060   19.8730 C   0  0  0  0  0  3  0  0  0  0  0  0
  -29.9480  -16.0330   19.8980 C   0  0  0  0  0  2  0  0  0  0  0  0
  -30.7610  -14.7260   19.5040 C   0  0  0  0  0  0  0  0  0  0  0  0
  -30.4330  -12.4700   18.5010 C   0  0  0  0  0  2  0  0  0  0  0  0
  -29.3670  -12.6110   17.3910 C   0  0  0  0  0  2  0  0  0  0  0  0
  -27.9460  -12.4590   17.9750 C   0  0  0  0  0  2  0  0  0  0  0  0
  -27.7260  -13.3280   19.2410 C   0  0  0  0  0  3  0  0  0  0  0  0
  -28.9020  -13.1740   20.2310 C   0  0  0  0  0  2  0  0  0  0  0  0
  -30.1460  -13.4980   19.5200 N   0  0  0  0  0  0  0  0  0  0  0  0
  -31.8810  -14.8580   19.0040 O   0  0  0  0  0  0  0  0  0  0  0  0
  -25.4400  -13.9460   20.2430 C   0  0  0  0  0  0  0  0  0  0  0  0
  -24.4100  -13.1820   20.7170 C   0  0  0  0  0  0  0  0  0  0  0  0
  -24.8460  -11.8250   20.6150 C   0  0  0  0  0  0  0  0  0  0  0  0
  -26.4380  -13.0570   19.8760 N   0  0  0  0  0  0  0  0  0  0  0  0
  -26.0930  -11.7750   20.1600 N   0  0  0  0  0  0  0  0  0  0  0  0
  -24.1300  -10.5680   20.8650 C   0  0  0  0  0  0  0  0  0  0  0  0
  -24.5730   -9.6470   21.8410 C   0  0  0  0  0  3  0  0  0  0  0  0
  -23.8540   -8.4560   22.0800 C   0  0  0  0  0  3  0  0  0  0  0  0
  -22.6780   -8.1760   21.3430 C   0  0  0  0  0  0  0  0  0  0  0  0
  -22.2530   -9.0870   20.3600 C   0  0  0  0  0  3  0  0  0  0  0  0
  -22.9730  -10.2690   20.1190 C   0  0  0  0  0  3  0  0  0  0  0  0
  -21.9280   -7.0330   21.4890 O   0  0  0  0  0  0  0  0  0  0  0  0
  -21.7800   -6.4210   22.7070 C   0  0  0  0  0  0  0  0  0  0  0  0
  -21.2200   -7.0930   23.8160 C   0  0  0  0  0  3  0  0  0  0  0  0
  -21.0210   -6.4040   25.0280 C   0  0  0  0  0  3  0  0  0  0  0  0
  -21.3700   -5.0440   25.1340 C   0  0  0  0  0  0  0  0  0  0  0  0
  -21.9270   -4.3730   24.0300 C   0  0  0  0  0  3  0  0  0  0  0  0
  -22.1270   -5.0590   22.8190 C   0  0  0  0  0  0  0  0  0  0  0  0
  -22.6400   -4.4020   21.7520 F   0  0  0  0  0  0  0  0  0  0  0  0
  -21.1750   -4.3780   26.2980 F   0  0  0  0  0  0  0  0  0  0  0  0
  -23.0580  -13.6700   21.1530 C   0  0  0  0  0  0  0  0  0  0  0  0
  -22.4320  -12.9840   22.1010 N   0  0  0  0  0  0  0  0  0  0  0  0
  -22.5670  -14.6950   20.6810 O   0  0  0  0  0  0  0  0  0  0  0  0
  -22.8440  -12.1540   22.5050 H   0  0  0  0  0  0  0  0  0  0  0  0
  -21.5280  -13.2920   22.4290 H   0  0  0  0  0  0  0  0  0  0  0  0
  -25.6030  -15.3190   20.0680 N   0  0  0  0  0  0  0  0  0  0  0  0
  -24.8680  -15.9830   20.2830 H   0  0  0  0  0  0  0  0  0  0  0  0
  -26.4210  -15.7500   19.6590 H   0  0  0  0  0  0  0  0  0  0  0  0
  -29.3460  -22.5580   21.2410 C   0  0  0  0  0  2  0  0  0  0  0  0
  -29.3300  -23.8150   20.2540 C   0  0  0  0  0  2  0  0  0  0  0  0
  -28.1920  -24.9280   20.4190 C   0  0  0  0  0  2  0  0  0  0  0  0
  -28.4600  -26.3770   20.1690 O   0  0  0  0  0  0  0  0  0  0  0  0
  -24.5870  -31.7040   23.1640 C   0  0  0  0  0  0  0  0  0  0  0  0
  -27.3410  -27.2290   20.1050 C   0  0  0  0  0  0  0  0  0  0  0  0
  -23.4410  -30.2840   21.5070 C   0  0  0  0  0  3  0  0  0  0  0  0
  -24.9450  -28.7980   20.0780 C   0  0  0  0  0  0  0  0  0  0  0  0
  -25.9760  -30.6740   21.3520 C   0  0  0  0  0  2  0  0  0  0  0  0
  -26.0990  -29.3060   20.6900 C   0  0  0  0  0  0  0  0  0  0  0  0
  -27.3020  -28.5330   20.6950 C   0  0  0  0  0  3  0  0  0  0  0  0
  -26.1640  -26.7940   19.4530 C   0  0  0  0  0  3  0  0  0  0  0  0
  -24.9810  -27.5470   19.4510 C   0  0  0  0  0  3  0  0  0  0  0  0
  -23.6870  -29.6380   20.1220 C   0  0  0  0  0  2  0  0  0  0  0  0
  -24.6850  -30.9050   22.0630 N   0  0  0  0  0  0  0  0  0  0  0  0
  -23.4910  -31.9430   23.6910 O   0  0  0  0  0  0  0  0  0  0  0  0
  -22.8040  -29.2340   22.4510 C   0  0  0  0  0  0  0  0  0  0  0  0
  -21.4900  -28.9970   22.2990 N   0  0  0  0  0  0  0  0  0  0  0  0
  -23.4930  -28.6370   23.2810 O   0  0  0  0  0  0  0  0  0  0  0  0
  -20.9890  -29.5380   21.6080 H   0  0  0  0  0  0  0  0  0  0  0  0
  -18.1610  -27.6390   22.7230 C   0  0  0  0  0  0  0  0  0  0  0  0
  -20.6970  -28.0250   23.0550 C   0  0  0  0  0  3  0  0  0  0  0  0
  -20.8830  -26.5970   22.4940 C   0  0  0  0  0  2  0  0  0  0  0  0
  -19.8250  -26.2100   21.4550 C   0  0  0  0  0  2  0  0  0  0  0  0
  -18.4210  -26.2940   22.0650 C   0  0  0  0  0  2  0  0  0  0  0  0
  -19.2310  -28.4580   23.1740 C   0  0  0  0  0  0  0  0  0  0  0  0
  -18.9380  -29.7120   23.7510 C   0  0  0  0  0  3  0  0  0  0  0  0
  -17.6070  -30.1500   23.8820 C   0  0  0  0  0  3  0  0  0  0  0  0
  -16.5510  -29.3290   23.4470 C   0  0  0  0  0  3  0  0  0  0  0  0
  -16.8290  -28.0770   22.8720 C   0  0  0  0  0  3  0  0  0  0  0  0
  -25.8450  -32.3710   23.8000 C   0  0  0  0  0  3  0  0  0  0  0  0
  -25.4870  -33.7540   24.1450 N   0  0  0  0  0  0  0  0  0  0  0  0
  -25.7880  -34.8270   23.4020 C   0  0  0  0  0  0  0  0  0  0  0  0
  -26.4680  -34.7590   22.3740 O   0  0  0  0  0  0  0  0  0  0  0  0
  -24.8860  -33.8760   24.9480 H   0  0  0  0  0  0  0  0  0  0  0  0
  -24.0050  -36.5680   23.0570 C   0  0  0  0  0  1  0  0  0  0  0  0
  -25.2510  -36.1900   23.8750 C   0  0  0  0  0  3  0  0  0  0  0  0
  -27.3430  -37.1370   24.7480 C   0  0  0  0  0  1  0  0  0  0  0  0
  -26.2510  -37.2780   23.7890 N   0  0  0  0  0  0  0  0  0  0  0  0
  -25.8120  -38.1810   23.9420 H   0  0  0  0  0  0  0  0  0  0  0  0
  -26.3810  -31.6050   25.0720 C   0  0  1  0  0  0  0  0  0  0  0  0
  -25.2870  -31.3100   26.1240 C   0  0  0  0  0  1  0  0  0  0  0  0
  -27.0240  -30.2570   24.6700 C   0  0  0  0  0  1  0  0  0  0  0  0
  -27.4940  -32.4340   25.7530 C   0  0  0  0  0  1  0  0  0  0  0  0
  1  2  1  0
  2 48  1  0
  3  1  2  0
  4  2  1  0
  6  5  1  0
  7  5  1  0
  8  6  1  0
  9  1  1  0
  9  7  1  0
 10 11  1  0
 10  8  1  0
 10  9  1  0
 12 18  1  0
 12 11  1  0
 13 18  1  0
 14 15  1  0
 14 13  1  0
 16 15  1  0
 16 23  1  0
 16 17  1  0
 18 17  1  0
 19 12  2  0
 20 21  2  0
 21 40  1  0
 22 21  1  0
 22 25  1  0
 23 24  1  0
 23 20  1  0
 24 22  2  0
 25 26  1  0
 26 27  2  0
 28 31  1  0
 28 27  1  0
 29 28  2  0
 30 29  1  0
 30 25  2  0
 31 32  1  0
 32 37  2  0
 32 33  1  0
 33 34  2  0
 34 35  1  0
 35 39  1  0
 36 35  2  0
 37 36  1  0
 38 37  1  0
 40 41  1  0
 41 44  1  0
 41 43  1  0
 42 40  2  0
 45 20  1  0
 45 46  1  0
 47 45  1  0
 49 50  1  0
 49 48  1  0
 51 50  1  0
 52 63  2  0
 53 51  1  0
 53 58  1  0
 54 62  1  0
 54 64  1  0
 55 61  1  0
 55 57  1  0
 56 62  1  0
 57 58  2  0
 57 56  1  0
 59 53  2  0
 60 59  1  0
 60 55  2  0
 61 54  1  0
 62 52  1  0
 64 66  2  0
 65 64  1  0
 67 65  1  0
 68 77  2  0
 68 73  1  0
 69 65  1  0
 69 73  1  0
 70 69  1  0
 71 72  1  0
 71 70  1  0
 72 68  1  0
 73 74  2  0
 74 75  1  0
 76 75  2  0
 77 76  1  0
 78 52  1  0
 78 79  1  0
 78 88  1  0
 79 82  1  0
 80 84  1  0
 80 79  1  0
 81 80  2  0
 84 83  1  0
 86 84  1  0
 86 87  1  0
 86 85  1  0
 88 91  1  1
 88 89  1  0
 90 88  1  0
M  ISO  4  11 100  12 100  50 101  51 101
M  END
>  <TORSDO>  (92) 
F 21

>  <SCORE>  (92) 
-10.786

>  <name>  (92) 
91

>  <ligand_id>  (92) 
91

>  <original_smiles>  (92) 
[H]c1c([H])c([H])c2c(c1[H])C([H])([H])C([H])([H])C([H])([H])C2([H])N([H])C(=O)C1([H])N(C(=O)C([H])(N([H])C(=O)C([H])(N([H])C([H])([H])[H])C([H])([H])[H])C(C([H])([H])[H])(C([H])([H])[H])C([H])([H])[H])C([H])([H])c2c([H])c(OC([H])([H])C([H])([H])C([H])([H])N([H])C(=O)C3([H])C([H])([H])C([H])([H])C([H])([H])C([H])([H])C3([H])C([H])([H])C(=O)N3C([H])([H])C([H])([H])C([H])([H])C([H])(n4nc(-c5c([H])c([H])c(Oc6c([H])c([H])c(F)c([H])c6F)c([H])c5[H])c(C(=O)N([H])[H])c4N([H])[H])C3([H])[H])c([H])c([H])c2C1([H])[H]

>  <smiles>  (92) 
[H]c1c([H])c([H])c2c(c1[H])C([H])([H])C([H])([H])C([H])([H])C2([H])N([H])C(=O)C1([H])N(C(=O)C([H])(N([H])C(=O)C([H])(N([H])C([H])([H])[H])C([H])([H])[H])C(C([H])([H])[H])(C([H])([H])[H])C([H])([H])[H])C([H])([H])c2c([H])c(OC([H])([H])C([H])([H])C([H])([H])N([H])C(=O)C3([H])C([H])([H])C([H])([H])C([H])([H])C([H])([H])C3([H])C([H])([H])C(=O)N3C([H])([H])C([H])([H])C([H])([H])C([H])(n4nc(-c5c([H])c([H])c(Oc6c([H])c([H])c(F)c([H])c6F)c([H])c5[H])c(C(=O)N([H])[H])c4N([H])[H])C3([H])[H])c([H])c([H])c2C1([H])[H]

$$$$
92:0:0
     RDKit          3D

103112  0  0  1  0  0  0  0  0999 V2000
  -33.2040  -21.7160   18.2350 C   0  0  0  0  0  1  0  0  0  0  0  0
  -32.3190  -22.2280   19.3860 C   0  0  0  0  0  3  0  0  0  0  0  0
  -32.1740  -21.7930   23.7690 C   0  0  0  0  0  2  0  0  0  0  0  0
  -33.4810  -21.0190   23.6280 C   0  0  0  0  0  2  0  0  0  0  0  0
  -31.1050  -20.7850   23.3330 C   0  0  0  0  0  2  0  0  0  0  0  0
  -33.6640  -20.9000   21.0660 C   0  0  0  0  0  2  0  0  0  0  0  0
  -31.4070  -20.2750   20.8120 C   0  0  0  0  0  3  0  0  0  0  0  0
  -33.2900  -20.1620   22.3660 C   0  0  0  0  0  3  0  0  0  0  0  0
  -31.7730  -19.8870   22.2640 C   0  0  0  0  0  3  0  0  0  0  0  0
  -32.3690  -21.3610   20.5660 N   0  0  0  0  0  0  0  0  0  0  0  0
  -31.4820  -19.0190   19.9020 C   0  0  0  0  0  0  0  0  0  0  0  0
  -30.5560  -18.0970   20.1560 N   0  0  0  0  0  0  0  0  0  0  0  0
  -32.3690  -18.8430   19.0660 O   0  0  0  0  0  0  0  0  0  0  0  0
  -29.8770  -18.3400   20.8640 H   0  0  0  0  0  0  0  0  0  0  0  0
  -30.5800  -16.7170   19.7050 C   0  0  0  0  0  2  0  0  0  0  0  0
  -31.4730  -15.8950   20.6530 C   0  0  0  0  0  2  0  0  0  0  0  0
  -30.9390  -14.4860   20.9530 C   0  0  0  0  0  2  0  0  0  0  0  0
  -31.1400  -13.4800   19.8150 C   0  0  0  0  0  0  0  0  0  0  0  0
  -30.4250  -11.4710   18.5630 C   0  0  0  0  0  2  0  0  0  0  0  0
  -29.4070  -11.8670   17.4790 C   0  0  0  0  0  2  0  0  0  0  0  0
  -27.9750  -11.8770   18.0500 C   0  0  0  0  0  2  0  0  0  0  0  0
  -27.8690  -12.6680   19.3820 C   0  0  0  0  0  3  0  0  0  0  0  0
  -28.9960  -12.2590   20.3560 C   0  0  0  0  0  2  0  0  0  0  0  0
  -30.2860  -12.4310   19.6650 N   0  0  0  0  0  0  0  0  0  0  0  0
  -32.1130  -13.6440   19.0720 O   0  0  0  0  0  0  0  0  0  0  0  0
  -25.6110  -13.4950   20.3080 C   0  0  0  0  0  0  0  0  0  0  0  0
  -24.5150  -12.8280   20.7770 C   0  0  0  0  0  0  0  0  0  0  0  0
  -24.8360  -11.4350   20.7020 C   0  0  0  0  0  0  0  0  0  0  0  0
  -26.5440  -12.5200   19.9860 N   0  0  0  0  0  0  0  0  0  0  0  0
  -26.0830  -11.2760   20.2710 N   0  0  0  0  0  0  0  0  0  0  0  0
  -24.0130  -10.2480   20.9710 C   0  0  0  0  0  0  0  0  0  0  0  0
  -24.4190   -9.2720   21.9080 C   0  0  0  0  0  3  0  0  0  0  0  0
  -23.6080   -8.1460   22.1630 C   0  0  0  0  0  3  0  0  0  0  0  0
  -22.3750   -7.9910   21.4860 C   0  0  0  0  0  0  0  0  0  0  0  0
  -21.9850   -8.9570   20.5420 C   0  0  0  0  0  3  0  0  0  0  0  0
  -22.7950  -10.0760   20.2850 C   0  0  0  0  0  3  0  0  0  0  0  0
  -21.5340   -6.9160   21.6440 O   0  0  0  0  0  0  0  0  0  0  0  0
  -21.4880   -6.2120   22.8200 C   0  0  0  0  0  0  0  0  0  0  0  0
  -21.1540   -6.8270   24.0460 C   0  0  0  0  0  3  0  0  0  0  0  0
  -21.0450   -6.0490   25.2160 C   0  0  0  0  0  3  0  0  0  0  0  0
  -21.2630   -4.6600   25.1620 C   0  0  0  0  0  0  0  0  0  0  0  0
  -21.5890   -4.0470   23.9410 C   0  0  0  0  0  3  0  0  0  0  0  0
  -21.7000   -4.8200   22.7730 C   0  0  0  0  0  0  0  0  0  0  0  0
  -21.9930   -4.2190   21.5950 F   0  0  0  0  0  0  0  0  0  0  0  0
  -21.1530   -3.9120   26.2860 F   0  0  0  0  0  0  0  0  0  0  0  0
  -23.2000  -13.4320   21.1880 C   0  0  0  0  0  0  0  0  0  0  0  0
  -22.5000  -12.8010   22.1210 N   0  0  0  0  0  0  0  0  0  0  0  0
  -22.8060  -14.4970   20.7100 O   0  0  0  0  0  0  0  0  0  0  0  0
  -22.8370  -11.9420   22.5310 H   0  0  0  0  0  0  0  0  0  0  0  0
  -21.6180  -13.1820   22.4310 H   0  0  0  0  0  0  0  0  0  0  0  0
  -25.8910  -14.8460   20.1090 N   0  0  0  0  0  0  0  0  0  0  0  0
  -25.2080  -15.5710   20.2810 H   0  0  0  0  0  0  0  0  0  0  0  0
  -26.7570  -15.1990   19.7240 H   0  0  0  0  0  0  0  0  0  0  0  0
  -32.6110  -23.6740   19.9220 C   0  0  0  0  0  3  0  0  0  0  0  0
  -31.3250  -24.3520   20.2320 N   0  0  0  0  0  4  0  0  0  0  0  0
  -30.7890  -23.6900   20.7660 H   0  0  0  0  0  0  0  0  0  0  0  0
  -31.5060  -25.1290   20.8500 H   0  0  0  0  0  0  0  0  0  0  0  0
  -30.5020  -24.8380   19.0950 C   0  0  0  0  0  2  0  0  0  0  0  0
  -29.0270  -24.3610   19.1320 C   0  0  0  0  0  2  0  0  0  0  0  0
  -28.1850  -24.9150   20.2950 C   0  0  0  0  0  2  0  0  0  0  0  0
  -28.2200  -26.3460   20.3120 O   0  0  0  0  0  0  0  0  0  0  0  0
  -24.5490  -31.6980   23.1870 C   0  0  0  0  0  0  0  0  0  0  0  0
  -27.0420  -27.0610   20.2820 C   0  0  0  0  0  0  0  0  0  0  0  0
  -23.3050  -30.2960   21.5740 C   0  0  0  0  0  3  0  0  0  0  0  0
  -24.7050  -28.6480   20.2290 C   0  0  0  0  0  0  0  0  0  0  0  0
  -25.8440  -30.5460   21.3950 C   0  0  0  0  0  2  0  0  0  0  0  0
  -25.8760  -29.1520   20.8080 C   0  0  0  0  0  0  0  0  0  0  0  0
  -27.0470  -28.3660   20.8280 C   0  0  0  0  0  3  0  0  0  0  0  0
  -25.8520  -26.5710   19.7000 C   0  0  0  0  0  3  0  0  0  0  0  0
  -24.6850  -27.3570   19.6770 C   0  0  0  0  0  3  0  0  0  0  0  0
  -23.4990  -29.5620   20.2210 C   0  0  0  0  0  2  0  0  0  0  0  0
  -24.5850  -30.8630   22.1100 N   0  0  0  0  0  0  0  0  0  0  0  0
  -23.4720  -32.0260   23.7020 O   0  0  0  0  0  0  0  0  0  0  0  0
  -22.5970  -29.3340   22.5570 C   0  0  0  0  0  0  0  0  0  0  0  0
  -21.2630  -29.2170   22.4270 N   0  0  0  0  0  0  0  0  0  0  0  0
  -23.2480  -28.6960   23.3890 O   0  0  0  0  0  0  0  0  0  0  0  0
  -20.8070  -29.7890   21.7290 H   0  0  0  0  0  0  0  0  0  0  0  0
  -17.8300  -28.2270   22.9630 C   0  0  0  0  0  0  0  0  0  0  0  0
  -20.3990  -28.3400   23.2130 C   0  0  0  0  0  3  0  0  0  0  0  0
  -20.4130  -26.8960   22.6610 C   0  0  0  0  0  2  0  0  0  0  0  0
  -19.2860  -26.6210   21.6570 C   0  0  0  0  0  2  0  0  0  0  0  0
  -17.9180  -26.8600   22.3030 C   0  0  0  0  0  2  0  0  0  0  0  0
  -18.9940  -28.9290   23.3730 C   0  0  0  0  0  0  0  0  0  0  0  0
  -18.8520  -30.2130   23.9430 C   0  0  0  0  0  3  0  0  0  0  0  0
  -17.5810  -30.7940   24.1020 C   0  0  0  0  0  3  0  0  0  0  0  0
  -16.4300  -30.0880   23.7090 C   0  0  0  0  0  3  0  0  0  0  0  0
  -16.5560  -28.8050   23.1480 C   0  0  0  0  0  3  0  0  0  0  0  0
  -25.8520  -32.2940   23.8050 C   0  0  0  0  0  3  0  0  0  0  0  0
  -25.5770  -33.6960   24.1410 N   0  0  0  0  0  0  0  0  0  0  0  0
  -25.9250  -34.7410   23.3820 C   0  0  0  0  0  0  0  0  0  0  0  0
  -26.5780  -34.6260   22.3410 O   0  0  0  0  0  0  0  0  0  0  0  0
  -25.0090  -33.8640   24.9590 H   0  0  0  0  0  0  0  0  0  0  0  0
  -24.2330  -36.5740   23.0480 C   0  0  0  0  0  1  0  0  0  0  0  0
  -25.4730  -36.1400   23.8460 C   0  0  0  0  0  3  0  0  0  0  0  0
  -27.6400  -36.9700   24.6520 C   0  0  0  0  0  1  0  0  0  0  0  0
  -26.5250  -37.1710   23.7280 N   0  0  0  0  0  0  0  0  0  0  0  0
  -26.1420  -38.0980   23.8870 H   0  0  0  0  0  0  0  0  0  0  0  0
  -26.3590  -31.5100   25.0780 C   0  0  1  0  0  0  0  0  0  0  0  0
  -25.2700  -31.2910   26.1550 C   0  0  0  0  0  1  0  0  0  0  0  0
  -26.9160  -30.1230   24.6770 C   0  0  0  0  0  1  0  0  0  0  0  0
  -27.5240  -32.2850   25.7410 C   0  0  0  0  0  1  0  0  0  0  0  0
  -34.0360  -25.8500   19.8660 C   0  0  0  0  0  1  0  0  0  0  0  0
  -33.6550  -24.5370   19.1560 C   0  0  0  0  0  2  0  0  0  0  0  0
  2  1  1  0
  2 54  1  0
  2 10  1  0
  4  3  1  0
  5  3  1  0
  7 11  1  0
  7  9  1  0
  8  6  1  0
  8  4  1  0
  9  8  1  0
  9  5  1  0
 10  7  1  0
 10  6  1  0
 11 12  1  0
 12 14  1  0
 13 11  2  0
 15 12  1  0
 15 16  1  0
 16 17  1  0
 18 17  1  0
 19 24  1  0
 20 21  1  0
 20 19  1  0
 22 21  1  0
 22 29  1  0
 22 23  1  0
 24 18  1  0
 24 23  1  0
 25 18  2  0
 26 27  2  0
 27 46  1  0
 28 27  1  0
 28 31  1  0
 29 30  1  0
 29 26  1  0
 30 28  2  0
 31 32  1  0
 32 33  2  0
 34 37  1  0
 34 33  1  0
 35 34  2  0
 36 35  1  0
 36 31  2  0
 37 38  1  0
 38 39  1  0
 39 40  2  0
 41 40  1  0
 41 45  1  0
 42 41  2  0
 43 38  2  0
 43 42  1  0
 44 43  1  0
 46 47  1  0
 47 50  1  0
 47 49  1  0
 48 46  2  0
 51 52  1  0
 51 26  1  0
 53 51  1  0
 54103  1  0
 54 55  1  0
 55 56  1  0
 55 57  1  0
 58 59  1  0
 58 55  1  0
 59 60  1  0
 60 61  1  0
 62 73  2  0
 63 61  1  0
 63 68  1  0
 64 72  1  0
 64 74  1  0
 65 67  1  0
 66 72  1  0
 67 68  2  0
 67 66  1  0
 69 63  2  0
 70 69  1  0
 70 65  2  0
 71 65  1  0
 71 64  1  0
 72 62  1  0
 74 76  2  0
 75 74  1  0
 77 75  1  0
 78 87  2  0
 78 83  1  0
 79 75  1  0
 79 83  1  0
 80 79  1  0
 81 82  1  0
 81 80  1  0
 82 78  1  0
 83 84  2  0
 84 85  1  0
 86 85  2  0
 87 86  1  0
 88 62  1  0
 88 89  1  0
 88 98  1  0
 89 92  1  0
 90 94  1  0
 90 89  1  0
 91 90  2  0
 94 93  1  0
 96 94  1  0
 96 97  1  0
 96 95  1  0
 98101  1  1
 98 99  1  0
100 98  1  0
103102  1  0
M  ISO  4  17 100  18 100  60 101  61 101
M  END
>  <TORSDO>  (93) 
F 27

>  <SCORE>  (93) 
-10.524

>  <name>  (93) 
92

>  <ligand_id>  (93) 
92

>  <original_smiles>  (93) 
[H]c1c([H])c([H])c2c(c1[H])C([H])([H])C([H])([H])C([H])([H])C2([H])N([H])C(=O)C1([H])N(C(=O)C([H])(N([H])C(=O)C([H])(N([H])C([H])([H])[H])C([H])([H])[H])C(C([H])([H])[H])(C([H])([H])[H])C([H])([H])[H])C([H])([H])c2c([H])c(OC([H])([H])C([H])([H])C([H])([H])[N+]([H])([H])C([H])(C([H])([H])C([H])([H])[H])C([H])(N3C([H])([H])C4([H])C([H])([H])C([H])([H])C([H])([H])C4([H])C3([H])C(=O)N([H])C([H])([H])C([H])([H])C([H])([H])C(=O)N3C([H])([H])C([H])([H])C([H])([H])C([H])(n4nc(-c5c([H])c([H])c(Oc6c([H])c([H])c(F)c([H])c6F)c([H])c5[H])c(C(=O)N([H])[H])c4N([H])[H])C3([H])[H])C([H])([H])[H])c([H])c([H])c2C1([H])[H]

>  <smiles>  (93) 
[H]c1c([H])c([H])c2c(c1[H])C([H])([H])C([H])([H])C([H])([H])C2([H])N([H])C(=O)C1([H])N(C(=O)C([H])(N([H])C(=O)C([H])(N([H])C([H])([H])[H])C([H])([H])[H])C(C([H])([H])[H])(C([H])([H])[H])C([H])([H])[H])C([H])([H])c2c([H])c(OC([H])([H])C([H])([H])C([H])([H])[N+]([H])([H])C([H])(C([H])([H])C([H])([H])[H])C([H])(N3C([H])([H])C4([H])C([H])([H])C([H])([H])C([H])([H])C4([H])C3([H])C(=O)N([H])C([H])([H])C([H])([H])C([H])([H])C(=O)N3C([H])([H])C([H])([H])C([H])([H])C([H])(n4nc(-c5c([H])c([H])c(Oc6c([H])c([H])c(F)c([H])c6F)c([H])c5[H])c(C(=O)N([H])[H])c4N([H])[H])C3([H])[H])C([H])([H])[H])c([H])c([H])c2C1([H])[H]

$$$$
93:0:0
     RDKit          3D

 93102  0  0  1  0  0  0  0  0999 V2000
  -31.1530  -24.6120   17.3570 C   0  0  0  0  0  2  0  0  0  0  0  0
  -31.9240  -23.5310   18.1380 C   0  0  0  0  0  2  0  0  0  0  0  0
  -30.6080  -22.6530   20.2020 C   0  0  0  0  0  2  0  0  0  0  0  0
  -29.6260  -22.8400   17.8360 C   0  0  0  0  0  2  0  0  0  0  0  0
  -30.8110  -21.2750   20.8120 C   0  0  0  0  0  2  0  0  0  0  0  0
  -31.3140  -21.0570   18.5210 C   0  0  0  0  0  2  0  0  0  0  0  0
  -29.6660  -24.3560   17.6300 C   0  0  0  0  0  3  0  0  0  0  0  0
  -30.8810  -22.5200   18.6740 C   0  0  1  0  0  0  0  0  0  0  0  0
  -30.7230  -20.3540   19.6720 N   0  0  1  0  0  4  0  0  0  0  0  0
  -29.7480  -20.2240   19.4470 H   0  0  0  0  0  0  0  0  0  0  0  0
  -29.1660  -25.0740   18.8890 C   0  0  0  0  0  2  0  0  0  0  0  0
  -28.8770  -26.5470   18.7430 C   0  0  0  0  0  2  0  0  0  0  0  0
  -28.4560  -26.9080   20.0480 O   0  0  0  0  0  0  0  0  0  0  0  0
  -24.5860  -31.8820   23.2100 C   0  0  0  0  0  0  0  0  0  0  0  0
  -27.2410  -27.5190   20.1120 C   0  0  0  0  0  0  0  0  0  0  0  0
  -23.3710  -30.4710   21.5770 C   0  0  0  0  0  3  0  0  0  0  0  0
  -24.8230  -28.9400   20.1500 C   0  0  0  0  0  0  0  0  0  0  0  0
  -25.8820  -30.8610   21.3540 C   0  0  0  0  0  2  0  0  0  0  0  0
  -25.9700  -29.4890   20.7350 C   0  0  0  0  0  0  0  0  0  0  0  0
  -27.1780  -28.7720   20.7400 C   0  0  0  0  0  3  0  0  0  0  0  0
  -26.0800  -26.9490   19.5450 C   0  0  0  0  0  3  0  0  0  0  0  0
  -24.8650  -27.6610   19.5650 C   0  0  0  0  0  3  0  0  0  0  0  0
  -23.5710  -29.7840   20.1980 C   0  0  0  0  0  2  0  0  0  0  0  0
  -24.6320  -31.0830   22.1080 N   0  0  0  0  0  0  0  0  0  0  0  0
  -23.5090  -32.1520   23.7590 O   0  0  0  0  0  0  0  0  0  0  0  0
  -22.7360  -29.4450   22.5420 C   0  0  0  0  0  0  0  0  0  0  0  0
  -21.4110  -29.2590   22.4250 N   0  0  0  0  0  0  0  0  0  0  0  0
  -23.4300  -28.8180   23.3460 O   0  0  0  0  0  0  0  0  0  0  0  0
  -20.9110  -29.8160   21.7470 H   0  0  0  0  0  0  0  0  0  0  0  0
  -18.0470  -28.0700   22.9470 C   0  0  0  0  0  0  0  0  0  0  0  0
  -20.6060  -28.3190   23.2000 C   0  0  0  0  0  3  0  0  0  0  0  0
  -20.7010  -26.8900   22.6180 C   0  0  0  0  0  2  0  0  0  0  0  0
  -19.5910  -26.5740   21.6110 C   0  0  0  0  0  2  0  0  0  0  0  0
  -18.2140  -26.7220   22.2670 C   0  0  0  0  0  2  0  0  0  0  0  0
  -19.1710  -28.8280   23.3710 C   0  0  0  0  0  0  0  0  0  0  0  0
  -18.9600  -30.0930   23.9620 C   0  0  0  0  0  3  0  0  0  0  0  0
  -17.6580  -30.5990   24.1360 C   0  0  0  0  0  3  0  0  0  0  0  0
  -16.5490  -29.8370   23.7320 C   0  0  0  0  0  3  0  0  0  0  0  0
  -16.7440  -28.5740   23.1430 C   0  0  0  0  0  3  0  0  0  0  0  0
  -25.8770  -32.5150   23.8200 C   0  0  0  0  0  3  0  0  0  0  0  0
  -25.5650  -33.9070   24.1670 N   0  0  0  0  0  0  0  0  0  0  0  0
  -25.8840  -34.9660   23.4140 C   0  0  0  0  0  0  0  0  0  0  0  0
  -26.5460  -34.8770   22.3750 O   0  0  0  0  0  0  0  0  0  0  0  0
  -24.9830  -34.0520   24.9790 H   0  0  0  0  0  0  0  0  0  0  0  0
  -24.1410  -36.7450   23.0840 C   0  0  0  0  0  1  0  0  0  0  0  0
  -25.3900  -36.3470   23.8860 C   0  0  0  0  0  3  0  0  0  0  0  0
  -27.5240  -37.2330   24.7110 C   0  0  0  0  0  1  0  0  0  0  0  0
  -26.4160  -37.4070   23.7780 N   0  0  0  0  0  0  0  0  0  0  0  0
  -26.0060  -38.3230   23.9410 H   0  0  0  0  0  0  0  0  0  0  0  0
  -26.4220  -31.7320   25.0750 C   0  0  1  0  0  0  0  0  0  0  0  0
  -25.3460  -31.4650   26.1520 C   0  0  0  0  0  1  0  0  0  0  0  0
  -27.0170  -30.3700   24.6480 C   0  0  0  0  0  1  0  0  0  0  0  0
  -27.5760  -32.5280   25.7300 C   0  0  0  0  0  1  0  0  0  0  0  0
  -31.3170  -19.0400   19.9250 C   0  0  0  0  0  2  0  0  0  0  0  0
  -30.4290  -18.1410   20.8030 C   0  0  0  0  0  2  0  0  0  0  0  0
  -31.1060  -16.7770   20.8500 C   0  0  0  0  0  2  0  0  0  0  0  0
  -30.2310  -15.5670   21.2400 C   0  0  0  0  0  2  0  0  0  0  0  0
  -30.7720  -14.3170   20.5380 C   0  0  0  0  0  0  0  0  0  0  0  0
  -30.3040  -12.2580   19.3060 C   0  0  0  0  0  2  0  0  0  0  0  0
  -29.3850  -12.5730   18.1120 C   0  0  0  0  0  2  0  0  0  0  0  0
  -27.9090  -12.4780   18.5360 C   0  0  0  0  0  2  0  0  0  0  0  0
  -27.6040  -13.2910   19.8230 C   0  0  0  0  0  3  0  0  0  0  0  0
  -28.6530  -13.0270   20.9280 C   0  0  0  0  0  2  0  0  0  0  0  0
  -29.9930  -13.2270   20.3640 N   0  0  0  0  0  0  0  0  0  0  0  0
  -31.8970  -14.3880   20.0370 O   0  0  0  0  0  0  0  0  0  0  0  0
  -25.2080  -13.9170   20.5220 C   0  0  0  0  0  0  0  0  0  0  0  0
  -24.1340  -13.1530   20.8910 C   0  0  0  0  0  0  0  0  0  0  0  0
  -24.5870  -11.7980   20.8710 C   0  0  0  0  0  0  0  0  0  0  0  0
  -26.2490  -13.0290   20.3020 N   0  0  0  0  0  0  0  0  0  0  0  0
  -25.8780  -11.7500   20.5690 N   0  0  0  0  0  0  0  0  0  0  0  0
  -23.8530  -10.5390   21.0630 C   0  0  0  0  0  0  0  0  0  0  0  0
  -24.2870   -9.5620   21.9870 C   0  0  0  0  0  3  0  0  0  0  0  0
  -23.5510   -8.3720   22.1680 C   0  0  0  0  0  3  0  0  0  0  0  0
  -22.3690   -8.1480   21.4200 C   0  0  0  0  0  0  0  0  0  0  0  0
  -21.9560   -9.1110   20.4840 C   0  0  0  0  0  3  0  0  0  0  0  0
  -22.6930  -10.2940   20.3020 C   0  0  0  0  0  3  0  0  0  0  0  0
  -21.6060   -7.0090   21.5100 O   0  0  0  0  0  0  0  0  0  0  0  0
  -21.5710   -6.2530   22.6540 C   0  0  0  0  0  0  0  0  0  0  0  0
  -21.1860   -6.8010   23.8970 C   0  0  0  0  0  3  0  0  0  0  0  0
  -21.0980   -5.9730   25.0350 C   0  0  0  0  0  3  0  0  0  0  0  0
  -21.3850   -4.5990   24.9290 C   0  0  0  0  0  0  0  0  0  0  0  0
  -21.7630   -4.0500   23.6900 C   0  0  0  0  0  3  0  0  0  0  0  0
  -21.8520   -4.8750   22.5550 C   0  0  0  0  0  0  0  0  0  0  0  0
  -22.1960   -4.3390   21.3600 F   0  0  0  0  0  0  0  0  0  0  0  0
  -21.2910   -3.8010   26.0180 F   0  0  0  0  0  0  0  0  0  0  0  0
  -22.7380  -13.6390   21.1510 C   0  0  0  0  0  0  0  0  0  0  0  0
  -22.0040  -12.9530   22.0210 N   0  0  0  0  0  0  0  0  0  0  0  0
  -22.3050  -14.6610   20.6200 O   0  0  0  0  0  0  0  0  0  0  0  0
  -22.3690  -12.1270   22.4720 H   0  0  0  0  0  0  0  0  0  0  0  0
  -21.0650  -13.2550   22.2380 H   0  0  0  0  0  0  0  0  0  0  0  0
  -25.3900  -15.2840   20.3360 N   0  0  0  0  0  0  0  0  0  0  0  0
  -24.6380  -15.9550   20.4460 H   0  0  0  0  0  0  0  0  0  0  0  0
  -26.2570  -15.7070   20.0320 H   0  0  0  0  0  0  0  0  0  0  0  0
  1  7  1  0
  1  2  1  0
  8  2  1  6
  3  5  1  0
  6  8  1  0
  6  9  1  0
  7  4  1  0
  7 11  1  0
  8  4  1  0
  8  3  1  0
  9 54  1  0
  9  5  1  0
  9 10  1  6
 12 11  1  0
 12 13  1  0
 13 15  1  0
 14 25  2  0
 15 20  1  0
 16 24  1  0
 16 26  1  0
 17 23  1  0
 17 19  1  0
 18 24  1  0
 19 20  2  0
 19 18  1  0
 21 22  1  0
 21 15  2  0
 22 17  2  0
 23 16  1  0
 24 14  1  0
 26 28  2  0
 27 26  1  0
 29 27  1  0
 30 39  2  0
 30 35  1  0
 31 27  1  0
 31 35  1  0
 32 31  1  0
 33 34  1  0
 33 32  1  0
 34 30  1  0
 35 36  2  0
 36 37  1  0
 38 37  2  0
 39 38  1  0
 40 14  1  0
 40 41  1  0
 40 50  1  0
 41 44  1  0
 42 46  1  0
 42 41  1  0
 43 42  2  0
 46 45  1  0
 48 46  1  0
 48 49  1  0
 48 47  1  0
 50 53  1  1
 50 51  1  0
 52 50  1  0
 54 55  1  0
 55 56  1  0
 56 57  1  0
 58 57  1  0
 59 64  1  0
 60 61  1  0
 60 59  1  0
 62 61  1  0
 62 69  1  0
 62 63  1  0
 64 58  1  0
 64 63  1  0
 65 58  2  0
 66 67  2  0
 67 86  1  0
 68 67  1  0
 68 71  1  0
 69 66  1  0
 69 70  1  0
 70 68  2  0
 71 72  1  0
 72 73  2  0
 74 77  1  0
 74 73  1  0
 75 74  2  0
 76 75  1  0
 76 71  2  0
 77 78  1  0
 78 79  1  0
 79 80  2  0
 81 80  1  0
 81 85  1  0
 82 81  2  0
 83 78  2  0
 83 82  1  0
 84 83  1  0
 86 87  1  0
 87 90  1  0
 87 89  1  0
 88 86  2  0
 91 92  1  0
 91 66  1  0
 93 91  1  0
M  ISO  4  12 101  13 101  57 100  58 100
M  END
>  <TORSDO>  (94) 
F 22

>  <SCORE>  (94) 
-13.079

>  <name>  (94) 
93

>  <ligand_id>  (94) 
93

>  <original_smiles>  (94) 
[H]c1c([H])c([H])c2c(c1[H])C([H])([H])C([H])([H])C([H])([H])C2([H])N([H])C(=O)C1([H])N(C(=O)C([H])(N([H])C(=O)C([H])(N([H])C([H])([H])[H])C([H])([H])[H])C(C([H])([H])[H])(C([H])([H])[H])C([H])([H])[H])C([H])([H])c2c([H])c(OC([H])([H])C([H])([H])C3([H])C([H])([H])C([H])([H])C4(C3([H])[H])C([H])([H])C([H])([H])[N+]([H])(C([H])([H])C([H])([H])C([H])([H])C([H])([H])C(=O)N3C([H])([H])C([H])([H])C([H])([H])C([H])(n5nc(-c6c([H])c([H])c(Oc7c([H])c([H])c(F)c([H])c7F)c([H])c6[H])c(C(=O)N([H])[H])c5N([H])[H])C3([H])[H])C4([H])[H])c([H])c([H])c2C1([H])[H]

>  <smiles>  (94) 
[H]c1c([H])c([H])c2c(c1[H])C([H])([H])C([H])([H])C([H])([H])C2([H])N([H])C(=O)C1([H])N(C(=O)C([H])(N([H])C(=O)C([H])(N([H])C([H])([H])[H])C([H])([H])[H])C(C([H])([H])[H])(C([H])([H])[H])C([H])([H])[H])C([H])([H])c2c([H])c(OC([H])([H])C([H])([H])C3([H])C([H])([H])C([H])([H])C4(C3([H])[H])C([H])([H])C([H])([H])[N+]([H])(C([H])([H])C([H])([H])C([H])([H])C([H])([H])C(=O)N3C([H])([H])C([H])([H])C([H])([H])C([H])(n5nc(-c6c([H])c([H])c(Oc7c([H])c([H])c(F)c([H])c7F)c([H])c6[H])c(C(=O)N([H])[H])c5N([H])[H])C3([H])[H])C4([H])[H])c([H])c([H])c2C1([H])[H]

$$$$
94:0:0
     RDKit          3D

 97105  0  0  1  0  0  0  0  0999 V2000
  -30.0780  -23.3580   24.1700 C   0  0  0  0  0  1  0  0  0  0  0  0
  -29.7220  -22.2600   23.1510 C   0  0  0  0  0  3  0  0  0  0  0  0
  -28.4170  -22.5320   22.5010 N   0  0  0  0  0  4  0  0  0  0  0  0
  -27.9980  -21.6310   22.3350 H   0  0  0  0  0  0  0  0  0  0  0  0
  -27.7960  -23.0220   23.1260 H   0  0  0  0  0  0  0  0  0  0  0  0
  -28.4650  -23.1970   21.1770 C   0  0  0  0  0  2  0  0  0  0  0  0
  -28.2540  -24.7200   21.2520 C   0  0  0  0  0  2  0  0  0  0  0  0
  -28.5140  -25.4020   19.9000 C   0  0  0  0  0  2  0  0  0  0  0  0
  -28.4550  -26.8170   20.0470 O   0  0  0  0  0  0  0  0  0  0  0  0
  -24.6120  -31.8700   23.2130 C   0  0  0  0  0  0  0  0  0  0  0  0
  -27.2390  -27.4640   20.0810 C   0  0  0  0  0  0  0  0  0  0  0  0
  -23.3980  -30.4940   21.5550 C   0  0  0  0  0  3  0  0  0  0  0  0
  -24.8410  -28.9600   20.1210 C   0  0  0  0  0  0  0  0  0  0  0  0
  -25.9230  -30.8450   21.3580 C   0  0  0  0  0  2  0  0  0  0  0  0
  -25.9990  -29.4800   20.7080 C   0  0  0  0  0  0  0  0  0  0  0  0
  -27.2000  -28.7400   20.6810 C   0  0  0  0  0  3  0  0  0  0  0  0
  -26.0550  -26.9420   19.5070 C   0  0  0  0  0  3  0  0  0  0  0  0
  -24.8620  -27.6890   19.5220 C   0  0  0  0  0  3  0  0  0  0  0  0
  -23.6040  -29.8270   20.1690 C   0  0  0  0  0  2  0  0  0  0  0  0
  -24.6630  -31.0840   22.1010 N   0  0  0  0  0  0  0  0  0  0  0  0
  -23.5320  -32.1420   23.7560 O   0  0  0  0  0  0  0  0  0  0  0  0
  -22.7400  -29.4650   22.5010 C   0  0  0  0  0  0  0  0  0  0  0  0
  -21.4130  -29.3020   22.3740 N   0  0  0  0  0  0  0  0  0  0  0  0
  -23.4180  -28.8180   23.3030 O   0  0  0  0  0  0  0  0  0  0  0  0
  -20.9280  -29.8780   21.7010 H   0  0  0  0  0  0  0  0  0  0  0  0
  -18.0270  -28.1350   22.8480 C   0  0  0  0  0  0  0  0  0  0  0  0
  -20.5850  -28.3630   23.1310 C   0  0  0  0  0  3  0  0  0  0  0  0
  -20.6760  -26.9370   22.5410 C   0  0  0  0  0  2  0  0  0  0  0  0
  -19.5740  -26.6360   21.5190 C   0  0  0  0  0  2  0  0  0  0  0  0
  -18.1920  -26.7900   22.1600 C   0  0  0  0  0  2  0  0  0  0  0  0
  -19.1520  -28.8800   23.2900 C   0  0  0  0  0  0  0  0  0  0  0  0
  -18.9450  -30.1420   23.8900 C   0  0  0  0  0  3  0  0  0  0  0  0
  -17.6450  -30.6560   24.0550 C   0  0  0  0  0  3  0  0  0  0  0  0
  -16.5350  -29.9070   23.6300 C   0  0  0  0  0  3  0  0  0  0  0  0
  -16.7270  -28.6490   23.0330 C   0  0  0  0  0  3  0  0  0  0  0  0
  -25.9020  -32.4840   23.8410 C   0  0  0  0  0  3  0  0  0  0  0  0
  -26.4460  -31.6610   25.0730 C   0  0  1  0  0  0  0  0  0  0  0  0
  -25.3740  -31.3700   26.1490 C   0  0  0  0  0  1  0  0  0  0  0  0
  -27.0300  -30.3070   24.6060 C   0  0  0  0  0  1  0  0  0  0  0  0
  -27.6050  -32.4340   25.7470 C   0  0  0  0  0  1  0  0  0  0  0  0
  -25.5880  -33.8630   24.2350 N   0  0  0  0  0  0  0  0  0  0  0  0
  -25.9020  -34.9480   23.5140 C   0  0  0  0  0  0  0  0  0  0  0  0
  -26.5590  -34.8920   22.4710 O   0  0  0  0  0  0  0  0  0  0  0  0
  -25.0020  -33.9790   25.0490 H   0  0  0  0  0  0  0  0  0  0  0  0
  -24.1480  -36.7320   23.2640 C   0  0  0  0  0  1  0  0  0  0  0  0
  -25.4100  -36.3120   24.0350 C   0  0  0  0  0  3  0  0  0  0  0  0
  -27.5580  -37.1820   24.8470 C   0  0  0  0  0  1  0  0  0  0  0  0
  -26.4300  -37.3790   23.9410 N   0  0  0  0  0  0  0  0  0  0  0  0
  -26.0200  -38.2870   24.1420 H   0  0  0  0  0  0  0  0  0  0  0  0
  -29.6880  -20.8550   23.7920 C   0  0  0  0  0  2  0  0  0  0  0  0
  -31.0680  -20.3140   24.2120 C   0  0  0  0  0  2  0  0  0  0  0  0
  -30.8250  -18.5040   25.9750 C   0  0  0  0  0  0  0  0  0  0  0  0
  -31.0070  -18.8630   24.6830 C   0  0  0  0  0  0  0  0  0  0  0  0
  -30.8420  -17.0430   26.3960 C   0  0  0  0  0  2  0  0  0  0  0  0
  -31.2010  -17.8250   23.5720 C   0  0  0  0  0  2  0  0  0  0  0  0
  -31.4350  -16.1200   25.3170 C   0  0  0  0  0  2  0  0  0  0  0  0
  -30.5740  -19.4760   27.1180 C   0  0  0  0  0  1  0  0  0  0  0  0
  -30.8640  -16.4330   23.9850 N   0  0  2  0  0  4  0  0  0  0  0  0
  -29.8640  -16.3900   24.1090 H   0  0  0  0  0  0  0  0  0  0  0  0
  -31.2180  -15.4070   22.9630 C   0  0  0  0  0  2  0  0  0  0  0  0
  -30.3200  -15.4390   21.7040 C   0  0  0  0  0  2  0  0  0  0  0  0
  -30.7660  -14.3820   20.6770 C   0  0  0  0  0  0  0  0  0  0  0  0
  -30.4190  -12.2950   19.3980 C   0  0  0  0  0  2  0  0  0  0  0  0
  -29.4860  -12.5210   18.1940 C   0  0  0  0  0  2  0  0  0  0  0  0
  -28.0100  -12.3790   18.6130 C   0  0  0  0  0  2  0  0  0  0  0  0
  -27.6700  -13.2010   19.8860 C   0  0  0  0  0  3  0  0  0  0  0  0
  -28.7120  -12.9380   20.9980 C   0  0  0  0  0  2  0  0  0  0  0  0
  -30.0450  -13.2500   20.4540 N   0  0  0  0  0  0  0  0  0  0  0  0
  -31.8070  -14.6240   20.0590 O   0  0  0  0  0  0  0  0  0  0  0  0
  -25.2620  -13.8150   20.5690 C   0  0  0  0  0  0  0  0  0  0  0  0
  -24.1850  -13.0430   20.9160 C   0  0  0  0  0  0  0  0  0  0  0  0
  -24.6390  -11.6900   20.8720 C   0  0  0  0  0  0  0  0  0  0  0  0
  -26.3070  -12.9310   20.3430 N   0  0  0  0  0  0  0  0  0  0  0  0
  -25.9330  -11.6470   20.5770 N   0  0  0  0  0  0  0  0  0  0  0  0
  -23.9050  -10.4290   21.0390 C   0  0  0  0  0  0  0  0  0  0  0  0
  -24.3600   -9.4210   21.9170 C   0  0  0  0  0  3  0  0  0  0  0  0
  -23.6280   -8.2250   22.0750 C   0  0  0  0  0  3  0  0  0  0  0  0
  -22.4270   -8.0280   21.3550 C   0  0  0  0  0  0  0  0  0  0  0  0
  -21.9900   -9.0240   20.4650 C   0  0  0  0  0  3  0  0  0  0  0  0
  -22.7220  -10.2120   20.3050 C   0  0  0  0  0  3  0  0  0  0  0  0
  -21.6640   -6.8870   21.4240 O   0  0  0  0  0  0  0  0  0  0  0  0
  -21.6850   -6.0730   22.5270 C   0  0  0  0  0  0  0  0  0  0  0  0
  -21.4010   -6.5630   23.8200 C   0  0  0  0  0  3  0  0  0  0  0  0
  -21.3660   -5.6790   24.9170 C   0  0  0  0  0  3  0  0  0  0  0  0
  -21.6050   -4.3050   24.7230 C   0  0  0  0  0  0  0  0  0  0  0  0
  -21.8820   -3.8140   23.4350 C   0  0  0  0  0  3  0  0  0  0  0  0
  -21.9190   -4.6960   22.3400 C   0  0  0  0  0  0  0  0  0  0  0  0
  -22.1660   -4.2140   21.0980 F   0  0  0  0  0  0  0  0  0  0  0  0
  -21.5630   -3.4540   25.7740 F   0  0  0  0  0  0  0  0  0  0  0  0
  -22.7880  -13.5240   21.1820 C   0  0  0  0  0  0  0  0  0  0  0  0
  -22.0510  -12.8230   22.0380 N   0  0  0  0  0  0  0  0  0  0  0  0
  -22.3570  -14.5550   20.6680 O   0  0  0  0  0  0  0  0  0  0  0  0
  -22.4110  -11.9890   22.4770 H   0  0  0  0  0  0  0  0  0  0  0  0
  -21.1130  -13.1260   22.2580 H   0  0  0  0  0  0  0  0  0  0  0  0
  -25.4370  -15.1860   20.4110 N   0  0  0  0  0  0  0  0  0  0  0  0
  -24.6750  -15.8470   20.5200 H   0  0  0  0  0  0  0  0  0  0  0  0
  -26.2970  -15.6210   20.0990 H   0  0  0  0  0  0  0  0  0  0  0  0
  2 50  1  0
  2  1  1  0
  3  5  1  0
  3  2  1  0
  4  3  1  0
  6  7  1  0
  6  3  1  0
  8  9  1  0
  8  7  1  0
  9 11  1  0
 10 21  2  0
 11 16  1  0
 12 20  1  0
 12 22  1  0
 13 19  1  0
 13 15  1  0
 14 20  1  0
 15 14  1  0
 16 15  2  0
 17 18  1  0
 17 11  2  0
 18 13  2  0
 19 12  1  0
 20 10  1  0
 22 24  2  0
 23 22  1  0
 25 23  1  0
 26 35  2  0
 26 31  1  0
 27 23  1  0
 27 31  1  0
 28 27  1  0
 29 30  1  0
 29 28  1  0
 30 26  1  0
 31 32  2  0
 32 33  1  0
 34 33  2  0
 35 34  1  0
 36 10  1  0
 36 41  1  0
 36 37  1  0
 37 40  1  1
 37 38  1  0
 39 37  1  0
 41 44  1  0
 42 46  1  0
 42 41  1  0
 43 42  2  0
 46 45  1  0
 48 46  1  0
 48 49  1  0
 48 47  1  0
 50 51  1  0
 51 53  1  0
 52 54  1  0
 52 57  1  0
 53 52  2  0
 55 58  1  0
 55 53  1  0
 56 54  1  0
 58 59  1  1
 58 56  1  0
 60 58  1  0
 61 60  1  0
 62 61  1  0
 63 68  1  0
 64 65  1  0
 64 63  1  0
 66 65  1  0
 66 73  1  0
 66 67  1  0
 68 62  1  0
 68 67  1  0
 69 62  2  0
 70 71  2  0
 71 90  1  0
 72 71  1  0
 72 75  1  0
 73 70  1  0
 73 74  1  0
 74 72  2  0
 75 76  1  0
 76 77  2  0
 78 81  1  0
 78 77  1  0
 79 78  2  0
 80 79  1  0
 80 75  2  0
 81 82  1  0
 82 83  1  0
 83 84  2  0
 85 84  1  0
 85 89  1  0
 86 85  2  0
 87 82  2  0
 87 86  1  0
 88 87  1  0
 90 91  1  0
 91 94  1  0
 91 93  1  0
 92 90  2  0
 95 96  1  0
 95 70  1  0
 97 95  1  0
M  ISO  4   8 101   9 101  61 100  62 100
M  END
>  <TORSDO>  (95) 
F 25

>  <SCORE>  (95) 
14.511

>  <name>  (95) 
94

>  <ligand_id>  (95) 
94

>  <original_smiles>  (95) 
[H]c1c([H])c([H])c2c(c1[H])C([H])([H])C([H])([H])C([H])([H])C2([H])N([H])C(=O)C1([H])N(C(=O)C([H])(N([H])C(=O)C([H])(N([H])C([H])([H])[H])C([H])([H])[H])C(C([H])([H])[H])(C([H])([H])[H])C([H])([H])[H])C([H])([H])c2c([H])c(OC([H])([H])C([H])([H])C([H])([H])[N+]([H])([H])C([H])(C([H])([H])[H])C([H])([H])C([H])([H])C3=C(C([H])([H])[H])C([H])([H])C([H])([H])[N+]([H])(C([H])([H])C([H])([H])C(=O)N4C([H])([H])C([H])([H])C([H])([H])C([H])(n5nc(-c6c([H])c([H])c(Oc7c([H])c([H])c(F)c([H])c7F)c([H])c6[H])c(C(=O)N([H])[H])c5N([H])[H])C4([H])[H])C3([H])[H])c([H])c([H])c2C1([H])[H]

>  <smiles>  (95) 
[H]c1c([H])c([H])c2c(c1[H])C([H])([H])C([H])([H])C([H])([H])C2([H])N([H])C(=O)C1([H])N(C(=O)C([H])(N([H])C(=O)C([H])(N([H])C([H])([H])[H])C([H])([H])[H])C(C([H])([H])[H])(C([H])([H])[H])C([H])([H])[H])C([H])([H])c2c([H])c(OC([H])([H])C([H])([H])C([H])([H])[N+]([H])([H])C([H])(C([H])([H])[H])C([H])([H])C([H])([H])C3=C(C([H])([H])[H])C([H])([H])C([H])([H])[N+]([H])(C([H])([H])C([H])([H])C(=O)N4C([H])([H])C([H])([H])C([H])([H])C([H])(n5nc(-c6c([H])c([H])c(Oc7c([H])c([H])c(F)c([H])c7F)c([H])c6[H])c(C(=O)N([H])[H])c5N([H])[H])C4([H])[H])C3([H])[H])c([H])c([H])c2C1([H])[H]

$$$$
95:0:0
     RDKit          3D

 86 94  0  0  1  0  0  0  0  0999 V2000
  -28.9470  -21.1420   19.5890 C   0  0  0  0  0  2  0  0  0  0  0  0
  -28.5420  -16.9680   20.3620 C   0  0  0  0  0  2  0  0  0  0  0  0
  -29.7740  -16.7040   19.8660 C   0  0  0  0  0  0  0  0  0  0  0  0
  -28.1770  -18.4540   20.4280 C   0  0  0  0  0  0  0  0  0  0  0  0
  -30.2860  -18.2330   19.5300 C   0  0  0  0  0  3  0  0  0  0  0  0
  -29.3320  -19.4830   20.1740 C   0  0  0  0  0  3  0  0  0  0  0  0
  -27.0380  -18.8560   20.6680 O   0  0  0  0  0  0  0  0  0  0  0  0
  -30.5010  -15.2560   19.7110 C   0  0  0  0  0  0  0  0  0  0  0  0
  -30.4320  -12.7860   18.9490 C   0  0  0  0  0  2  0  0  0  0  0  0
  -29.4640  -12.5700   17.7590 C   0  0  0  0  0  2  0  0  0  0  0  0
  -28.0350  -12.3070   18.2620 C   0  0  0  0  0  2  0  0  0  0  0  0
  -27.6310  -13.2800   19.3980 C   0  0  0  0  0  3  0  0  0  0  0  0
  -28.7310  -13.4540   20.4650 C   0  0  0  0  0  2  0  0  0  0  0  0
  -29.9320  -13.9500   19.7750 N   0  0  0  0  0  0  0  0  0  0  0  0
  -31.6920  -15.2060   19.3740 O   0  0  0  0  0  0  0  0  0  0  0  0
  -25.3030  -13.8130   20.2890 C   0  0  0  0  0  0  0  0  0  0  0  0
  -24.2730  -13.0250   20.7250 C   0  0  0  0  0  0  0  0  0  0  0  0
  -24.7510  -11.6800   20.6660 C   0  0  0  0  0  0  0  0  0  0  0  0
  -26.3370  -12.9480   19.9820 N   0  0  0  0  0  0  0  0  0  0  0  0
  -26.0220  -11.6590   20.2790 N   0  0  0  0  0  0  0  0  0  0  0  0
  -24.0450  -10.4110   20.9000 C   0  0  0  0  0  0  0  0  0  0  0  0
  -24.4920   -9.4810   21.8640 C   0  0  0  0  0  3  0  0  0  0  0  0
  -23.7820   -8.2800   22.0850 C   0  0  0  0  0  3  0  0  0  0  0  0
  -22.6110   -7.9990   21.3410 C   0  0  0  0  0  0  0  0  0  0  0  0
  -22.1830   -8.9170   20.3650 C   0  0  0  0  0  3  0  0  0  0  0  0
  -22.8950  -10.1100   20.1420 C   0  0  0  0  0  3  0  0  0  0  0  0
  -21.8720   -6.8470   21.4690 O   0  0  0  0  0  0  0  0  0  0  0  0
  -21.7670   -6.1890   22.6680 C   0  0  0  0  0  0  0  0  0  0  0  0
  -21.2420   -6.8160   23.8190 C   0  0  0  0  0  3  0  0  0  0  0  0
  -21.0850   -6.0830   25.0120 C   0  0  0  0  0  3  0  0  0  0  0  0
  -21.4430   -4.7230   25.0550 C   0  0  0  0  0  0  0  0  0  0  0  0
  -21.9630   -4.0940   23.9100 C   0  0  0  0  0  3  0  0  0  0  0  0
  -22.1210   -4.8250   22.7190 C   0  0  0  0  0  0  0  0  0  0  0  0
  -22.5990   -4.2090   21.6120 F   0  0  0  0  0  0  0  0  0  0  0  0
  -21.2860   -4.0160   26.1980 F   0  0  0  0  0  0  0  0  0  0  0  0
  -22.8890  -13.4880   21.0700 C   0  0  0  0  0  0  0  0  0  0  0  0
  -22.2210  -12.7980   21.9880 N   0  0  0  0  0  0  0  0  0  0  0  0
  -22.4110  -14.5020   20.5620 O   0  0  0  0  0  0  0  0  0  0  0  0
  -22.6270  -11.9850   22.4260 H   0  0  0  0  0  0  0  0  0  0  0  0
  -21.2900  -13.0890   22.2540 H   0  0  0  0  0  0  0  0  0  0  0  0
  -25.4400  -15.1850   20.0990 N   0  0  0  0  0  0  0  0  0  0  0  0
  -24.6740  -15.8310   20.2540 H   0  0  0  0  0  0  0  0  0  0  0  0
  -26.2420  -15.6210   19.6650 H   0  0  0  0  0  0  0  0  0  0  0  0
  -28.8410  -22.7740   20.3250 C   0  0  0  0  0  3  0  0  0  0  0  0
  -28.1240  -24.3290   19.7940 C   0  0  0  0  0  3  0  0  0  0  0  0
  -28.2200  -25.8890   20.2910 O   0  0  0  0  0  0  0  0  0  0  0  0
  -24.5200  -31.7340   23.2270 C   0  0  0  0  0  0  0  0  0  0  0  0
  -27.2040  -26.9660   20.1810 C   0  0  0  0  0  0  0  0  0  0  0  0
  -23.3890  -30.3690   21.5190 C   0  0  0  0  0  3  0  0  0  0  0  0
  -24.8920  -28.8140   20.1020 C   0  0  0  0  0  0  0  0  0  0  0  0
  -25.9540  -30.6070   21.4590 C   0  0  0  0  0  2  0  0  0  0  0  0
  -26.0540  -29.2180   20.7720 C   0  0  0  0  0  0  0  0  0  0  0  0
  -27.2040  -28.3120   20.7910 C   0  0  0  0  0  3  0  0  0  0  0  0
  -26.0200  -26.7140   19.4550 C   0  0  0  0  0  3  0  0  0  0  0  0
  -24.8990  -27.5840   19.4240 C   0  0  0  0  0  3  0  0  0  0  0  0
  -23.6650  -29.7230   20.1330 C   0  0  0  0  0  2  0  0  0  0  0  0
  -24.6410  -30.9280   22.1230 N   0  0  0  0  0  0  0  0  0  0  0  0
  -23.4130  -32.0030   23.7200 O   0  0  0  0  0  0  0  0  0  0  0  0
  -22.6760  -29.3440   22.4380 C   0  0  0  0  0  0  0  0  0  0  0  0
  -21.3510  -29.1720   22.2660 N   0  0  0  0  0  0  0  0  0  0  0  0
  -23.3180  -28.7050   23.2740 O   0  0  0  0  0  0  0  0  0  0  0  0
  -20.8860  -29.7390   21.5700 H   0  0  0  0  0  0  0  0  0  0  0  0
  -17.9580  -27.9510   22.6590 C   0  0  0  0  0  0  0  0  0  0  0  0
  -20.5110  -28.2110   22.9880 C   0  0  0  0  0  3  0  0  0  0  0  0
  -20.6270  -26.7970   22.3720 C   0  0  0  0  0  2  0  0  0  0  0  0
  -19.5490  -26.5050   21.3240 C   0  0  0  0  0  2  0  0  0  0  0  0
  -18.1530  -26.6260   21.9410 C   0  0  0  0  0  2  0  0  0  0  0  0
  -19.0650  -28.7030   23.1370 C   0  0  0  0  0  0  0  0  0  0  0  0
  -18.8290  -29.9420   23.7690 C   0  0  0  0  0  3  0  0  0  0  0  0
  -17.5180  -30.4320   23.9280 C   0  0  0  0  0  3  0  0  0  0  0  0
  -16.4250  -29.6770   23.4650 C   0  0  0  0  0  3  0  0  0  0  0  0
  -16.6470  -28.4390   22.8360 C   0  0  0  0  0  3  0  0  0  0  0  0
  -25.7670  -32.3690   23.9150 C   0  0  0  0  0  3  0  0  0  0  0  0
  -26.1930  -31.6210   25.2400 C   0  0  1  0  0  0  0  0  0  0  0  0
  -25.0310  -31.4190   26.2430 C   0  0  0  0  0  1  0  0  0  0  0  0
  -26.7810  -30.2270   24.9220 C   0  0  0  0  0  1  0  0  0  0  0  0
  -27.3090  -32.4170   25.9560 C   0  0  0  0  0  1  0  0  0  0  0  0
  -25.4520  -33.7790   24.2090 N   0  0  0  0  0  0  0  0  0  0  0  0
  -25.8100  -34.8210   23.4470 C   0  0  0  0  0  0  0  0  0  0  0  0
  -26.5050  -34.6960   22.4350 O   0  0  0  0  0  0  0  0  0  0  0  0
  -24.8340  -33.9490   24.9890 H   0  0  0  0  0  0  0  0  0  0  0  0
  -24.0920  -36.6180   23.0490 C   0  0  0  0  0  1  0  0  0  0  0  0
  -25.3270  -36.2220   23.8730 C   0  0  0  0  0  3  0  0  0  0  0  0
  -27.4540  -37.1250   24.7030 C   0  0  0  0  0  1  0  0  0  0  0  0
  -26.3640  -37.2690   23.7430 N   0  0  0  0  0  0  0  0  0  0  0  0
  -25.9590  -38.1940   23.8570 H   0  0  0  0  0  0  0  0  0  0  0  0
  1 44  1  0
  2  4  1  0
  3  2  1  0
  4  7  2  0
  5  3  2  0
  5  6  1  0
  6  1  1  0
  6  4  1  0
  8 14  1  0
  8  3  1  0
  9 14  1  0
 10 11  1  0
 10  9  1  0
 12 11  1  0
 12 19  1  0
 12 13  1  0
 14 13  1  0
 15  8  2  0
 16 17  2  0
 17 36  1  0
 18 17  1  0
 18 21  1  0
 19 20  1  0
 19 16  1  0
 20 18  2  0
 21 22  1  0
 22 23  2  0
 24 27  1  0
 24 23  1  0
 25 24  2  0
 26 25  1  0
 26 21  2  0
 27 28  1  0
 28 33  2  0
 28 29  1  0
 29 30  2  0
 30 31  1  0
 31 35  1  0
 32 31  2  0
 33 32  1  0
 34 33  1  0
 36 37  1  0
 37 40  1  0
 37 39  1  0
 38 36  2  0
 41 42  1  0
 41 16  1  0
 43 41  1  0
 45 46  1  0
 45 44  2  0
 47 58  2  0
 48 46  1  0
 48 53  1  0
 49 57  1  0
 49 59  1  0
 50 56  1  0
 50 52  1  0
 51 57  1  0
 52 53  2  0
 52 51  1  0
 54 48  2  0
 55 54  1  0
 55 50  2  0
 56 49  1  0
 57 47  1  0
 59 61  2  0
 60 59  1  0
 62 60  1  0
 63 72  2  0
 63 68  1  0
 64 60  1  0
 64 68  1  0
 65 64  1  0
 66 67  1  0
 66 65  1  0
 67 63  1  0
 68 69  2  0
 69 70  1  0
 71 70  2  0
 72 71  1  0
 73 47  1  0
 73 78  1  0
 73 74  1  0
 74 77  1  1
 74 75  1  0
 76 74  1  0
 78 81  1  0
 79 83  1  0
 79 78  1  0
 80 79  2  0
 83 82  1  0
 85 86  1  0
 85 83  1  0
 85 84  1  0
M  ISO  4   3 100   8 100  45 101  46 101
M  END
>  <TORSDO>  (96) 
F 19

>  <SCORE>  (96) 
-14.887

>  <name>  (96) 
95

>  <ligand_id>  (96) 
95

>  <original_smiles>  (96) 
[H]C1=C(C(=O)N2C([H])([H])C([H])([H])C([H])([H])C([H])(n3nc(-c4c([H])c([H])c(Oc5c([H])c([H])c(F)c([H])c5F)c([H])c4[H])c(C(=O)N([H])[H])c3N([H])[H])C2([H])[H])C([H])([H])C([H])(C([H])([H])C([H])([H])C([H])([H])Oc2c([H])c([H])c3c(c2[H])C([H])([H])N(C(=O)C([H])(N([H])C(=O)C([H])(N([H])C([H])([H])[H])C([H])([H])[H])C(C([H])([H])[H])(C([H])([H])[H])C([H])([H])[H])C([H])(C(=O)N([H])C2([H])c4c([H])c([H])c([H])c([H])c4C([H])([H])C([H])([H])C2([H])[H])C3([H])[H])C1=O

>  <smiles>  (96) 
[H]C1=C(C(=O)N2C([H])([H])C([H])([H])C([H])([H])C([H])(n3nc(-c4c([H])c([H])c(Oc5c([H])c([H])c(F)c([H])c5F)c([H])c4[H])c(C(=O)N([H])[H])c3N([H])[H])C2([H])[H])C([H])([H])C([H])(C([H])([H])C([H])([H])C([H])([H])Oc2c([H])c([H])c3c(c2[H])C([H])([H])N(C(=O)C([H])(N([H])C(=O)C([H])(N([H])C([H])([H])[H])C([H])([H])[H])C(C([H])([H])[H])(C([H])([H])[H])C([H])([H])[H])C([H])(C(=O)N([H])C2([H])c4c([H])c([H])c([H])c([H])c4C([H])([H])C([H])([H])C2([H])[H])C3([H])[H])C1=O

$$$$
96:0:0
     RDKit          3D

 93103  0  0  1  0  0  0  0  0999 V2000
  -31.1110  -17.1030   19.1450 C   0  0  0  0  0  2  0  0  0  0  0  0
  -30.6990  -18.5750   19.2410 C   0  0  0  0  0  2  0  0  0  0  0  0
  -29.1280  -17.1550   20.4730 C   0  0  0  0  0  2  0  0  0  0  0  0
  -28.3260  -19.8330   17.5830 C   0  0  0  0  0  2  0  0  0  0  0  0
  -27.1270  -20.9050   19.6910 C   0  0  0  0  0  2  0  0  0  0  0  0
  -30.4990  -16.3730   20.3570 C   0  0  0  0  0  3  0  0  0  0  0  0
  -27.2090  -19.8590   18.5920 C   0  0  0  0  0  3  0  0  0  0  0  0
  -28.2420  -18.7480   18.6440 C   0  0  0  0  0  3  0  0  0  0  0  0
  -28.4600  -21.1650   20.4150 C   0  0  0  0  0  3  0  0  0  0  0  0
  -29.2590  -18.6330   19.7960 C   0  0  2  0  0  0  0  0  0  0  0  0
  -29.1650  -19.8380   20.7420 N   0  0  0  0  0  4  0  0  0  0  0  0
  -28.6490  -19.4890   21.5330 H   0  0  0  0  0  0  0  0  0  0  0  0
  -30.0850  -20.0370   21.1030 H   0  0  0  0  0  0  0  0  0  0  0  0
  -30.8740  -14.8080   20.2510 C   0  0  0  0  0  0  0  0  0  0  0  0
  -30.5270  -12.5050   19.3960 C   0  0  0  0  0  2  0  0  0  0  0  0
  -29.6440  -12.5410   18.1330 C   0  0  0  0  0  2  0  0  0  0  0  0
  -28.1700  -12.3920   18.5390 C   0  0  0  0  0  2  0  0  0  0  0  0
  -27.7700  -13.3430   19.6980 C   0  0  0  0  0  3  0  0  0  0  0  0
  -28.8090  -13.3920   20.8390 C   0  0  0  0  0  2  0  0  0  0  0  0
  -30.1220  -13.6530   20.2510 N   0  0  0  0  0  0  0  0  0  0  0  0
  -32.0660  -14.6830   19.9700 O   0  0  0  0  0  0  0  0  0  0  0  0
  -25.3870  -13.9220   20.4310 C   0  0  0  0  0  0  0  0  0  0  0  0
  -24.3210  -13.1460   20.7950 C   0  0  0  0  0  0  0  0  0  0  0  0
  -24.7850  -11.7950   20.7660 C   0  0  0  0  0  0  0  0  0  0  0  0
  -26.4310  -13.0450   20.1940 N   0  0  0  0  0  0  0  0  0  0  0  0
  -26.0770  -11.7590   20.4630 N   0  0  0  0  0  0  0  0  0  0  0  0
  -24.0550  -10.5330   20.9510 C   0  0  0  0  0  0  0  0  0  0  0  0
  -24.4530   -9.5810   21.9160 C   0  0  0  0  0  3  0  0  0  0  0  0
  -23.7220   -8.3860   22.0880 C   0  0  0  0  0  3  0  0  0  0  0  0
  -22.5770   -8.1330   21.2950 C   0  0  0  0  0  0  0  0  0  0  0  0
  -22.1980   -9.0740   20.3200 C   0  0  0  0  0  3  0  0  0  0  0  0
  -22.9300  -10.2590   20.1470 C   0  0  0  0  0  3  0  0  0  0  0  0
  -21.8200   -6.9890   21.3740 O   0  0  0  0  0  0  0  0  0  0  0  0
  -21.7120   -6.2770   22.5420 C   0  0  0  0  0  0  0  0  0  0  0  0
  -21.1770   -6.8490   23.7160 C   0  0  0  0  0  3  0  0  0  0  0  0
  -21.0190   -6.0620   24.8740 C   0  0  0  0  0  3  0  0  0  0  0  0
  -21.3860   -4.7030   24.8580 C   0  0  0  0  0  0  0  0  0  0  0  0
  -21.9150   -4.1300   23.6880 C   0  0  0  0  0  3  0  0  0  0  0  0
  -22.0750   -4.9140   22.5320 C   0  0  0  0  0  0  0  0  0  0  0  0
  -22.5630   -4.3520   21.4010 F   0  0  0  0  0  0  0  0  0  0  0  0
  -21.2290   -3.9450   25.9680 F   0  0  0  0  0  0  0  0  0  0  0  0
  -22.9230  -13.6240   21.0570 C   0  0  0  0  0  0  0  0  0  0  0  0
  -22.1890  -12.9260   21.9170 N   0  0  0  0  0  0  0  0  0  0  0  0
  -22.4910  -14.6520   20.5360 O   0  0  0  0  0  0  0  0  0  0  0  0
  -22.5520  -12.0940   22.3570 H   0  0  0  0  0  0  0  0  0  0  0  0
  -21.2510  -13.2290   22.1370 H   0  0  0  0  0  0  0  0  0  0  0  0
  -25.5510  -15.2910   20.2540 N   0  0  0  0  0  0  0  0  0  0  0  0
  -24.7810  -15.9430   20.3520 H   0  0  0  0  0  0  0  0  0  0  0  0
  -26.3970  -15.7260   19.9100 H   0  0  0  0  0  0  0  0  0  0  0  0
  -29.2900  -22.4160   19.8230 C   0  0  0  0  0  2  0  0  0  0  0  0
  -29.1340  -23.9250   20.3970 C   0  0  0  0  0  3  0  0  0  0  0  0
  -28.2720  -25.0490   19.6470 C   0  0  0  0  0  3  0  0  0  0  0  0
  -28.4120  -26.5000   20.0090 O   0  0  0  0  0  0  0  0  0  0  0  0
  -24.4490  -31.7110   23.0730 C   0  0  0  0  0  0  0  0  0  0  0  0
  -27.3010  -27.3640   19.9060 C   0  0  0  0  0  0  0  0  0  0  0  0
  -23.3570  -30.3750   21.3090 C   0  0  0  0  0  3  0  0  0  0  0  0
  -24.9110  -28.9480   19.8600 C   0  0  0  0  0  0  0  0  0  0  0  0
  -25.8950  -30.7590   21.2620 C   0  0  0  0  0  2  0  0  0  0  0  0
  -26.0390  -29.4200   20.5430 C   0  0  0  0  0  0  0  0  0  0  0  0
  -27.2360  -28.6390   20.5600 C   0  0  0  0  0  3  0  0  0  0  0  0
  -26.1600  -26.9750   19.1690 C   0  0  0  0  0  3  0  0  0  0  0  0
  -24.9770  -27.7350   19.1600 C   0  0  0  0  0  3  0  0  0  0  0  0
  -23.6500  -29.7870   19.9040 C   0  0  0  0  0  2  0  0  0  0  0  0
  -24.5820  -30.9640   21.9390 N   0  0  0  0  0  0  0  0  0  0  0  0
  -23.3360  -31.9330   23.5720 O   0  0  0  0  0  0  0  0  0  0  0  0
  -22.6820  -29.2900   22.1820 C   0  0  0  0  0  0  0  0  0  0  0  0
  -21.3520  -29.1470   22.0510 N   0  0  0  0  0  0  0  0  0  0  0  0
  -23.3550  -28.5840   22.9380 O   0  0  0  0  0  0  0  0  0  0  0  0
  -20.8690  -29.7690   21.4160 H   0  0  0  0  0  0  0  0  0  0  0  0
  -17.9470  -28.0350   22.5530 C   0  0  0  0  0  0  0  0  0  0  0  0
  -20.5220  -28.1620   22.7460 C   0  0  0  0  0  3  0  0  0  0  0  0
  -20.5390  -26.8020   22.0100 C   0  0  0  0  0  2  0  0  0  0  0  0
  -19.3890  -26.6400   21.0120 C   0  0  0  0  0  2  0  0  0  0  0  0
  -18.0390  -26.7650   21.7240 C   0  0  0  0  0  2  0  0  0  0  0  0
  -19.1120  -28.6980   23.0200 C   0  0  0  0  0  0  0  0  0  0  0  0
  -18.9700  -29.8930   23.7590 C   0  0  0  0  0  3  0  0  0  0  0  0
  -17.6950  -30.4230   24.0330 C   0  0  0  0  0  3  0  0  0  0  0  0
  -16.5440  -29.7550   23.5820 C   0  0  0  0  0  3  0  0  0  0  0  0
  -16.6720  -28.5620   22.8480 C   0  0  0  0  0  3  0  0  0  0  0  0
  -25.6850  -32.3410   23.7850 C   0  0  0  0  0  3  0  0  0  0  0  0
  -26.1200  -31.5560   25.0840 C   0  0  1  0  0  0  0  0  0  0  0  0
  -24.9600  -31.3020   26.0730 C   0  0  0  0  0  1  0  0  0  0  0  0
  -26.7320  -30.1850   24.7170 C   0  0  0  0  0  1  0  0  0  0  0  0
  -27.2240  -32.3460   25.8270 C   0  0  0  0  0  1  0  0  0  0  0  0
  -25.3470  -33.7340   24.1110 N   0  0  0  0  0  0  0  0  0  0  0  0
  -25.7240  -34.7990   23.3920 C   0  0  0  0  0  0  0  0  0  0  0  0
  -26.4620  -34.7120   22.4060 O   0  0  0  0  0  0  0  0  0  0  0  0
  -24.6940  -33.8740   24.8690 H   0  0  0  0  0  0  0  0  0  0  0  0
  -24.0280  -36.6010   22.9370 C   0  0  0  0  0  1  0  0  0  0  0  0
  -25.2020  -36.1790   23.8350 C   0  0  0  0  0  3  0  0  0  0  0  0
  -27.2530  -37.0570   24.8610 C   0  0  0  0  0  1  0  0  0  0  0  0
  -26.2410  -37.2320   23.8230 N   0  0  0  0  0  0  0  0  0  0  0  0
  -25.8230  -38.1520   23.9390 H   0  0  0  0  0  0  0  0  0  0  0  0
  1  2  1  0
  1  6  1  0
  5  9  1  0
  6 14  1  0
  6  3  1  0
  7  4  1  0
  7  8  1  0
  7  5  1  0
  8  4  1  0
  8 10  1  0
  9 50  1  0
  9 11  1  0
 10  2  1  6
 10  3  1  0
 10 11  1  0
 11 13  1  0
 11 12  1  0
 15 20  1  0
 16 17  1  0
 16 15  1  0
 18 17  1  0
 18 25  1  0
 18 19  1  0
 20 14  1  0
 20 19  1  0
 21 14  2  0
 22 23  2  0
 23 42  1  0
 24 23  1  0
 24 27  1  0
 25 22  1  0
 25 26  1  0
 26 24  2  0
 27 28  1  0
 28 29  2  0
 30 33  1  0
 30 29  1  0
 31 30  2  0
 32 31  1  0
 32 27  2  0
 33 34  1  0
 34 35  1  0
 35 36  2  0
 37 36  1  0
 37 41  1  0
 38 37  2  0
 39 34  2  0
 39 38  1  0
 40 39  1  0
 42 43  1  0
 43 46  1  0
 43 45  1  0
 44 42  2  0
 47 48  1  0
 47 22  1  0
 49 47  1  0
 50 51  1  0
 52 53  1  0
 52 51  2  0
 54 65  2  0
 55 53  1  0
 55 60  1  0
 56 64  1  0
 56 66  1  0
 57 63  1  0
 57 59  1  0
 58 64  1  0
 59 60  2  0
 59 58  1  0
 61 55  2  0
 62 61  1  0
 62 57  2  0
 63 56  1  0
 64 54  1  0
 66 68  2  0
 67 66  1  0
 69 67  1  0
 70 79  2  0
 70 75  1  0
 71 67  1  0
 71 75  1  0
 72 71  1  0
 73 74  1  0
 73 72  1  0
 74 70  1  0
 75 76  2  0
 76 77  1  0
 78 77  2  0
 79 78  1  0
 80 54  1  0
 80 85  1  0
 80 81  1  0
 81 84  1  1
 81 82  1  0
 83 81  1  0
 85 88  1  0
 86 90  1  0
 86 85  1  0
 87 86  2  0
 90 89  1  0
 92 90  1  0
 92 93  1  0
 92 91  1  0
M  ISO  4   6 100  14 100  52 101  53 101
M  END
>  <TORSDO>  (97) 
F 19

>  <SCORE>  (97) 
-14.135

>  <name>  (97) 
96

>  <ligand_id>  (97) 
96

>  <original_smiles>  (97) 
[H]c1c([H])c([H])c2c(c1[H])C([H])([H])C([H])([H])C([H])([H])C2([H])N([H])C(=O)C1([H])N(C(=O)C([H])(N([H])C(=O)C([H])(N([H])C([H])([H])[H])C([H])([H])[H])C(C([H])([H])[H])(C([H])([H])[H])C([H])([H])[H])C([H])([H])c2c([H])c(OC([H])([H])C([H])([H])C([H])([H])C3([H])C([H])([H])C4([H])C([H])([H])C4([H])C4(C([H])([H])C([H])([H])C([H])(C(=O)N5C([H])([H])C([H])([H])C([H])([H])C([H])(n6nc(-c7c([H])c([H])c(Oc8c([H])c([H])c(F)c([H])c8F)c([H])c7[H])c(C(=O)N([H])[H])c6N([H])[H])C5([H])[H])C4([H])[H])[N+]3([H])[H])c([H])c([H])c2C1([H])[H]

>  <smiles>  (97) 
[H]c1c([H])c([H])c2c(c1[H])C([H])([H])C([H])([H])C([H])([H])C2([H])N([H])C(=O)C1([H])N(C(=O)C([H])(N([H])C(=O)C([H])(N([H])C([H])([H])[H])C([H])([H])[H])C(C([H])([H])[H])(C([H])([H])[H])C([H])([H])[H])C([H])([H])c2c([H])c(OC([H])([H])C([H])([H])C([H])([H])C3([H])C([H])([H])C4([H])C([H])([H])C4([H])C4(C([H])([H])C([H])([H])C([H])(C(=O)N5C([H])([H])C([H])([H])C([H])([H])C([H])(n6nc(-c7c([H])c([H])c(Oc8c([H])c([H])c(F)c([H])c8F)c([H])c7[H])c(C(=O)N([H])[H])c6N([H])[H])C5([H])[H])C4([H])[H])[N+]3([H])[H])c([H])c([H])c2C1([H])[H]

$$$$
97:0:0
     RDKit          3D

 97107  0  0  1  0  0  0  0  0999 V2000
  -32.0300  -21.7650   22.8990 C   0  0  0  0  0  3  0  0  0  0  0  0
  -31.6930  -20.5600   22.2560 C   0  0  0  0  0  3  0  0  0  0  0  0
  -31.4610  -22.9760   22.4610 C   0  0  0  0  0  3  0  0  0  0  0  0
  -30.1160  -21.7470   20.8430 C   0  0  0  0  0  3  0  0  0  0  0  0
  -30.7410  -20.5340   21.2120 C   0  0  0  0  0  0  0  0  0  0  0  0
  -30.5200  -22.9730   21.4110 C   0  0  0  0  0  0  0  0  0  0  0  0
  -30.6270  -16.5630   23.0210 C   0  0  0  0  0  3  0  0  0  0  0  0
  -30.5240  -17.8380   22.4370 C   0  0  0  0  0  3  0  0  0  0  0  0
  -30.2600  -16.9810   18.8250 C   0  0  0  0  0  3  0  0  0  0  0  0
  -30.7320  -15.4220   22.2080 C   0  0  0  0  0  3  0  0  0  0  0  0
  -30.2440  -18.2460   18.2320 C   0  0  0  0  0  3  0  0  0  0  0  0
  -30.4780  -17.9970   21.0320 C   0  0  0  0  0  0  0  0  0  0  0  0
  -30.4470  -16.8250   20.2210 C   0  0  0  0  0  0  0  0  0  0  0  0
  -30.5100  -19.2950   20.4300 C   0  0  0  0  0  0  0  0  0  0  0  0
  -30.6470  -15.5320   20.8030 C   0  0  0  0  0  0  0  0  0  0  0  0
  -30.4210  -19.3970   19.0130 C   0  0  0  0  0  0  0  0  0  0  0  0
  -30.5530  -20.7210   18.2690 C   0  0  0  0  0  1  0  0  0  0  0  0
  -31.0410  -14.3660   19.9220 C   0  0  0  0  0  0  0  0  0  0  0  0
  -30.4620  -12.3950   18.5800 C   0  0  0  0  0  2  0  0  0  0  0  0
  -29.4120  -12.7700   17.5170 C   0  0  0  0  0  2  0  0  0  0  0  0
  -27.9940  -12.5960   18.0900 C   0  0  0  0  0  2  0  0  0  0  0  0
  -27.8190  -13.2910   19.4650 C   0  0  0  0  0  3  0  0  0  0  0  0
  -28.9840  -12.9600   20.4210 C   0  0  0  0  0  2  0  0  0  0  0  0
  -30.2520  -13.2720   19.7480 N   0  0  0  0  0  0  0  0  0  0  0  0
  -32.0870  -14.5160   19.2860 O   0  0  0  0  0  0  0  0  0  0  0  0
  -25.5110  -13.8100   20.4770 C   0  0  0  0  0  0  0  0  0  0  0  0
  -24.4940  -12.9990   20.9000 C   0  0  0  0  0  0  0  0  0  0  0  0
  -24.9570  -11.6580   20.7190 C   0  0  0  0  0  0  0  0  0  0  0  0
  -26.5290  -12.9630   20.0670 N   0  0  0  0  0  0  0  0  0  0  0  0
  -26.2060  -11.6590   20.2730 N   0  0  0  0  0  0  0  0  0  0  0  0
  -24.2620  -10.3760   20.8950 C   0  0  0  0  0  0  0  0  0  0  0  0
  -24.6980   -9.4240   21.8420 C   0  0  0  0  0  3  0  0  0  0  0  0
  -24.0040   -8.2050   22.0050 C   0  0  0  0  0  3  0  0  0  0  0  0
  -22.8600   -7.9300   21.2170 C   0  0  0  0  0  0  0  0  0  0  0  0
  -22.4440   -8.8720   20.2590 C   0  0  0  0  0  3  0  0  0  0  0  0
  -23.1390  -10.0820   20.0960 C   0  0  0  0  0  3  0  0  0  0  0  0
  -22.1390   -6.7640   21.2870 O   0  0  0  0  0  0  0  0  0  0  0  0
  -21.9090   -6.1290   22.4820 C   0  0  0  0  0  0  0  0  0  0  0  0
  -21.2370   -6.7670   23.5480 C   0  0  0  0  0  3  0  0  0  0  0  0
  -20.9610   -6.0560   24.7330 C   0  0  0  0  0  3  0  0  0  0  0  0
  -21.3460   -4.7070   24.8500 C   0  0  0  0  0  0  0  0  0  0  0  0
  -22.0110   -4.0690   23.7880 C   0  0  0  0  0  3  0  0  0  0  0  0
  -22.2890   -4.7780   22.6060 C   0  0  0  0  0  0  0  0  0  0  0  0
  -22.9100   -4.1520   21.5770 F   0  0  0  0  0  0  0  0  0  0  0  0
  -21.0750   -4.0190   25.9840 F   0  0  0  0  0  0  0  0  0  0  0  0
  -23.1320  -13.4360   21.3570 C   0  0  0  0  0  0  0  0  0  0  0  0
  -22.5260  -12.6940   22.2770 N   0  0  0  0  0  0  0  0  0  0  0  0
  -22.6160  -14.4700   20.9320 O   0  0  0  0  0  0  0  0  0  0  0  0
  -22.9580  -11.8580   22.6410 H   0  0  0  0  0  0  0  0  0  0  0  0
  -21.6180  -12.9690   22.6240 H   0  0  0  0  0  0  0  0  0  0  0  0
  -25.6510  -15.1920   20.3870 N   0  0  0  0  0  0  0  0  0  0  0  0
  -24.9080  -15.8340   20.6410 H   0  0  0  0  0  0  0  0  0  0  0  0
  -26.4790  -15.6620   20.0400 H   0  0  0  0  0  0  0  0  0  0  0  0
  -30.0480  -24.2790   20.7920 C   0  0  0  0  0  2  0  0  0  0  0  0
  -29.2810  -25.2010   21.7470 C   0  0  0  0  0  2  0  0  0  0  0  0
  -29.1770  -26.6320   21.2030 C   0  0  0  0  0  2  0  0  0  0  0  0
  -28.4400  -26.6450   19.9750 O   0  0  0  0  0  0  0  0  0  0  0  0
  -24.5200  -31.6490   23.1390 C   0  0  0  0  0  0  0  0  0  0  0  0
  -27.2910  -27.4020   19.9700 C   0  0  0  0  0  0  0  0  0  0  0  0
  -23.3650  -30.3130   21.4030 C   0  0  0  0  0  3  0  0  0  0  0  0
  -24.8720  -28.8520   19.9500 C   0  0  0  0  0  0  0  0  0  0  0  0
  -25.8820  -30.7210   21.2760 C   0  0  0  0  0  2  0  0  0  0  0  0
  -25.9980  -29.3790   20.5900 C   0  0  0  0  0  0  0  0  0  0  0  0
  -27.2110  -28.6660   20.5950 C   0  0  0  0  0  3  0  0  0  0  0  0
  -26.1580  -26.8880   19.3080 C   0  0  0  0  0  3  0  0  0  0  0  0
  -24.9440  -27.6060   19.3010 C   0  0  0  0  0  3  0  0  0  0  0  0
  -23.6140  -29.6900   19.9990 C   0  0  0  0  0  2  0  0  0  0  0  0
  -24.6060  -30.9050   22.0010 N   0  0  0  0  0  0  0  0  0  0  0  0
  -23.4250  -31.8870   23.6660 O   0  0  0  0  0  0  0  0  0  0  0  0
  -22.7020  -29.2460   22.3000 C   0  0  0  0  0  0  0  0  0  0  0  0
  -21.3740  -29.0940   22.1630 N   0  0  0  0  0  0  0  0  0  0  0  0
  -23.3750  -28.5600   23.0740 O   0  0  0  0  0  0  0  0  0  0  0  0
  -20.8930  -29.7020   21.5140 H   0  0  0  0  0  0  0  0  0  0  0  0
  -17.9720  -27.9830   22.6420 C   0  0  0  0  0  0  0  0  0  0  0  0
  -20.5420  -28.1260   22.8750 C   0  0  0  0  0  3  0  0  0  0  0  0
  -20.5800  -26.7430   22.1830 C   0  0  0  0  0  2  0  0  0  0  0  0
  -19.4470  -26.5450   21.1720 C   0  0  0  0  0  2  0  0  0  0  0  0
  -18.0850  -26.6870   21.8570 C   0  0  0  0  0  2  0  0  0  0  0  0
  -19.1270  -28.6660   23.1060 C   0  0  0  0  0  0  0  0  0  0  0  0
  -18.9680  -29.8860   23.7990 C   0  0  0  0  0  3  0  0  0  0  0  0
  -17.6880  -30.4210   24.0330 C   0  0  0  0  0  3  0  0  0  0  0  0
  -16.5470  -29.7320   23.5860 C   0  0  0  0  0  3  0  0  0  0  0  0
  -16.6900  -28.5140   22.8960 C   0  0  0  0  0  3  0  0  0  0  0  0
  -25.7870  -32.2590   23.8190 C   0  0  0  0  0  3  0  0  0  0  0  0
  -26.2480  -31.4640   25.1030 C   0  0  1  0  0  0  0  0  0  0  0  0
  -25.1040  -31.1910   26.1060 C   0  0  0  0  0  1  0  0  0  0  0  0
  -26.8660  -30.1010   24.7070 C   0  0  0  0  0  1  0  0  0  0  0  0
  -27.3510  -32.2560   25.8420 C   0  0  0  0  0  1  0  0  0  0  0  0
  -25.4810  -33.6570   24.1480 N   0  0  0  0  0  0  0  0  0  0  0  0
  -25.8880  -34.7130   23.4320 C   0  0  0  0  0  0  0  0  0  0  0  0
  -26.6310  -34.6120   22.4510 O   0  0  0  0  0  0  0  0  0  0  0  0
  -24.8300  -33.8110   24.9030 H   0  0  0  0  0  0  0  0  0  0  0  0
  -24.2530  -36.5620   22.9510 C   0  0  0  0  0  1  0  0  0  0  0  0
  -25.3940  -36.1020   23.8740 C   0  0  0  0  0  3  0  0  0  0  0  0
  -27.4490  -36.9110   24.9460 C   0  0  0  0  0  1  0  0  0  0  0  0
  -26.4590  -37.1280   23.8950 N   0  0  0  0  0  0  0  0  0  0  0  0
  -26.0640  -38.0570   24.0170 H   0  0  0  0  0  0  0  0  0  0  0  0
  2  1  2  0
  3  1  1  0
  4  5  2  0
  4  6  1  0
  5  2  1  0
  6  3  2  0
  8  7  1  0
  9 13  1  0
 10  7  2  0
 11  9  2  0
 11 16  1  0
 12  8  2  0
 13 15  2  0
 13 12  1  0
 14 12  1  0
 14  5  1  0
 15 10  1  0
 16 14  2  0
 17 16  1  0
 18 15  1  0
 19 24  1  0
 20 21  1  0
 20 19  1  0
 22 21  1  0
 22 29  1  0
 22 23  1  0
 24 18  1  0
 24 23  1  0
 25 18  2  0
 26 27  2  0
 27 46  1  0
 28 31  1  0
 28 27  1  0
 29 30  1  0
 29 26  1  0
 30 28  2  0
 31 32  1  0
 32 33  2  0
 34 37  1  0
 34 33  1  0
 35 34  2  0
 36 35  1  0
 36 31  2  0
 37 38  1  0
 38 43  2  0
 38 39  1  0
 39 40  2  0
 40 41  1  0
 41 45  1  0
 42 41  2  0
 43 42  1  0
 44 43  1  0
 46 47  1  0
 47 50  1  0
 47 49  1  0
 48 46  2  0
 51 26  1  0
 51 52  1  0
 53 51  1  0
 54  6  1  0
 54 55  1  0
 56 55  1  0
 57 56  1  0
 58 69  2  0
 59 57  1  0
 59 64  1  0
 60 68  1  0
 60 70  1  0
 61 67  1  0
 61 63  1  0
 62 68  1  0
 63 64  2  0
 63 62  1  0
 65 59  2  0
 66 65  1  0
 66 61  2  0
 67 60  1  0
 68 58  1  0
 70 72  2  0
 71 70  1  0
 73 71  1  0
 74 83  2  0
 74 79  1  0
 75 71  1  0
 75 79  1  0
 76 75  1  0
 77 78  1  0
 77 76  1  0
 78 74  1  0
 79 80  2  0
 80 81  1  0
 82 81  2  0
 83 82  1  0
 84 58  1  0
 84 89  1  0
 84 85  1  0
 85 88  1  1
 85 86  1  0
 87 85  1  0
 89 92  1  0
 90 94  1  0
 90 89  1  0
 91 90  2  0
 94 93  1  0
 94 96  1  0
 96 97  1  0
 96 95  1  0
M  ISO  4  15 100  18 100  56 101  57 101
M  END
>  <TORSDO>  (98) 
F 20

>  <SCORE>  (98) 
-10.659

>  <name>  (98) 
97

>  <ligand_id>  (98) 
97

>  <original_smiles>  (98) 
[H]c1c([H])c(-c2c(C([H])([H])[H])c([H])c([H])c3c(C(=O)N4C([H])([H])C([H])([H])C([H])([H])C([H])(n5nc(-c6c([H])c([H])c(Oc7c([H])c([H])c(F)c([H])c7F)c([H])c6[H])c(C(=O)N([H])[H])c5N([H])[H])C4([H])[H])c([H])c([H])c([H])c23)c([H])c(C([H])([H])C([H])([H])C([H])([H])Oc2c([H])c([H])c3c(c2[H])C([H])([H])N(C(=O)C([H])(N([H])C(=O)C([H])(N([H])C([H])([H])[H])C([H])([H])[H])C(C([H])([H])[H])(C([H])([H])[H])C([H])([H])[H])C([H])(C(=O)N([H])C2([H])c4c([H])c([H])c([H])c([H])c4C([H])([H])C([H])([H])C2([H])[H])C3([H])[H])c1[H]

>  <smiles>  (98) 
[H]c1c([H])c(-c2c(C([H])([H])[H])c([H])c([H])c3c(C(=O)N4C([H])([H])C([H])([H])C([H])([H])C([H])(n5nc(-c6c([H])c([H])c(Oc7c([H])c([H])c(F)c([H])c7F)c([H])c6[H])c(C(=O)N([H])[H])c5N([H])[H])C4([H])[H])c([H])c([H])c([H])c23)c([H])c(C([H])([H])C([H])([H])C([H])([H])Oc2c([H])c([H])c3c(c2[H])C([H])([H])N(C(=O)C([H])(N([H])C(=O)C([H])(N([H])C([H])([H])[H])C([H])([H])[H])C(C([H])([H])[H])(C([H])([H])[H])C([H])([H])[H])C([H])(C(=O)N([H])C2([H])c4c([H])c([H])c([H])c([H])c4C([H])([H])C([H])([H])C2([H])[H])C3([H])[H])c1[H]

$$$$
98:0:0
     RDKit          3D

 92100  0  0  1  0  0  0  0  0999 V2000
  -30.5480  -22.0970   18.5500 C   0  0  0  0  0  2  0  0  0  0  0  0
  -31.1570  -21.3820   19.7560 C   0  0  0  0  0  2  0  0  0  0  0  0
  -29.1050  -22.3450   18.9990 C   0  0  0  0  0  2  0  0  0  0  0  0
  -30.3280  -21.8410   20.9710 C   0  0  0  0  0  3  0  0  0  0  0  0
  -29.2160  -22.7220   20.4300 N   0  0  1  0  0  4  0  0  0  0  0  0
  -28.3500  -22.4790   20.8910 H   0  0  0  0  0  0  0  0  0  0  0  0
  -29.9420  -20.6290   21.9330 C   0  0  0  0  0  2  0  0  0  0  0  0
  -28.2080  -18.8130   22.4190 C   0  0  0  0  0  1  0  0  0  0  0  0
  -29.2680  -19.2900   21.3960 C   0  0  0  0  0  3  0  0  0  0  0  0
  -30.1940  -18.0360   21.0280 C   0  0  0  0  0  2  0  0  0  0  0  0
  -29.7840  -15.6600   19.8520 C   0  0  0  0  0  3  0  0  0  0  0  0
  -29.6080  -17.0140   20.0050 C   0  0  0  0  0  0  0  0  0  0  0  0
  -28.7050  -17.6630   18.9580 C   0  0  0  0  0  1  0  0  0  0  0  0
  -30.6460  -14.6200   20.4500 C   0  0  0  0  0  0  0  0  0  0  0  0
  -30.4600  -12.3860   19.4320 C   0  0  0  0  0  2  0  0  0  0  0  0
  -29.4980  -12.4950   18.2260 C   0  0  0  0  0  2  0  0  0  0  0  0
  -28.0410  -12.2650   18.6800 C   0  0  0  0  0  2  0  0  0  0  0  0
  -27.6460  -13.1750   19.8650 C   0  0  0  0  0  3  0  0  0  0  0  0
  -28.7140  -13.0770   20.9820 C   0  0  0  0  0  2  0  0  0  0  0  0
  -30.0400  -13.3910   20.4260 N   0  0  0  0  0  0  0  0  0  0  0  0
  -31.8650  -14.7370   20.3670 O   0  0  0  0  0  0  0  0  0  0  0  0
  -25.2580  -13.8030   20.5750 C   0  0  0  0  0  0  0  0  0  0  0  0
  -24.1760  -13.0400   20.9250 C   0  0  0  0  0  0  0  0  0  0  0  0
  -24.6260  -11.6840   20.8790 C   0  0  0  0  0  0  0  0  0  0  0  0
  -26.2970  -12.9090   20.3470 N   0  0  0  0  0  0  0  0  0  0  0  0
  -25.9180  -11.6300   20.5850 N   0  0  0  0  0  0  0  0  0  0  0  0
  -23.8940  -10.4230   21.0430 C   0  0  0  0  0  0  0  0  0  0  0  0
  -24.3530   -9.4150   21.9210 C   0  0  0  0  0  3  0  0  0  0  0  0
  -23.6210   -8.2190   22.0780 C   0  0  0  0  0  3  0  0  0  0  0  0
  -22.4210   -8.0220   21.3560 C   0  0  0  0  0  0  0  0  0  0  0  0
  -21.9830   -9.0170   20.4650 C   0  0  0  0  0  3  0  0  0  0  0  0
  -22.7140  -10.2060   20.3060 C   0  0  0  0  0  3  0  0  0  0  0  0
  -21.6580   -6.8830   21.4230 O   0  0  0  0  0  0  0  0  0  0  0  0
  -21.6800   -6.0720   22.5260 C   0  0  0  0  0  0  0  0  0  0  0  0
  -21.3970   -6.5630   23.8210 C   0  0  0  0  0  3  0  0  0  0  0  0
  -21.3660   -5.6780   24.9180 C   0  0  0  0  0  3  0  0  0  0  0  0
  -21.6030   -4.3050   24.7210 C   0  0  0  0  0  0  0  0  0  0  0  0
  -21.8810   -3.8130   23.4330 C   0  0  0  0  0  3  0  0  0  0  0  0
  -21.9170   -4.6940   22.3390 C   0  0  0  0  0  0  0  0  0  0  0  0
  -22.1650   -4.2160   21.0960 F   0  0  0  0  0  0  0  0  0  0  0  0
  -21.5650   -3.4530   25.7740 F   0  0  0  0  0  0  0  0  0  0  0  0
  -22.7800  -13.5270   21.1870 C   0  0  0  0  0  0  0  0  0  0  0  0
  -22.0350  -12.8260   22.0320 N   0  0  0  0  0  0  0  0  0  0  0  0
  -22.3570  -14.5600   20.6700 O   0  0  0  0  0  0  0  0  0  0  0  0
  -22.3830  -11.9840   22.4670 H   0  0  0  0  0  0  0  0  0  0  0  0
  -21.0960  -13.1340   22.2510 H   0  0  0  0  0  0  0  0  0  0  0  0
  -25.4430  -15.1720   20.4060 N   0  0  0  0  0  0  0  0  0  0  0  0
  -24.6870  -15.8420   20.4890 H   0  0  0  0  0  0  0  0  0  0  0  0
  -26.3140  -15.5910   20.1010 H   0  0  0  0  0  0  0  0  0  0  0  0
  -29.4100  -24.2210   20.6270 C   0  0  0  0  0  3  0  0  0  0  0  0
  -28.2780  -25.1470   20.0120 C   0  0  0  0  0  3  0  0  0  0  0  0
  -28.3960  -26.5900   20.2100 O   0  0  0  0  0  0  0  0  0  0  0  0
  -24.6140  -31.8630   23.2030 C   0  0  0  0  0  0  0  0  0  0  0  0
  -27.2440  -27.3700   20.1230 C   0  0  0  0  0  0  0  0  0  0  0  0
  -23.4130  -30.4860   21.5350 C   0  0  0  0  0  3  0  0  0  0  0  0
  -24.8620  -28.9460   20.1000 C   0  0  0  0  0  0  0  0  0  0  0  0
  -25.9540  -30.7940   21.3870 C   0  0  0  0  0  2  0  0  0  0  0  0
  -26.0200  -29.4330   20.7200 C   0  0  0  0  0  0  0  0  0  0  0  0
  -27.2080  -28.6550   20.7320 C   0  0  0  0  0  3  0  0  0  0  0  0
  -26.0700  -26.9300   19.4610 C   0  0  0  0  0  3  0  0  0  0  0  0
  -24.8880  -27.6940   19.4640 C   0  0  0  0  0  3  0  0  0  0  0  0
  -23.6260  -29.8190   20.1470 C   0  0  0  0  0  2  0  0  0  0  0  0
  -24.6780  -31.0670   22.0950 N   0  0  0  0  0  0  0  0  0  0  0  0
  -23.5310  -32.1390   23.7330 O   0  0  0  0  0  0  0  0  0  0  0  0
  -22.7430  -29.4680   22.4890 C   0  0  0  0  0  0  0  0  0  0  0  0
  -21.4160  -29.3100   22.3700 N   0  0  0  0  0  0  0  0  0  0  0  0
  -23.4230  -28.8220   23.2930 O   0  0  0  0  0  0  0  0  0  0  0  0
  -20.9270  -29.8870   21.6990 H   0  0  0  0  0  0  0  0  0  0  0  0
  -18.0280  -28.1340   22.8530 C   0  0  0  0  0  0  0  0  0  0  0  0
  -20.5890  -28.3670   23.1290 C   0  0  0  0  0  3  0  0  0  0  0  0
  -20.6780  -26.9390   22.5440 C   0  0  0  0  0  2  0  0  0  0  0  0
  -19.5770  -26.6340   21.5260 C   0  0  0  0  0  2  0  0  0  0  0  0
  -18.1910  -26.7930   22.1580 C   0  0  0  0  0  2  0  0  0  0  0  0
  -19.1540  -28.8800   23.2960 C   0  0  0  0  0  0  0  0  0  0  0  0
  -18.9480  -30.1380   23.8990 C   0  0  0  0  0  3  0  0  0  0  0  0
  -17.6490  -30.6600   24.0550 C   0  0  0  0  0  3  0  0  0  0  0  0
  -16.5380  -29.9100   23.6310 C   0  0  0  0  0  3  0  0  0  0  0  0
  -16.7270  -28.6470   23.0420 C   0  0  0  0  0  3  0  0  0  0  0  0
  -25.9010  -32.4820   23.8340 C   0  0  0  0  0  3  0  0  0  0  0  0
  -25.5830  -33.8630   24.2200 N   0  0  0  0  0  0  0  0  0  0  0  0
  -25.9000  -34.9470   23.5080 C   0  0  0  0  0  0  0  0  0  0  0  0
  -26.5650  -34.8970   22.4690 O   0  0  0  0  0  0  0  0  0  0  0  0
  -24.9920  -33.9840   25.0320 H   0  0  0  0  0  0  0  0  0  0  0  0
  -24.1480  -36.7330   23.2670 C   0  0  0  0  0  1  0  0  0  0  0  0
  -25.4090  -36.3100   24.0330 C   0  0  0  0  0  3  0  0  0  0  0  0
  -27.5600  -37.1840   24.8440 C   0  0  0  0  0  1  0  0  0  0  0  0
  -26.4290  -37.3780   23.9420 N   0  0  0  0  0  0  0  0  0  0  0  0
  -26.0160  -38.2850   24.1430 H   0  0  0  0  0  0  0  0  0  0  0  0
  -26.4340  -31.6710   25.0780 C   0  0  1  0  0  0  0  0  0  0  0  0
  -25.3530  -31.4020   26.1510 C   0  0  0  0  0  1  0  0  0  0  0  0
  -27.0140  -30.3070   24.6360 C   0  0  0  0  0  1  0  0  0  0  0  0
  -27.5830  -32.4540   25.7570 C   0  0  0  0  0  1  0  0  0  0  0  0
  1  3  1  0
  1  2  1  0
  2  4  1  0
  3  5  1  0
  4  7  1  0
  5 50  1  0
  5  6  1  1
  5  4  1  0
  9  7  1  0
  9  8  1  0
 10  9  1  0
 11 12  2  0
 11 14  1  0
 12 10  1  0
 13 12  1  0
 15 20  1  0
 16 17  1  0
 16 15  1  0
 18 17  1  0
 18 25  1  0
 18 19  1  0
 20 14  1  0
 20 19  1  0
 21 14  2  0
 22 23  2  0
 23 42  1  0
 24 23  1  0
 24 27  1  0
 25 22  1  0
 25 26  1  0
 26 24  2  0
 27 28  1  0
 28 29  2  0
 30 33  1  0
 30 29  1  0
 31 30  2  0
 32 31  1  0
 32 27  2  0
 33 34  1  0
 34 35  1  0
 35 36  2  0
 37 36  1  0
 37 41  1  0
 38 37  2  0
 39 34  2  0
 39 38  1  0
 40 39  1  0
 42 43  1  0
 43 46  1  0
 43 45  1  0
 44 42  2  0
 47 48  1  0
 47 22  1  0
 49 47  1  0
 51 52  1  0
 51 50  2  0
 53 64  2  0
 54 52  1  0
 54 59  1  0
 55 63  1  0
 55 65  1  0
 56 62  1  0
 56 58  1  0
 57 63  1  0
 58 59  2  0
 58 57  1  0
 60 61  1  0
 60 54  2  0
 61 56  2  0
 62 55  1  0
 63 53  1  0
 65 67  2  0
 66 65  1  0
 68 66  1  0
 69 78  2  0
 69 74  1  0
 70 66  1  0
 70 74  1  0
 71 70  1  0
 72 73  1  0
 72 71  1  0
 73 69  1  0
 74 75  2  0
 75 76  1  0
 77 76  2  0
 78 77  1  0
 79 53  1  0
 79 80  1  0
 79 89  1  0
 80 83  1  0
 81 85  1  0
 81 80  1  0
 82 81  2  0
 85 84  1  0
 87 85  1  0
 87 88  1  0
 87 86  1  0
 89 92  1  1
 89 90  1  0
 91 89  1  0
M  ISO  4  11 100  14 100  51 101  52 101
M  END
>  <TORSDO>  (99) 
F 22

>  <SCORE>  (99) 
-8.075

>  <name>  (99) 
98

>  <ligand_id>  (99) 
98

>  <original_smiles>  (99) 
[H]C(C(=O)N1C([H])([H])C([H])([H])C([H])([H])C([H])(n2nc(-c3c([H])c([H])c(Oc4c([H])c([H])c(F)c([H])c4F)c([H])c3[H])c(C(=O)N([H])[H])c2N([H])[H])C1([H])[H])=C(C([H])([H])[H])C([H])([H])C([H])(C([H])([H])[H])C([H])([H])C1([H])C([H])([H])C([H])([H])C([H])([H])[N+]1([H])C([H])([H])C([H])([H])Oc1c([H])c([H])c2c(c1[H])C([H])([H])N(C(=O)C([H])(N([H])C(=O)C([H])(N([H])C([H])([H])[H])C([H])([H])[H])C(C([H])([H])[H])(C([H])([H])[H])C([H])([H])[H])C([H])(C(=O)N([H])C1([H])c3c([H])c([H])c([H])c([H])c3C([H])([H])C([H])([H])C1([H])[H])C2([H])[H]

>  <smiles>  (99) 
[H]C(C(=O)N1C([H])([H])C([H])([H])C([H])([H])C([H])(n2nc(-c3c([H])c([H])c(Oc4c([H])c([H])c(F)c([H])c4F)c([H])c3[H])c(C(=O)N([H])[H])c2N([H])[H])C1([H])[H])=C(C([H])([H])[H])C([H])([H])C([H])(C([H])([H])[H])C([H])([H])C1([H])C([H])([H])C([H])([H])C([H])([H])[N+]1([H])C([H])([H])C([H])([H])Oc1c([H])c([H])c2c(c1[H])C([H])([H])N(C(=O)C([H])(N([H])C(=O)C([H])(N([H])C([H])([H])[H])C([H])([H])[H])C(C([H])([H])[H])(C([H])([H])[H])C([H])([H])[H])C([H])(C(=O)N([H])C1([H])c3c([H])c([H])c([H])c([H])c3C([H])([H])C([H])([H])C1([H])[H])C2([H])[H]

$$$$
