0:0:0
     RDKit          3D

 97105  0  0  1  0  0  0  0  0999 V2000
  -30.8910  -21.6420   17.8720 C   0  0  0  0  0  3  0  0  0  0  0  0
  -30.9530  -25.5050   17.6330 C   0  0  0  0  0  2  0  0  0  0  0  0
  -31.2350  -24.0980   17.1060 C   0  0  0  0  0  2  0  0  0  0  0  0
  -29.9340  -23.8080   19.0800 C   0  0  0  0  0  2  0  0  0  0  0  0
  -30.0870  -25.3410   18.8940 C   0  0  0  0  0  3  0  0  0  0  0  0
  -31.0910  -23.1410   18.3020 C   0  0  0  0  0  3  0  0  0  0  0  0
  -28.7520  -26.1260   18.8160 C   0  0  0  0  0  2  0  0  0  0  0  0
  -28.4180  -26.7390   20.0640 O   0  0  0  0  0  0  0  0  0  0  0  0
  -24.6160  -31.8790   23.2290 C   0  0  0  0  0  0  0  0  0  0  0  0
  -27.2340  -27.4470   20.0980 C   0  0  0  0  0  0  0  0  0  0  0  0
  -23.3920  -30.4770   21.5990 C   0  0  0  0  0  3  0  0  0  0  0  0
  -24.8290  -28.9380   20.1630 C   0  0  0  0  0  0  0  0  0  0  0  0
  -25.9150  -30.8330   21.3780 C   0  0  0  0  0  2  0  0  0  0  0  0
  -25.9930  -29.4610   20.7410 C   0  0  0  0  0  0  0  0  0  0  0  0
  -27.1940  -28.7160   20.7180 C   0  0  0  0  0  3  0  0  0  0  0  0
  -26.0430  -26.9250   19.5420 C   0  0  0  0  0  3  0  0  0  0  0  0
  -24.8460  -27.6650   19.5690 C   0  0  0  0  0  3  0  0  0  0  0  0
  -23.5870  -29.7970   20.2190 C   0  0  0  0  0  2  0  0  0  0  0  0
  -24.6590  -31.0780   22.1270 N   0  0  0  0  0  0  0  0  0  0  0  0
  -23.5400  -32.1520   23.7800 O   0  0  0  0  0  0  0  0  0  0  0  0
  -22.7500  -29.4550   22.5670 C   0  0  0  0  0  0  0  0  0  0  0  0
  -21.4250  -29.2730   22.4510 N   0  0  0  0  0  0  0  0  0  0  0  0
  -23.4410  -28.8310   23.3750 O   0  0  0  0  0  0  0  0  0  0  0  0
  -20.9280  -29.8310   21.7700 H   0  0  0  0  0  0  0  0  0  0  0  0
  -18.0570  -28.0720   22.9680 C   0  0  0  0  0  0  0  0  0  0  0  0
  -20.6150  -28.3350   23.2280 C   0  0  0  0  0  3  0  0  0  0  0  0
  -20.7180  -26.9020   22.6560 C   0  0  0  0  0  2  0  0  0  0  0  0
  -19.6120  -26.5730   21.6480 C   0  0  0  0  0  2  0  0  0  0  0  0
  -18.2330  -26.7190   22.2970 C   0  0  0  0  0  2  0  0  0  0  0  0
  -19.1760  -28.8360   23.3910 C   0  0  0  0  0  0  0  0  0  0  0  0
  -18.9580  -30.1030   23.9760 C   0  0  0  0  0  3  0  0  0  0  0  0
  -17.6530  -30.6040   24.1430 C   0  0  0  0  0  3  0  0  0  0  0  0
  -16.5480  -29.8350   23.7380 C   0  0  0  0  0  3  0  0  0  0  0  0
  -16.7510  -28.5700   23.1560 C   0  0  0  0  0  3  0  0  0  0  0  0
  -25.9090  -32.5080   23.8350 C   0  0  0  0  0  3  0  0  0  0  0  0
  -26.4490  -31.7260   25.0950 C   0  0  1  0  0  0  0  0  0  0  0  0
  -25.3740  -31.4770   26.1790 C   0  0  0  0  0  1  0  0  0  0  0  0
  -27.0280  -30.3540   24.6810 C   0  0  0  0  0  1  0  0  0  0  0  0
  -27.6100  -32.5180   25.7440 C   0  0  0  0  0  1  0  0  0  0  0  0
  -25.6020  -33.9020   24.1790 N   0  0  0  0  0  0  0  0  0  0  0  0
  -25.9220  -34.9600   23.4220 C   0  0  0  0  0  0  0  0  0  0  0  0
  -26.5790  -34.8650   22.3810 O   0  0  0  0  0  0  0  0  0  0  0  0
  -25.0190  -34.0510   24.9890 H   0  0  0  0  0  0  0  0  0  0  0  0
  -24.1840  -36.7480   23.1000 C   0  0  0  0  0  1  0  0  0  0  0  0
  -25.4370  -36.3440   23.8930 C   0  0  0  0  0  3  0  0  0  0  0  0
  -27.5820  -37.2270   24.6980 C   0  0  0  0  0  1  0  0  0  0  0  0
  -26.4650  -37.4000   23.7730 N   0  0  0  0  0  0  0  0  0  0  0  0
  -26.0600  -38.3180   23.9330 H   0  0  0  0  0  0  0  0  0  0  0  0
  -33.3730  -21.3070   17.1550 C   0  0  0  0  0  1  0  0  0  0  0  0
  -31.5870  -19.7520   16.2700 C   0  0  0  0  0  1  0  0  0  0  0  0
  -31.8860  -21.1800   16.7660 C   0  0  0  0  0  3  0  0  0  0  0  0
  -30.9910  -20.6690   18.9950 N   0  0  0  0  0  4  0  0  0  0  0  0
  -31.7230  -20.9700   19.6190 H   0  0  0  0  0  0  0  0  0  0  0  0
  -31.3090  -19.8150   18.5660 H   0  0  0  0  0  0  0  0  0  0  0  0
  -29.7840  -20.3120   19.7900 C   0  0  0  0  0  3  0  0  0  0  0  0
  -27.5030  -20.8920   18.6550 C   0  0  0  0  0  1  0  0  0  0  0  0
  -28.5730  -19.8260   18.9410 C   0  0  0  0  0  2  0  0  0  0  0  0
  -30.1580  -19.2560   20.8700 C   0  0  0  0  0  2  0  0  0  0  0  0
  -30.4510  -17.8110   20.3730 C   0  0  0  0  0  2  0  0  0  0  0  0
  -30.8060  -16.8410   21.5290 C   0  0  0  0  0  2  0  0  0  0  0  0
  -30.1150  -15.4500   21.4870 C   0  0  0  0  0  2  0  0  0  0  0  0
  -30.6870  -14.4030   20.5050 C   0  0  0  0  0  0  0  0  0  0  0  0
  -30.3420  -12.3120   19.2230 C   0  0  0  0  0  2  0  0  0  0  0  0
  -29.3670  -12.5500   18.0560 C   0  0  0  0  0  2  0  0  0  0  0  0
  -27.9020  -12.4160   18.5190 C   0  0  0  0  0  2  0  0  0  0  0  0
  -27.6060  -13.2210   19.8090 C   0  0  0  0  0  3  0  0  0  0  0  0
  -28.6810  -12.9390   20.8830 C   0  0  0  0  0  2  0  0  0  0  0  0
  -29.9980  -13.2490   20.3010 N   0  0  0  0  0  0  0  0  0  0  0  0
  -31.7390  -14.6560   19.9090 O   0  0  0  0  0  0  0  0  0  0  0  0
  -25.2140  -13.8400   20.5390 C   0  0  0  0  0  0  0  0  0  0  0  0
  -24.1470  -13.0710   20.9230 C   0  0  0  0  0  0  0  0  0  0  0  0
  -24.6030  -11.7180   20.8870 C   0  0  0  0  0  0  0  0  0  0  0  0
  -26.2560  -12.9540   20.3020 N   0  0  0  0  0  0  0  0  0  0  0  0
  -25.8900  -11.6740   20.5650 N   0  0  0  0  0  0  0  0  0  0  0  0
  -23.8750  -10.4580   21.0870 C   0  0  0  0  0  0  0  0  0  0  0  0
  -24.3330   -9.4770   21.9950 C   0  0  0  0  0  3  0  0  0  0  0  0
  -23.6050   -8.2820   22.1850 C   0  0  0  0  0  3  0  0  0  0  0  0
  -22.4070   -8.0610   21.4650 C   0  0  0  0  0  0  0  0  0  0  0  0
  -21.9700   -9.0300   20.5450 C   0  0  0  0  0  3  0  0  0  0  0  0
  -22.6960  -10.2160   20.3540 C   0  0  0  0  0  3  0  0  0  0  0  0
  -21.6480   -6.9200   21.5650 O   0  0  0  0  0  0  0  0  0  0  0  0
  -21.6490   -6.1500   22.7010 C   0  0  0  0  0  0  0  0  0  0  0  0
  -21.3060   -6.6850   23.9620 C   0  0  0  0  0  3  0  0  0  0  0  0
  -21.2530   -5.8440   25.0930 C   0  0  0  0  0  3  0  0  0  0  0  0
  -21.5340   -4.4710   24.9630 C   0  0  0  0  0  0  0  0  0  0  0  0
  -21.8690   -3.9350   23.7070 C   0  0  0  0  0  3  0  0  0  0  0  0
  -21.9250   -4.7730   22.5780 C   0  0  0  0  0  0  0  0  0  0  0  0
  -22.2300   -4.2490   21.3680 F   0  0  0  0  0  0  0  0  0  0  0  0
  -21.4740   -3.6620   26.0470 F   0  0  0  0  0  0  0  0  0  0  0  0
  -22.7550  -13.5540   21.2160 C   0  0  0  0  0  0  0  0  0  0  0  0
  -22.0400  -12.8600   22.0960 N   0  0  0  0  0  0  0  0  0  0  0  0
  -22.3110  -14.5790   20.7030 O   0  0  0  0  0  0  0  0  0  0  0  0
  -22.4130  -12.0310   22.5330 H   0  0  0  0  0  0  0  0  0  0  0  0
  -21.1070  -13.1630   22.3380 H   0  0  0  0  0  0  0  0  0  0  0  0
  -25.3810  -15.2080   20.3580 N   0  0  0  0  0  0  0  0  0  0  0  0
  -24.6160  -15.8650   20.4670 H   0  0  0  0  0  0  0  0  0  0  0  0
  -26.2320  -15.6440   20.0240 H   0  0  0  0  0  0  0  0  0  0  0  0
  1 51  1  0
  1 52  1  0
  2  5  1  0
  3  2  1  0
  3  6  1  0
  5  7  1  0
  5  4  1  0
  6  1  1  0
  6  4  1  0
  7  8  1  0
  8 10  1  0
  9 20  2  0
 10 15  1  0
 11 19  1  0
 11 21  1  0
 12 18  1  0
 12 14  1  0
 13 19  1  0
 14 13  1  0
 15 14  2  0
 16 17  1  0
 16 10  2  0
 17 12  2  0
 18 11  1  0
 19  9  1  0
 21 23  2  0
 22 21  1  0
 24 22  1  0
 25 34  2  0
 25 30  1  0
 26 22  1  0
 26 30  1  0
 27 26  1  0
 28 29  1  0
 28 27  1  0
 29 25  1  0
 30 31  2  0
 31 32  1  0
 33 32  2  0
 34 33  1  0
 35  9  1  0
 35 40  1  0
 35 36  1  0
 36 39  1  1
 36 37  1  0
 38 36  1  0
 40 43  1  0
 41 45  1  0
 41 40  1  0
 42 41  2  0
 45 44  1  0
 47 45  1  0
 47 48  1  0
 47 46  1  0
 50 51  1  0
 51 49  1  0
 52 53  1  0
 52 55  1  0
 54 52  1  0
 55 57  1  0
 55 58  1  0
 56 57  1  0
 59 58  1  0
 59 60  1  0
 61 60  1  0
 62 61  1  0
 63 68  1  0
 64 65  1  0
 64 63  1  0
 66 65  1  0
 66 73  1  0
 66 67  1  0
 68 62  1  0
 68 67  1  0
 69 62  2  0
 70 71  2  0
 71 90  1  0
 72 71  1  0
 72 75  1  0
 73 70  1  0
 73 74  1  0
 74 72  2  0
 75 76  1  0
 76 77  2  0
 78 81  1  0
 78 77  1  0
 79 78  2  0
 80 79  1  0
 80 75  2  0
 81 82  1  0
 82 83  1  0
 83 84  2  0
 85 84  1  0
 85 89  1  0
 86 85  2  0
 87 82  2  0
 87 86  1  0
 88 87  1  0
 90 91  1  0
 91 94  1  0
 91 93  1  0
 92 90  2  0
 95 96  1  0
 95 70  1  0
 97 95  1  0
M  ISO  4   7 101   8 101  61 100  62 100
M  END
>  <TORSDO>  (1) 
F 26

>  <SCORE>  (1) 
-11.891

>  <name>  (1) 
0

>  <ligand_id>  (1) 
0

>  <original_smiles>  (1) 
[H]c1c([H])c([H])c2c(c1[H])C([H])([H])C([H])([H])C([H])([H])C2([H])N([H])C(=O)C1([H])N(C(=O)C([H])(N([H])C(=O)C([H])(N([H])C([H])([H])[H])C([H])([H])[H])C(C([H])([H])[H])(C([H])([H])[H])C([H])([H])[H])C([H])([H])c2c([H])c(OC([H])([H])C3([H])C([H])([H])C([H])([H])C([H])(C([H])(C([H])(C([H])([H])[H])C([H])([H])[H])[N+]([H])([H])C([H])(C([H])([H])C([H])([H])[H])C([H])([H])C([H])([H])C([H])([H])C([H])([H])C(=O)N4C([H])([H])C([H])([H])C([H])([H])C([H])(n5nc(-c6c([H])c([H])c(Oc7c([H])c([H])c(F)c([H])c7F)c([H])c6[H])c(C(=O)N([H])[H])c5N([H])[H])C4([H])[H])C3([H])[H])c([H])c([H])c2C1([H])[H]

>  <smiles>  (1) 
[H]c1c([H])c([H])c2c(c1[H])C([H])([H])C([H])([H])C([H])([H])C2([H])N([H])C(=O)C1([H])N(C(=O)C([H])(N([H])C(=O)C([H])(N([H])C([H])([H])[H])C([H])([H])[H])C(C([H])([H])[H])(C([H])([H])[H])C([H])([H])[H])C([H])([H])c2c([H])c(OC([H])([H])C3([H])C([H])([H])C([H])([H])C([H])(C([H])(C([H])(C([H])([H])[H])C([H])([H])[H])[N+]([H])([H])C([H])(C([H])([H])C([H])([H])[H])C([H])([H])C([H])([H])C([H])([H])C([H])([H])C(=O)N4C([H])([H])C([H])([H])C([H])([H])C([H])(n5nc(-c6c([H])c([H])c(Oc7c([H])c([H])c(F)c([H])c7F)c([H])c6[H])c(C(=O)N([H])[H])c5N([H])[H])C4([H])[H])C3([H])[H])c([H])c([H])c2C1([H])[H]

$$$$
2:0:0
     RDKit          3D

 93101  0  0  1  0  0  0  0  0999 V2000
  -28.8860  -21.1500   20.2640 N   0  0  0  0  0  4  0  0  0  0  0  0
  -28.8110  -21.2750   19.2680 H   0  0  0  0  0  0  0  0  0  0  0  0
  -28.0280  -20.7140   20.5580 H   0  0  0  0  0  0  0  0  0  0  0  0
  -28.9280  -22.5260   20.9270 C   0  0  0  0  0  3  0  0  0  0  0  0
  -28.4650  -23.8070   20.1040 C   0  0  0  0  0  3  0  0  0  0  0  0
  -28.3710  -25.1560   20.9440 C   0  0  0  0  0  2  0  0  0  0  0  0
  -28.4580  -26.4620   20.2800 O   0  0  0  0  0  0  0  0  0  0  0  0
  -24.5610  -31.7710   23.2110 C   0  0  0  0  0  0  0  0  0  0  0  0
  -27.3150  -27.2590   20.2590 C   0  0  0  0  0  0  0  0  0  0  0  0
  -23.4180  -30.3620   21.5290 C   0  0  0  0  0  3  0  0  0  0  0  0
  -24.9290  -28.8150   20.1570 C   0  0  0  0  0  0  0  0  0  0  0  0
  -25.9550  -30.7040   21.4310 C   0  0  0  0  0  2  0  0  0  0  0  0
  -26.0670  -29.3270   20.7930 C   0  0  0  0  0  0  0  0  0  0  0  0
  -27.2640  -28.5590   20.8350 C   0  0  0  0  0  3  0  0  0  0  0  0
  -26.1600  -26.7740   19.6190 C   0  0  0  0  0  3  0  0  0  0  0  0
  -24.9750  -27.5420   19.5610 C   0  0  0  0  0  3  0  0  0  0  0  0
  -23.6810  -29.6810   20.1580 C   0  0  0  0  0  2  0  0  0  0  0  0
  -24.6600  -30.9650   22.1130 N   0  0  0  0  0  0  0  0  0  0  0  0
  -23.4610  -32.0440   23.7110 O   0  0  0  0  0  0  0  0  0  0  0  0
  -22.7380  -29.3380   22.4690 C   0  0  0  0  0  0  0  0  0  0  0  0
  -21.4160  -29.1580   22.3090 N   0  0  0  0  0  0  0  0  0  0  0  0
  -23.3970  -28.7120   23.3020 O   0  0  0  0  0  0  0  0  0  0  0  0
  -20.9430  -29.7230   21.6160 H   0  0  0  0  0  0  0  0  0  0  0  0
  -18.0250  -27.9690   22.7230 C   0  0  0  0  0  0  0  0  0  0  0  0
  -20.5790  -28.2140   23.0500 C   0  0  0  0  0  3  0  0  0  0  0  0
  -20.6850  -26.7880   22.4630 C   0  0  0  0  0  2  0  0  0  0  0  0
  -19.6030  -26.4800   21.4190 C   0  0  0  0  0  2  0  0  0  0  0  0
  -18.2090  -26.6250   22.0360 C   0  0  0  0  0  2  0  0  0  0  0  0
  -19.1370  -28.7230   23.1820 C   0  0  0  0  0  0  0  0  0  0  0  0
  -18.9140  -29.9840   23.7750 C   0  0  0  0  0  3  0  0  0  0  0  0
  -17.6080  -30.4900   23.9180 C   0  0  0  0  0  3  0  0  0  0  0  0
  -16.5090  -29.7340   23.4750 C   0  0  0  0  0  3  0  0  0  0  0  0
  -16.7180  -28.4750   22.8830 C   0  0  0  0  0  3  0  0  0  0  0  0
  -25.8220  -32.4080   23.8690 C   0  0  0  0  0  3  0  0  0  0  0  0
  -25.4960  -33.8080   24.1820 N   0  0  0  0  0  0  0  0  0  0  0  0
  -25.8400  -34.8590   23.4260 C   0  0  0  0  0  0  0  0  0  0  0  0
  -26.5350  -34.7550   22.4120 O   0  0  0  0  0  0  0  0  0  0  0  0
  -24.8830  -33.9590   24.9690 H   0  0  0  0  0  0  0  0  0  0  0  0
  -24.1060  -36.6370   23.0200 C   0  0  0  0  0  1  0  0  0  0  0  0
  -25.3320  -36.2480   23.8620 C   0  0  0  0  0  3  0  0  0  0  0  0
  -27.4380  -37.1570   24.7380 C   0  0  0  0  0  1  0  0  0  0  0  0
  -26.3590  -37.3080   23.7630 N   0  0  0  0  0  0  0  0  0  0  0  0
  -25.9450  -38.2270   23.8890 H   0  0  0  0  0  0  0  0  0  0  0  0
  -26.2960  -31.6440   25.1660 C   0  0  1  0  0  0  0  0  0  0  0  0
  -25.1680  -31.4020   26.1990 C   0  0  0  0  0  1  0  0  0  0  0  0
  -26.9010  -30.2680   24.7980 C   0  0  0  0  0  1  0  0  0  0  0  0
  -27.4190  -32.4500   25.8620 C   0  0  0  0  0  1  0  0  0  0  0  0
  -30.0280  -20.1720   20.5410 C   0  0  0  0  0  3  0  0  0  0  0  0
  -30.9250  -17.9470   19.2190 C   0  0  0  0  0  2  0  0  0  0  0  0
  -30.4090  -17.3130   20.4770 C   0  0  0  0  0  3  0  0  0  0  0  0
  -29.8050  -18.6930   19.9550 C   0  0  0  0  0  3  0  0  0  0  0  0
  -29.7210  -15.8810   20.4210 C   0  0  0  0  0  2  0  0  0  0  0  0
  -30.5310  -14.5580   20.0570 C   0  0  0  0  0  0  0  0  0  0  0  0
  -30.2440  -12.3370   18.9600 C   0  0  0  0  0  2  0  0  0  0  0  0
  -29.2270  -12.4950   17.8060 C   0  0  0  0  0  2  0  0  0  0  0  0
  -27.7800  -12.3300   18.3160 C   0  0  0  0  0  2  0  0  0  0  0  0
  -27.5040  -13.1690   19.5930 C   0  0  0  0  0  3  0  0  0  0  0  0
  -28.6300  -12.9880   20.6340 C   0  0  0  0  0  2  0  0  0  0  0  0
  -29.9050  -13.3350   19.9950 N   0  0  0  0  0  0  0  0  0  0  0  0
  -31.6870  -14.6810   19.6410 O   0  0  0  0  0  0  0  0  0  0  0  0
  -25.1500  -13.7660   20.4420 C   0  0  0  0  0  0  0  0  0  0  0  0
  -24.1030  -12.9890   20.8640 C   0  0  0  0  0  0  0  0  0  0  0  0
  -24.5680  -11.6390   20.8100 C   0  0  0  0  0  0  0  0  0  0  0  0
  -26.1820  -12.8860   20.1530 N   0  0  0  0  0  0  0  0  0  0  0  0
  -25.8410  -11.6040   20.4360 N   0  0  0  0  0  0  0  0  0  0  0  0
  -23.8540  -10.3730   21.0330 C   0  0  0  0  0  0  0  0  0  0  0  0
  -24.3220   -9.4160   21.9600 C   0  0  0  0  0  3  0  0  0  0  0  0
  -23.6120   -8.2150   22.1740 C   0  0  0  0  0  3  0  0  0  0  0  0
  -22.4160   -7.9620   21.4580 C   0  0  0  0  0  0  0  0  0  0  0  0
  -21.9650   -8.9070   20.5180 C   0  0  0  0  0  3  0  0  0  0  0  0
  -22.6790  -10.0990   20.3040 C   0  0  0  0  0  3  0  0  0  0  0  0
  -21.6730   -6.8130   21.5800 O   0  0  0  0  0  0  0  0  0  0  0  0
  -21.6590   -6.0830   22.7420 C   0  0  0  0  0  0  0  0  0  0  0  0
  -21.2390   -6.6440   23.9680 C   0  0  0  0  0  3  0  0  0  0  0  0
  -21.1750   -5.8420   25.1250 C   0  0  0  0  0  3  0  0  0  0  0  0
  -21.5200   -4.4780   25.0570 C   0  0  0  0  0  0  0  0  0  0  0  0
  -21.9330   -3.9160   23.8360 C   0  0  0  0  0  3  0  0  0  0  0  0
  -21.9990   -4.7160   22.6810 C   0  0  0  0  0  0  0  0  0  0  0  0
  -22.3760   -4.1660   21.5020 F   0  0  0  0  0  0  0  0  0  0  0  0
  -21.4500   -3.7050   26.1640 F   0  0  0  0  0  0  0  0  0  0  0  0
  -22.7190  -13.4620   21.2060 C   0  0  0  0  0  0  0  0  0  0  0  0
  -22.0370  -12.7550   22.1020 N   0  0  0  0  0  0  0  0  0  0  0  0
  -22.2500  -14.4860   20.7130 O   0  0  0  0  0  0  0  0  0  0  0  0
  -22.4270  -11.9230   22.5170 H   0  0  0  0  0  0  0  0  0  0  0  0
  -21.1100  -13.0500   22.3760 H   0  0  0  0  0  0  0  0  0  0  0  0
  -25.3050  -15.1380   20.2590 N   0  0  0  0  0  0  0  0  0  0  0  0
  -24.5550  -15.8030   20.4120 H   0  0  0  0  0  0  0  0  0  0  0  0
  -26.1470  -15.5720   19.9060 H   0  0  0  0  0  0  0  0  0  0  0  0
  -31.3590  -20.8710   20.0840 C   0  0  0  0  0  2  0  0  0  0  0  0
  -33.6360  -20.2160   20.9700 C   0  0  0  0  0  1  0  0  0  0  0  0
  -33.0160  -22.6360   20.7810 C   0  0  0  0  0  1  0  0  0  0  0  0
  -32.0860  -21.2340   22.6190 C   0  0  0  0  0  1  0  0  0  0  0  0
  -32.4840  -21.2250   21.1220 C   0  0  1  0  0  0  0  0  0  0  0  0
  1 48  1  0
  1  3  1  0
  1  4  1  0
  2  1  1  0
  5  4  2  0
  5  6  1  0
  7  6  1  0
  8 19  2  0
  9  7  1  0
  9 14  1  0
 10 18  1  0
 10 20  1  0
 11 17  1  0
 11 13  1  0
 12 18  1  0
 13 14  2  0
 13 12  1  0
 15  9  2  0
 16 15  1  0
 16 11  2  0
 17 10  1  0
 18  8  1  0
 20 22  2  0
 21 20  1  0
 23 21  1  0
 24 33  2  0
 24 29  1  0
 25 21  1  0
 25 29  1  0
 26 25  1  0
 27 28  1  0
 27 26  1  0
 28 24  1  0
 29 30  2  0
 30 31  1  0
 32 31  2  0
 33 32  1  0
 34  8  1  0
 34 35  1  0
 34 44  1  0
 35 38  1  0
 36 40  1  0
 36 35  1  0
 37 36  2  0
 40 39  1  0
 42 40  1  0
 42 43  1  0
 42 41  1  0
 44 47  1  1
 44 45  1  0
 46 44  1  0
 48 89  1  0
 49 51  1  0
 49 50  1  0
 50 52  1  0
 51 50  1  0
 51 48  1  0
 53 52  1  0
 54 59  1  0
 55 56  1  0
 55 54  1  0
 57 56  1  0
 57 64  1  0
 57 58  1  0
 59 53  1  0
 59 58  1  0
 60 53  2  0
 61 62  2  0
 62 81  1  0
 63 62  1  0
 63 66  1  0
 64 65  1  0
 64 61  1  0
 65 63  2  0
 66 67  1  0
 67 68  2  0
 69 72  1  0
 69 68  1  0
 70 69  2  0
 71 70  1  0
 71 66  2  0
 72 73  1  0
 73 74  1  0
 74 75  2  0
 76 75  1  0
 76 80  1  0
 77 76  2  0
 78 73  2  0
 78 77  1  0
 79 78  1  0
 81 82  1  0
 82 85  1  0
 82 84  1  0
 83 81  2  0
 86 87  1  0
 86 61  1  0
 88 86  1  0
 89 93  1  0
 93 90  1  1
 91 93  1  0
 93 92  1  0
M  ISO  4   6 101   7 101  52 100  53 100
M  END
>  <TORSDO>  (2) 
F 24

>  <SCORE>  (2) 
-12.066

>  <name>  (2) 
2

>  <ligand_id>  (2) 
2

>  <original_smiles>  (2) 
[H]c1c([H])c([H])c2c(c1[H])C([H])([H])C([H])([H])C([H])([H])C2([H])N([H])C(=O)C1([H])N(C(=O)C([H])(N([H])C(=O)C([H])(N([H])C([H])([H])[H])C([H])([H])[H])C(C([H])([H])[H])(C([H])([H])[H])C([H])([H])[H])C([H])([H])c2c([H])c(OC([H])([H])C([H])([H])C([H])([H])[N+]([H])([H])C([H])(C([H])([H])C(C([H])([H])[H])(C([H])([H])[H])C([H])([H])[H])C3([H])C([H])([H])C3([H])C([H])([H])C(=O)N3C([H])([H])C([H])([H])C([H])([H])C([H])(n4nc(-c5c([H])c([H])c(Oc6c([H])c([H])c(F)c([H])c6F)c([H])c5[H])c(C(=O)N([H])[H])c4N([H])[H])C3([H])[H])c([H])c([H])c2C1([H])[H]

>  <smiles>  (2) 
[H]c1c([H])c([H])c2c(c1[H])C([H])([H])C([H])([H])C([H])([H])C2([H])N([H])C(=O)C1([H])N(C(=O)C([H])(N([H])C(=O)C([H])(N([H])C([H])([H])[H])C([H])([H])[H])C(C([H])([H])[H])(C([H])([H])[H])C([H])([H])[H])C([H])([H])c2c([H])c(OC([H])([H])C([H])([H])C([H])([H])[N+]([H])([H])C([H])(C([H])([H])C(C([H])([H])[H])(C([H])([H])[H])C([H])([H])[H])C3([H])C([H])([H])C3([H])C([H])([H])C(=O)N3C([H])([H])C([H])([H])C([H])([H])C([H])(n4nc(-c5c([H])c([H])c(Oc6c([H])c([H])c(F)c([H])c6F)c([H])c5[H])c(C(=O)N([H])[H])c4N([H])[H])C3([H])[H])c([H])c([H])c2C1([H])[H]

$$$$
3:0:0
     RDKit          3D

 93102  0  0  1  0  0  0  0  0999 V2000
  -28.8220  -22.0070   19.6910 C   0  0  0  0  0  3  0  0  0  0  0  0
  -29.4930  -20.6950   20.2760 N   0  0  0  0  0  4  0  0  0  0  0  0
  -29.3940  -20.7360   21.2770 H   0  0  0  0  0  0  0  0  0  0  0  0
  -30.4790  -20.8070   20.1000 H   0  0  0  0  0  0  0  0  0  0  0  0
  -27.8320  -18.7850   20.5680 C   0  0  0  0  0  1  0  0  0  0  0  0
  -29.1310  -19.2130   19.8550 C   0  0  0  0  0  3  0  0  0  0  0  0
  -30.2020  -17.9370   20.0300 C   0  0  0  0  0  3  0  0  0  0  0  0
  -29.7090  -16.3440   20.1550 C   0  0  0  0  0  3  0  0  0  0  0  0
  -30.5970  -14.9850   19.8850 C   0  0  0  0  0  0  0  0  0  0  0  0
  -30.4620  -12.6250   18.9890 C   0  0  0  0  0  2  0  0  0  0  0  0
  -29.4540  -12.6000   17.8150 C   0  0  0  0  0  2  0  0  0  0  0  0
  -28.0120  -12.4060   18.3270 C   0  0  0  0  0  2  0  0  0  0  0  0
  -27.6790  -13.3380   19.5190 C   0  0  0  0  0  3  0  0  0  0  0  0
  -28.7960  -13.3290   20.5830 C   0  0  0  0  0  2  0  0  0  0  0  0
  -30.0490  -13.7110   19.9180 N   0  0  0  0  0  0  0  0  0  0  0  0
  -31.7650  -15.0950   19.4940 O   0  0  0  0  0  0  0  0  0  0  0  0
  -25.3660  -13.9420   20.4400 C   0  0  0  0  0  0  0  0  0  0  0  0
  -24.3100  -13.1790   20.8510 C   0  0  0  0  0  0  0  0  0  0  0  0
  -24.7400  -11.8200   20.7410 C   0  0  0  0  0  0  0  0  0  0  0  0
  -26.3690  -13.0520   20.0950 N   0  0  0  0  0  0  0  0  0  0  0  0
  -26.0050  -11.7680   20.3410 N   0  0  0  0  0  0  0  0  0  0  0  0
  -23.9990  -10.5680   20.9350 C   0  0  0  0  0  0  0  0  0  0  0  0
  -24.4530   -9.5730   21.8300 C   0  0  0  0  0  3  0  0  0  0  0  0
  -23.7120   -8.3860   22.0140 C   0  0  0  0  0  3  0  0  0  0  0  0
  -22.5040   -8.1850   21.3040 C   0  0  0  0  0  0  0  0  0  0  0  0
  -22.0700   -9.1690   20.3980 C   0  0  0  0  0  3  0  0  0  0  0  0
  -22.8110  -10.3490   20.2120 C   0  0  0  0  0  3  0  0  0  0  0  0
  -21.7320   -7.0520   21.3990 O   0  0  0  0  0  0  0  0  0  0  0  0
  -21.6920   -6.3050   22.5490 C   0  0  0  0  0  0  0  0  0  0  0  0
  -21.2810   -6.8570   23.7820 C   0  0  0  0  0  3  0  0  0  0  0  0
  -21.1870   -6.0360   24.9240 C   0  0  0  0  0  3  0  0  0  0  0  0
  -21.4940   -4.6650   24.8330 C   0  0  0  0  0  0  0  0  0  0  0  0
  -21.8970   -4.1120   23.6050 C   0  0  0  0  0  3  0  0  0  0  0  0
  -21.9930   -4.9310   22.4650 C   0  0  0  0  0  0  0  0  0  0  0  0
  -22.3630   -4.3900   21.2790 F   0  0  0  0  0  0  0  0  0  0  0  0
  -21.3960   -3.8740   25.9270 F   0  0  0  0  0  0  0  0  0  0  0  0
  -22.9460  -13.6760   21.2340 C   0  0  0  0  0  0  0  0  0  0  0  0
  -22.2670  -12.9680   22.1280 N   0  0  0  0  0  0  0  0  0  0  0  0
  -22.4950  -14.7240   20.7750 O   0  0  0  0  0  0  0  0  0  0  0  0
  -22.6450  -12.1180   22.5190 H   0  0  0  0  0  0  0  0  0  0  0  0
  -21.3530  -13.2790   22.4270 H   0  0  0  0  0  0  0  0  0  0  0  0
  -25.5510  -15.3140   20.3050 N   0  0  0  0  0  0  0  0  0  0  0  0
  -24.8060  -15.9740   20.4950 H   0  0  0  0  0  0  0  0  0  0  0  0
  -26.3840  -15.7490   19.9330 H   0  0  0  0  0  0  0  0  0  0  0  0
  -26.7000  -22.7200   18.3090 C   0  0  0  0  0  2  0  0  0  0  0  0
  -26.9360  -21.2810   17.9470 C   0  0  0  0  0  3  0  0  0  0  0  0
  -27.3580  -21.7920   19.3150 C   0  0  0  0  0  3  0  0  0  0  0  0
  -25.2650  -20.0150   16.3860 C   0  0  0  0  0  2  0  0  0  0  0  0
  -25.9060  -18.9700   17.2670 C   0  0  0  0  0  2  0  0  0  0  0  0
  -25.7340  -20.3810   17.7750 C   0  0  0  0  0  3  0  0  0  0  0  0
  -28.9730  -23.4900   20.4580 C   0  0  0  0  0  3  0  0  0  0  0  0
  -28.1440  -24.8590   19.9870 C   0  0  0  0  0  3  0  0  0  0  0  0
  -28.3310  -26.3120   20.4590 O   0  0  0  0  0  0  0  0  0  0  0  0
  -24.6290  -31.9250   23.3740 C   0  0  0  0  0  0  0  0  0  0  0  0
  -27.2640  -27.2660   20.3580 C   0  0  0  0  0  0  0  0  0  0  0  0
  -23.4550  -30.5400   21.7050 C   0  0  0  0  0  3  0  0  0  0  0  0
  -24.9270  -28.9780   20.2960 C   0  0  0  0  0  0  0  0  0  0  0  0
  -26.0080  -30.8150   21.5840 C   0  0  0  0  0  2  0  0  0  0  0  0
  -26.0920  -29.4310   20.9270 C   0  0  0  0  0  0  0  0  0  0  0  0
  -27.2610  -28.5880   20.9460 C   0  0  0  0  0  3  0  0  0  0  0  0
  -26.0740  -26.9090   19.6820 C   0  0  0  0  0  3  0  0  0  0  0  0
  -24.9280  -27.7300   19.6590 C   0  0  0  0  0  3  0  0  0  0  0  0
  -23.6980  -29.8700   20.3260 C   0  0  0  0  0  2  0  0  0  0  0  0
  -24.7170  -31.1140   22.2770 N   0  0  0  0  0  0  0  0  0  0  0  0
  -23.5350  -32.2080   23.8840 O   0  0  0  0  0  0  0  0  0  0  0  0
  -22.7600  -29.5280   22.6490 C   0  0  0  0  0  0  0  0  0  0  0  0
  -21.4360  -29.3580   22.4930 N   0  0  0  0  0  0  0  0  0  0  0  0
  -23.4150  -28.8980   23.4840 O   0  0  0  0  0  0  0  0  0  0  0  0
  -20.9660  -29.9170   21.7950 H   0  0  0  0  0  0  0  0  0  0  0  0
  -18.0400  -28.1770   22.9350 C   0  0  0  0  0  0  0  0  0  0  0  0
  -20.5960  -28.4200   23.2440 C   0  0  0  0  0  3  0  0  0  0  0  0
  -20.6980  -26.9910   22.6600 C   0  0  0  0  0  2  0  0  0  0  0  0
  -19.6090  -26.6840   21.6270 C   0  0  0  0  0  2  0  0  0  0  0  0
  -18.2180  -26.8330   22.2500 C   0  0  0  0  0  2  0  0  0  0  0  0
  -19.1570  -28.9300   23.3880 C   0  0  0  0  0  0  0  0  0  0  0  0
  -18.9360  -30.1870   23.9890 C   0  0  0  0  0  3  0  0  0  0  0  0
  -17.6310  -30.6940   24.1420 C   0  0  0  0  0  3  0  0  0  0  0  0
  -16.5290  -29.9380   23.7040 C   0  0  0  0  0  3  0  0  0  0  0  0
  -16.7350  -28.6820   23.1060 C   0  0  0  0  0  3  0  0  0  0  0  0
  -25.8990  -32.5530   24.0260 C   0  0  0  0  0  3  0  0  0  0  0  0
  -25.6050  -33.9660   24.3050 N   0  0  0  0  0  0  0  0  0  0  0  0
  -25.9650  -34.9910   23.5210 C   0  0  0  0  0  0  0  0  0  0  0  0
  -26.6470  -34.8440   22.5030 O   0  0  0  0  0  0  0  0  0  0  0  0
  -25.0020  -34.1550   25.0920 H   0  0  0  0  0  0  0  0  0  0  0  0
  -24.2610  -36.7960   23.1040 C   0  0  0  0  0  1  0  0  0  0  0  0
  -25.4970  -36.4020   23.9300 C   0  0  0  0  0  3  0  0  0  0  0  0
  -27.6400  -37.2920   24.7350 C   0  0  0  0  0  1  0  0  0  0  0  0
  -26.5430  -37.4370   23.7820 N   0  0  0  0  0  0  0  0  0  0  0  0
  -26.1480  -38.3660   23.8920 H   0  0  0  0  0  0  0  0  0  0  0  0
  -26.3480  -31.8120   25.3460 C   0  0  1  0  0  0  0  0  0  0  0  0
  -25.2050  -31.6230   26.3720 C   0  0  0  0  0  1  0  0  0  0  0  0
  -26.9260  -30.4150   25.0240 C   0  0  0  0  0  1  0  0  0  0  0  0
  -27.4800  -32.6100   26.0360 C   0  0  0  0  0  1  0  0  0  0  0  0
  1  2  1  0
  1 51  1  0
  2  3  1  0
  4  2  1  0
  6  7  1  0
  6  2  1  0
  6  5  1  0
  7  8  2  0
  9 15  1  0
  9  8  1  0
 10 15  1  0
 11 12  1  0
 11 10  1  0
 13 12  1  0
 13 20  1  0
 13 14  1  0
 15 14  1  0
 16  9  2  0
 17 18  2  0
 18 37  1  0
 19 18  1  0
 19 22  1  0
 20 21  1  0
 20 17  1  0
 21 19  2  0
 22 23  1  0
 23 24  2  0
 25 28  1  0
 25 24  1  0
 26 25  2  0
 27 26  1  0
 27 22  2  0
 28 29  1  0
 29 30  1  0
 30 31  2  0
 32 31  1  0
 32 36  1  0
 33 32  2  0
 34 29  2  0
 34 33  1  0
 35 34  1  0
 37 38  1  0
 38 41  1  0
 38 40  1  0
 39 37  2  0
 42 17  1  0
 42 43  1  0
 44 42  1  0
 45 47  1  0
 46 50  1  0
 46 45  1  0
 46 47  1  0
 47  1  1  0
 48 49  1  0
 48 50  1  0
 49 50  1  0
 52 51  2  0
 52 53  1  0
 54 65  2  0
 55 53  1  0
 55 60  1  0
 56 64  1  0
 56 66  1  0
 57 63  1  0
 57 59  1  0
 58 64  1  0
 59 60  2  0
 59 58  1  0
 61 55  2  0
 62 61  1  0
 62 57  2  0
 63 56  1  0
 64 54  1  0
 66 68  2  0
 67 66  1  0
 69 67  1  0
 70 79  2  0
 70 75  1  0
 71 67  1  0
 71 75  1  0
 72 71  1  0
 73 74  1  0
 73 72  1  0
 74 70  1  0
 75 76  2  0
 76 77  1  0
 78 77  2  0
 79 78  1  0
 80 54  1  0
 80 81  1  0
 80 90  1  0
 81 84  1  0
 82 86  1  0
 82 81  1  0
 83 82  2  0
 86 85  1  0
 88 89  1  0
 88 86  1  0
 88 87  1  0
 90 93  1  1
 90 91  1  0
 92 90  1  0
M  ISO  4   8 100   9 100  52 101  53 101
M  END
>  <TORSDO>  (3) 
F 24

>  <SCORE>  (3) 
-10.506

>  <name>  (3) 
3

>  <ligand_id>  (3) 
3

>  <original_smiles>  (3) 
[H]c1c([H])c([H])c2c(c1[H])C([H])([H])C([H])([H])C([H])([H])C2([H])N([H])C(=O)C1([H])N(C(=O)C([H])(N([H])C(=O)C([H])(N([H])C([H])([H])[H])C([H])([H])[H])C(C([H])([H])[H])(C([H])([H])[H])C([H])([H])[H])C([H])([H])c2c([H])c(OC([H])([H])C([H])([H])C([H])(C3([H])C([H])([H])C3([H])C3([H])C([H])([H])C3([H])[H])[N+]([H])([H])C([H])(C([H])([H])[H])C([H])([H])C([H])([H])C(=O)N3C([H])([H])C([H])([H])C([H])([H])C([H])(n4nc(-c5c([H])c([H])c(Oc6c([H])c([H])c(F)c([H])c6F)c([H])c5[H])c(C(=O)N([H])[H])c4N([H])[H])C3([H])[H])c([H])c([H])c2C1([H])[H]

>  <smiles>  (3) 
[H]c1c([H])c([H])c2c(c1[H])C([H])([H])C([H])([H])C([H])([H])C2([H])N([H])C(=O)C1([H])N(C(=O)C([H])(N([H])C(=O)C([H])(N([H])C([H])([H])[H])C([H])([H])[H])C(C([H])([H])[H])(C([H])([H])[H])C([H])([H])[H])C([H])([H])c2c([H])c(OC([H])([H])C([H])([H])C([H])(C3([H])C([H])([H])C3([H])C3([H])C([H])([H])C3([H])[H])[N+]([H])([H])C([H])(C([H])([H])[H])C([H])([H])C([H])([H])C(=O)N3C([H])([H])C([H])([H])C([H])([H])C([H])(n4nc(-c5c([H])c([H])c(Oc6c([H])c([H])c(F)c([H])c6F)c([H])c5[H])c(C(=O)N([H])[H])c4N([H])[H])C3([H])[H])c([H])c([H])c2C1([H])[H]

$$$$
4:0:0
     RDKit          3D

 90 98  0  0  1  0  0  0  0  0999 V2000
  -30.7590  -17.8310   19.0650 C   0  0  0  0  0  2  0  0  0  0  0  0
  -29.3070  -18.8310   20.7740 C   0  0  0  0  0  2  0  0  0  0  0  0
  -30.4110  -19.1500   18.2700 C   0  0  0  0  0  3  0  0  0  0  0  0
  -29.6900  -17.2030   19.9990 C   0  0  0  0  0  3  0  0  0  0  0  0
  -29.1180  -20.5040   20.0020 C   0  0  0  0  0  3  0  0  0  0  0  0
  -30.4430  -21.6870   18.2490 C   0  0  0  0  0  1  0  0  0  0  0  0
  -30.3010  -20.4480   19.0730 N   0  0  2  0  0  4  0  0  0  0  0  0
  -31.1120  -20.4460   19.6760 H   0  0  0  0  0  0  0  0  0  0  0  0
  -30.3490  -15.5100   20.3340 C   0  0  0  0  0  0  0  0  0  0  0  0
  -30.3930  -12.9850   19.5370 C   0  0  0  0  0  2  0  0  0  0  0  0
  -29.5210  -12.6380   18.2990 C   0  0  0  0  0  2  0  0  0  0  0  0
  -28.0820  -12.3120   18.7200 C   0  0  0  0  0  2  0  0  0  0  0  0
  -27.5570  -13.3410   19.7450 C   0  0  0  0  0  3  0  0  0  0  0  0
  -28.5590  -13.6280   20.8830 C   0  0  0  0  0  2  0  0  0  0  0  0
  -29.7870  -14.1760   20.2710 N   0  0  0  0  0  0  0  0  0  0  0  0
  -31.5870  -15.3910   20.2960 O   0  0  0  0  0  0  0  0  0  0  0  0
  -25.1810  -13.8930   20.4600 C   0  0  0  0  0  0  0  0  0  0  0  0
  -24.1160  -13.1180   20.8160 C   0  0  0  0  0  0  0  0  0  0  0  0
  -24.5870  -11.7680   20.8140 C   0  0  0  0  0  0  0  0  0  0  0  0
  -26.2290  -13.0180   20.2440 N   0  0  0  0  0  0  0  0  0  0  0  0
  -25.8860  -11.7350   20.5290 N   0  0  0  0  0  0  0  0  0  0  0  0
  -23.8590  -10.5060   21.0050 C   0  0  0  0  0  0  0  0  0  0  0  0
  -24.2760   -9.5490   21.9560 C   0  0  0  0  0  3  0  0  0  0  0  0
  -23.5450   -8.3540   22.1370 C   0  0  0  0  0  3  0  0  0  0  0  0
  -22.3860   -8.1090   21.3660 C   0  0  0  0  0  0  0  0  0  0  0  0
  -21.9870   -9.0530   20.4040 C   0  0  0  0  0  3  0  0  0  0  0  0
  -22.7180  -10.2390   20.2210 C   0  0  0  0  0  3  0  0  0  0  0  0
  -21.6280   -6.9650   21.4540 O   0  0  0  0  0  0  0  0  0  0  0  0
  -21.5640   -6.2310   22.6110 C   0  0  0  0  0  0  0  0  0  0  0  0
  -21.1360   -6.7980   23.8310 C   0  0  0  0  0  3  0  0  0  0  0  0
  -21.0210   -5.9920   24.9800 C   0  0  0  0  0  3  0  0  0  0  0  0
  -21.3200   -4.6180   24.9110 C   0  0  0  0  0  0  0  0  0  0  0  0
  -21.7400   -4.0500   23.6960 C   0  0  0  0  0  3  0  0  0  0  0  0
  -21.8590   -4.8540   22.5490 C   0  0  0  0  0  0  0  0  0  0  0  0
  -22.2450   -4.2960   21.3760 F   0  0  0  0  0  0  0  0  0  0  0  0
  -21.2010   -3.8430   26.0140 F   0  0  0  0  0  0  0  0  0  0  0  0
  -22.7090  -13.5930   21.0420 C   0  0  0  0  0  0  0  0  0  0  0  0
  -21.9620  -12.9110   21.9010 N   0  0  0  0  0  0  0  0  0  0  0  0
  -22.2820  -14.6080   20.4900 O   0  0  0  0  0  0  0  0  0  0  0  0
  -22.3210  -12.0950   22.3750 H   0  0  0  0  0  0  0  0  0  0  0  0
  -21.0160  -13.2100   22.0880 H   0  0  0  0  0  0  0  0  0  0  0  0
  -25.3480  -15.2630   20.2660 N   0  0  0  0  0  0  0  0  0  0  0  0
  -24.5880  -15.9260   20.3690 H   0  0  0  0  0  0  0  0  0  0  0  0
  -26.2110  -15.6950   19.9640 H   0  0  0  0  0  0  0  0  0  0  0  0
  -32.7740  -19.1240   17.3520 C   0  0  0  0  0  2  0  0  0  0  0  0
  -31.4500  -19.2810   17.1480 C   0  0  0  0  0  0  0  0  0  0  0  0
  -30.9060  -19.5790   15.7660 C   0  0  0  0  0  1  0  0  0  0  0  0
  -28.8070  -22.2930   20.5980 C   0  0  0  0  0  2  0  0  0  0  0  0
  -28.0820  -23.9550   20.0100 C   0  0  0  0  0  2  0  0  0  0  0  0
  -28.2020  -25.6530   20.2820 O   0  0  0  0  0  0  0  0  0  0  0  0
  -24.6650  -31.8380   23.1210 C   0  0  0  0  0  0  0  0  0  0  0  0
  -27.2150  -26.8190   20.1630 C   0  0  0  0  0  0  0  0  0  0  0  0
  -23.4820  -30.4300   21.4880 C   0  0  0  0  0  3  0  0  0  0  0  0
  -24.9360  -28.7950   20.0860 C   0  0  0  0  0  0  0  0  0  0  0  0
  -26.0560  -30.6020   21.3640 C   0  0  0  0  0  2  0  0  0  0  0  0
  -26.1260  -29.1740   20.7180 C   0  0  0  0  0  0  0  0  0  0  0  0
  -27.2520  -28.2090   20.7250 C   0  0  0  0  0  3  0  0  0  0  0  0
  -25.9930  -26.6290   19.4690 C   0  0  0  0  0  3  0  0  0  0  0  0
  -24.9020  -27.5480   19.4400 C   0  0  0  0  0  3  0  0  0  0  0  0
  -23.7230  -29.7300   20.1230 C   0  0  0  0  0  2  0  0  0  0  0  0
  -24.7580  -30.9880   22.0430 N   0  0  0  0  0  0  0  0  0  0  0  0
  -23.5720  -32.1290   23.6360 O   0  0  0  0  0  0  0  0  0  0  0  0
  -22.7690  -29.4500   22.4590 C   0  0  0  0  0  0  0  0  0  0  0  0
  -21.4320  -29.3130   22.3540 N   0  0  0  0  0  0  0  0  0  0  0  0
  -23.4310  -28.8060   23.2770 O   0  0  0  0  0  0  0  0  0  0  0  0
  -20.9410  -29.8760   21.6740 H   0  0  0  0  0  0  0  0  0  0  0  0
  -18.0410  -28.1480   22.9180 C   0  0  0  0  0  0  0  0  0  0  0  0
  -20.6090  -28.3830   23.1380 C   0  0  0  0  0  3  0  0  0  0  0  0
  -20.6820  -26.9510   22.5570 C   0  0  0  0  0  2  0  0  0  0  0  0
  -19.5620  -26.6500   21.5570 C   0  0  0  0  0  2  0  0  0  0  0  0
  -18.1920  -26.8040   22.2250 C   0  0  0  0  0  2  0  0  0  0  0  0
  -19.1750  -28.8960   23.3330 C   0  0  0  0  0  0  0  0  0  0  0  0
  -18.9770  -30.1520   23.9450 C   0  0  0  0  0  3  0  0  0  0  0  0
  -17.6810  -30.6620   24.1430 C   0  0  0  0  0  3  0  0  0  0  0  0
  -16.5620  -29.9140   23.7420 C   0  0  0  0  0  3  0  0  0  0  0  0
  -16.7420  -28.6570   23.1360 C   0  0  0  0  0  3  0  0  0  0  0  0
  -25.9300  -32.4940   23.7550 C   0  0  0  0  0  3  0  0  0  0  0  0
  -26.4510  -31.7210   25.0310 C   0  0  1  0  0  0  0  0  0  0  0  0
  -25.3590  -31.4800   26.0990 C   0  0  0  0  0  1  0  0  0  0  0  0
  -27.0380  -30.3430   24.6490 C   0  0  0  0  0  1  0  0  0  0  0  0
  -27.6010  -32.5160   25.6960 C   0  0  0  0  0  1  0  0  0  0  0  0
  -25.5980  -33.8860   24.1110 N   0  0  0  0  0  0  0  0  0  0  0  0
  -25.9240  -34.9630   23.3850 C   0  0  0  0  0  0  0  0  0  0  0  0
  -26.5920  -34.8890   22.3510 O   0  0  0  0  0  0  0  0  0  0  0  0
  -24.9990  -34.0170   24.9150 H   0  0  0  0  0  0  0  0  0  0  0  0
  -24.1840  -36.7630   23.0910 C   0  0  0  0  0  1  0  0  0  0  0  0
  -25.4350  -36.3420   23.8790 C   0  0  0  0  0  3  0  0  0  0  0  0
  -27.5700  -37.2240   24.7120 C   0  0  0  0  0  1  0  0  0  0  0  0
  -26.4590  -37.4050   23.7820 N   0  0  0  0  0  0  0  0  0  0  0  0
  -26.0470  -38.3180   23.9580 H   0  0  0  0  0  0  0  0  0  0  0  0
  1  4  1  0
  3 46  1  0
  3  1  1  0
  3  7  1  0
  4  9  1  0
  4  2  1  0
  5 48  1  0
  5  2  1  0
  6  7  1  0
  7  8  1  1
  7  5  1  0
 10 15  1  0
 11 12  1  0
 11 10  1  0
 13 12  1  0
 13 20  1  0
 13 14  1  0
 15  9  1  0
 15 14  1  0
 16  9  2  0
 17 18  2  0
 18 37  1  0
 19 18  1  0
 19 22  1  0
 20 17  1  0
 20 21  1  0
 21 19  2  0
 22 23  1  0
 23 24  2  0
 25 28  1  0
 25 24  1  0
 26 25  2  0
 27 26  1  0
 27 22  2  0
 28 29  1  0
 29 30  1  0
 30 31  2  0
 32 31  1  0
 32 36  1  0
 33 32  2  0
 34 29  2  0
 34 33  1  0
 35 34  1  0
 37 38  1  0
 38 41  1  0
 38 40  1  0
 39 37  2  0
 42 43  1  0
 42 17  1  0
 44 42  1  0
 46 45  2  0
 47 46  1  0
 49 50  1  0
 49 48  1  0
 51 62  2  0
 52 50  1  0
 52 57  1  0
 53 61  1  0
 53 63  1  0
 54 60  1  0
 54 56  1  0
 55 61  1  0
 56 57  2  0
 56 55  1  0
 58 52  2  0
 59 58  1  0
 59 54  2  0
 60 53  1  0
 61 51  1  0
 63 65  2  0
 64 63  1  0
 66 64  1  0
 67 76  2  0
 67 72  1  0
 68 64  1  0
 68 72  1  0
 69 68  1  0
 70 71  1  0
 70 69  1  0
 71 67  1  0
 72 73  2  0
 73 74  1  0
 75 74  2  0
 76 75  1  0
 77 51  1  0
 77 82  1  0
 77 78  1  0
 78 81  1  1
 78 79  1  0
 80 78  1  0
 82 85  1  0
 83 87  1  0
 83 82  1  0
 84 83  2  0
 87 86  1  0
 89 87  1  0
 89 90  1  0
 89 88  1  0
M  ISO  4   4 100   9 100  49 101  50 101
M  END
>  <TORSDO>  (4) 
F 19

>  <SCORE>  (4) 
-15.899

>  <name>  (4) 
4

>  <ligand_id>  (4) 
4

>  <original_smiles>  (4) 
[H]C([H])=C(C([H])([H])[H])C1([H])C([H])([H])C([H])(C(=O)N2C([H])([H])C([H])([H])C([H])([H])C([H])(n3nc(-c4c([H])c([H])c(Oc5c([H])c([H])c(F)c([H])c5F)c([H])c4[H])c(C(=O)N([H])[H])c3N([H])[H])C2([H])[H])C([H])([H])C([H])(C([H])([H])C([H])([H])Oc2c([H])c([H])c3c(c2[H])C([H])([H])N(C(=O)C([H])(N([H])C(=O)C([H])(N([H])C([H])([H])[H])C([H])([H])[H])C(C([H])([H])[H])(C([H])([H])[H])C([H])([H])[H])C([H])(C(=O)N([H])C2([H])c4c([H])c([H])c([H])c([H])c4C([H])([H])C([H])([H])C2([H])[H])C3([H])[H])[N+]1([H])C([H])([H])[H]

>  <smiles>  (4) 
[H]C([H])=C(C([H])([H])[H])C1([H])C([H])([H])C([H])(C(=O)N2C([H])([H])C([H])([H])C([H])([H])C([H])(n3nc(-c4c([H])c([H])c(Oc5c([H])c([H])c(F)c([H])c5F)c([H])c4[H])c(C(=O)N([H])[H])c3N([H])[H])C2([H])[H])C([H])([H])C([H])(C([H])([H])C([H])([H])Oc2c([H])c([H])c3c(c2[H])C([H])([H])N(C(=O)C([H])(N([H])C(=O)C([H])(N([H])C([H])([H])[H])C([H])([H])[H])C(C([H])([H])[H])(C([H])([H])[H])C([H])([H])[H])C([H])(C(=O)N([H])C2([H])c4c([H])c([H])c([H])c([H])c4C([H])([H])C([H])([H])C2([H])[H])C3([H])[H])[N+]1([H])C([H])([H])[H]

$$$$
5:0:0
     RDKit          3D

 91100  0  0  1  0  0  0  0  0999 V2000
  -30.5460  -24.3830   20.4670 C   0  0  0  0  0  2  0  0  0  0  0  0
  -30.8280  -22.8690   20.3940 C   0  0  0  0  0  2  0  0  0  0  0  0
  -29.3050  -21.4450   18.9010 C   0  0  0  0  0  2  0  0  0  0  0  0
  -28.4170  -23.2980   20.4980 C   0  0  0  0  0  2  0  0  0  0  0  0
  -29.8990  -20.0300   19.0850 C   0  0  0  0  0  2  0  0  0  0  0  0
  -29.3090  -20.9240   21.2060 C   0  0  0  0  0  2  0  0  0  0  0  0
  -29.1920  -24.4530   21.1650 C   0  0  0  0  0  3  0  0  0  0  0  0
  -29.4550  -22.1520   20.2580 C   0  0  2  0  0  0  0  0  0  0  0  0
  -29.9740  -19.7670   20.5420 N   0  0  1  0  0  4  0  0  0  0  0  0
  -30.9500  -19.8460   20.7900 H   0  0  0  0  0  0  0  0  0  0  0  0
  -28.5130  -25.8530   21.2950 C   0  0  0  0  0  2  0  0  0  0  0  0
  -28.3790  -26.6520   20.1110 O   0  0  0  0  0  0  0  0  0  0  0  0
  -24.6070  -31.8820   23.2310 C   0  0  0  0  0  0  0  0  0  0  0  0
  -27.2490  -27.4450   20.1240 C   0  0  0  0  0  0  0  0  0  0  0  0
  -23.3990  -30.4770   21.5930 C   0  0  0  0  0  3  0  0  0  0  0  0
  -24.8540  -28.9480   20.1550 C   0  0  0  0  0  0  0  0  0  0  0  0
  -25.9220  -30.8430   21.3830 C   0  0  0  0  0  2  0  0  0  0  0  0
  -26.0140  -29.4730   20.7390 C   0  0  0  0  0  0  0  0  0  0  0  0
  -27.2190  -28.7280   20.7240 C   0  0  0  0  0  3  0  0  0  0  0  0
  -26.0760  -26.9340   19.5370 C   0  0  0  0  0  3  0  0  0  0  0  0
  -24.8780  -27.6770   19.5540 C   0  0  0  0  0  3  0  0  0  0  0  0
  -23.6050  -29.8010   20.2110 C   0  0  0  0  0  2  0  0  0  0  0  0
  -24.6620  -31.0820   22.1280 N   0  0  0  0  0  0  0  0  0  0  0  0
  -23.5260  -32.1500   23.7750 O   0  0  0  0  0  0  0  0  0  0  0  0
  -22.7530  -29.4530   22.5540 C   0  0  0  0  0  0  0  0  0  0  0  0
  -21.4270  -29.2690   22.4310 N   0  0  0  0  0  0  0  0  0  0  0  0
  -23.4400  -28.8280   23.3660 O   0  0  0  0  0  0  0  0  0  0  0  0
  -20.9360  -29.8280   21.7480 H   0  0  0  0  0  0  0  0  0  0  0  0
  -18.0560  -28.0690   22.9420 C   0  0  0  0  0  0  0  0  0  0  0  0
  -20.6150  -28.3270   23.2010 C   0  0  0  0  0  3  0  0  0  0  0  0
  -20.7140  -26.8990   22.6180 C   0  0  0  0  0  2  0  0  0  0  0  0
  -19.6090  -26.5800   21.6070 C   0  0  0  0  0  2  0  0  0  0  0  0
  -18.2300  -26.7230   22.2590 C   0  0  0  0  0  2  0  0  0  0  0  0
  -19.1760  -28.8300   23.3700 C   0  0  0  0  0  0  0  0  0  0  0  0
  -18.9620  -30.0910   23.9670 C   0  0  0  0  0  3  0  0  0  0  0  0
  -17.6590  -30.5950   24.1380 C   0  0  0  0  0  3  0  0  0  0  0  0
  -16.5530  -29.8320   23.7280 C   0  0  0  0  0  3  0  0  0  0  0  0
  -16.7520  -28.5700   23.1390 C   0  0  0  0  0  3  0  0  0  0  0  0
  -25.8930  -32.5130   23.8490 C   0  0  0  0  0  3  0  0  0  0  0  0
  -26.4150  -31.7420   25.1230 C   0  0  1  0  0  0  0  0  0  0  0  0
  -25.3250  -31.5040   26.1950 C   0  0  0  0  0  1  0  0  0  0  0  0
  -26.9950  -30.3640   24.7240 C   0  0  0  0  0  1  0  0  0  0  0  0
  -27.5680  -32.5340   25.7800 C   0  0  0  0  0  1  0  0  0  0  0  0
  -25.5850  -33.9120   24.1780 N   0  0  0  0  0  0  0  0  0  0  0  0
  -25.9210  -34.9630   23.4180 C   0  0  0  0  0  0  0  0  0  0  0  0
  -26.5940  -34.8600   22.3890 O   0  0  0  0  0  0  0  0  0  0  0  0
  -24.9870  -34.0670   24.9760 H   0  0  0  0  0  0  0  0  0  0  0  0
  -24.1970  -36.7560   23.0530 C   0  0  0  0  0  1  0  0  0  0  0  0
  -25.4330  -36.3520   23.8730 C   0  0  0  0  0  3  0  0  0  0  0  0
  -27.5640  -37.2290   24.7180 C   0  0  0  0  0  1  0  0  0  0  0  0
  -26.4660  -37.4050   23.7690 N   0  0  0  0  0  0  0  0  0  0  0  0
  -26.0610  -38.3240   23.9220 H   0  0  0  0  0  0  0  0  0  0  0  0
  -29.5130  -18.4080   20.9900 C   0  0  0  0  0  3  0  0  0  0  0  0
  -30.3580  -17.1930   20.4720 C   0  0  0  0  0  3  0  0  0  0  0  0
  -29.8970  -15.7880   21.0020 C   0  0  0  0  0  2  0  0  0  0  0  0
  -30.6220  -14.5480   20.3880 C   0  0  0  0  0  0  0  0  0  0  0  0
  -30.3480  -12.3710   19.2350 C   0  0  0  0  0  2  0  0  0  0  0  0
  -29.4030  -12.5680   18.0300 C   0  0  0  0  0  2  0  0  0  0  0  0
  -27.9310  -12.4220   18.4620 C   0  0  0  0  0  2  0  0  0  0  0  0
  -27.5930  -13.2610   19.7230 C   0  0  0  0  0  3  0  0  0  0  0  0
  -28.6520  -13.0470   20.8290 C   0  0  0  0  0  2  0  0  0  0  0  0
  -29.9700  -13.3570   20.2620 N   0  0  0  0  0  0  0  0  0  0  0  0
  -31.7510  -14.7160   19.9210 O   0  0  0  0  0  0  0  0  0  0  0  0
  -25.1950  -13.8760   20.4230 C   0  0  0  0  0  0  0  0  0  0  0  0
  -24.1260  -13.1070   20.7980 C   0  0  0  0  0  0  0  0  0  0  0  0
  -24.5890  -11.7550   20.7850 C   0  0  0  0  0  0  0  0  0  0  0  0
  -26.2410  -12.9920   20.2030 N   0  0  0  0  0  0  0  0  0  0  0  0
  -25.8790  -11.7140   20.4800 N   0  0  0  0  0  0  0  0  0  0  0  0
  -23.8630  -10.4950   20.9860 C   0  0  0  0  0  0  0  0  0  0  0  0
  -24.2950   -9.5360   21.9300 C   0  0  0  0  0  3  0  0  0  0  0  0
  -23.5710   -8.3400   22.1180 C   0  0  0  0  0  3  0  0  0  0  0  0
  -22.3990   -8.0950   21.3640 C   0  0  0  0  0  0  0  0  0  0  0  0
  -21.9860   -9.0410   20.4100 C   0  0  0  0  0  3  0  0  0  0  0  0
  -22.7110  -10.2290   20.2190 C   0  0  0  0  0  3  0  0  0  0  0  0
  -21.6450   -6.9500   21.4630 O   0  0  0  0  0  0  0  0  0  0  0  0
  -21.5990   -6.2160   22.6210 C   0  0  0  0  0  0  0  0  0  0  0  0
  -21.1700   -6.7800   23.8440 C   0  0  0  0  0  3  0  0  0  0  0  0
  -21.0700   -5.9720   24.9940 C   0  0  0  0  0  3  0  0  0  0  0  0
  -21.3900   -4.6040   24.9250 C   0  0  0  0  0  0  0  0  0  0  0  0
  -21.8120   -4.0400   23.7080 C   0  0  0  0  0  3  0  0  0  0  0  0
  -21.9130   -4.8430   22.5590 C   0  0  0  0  0  0  0  0  0  0  0  0
  -22.3000   -4.2910   21.3840 F   0  0  0  0  0  0  0  0  0  0  0  0
  -21.2870   -3.8260   26.0270 F   0  0  0  0  0  0  0  0  0  0  0  0
  -22.7280  -13.5860   21.0620 C   0  0  0  0  0  0  0  0  0  0  0  0
  -21.9990  -12.8960   21.9320 N   0  0  0  0  0  0  0  0  0  0  0  0
  -22.2900  -14.6060   20.5310 O   0  0  0  0  0  0  0  0  0  0  0  0
  -22.3670  -12.0690   22.3800 H   0  0  0  0  0  0  0  0  0  0  0  0
  -21.0610  -13.1970   22.1540 H   0  0  0  0  0  0  0  0  0  0  0  0
  -25.3600  -15.2450   20.2280 N   0  0  0  0  0  0  0  0  0  0  0  0
  -24.5930  -15.9020   20.3210 H   0  0  0  0  0  0  0  0  0  0  0  0
  -26.2100  -15.6740   19.8860 H   0  0  0  0  0  0  0  0  0  0  0  0
  1  7  1  0
  2  1  1  0
  3  5  1  0
  4  7  1  0
  5  9  1  0
  7 11  1  0
  8  3  1  6
  8  2  1  0
  8  4  1  0
  8  6  1  0
  9 10  1  1
  9 53  1  0
  9  6  1  0
 12 14  1  0
 12 11  1  0
 13 24  2  0
 14 19  1  0
 15 23  1  0
 15 25  1  0
 16 22  1  0
 16 18  1  0
 17 23  1  0
 18 17  1  0
 19 18  2  0
 20 21  1  0
 20 14  2  0
 21 16  2  0
 22 15  1  0
 23 13  1  0
 25 27  2  0
 26 25  1  0
 28 26  1  0
 29 38  2  0
 29 34  1  0
 30 26  1  0
 30 34  1  0
 31 30  1  0
 32 33  1  0
 32 31  1  0
 33 29  1  0
 34 35  2  0
 35 36  1  0
 37 36  2  0
 38 37  1  0
 39 13  1  0
 39 44  1  0
 39 40  1  0
 40 43  1  1
 40 41  1  0
 42 40  1  0
 44 47  1  0
 45 49  1  0
 45 44  1  0
 46 45  2  0
 49 48  1  0
 51 49  1  0
 51 52  1  0
 51 50  1  0
 54 53  2  0
 54 55  1  0
 56 55  1  0
 57 62  1  0
 58 59  1  0
 58 57  1  0
 60 59  1  0
 60 67  1  0
 60 61  1  0
 62 56  1  0
 62 61  1  0
 63 56  2  0
 64 65  2  0
 65 84  1  0
 66 65  1  0
 66 69  1  0
 67 64  1  0
 67 68  1  0
 68 66  2  0
 69 70  1  0
 70 71  2  0
 72 75  1  0
 72 71  1  0
 73 72  2  0
 74 73  1  0
 74 69  2  0
 75 76  1  0
 76 77  1  0
 77 78  2  0
 79 78  1  0
 79 83  1  0
 80 79  2  0
 81 76  2  0
 81 80  1  0
 82 81  1  0
 84 85  1  0
 85 88  1  0
 85 87  1  0
 86 84  2  0
 89 90  1  0
 89 64  1  0
 91 89  1  0
M  ISO  4  11 101  12 101  55 100  56 100
M  END
>  <TORSDO>  (5) 
F 20

>  <SCORE>  (5) 
-13.789

>  <name>  (5) 
5

>  <ligand_id>  (5) 
5

>  <original_smiles>  (5) 
[H]c1c([H])c([H])c2c(c1[H])C([H])([H])C([H])([H])C([H])([H])C2([H])N([H])C(=O)C1([H])N(C(=O)C([H])(N([H])C(=O)C([H])(N([H])C([H])([H])[H])C([H])([H])[H])C(C([H])([H])[H])(C([H])([H])[H])C([H])([H])[H])C([H])([H])c2c([H])c(OC([H])([H])C3([H])C([H])([H])C([H])([H])C4(C3([H])[H])C([H])([H])C([H])([H])[N+]([H])(C([H])([H])C([H])([H])C([H])([H])C(=O)N3C([H])([H])C([H])([H])C([H])([H])C([H])(n5nc(-c6c([H])c([H])c(Oc7c([H])c([H])c(F)c([H])c7F)c([H])c6[H])c(C(=O)N([H])[H])c5N([H])[H])C3([H])[H])C4([H])[H])c([H])c([H])c2C1([H])[H]

>  <smiles>  (5) 
[H]c1c([H])c([H])c2c(c1[H])C([H])([H])C([H])([H])C([H])([H])C2([H])N([H])C(=O)C1([H])N(C(=O)C([H])(N([H])C(=O)C([H])(N([H])C([H])([H])[H])C([H])([H])[H])C(C([H])([H])[H])(C([H])([H])[H])C([H])([H])[H])C([H])([H])c2c([H])c(OC([H])([H])C3([H])C([H])([H])C([H])([H])C4(C3([H])[H])C([H])([H])C([H])([H])[N+]([H])(C([H])([H])C([H])([H])C([H])([H])C(=O)N3C([H])([H])C([H])([H])C([H])([H])C([H])(n5nc(-c6c([H])c([H])c(Oc7c([H])c([H])c(F)c([H])c7F)c([H])c6[H])c(C(=O)N([H])[H])c5N([H])[H])C3([H])[H])C4([H])[H])c([H])c([H])c2C1([H])[H]

$$$$
6:0:0
     RDKit          3D

 89 98  0  0  1  0  0  0  0  0999 V2000
  -30.4060  -18.2720   16.1120 C   0  0  0  0  0  2  0  0  0  0  0  0
  -31.5770  -19.0010   16.8080 C   0  0  0  0  0  2  0  0  0  0  0  0
  -29.5680  -17.4270   17.0860 C   0  0  0  0  0  2  0  0  0  0  0  0
  -31.4590  -19.0090   18.3420 C   0  0  0  0  0  2  0  0  0  0  0  0
  -28.5040  -17.4400   19.4390 C   0  0  0  0  0  2  0  0  0  0  0  0
  -29.5370  -17.5230   20.5740 C   0  0  0  0  0  3  0  0  0  0  0  0
  -29.0040  -18.2830   18.2440 C   0  0  0  0  0  3  0  0  0  0  0  0
  -30.0150  -19.3250   18.7770 C   0  0  0  0  0  3  0  0  0  0  0  0
  -29.8200  -19.3590   20.3000 C   0  0  0  0  0  3  0  0  0  0  0  0
  -30.4420  -15.9200   20.5310 C   0  0  0  0  0  0  0  0  0  0  0  0
  -30.6220  -13.3880   19.7640 C   0  0  0  0  0  2  0  0  0  0  0  0
  -29.7900  -13.0510   18.4950 C   0  0  0  0  0  2  0  0  0  0  0  0
  -28.3400  -12.6930   18.8580 C   0  0  0  0  0  2  0  0  0  0  0  0
  -27.7700  -13.6650   19.9130 C   0  0  0  0  0  3  0  0  0  0  0  0
  -28.7380  -13.9640   21.0790 C   0  0  0  0  0  2  0  0  0  0  0  0
  -29.9730  -14.5470   20.5120 N   0  0  0  0  0  0  0  0  0  0  0  0
  -31.6770  -15.9140   20.3900 O   0  0  0  0  0  0  0  0  0  0  0  0
  -25.3590  -14.1700   20.5370 C   0  0  0  0  0  0  0  0  0  0  0  0
  -24.2960  -13.3730   20.8490 C   0  0  0  0  0  0  0  0  0  0  0  0
  -24.7960  -12.0320   20.8590 C   0  0  0  0  0  0  0  0  0  0  0  0
  -26.4320  -13.3160   20.3600 N   0  0  0  0  0  0  0  0  0  0  0  0
  -26.1040  -12.0250   20.6230 N   0  0  0  0  0  0  0  0  0  0  0  0
  -24.0880  -10.7570   21.0220 C   0  0  0  0  0  0  0  0  0  0  0  0
  -24.4630   -9.8240   22.0130 C   0  0  0  0  0  3  0  0  0  0  0  0
  -23.7530   -8.6130   22.1620 C   0  0  0  0  0  3  0  0  0  0  0  0
  -22.6550   -8.3270   21.3180 C   0  0  0  0  0  0  0  0  0  0  0  0
  -22.3000   -9.2490   20.3180 C   0  0  0  0  0  3  0  0  0  0  0  0
  -23.0100  -10.4520   20.1680 C   0  0  0  0  0  3  0  0  0  0  0  0
  -21.9230   -7.1660   21.3720 O   0  0  0  0  0  0  0  0  0  0  0  0
  -21.7640   -6.4690   22.5430 C   0  0  0  0  0  0  0  0  0  0  0  0
  -21.1530   -7.0460   23.6770 C   0  0  0  0  0  3  0  0  0  0  0  0
  -20.9450   -6.2730   24.8360 C   0  0  0  0  0  3  0  0  0  0  0  0
  -21.3390   -4.9210   24.8600 C   0  0  0  0  0  0  0  0  0  0  0  0
  -21.9440   -4.3440   23.7300 C   0  0  0  0  0  3  0  0  0  0  0  0
  -22.1520   -5.1140   22.5730 C   0  0  0  0  0  0  0  0  0  0  0  0
  -22.7150   -4.5460   21.4800 F   0  0  0  0  0  0  0  0  0  0  0  0
  -21.1330   -4.1750   25.9700 F   0  0  0  0  0  0  0  0  0  0  0  0
  -22.8750  -13.8190   21.0270 C   0  0  0  0  0  0  0  0  0  0  0  0
  -22.1140  -13.1240   21.8630 N   0  0  0  0  0  0  0  0  0  0  0  0
  -22.4460  -14.8240   20.4600 O   0  0  0  0  0  0  0  0  0  0  0  0
  -22.4730  -12.3130   22.3440 H   0  0  0  0  0  0  0  0  0  0  0  0
  -21.1590  -13.4110   22.0240 H   0  0  0  0  0  0  0  0  0  0  0  0
  -25.5070  -15.5440   20.3570 N   0  0  0  0  0  0  0  0  0  0  0  0
  -24.7300  -16.1920   20.4280 H   0  0  0  0  0  0  0  0  0  0  0  0
  -26.3750  -15.9930   20.1010 H   0  0  0  0  0  0  0  0  0  0  0  0
  -28.8460  -20.9530   20.5510 C   0  0  0  0  0  2  0  0  0  0  0  0
  -29.0060  -22.7910   20.1820 C   0  0  0  0  0  3  0  0  0  0  0  0
  -27.9760  -24.3600   20.3140 C   0  0  0  0  0  3  0  0  0  0  0  0
  -28.1500  -26.0580   20.1910 O   0  0  0  0  0  0  0  0  0  0  0  0
  -24.5960  -32.0730   23.3710 C   0  0  0  0  0  0  0  0  0  0  0  0
  -27.1290  -27.1920   20.2130 C   0  0  0  0  0  0  0  0  0  0  0  0
  -23.3850  -30.7060   21.7230 C   0  0  0  0  0  3  0  0  0  0  0  0
  -24.8210  -29.1220   20.2480 C   0  0  0  0  0  0  0  0  0  0  0  0
  -25.9520  -30.9090   21.5450 C   0  0  0  0  0  2  0  0  0  0  0  0
  -26.0210  -29.5040   20.8550 C   0  0  0  0  0  0  0  0  0  0  0  0
  -27.1660  -28.5680   20.8050 C   0  0  0  0  0  3  0  0  0  0  0  0
  -25.8880  -26.9890   19.5620 C   0  0  0  0  0  3  0  0  0  0  0  0
  -24.7840  -27.8880   19.5780 C   0  0  0  0  0  3  0  0  0  0  0  0
  -23.5970  -30.0420   20.3340 C   0  0  0  0  0  2  0  0  0  0  0  0
  -24.6680  -31.2590   22.2650 N   0  0  0  0  0  0  0  0  0  0  0  0
  -23.5130  -32.3460   23.9170 O   0  0  0  0  0  0  0  0  0  0  0  0
  -22.7040  -29.6940   22.6830 C   0  0  0  0  0  0  0  0  0  0  0  0
  -21.3870  -29.4680   22.5230 N   0  0  0  0  0  0  0  0  0  0  0  0
  -23.3730  -29.1090   23.5390 O   0  0  0  0  0  0  0  0  0  0  0  0
  -20.9000  -29.9810   21.8020 H   0  0  0  0  0  0  0  0  0  0  0  0
  -18.0680  -28.0560   22.9250 C   0  0  0  0  0  0  0  0  0  0  0  0
  -20.5920  -28.4980   23.2860 C   0  0  0  0  0  3  0  0  0  0  0  0
  -20.8130  -27.0640   22.7540 C   0  0  0  0  0  2  0  0  0  0  0  0
  -19.7800  -26.6470   21.7020 C   0  0  0  0  0  2  0  0  0  0  0  0
  -18.3640  -26.7100   22.2840 C   0  0  0  0  0  2  0  0  0  0  0  0
  -19.1150  -28.9020   23.3810 C   0  0  0  0  0  0  0  0  0  0  0  0
  -18.7850  -30.1530   23.9440 C   0  0  0  0  0  3  0  0  0  0  0  0
  -17.4440  -30.5640   24.0550 C   0  0  0  0  0  3  0  0  0  0  0  0
  -16.4120  -29.7180   23.6140 C   0  0  0  0  0  3  0  0  0  0  0  0
  -16.7240  -28.4660   23.0550 C   0  0  0  0  0  3  0  0  0  0  0  0
  -25.8710  -32.7130   23.9980 C   0  0  0  0  0  3  0  0  0  0  0  0
  -26.3780  -31.9500   25.2860 C   0  0  1  0  0  0  0  0  0  0  0  0
  -25.2770  -31.7290   26.3510 C   0  0  0  0  0  1  0  0  0  0  0  0
  -26.9560  -30.5640   24.9210 C   0  0  0  0  0  1  0  0  0  0  0  0
  -27.5310  -32.7430   25.9460 C   0  0  0  0  0  1  0  0  0  0  0  0
  -25.5600  -34.1140   24.3350 N   0  0  0  0  0  0  0  0  0  0  0  0
  -25.9020  -35.1780   23.5960 C   0  0  0  0  0  0  0  0  0  0  0  0
  -26.5760  -35.0830   22.5670 O   0  0  0  0  0  0  0  0  0  0  0  0
  -24.9570  -34.2600   25.1310 H   0  0  0  0  0  0  0  0  0  0  0  0
  -24.2000  -37.0060   23.2570 C   0  0  0  0  0  1  0  0  0  0  0  0
  -25.4280  -36.5660   24.0720 C   0  0  0  0  0  3  0  0  0  0  0  0
  -27.5570  -37.4250   24.9470 C   0  0  0  0  0  1  0  0  0  0  0  0
  -26.4730  -37.6110   23.9870 N   0  0  0  0  0  0  0  0  0  0  0  0
  -26.0730  -38.5330   24.1370 H   0  0  0  0  0  0  0  0  0  0  0  0
  1  2  1  0
  1  3  1  0
  2  4  1  0
  5  6  1  0
  6 10  1  0
  7  3  1  0
  7  8  1  0
  7  5  1  0
  8  4  1  0
  8  9  1  0
  9 46  1  0
  9  6  1  0
 11 16  1  0
 12 13  1  0
 12 11  1  0
 14 13  1  0
 14 21  1  0
 14 15  1  0
 16 10  1  0
 16 15  1  0
 17 10  2  0
 18 19  2  0
 19 20  1  0
 19 38  1  0
 20 23  1  0
 21 18  1  0
 21 22  1  0
 22 20  2  0
 23 24  1  0
 24 25  2  0
 26 29  1  0
 26 25  1  0
 27 26  2  0
 28 27  1  0
 28 23  2  0
 29 30  1  0
 30 35  2  0
 30 31  1  0
 31 32  2  0
 32 33  1  0
 33 37  1  0
 34 33  2  0
 35 34  1  0
 36 35  1  0
 38 39  1  0
 39 42  1  0
 39 41  1  0
 40 38  2  0
 43 44  1  0
 43 18  1  0
 45 43  1  0
 47 48  2  0
 47 46  1  0
 49 51  1  0
 49 48  1  0
 50 61  2  0
 51 56  1  0
 52 60  1  0
 52 62  1  0
 53 59  1  0
 53 55  1  0
 54 60  1  0
 55 54  1  0
 56 55  2  0
 57 58  1  0
 57 51  2  0
 58 53  2  0
 59 52  1  0
 60 50  1  0
 62 64  2  0
 63 62  1  0
 65 63  1  0
 66 75  2  0
 66 71  1  0
 67 63  1  0
 67 71  1  0
 68 67  1  0
 69 70  1  0
 69 68  1  0
 70 66  1  0
 71 72  2  0
 72 73  1  0
 74 73  2  0
 75 74  1  0
 76 50  1  0
 76 81  1  0
 76 77  1  0
 77 80  1  1
 77 78  1  0
 79 77  1  0
 81 84  1  0
 82 86  1  0
 82 81  1  0
 83 82  2  0
 86 85  1  0
 88 86  1  0
 88 89  1  0
 88 87  1  0
M  ISO  4   6 100  10 100  48 101  49 101
M  END
>  <TORSDO>  (6) 
F 19

>  <SCORE>  (6) 
-15.383

>  <name>  (6) 
6

>  <ligand_id>  (6) 
6

>  <original_smiles>  (6) 
[H]c1c([H])c([H])c2c(c1[H])C([H])([H])C([H])([H])C([H])([H])C2([H])N([H])C(=O)C1([H])N(C(=O)C([H])(N([H])C(=O)C([H])(N([H])C([H])([H])[H])C([H])([H])[H])C(C([H])([H])[H])(C([H])([H])[H])C([H])([H])[H])C([H])([H])c2c([H])c(OC([H])([H])C([H])([H])C([H])([H])C3([H])C([H])(C(=O)N4C([H])([H])C([H])([H])C([H])([H])C([H])(n5nc(-c6c([H])c([H])c(Oc7c([H])c([H])c(F)c([H])c7F)c([H])c6[H])c(C(=O)N([H])[H])c5N([H])[H])C4([H])[H])C([H])([H])C4([H])C([H])([H])C([H])([H])C([H])([H])C([H])([H])C43[H])c([H])c([H])c2C1([H])[H]

>  <smiles>  (6) 
[H]c1c([H])c([H])c2c(c1[H])C([H])([H])C([H])([H])C([H])([H])C2([H])N([H])C(=O)C1([H])N(C(=O)C([H])(N([H])C(=O)C([H])(N([H])C([H])([H])[H])C([H])([H])[H])C(C([H])([H])[H])(C([H])([H])[H])C([H])([H])[H])C([H])([H])c2c([H])c(OC([H])([H])C([H])([H])C([H])([H])C3([H])C([H])(C(=O)N4C([H])([H])C([H])([H])C([H])([H])C([H])(n5nc(-c6c([H])c([H])c(Oc7c([H])c([H])c(F)c([H])c7F)c([H])c6[H])c(C(=O)N([H])[H])c5N([H])[H])C4([H])[H])C([H])([H])C4([H])C([H])([H])C([H])([H])C([H])([H])C([H])([H])C43[H])c([H])c([H])c2C1([H])[H]

$$$$
7:0:0
     RDKit          3D

 87 96  0  0  1  0  0  0  0  0999 V2000
  -31.1920  -21.2240   21.1000 C   0  0  0  0  0  3  0  0  0  0  0  0
  -30.9910  -19.8130   20.9600 C   0  0  0  0  0  3  0  0  0  0  0  0
  -30.2390  -22.2660   20.8390 C   0  0  0  0  0  3  0  0  0  0  0  0
  -29.7680  -19.2790   20.5070 C   0  0  0  0  0  0  0  0  0  0  0  0
  -28.7900  -20.4500   20.2160 C   0  0  0  0  0  0  0  0  0  0  0  0
  -28.9100  -22.0800   20.3730 C   0  0  0  0  0  0  0  0  0  0  0  0
  -27.6490  -19.5320   19.7150 C   0  0  0  0  0  2  0  0  0  0  0  0
  -28.1280  -17.9620   19.5340 C   0  0  0  0  0  2  0  0  0  0  0  0
  -29.3860  -17.5290   20.4010 C   0  0  0  0  0  3  0  0  0  0  0  0
  -30.2160  -15.8080   20.2030 C   0  0  0  0  0  0  0  0  0  0  0  0
  -30.3890  -13.2210   19.4330 C   0  0  0  0  0  2  0  0  0  0  0  0
  -29.5090  -12.7890   18.2210 C   0  0  0  0  0  2  0  0  0  0  0  0
  -28.0910  -12.4060   18.6710 C   0  0  0  0  0  2  0  0  0  0  0  0
  -27.5610  -13.4050   19.7230 C   0  0  0  0  0  3  0  0  0  0  0  0
  -28.5820  -13.7550   20.8320 C   0  0  0  0  0  2  0  0  0  0  0  0
  -29.7540  -14.4040   20.1910 N   0  0  0  0  0  0  0  0  0  0  0  0
  -31.4430  -15.7400   19.9760 O   0  0  0  0  0  0  0  0  0  0  0  0
  -25.2000  -13.8950   20.5150 C   0  0  0  0  0  0  0  0  0  0  0  0
  -24.1530  -13.1010   20.8820 C   0  0  0  0  0  0  0  0  0  0  0  0
  -24.6380  -11.7570   20.8360 C   0  0  0  0  0  0  0  0  0  0  0  0
  -26.2530  -13.0400   20.2510 N   0  0  0  0  0  0  0  0  0  0  0  0
  -25.9300  -11.7450   20.5140 N   0  0  0  0  0  0  0  0  0  0  0  0
  -23.9240  -10.4860   21.0210 C   0  0  0  0  0  0  0  0  0  0  0  0
  -24.3500   -9.5270   21.9660 C   0  0  0  0  0  3  0  0  0  0  0  0
  -23.6290   -8.3250   22.1430 C   0  0  0  0  0  3  0  0  0  0  0  0
  -22.4690   -8.0730   21.3720 C   0  0  0  0  0  0  0  0  0  0  0  0
  -22.0630   -9.0200   20.4170 C   0  0  0  0  0  3  0  0  0  0  0  0
  -22.7830  -10.2130   20.2390 C   0  0  0  0  0  3  0  0  0  0  0  0
  -21.7220   -6.9220   21.4560 O   0  0  0  0  0  0  0  0  0  0  0  0
  -21.6410   -6.1990   22.6190 C   0  0  0  0  0  0  0  0  0  0  0  0
  -21.1340   -6.7610   23.8120 C   0  0  0  0  0  3  0  0  0  0  0  0
  -21.0020   -5.9630   24.9660 C   0  0  0  0  0  3  0  0  0  0  0  0
  -21.3680   -4.6040   24.9280 C   0  0  0  0  0  0  0  0  0  0  0  0
  -21.8670   -4.0410   23.7400 C   0  0  0  0  0  3  0  0  0  0  0  0
  -21.9990   -4.8370   22.5880 C   0  0  0  0  0  0  0  0  0  0  0  0
  -22.4610   -4.2850   21.4410 F   0  0  0  0  0  0  0  0  0  0  0  0
  -21.2340   -3.8350   26.0330 F   0  0  0  0  0  0  0  0  0  0  0  0
  -22.7520  -13.5610   21.1580 C   0  0  0  0  0  0  0  0  0  0  0  0
  -22.0350  -12.8600   22.0280 N   0  0  0  0  0  0  0  0  0  0  0  0
  -22.3030  -14.5820   20.6360 O   0  0  0  0  0  0  0  0  0  0  0  0
  -22.4140  -12.0350   22.4720 H   0  0  0  0  0  0  0  0  0  0  0  0
  -21.0950  -13.1500   22.2540 H   0  0  0  0  0  0  0  0  0  0  0  0
  -25.3420  -15.2690   20.3500 N   0  0  0  0  0  0  0  0  0  0  0  0
  -24.5680  -15.9110   20.4800 H   0  0  0  0  0  0  0  0  0  0  0  0
  -26.1840  -15.7200   20.0200 H   0  0  0  0  0  0  0  0  0  0  0  0
  -27.9340  -23.6940   20.1670 C   0  0  0  0  0  2  0  0  0  0  0  0
  -28.1360  -25.4650   20.3750 O   0  0  0  0  0  0  0  0  0  0  0  0
  -24.6650  -31.8630   23.2650 C   0  0  0  0  0  0  0  0  0  0  0  0
  -27.1800  -26.7140   20.3050 C   0  0  0  0  0  0  0  0  0  0  0  0
  -23.4790  -30.4650   21.6290 C   0  0  0  0  0  3  0  0  0  0  0  0
  -24.9250  -28.7950   20.2300 C   0  0  0  0  0  0  0  0  0  0  0  0
  -26.0620  -30.5790   21.5230 C   0  0  0  0  0  2  0  0  0  0  0  0
  -26.1210  -29.1370   20.8710 C   0  0  0  0  0  0  0  0  0  0  0  0
  -27.2300  -28.1270   20.8750 C   0  0  0  0  0  3  0  0  0  0  0  0
  -25.9510  -26.6000   19.6040 C   0  0  0  0  0  3  0  0  0  0  0  0
  -24.8830  -27.5540   19.5710 C   0  0  0  0  0  3  0  0  0  0  0  0
  -23.7240  -29.7590   20.2630 C   0  0  0  0  0  2  0  0  0  0  0  0
  -24.7600  -31.0030   22.1910 N   0  0  0  0  0  0  0  0  0  0  0  0
  -23.5690  -32.1710   23.7680 O   0  0  0  0  0  0  0  0  0  0  0  0
  -22.7490  -29.4990   22.6010 C   0  0  0  0  0  0  0  0  0  0  0  0
  -21.4160  -29.3500   22.4690 N   0  0  0  0  0  0  0  0  0  0  0  0
  -23.3950  -28.8800   23.4500 O   0  0  0  0  0  0  0  0  0  0  0  0
  -20.9430  -29.9000   21.7640 H   0  0  0  0  0  0  0  0  0  0  0  0
  -18.0230  -28.1420   22.9630 C   0  0  0  0  0  0  0  0  0  0  0  0
  -20.5800  -28.4200   23.2410 C   0  0  0  0  0  3  0  0  0  0  0  0
  -20.6880  -26.9820   22.6800 C   0  0  0  0  0  2  0  0  0  0  0  0
  -19.5950  -26.6500   21.6590 C   0  0  0  0  0  2  0  0  0  0  0  0
  -18.2080  -26.7920   22.2910 C   0  0  0  0  0  2  0  0  0  0  0  0
  -19.1350  -28.9130   23.3940 C   0  0  0  0  0  0  0  0  0  0  0  0
  -18.9030  -30.1730   23.9880 C   0  0  0  0  0  3  0  0  0  0  0  0
  -17.5930  -30.6630   24.1510 C   0  0  0  0  0  3  0  0  0  0  0  0
  -16.4960  -29.8910   23.7320 C   0  0  0  0  0  3  0  0  0  0  0  0
  -16.7110  -28.6320   23.1450 C   0  0  0  0  0  3  0  0  0  0  0  0
  -25.9250  -32.5130   23.9130 C   0  0  0  0  0  3  0  0  0  0  0  0
  -25.6080  -33.9190   24.2340 N   0  0  0  0  0  0  0  0  0  0  0  0
  -25.9240  -34.9770   23.4730 C   0  0  0  0  0  0  0  0  0  0  0  0
  -26.5690  -34.8720   22.4280 O   0  0  0  0  0  0  0  0  0  0  0  0
  -25.0290  -34.0740   25.0470 H   0  0  0  0  0  0  0  0  0  0  0  0
  -24.1780  -36.7740   23.1910 C   0  0  0  0  0  1  0  0  0  0  0  0
  -25.4570  -36.3720   23.9450 C   0  0  0  0  0  3  0  0  0  0  0  0
  -27.6190  -37.2830   24.6750 C   0  0  0  0  0  1  0  0  0  0  0  0
  -26.4800  -37.4280   23.7730 N   0  0  0  0  0  0  0  0  0  0  0  0
  -26.0750  -38.3490   23.9190 H   0  0  0  0  0  0  0  0  0  0  0  0
  -26.4030  -31.7650   25.2200 C   0  0  1  0  0  0  0  0  0  0  0  0
  -25.2820  -31.5600   26.2680 C   0  0  0  0  0  1  0  0  0  0  0  0
  -26.9820  -30.3730   24.8840 C   0  0  0  0  0  1  0  0  0  0  0  0
  -27.5450  -32.5630   25.8920 C   0  0  0  0  0  1  0  0  0  0  0  0
  2  1  1  0
  3  1  2  0
  4  2  2  0
  5  6  2  0
  5  4  1  0
  6  3  1  0
  7  5  1  0
  8  7  1  0
  8  9  1  0
  9 10  1  0
  9  4  1  0
 11 16  1  0
 12 13  1  0
 12 11  1  0
 14 13  1  0
 14 21  1  0
 14 15  1  0
 16 10  1  0
 16 15  1  0
 17 10  2  0
 18 19  2  0
 19 38  1  0
 20 19  1  0
 20 23  1  0
 21 22  1  0
 21 18  1  0
 22 20  2  0
 23 24  1  0
 24 25  2  0
 26 29  1  0
 26 25  1  0
 27 26  2  0
 28 27  1  0
 28 23  2  0
 29 30  1  0
 30 31  1  0
 31 32  2  0
 33 32  1  0
 33 37  1  0
 34 33  2  0
 35 30  2  0
 35 34  1  0
 36 35  1  0
 38 39  1  0
 39 42  1  0
 39 41  1  0
 40 38  2  0
 43 44  1  0
 43 18  1  0
 45 43  1  0
 46  6  1  0
 46 47  1  0
 48 59  2  0
 49 47  1  0
 49 54  1  0
 50 58  1  0
 50 60  1  0
 51 57  1  0
 51 53  1  0
 52 58  1  0
 53 54  2  0
 53 52  1  0
 55 49  2  0
 56 55  1  0
 56 51  2  0
 57 50  1  0
 58 48  1  0
 60 62  2  0
 61 60  1  0
 63 61  1  0
 64 73  2  0
 64 69  1  0
 65 61  1  0
 65 69  1  0
 66 65  1  0
 67 68  1  0
 67 66  1  0
 68 64  1  0
 69 70  2  0
 70 71  1  0
 72 71  2  0
 73 72  1  0
 74 48  1  0
 74 75  1  0
 74 84  1  0
 75 78  1  0
 76 80  1  0
 76 75  1  0
 77 76  2  0
 80 79  1  0
 82 83  1  0
 82 80  1  0
 82 81  1  0
 84 87  1  1
 84 85  1  0
 86 84  1  0
M  ISO  4   9 100  10 100  46 101  47 101
M  END
>  <TORSDO>  (7) 
F 17

>  <SCORE>  (7) 
-16.754

>  <name>  (7) 
7

>  <ligand_id>  (7) 
7

>  <original_smiles>  (7) 
[H]c1c([H])c([H])c2c(c1[H])C([H])([H])C([H])([H])C([H])([H])C2([H])N([H])C(=O)C1([H])N(C(=O)C([H])(N([H])C(=O)C([H])(N([H])C([H])([H])[H])C([H])([H])[H])C(C([H])([H])[H])(C([H])([H])[H])C([H])([H])[H])C([H])([H])c2c([H])c(OC([H])([H])c3c([H])c([H])c([H])c4c3C([H])([H])C([H])([H])C4([H])C(=O)N3C([H])([H])C([H])([H])C([H])([H])C([H])(n4nc(-c5c([H])c([H])c(Oc6c([H])c([H])c(F)c([H])c6F)c([H])c5[H])c(C(=O)N([H])[H])c4N([H])[H])C3([H])[H])c([H])c([H])c2C1([H])[H]

>  <smiles>  (7) 
[H]c1c([H])c([H])c2c(c1[H])C([H])([H])C([H])([H])C([H])([H])C2([H])N([H])C(=O)C1([H])N(C(=O)C([H])(N([H])C(=O)C([H])(N([H])C([H])([H])[H])C([H])([H])[H])C(C([H])([H])[H])(C([H])([H])[H])C([H])([H])[H])C([H])([H])c2c([H])c(OC([H])([H])c3c([H])c([H])c([H])c4c3C([H])([H])C([H])([H])C4([H])C(=O)N3C([H])([H])C([H])([H])C([H])([H])C([H])(n4nc(-c5c([H])c([H])c(Oc6c([H])c([H])c(F)c([H])c6F)c([H])c5[H])c(C(=O)N([H])[H])c4N([H])[H])C3([H])[H])c([H])c([H])c2C1([H])[H]

$$$$
8:0:0
     RDKit          3D

 93102  0  0  1  0  0  0  0  0999 V2000
  -27.0160  -24.2200   19.1530 C   0  0  0  0  0  2  0  0  0  0  0  0
  -29.2130  -23.8920   20.2140 C   0  0  0  0  0  2  0  0  0  0  0  0
  -26.8990  -23.2430   20.3010 C   0  0  0  0  0  3  0  0  0  0  0  0
  -28.5310  -24.4100   18.9330 C   0  0  0  0  0  3  0  0  0  0  0  0
  -26.6620  -23.7630   21.7270 C   0  0  0  0  0  3  0  0  0  0  0  0
  -27.7700  -22.7970   22.1770 C   0  0  0  0  0  3  0  0  0  0  0  0
  -28.2950  -22.7790   20.7210 C   0  0  2  0  0  0  0  0  0  0  0  0
  -25.2590  -23.6570   22.3110 C   0  0  0  0  0  1  0  0  0  0  0  0
  -28.6950  -23.1780   23.3260 C   0  0  0  0  0  1  0  0  0  0  0  0
  -28.9110  -25.8460   18.5630 C   0  0  0  0  0  2  0  0  0  0  0  0
  -28.2640  -26.3100   17.2520 C   0  0  0  0  0  2  0  0  0  0  0  0
  -27.9310  -27.6720   17.4170 O   0  0  0  0  0  0  0  0  0  0  0  0
  -24.6300  -31.0350   22.6900 C   0  0  0  0  0  0  0  0  0  0  0  0
  -26.7060  -28.0200   17.9400 C   0  0  0  0  0  0  0  0  0  0  0  0
  -23.1370  -29.8780   21.0850 C   0  0  0  0  0  3  0  0  0  0  0  0
  -24.2640  -28.9770   18.9910 C   0  0  0  0  0  0  0  0  0  0  0  0
  -25.4390  -30.7110   20.3560 C   0  0  0  0  0  2  0  0  0  0  0  0
  -25.4750  -29.5560   19.3840 C   0  0  0  0  0  0  0  0  0  0  0  0
  -26.6930  -29.0770   18.8680 C   0  0  0  0  0  3  0  0  0  0  0  0
  -25.4770  -27.4200   17.5730 C   0  0  0  0  0  3  0  0  0  0  0  0
  -24.2590  -27.8930   18.0980 C   0  0  0  0  0  3  0  0  0  0  0  0
  -23.0060  -29.5820   19.5650 C   0  0  0  0  0  2  0  0  0  0  0  0
  -24.4370  -30.5430   21.4340 N   0  0  0  0  0  0  0  0  0  0  0  0
  -23.7310  -30.9830   23.5420 O   0  0  0  0  0  0  0  0  0  0  0  0
  -22.8940  -28.5650   21.8630 C   0  0  0  0  0  0  0  0  0  0  0  0
  -21.6530  -28.0530   21.8040 N   0  0  0  0  0  0  0  0  0  0  0  0
  -23.8150  -28.0180   22.4750 O   0  0  0  0  0  0  0  0  0  0  0  0
  -20.9580  -28.5570   21.2720 H   0  0  0  0  0  0  0  0  0  0  0  0
  -18.8810  -25.7590   22.0640 C   0  0  0  0  0  0  0  0  0  0  0  0
  -21.2070  -26.8180   22.4420 C   0  0  0  0  0  3  0  0  0  0  0  0
  -21.7730  -25.5730   21.7280 C   0  0  0  0  0  2  0  0  0  0  0  0
  -20.8440  -25.0220   20.6410 C   0  0  0  0  0  2  0  0  0  0  0  0
  -19.4920  -24.6270   21.2530 C   0  0  0  0  0  2  0  0  0  0  0  0
  -19.6860  -26.7900   22.6160 C   0  0  0  0  0  0  0  0  0  0  0  0
  -19.0700  -27.8240   23.3520 C   0  0  0  0  0  3  0  0  0  0  0  0
  -17.6750  -27.8440   23.5340 C   0  0  0  0  0  3  0  0  0  0  0  0
  -16.8800  -26.8170   22.9880 C   0  0  0  0  0  3  0  0  0  0  0  0
  -17.4850  -25.7760   22.2610 C   0  0  0  0  0  3  0  0  0  0  0  0
  -25.9740  -31.7080   23.1130 C   0  0  0  0  0  3  0  0  0  0  0  0
  -25.6430  -32.9740   23.7790 N   0  0  0  0  0  0  0  0  0  0  0  0
  -25.8030  -34.1850   23.2290 C   0  0  0  0  0  0  0  0  0  0  0  0
  -26.3280  -34.3560   22.1230 O   0  0  0  0  0  0  0  0  0  0  0  0
  -25.1680  -32.9040   24.6670 H   0  0  0  0  0  0  0  0  0  0  0  0
  -23.9810  -35.9050   23.4480 C   0  0  0  0  0  1  0  0  0  0  0  0
  -25.3120  -35.4050   24.0340 C   0  0  0  0  0  3  0  0  0  0  0  0
  -27.4870  -36.2090   24.8400 C   0  0  0  0  0  1  0  0  0  0  0  0
  -26.2860  -36.5170   24.0690 N   0  0  0  0  0  0  0  0  0  0  0  0
  -25.8630  -37.3570   24.4550 H   0  0  0  0  0  0  0  0  0  0  0  0
  -26.8580  -30.7950   24.0450 C   0  0  1  0  0  0  0  0  0  0  0  0
  -26.1020  -30.2390   25.2740 C   0  0  0  0  0  1  0  0  0  0  0  0
  -27.4330  -29.5980   23.2490 C   0  0  0  0  0  1  0  0  0  0  0  0
  -28.0700  -31.6030   24.5640 C   0  0  0  0  0  1  0  0  0  0  0  0
  -28.7010  -21.4270   20.1080 C   0  0  0  0  0  2  0  0  0  0  0  0
  -30.1140  -20.8770   20.4170 C   0  0  0  0  0  2  0  0  0  0  0  0
  -30.1330  -19.3750   20.0840 C   0  0  0  0  0  2  0  0  0  0  0  0
  -31.4710  -18.5920   20.1840 C   0  0  0  0  0  2  0  0  0  0  0  0
  -31.0840  -17.1080   20.2950 C   0  0  0  0  0  2  0  0  0  0  0  0
  -32.0950  -15.9390   20.2120 C   0  0  0  0  0  0  0  0  0  0  0  0
  -32.0280  -13.5930   19.4470 C   0  0  0  0  0  2  0  0  0  0  0  0
  -31.1440  -13.5530   18.1780 C   0  0  0  0  0  2  0  0  0  0  0  0
  -29.6400  -13.4400   18.5250 C   0  0  0  0  0  2  0  0  0  0  0  0
  -29.2070  -14.4760   19.5900 C   0  0  0  0  0  3  0  0  0  0  0  0
  -30.1880  -14.4210   20.7850 C   0  0  0  0  0  2  0  0  0  0  0  0
  -31.5490  -14.6970   20.2880 N   0  0  0  0  0  0  0  0  0  0  0  0
  -33.2630  -16.1410   19.8480 O   0  0  0  0  0  0  0  0  0  0  0  0
  -26.8280  -15.2550   20.1970 C   0  0  0  0  0  0  0  0  0  0  0  0
  -25.7010  -14.5510   20.5390 C   0  0  0  0  0  0  0  0  0  0  0  0
  -26.0860  -13.1770   20.5470 C   0  0  0  0  0  0  0  0  0  0  0  0
  -27.8240  -14.3020   20.0160 N   0  0  0  0  0  0  0  0  0  0  0  0
  -27.3780  -13.0510   20.2850 N   0  0  0  0  0  0  0  0  0  0  0  0
  -25.2910  -11.9600   20.7330 C   0  0  0  0  0  0  0  0  0  0  0  0
  -25.6080  -11.0190   21.7360 C   0  0  0  0  0  3  0  0  0  0  0  0
  -24.8230   -9.8570   21.9000 C   0  0  0  0  0  3  0  0  0  0  0  0
  -23.7060   -9.6330   21.0600 C   0  0  0  0  0  0  0  0  0  0  0  0
  -23.4090  -10.5640   20.0480 C   0  0  0  0  0  3  0  0  0  0  0  0
  -24.1940  -11.7160   19.8830 C   0  0  0  0  0  3  0  0  0  0  0  0
  -22.8990   -8.5220   21.1310 O   0  0  0  0  0  0  0  0  0  0  0  0
  -22.5930   -7.9340   22.3330 C   0  0  0  0  0  0  0  0  0  0  0  0
  -21.9570   -8.6470   23.3720 C   0  0  0  0  0  3  0  0  0  0  0  0
  -21.6000   -7.9850   24.5640 C   0  0  0  0  0  3  0  0  0  0  0  0
  -21.8650   -6.6090   24.7130 C   0  0  0  0  0  0  0  0  0  0  0  0
  -22.4940   -5.8970   23.6760 C   0  0  0  0  0  3  0  0  0  0  0  0
  -22.8540   -6.5580   22.4900 C   0  0  0  0  0  0  0  0  0  0  0  0
  -23.4410   -5.8620   21.4850 F   0  0  0  0  0  0  0  0  0  0  0  0
  -21.5150   -5.9720   25.8540 F   0  0  0  0  0  0  0  0  0  0  0  0
  -24.3230  -15.1130   20.7460 C   0  0  0  0  0  0  0  0  0  0  0  0
  -23.5150  -14.4740   21.5870 N   0  0  0  0  0  0  0  0  0  0  0  0
  -23.9640  -16.1540   20.1970 O   0  0  0  0  0  0  0  0  0  0  0  0
  -23.8070  -13.6370   22.0650 H   0  0  0  0  0  0  0  0  0  0  0  0
  -22.5920  -14.8430   21.7640 H   0  0  0  0  0  0  0  0  0  0  0  0
  -27.0840  -16.6090   20.0100 N   0  0  0  0  0  0  0  0  0  0  0  0
  -26.3630  -17.3210   20.0780 H   0  0  0  0  0  0  0  0  0  0  0  0
  -27.9900  -16.9800   19.7470 H   0  0  0  0  0  0  0  0  0  0  0  0
  2  7  1  0
  3  1  1  0
  3  7  1  0
  3  5  1  0
  4 10  1  0
  4  1  1  0
  4  2  1  0
  5  6  1  0
  5  8  1  0
  6  9  1  0
  7 53  1  6
  7  6  1  0
 11 12  1  0
 11 10  1  0
 12 14  1  0
 13 24  2  0
 14 19  1  0
 15 23  1  0
 15 25  1  0
 16 18  1  0
 16 22  1  0
 17 23  1  0
 18 17  1  0
 19 18  2  0
 20 14  2  0
 20 21  1  0
 21 16  2  0
 22 15  1  0
 23 13  1  0
 25 27  2  0
 26 25  1  0
 28 26  1  0
 29 38  2  0
 29 34  1  0
 30 26  1  0
 30 34  1  0
 31 30  1  0
 32 33  1  0
 32 31  1  0
 33 29  1  0
 34 35  2  0
 35 36  1  0
 37 36  2  0
 38 37  1  0
 39 13  1  0
 39 40  1  0
 39 49  1  0
 40 43  1  0
 41 40  1  0
 41 45  1  0
 42 41  2  0
 45 44  1  0
 45 47  1  0
 47 48  1  0
 47 46  1  0
 49 52  1  1
 49 50  1  0
 51 49  1  0
 53 54  1  0
 55 56  1  0
 55 54  1  0
 56 57  1  0
 58 64  1  0
 58 57  1  0
 59 64  1  0
 60 61  1  0
 60 59  1  0
 62 61  1  0
 62 69  1  0
 62 63  1  0
 64 63  1  0
 65 58  2  0
 66 67  2  0
 67 68  1  0
 67 86  1  0
 68 71  1  0
 69 66  1  0
 69 70  1  0
 70 68  2  0
 71 72  1  0
 72 73  2  0
 74 77  1  0
 74 73  1  0
 75 74  2  0
 76 75  1  0
 76 71  2  0
 77 78  1  0
 78 83  2  0
 78 79  1  0
 79 80  2  0
 80 81  1  0
 81 85  1  0
 82 81  2  0
 83 82  1  0
 84 83  1  0
 86 87  1  0
 87 90  1  0
 87 89  1  0
 88 86  2  0
 91 92  1  0
 91 66  1  0
 93 91  1  0
M  ISO  4  11 101  12 101  57 100  58 100
M  END
>  <TORSDO>  (8) 
F 23

>  <SCORE>  (8) 
-5.805

>  <name>  (8) 
8

>  <ligand_id>  (8) 
8

>  <original_smiles>  (8) 
[H]c1c([H])c([H])c2c(c1[H])C([H])([H])C([H])([H])C([H])([H])C2([H])N([H])C(=O)C1([H])N(C(=O)C([H])(N([H])C(=O)C([H])(N([H])C([H])([H])[H])C([H])([H])[H])C(C([H])([H])[H])(C([H])([H])[H])C([H])([H])[H])C([H])([H])c2c([H])c(OC([H])([H])C([H])([H])C3([H])C([H])([H])C4([H])C([H])(C([H])([H])[H])C([H])(C([H])([H])[H])C4(C([H])([H])C([H])([H])C([H])([H])C([H])([H])C([H])([H])C(=O)N4C([H])([H])C([H])([H])C([H])([H])C([H])(n5nc(-c6c([H])c([H])c(Oc7c([H])c([H])c(F)c([H])c7F)c([H])c6[H])c(C(=O)N([H])[H])c5N([H])[H])C4([H])[H])C3([H])[H])c([H])c([H])c2C1([H])[H]

>  <smiles>  (8) 
[H]c1c([H])c([H])c2c(c1[H])C([H])([H])C([H])([H])C([H])([H])C2([H])N([H])C(=O)C1([H])N(C(=O)C([H])(N([H])C(=O)C([H])(N([H])C([H])([H])[H])C([H])([H])[H])C(C([H])([H])[H])(C([H])([H])[H])C([H])([H])[H])C([H])([H])c2c([H])c(OC([H])([H])C([H])([H])C3([H])C([H])([H])C4([H])C([H])(C([H])([H])[H])C([H])(C([H])([H])[H])C4(C([H])([H])C([H])([H])C([H])([H])C([H])([H])C([H])([H])C(=O)N4C([H])([H])C([H])([H])C([H])([H])C([H])(n5nc(-c6c([H])c([H])c(Oc7c([H])c([H])c(F)c([H])c7F)c([H])c6[H])c(C(=O)N([H])[H])c5N([H])[H])C4([H])[H])C3([H])[H])c([H])c([H])c2C1([H])[H]

$$$$
9:0:0
     RDKit          3D

 94 94  0  0  1  0  0  0  0  0999 V2000
  -29.0440  -11.7170   18.5620 C   0  0  0  0  0  1  0  0  0  0  0  0
  -29.5740  -12.7900   19.4610 C   0  0  0  0  0  1  0  0  0  0  0  0
  -28.5280  -12.7590   19.4940 C   0  0  0  0  0  2  0  0  0  0  0  0
  -27.7630  -18.3000   18.2520 C   0  0  0  0  0  2  0  0  0  0  0  0
  -29.8970  -17.1980   18.9390 C   0  0  0  0  0  3  0  0  0  0  0  0
  -28.6550  -16.7290   18.1560 C   0  0  2  0  0  0  0  0  0  0  0  0
  -28.7470  -17.4330   19.9330 C   0  0  0  0  0  2  0  0  0  0  0  0
  -28.2030  -19.5280   19.3970 C   0  0  0  0  0  1  0  0  0  0  0  0
  -28.8000  -15.2750   19.2160 C   0  0  0  0  0  1  0  0  0  0  0  0
  -30.8310  -18.2700   18.3280 C   0  0  0  0  0  0  0  0  0  0  0  0
  -31.9010  -18.6900   19.0270 N   0  0  0  0  0  0  0  0  0  0  0  0
  -30.6640  -18.6810   17.1830 O   0  0  0  0  0  0  0  0  0  0  0  0
  -32.4830  -19.3470   18.5190 H   0  0  0  0  0  0  0  0  0  0  0  0
  -32.5330  -18.1110   20.2240 C   0  0  0  0  0  2  0  0  0  0  0  0
  -31.7000  -18.1650   21.5510 C   0  0  0  0  0  3  0  0  0  0  0  0
  -31.2080  -16.8730   22.3130 C   0  0  0  0  0  3  0  0  0  0  0  0
  -31.3400  -15.5450   21.5620 C   0  0  0  0  0  0  0  0  0  0  0  0
  -31.0030  -14.6080   19.1410 C   0  0  0  0  0 15  0  0  0  0  0  0
  -29.6240  -13.8660   17.7650 C   0  0  0  0  0 15  0  0  0  0  0  0
  -27.5750  -13.8630   18.1310 C   0  0  0  0  0 15  0  0  0  0  0  0
  -26.9660  -14.3910   20.1490 C   0  0  0  0  0  1  0  0  0  0  0  0
  -28.5390  -14.7670   21.5310 C   0  0  0  0  0  1  0  0  0  0  0  0
  -30.3500  -15.0280   20.9620 N   0  0  0  0  0  2  0  0  0  0  0  0
  -32.4290  -15.1850   21.1690 O   0  0  0  0  0  0  0  0  0  0  0  0
  -24.7290  -14.1050   20.7060 C   0  0  0  0  0  0  0  0  0  0  0  0
  -23.8620  -13.1430   21.0270 C   0  0  0  0  0  0  0  0  0  0  0  0
  -24.5140  -11.8750   20.9600 C   0  0  0  0  0  0  0  0  0  0  0  0
  -25.8960  -13.4980   20.5710 N   0  0  0  0  0  0  0  0  0  0  0  0
  -25.7970  -12.1030   20.6930 N   0  0  0  0  0  0  0  0  0  0  0  0
  -23.9170  -10.5260   21.0990 C   0  0  0  0  0  0  0  0  0  0  0  0
  -24.3880   -9.5500   22.0130 C   0  0  0  0  0  3  0  0  0  0  0  0
  -23.6850   -8.3300   22.1890 C   0  0  0  0  0  3  0  0  0  0  0  0
  -22.4980   -8.0780   21.4580 C   0  0  0  0  0  0  0  0  0  0  0  0
  -22.0610   -9.0310   20.5230 C   0  0  0  0  0  3  0  0  0  0  0  0
  -22.7620  -10.2350   20.3430 C   0  0  0  0  0  3  0  0  0  0  0  0
  -21.7560   -6.9220   21.5460 O   0  0  0  0  0  0  0  0  0  0  0  0
  -21.7350   -6.1530   22.6860 C   0  0  0  0  0  0  0  0  0  0  0  0
  -21.2970   -6.6690   23.9250 C   0  0  0  0  0  3  0  0  0  0  0  0
  -21.2290   -5.8280   25.0560 C   0  0  0  0  0  3  0  0  0  0  0  0
  -21.5860   -4.4700   24.9480 C   0  0  0  0  0  0  0  0  0  0  0  0
  -22.0120   -3.9520   23.7120 C   0  0  0  0  0  3  0  0  0  0  0  0
  -22.0820   -4.7910   22.5850 C   0  0  0  0  0  0  0  0  0  0  0  0
  -22.4720   -4.2790   21.3920 F   0  0  0  0  0  0  0  0  0  0  0  0
  -21.5210   -3.6630   26.0310 F   0  0  0  0  0  0  0  0  0  0  0  0
  -22.4530  -13.4810   21.2880 C   0  0  0  0  0  0  0  0  0  0  0  0
  -21.8340  -12.7680   22.2110 N   0  0  0  0  0  0  0  0  0  0  0  0
  -21.9420  -14.4650   20.7510 O   0  0  0  0  0  0  0  0  0  0  0  0
  -22.2990  -11.9940   22.6640 H   0  0  0  0  0  0  0  0  0  0  0  0
  -20.8820  -12.9810   22.4660 H   0  0  0  0  0  0  0  0  0  0  0  0
  -24.5840  -15.4780   20.5150 N   0  0  0  0  0  0  0  0  0  0  0  0
  -23.6550  -15.8850   20.5140 H   0  0  0  0  0  0  0  0  0  0  0  0
  -25.3020  -16.1280   20.2190 H   0  0  0  0  0  0  0  0  0  0  0  0
  -27.5610  -21.9150   19.7660 C   0  0  0  0  0 15  0  0  0  0  0  0
  -27.6810  -24.1310   19.8420 O   0  0  0  0  0  1  0  0  0  0  0  0
  -24.6260  -31.6380   22.9300 C   0  0  0  0  0  0  0  0  0  0  0  0
  -26.9060  -25.7600   19.9390 C   0  0  0  0  0  0  0  0  0  0  0  0
  -23.4410  -30.2000   21.3550 C   0  0  0  0  0  3  0  0  0  0  0  0
  -24.8280  -28.3690   19.9670 C   0  0  0  0  0  0  0  0  0  0  0  0
  -26.0430  -30.0660   21.2780 C   0  0  0  0  0  2  0  0  0  0  0  0
  -26.0560  -28.5380   20.6110 C   0  0  0  0  0  0  0  0  0  0  0  0
  -27.0470  -27.2910   20.5420 C   0  0  0  0  0  3  0  0  0  0  0  0
  -25.6620  -26.0350   19.2490 C   0  0  0  0  0  3  0  0  0  0  0  0
  -24.7240  -27.1540   19.2570 C   0  0  0  0  0  3  0  0  0  0  0  0
  -23.6860  -29.4340   20.0110 C   0  0  0  0  0  2  0  0  0  0  0  0
  -24.7460  -30.6900   21.9050 N   0  0  0  0  0  0  0  0  0  0  0  0
  -23.5220  -31.9790   23.4030 O   0  0  0  0  0  0  0  0  0  0  0  0
  -22.6680  -29.3050   22.3710 C   0  0  0  0  0  0  0  0  0  0  0  0
  -21.3250  -29.2070   22.2840 N   0  0  0  0  0  0  0  0  0  0  0  0
  -23.3060  -28.6890   23.2270 O   0  0  0  0  0  0  0  0  0  0  0  0
  -20.8490  -29.7610   21.5860 H   0  0  0  0  0  0  0  0  0  0  0  0
  -17.9230  -28.0320   22.9090 C   0  0  0  0  0  0  0  0  0  0  0  0
  -20.4950  -28.2950   23.0890 C   0  0  0  0  0  3  0  0  0  0  0  0
  -20.5670  -26.8540   22.5320 C   0  0  0  0  0  2  0  0  0  0  0  0
  -19.4380  -26.5320   21.5480 C   0  0  0  0  0  2  0  0  0  0  0  0
  -18.0750  -26.6830   22.2280 C   0  0  0  0  0  2  0  0  0  0  0  0
  -19.0580  -28.7970   23.2990 C   0  0  0  0  0  0  0  0  0  0  0  0
  -18.8540  -30.0540   23.9100 C   0  0  0  0  0  3  0  0  0  0  0  0
  -17.5530  -30.5480   24.1270 C   0  0  0  0  0  3  0  0  0  0  0  0
  -16.4370  -29.7830   23.7460 C   0  0  0  0  0  3  0  0  0  0  0  0
  -16.6230  -28.5250   23.1450 C   0  0  0  0  0  3  0  0  0  0  0  0
  -25.8530  -32.3570   23.5800 C   0  0  0  0  0  3  0  0  0  0  0  0
  -25.4760  -33.7480   23.9500 N   0  0  0  0  0  0  0  0  0  0  0  0
  -25.8260  -34.8650   23.2930 C   0  0  0  0  0  0  0  0  0  0  0  0
  -26.5330  -34.8370   22.2840 O   0  0  0  0  0  0  0  0  0  0  0  0
  -24.8450  -33.8430   24.7320 H   0  0  0  0  0  0  0  0  0  0  0  0
  -24.1010  -36.6930   23.0180 C   0  0  0  0  0  1  0  0  0  0  0  0
  -25.3210  -36.2280   23.8320 C   0  0  0  0  0  3  0  0  0  0  0  0
  -27.4210  -37.0850   24.7840 C   0  0  0  0  0  1  0  0  0  0  0  0
  -26.3480  -37.2960   23.8150 N   0  0  0  0  0  0  0  0  0  0  0  0
  -25.9280  -38.2030   24.0000 H   0  0  0  0  0  0  0  0  0  0  0  0
  -26.3800  -31.6190   24.8750 C   0  0  1  0  0  0  0  0  0  0  0  0
  -25.2890  -31.3730   25.9460 C   0  0  0  0  0  1  0  0  0  0  0  0
  -26.9970  -30.2510   24.5260 C   0  0  0  0  0  1  0  0  0  0  0  0
  -27.5120  -32.4480   25.5280 C   0  0  0  0  0  1  0  0  0  0  0  0
  1  3  1  0
  2  3  1  0
  4  8  1  0
  5 10  1  0
  5  7  1  0
  6  4  1  0
  6  5  1  0
  6  9  1  6
  6  7  1  0
 10 11  1  0
 11 14  1  0
 12 10  2  0
 13 11  1  0
 14 15  1  0
 15 16  2  0
 17 16  1  0
 21 28  1  0
 23 22  1  0
 23 17  1  0
 24 17  2  0
 25 26  2  0
 26 45  1  0
 27 26  1  0
 27 30  1  0
 28 29  1  0
 28 25  1  0
 29 27  2  0
 30 31  1  0
 31 32  2  0
 33 36  1  0
 33 32  1  0
 34 33  2  0
 35 34  1  0
 35 30  2  0
 36 37  1  0
 37 38  1  0
 38 39  2  0
 40 39  1  0
 40 44  1  0
 41 40  2  0
 42 37  2  0
 42 41  1  0
 43 42  1  0
 45 46  1  0
 46 49  1  0
 46 48  1  0
 47 45  2  0
 50 25  1  0
 51 50  1  0
 52 50  1  0
 54 56  1  0
 55 66  2  0
 56 61  1  0
 57 65  1  0
 57 67  1  0
 58 64  1  0
 58 60  1  0
 59 65  1  0
 60 59  1  0
 61 60  2  0
 62 63  1  0
 62 56  2  0
 63 58  2  0
 64 57  1  0
 65 55  1  0
 67 69  2  0
 68 67  1  0
 70 68  1  0
 71 80  2  0
 71 76  1  0
 72 68  1  0
 72 76  1  0
 73 72  1  0
 74 75  1  0
 74 73  1  0
 75 71  1  0
 76 77  2  0
 77 78  1  0
 79 78  2  0
 80 79  1  0
 81 55  1  0
 81 82  1  0
 81 91  1  0
 82 85  1  0
 83 87  1  0
 83 82  1  0
 84 83  2  0
 87 86  1  0
 89 87  1  0
 89 90  1  0
 89 88  1  0
 91 94  1  1
 91 92  1  0
 93 91  1  0
M  ISO  4  16 100  17 100  53 101  54 101
M  END
>  <TORSDO>  (9) 
F 21

>  <SCORE>  (9) 
-11.675

>  <name>  (9) 
9

>  <ligand_id>  (9) 
9

>  <original_smiles>  (9) 
[H]c1c([H])c([H])c2c(c1[H])C([H])([H])C([H])([H])C([H])([H])C2([H])N([H])C(=O)C1([H])N(C(=O)C([H])(N([H])C(=O)C([H])(N([H])C([H])([H])[H])C([H])([H])[H])C(C([H])([H])[H])(C([H])([H])[H])C([H])([H])[H])C([H])([H])c2c([H])c(OC([H])([H])C3([H])C([H])([H])C4([H])C([H])(C(=O)N([H])C([H])([H])C([H])([H])C([H])([H])C(=O)N5C([H])([H])C([H])([H])C([H])([H])C([H])(n6nc(-c7c([H])c([H])c(Oc8c([H])c([H])c(F)c([H])c8F)c([H])c7[H])c(C(=O)N([H])[H])c6N([H])[H])C5([H])[H])C3([H])C43C([H])([H])C([H])([H])C3([H])[H])c([H])c([H])c2C1([H])[H]

>  <smiles>  (9) 
[H]c1c([H])c([H])c2c(c1[H])C([H])([H])C([H])([H])C([H])([H])C2([H])N([H])C(=O)C1([H])N(C(=O)C([H])(N([H])C(=O)C([H])(N([H])C([H])([H])[H])C([H])([H])[H])C(C([H])([H])[H])(C([H])([H])[H])C([H])([H])[H])C([H])([H])c2c([H])c(OC([H])([H])C3([H])C([H])([H])C4([H])C([H])(C(=O)N([H])C([H])([H])C([H])([H])C([H])([H])C(=O)N5C([H])([H])C([H])([H])C([H])([H])C([H])(n6nc(-c7c([H])c([H])c(Oc8c([H])c([H])c(F)c([H])c8F)c([H])c7[H])c(C(=O)N([H])[H])c6N([H])[H])C5([H])[H])C3([H])C43C([H])([H])C([H])([H])C3([H])[H])c([H])c([H])c2C1([H])[H]

$$$$
10:0:0
     RDKit          3D

 94103  0  0  1  0  0  0  0  0999 V2000
  -27.0090  -19.7130   18.5060 C   0  0  0  0  0  2  0  0  0  0  0  0
  -28.4700  -19.4630   18.5490 N   0  0  0  0  0  4  0  0  0  0  0  0
  -28.7810  -19.4330   17.5890 H   0  0  0  0  0  0  0  0  0  0  0  0
  -28.9500  -20.2280   18.9960 H   0  0  0  0  0  0  0  0  0  0  0  0
  -31.4380  -18.1630   19.1790 C   0  0  0  0  0  2  0  0  0  0  0  0
  -31.5280  -17.8170   20.6850 C   0  0  0  0  0  2  0  0  0  0  0  0
  -30.0210  -16.0800   18.8980 C   0  0  0  0  0  2  0  0  0  0  0  0
  -29.0490  -18.2380   20.7490 C   0  0  0  0  0  2  0  0  0  0  0  0
  -29.8530  -15.8750   20.4490 C   0  0  0  0  0  3  0  0  0  0  0  0
  -30.1310  -17.5790   18.5570 C   0  0  0  0  0  3  0  0  0  0  0  0
  -30.1690  -17.2280   21.1650 C   0  0  0  0  0  3  0  0  0  0  0  0
  -28.8600  -18.1920   19.1910 C   0  0  0  0  0  3  0  0  0  0  0  0
  -30.6710  -14.6340   20.8760 C   0  0  0  0  0  0  0  0  0  0  0  0
  -30.5060  -12.3820   19.9770 C   0  0  0  0  0  2  0  0  0  0  0  0
  -29.6730  -12.4670   18.6810 C   0  0  0  0  0  2  0  0  0  0  0  0
  -28.1710  -12.3170   18.9860 C   0  0  0  0  0  2  0  0  0  0  0  0
  -27.6950  -13.2610   20.1190 C   0  0  0  0  0  3  0  0  0  0  0  0
  -28.6510  -13.2110   21.3340 C   0  0  0  0  0  2  0  0  0  0  0  0
  -30.0330  -13.4370   20.8850 N   0  0  0  0  0  0  0  0  0  0  0  0
  -31.8920  -14.7290   20.7960 O   0  0  0  0  0  0  0  0  0  0  0  0
  -25.2490  -13.8640   20.6500 C   0  0  0  0  0  0  0  0  0  0  0  0
  -24.1650  -13.0860   20.9510 C   0  0  0  0  0  0  0  0  0  0  0  0
  -24.6480  -11.7400   20.9970 C   0  0  0  0  0  0  0  0  0  0  0  0
  -26.3170  -12.9920   20.5160 N   0  0  0  0  0  0  0  0  0  0  0  0
  -25.9570  -11.7140   20.7930 N   0  0  0  0  0  0  0  0  0  0  0  0
  -23.9280  -10.4720   21.1580 C   0  0  0  0  0  0  0  0  0  0  0  0
  -24.3200   -9.5210   22.1260 C   0  0  0  0  0  3  0  0  0  0  0  0
  -23.6030   -8.3140   22.2690 C   0  0  0  0  0  3  0  0  0  0  0  0
  -22.4820   -8.0520   21.4460 C   0  0  0  0  0  0  0  0  0  0  0  0
  -22.1130   -8.9920   20.4680 C   0  0  0  0  0  3  0  0  0  0  0  0
  -22.8300  -10.1900   20.3220 C   0  0  0  0  0  3  0  0  0  0  0  0
  -21.7430   -6.8960   21.4970 O   0  0  0  0  0  0  0  0  0  0  0  0
  -21.6550   -6.1480   22.6440 C   0  0  0  0  0  0  0  0  0  0  0  0
  -21.1840   -6.6960   23.8560 C   0  0  0  0  0  3  0  0  0  0  0  0
  -21.0460   -5.8780   24.9960 C   0  0  0  0  0  3  0  0  0  0  0  0
  -21.3680   -4.5090   24.9210 C   0  0  0  0  0  0  0  0  0  0  0  0
  -21.8310   -3.9580   23.7130 C   0  0  0  0  0  3  0  0  0  0  0  0
  -21.9710   -4.7750   22.5770 C   0  0  0  0  0  0  0  0  0  0  0  0
  -22.3970   -4.2360   21.4080 F   0  0  0  0  0  0  0  0  0  0  0  0
  -21.2280   -3.7190   26.0100 F   0  0  0  0  0  0  0  0  0  0  0  0
  -22.7430  -13.5460   21.0980 C   0  0  0  0  0  0  0  0  0  0  0  0
  -21.9560  -12.8530   21.9140 N   0  0  0  0  0  0  0  0  0  0  0  0
  -22.3310  -14.5510   20.5190 O   0  0  0  0  0  0  0  0  0  0  0  0
  -22.2900  -12.0220   22.3840 H   0  0  0  0  0  0  0  0  0  0  0  0
  -20.9990  -13.1440   22.0570 H   0  0  0  0  0  0  0  0  0  0  0  0
  -25.4180  -15.2340   20.4590 N   0  0  0  0  0  0  0  0  0  0  0  0
  -24.6450  -15.8910   20.4820 H   0  0  0  0  0  0  0  0  0  0  0  0
  -26.3020  -15.6680   20.2330 H   0  0  0  0  0  0  0  0  0  0  0  0
  -26.7060  -21.1740   18.1440 C   0  0  0  0  0  2  0  0  0  0  0  0
  -27.1870  -22.1400   19.2430 C   0  0  0  0  0  2  0  0  0  0  0  0
  -27.4490  -23.5520   18.7090 C   0  0  0  0  0  2  0  0  0  0  0  0
  -28.1060  -24.4730   19.7520 C   0  0  0  0  0  2  0  0  0  0  0  0
  -28.6010  -25.7970   19.1460 C   0  0  0  0  0  2  0  0  0  0  0  0
  -28.4290  -26.8620   20.0800 O   0  0  0  0  0  0  0  0  0  0  0  0
  -24.5780  -31.9280   23.2280 C   0  0  0  0  0  0  0  0  0  0  0  0
  -27.2130  -27.5110   20.1140 C   0  0  0  0  0  0  0  0  0  0  0  0
  -23.3550  -30.5260   21.5950 C   0  0  0  0  0  3  0  0  0  0  0  0
  -24.7970  -28.9850   20.1670 C   0  0  0  0  0  0  0  0  0  0  0  0
  -25.8740  -30.8920   21.3690 C   0  0  0  0  0  2  0  0  0  0  0  0
  -25.9530  -29.5120   20.7510 C   0  0  0  0  0  0  0  0  0  0  0  0
  -27.1570  -28.7760   20.7400 C   0  0  0  0  0  3  0  0  0  0  0  0
  -26.0290  -26.9910   19.5340 C   0  0  0  0  0  3  0  0  0  0  0  0
  -24.8250  -27.7190   19.5610 C   0  0  0  0  0  3  0  0  0  0  0  0
  -23.5480  -29.8370   20.2170 C   0  0  0  0  0  2  0  0  0  0  0  0
  -24.6220  -31.1310   22.1250 N   0  0  0  0  0  0  0  0  0  0  0  0
  -23.5040  -32.2010   23.7770 O   0  0  0  0  0  0  0  0  0  0  0  0
  -22.7120  -29.5090   22.5630 C   0  0  0  0  0  0  0  0  0  0  0  0
  -21.3850  -29.3370   22.4500 N   0  0  0  0  0  0  0  0  0  0  0  0
  -23.4010  -28.8750   23.3680 O   0  0  0  0  0  0  0  0  0  0  0  0
  -20.8960  -29.9060   21.7740 H   0  0  0  0  0  0  0  0  0  0  0  0
  -18.0000  -28.1760   22.9580 C   0  0  0  0  0  0  0  0  0  0  0  0
  -20.5620  -28.4070   23.2240 C   0  0  0  0  0  3  0  0  0  0  0  0
  -20.6470  -26.9760   22.6480 C   0  0  0  0  0  2  0  0  0  0  0  0
  -19.5400  -26.6650   21.6350 C   0  0  0  0  0  2  0  0  0  0  0  0
  -18.1580  -26.8300   22.2740 C   0  0  0  0  0  2  0  0  0  0  0  0
  -19.1280  -28.9250   23.3870 C   0  0  0  0  0  0  0  0  0  0  0  0
  -18.9230  -30.1910   23.9780 C   0  0  0  0  0  3  0  0  0  0  0  0
  -17.6240  -30.7050   24.1470 C   0  0  0  0  0  3  0  0  0  0  0  0
  -16.5090  -29.9480   23.7420 C   0  0  0  0  0  3  0  0  0  0  0  0
  -16.7000  -28.6870   23.1520 C   0  0  0  0  0  3  0  0  0  0  0  0
  -25.8740  -32.5530   23.8400 C   0  0  0  0  0  3  0  0  0  0  0  0
  -25.5740  -33.9510   24.1720 N   0  0  0  0  0  0  0  0  0  0  0  0
  -25.9050  -35.0030   23.4100 C   0  0  0  0  0  0  0  0  0  0  0  0
  -26.5710  -34.8990   22.3750 O   0  0  0  0  0  0  0  0  0  0  0  0
  -24.9950  -34.1080   24.9830 H   0  0  0  0  0  0  0  0  0  0  0  0
  -24.1750  -36.7920   23.0540 C   0  0  0  0  0  1  0  0  0  0  0  0
  -25.4150  -36.3890   23.8690 C   0  0  0  0  0  3  0  0  0  0  0  0
  -27.5690  -37.2480   24.6770 C   0  0  0  0  0  1  0  0  0  0  0  0
  -26.4400  -37.4510   23.7740 N   0  0  0  0  0  0  0  0  0  0  0  0
  -26.0300  -38.3580   23.9840 H   0  0  0  0  0  0  0  0  0  0  0  0
  -26.3950  -31.7760   25.1100 C   0  0  1  0  0  0  0  0  0  0  0  0
  -25.3080  -31.5350   26.1820 C   0  0  0  0  0  1  0  0  0  0  0  0
  -26.9630  -30.4000   24.6950 C   0  0  0  0  0  1  0  0  0  0  0  0
  -27.5550  -32.5620   25.7670 C   0  0  0  0  0  1  0  0  0  0  0  0
  1  2  1  0
  2  4  1  0
  3  2  1  0
  5  6  1  0
  7  9  1  0
  8 11  1  0
  9 13  1  0
  9 11  1  0
 10  7  1  0
 10  5  1  0
 10 12  1  0
 11  6  1  0
 12  2  1  0
 12  8  1  0
 13 19  1  0
 14 19  1  0
 15 16  1  0
 15 14  1  0
 17 16  1  0
 17 24  1  0
 17 18  1  0
 19 18  1  0
 20 13  2  0
 21 22  2  0
 22 23  1  0
 22 41  1  0
 23 26  1  0
 24 21  1  0
 24 25  1  0
 25 23  2  0
 26 27  1  0
 27 28  2  0
 29 32  1  0
 29 28  1  0
 30 29  2  0
 31 30  1  0
 31 26  2  0
 32 33  1  0
 33 34  1  0
 34 35  2  0
 36 35  1  0
 36 40  1  0
 37 36  2  0
 38 33  2  0
 38 37  1  0
 39 38  1  0
 41 42  1  0
 42 45  1  0
 42 44  1  0
 43 41  2  0
 46 47  1  0
 46 21  1  0
 48 46  1  0
 49  1  1  0
 49 50  1  0
 51 50  1  0
 51 52  1  0
 53 52  1  0
 53 54  1  0
 54 56  1  0
 55 66  2  0
 56 61  1  0
 57 65  1  0
 57 67  1  0
 58 64  1  0
 58 60  1  0
 59 65  1  0
 60 59  1  0
 61 60  2  0
 62 63  1  0
 62 56  2  0
 63 58  2  0
 64 57  1  0
 65 55  1  0
 67 69  2  0
 68 67  1  0
 70 68  1  0
 71 80  2  0
 71 76  1  0
 72 68  1  0
 72 76  1  0
 73 72  1  0
 74 75  1  0
 74 73  1  0
 75 71  1  0
 76 77  2  0
 77 78  1  0
 79 78  2  0
 80 79  1  0
 81 55  1  0
 81 82  1  0
 81 91  1  0
 82 85  1  0
 83 87  1  0
 83 82  1  0
 84 83  2  0
 87 86  1  0
 89 87  1  0
 89 90  1  0
 89 88  1  0
 91 94  1  1
 91 92  1  0
 93 91  1  0
M  ISO  4   9 100  13 100  53 101  54 101
M  END
>  <TORSDO>  (10) 
F 23

>  <SCORE>  (10) 
-12.782

>  <name>  (10) 
10

>  <ligand_id>  (10) 
10

>  <original_smiles>  (10) 
[H]c1c([H])c([H])c2c(c1[H])C([H])([H])C([H])([H])C([H])([H])C2([H])N([H])C(=O)C1([H])N(C(=O)C([H])(N([H])C(=O)C([H])(N([H])C([H])([H])[H])C([H])([H])[H])C(C([H])([H])[H])(C([H])([H])[H])C([H])([H])[H])C([H])([H])c2c([H])c(OC([H])([H])C([H])([H])C([H])([H])C([H])([H])C([H])([H])C([H])([H])[N+]([H])([H])C3([H])C([H])([H])C4([H])C([H])([H])C([H])([H])C3([H])C([H])([H])C4([H])C(=O)N3C([H])([H])C([H])([H])C([H])([H])C([H])(n4nc(-c5c([H])c([H])c(Oc6c([H])c([H])c(F)c([H])c6F)c([H])c5[H])c(C(=O)N([H])[H])c4N([H])[H])C3([H])[H])c([H])c([H])c2C1([H])[H]

>  <smiles>  (10) 
[H]c1c([H])c([H])c2c(c1[H])C([H])([H])C([H])([H])C([H])([H])C2([H])N([H])C(=O)C1([H])N(C(=O)C([H])(N([H])C(=O)C([H])(N([H])C([H])([H])[H])C([H])([H])[H])C(C([H])([H])[H])(C([H])([H])[H])C([H])([H])[H])C([H])([H])c2c([H])c(OC([H])([H])C([H])([H])C([H])([H])C([H])([H])C([H])([H])C([H])([H])[N+]([H])([H])C3([H])C([H])([H])C4([H])C([H])([H])C([H])([H])C3([H])C([H])([H])C4([H])C(=O)N3C([H])([H])C([H])([H])C([H])([H])C([H])(n4nc(-c5c([H])c([H])c(Oc6c([H])c([H])c(F)c([H])c6F)c([H])c5[H])c(C(=O)N([H])[H])c4N([H])[H])C3([H])[H])c([H])c([H])c2C1([H])[H]

$$$$
11:0:0
     RDKit          3D

 87 95  0  0  1  0  0  0  0  0999 V2000
  -28.8700  -21.2350   21.2700 C   0  0  0  0  0  2  0  0  0  0  0  0
  -29.9320  -21.3170   19.5710 C   0  0  0  0  0  2  0  0  0  0  0  0
  -28.8720  -22.3180   20.1450 C   0  0  0  0  0  3  0  0  0  0  0  0
  -29.3070  -20.1820   20.3080 N   0  0  1  0  0  4  0  0  0  0  0  0
  -28.5050  -19.8320   19.8080 H   0  0  0  0  0  0  0  0  0  0  0  0
  -29.1720  -23.8810   20.4020 C   0  0  0  0  0  3  0  0  0  0  0  0
  -28.0630  -24.9770   20.0110 C   0  0  0  0  0  3  0  0  0  0  0  0
  -28.2880  -26.4410   20.2300 O   0  0  0  0  0  0  0  0  0  0  0  0
  -24.6050  -31.9050   23.2440 C   0  0  0  0  0  0  0  0  0  0  0  0
  -27.1800  -27.3160   20.1740 C   0  0  0  0  0  0  0  0  0  0  0  0
  -23.3870  -30.5100   21.6130 C   0  0  0  0  0  3  0  0  0  0  0  0
  -24.8240  -28.9560   20.1740 C   0  0  0  0  0  0  0  0  0  0  0  0
  -25.9290  -30.8110   21.4180 C   0  0  0  0  0  2  0  0  0  0  0  0
  -26.0000  -29.4320   20.7690 C   0  0  0  0  0  0  0  0  0  0  0  0
  -27.1790  -28.6240   20.7600 C   0  0  0  0  0  3  0  0  0  0  0  0
  -25.9810  -26.9050   19.5460 C   0  0  0  0  0  3  0  0  0  0  0  0
  -24.8190  -27.7010   19.5500 C   0  0  0  0  0  3  0  0  0  0  0  0
  -23.5910  -29.8350   20.2320 C   0  0  0  0  0  2  0  0  0  0  0  0
  -24.6590  -31.0940   22.1480 N   0  0  0  0  0  0  0  0  0  0  0  0
  -23.5250  -32.1890   23.7840 O   0  0  0  0  0  0  0  0  0  0  0  0
  -22.7270  -29.4960   22.5790 C   0  0  0  0  0  0  0  0  0  0  0  0
  -21.4000  -29.3190   22.4570 N   0  0  0  0  0  0  0  0  0  0  0  0
  -23.4070  -28.8720   23.3970 O   0  0  0  0  0  0  0  0  0  0  0  0
  -20.9090  -29.8750   21.7720 H   0  0  0  0  0  0  0  0  0  0  0  0
  -18.0250  -28.1150   22.9630 C   0  0  0  0  0  0  0  0  0  0  0  0
  -20.5830  -28.3850   23.2350 C   0  0  0  0  0  3  0  0  0  0  0  0
  -20.6900  -26.9490   22.6740 C   0  0  0  0  0  2  0  0  0  0  0  0
  -19.5920  -26.6130   21.6600 C   0  0  0  0  0  2  0  0  0  0  0  0
  -18.2080  -26.7600   22.2990 C   0  0  0  0  0  2  0  0  0  0  0  0
  -19.1410  -28.8850   23.3880 C   0  0  0  0  0  0  0  0  0  0  0  0
  -18.9160  -30.1520   23.9690 C   0  0  0  0  0  3  0  0  0  0  0  0
  -17.6090  -30.6500   24.1280 C   0  0  0  0  0  3  0  0  0  0  0  0
  -16.5080  -29.8760   23.7190 C   0  0  0  0  0  3  0  0  0  0  0  0
  -16.7170  -28.6110   23.1420 C   0  0  0  0  0  3  0  0  0  0  0  0
  -25.8940  -32.5350   23.8570 C   0  0  0  0  0  3  0  0  0  0  0  0
  -25.5890  -33.9340   24.1930 N   0  0  0  0  0  0  0  0  0  0  0  0
  -25.9100  -34.9880   23.4330 C   0  0  0  0  0  0  0  0  0  0  0  0
  -26.5660  -34.8870   22.3920 O   0  0  0  0  0  0  0  0  0  0  0  0
  -25.0080  -34.0870   25.0050 H   0  0  0  0  0  0  0  0  0  0  0  0
  -24.1750  -36.7810   23.1120 C   0  0  0  0  0  1  0  0  0  0  0  0
  -25.4300  -36.3760   23.9010 C   0  0  0  0  0  3  0  0  0  0  0  0
  -27.5790  -37.2610   24.6940 C   0  0  0  0  0  1  0  0  0  0  0  0
  -26.4600  -37.4300   23.7710 N   0  0  0  0  0  0  0  0  0  0  0  0
  -26.0560  -38.3490   23.9290 H   0  0  0  0  0  0  0  0  0  0  0  0
  -26.4200  -31.7610   25.1280 C   0  0  1  0  0  0  0  0  0  0  0  0
  -25.3350  -31.5250   26.2050 C   0  0  0  0  0  1  0  0  0  0  0  0
  -26.9960  -30.3820   24.7320 C   0  0  0  0  0  1  0  0  0  0  0  0
  -27.5800  -32.5510   25.7810 C   0  0  0  0  0  1  0  0  0  0  0  0
  -30.1820  -19.0300   20.8370 C   0  0  0  0  0  2  0  0  0  0  0  0
  -29.9910  -17.5090   20.2690 C   0  0  0  0  0  2  0  0  0  0  0  0
  -29.8300  -16.0370   20.9670 C   0  0  0  0  0  2  0  0  0  0  0  0
  -30.5840  -14.7330   20.4220 C   0  0  0  0  0  0  0  0  0  0  0  0
  -30.3800  -12.4760   19.3610 C   0  0  0  0  0  2  0  0  0  0  0  0
  -29.4400  -12.5880   18.1390 C   0  0  0  0  0  2  0  0  0  0  0  0
  -27.9650  -12.4320   18.5620 C   0  0  0  0  0  2  0  0  0  0  0  0
  -27.6050  -13.3050   19.7950 C   0  0  0  0  0  3  0  0  0  0  0  0
  -28.6600  -13.1540   20.9130 C   0  0  0  0  0  2  0  0  0  0  0  0
  -29.9680  -13.5030   20.3420 N   0  0  0  0  0  0  0  0  0  0  0  0
  -31.7330  -14.8660   19.9880 O   0  0  0  0  0  0  0  0  0  0  0  0
  -25.2160  -13.9240   20.5030 C   0  0  0  0  0  0  0  0  0  0  0  0
  -24.1420  -13.1610   20.8750 C   0  0  0  0  0  0  0  0  0  0  0  0
  -24.5940  -11.8070   20.8540 C   0  0  0  0  0  0  0  0  0  0  0  0
  -26.2530  -13.0350   20.2770 N   0  0  0  0  0  0  0  0  0  0  0  0
  -25.8850  -11.7570   20.5490 N   0  0  0  0  0  0  0  0  0  0  0  0
  -23.8560  -10.5510   21.0490 C   0  0  0  0  0  0  0  0  0  0  0  0
  -24.2920   -9.5750   21.9720 C   0  0  0  0  0  3  0  0  0  0  0  0
  -23.5570   -8.3840   22.1550 C   0  0  0  0  0  3  0  0  0  0  0  0
  -22.3710   -8.1610   21.4150 C   0  0  0  0  0  0  0  0  0  0  0  0
  -21.9540   -9.1250   20.4820 C   0  0  0  0  0  3  0  0  0  0  0  0
  -22.6890  -10.3080   20.2960 C   0  0  0  0  0  3  0  0  0  0  0  0
  -21.6050   -7.0240   21.5100 O   0  0  0  0  0  0  0  0  0  0  0  0
  -21.5800   -6.2660   22.6540 C   0  0  0  0  0  0  0  0  0  0  0  0
  -21.2100   -6.8130   23.9010 C   0  0  0  0  0  3  0  0  0  0  0  0
  -21.1280   -5.9830   25.0370 C   0  0  0  0  0  3  0  0  0  0  0  0
  -21.4080   -4.6080   24.9280 C   0  0  0  0  0  0  0  0  0  0  0  0
  -21.7720   -4.0600   23.6850 C   0  0  0  0  0  3  0  0  0  0  0  0
  -21.8540   -4.8870   22.5500 C   0  0  0  0  0  0  0  0  0  0  0  0
  -22.1850   -4.3510   21.3510 F   0  0  0  0  0  0  0  0  0  0  0  0
  -21.3230   -3.8080   26.0170 F   0  0  0  0  0  0  0  0  0  0  0  0
  -22.7470  -13.6520   21.1400 C   0  0  0  0  0  0  0  0  0  0  0  0
  -22.0090  -12.9680   22.0090 N   0  0  0  0  0  0  0  0  0  0  0  0
  -22.3180  -14.6750   20.6090 O   0  0  0  0  0  0  0  0  0  0  0  0
  -22.3660  -12.1390   22.4600 H   0  0  0  0  0  0  0  0  0  0  0  0
  -21.0730  -13.2780   22.2240 H   0  0  0  0  0  0  0  0  0  0  0  0
  -25.3930  -15.2920   20.3180 N   0  0  0  0  0  0  0  0  0  0  0  0
  -24.6380  -15.9600   20.4280 H   0  0  0  0  0  0  0  0  0  0  0  0
  -26.2480  -15.7160   19.9840 H   0  0  0  0  0  0  0  0  0  0  0  0
  2  3  1  0
  2  4  1  0
  3  6  1  0
  3  1  1  0
  4 49  1  0
  4  1  1  0
  4  5  1  6
  7  8  1  0
  7  6  2  0
  9 20  2  0
 10  8  1  0
 10 15  1  0
 11 19  1  0
 11 21  1  0
 12 18  1  0
 12 14  1  0
 13 19  1  0
 14 13  1  0
 15 14  2  0
 16 17  1  0
 16 10  2  0
 17 12  2  0
 18 11  1  0
 19  9  1  0
 21 23  2  0
 22 21  1  0
 24 22  1  0
 25 34  2  0
 25 30  1  0
 26 22  1  0
 26 30  1  0
 27 26  1  0
 28 29  1  0
 28 27  1  0
 29 25  1  0
 30 31  2  0
 31 32  1  0
 33 32  2  0
 34 33  1  0
 35  9  1  0
 35 36  1  0
 35 45  1  0
 36 39  1  0
 37 41  1  0
 37 36  1  0
 38 37  2  0
 41 40  1  0
 43 41  1  0
 43 44  1  0
 43 42  1  0
 45 48  1  1
 45 46  1  0
 47 45  1  0
 50 49  1  0
 50 51  1  0
 52 51  1  0
 53 58  1  0
 54 55  1  0
 54 53  1  0
 56 55  1  0
 56 63  1  0
 56 57  1  0
 58 52  1  0
 58 57  1  0
 59 52  2  0
 60 61  2  0
 61 80  1  0
 62 61  1  0
 62 65  1  0
 63 60  1  0
 63 64  1  0
 64 62  2  0
 65 66  1  0
 66 67  2  0
 68 71  1  0
 68 67  1  0
 69 68  2  0
 70 69  1  0
 70 65  2  0
 71 72  1  0
 72 73  1  0
 73 74  2  0
 75 74  1  0
 75 79  1  0
 76 75  2  0
 77 72  2  0
 77 76  1  0
 78 77  1  0
 80 81  1  0
 81 84  1  0
 81 83  1  0
 82 80  2  0
 85 86  1  0
 85 60  1  0
 87 85  1  0
M  ISO  4   7 101   8 101  51 100  52 100
M  END
>  <TORSDO>  (11) 
F 21

>  <SCORE>  (11) 
-13.372

>  <name>  (11) 
11

>  <ligand_id>  (11) 
11

>  <original_smiles>  (11) 
[H]c1c([H])c([H])c2c(c1[H])C([H])([H])C([H])([H])C([H])([H])C2([H])N([H])C(=O)C1([H])N(C(=O)C([H])(N([H])C(=O)C([H])(N([H])C([H])([H])[H])C([H])([H])[H])C(C([H])([H])[H])(C([H])([H])[H])C([H])([H])[H])C([H])([H])c2c([H])c(OC([H])([H])C([H])([H])C3([H])C([H])([H])[N+]([H])(C([H])([H])C([H])([H])C([H])([H])C(=O)N4C([H])([H])C([H])([H])C([H])([H])C([H])(n5nc(-c6c([H])c([H])c(Oc7c([H])c([H])c(F)c([H])c7F)c([H])c6[H])c(C(=O)N([H])[H])c5N([H])[H])C4([H])[H])C3([H])[H])c([H])c([H])c2C1([H])[H]

>  <smiles>  (11) 
[H]c1c([H])c([H])c2c(c1[H])C([H])([H])C([H])([H])C([H])([H])C2([H])N([H])C(=O)C1([H])N(C(=O)C([H])(N([H])C(=O)C([H])(N([H])C([H])([H])[H])C([H])([H])[H])C(C([H])([H])[H])(C([H])([H])[H])C([H])([H])[H])C([H])([H])c2c([H])c(OC([H])([H])C([H])([H])C3([H])C([H])([H])[N+]([H])(C([H])([H])C([H])([H])C([H])([H])C(=O)N4C([H])([H])C([H])([H])C([H])([H])C([H])(n5nc(-c6c([H])c([H])c(Oc7c([H])c([H])c(F)c([H])c7F)c([H])c6[H])c(C(=O)N([H])[H])c5N([H])[H])C4([H])[H])C3([H])[H])c([H])c([H])c2C1([H])[H]

$$$$
12:0:0
     RDKit          3D

 95103  0  0  1  0  0  0  0  0999 V2000
  -33.0220  -21.0630   20.8170 C   0  0  0  0  0  2  0  0  0  0  0  0
  -31.8370  -22.0060   20.7230 C   0  0  0  0  0  2  0  0  0  0  0  0
  -32.5200  -19.7130   20.3000 C   0  0  0  0  0  2  0  0  0  0  0  0
  -30.5850  -21.1300   20.8470 C   0  0  0  0  0  3  0  0  0  0  0  0
  -30.9800  -19.7890   20.1510 C   0  0  0  0  0  3  0  0  0  0  0  0
  -29.3530  -21.9020   20.2920 C   0  0  0  0  0  2  0  0  0  0  0  0
  -27.4720  -22.9720   21.6990 C   0  0  0  0  0  1  0  0  0  0  0  0
  -28.9260  -23.0980   21.2050 C   0  0  0  0  0  3  0  0  0  0  0  0
  -29.2780  -24.5330   20.6950 C   0  0  0  0  0  2  0  0  0  0  0  0
  -28.2610  -25.2310   19.7660 C   0  0  0  0  0  2  0  0  0  0  0  0
  -28.4140  -26.6660   19.8030 O   0  0  0  0  0  0  0  0  0  0  0  0
  -24.6490  -31.7430   23.0990 C   0  0  0  0  0  0  0  0  0  0  0  0
  -27.2480  -27.4120   19.8130 C   0  0  0  0  0  0  0  0  0  0  0  0
  -23.4180  -30.3940   21.4300 C   0  0  0  0  0  3  0  0  0  0  0  0
  -24.8500  -28.9180   19.9230 C   0  0  0  0  0  0  0  0  0  0  0  0
  -25.9410  -30.7640   21.2030 C   0  0  0  0  0  2  0  0  0  0  0  0
  -26.0180  -29.4180   20.5100 C   0  0  0  0  0  0  0  0  0  0  0  0
  -27.2190  -28.6760   20.4530 C   0  0  0  0  0  3  0  0  0  0  0  0
  -26.0620  -26.9410   19.2020 C   0  0  0  0  0  3  0  0  0  0  0  0
  -24.8680  -27.6780   19.2650 C   0  0  0  0  0  3  0  0  0  0  0  0
  -23.6040  -29.7680   20.0220 C   0  0  0  0  0  2  0  0  0  0  0  0
  -24.6880  -30.9810   21.9680 N   0  0  0  0  0  0  0  0  0  0  0  0
  -23.5770  -31.9890   23.6700 O   0  0  0  0  0  0  0  0  0  0  0  0
  -22.7860  -29.3360   22.3630 C   0  0  0  0  0  0  0  0  0  0  0  0
  -21.4580  -29.1660   22.2630 N   0  0  0  0  0  0  0  0  0  0  0  0
  -23.4880  -28.6730   23.1330 O   0  0  0  0  0  0  0  0  0  0  0  0
  -20.9520  -29.7560   21.6160 H   0  0  0  0  0  0  0  0  0  0  0  0
  -18.0880  -27.9850   22.8150 C   0  0  0  0  0  0  0  0  0  0  0  0
  -20.6560  -28.2020   23.0180 C   0  0  0  0  0  3  0  0  0  0  0  0
  -20.7230  -26.7960   22.3750 C   0  0  0  0  0  2  0  0  0  0  0  0
  -19.5860  -26.5330   21.3850 C   0  0  0  0  0  2  0  0  0  0  0  0
  -18.2260  -26.6650   22.0750 C   0  0  0  0  0  2  0  0  0  0  0  0
  -19.2290  -28.7130   23.2430 C   0  0  0  0  0  0  0  0  0  0  0  0
  -19.0440  -29.9520   23.8960 C   0  0  0  0  0  3  0  0  0  0  0  0
  -17.7520  -30.4590   24.1250 C   0  0  0  0  0  3  0  0  0  0  0  0
  -16.6270  -29.7270   23.7110 C   0  0  0  0  0  3  0  0  0  0  0  0
  -16.7960  -28.4910   23.0630 C   0  0  0  0  0  3  0  0  0  0  0  0
  -25.9450  -32.3550   23.7190 C   0  0  0  0  0  3  0  0  0  0  0  0
  -26.4860  -31.5430   24.9600 C   0  0  1  0  0  0  0  0  0  0  0  0
  -25.4160  -31.2700   26.0400 C   0  0  0  0  0  1  0  0  0  0  0  0
  -27.0610  -30.1790   24.5150 C   0  0  0  0  0  1  0  0  0  0  0  0
  -27.6490  -32.3170   25.6250 C   0  0  0  0  0  1  0  0  0  0  0  0
  -25.6430  -33.7430   24.0940 N   0  0  0  0  0  0  0  0  0  0  0  0
  -25.9670  -34.8160   23.3600 C   0  0  0  0  0  0  0  0  0  0  0  0
  -26.6250  -34.7420   22.3190 O   0  0  0  0  0  0  0  0  0  0  0  0
  -25.0600  -33.8780   24.9070 H   0  0  0  0  0  0  0  0  0  0  0  0
  -24.2360  -36.6190   23.0750 C   0  0  0  0  0  1  0  0  0  0  0  0
  -25.4850  -36.1910   23.8620 C   0  0  0  0  0  3  0  0  0  0  0  0
  -27.6240  -37.0520   24.7000 C   0  0  0  0  0  1  0  0  0  0  0  0
  -26.5170  -37.2470   23.7700 N   0  0  0  0  0  0  0  0  0  0  0  0
  -26.1110  -38.1610   23.9520 H   0  0  0  0  0  0  0  0  0  0  0  0
  -30.2820  -18.4860   20.6830 C   0  0  0  0  0  2  0  0  0  0  0  0
  -30.8760  -17.1410   20.1290 C   0  0  0  0  0  3  0  0  0  0  0  0
  -30.8170  -17.1690   18.6420 N   0  0  0  0  0  4  0  0  0  0  0  0
  -30.1120  -16.5330   18.3070 H   0  0  0  0  0  0  0  0  0  0  0  0
  -30.5150  -18.0950   18.3860 H   0  0  0  0  0  0  0  0  0  0  0  0
  -32.0380  -17.2760   16.4530 C   0  0  0  0  0  1  0  0  0  0  0  0
  -32.1060  -16.9380   17.9480 C   0  0  0  0  0  2  0  0  0  0  0  0
  -30.2420  -15.8260   20.7330 C   0  0  0  0  0  2  0  0  0  0  0  0
  -30.9450  -14.4980   20.3100 C   0  0  0  0  0  0  0  0  0  0  0  0
  -30.6400  -12.2750   19.2810 C   0  0  0  0  0  2  0  0  0  0  0  0
  -29.7130  -12.4300   18.0560 C   0  0  0  0  0  2  0  0  0  0  0  0
  -28.2340  -12.3220   18.4780 C   0  0  0  0  0  2  0  0  0  0  0  0
  -27.8890  -13.2230   19.6930 C   0  0  0  0  0  3  0  0  0  0  0  0
  -28.9350  -13.0660   20.8210 C   0  0  0  0  0  2  0  0  0  0  0  0
  -30.2640  -13.3180   20.2500 N   0  0  0  0  0  0  0  0  0  0  0  0
  -32.0980  -14.5870   19.8820 O   0  0  0  0  0  0  0  0  0  0  0  0
  -25.5060  -13.8930   20.3900 C   0  0  0  0  0  0  0  0  0  0  0  0
  -24.4210  -13.1480   20.7660 C   0  0  0  0  0  0  0  0  0  0  0  0
  -24.8520  -11.7860   20.7550 C   0  0  0  0  0  0  0  0  0  0  0  0
  -26.5300  -12.9850   20.1720 N   0  0  0  0  0  0  0  0  0  0  0  0
  -26.1420  -11.7150   20.4510 N   0  0  0  0  0  0  0  0  0  0  0  0
  -24.0960  -10.5440   20.9590 C   0  0  0  0  0  0  0  0  0  0  0  0
  -24.5090   -9.5740   21.8970 C   0  0  0  0  0  3  0  0  0  0  0  0
  -23.7560   -8.3970   22.0890 C   0  0  0  0  0  3  0  0  0  0  0  0
  -22.5740   -8.1820   21.3420 C   0  0  0  0  0  0  0  0  0  0  0  0
  -22.1780   -9.1410   20.3920 C   0  0  0  0  0  3  0  0  0  0  0  0
  -22.9330  -10.3100   20.1990 C   0  0  0  0  0  3  0  0  0  0  0  0
  -21.7930   -7.0550   21.4420 O   0  0  0  0  0  0  0  0  0  0  0  0
  -21.7420   -6.3160   22.5970 C   0  0  0  0  0  0  0  0  0  0  0  0
  -21.3500   -6.8830   23.8290 C   0  0  0  0  0  3  0  0  0  0  0  0
  -21.2460   -6.0720   24.9760 C   0  0  0  0  0  3  0  0  0  0  0  0
  -21.5210   -4.6940   24.8920 C   0  0  0  0  0  0  0  0  0  0  0  0
  -21.9050   -4.1260   23.6660 C   0  0  0  0  0  3  0  0  0  0  0  0
  -22.0140   -4.9350   22.5210 C   0  0  0  0  0  0  0  0  0  0  0  0
  -22.3640   -4.3780   21.3360 F   0  0  0  0  0  0  0  0  0  0  0  0
  -21.4140   -3.9130   25.9930 F   0  0  0  0  0  0  0  0  0  0  0  0
  -23.0350  -13.6620   21.0300 C   0  0  0  0  0  0  0  0  0  0  0  0
  -22.2920  -13.0000   21.9120 N   0  0  0  0  0  0  0  0  0  0  0  0
  -22.6180  -14.6860   20.4890 O   0  0  0  0  0  0  0  0  0  0  0  0
  -22.6400  -12.1690   22.3680 H   0  0  0  0  0  0  0  0  0  0  0  0
  -21.3630  -13.3290   22.1330 H   0  0  0  0  0  0  0  0  0  0  0  0
  -25.7030  -15.2560   20.1950 N   0  0  0  0  0  0  0  0  0  0  0  0
  -24.9470  -15.9270   20.2940 H   0  0  0  0  0  0  0  0  0  0  0  0
  -26.5660  -15.6790   19.8870 H   0  0  0  0  0  0  0  0  0  0  0  0
  2  1  1  0
  2  4  1  0
  3  1  1  0
  4  6  1  0
  5  3  1  0
  5 52  1  0
  5  4  1  0
  6  8  1  0
  8  7  1  0
  9  8  1  0
 10 11  1  0
 10  9  1  0
 11 13  1  0
 12 23  2  0
 13 18  1  0
 14 22  1  0
 14 24  1  0
 15 21  1  0
 15 17  1  0
 16 22  1  0
 17 16  1  0
 18 17  2  0
 19 20  1  0
 19 13  2  0
 20 15  2  0
 21 14  1  0
 22 12  1  0
 24 26  2  0
 25 24  1  0
 27 25  1  0
 28 37  2  0
 28 33  1  0
 29 25  1  0
 29 33  1  0
 30 29  1  0
 31 32  1  0
 31 30  1  0
 32 28  1  0
 33 34  2  0
 34 35  1  0
 36 35  2  0
 37 36  1  0
 38 12  1  0
 38 43  1  0
 38 39  1  0
 39 42  1  1
 39 40  1  0
 41 39  1  0
 43 46  1  0
 44 48  1  0
 44 43  1  0
 45 44  2  0
 48 47  1  0
 50 48  1  0
 50 51  1  0
 50 49  1  0
 53 52  1  0
 53 59  1  0
 54 53  1  0
 55 54  1  0
 56 54  1  0
 57 58  1  0
 58 54  1  0
 60 59  1  0
 61 66  1  0
 62 63  1  0
 62 61  1  0
 64 63  1  0
 64 71  1  0
 64 65  1  0
 66 60  1  0
 66 65  1  0
 67 60  2  0
 68 69  2  0
 69 88  1  0
 70 69  1  0
 70 73  1  0
 71 68  1  0
 71 72  1  0
 72 70  2  0
 73 74  1  0
 74 75  2  0
 76 79  1  0
 76 75  1  0
 77 76  2  0
 78 77  1  0
 78 73  2  0
 79 80  1  0
 80 81  1  0
 81 82  2  0
 83 82  1  0
 83 87  1  0
 84 83  2  0
 85 80  2  0
 85 84  1  0
 86 85  1  0
 88 89  1  0
 89 92  1  0
 89 91  1  0
 90 88  2  0
 93 94  1  0
 93 68  1  0
 95 93  1  0
M  ISO  4  10 101  11 101  59 100  60 100
M  END
>  <TORSDO>  (12) 
F 25

>  <SCORE>  (12) 
-12.130

>  <name>  (12) 
12

>  <ligand_id>  (12) 
12

>  <original_smiles>  (12) 
[H]c1c([H])c([H])c2c(c1[H])C([H])([H])C([H])([H])C([H])([H])C2([H])N([H])C(=O)C1([H])N(C(=O)C([H])(N([H])C(=O)C([H])(N([H])C([H])([H])[H])C([H])([H])[H])C(C([H])([H])[H])(C([H])([H])[H])C([H])([H])[H])C([H])([H])c2c([H])c(OC([H])([H])C([H])([H])C([H])(C([H])([H])[H])C([H])([H])C3([H])C([H])([H])C([H])([H])C([H])([H])C3([H])C([H])([H])C([H])(C([H])([H])C(=O)N3C([H])([H])C([H])([H])C([H])([H])C([H])(n4nc(-c5c([H])c([H])c(Oc6c([H])c([H])c(F)c([H])c6F)c([H])c5[H])c(C(=O)N([H])[H])c4N([H])[H])C3([H])[H])[N+]([H])([H])C([H])([H])C([H])([H])[H])c([H])c([H])c2C1([H])[H]

>  <smiles>  (12) 
[H]c1c([H])c([H])c2c(c1[H])C([H])([H])C([H])([H])C([H])([H])C2([H])N([H])C(=O)C1([H])N(C(=O)C([H])(N([H])C(=O)C([H])(N([H])C([H])([H])[H])C([H])([H])[H])C(C([H])([H])[H])(C([H])([H])[H])C([H])([H])[H])C([H])([H])c2c([H])c(OC([H])([H])C([H])([H])C([H])(C([H])([H])[H])C([H])([H])C3([H])C([H])([H])C([H])([H])C([H])([H])C3([H])C([H])([H])C([H])(C([H])([H])C(=O)N3C([H])([H])C([H])([H])C([H])([H])C([H])(n4nc(-c5c([H])c([H])c(Oc6c([H])c([H])c(F)c([H])c6F)c([H])c5[H])c(C(=O)N([H])[H])c4N([H])[H])C3([H])[H])[N+]([H])([H])C([H])([H])C([H])([H])[H])c([H])c([H])c2C1([H])[H]

$$$$
13:0:0
     RDKit          3D

 94103  0  0  1  0  0  0  0  0999 V2000
  -29.4950  -22.2280   23.6460 C   0  0  0  0  0  2  0  0  0  0  0  0
  -30.7120  -22.7550   22.9040 C   0  0  0  0  0  2  0  0  0  0  0  0
  -31.4300  -22.7180   20.3930 C   0  0  0  0  0  2  0  0  0  0  0  0
  -28.3930  -22.3310   22.5960 C   0  0  0  0  0  2  0  0  0  0  0  0
  -31.4780  -21.5710   19.3730 C   0  0  0  0  0  2  0  0  0  0  0  0
  -30.9360  -20.6600   21.5110 C   0  0  0  0  0  2  0  0  0  0  0  0
  -30.5330  -22.1510   21.5090 C   0  0  1  0  0  0  0  0  0  0  0  0
  -29.0700  -22.2300   21.2890 N   0  0  0  0  0  0  0  0  0  0  0  0
  -31.4680  -20.3240   20.1720 N   0  0  1  0  0  4  0  0  0  0  0  0
  -32.4330  -20.0640   20.2980 H   0  0  0  0  0  0  0  0  0  0  0  0
  -28.5270  -23.1640   20.2870 C   0  0  0  0  0  2  0  0  0  0  0  0
  -28.5370  -24.6440   20.7100 C   0  0  0  0  0  2  0  0  0  0  0  0
  -28.6790  -25.6000   19.5260 C   0  0  0  0  0  2  0  0  0  0  0  0
  -28.5260  -26.9280   20.0030 O   0  0  0  0  0  0  0  0  0  0  0  0
  -24.5970  -31.8760   23.2150 C   0  0  0  0  0  0  0  0  0  0  0  0
  -27.2840  -27.5180   20.0640 C   0  0  0  0  0  0  0  0  0  0  0  0
  -23.3930  -30.4710   21.5700 C   0  0  0  0  0  3  0  0  0  0  0  0
  -24.8520  -28.9520   20.1370 C   0  0  0  0  0  0  0  0  0  0  0  0
  -25.9080  -30.8700   21.3510 C   0  0  0  0  0  2  0  0  0  0  0  0
  -26.0030  -29.5020   20.7130 C   0  0  0  0  0  0  0  0  0  0  0  0
  -27.2180  -28.7890   20.6700 C   0  0  0  0  0  3  0  0  0  0  0  0
  -26.1030  -26.9540   19.5180 C   0  0  0  0  0  3  0  0  0  0  0  0
  -24.8970  -27.6800   19.5430 C   0  0  0  0  0  3  0  0  0  0  0  0
  -23.5970  -29.7920   20.1880 C   0  0  0  0  0  2  0  0  0  0  0  0
  -24.6520  -31.0880   22.1060 N   0  0  0  0  0  0  0  0  0  0  0  0
  -23.5170  -32.1400   23.7620 O   0  0  0  0  0  0  0  0  0  0  0  0
  -22.7560  -29.4440   22.5290 C   0  0  0  0  0  0  0  0  0  0  0  0
  -21.4300  -29.2660   22.4150 N   0  0  0  0  0  0  0  0  0  0  0  0
  -23.4500  -28.8090   23.3260 O   0  0  0  0  0  0  0  0  0  0  0  0
  -20.9330  -29.8340   21.7430 H   0  0  0  0  0  0  0  0  0  0  0  0
  -18.0580  -28.0800   22.9300 C   0  0  0  0  0  0  0  0  0  0  0  0
  -20.6200  -28.3200   23.1820 C   0  0  0  0  0  3  0  0  0  0  0  0
  -20.7080  -26.8970   22.5830 C   0  0  0  0  0  2  0  0  0  0  0  0
  -19.5920  -26.5920   21.5770 C   0  0  0  0  0  2  0  0  0  0  0  0
  -18.2200  -26.7360   22.2370 C   0  0  0  0  0  2  0  0  0  0  0  0
  -19.1860  -28.8300   23.3590 C   0  0  0  0  0  0  0  0  0  0  0  0
  -18.9810  -30.0890   23.9640 C   0  0  0  0  0  3  0  0  0  0  0  0
  -17.6810  -30.5960   24.1500 C   0  0  0  0  0  3  0  0  0  0  0  0
  -16.5670  -29.8410   23.7380 C   0  0  0  0  0  3  0  0  0  0  0  0
  -16.7570  -28.5850   23.1340 C   0  0  0  0  0  3  0  0  0  0  0  0
  -25.8830  -32.5120   23.8340 C   0  0  0  0  0  3  0  0  0  0  0  0
  -25.5700  -33.9080   24.1670 N   0  0  0  0  0  0  0  0  0  0  0  0
  -25.9020  -34.9620   23.4120 C   0  0  0  0  0  0  0  0  0  0  0  0
  -26.5770  -34.8630   22.3820 O   0  0  0  0  0  0  0  0  0  0  0  0
  -24.9650  -34.0610   24.9610 H   0  0  0  0  0  0  0  0  0  0  0  0
  -24.1690  -36.7500   23.0580 C   0  0  0  0  0  1  0  0  0  0  0  0
  -25.4090  -36.3470   23.8710 C   0  0  0  0  0  3  0  0  0  0  0  0
  -27.5400  -37.2370   24.7080 C   0  0  0  0  0  1  0  0  0  0  0  0
  -26.4390  -37.4030   23.7640 N   0  0  0  0  0  0  0  0  0  0  0  0
  -26.0280  -38.3220   23.9110 H   0  0  0  0  0  0  0  0  0  0  0  0
  -26.4120  -31.7370   25.1020 C   0  0  1  0  0  0  0  0  0  0  0  0
  -25.3270  -31.4870   26.1750 C   0  0  0  0  0  1  0  0  0  0  0  0
  -26.9970  -30.3670   24.6910 C   0  0  0  0  0  1  0  0  0  0  0  0
  -27.5580  -32.5380   25.7640 C   0  0  0  0  0  1  0  0  0  0  0  0
  -30.7820  -19.1740   19.5420 C   0  0  0  0  0  2  0  0  0  0  0  0
  -31.0940  -17.8350   20.2570 C   0  0  0  0  0  2  0  0  0  0  0  0
  -29.8690  -16.9020   20.3460 C   0  0  0  0  0  2  0  0  0  0  0  0
  -30.0620  -15.6250   21.1990 C   0  0  0  0  0  2  0  0  0  0  0  0
  -30.7140  -14.4540   20.4310 C   0  0  0  0  0  0  0  0  0  0  0  0
  -30.4140  -12.3360   19.1980 C   0  0  0  0  0  2  0  0  0  0  0  0
  -29.4630  -12.5840   18.0070 C   0  0  0  0  0  2  0  0  0  0  0  0
  -27.9850  -12.4650   18.4340 C   0  0  0  0  0  2  0  0  0  0  0  0
  -27.6700  -13.2670   19.7250 C   0  0  0  0  0  3  0  0  0  0  0  0
  -28.7200  -12.9470   20.8090 C   0  0  0  0  0  2  0  0  0  0  0  0
  -30.0450  -13.2810   20.2640 N   0  0  0  0  0  0  0  0  0  0  0  0
  -31.8130  -14.6600   19.9050 O   0  0  0  0  0  0  0  0  0  0  0  0
  -25.2700  -13.9020   20.4120 C   0  0  0  0  0  0  0  0  0  0  0  0
  -24.1950  -13.1390   20.7880 C   0  0  0  0  0  0  0  0  0  0  0  0
  -24.6510  -11.7860   20.7750 C   0  0  0  0  0  0  0  0  0  0  0  0
  -26.3110  -13.0110   20.1980 N   0  0  0  0  0  0  0  0  0  0  0  0
  -25.9390  -11.7340   20.4640 N   0  0  0  0  0  0  0  0  0  0  0  0
  -23.9200  -10.5290   20.9790 C   0  0  0  0  0  0  0  0  0  0  0  0
  -24.3550   -9.5650   21.9130 C   0  0  0  0  0  3  0  0  0  0  0  0
  -23.6230   -8.3720   22.1040 C   0  0  0  0  0  3  0  0  0  0  0  0
  -22.4440   -8.1380   21.3580 C   0  0  0  0  0  0  0  0  0  0  0  0
  -22.0300   -9.0910   20.4100 C   0  0  0  0  0  3  0  0  0  0  0  0
  -22.7620  -10.2740   20.2170 C   0  0  0  0  0  3  0  0  0  0  0  0
  -21.6840   -6.9970   21.4580 O   0  0  0  0  0  0  0  0  0  0  0  0
  -21.6450   -6.2570   22.6140 C   0  0  0  0  0  0  0  0  0  0  0  0
  -21.2480   -6.8200   23.8470 C   0  0  0  0  0  3  0  0  0  0  0  0
  -21.1540   -6.0060   24.9950 C   0  0  0  0  0  3  0  0  0  0  0  0
  -21.4480   -4.6320   24.9090 C   0  0  0  0  0  0  0  0  0  0  0  0
  -21.8360   -4.0690   23.6820 C   0  0  0  0  0  3  0  0  0  0  0  0
  -21.9320   -4.8790   22.5360 C   0  0  0  0  0  0  0  0  0  0  0  0
  -22.2870   -4.3290   21.3510 F   0  0  0  0  0  0  0  0  0  0  0  0
  -21.3510   -3.8490   26.0090 F   0  0  0  0  0  0  0  0  0  0  0  0
  -22.8010  -13.6280   21.0560 C   0  0  0  0  0  0  0  0  0  0  0  0
  -22.0720  -12.9430   21.9320 N   0  0  0  0  0  0  0  0  0  0  0  0
  -22.3660  -14.6490   20.5260 O   0  0  0  0  0  0  0  0  0  0  0  0
  -22.4390  -12.1190   22.3830 H   0  0  0  0  0  0  0  0  0  0  0  0
  -21.1340  -13.2470   22.1510 H   0  0  0  0  0  0  0  0  0  0  0  0
  -25.4440  -15.2680   20.2220 N   0  0  0  0  0  0  0  0  0  0  0  0
  -24.6820  -15.9290   20.3160 H   0  0  0  0  0  0  0  0  0  0  0  0
  -26.3060  -15.7020   19.9160 H   0  0  0  0  0  0  0  0  0  0  0  0
  2  1  1  0
  4  1  1  0
  5  9  1  0
  5  3  1  0
  7  3  1  6
  7  6  1  0
  7  2  1  0
  8  7  1  0
  8  4  1  0
  9 10  1  1
  9  6  1  0
 11 12  1  0
 11  8  1  0
 13 14  1  0
 13 12  1  0
 14 16  1  0
 15 26  2  0
 16 21  1  0
 17 25  1  0
 17 27  1  0
 18 24  1  0
 18 20  1  0
 19 25  1  0
 20 19  1  0
 21 20  2  0
 22 23  1  0
 22 16  2  0
 23 18  2  0
 24 17  1  0
 25 15  1  0
 27 29  2  0
 28 27  1  0
 30 28  1  0
 31 40  2  0
 31 36  1  0
 32 28  1  0
 32 36  1  0
 33 32  1  0
 34 35  1  0
 34 33  1  0
 35 31  1  0
 36 37  2  0
 37 38  1  0
 39 38  2  0
 40 39  1  0
 41 15  1  0
 41 42  1  0
 41 51  1  0
 42 45  1  0
 43 47  1  0
 43 42  1  0
 44 43  2  0
 47 46  1  0
 49 47  1  0
 49 50  1  0
 49 48  1  0
 51 54  1  1
 51 52  1  0
 53 51  1  0
 55  9  1  0
 55 56  1  0
 56 57  1  0
 57 58  1  0
 59 58  1  0
 60 65  1  0
 61 62  1  0
 61 60  1  0
 63 62  1  0
 63 70  1  0
 63 64  1  0
 65 59  1  0
 65 64  1  0
 66 59  2  0
 67 68  2  0
 68 87  1  0
 69 68  1  0
 69 72  1  0
 70 67  1  0
 70 71  1  0
 71 69  2  0
 72 73  1  0
 73 74  2  0
 75 78  1  0
 75 74  1  0
 76 75  2  0
 77 76  1  0
 77 72  2  0
 78 79  1  0
 79 80  1  0
 80 81  2  0
 82 81  1  0
 82 86  1  0
 83 82  2  0
 84 79  2  0
 84 83  1  0
 85 84  1  0
 87 88  1  0
 88 91  1  0
 88 90  1  0
 89 87  2  0
 92 93  1  0
 92 67  1  0
 94 92  1  0
M  ISO  4  13 101  14 101  58 100  59 100
M  END
>  <TORSDO>  (13) 
F 23

>  <SCORE>  (13) 
-12.390

>  <name>  (13) 
13

>  <ligand_id>  (13) 
13

>  <original_smiles>  (13) 
[H]c1c([H])c([H])c2c(c1[H])C([H])([H])C([H])([H])C([H])([H])C2([H])N([H])C(=O)C1([H])N(C(=O)C([H])(N([H])C(=O)C([H])(N([H])C([H])([H])[H])C([H])([H])[H])C(C([H])([H])[H])(C([H])([H])[H])C([H])([H])[H])C([H])([H])c2c([H])c(OC([H])([H])C([H])([H])C([H])([H])N3C([H])([H])C([H])([H])C([H])([H])C34C([H])([H])C([H])([H])[N+]([H])(C([H])([H])C([H])([H])C([H])([H])C([H])([H])C(=O)N3C([H])([H])C([H])([H])C([H])([H])C([H])(n5nc(-c6c([H])c([H])c(Oc7c([H])c([H])c(F)c([H])c7F)c([H])c6[H])c(C(=O)N([H])[H])c5N([H])[H])C3([H])[H])C4([H])[H])c([H])c([H])c2C1([H])[H]

>  <smiles>  (13) 
[H]c1c([H])c([H])c2c(c1[H])C([H])([H])C([H])([H])C([H])([H])C2([H])N([H])C(=O)C1([H])N(C(=O)C([H])(N([H])C(=O)C([H])(N([H])C([H])([H])[H])C([H])([H])[H])C(C([H])([H])[H])(C([H])([H])[H])C([H])([H])[H])C([H])([H])c2c([H])c(OC([H])([H])C([H])([H])C([H])([H])N3C([H])([H])C([H])([H])C([H])([H])C34C([H])([H])C([H])([H])[N+]([H])(C([H])([H])C([H])([H])C([H])([H])C([H])([H])C(=O)N3C([H])([H])C([H])([H])C([H])([H])C([H])(n5nc(-c6c([H])c([H])c(Oc7c([H])c([H])c(F)c([H])c7F)c([H])c6[H])c(C(=O)N([H])[H])c5N([H])[H])C3([H])[H])C4([H])[H])c([H])c([H])c2C1([H])[H]

$$$$
14:0:0
     RDKit          3D

 92100  0  0  1  0  0  0  0  0999 V2000
  -28.5440  -22.5760   20.8590 N   0  0  0  0  0  4  0  0  0  0  0  0
  -27.7130  -23.0980   20.6370 H   0  0  0  0  0  0  0  0  0  0  0  0
  -28.6040  -22.5220   21.8650 H   0  0  0  0  0  0  0  0  0  0  0  0
  -26.8600  -20.8410   20.3540 C   0  0  0  0  0  1  0  0  0  0  0  0
  -28.3510  -21.2200   20.2960 C   0  0  0  0  0  3  0  0  0  0  0  0
  -29.2400  -20.1930   21.0330 C   0  0  0  0  0  2  0  0  0  0  0  0
  -30.4660  -17.1870   19.1780 C   0  0  0  0  0  2  0  0  0  0  0  0
  -29.7210  -18.5260   19.1120 C   0  0  0  0  0  2  0  0  0  0  0  0
  -29.8090  -17.7330   21.4150 C   0  0  0  0  0  2  0  0  0  0  0  0
  -30.0440  -16.5330   20.5040 C   0  0  0  0  0  3  0  0  0  0  0  0
  -29.1150  -18.7510   20.5100 C   0  0  0  0  0  3  0  0  0  0  0  0
  -31.0220  -15.5030   21.1080 C   0  0  0  0  0  2  0  0  0  0  0  0
  -31.3920  -14.3930   20.1230 C   0  0  0  0  0  0  0  0  0  0  0  0
  -30.9050  -12.2690   18.9750 C   0  0  0  0  0  2  0  0  0  0  0  0
  -29.9500  -12.4880   17.7870 C   0  0  0  0  0  2  0  0  0  0  0  0
  -28.4850  -12.4170   18.2540 C   0  0  0  0  0  2  0  0  0  0  0  0
  -28.2110  -13.3210   19.4840 C   0  0  0  0  0  3  0  0  0  0  0  0
  -29.2770  -13.0990   20.5820 C   0  0  0  0  0  2  0  0  0  0  0  0
  -30.6120  -13.2910   19.9880 N   0  0  0  0  0  0  0  0  0  0  0  0
  -32.4200  -14.5630   19.4610 O   0  0  0  0  0  0  0  0  0  0  0  0
  -25.8610  -14.0580   20.2400 C   0  0  0  0  0  0  0  0  0  0  0  0
  -24.7640  -13.3420   20.6420 C   0  0  0  0  0  0  0  0  0  0  0  0
  -25.1570  -11.9700   20.6150 C   0  0  0  0  0  0  0  0  0  0  0  0
  -26.8560  -13.1240   19.9980 N   0  0  0  0  0  0  0  0  0  0  0  0
  -26.4360  -11.8630   20.2770 N   0  0  0  0  0  0  0  0  0  0  0  0
  -24.3750  -10.7460   20.8360 C   0  0  0  0  0  0  0  0  0  0  0  0
  -24.7570   -9.7910   21.8040 C   0  0  0  0  0  3  0  0  0  0  0  0
  -23.9790   -8.6310   22.0100 C   0  0  0  0  0  3  0  0  0  0  0  0
  -22.8050   -8.4180   21.2470 C   0  0  0  0  0  0  0  0  0  0  0  0
  -22.4440   -9.3620   20.2700 C   0  0  0  0  0  3  0  0  0  0  0  0
  -23.2210  -10.5130   20.0620 C   0  0  0  0  0  3  0  0  0  0  0  0
  -22.0030   -7.3090   21.3600 O   0  0  0  0  0  0  0  0  0  0  0  0
  -21.8730   -6.6330   22.5470 C   0  0  0  0  0  0  0  0  0  0  0  0
  -21.4300   -7.2730   23.7260 C   0  0  0  0  0  3  0  0  0  0  0  0
  -21.2440   -6.5260   24.9060 C   0  0  0  0  0  3  0  0  0  0  0  0
  -21.4920   -5.1400   24.9090 C   0  0  0  0  0  0  0  0  0  0  0  0
  -21.9280   -4.5000   23.7360 C   0  0  0  0  0  3  0  0  0  0  0  0
  -22.1150   -5.2450   22.5570 C   0  0  0  0  0  0  0  0  0  0  0  0
  -22.5160   -4.6190   21.4240 F   0  0  0  0  0  0  0  0  0  0  0  0
  -21.3060   -4.4200   26.0410 F   0  0  0  0  0  0  0  0  0  0  0  0
  -23.3990  -13.8890   20.9440 C   0  0  0  0  0  0  0  0  0  0  0  0
  -22.6670  -13.2440   21.8460 N   0  0  0  0  0  0  0  0  0  0  0  0
  -22.9900  -14.9210   20.4130 O   0  0  0  0  0  0  0  0  0  0  0  0
  -23.0080  -12.4060   22.2930 H   0  0  0  0  0  0  0  0  0  0  0  0
  -21.7500  -13.5920   22.0910 H   0  0  0  0  0  0  0  0  0  0  0  0
  -26.0880  -15.4170   20.0420 N   0  0  0  0  0  0  0  0  0  0  0  0
  -25.3600  -16.1110   20.1620 H   0  0  0  0  0  0  0  0  0  0  0  0
  -26.9560  -15.8060   19.6970 H   0  0  0  0  0  0  0  0  0  0  0  0
  -29.7090  -23.3270   20.3290 C   0  0  0  0  0  2  0  0  0  0  0  0
  -29.6780  -24.8120   20.7460 C   0  0  0  0  0  2  0  0  0  0  0  0
  -28.5530  -25.5810   20.0430 C   0  0  0  0  0  2  0  0  0  0  0  0
  -28.5840  -26.9600   20.3970 O   0  0  0  0  0  0  0  0  0  0  0  0
  -24.6980  -32.0720   23.4110 C   0  0  0  0  0  0  0  0  0  0  0  0
  -27.3900  -27.6500   20.3560 C   0  0  0  0  0  0  0  0  0  0  0  0
  -23.5110  -30.6570   21.7680 C   0  0  0  0  0  3  0  0  0  0  0  0
  -24.9810  -29.1290   20.3570 C   0  0  0  0  0  0  0  0  0  0  0  0
  -26.0340  -31.0350   21.5820 C   0  0  0  0  0  2  0  0  0  0  0  0
  -26.1300  -29.6630   20.9480 C   0  0  0  0  0  0  0  0  0  0  0  0
  -27.3360  -28.9300   20.9490 C   0  0  0  0  0  3  0  0  0  0  0  0
  -26.2200  -27.1320   19.7500 C   0  0  0  0  0  3  0  0  0  0  0  0
  -25.0180  -27.8590   19.7590 C   0  0  0  0  0  3  0  0  0  0  0  0
  -23.7320  -29.9790   20.3920 C   0  0  0  0  0  2  0  0  0  0  0  0
  -24.7660  -31.2690   22.3130 N   0  0  0  0  0  0  0  0  0  0  0  0
  -23.6130  -32.3390   23.9440 O   0  0  0  0  0  0  0  0  0  0  0  0
  -22.8620  -29.6330   22.7240 C   0  0  0  0  0  0  0  0  0  0  0  0
  -21.5450  -29.4220   22.5680 N   0  0  0  0  0  0  0  0  0  0  0  0
  -23.5390  -29.0300   23.5600 O   0  0  0  0  0  0  0  0  0  0  0  0
  -21.0600  -29.9600   21.8640 H   0  0  0  0  0  0  0  0  0  0  0  0
  -18.1860  -28.1610   22.9900 C   0  0  0  0  0  0  0  0  0  0  0  0
  -20.7280  -28.4820   23.3330 C   0  0  0  0  0  3  0  0  0  0  0  0
  -20.8810  -27.0450   22.7860 C   0  0  0  0  0  2  0  0  0  0  0  0
  -19.8180  -26.6780   21.7450 C   0  0  0  0  0  2  0  0  0  0  0  0
  -18.4130  -26.8030   22.3450 C   0  0  0  0  0  2  0  0  0  0  0  0
  -19.2750  -28.9570   23.4370 C   0  0  0  0  0  0  0  0  0  0  0  0
  -19.0110  -30.2250   23.9970 C   0  0  0  0  0  3  0  0  0  0  0  0
  -17.6930  -30.7030   24.1120 C   0  0  0  0  0  3  0  0  0  0  0  0
  -16.6180  -29.9070   23.6790 C   0  0  0  0  0  3  0  0  0  0  0  0
  -16.8660  -28.6370   23.1280 C   0  0  0  0  0  3  0  0  0  0  0  0
  -25.9790  -32.7100   24.0370 C   0  0  0  0  0  3  0  0  0  0  0  0
  -25.6760  -34.1180   24.3230 N   0  0  0  0  0  0  0  0  0  0  0  0
  -26.0380  -35.1460   23.5440 C   0  0  0  0  0  0  0  0  0  0  0  0
  -26.7380  -35.0090   22.5350 O   0  0  0  0  0  0  0  0  0  0  0  0
  -25.0610  -34.2990   25.1030 H   0  0  0  0  0  0  0  0  0  0  0  0
  -24.3330  -36.9350   23.0880 C   0  0  0  0  0  1  0  0  0  0  0  0
  -25.5490  -36.5490   23.9460 C   0  0  0  0  0  3  0  0  0  0  0  0
  -27.6660  -37.4380   24.8140 C   0  0  0  0  0  1  0  0  0  0  0  0
  -26.5930  -37.5910   23.8340 N   0  0  0  0  0  0  0  0  0  0  0  0
  -26.1910  -38.5180   23.9480 H   0  0  0  0  0  0  0  0  0  0  0  0
  -26.4710  -31.9660   25.3380 C   0  0  1  0  0  0  0  0  0  0  0  0
  -25.3560  -31.7420   26.3850 C   0  0  0  0  0  1  0  0  0  0  0  0
  -27.0650  -30.5840   24.9820 C   0  0  0  0  0  1  0  0  0  0  0  0
  -27.6080  -32.7750   26.0070 C   0  0  0  0  0  1  0  0  0  0  0  0
  1  3  1  0
  2  1  1  0
  5  4  1  0
  5  1  1  0
  5  6  1  0
  7 10  1  0
  8  7  1  0
  8 11  1  0
 10 12  1  0
 10  9  1  0
 11  6  1  0
 11  9  1  0
 13 12  1  0
 14 19  1  0
 15 16  1  0
 15 14  1  0
 17 16  1  0
 17 24  1  0
 17 18  1  0
 19 13  1  0
 19 18  1  0
 20 13  2  0
 21 22  2  0
 22 41  1  0
 23 22  1  0
 23 26  1  0
 24 21  1  0
 24 25  1  0
 25 23  2  0
 26 27  1  0
 27 28  2  0
 29 32  1  0
 29 28  1  0
 30 29  2  0
 31 30  1  0
 31 26  2  0
 32 33  1  0
 33 38  2  0
 33 34  1  0
 34 35  2  0
 35 36  1  0
 36 40  1  0
 37 36  2  0
 38 37  1  0
 39 38  1  0
 41 42  1  0
 42 45  1  0
 42 44  1  0
 43 41  2  0
 46 47  1  0
 46 21  1  0
 48 46  1  0
 49 50  1  0
 49  1  1  0
 51 52  1  0
 51 50  1  0
 53 64  2  0
 54 52  1  0
 54 59  1  0
 55 63  1  0
 55 65  1  0
 56 62  1  0
 56 58  1  0
 57 63  1  0
 58 59  2  0
 58 57  1  0
 60 61  1  0
 60 54  2  0
 61 56  2  0
 62 55  1  0
 63 53  1  0
 65 67  2  0
 66 65  1  0
 68 66  1  0
 69 78  2  0
 69 74  1  0
 70 66  1  0
 70 74  1  0
 71 70  1  0
 72 73  1  0
 72 71  1  0
 73 69  1  0
 74 75  2  0
 75 76  1  0
 77 76  2  0
 78 77  1  0
 79 53  1  0
 79 80  1  0
 79 89  1  0
 80 83  1  0
 81 85  1  0
 81 80  1  0
 82 81  2  0
 85 84  1  0
 87 85  1  0
 87 88  1  0
 87 86  1  0
 89 92  1  1
 89 90  1  0
 91 89  1  0
M  ISO  4  12 100  13 100  51 101  52 101
M  END
>  <TORSDO>  (14) 
F 23

>  <SCORE>  (14) 
-11.379

>  <name>  (14) 
14

>  <ligand_id>  (14) 
14

>  <original_smiles>  (14) 
[H]c1c([H])c([H])c2c(c1[H])C([H])([H])C([H])([H])C([H])([H])C2([H])N([H])C(=O)C1([H])N(C(=O)C([H])(N([H])C(=O)C([H])(N([H])C([H])([H])[H])C([H])([H])[H])C(C([H])([H])[H])(C([H])([H])[H])C([H])([H])[H])C([H])([H])c2c([H])c(OC([H])([H])C([H])([H])C([H])([H])[N+]([H])([H])C([H])(C([H])([H])[H])C([H])([H])C3([H])C([H])([H])C([H])([H])C([H])(C([H])([H])C(=O)N4C([H])([H])C([H])([H])C([H])([H])C([H])(n5nc(-c6c([H])c([H])c(Oc7c([H])c([H])c(F)c([H])c7F)c([H])c6[H])c(C(=O)N([H])[H])c5N([H])[H])C4([H])[H])C3([H])[H])c([H])c([H])c2C1([H])[H]

>  <smiles>  (14) 
[H]c1c([H])c([H])c2c(c1[H])C([H])([H])C([H])([H])C([H])([H])C2([H])N([H])C(=O)C1([H])N(C(=O)C([H])(N([H])C(=O)C([H])(N([H])C([H])([H])[H])C([H])([H])[H])C(C([H])([H])[H])(C([H])([H])[H])C([H])([H])[H])C([H])([H])c2c([H])c(OC([H])([H])C([H])([H])C([H])([H])[N+]([H])([H])C([H])(C([H])([H])[H])C([H])([H])C3([H])C([H])([H])C([H])([H])C([H])(C([H])([H])C(=O)N4C([H])([H])C([H])([H])C([H])([H])C([H])(n5nc(-c6c([H])c([H])c(Oc7c([H])c([H])c(F)c([H])c7F)c([H])c6[H])c(C(=O)N([H])[H])c5N([H])[H])C4([H])[H])C3([H])[H])c([H])c([H])c2C1([H])[H]

$$$$
15:0:0
     RDKit          3D

 90 98  0  0  1  0  0  0  0  0999 V2000
  -29.1460  -21.2090   20.3690 C   0  0  0  0  0  3  0  0  0  0  0  0
  -29.9330  -18.4660   19.5320 C   0  0  0  0  0  0  0  0  0  0  0  0
  -30.6000  -18.1120   18.2160 C   0  0  0  0  0  1  0  0  0  0  0  0
  -29.7130  -19.8750   19.5640 N   0  0  0  0  0  0  0  0  0  0  0  0
  -29.7720  -16.9110   20.3640 C   0  0  0  0  0  2  0  0  0  0  0  0
  -30.5710  -15.3680   20.0760 C   0  0  0  0  0  0  0  0  0  0  0  0
  -30.5300  -12.9100   19.2340 C   0  0  0  0  0  2  0  0  0  0  0  0
  -29.5690  -12.7260   18.0280 C   0  0  0  0  0  2  0  0  0  0  0  0
  -28.1310  -12.4660   18.5080 C   0  0  0  0  0  2  0  0  0  0  0  0
  -27.7220  -13.4280   19.6500 C   0  0  0  0  0  3  0  0  0  0  0  0
  -28.8030  -13.5710   20.7420 C   0  0  0  0  0  2  0  0  0  0  0  0
  -30.0300  -14.0500   20.0870 N   0  0  0  0  0  0  0  0  0  0  0  0
  -31.7660  -15.3610   19.7500 O   0  0  0  0  0  0  0  0  0  0  0  0
  -25.3860  -13.9890   20.5130 C   0  0  0  0  0  0  0  0  0  0  0  0
  -24.3330  -13.2110   20.9040 C   0  0  0  0  0  0  0  0  0  0  0  0
  -24.7850  -11.8570   20.8230 C   0  0  0  0  0  0  0  0  0  0  0  0
  -26.4110  -13.1110   20.2040 N   0  0  0  0  0  0  0  0  0  0  0  0
  -26.0630  -11.8210   20.4570 N   0  0  0  0  0  0  0  0  0  0  0  0
  -24.0540  -10.5960   21.0140 C   0  0  0  0  0  0  0  0  0  0  0  0
  -24.4890   -9.6210   21.9390 C   0  0  0  0  0  3  0  0  0  0  0  0
  -23.7540   -8.4280   22.1170 C   0  0  0  0  0  3  0  0  0  0  0  0
  -22.5710   -8.2020   21.3700 C   0  0  0  0  0  0  0  0  0  0  0  0
  -22.1570   -9.1680   20.4350 C   0  0  0  0  0  3  0  0  0  0  0  0
  -22.8920  -10.3520   20.2550 C   0  0  0  0  0  3  0  0  0  0  0  0
  -21.8090   -7.0630   21.4580 O   0  0  0  0  0  0  0  0  0  0  0  0
  -21.7320   -6.3350   22.6190 C   0  0  0  0  0  0  0  0  0  0  0  0
  -21.2930   -6.9120   23.8310 C   0  0  0  0  0  3  0  0  0  0  0  0
  -21.1640   -6.1120   24.9850 C   0  0  0  0  0  3  0  0  0  0  0  0
  -21.4640   -4.7370   24.9260 C   0  0  0  0  0  0  0  0  0  0  0  0
  -21.8980   -4.1610   23.7200 C   0  0  0  0  0  3  0  0  0  0  0  0
  -22.0280   -4.9580   22.5690 C   0  0  0  0  0  0  0  0  0  0  0  0
  -22.4270   -4.3930   21.4030 F   0  0  0  0  0  0  0  0  0  0  0  0
  -21.3310   -3.9680   26.0320 F   0  0  0  0  0  0  0  0  0  0  0  0
  -22.9530  -13.6920   21.2410 C   0  0  0  0  0  0  0  0  0  0  0  0
  -22.2660  -12.9930   22.1380 N   0  0  0  0  0  0  0  0  0  0  0  0
  -22.4980  -14.7210   20.7440 O   0  0  0  0  0  0  0  0  0  0  0  0
  -22.6560  -12.1630   22.5580 H   0  0  0  0  0  0  0  0  0  0  0  0
  -21.3410  -13.2930   22.4100 H   0  0  0  0  0  0  0  0  0  0  0  0
  -25.5540  -15.3630   20.3670 N   0  0  0  0  0  0  0  0  0  0  0  0
  -24.7910  -16.0110   20.5250 H   0  0  0  0  0  0  0  0  0  0  0  0
  -26.3880  -15.8090   20.0070 H   0  0  0  0  0  0  0  0  0  0  0  0
  -30.1310  -21.6020   21.5020 C   0  0  0  0  0  2  0  0  0  0  0  0
  -33.5110  -19.8830   21.4510 C   0  0  0  0  0  3  0  0  0  0  0  0
  -32.0890  -19.9080   21.5700 C   0  0  0  0  0  3  0  0  0  0  0  0
  -34.0470  -21.1140   21.1800 C   0  0  0  0  0  3  0  0  0  0  0  0
  -31.5590  -21.1630   21.3940 C   0  0  0  0  0  0  0  0  0  0  0  0
  -32.8100  -22.3290   21.0360 S   0  0  0  0  0  0  0  0  0  0  0  0
  -28.7480  -22.7800   19.5800 C   0  0  0  0  0  2  0  0  0  0  0  0
  -28.0380  -24.3290   20.1580 C   0  0  0  0  0  2  0  0  0  0  0  0
  -28.2060  -25.9240   19.7900 O   0  0  0  0  0  0  0  0  0  0  0  0
  -24.6360  -31.7440   23.0250 C   0  0  0  0  0  0  0  0  0  0  0  0
  -27.1660  -26.9890   19.8280 C   0  0  0  0  0  0  0  0  0  0  0  0
  -23.4130  -30.3790   21.3780 C   0  0  0  0  0  3  0  0  0  0  0  0
  -24.8420  -28.8260   19.8830 C   0  0  0  0  0  0  0  0  0  0  0  0
  -25.9710  -30.6290   21.1700 C   0  0  0  0  0  2  0  0  0  0  0  0
  -26.0410  -29.2370   20.4800 C   0  0  0  0  0  0  0  0  0  0  0  0
  -27.1990  -28.3410   20.4250 C   0  0  0  0  0  3  0  0  0  0  0  0
  -25.9340  -26.7250   19.1890 C   0  0  0  0  0  3  0  0  0  0  0  0
  -24.8110  -27.5880   19.2200 C   0  0  0  0  0  3  0  0  0  0  0  0
  -23.6130  -29.7290   19.9820 C   0  0  0  0  0  2  0  0  0  0  0  0
  -24.6960  -30.9420   21.9120 N   0  0  0  0  0  0  0  0  0  0  0  0
  -23.5590  -32.0080   23.5810 O   0  0  0  0  0  0  0  0  0  0  0  0
  -22.7550  -29.3510   22.3340 C   0  0  0  0  0  0  0  0  0  0  0  0
  -21.4300  -29.1470   22.2110 N   0  0  0  0  0  0  0  0  0  0  0  0
  -23.4420  -28.7350   23.1530 O   0  0  0  0  0  0  0  0  0  0  0  0
  -20.9240  -29.7010   21.5340 H   0  0  0  0  0  0  0  0  0  0  0  0
  -18.1030  -27.7730   22.6600 C   0  0  0  0  0  0  0  0  0  0  0  0
  -20.6390  -28.1730   22.9730 C   0  0  0  0  0  3  0  0  0  0  0  0
  -20.8250  -26.7440   22.4140 C   0  0  0  0  0  2  0  0  0  0  0  0
  -19.7640  -26.3560   21.3780 C   0  0  0  0  0  2  0  0  0  0  0  0
  -18.3630  -26.4320   21.9940 C   0  0  0  0  0  2  0  0  0  0  0  0
  -19.1710  -28.5970   23.1030 C   0  0  0  0  0  0  0  0  0  0  0  0
  -18.8720  -29.8470   23.6860 C   0  0  0  0  0  3  0  0  0  0  0  0
  -17.5390  -30.2760   23.8270 C   0  0  0  0  0  3  0  0  0  0  0  0
  -16.4850  -29.4500   23.3990 C   0  0  0  0  0  3  0  0  0  0  0  0
  -16.7690  -28.2000   22.8210 C   0  0  0  0  0  3  0  0  0  0  0  0
  -25.9180  -32.3810   23.6430 C   0  0  0  0  0  3  0  0  0  0  0  0
  -25.5970  -33.7660   24.0240 N   0  0  0  0  0  0  0  0  0  0  0  0
  -25.9360  -34.8570   23.3230 C   0  0  0  0  0  0  0  0  0  0  0  0
  -26.6190  -34.7990   22.2960 O   0  0  0  0  0  0  0  0  0  0  0  0
  -24.9920  -33.8840   24.8250 H   0  0  0  0  0  0  0  0  0  0  0  0
  -24.2180  -36.6740   23.0310 C   0  0  0  0  0  1  0  0  0  0  0  0
  -25.4460  -36.2240   23.8390 C   0  0  0  0  0  3  0  0  0  0  0  0
  -27.5710  -37.0670   24.7400 C   0  0  0  0  0  1  0  0  0  0  0  0
  -26.4820  -37.2800   23.7910 N   0  0  0  0  0  0  0  0  0  0  0  0
  -26.0750  -38.1930   23.9770 H   0  0  0  0  0  0  0  0  0  0  0  0
  -26.4650  -31.5860   24.8940 C   0  0  1  0  0  0  0  0  0  0  0  0
  -25.3970  -31.3220   25.9810 C   0  0  0  0  0  1  0  0  0  0  0  0
  -27.0470  -30.2200   24.4700 C   0  0  0  0  0  1  0  0  0  0  0  0
  -27.6250  -32.3740   25.5490 C   0  0  0  0  0  1  0  0  0  0  0  0
  1 48  1  0
  1 42  1  0
  2  4  2  0
  2  5  1  0
  3  2  1  0
  4  1  1  0
  6 12  1  0
  6  5  1  0
  7 12  1  0
  8  9  1  0
  8  7  1  0
 10  9  1  0
 10 17  1  0
 10 11  1  0
 12 11  1  0
 13  6  2  0
 14 15  2  0
 15 34  1  0
 16 15  1  0
 16 19  1  0
 17 18  1  0
 17 14  1  0
 18 16  2  0
 19 20  1  0
 20 21  2  0
 22 25  1  0
 22 21  1  0
 23 22  2  0
 24 23  1  0
 24 19  2  0
 25 26  1  0
 26 27  1  0
 27 28  2  0
 29 28  1  0
 29 33  1  0
 30 29  2  0
 31 26  2  0
 31 30  1  0
 32 31  1  0
 34 35  1  0
 35 38  1  0
 35 37  1  0
 36 34  2  0
 39 14  1  0
 39 40  1  0
 41 39  1  0
 43 44  1  0
 45 43  2  0
 46 42  1  0
 46 44  2  0
 47 45  1  0
 47 46  1  0
 48 49  1  0
 50 52  1  0
 50 49  1  0
 51 62  2  0
 52 57  1  0
 53 61  1  0
 53 63  1  0
 54 60  1  0
 54 56  1  0
 55 61  1  0
 56 55  1  0
 57 56  2  0
 58 59  1  0
 58 52  2  0
 59 54  2  0
 60 53  1  0
 61 51  1  0
 63 65  2  0
 64 63  1  0
 66 64  1  0
 67 76  2  0
 67 72  1  0
 68 64  1  0
 68 72  1  0
 69 68  1  0
 70 71  1  0
 70 69  1  0
 71 67  1  0
 72 73  2  0
 73 74  1  0
 75 74  2  0
 76 75  1  0
 77 51  1  0
 77 78  1  0
 77 87  1  0
 78 81  1  0
 79 83  1  0
 79 78  1  0
 80 79  2  0
 83 82  1  0
 85 83  1  0
 85 86  1  0
 85 84  1  0
 87 90  1  1
 87 88  1  0
 89 87  1  0
M  ISO  4   5 100   6 100  49 101  50 101
M  END
>  <TORSDO>  (15) 
F 22

>  <SCORE>  (15) 
-14.194

>  <name>  (15) 
15

>  <ligand_id>  (15) 
15

>  <original_smiles>  (15) 
[H]c1sc(C([H])([H])C([H])(N=C(C([H])([H])[H])C([H])([H])C(=O)N2C([H])([H])C([H])([H])C([H])([H])C([H])(n3nc(-c4c([H])c([H])c(Oc5c([H])c([H])c(F)c([H])c5F)c([H])c4[H])c(C(=O)N([H])[H])c3N([H])[H])C2([H])[H])C([H])([H])C([H])([H])Oc2c([H])c([H])c3c(c2[H])C([H])([H])N(C(=O)C([H])(N([H])C(=O)C([H])(N([H])C([H])([H])[H])C([H])([H])[H])C(C([H])([H])[H])(C([H])([H])[H])C([H])([H])[H])C([H])(C(=O)N([H])C2([H])c4c([H])c([H])c([H])c([H])c4C([H])([H])C([H])([H])C2([H])[H])C3([H])[H])c([H])c1[H]

>  <smiles>  (15) 
[H]c1sc(C([H])([H])C([H])(N=C(C([H])([H])[H])C([H])([H])C(=O)N2C([H])([H])C([H])([H])C([H])([H])C([H])(n3nc(-c4c([H])c([H])c(Oc5c([H])c([H])c(F)c([H])c5F)c([H])c4[H])c(C(=O)N([H])[H])c3N([H])[H])C2([H])[H])C([H])([H])C([H])([H])Oc2c([H])c([H])c3c(c2[H])C([H])([H])N(C(=O)C([H])(N([H])C(=O)C([H])(N([H])C([H])([H])[H])C([H])([H])[H])C(C([H])([H])[H])(C([H])([H])[H])C([H])([H])[H])C([H])(C(=O)N([H])C2([H])c4c([H])c([H])c([H])c([H])c4C([H])([H])C([H])([H])C2([H])[H])C3([H])[H])c([H])c1[H]

$$$$
16:0:0
     RDKit          3D

 95104  0  0  1  0  0  0  0  0999 V2000
  -28.9560  -19.7850   20.2730 C   0  0  0  0  0  3  0  0  0  0  0  0
  -33.6570  -18.8570   20.6500 C   0  0  0  0  0  2  0  0  0  0  0  0
  -33.2200  -17.4220   20.4090 C   0  0  0  0  0  2  0  0  0  0  0  0
  -31.1910  -19.3470   21.5660 C   0  0  0  0  0  2  0  0  0  0  0  0
  -32.1980  -19.2730   20.4350 C   0  0  0  0  0  3  0  0  0  0  0  0
  -31.9280  -17.9410   19.7390 C   0  0  0  0  0  3  0  0  0  0  0  0
  -29.9220  -18.6830   20.9780 C   0  0  0  0  0  3  0  0  0  0  0  0
  -30.5060  -17.4460   20.1090 C   0  0  0  0  0  3  0  0  0  0  0  0
  -30.4160  -15.9590   20.7650 C   0  0  0  0  0  2  0  0  0  0  0  0
  -30.9910  -14.6380   20.0590 C   0  0  0  0  0  0  0  0  0  0  0  0
  -30.6910  -12.3630   19.0630 C   0  0  0  0  0  2  0  0  0  0  0  0
  -29.6970  -12.4450   17.8870 C   0  0  0  0  0  2  0  0  0  0  0  0
  -28.2480  -12.3010   18.3910 C   0  0  0  0  0  2  0  0  0  0  0  0
  -27.9520  -13.2080   19.6150 C   0  0  0  0  0  3  0  0  0  0  0  0
  -29.0600  -13.1080   20.6840 C   0  0  0  0  0  2  0  0  0  0  0  0
  -30.3380  -13.4250   20.0340 N   0  0  0  0  0  0  0  0  0  0  0  0
  -32.0740  -14.7180   19.4750 O   0  0  0  0  0  0  0  0  0  0  0  0
  -25.6320  -13.8410   20.5200 C   0  0  0  0  0  0  0  0  0  0  0  0
  -24.5680  -13.0870   20.9250 C   0  0  0  0  0  0  0  0  0  0  0  0
  -24.9790  -11.7230   20.8000 C   0  0  0  0  0  0  0  0  0  0  0  0
  -26.6290  -12.9430   20.1740 N   0  0  0  0  0  0  0  0  0  0  0  0
  -26.2440  -11.6600   20.4010 N   0  0  0  0  0  0  0  0  0  0  0  0
  -24.2210  -10.4760   20.9830 C   0  0  0  0  0  0  0  0  0  0  0  0
  -24.6450   -9.4770   21.8860 C   0  0  0  0  0  3  0  0  0  0  0  0
  -23.8870   -8.2990   22.0570 C   0  0  0  0  0  3  0  0  0  0  0  0
  -22.6920   -8.1100   21.3240 C   0  0  0  0  0  0  0  0  0  0  0  0
  -22.2880   -9.0960   20.4080 C   0  0  0  0  0  3  0  0  0  0  0  0
  -23.0450  -10.2670   20.2350 C   0  0  0  0  0  3  0  0  0  0  0  0
  -21.9080   -6.9850   21.4050 O   0  0  0  0  0  0  0  0  0  0  0  0
  -21.8090   -6.2570   22.5640 C   0  0  0  0  0  0  0  0  0  0  0  0
  -21.3600   -6.8380   23.7710 C   0  0  0  0  0  3  0  0  0  0  0  0
  -21.2060   -6.0390   24.9220 C   0  0  0  0  0  3  0  0  0  0  0  0
  -21.4930   -4.6600   24.8680 C   0  0  0  0  0  0  0  0  0  0  0  0
  -21.9340   -4.0810   23.6640 C   0  0  0  0  0  3  0  0  0  0  0  0
  -22.0880   -4.8770   22.5170 C   0  0  0  0  0  0  0  0  0  0  0  0
  -22.4940   -4.3080   21.3550 F   0  0  0  0  0  0  0  0  0  0  0  0
  -21.3390   -3.8920   25.9700 F   0  0  0  0  0  0  0  0  0  0  0  0
  -23.2080  -13.5940   21.3170 C   0  0  0  0  0  0  0  0  0  0  0  0
  -22.5240  -12.8900   22.2110 N   0  0  0  0  0  0  0  0  0  0  0  0
  -22.7690  -14.6500   20.8640 O   0  0  0  0  0  0  0  0  0  0  0  0
  -22.8950  -12.0330   22.5960 H   0  0  0  0  0  0  0  0  0  0  0  0
  -21.6160  -13.2110   22.5150 H   0  0  0  0  0  0  0  0  0  0  0  0
  -25.8350  -15.2150   20.3940 N   0  0  0  0  0  0  0  0  0  0  0  0
  -25.1020  -15.8850   20.5930 H   0  0  0  0  0  0  0  0  0  0  0  0
  -26.6800  -15.6410   20.0400 H   0  0  0  0  0  0  0  0  0  0  0  0
  -29.0970  -21.2220   20.7860 N   0  0  0  0  0  4  0  0  0  0  0  0
  -28.5610  -21.3030   21.6320 H   0  0  0  0  0  0  0  0  0  0  0  0
  -30.0630  -21.3530   21.0440 H   0  0  0  0  0  0  0  0  0  0  0  0
  -28.7030  -22.3970   19.9090 C   0  0  0  0  0  2  0  0  0  0  0  0
  -28.6750  -23.8490   20.5830 C   0  0  0  0  0  3  0  0  0  0  0  0
  -28.0960  -25.0300   19.7020 C   0  0  0  0  0  3  0  0  0  0  0  0
  -28.2400  -26.4330   20.1510 O   0  0  0  0  0  0  0  0  0  0  0  0
  -24.6570  -31.8970   23.1680 C   0  0  0  0  0  0  0  0  0  0  0  0
  -27.1350  -27.2970   20.0820 C   0  0  0  0  0  0  0  0  0  0  0  0
  -23.3980  -30.4930   21.5670 C   0  0  0  0  0  3  0  0  0  0  0  0
  -24.7990  -28.9370   20.1140 C   0  0  0  0  0  0  0  0  0  0  0  0
  -25.9330  -30.7940   21.3250 C   0  0  0  0  0  2  0  0  0  0  0  0
  -25.9850  -29.4120   20.6870 C   0  0  0  0  0  0  0  0  0  0  0  0
  -27.1510  -28.5950   20.6760 C   0  0  0  0  0  3  0  0  0  0  0  0
  -25.9290  -26.8950   19.4550 C   0  0  0  0  0  3  0  0  0  0  0  0
  -24.7710  -27.6840   19.4910 C   0  0  0  0  0  3  0  0  0  0  0  0
  -23.5820  -29.8230   20.1820 C   0  0  0  0  0  2  0  0  0  0  0  0
  -24.6830  -31.0770   22.0770 N   0  0  0  0  0  0  0  0  0  0  0  0
  -23.5950  -32.1910   23.7330 O   0  0  0  0  0  0  0  0  0  0  0  0
  -22.7620  -29.4790   22.5520 C   0  0  0  0  0  0  0  0  0  0  0  0
  -21.4380  -29.2810   22.4380 N   0  0  0  0  0  0  0  0  0  0  0  0
  -23.4520  -28.8790   23.3800 O   0  0  0  0  0  0  0  0  0  0  0  0
  -20.9390  -29.8280   21.7510 H   0  0  0  0  0  0  0  0  0  0  0  0
  -18.0830  -28.0320   22.9550 C   0  0  0  0  0  0  0  0  0  0  0  0
  -20.6340  -28.3510   23.2340 C   0  0  0  0  0  3  0  0  0  0  0  0
  -20.7680  -26.9030   22.7060 C   0  0  0  0  0  2  0  0  0  0  0  0
  -19.6790  -26.5230   21.6980 C   0  0  0  0  0  2  0  0  0  0  0  0
  -18.2900  -26.6620   22.3290 C   0  0  0  0  0  2  0  0  0  0  0  0
  -19.1840  -28.8290   23.3660 C   0  0  0  0  0  0  0  0  0  0  0  0
  -18.9350  -30.1050   23.9130 C   0  0  0  0  0  3  0  0  0  0  0  0
  -17.6220  -30.5880   24.0550 C   0  0  0  0  0  3  0  0  0  0  0  0
  -16.5350  -29.7870   23.6640 C   0  0  0  0  0  3  0  0  0  0  0  0
  -16.7640  -28.5110   23.1150 C   0  0  0  0  0  3  0  0  0  0  0  0
  -25.9680  -32.5210   23.7420 C   0  0  0  0  0  3  0  0  0  0  0  0
  -25.6640  -33.8980   24.1520 N   0  0  0  0  0  0  0  0  0  0  0  0
  -25.9180  -34.9860   23.4150 C   0  0  0  0  0  0  0  0  0  0  0  0
  -26.5110  -34.9380   22.3330 O   0  0  0  0  0  0  0  0  0  0  0  0
  -25.1420  -34.0100   25.0090 H   0  0  0  0  0  0  0  0  0  0  0  0
  -24.1320  -36.7480   23.2730 C   0  0  0  0  0  1  0  0  0  0  0  0
  -25.4410  -36.3420   23.9670 C   0  0  0  0  0  3  0  0  0  0  0  0
  -27.6150  -37.2440   24.6660 C   0  0  0  0  0  1  0  0  0  0  0  0
  -26.4400  -37.4210   23.8180 N   0  0  0  0  0  0  0  0  0  0  0  0
  -26.0280  -38.3250   24.0360 H   0  0  0  0  0  0  0  0  0  0  0  0
  -26.5740  -31.6990   24.9460 C   0  0  1  0  0  0  0  0  0  0  0  0
  -25.5360  -31.3620   26.0440 C   0  0  0  0  0  1  0  0  0  0  0  0
  -27.1920  -30.3700   24.4490 C   0  0  0  0  0  1  0  0  0  0  0  0
  -27.7270  -32.5000   25.5980 C   0  0  0  0  0  1  0  0  0  0  0  0
  -27.4450  -19.3740   20.3900 C   0  0  0  0  0  2  0  0  0  0  0  0
  -25.4680  -18.1500   19.2890 C   0  0  0  0  0  1  0  0  0  0  0  0
  -26.9740  -18.1220   19.6130 C   0  0  0  0  0  2  0  0  0  0  0  0
  1 93  1  0
  1 46  1  0
  3  2  1  0
  5  2  1  0
  5  4  1  0
  6  8  1  0
  6  3  1  0
  6  5  1  0
  7  1  1  0
  7  4  1  0
  8  9  1  0
  8  7  1  0
 10  9  1  0
 11 16  1  0
 12 13  1  0
 12 11  1  0
 14 13  1  0
 14 21  1  0
 14 15  1  0
 16 10  1  0
 16 15  1  0
 17 10  2  0
 18 19  2  0
 19 38  1  0
 20 19  1  0
 20 23  1  0
 21 22  1  0
 21 18  1  0
 22 20  2  0
 23 24  1  0
 24 25  2  0
 26 29  1  0
 26 25  1  0
 27 26  2  0
 28 27  1  0
 28 23  2  0
 29 30  1  0
 30 31  1  0
 31 32  2  0
 33 32  1  0
 33 37  1  0
 34 33  2  0
 35 30  2  0
 35 34  1  0
 36 35  1  0
 38 39  1  0
 39 42  1  0
 39 41  1  0
 40 38  2  0
 43 18  1  0
 43 44  1  0
 45 43  1  0
 46 48  1  0
 46 47  1  0
 49 50  1  0
 49 46  1  0
 51 52  1  0
 51 50  2  0
 53 64  2  0
 54 52  1  0
 54 59  1  0
 55 63  1  0
 55 65  1  0
 56 62  1  0
 56 58  1  0
 57 63  1  0
 58 57  1  0
 59 58  2  0
 60 61  1  0
 60 54  2  0
 61 56  2  0
 62 55  1  0
 63 53  1  0
 65 67  2  0
 66 65  1  0
 68 66  1  0
 69 78  2  0
 69 74  1  0
 70 66  1  0
 70 74  1  0
 71 70  1  0
 72 73  1  0
 72 71  1  0
 73 69  1  0
 74 75  2  0
 75 76  1  0
 77 76  2  0
 78 77  1  0
 79 53  1  0
 79 80  1  0
 79 89  1  0
 80 83  1  0
 81 85  1  0
 81 80  1  0
 82 81  2  0
 85 84  1  0
 87 85  1  0
 87 88  1  0
 87 86  1  0
 89 92  1  1
 89 90  1  0
 91 89  1  0
 94 95  1  0
 95 93  1  0
M  ISO  4   9 100  10 100  51 101  52 101
M  END
>  <TORSDO>  (16) 
F 24

>  <SCORE>  (16) 
-11.452

>  <name>  (16) 
16

>  <ligand_id>  (16) 
16

>  <original_smiles>  (16) 
[H]c1c([H])c([H])c2c(c1[H])C([H])([H])C([H])([H])C([H])([H])C2([H])N([H])C(=O)C1([H])N(C(=O)C([H])(N([H])C(=O)C([H])(N([H])C([H])([H])[H])C([H])([H])[H])C(C([H])([H])[H])(C([H])([H])[H])C([H])([H])[H])C([H])([H])c2c([H])c(OC([H])([H])C([H])([H])C([H])([H])[N+]([H])([H])C([H])(C([H])([H])C([H])([H])C([H])([H])[H])C3([H])C([H])([H])C4([H])C([H])([H])C([H])([H])C4([H])C3([H])C([H])([H])C(=O)N3C([H])([H])C([H])([H])C([H])([H])C([H])(n4nc(-c5c([H])c([H])c(Oc6c([H])c([H])c(F)c([H])c6F)c([H])c5[H])c(C(=O)N([H])[H])c4N([H])[H])C3([H])[H])c([H])c([H])c2C1([H])[H]

>  <smiles>  (16) 
[H]c1c([H])c([H])c2c(c1[H])C([H])([H])C([H])([H])C([H])([H])C2([H])N([H])C(=O)C1([H])N(C(=O)C([H])(N([H])C(=O)C([H])(N([H])C([H])([H])[H])C([H])([H])[H])C(C([H])([H])[H])(C([H])([H])[H])C([H])([H])[H])C([H])([H])c2c([H])c(OC([H])([H])C([H])([H])C([H])([H])[N+]([H])([H])C([H])(C([H])([H])C([H])([H])C([H])([H])[H])C3([H])C([H])([H])C4([H])C([H])([H])C([H])([H])C4([H])C3([H])C([H])([H])C(=O)N3C([H])([H])C([H])([H])C([H])([H])C([H])(n4nc(-c5c([H])c([H])c(Oc6c([H])c([H])c(F)c([H])c6F)c([H])c5[H])c(C(=O)N([H])[H])c4N([H])[H])C3([H])[H])c([H])c([H])c2C1([H])[H]

$$$$
17:0:0
     RDKit          3D

 96105  0  0  1  0  0  0  0  0999 V2000
  -31.1420  -21.6500   20.0580 C   0  0  0  0  0  3  0  0  0  0  0  0
  -31.0470  -20.4090   19.3680 C   0  0  0  0  0  3  0  0  0  0  0  0
  -28.5780  -20.2150   19.7050 C   0  0  0  0  0  3  0  0  0  0  0  0
  -29.9290  -22.1200   20.5640 C   0  0  0  0  0  0  0  0  0  0  0  0
  -28.6980  -21.4220   20.4000 C   0  0  0  0  0  0  0  0  0  0  0  0
  -29.8070  -19.7030   19.1900 C   0  0  0  0  0  0  0  0  0  0  0  0
  -27.9180  -22.4620   21.1600 C   0  0  0  0  0  2  0  0  0  0  0  0
  -29.3080  -23.2610   21.3440 C   0  0  1  0  0  0  0  0  0  0  0  0
  -29.9100  -23.3430   22.7520 C   0  0  0  0  0  1  0  0  0  0  0  0
  -29.4550  -24.6040   20.6100 C   0  0  0  0  0  2  0  0  0  0  0  0
  -28.4280  -25.6530   21.0650 C   0  0  0  0  0  2  0  0  0  0  0  0
  -28.4820  -26.8080   20.2320 O   0  0  0  0  0  0  0  0  0  0  0  0
  -24.6100  -31.9220   23.2950 C   0  0  0  0  0  0  0  0  0  0  0  0
  -27.3100  -27.5220   20.2330 C   0  0  0  0  0  0  0  0  0  0  0  0
  -23.4210  -30.5030   21.6530 C   0  0  0  0  0  3  0  0  0  0  0  0
  -24.8950  -28.9720   20.2410 C   0  0  0  0  0  0  0  0  0  0  0  0
  -25.9430  -30.8880   21.4640 C   0  0  0  0  0  2  0  0  0  0  0  0
  -26.0430  -29.5190   20.8290 C   0  0  0  0  0  0  0  0  0  0  0  0
  -27.2570  -28.8000   20.8200 C   0  0  0  0  0  3  0  0  0  0  0  0
  -26.1510  -26.9790   19.6400 C   0  0  0  0  0  3  0  0  0  0  0  0
  -24.9410  -27.6980   19.6460 C   0  0  0  0  0  3  0  0  0  0  0  0
  -23.6400  -29.8120   20.2790 C   0  0  0  0  0  2  0  0  0  0  0  0
  -24.6760  -31.1190   22.1960 N   0  0  0  0  0  0  0  0  0  0  0  0
  -23.5230  -32.1900   23.8270 O   0  0  0  0  0  0  0  0  0  0  0  0
  -22.7730  -29.4830   22.6160 C   0  0  0  0  0  0  0  0  0  0  0  0
  -21.4530  -29.2850   22.4720 N   0  0  0  0  0  0  0  0  0  0  0  0
  -23.4550  -28.8720   23.4440 O   0  0  0  0  0  0  0  0  0  0  0  0
  -20.9650  -29.8320   21.7770 H   0  0  0  0  0  0  0  0  0  0  0  0
  -18.0870  -28.0560   22.9290 C   0  0  0  0  0  0  0  0  0  0  0  0
  -20.6370  -28.3420   23.2350 C   0  0  0  0  0  3  0  0  0  0  0  0
  -20.7640  -26.9100   22.6660 C   0  0  0  0  0  2  0  0  0  0  0  0
  -19.6780  -26.5670   21.6420 C   0  0  0  0  0  2  0  0  0  0  0  0
  -18.2860  -26.7050   22.2660 C   0  0  0  0  0  2  0  0  0  0  0  0
  -19.1920  -28.8340   23.3680 C   0  0  0  0  0  0  0  0  0  0  0  0
  -18.9520  -30.1020   23.9410 C   0  0  0  0  0  3  0  0  0  0  0  0
  -17.6390  -30.5900   24.0850 C   0  0  0  0  0  3  0  0  0  0  0  0
  -16.5490  -29.8080   23.6670 C   0  0  0  0  0  3  0  0  0  0  0  0
  -16.7740  -28.5440   23.0940 C   0  0  0  0  0  3  0  0  0  0  0  0
  -25.8890  -32.5630   23.9200 C   0  0  0  0  0  3  0  0  0  0  0  0
  -25.5770  -33.9640   24.2290 N   0  0  0  0  0  0  0  0  0  0  0  0
  -25.9190  -35.0050   23.4590 C   0  0  0  0  0  0  0  0  0  0  0  0
  -26.5990  -34.8900   22.4370 O   0  0  0  0  0  0  0  0  0  0  0  0
  -24.9780  -34.1310   25.0240 H   0  0  0  0  0  0  0  0  0  0  0  0
  -24.1900  -36.7900   23.0570 C   0  0  0  0  0  1  0  0  0  0  0  0
  -25.4220  -36.4000   23.8900 C   0  0  0  0  0  3  0  0  0  0  0  0
  -27.5440  -37.2960   24.7400 C   0  0  0  0  0  1  0  0  0  0  0  0
  -26.4550  -37.4520   23.7780 N   0  0  0  0  0  0  0  0  0  0  0  0
  -26.0470  -38.3740   23.9100 H   0  0  0  0  0  0  0  0  0  0  0  0
  -26.3990  -31.8070   25.2080 C   0  0  1  0  0  0  0  0  0  0  0  0
  -25.2980  -31.5680   26.2690 C   0  0  0  0  0  1  0  0  0  0  0  0
  -26.9970  -30.4320   24.8320 C   0  0  0  0  0  1  0  0  0  0  0  0
  -27.5360  -32.6150   25.8750 C   0  0  0  0  0  1  0  0  0  0  0  0
  -29.8220  -18.3720   18.4330 C   0  0  0  0  0  3  0  0  0  0  0  0
  -29.4500  -17.2280   19.2960 N   0  0  0  0  0  4  0  0  0  0  0  0
  -28.4830  -17.3270   19.5540 H   0  0  0  0  0  0  0  0  0  0  0  0
  -29.5400  -16.4150   18.7110 H   0  0  0  0  0  0  0  0  0  0  0  0
  -30.2710  -17.0300   20.5200 C   0  0  0  0  0  2  0  0  0  0  0  0
  -30.0510  -15.6430   21.1840 C   0  0  0  0  0  2  0  0  0  0  0  0
  -30.6700  -14.4730   20.3880 C   0  0  0  0  0  0  0  0  0  0  0  0
  -30.3330  -12.3750   19.1320 C   0  0  0  0  0  2  0  0  0  0  0  0
  -29.3680  -12.6530   17.9620 C   0  0  0  0  0  2  0  0  0  0  0  0
  -27.8990  -12.5090   18.4130 C   0  0  0  0  0  2  0  0  0  0  0  0
  -27.5970  -13.2820   19.7270 C   0  0  0  0  0  3  0  0  0  0  0  0
  -28.6770  -12.9830   20.7930 C   0  0  0  0  0  2  0  0  0  0  0  0
  -29.9910  -13.3080   20.2150 N   0  0  0  0  0  0  0  0  0  0  0  0
  -31.7490  -14.6880   19.8270 O   0  0  0  0  0  0  0  0  0  0  0  0
  -25.1970  -13.8750   20.4500 C   0  0  0  0  0  0  0  0  0  0  0  0
  -24.1410  -13.0950   20.8370 C   0  0  0  0  0  0  0  0  0  0  0  0
  -24.6140  -11.7480   20.8030 C   0  0  0  0  0  0  0  0  0  0  0  0
  -26.2500  -13.0020   20.2180 N   0  0  0  0  0  0  0  0  0  0  0  0
  -25.9020  -11.7180   20.4850 N   0  0  0  0  0  0  0  0  0  0  0  0
  -23.9010  -10.4810   21.0030 C   0  0  0  0  0  0  0  0  0  0  0  0
  -24.3570   -9.5170   21.9300 C   0  0  0  0  0  3  0  0  0  0  0  0
  -23.6440   -8.3150   22.1200 C   0  0  0  0  0  3  0  0  0  0  0  0
  -22.4610   -8.0680   21.3830 C   0  0  0  0  0  0  0  0  0  0  0  0
  -22.0260   -9.0210   20.4450 C   0  0  0  0  0  3  0  0  0  0  0  0
  -22.7390  -10.2150   20.2530 C   0  0  0  0  0  3  0  0  0  0  0  0
  -21.7160   -6.9170   21.4830 O   0  0  0  0  0  0  0  0  0  0  0  0
  -21.6990   -6.1710   22.6340 C   0  0  0  0  0  0  0  0  0  0  0  0
  -21.2990   -6.7180   23.8730 C   0  0  0  0  0  3  0  0  0  0  0  0
  -21.2290   -5.8960   25.0150 C   0  0  0  0  0  3  0  0  0  0  0  0
  -21.5490   -4.5280   24.9230 C   0  0  0  0  0  0  0  0  0  0  0  0
  -21.9430   -3.9810   23.6890 C   0  0  0  0  0  3  0  0  0  0  0  0
  -22.0150   -4.8000   22.5480 C   0  0  0  0  0  0  0  0  0  0  0  0
  -22.3750   -4.2630   21.3580 F   0  0  0  0  0  0  0  0  0  0  0  0
  -21.4760   -3.7370   26.0180 F   0  0  0  0  0  0  0  0  0  0  0  0
  -22.7460  -13.5630   21.1320 C   0  0  0  0  0  0  0  0  0  0  0  0
  -22.0370  -12.8590   22.0090 N   0  0  0  0  0  0  0  0  0  0  0  0
  -22.2920  -14.5860   20.6220 O   0  0  0  0  0  0  0  0  0  0  0  0
  -22.4170  -12.0320   22.4440 H   0  0  0  0  0  0  0  0  0  0  0  0
  -21.1040  -13.1570   22.2520 H   0  0  0  0  0  0  0  0  0  0  0  0
  -25.3410  -15.2470   20.2620 N   0  0  0  0  0  0  0  0  0  0  0  0
  -24.5570  -15.8850   20.3470 H   0  0  0  0  0  0  0  0  0  0  0  0
  -26.1730  -15.6910   19.9030 H   0  0  0  0  0  0  0  0  0  0  0  0
  -29.3640  -19.4620   16.1340 C   0  0  0  0  0  1  0  0  0  0  0  0
  -28.9470  -18.3930   17.1580 C   0  0  0  0  0  2  0  0  0  0  0  0
  1  4  1  0
  2  1  2  0
  3  5  1  0
  4  8  1  0
  5  4  2  0
  5  7  1  0
  6  2  1  0
  6  3  2  0
  7  8  1  0
  8  9  1  1
 10 11  1  0
 10  8  1  0
 12 14  1  0
 12 11  1  0
 13 24  2  0
 14 19  1  0
 15 23  1  0
 15 25  1  0
 16 22  1  0
 16 18  1  0
 17 23  1  0
 18 17  1  0
 19 18  2  0
 20 21  1  0
 20 14  2  0
 21 16  2  0
 22 15  1  0
 23 13  1  0
 25 27  2  0
 26 25  1  0
 28 26  1  0
 29 38  2  0
 29 34  1  0
 30 26  1  0
 30 34  1  0
 31 30  1  0
 32 33  1  0
 32 31  1  0
 33 29  1  0
 34 35  2  0
 35 36  1  0
 37 36  2  0
 38 37  1  0
 39 13  1  0
 39 40  1  0
 39 49  1  0
 40 43  1  0
 41 45  1  0
 41 40  1  0
 42 41  2  0
 45 44  1  0
 47 45  1  0
 47 48  1  0
 47 46  1  0
 49 52  1  1
 49 50  1  0
 51 49  1  0
 53 96  1  0
 53  6  1  0
 53 54  1  0
 54 55  1  0
 54 57  1  0
 56 54  1  0
 57 58  1  0
 59 58  1  0
 60 65  1  0
 61 62  1  0
 61 60  1  0
 63 62  1  0
 63 70  1  0
 63 64  1  0
 65 59  1  0
 65 64  1  0
 66 59  2  0
 67 68  2  0
 68 87  1  0
 69 68  1  0
 69 72  1  0
 70 67  1  0
 70 71  1  0
 71 69  2  0
 72 73  1  0
 73 74  2  0
 75 78  1  0
 75 74  1  0
 76 75  2  0
 77 76  1  0
 77 72  2  0
 78 79  1  0
 79 80  1  0
 80 81  2  0
 82 81  1  0
 82 86  1  0
 83 82  2  0
 84 79  2  0
 84 83  1  0
 85 84  1  0
 87 88  1  0
 88 91  1  0
 88 90  1  0
 89 87  2  0
 92 93  1  0
 92 67  1  0
 94 92  1  0
 95 96  1  0
M  ISO  4  11 101  12 101  58 100  59 100
M  END
>  <TORSDO>  (17) 
F 23

>  <SCORE>  (17) 
-13.253

>  <name>  (17) 
17

>  <ligand_id>  (17) 
17

>  <original_smiles>  (17) 
[H]c1c([H])c([H])c2c(c1[H])C([H])([H])C([H])([H])C([H])([H])C2([H])N([H])C(=O)C1([H])N(C(=O)C([H])(N([H])C(=O)C([H])(N([H])C([H])([H])[H])C([H])([H])[H])C(C([H])([H])[H])(C([H])([H])[H])C([H])([H])[H])C([H])([H])c2c([H])c(OC([H])([H])C([H])([H])C3(C([H])([H])[H])c4c([H])c([H])c(C([H])(C([H])([H])C([H])([H])[H])[N+]([H])([H])C([H])([H])C([H])([H])C(=O)N5C([H])([H])C([H])([H])C([H])([H])C([H])(n6nc(-c7c([H])c([H])c(Oc8c([H])c([H])c(F)c([H])c8F)c([H])c7[H])c(C(=O)N([H])[H])c6N([H])[H])C5([H])[H])c([H])c4C3([H])[H])c([H])c([H])c2C1([H])[H]

>  <smiles>  (17) 
[H]c1c([H])c([H])c2c(c1[H])C([H])([H])C([H])([H])C([H])([H])C2([H])N([H])C(=O)C1([H])N(C(=O)C([H])(N([H])C(=O)C([H])(N([H])C([H])([H])[H])C([H])([H])[H])C(C([H])([H])[H])(C([H])([H])[H])C([H])([H])[H])C([H])([H])c2c([H])c(OC([H])([H])C([H])([H])C3(C([H])([H])[H])c4c([H])c([H])c(C([H])(C([H])([H])C([H])([H])[H])[N+]([H])([H])C([H])([H])C([H])([H])C(=O)N5C([H])([H])C([H])([H])C([H])([H])C([H])(n6nc(-c7c([H])c([H])c(Oc8c([H])c([H])c(F)c([H])c8F)c([H])c7[H])c(C(=O)N([H])[H])c6N([H])[H])C5([H])[H])c([H])c4C3([H])[H])c([H])c([H])c2C1([H])[H]

$$$$
18:0:0
     RDKit          3D

 98106  0  0  1  0  0  0  0  0999 V2000
  -27.5080  -20.4240   20.2330 C   0  0  0  0  0  2  0  0  0  0  0  0
  -26.6730  -22.7680   19.7590 C   0  0  0  0  0  2  0  0  0  0  0  0
  -28.8150  -22.4310   21.0540 C   0  0  0  0  0  2  0  0  0  0  0  0
  -26.7430  -21.3190   19.2360 C   0  0  0  0  0  3  0  0  0  0  0  0
  -28.9180  -20.9810   20.5420 C   0  0  0  0  0  3  0  0  0  0  0  0
  -28.0820  -23.3250   20.0340 C   0  0  0  0  0  3  0  0  0  0  0  0
  -25.3440  -20.7590   18.9310 C   0  0  0  0  0  1  0  0  0  0  0  0
  -28.0240  -24.7350   20.4750 N   0  0  0  0  0  4  0  0  0  0  0  0
  -27.5470  -24.8160   21.3600 H   0  0  0  0  0  0  0  0  0  0  0  0
  -27.4780  -25.2380   19.7900 H   0  0  0  0  0  0  0  0  0  0  0  0
  -29.3290  -25.4390   20.5160 C   0  0  0  0  0  2  0  0  0  0  0  0
  -29.1090  -26.9500   20.4060 C   0  0  0  0  0  2  0  0  0  0  0  0
  -28.3210  -27.1600   19.2290 O   0  0  0  0  0  0  0  0  0  0  0  0
  -24.6430  -31.7630   23.2150 C   0  0  0  0  0  0  0  0  0  0  0  0
  -27.1650  -27.8760   19.4150 C   0  0  0  0  0  0  0  0  0  0  0  0
  -23.3570  -30.5740   21.4650 C   0  0  0  0  0  3  0  0  0  0  0  0
  -24.7440  -29.2750   19.7640 C   0  0  0  0  0  0  0  0  0  0  0  0
  -25.8540  -31.0200   21.1750 C   0  0  0  0  0  2  0  0  0  0  0  0
  -25.9200  -29.7510   20.3560 C   0  0  0  0  0  0  0  0  0  0  0  0
  -27.1320  -29.0560   20.1880 C   0  0  0  0  0  3  0  0  0  0  0  0
  -25.9820  -27.4160   18.8030 C   0  0  0  0  0  3  0  0  0  0  0  0
  -24.7670  -28.1040   18.9870 C   0  0  0  0  0  3  0  0  0  0  0  0
  -23.4900  -30.0850   19.9970 C   0  0  0  0  0  2  0  0  0  0  0  0
  -24.6400  -31.1250   22.0120 N   0  0  0  0  0  0  0  0  0  0  0  0
  -23.5920  -31.9400   23.8490 O   0  0  0  0  0  0  0  0  0  0  0  0
  -22.7760  -29.4210   22.3120 C   0  0  0  0  0  0  0  0  0  0  0  0
  -21.4550  -29.2020   22.1970 N   0  0  0  0  0  0  0  0  0  0  0  0
  -23.5080  -28.7280   23.0250 O   0  0  0  0  0  0  0  0  0  0  0  0
  -20.9270  -29.8170   21.5940 H   0  0  0  0  0  0  0  0  0  0  0  0
  -18.1510  -27.7950   22.5770 C   0  0  0  0  0  0  0  0  0  0  0  0
  -20.6950  -28.1480   22.8650 C   0  0  0  0  0  3  0  0  0  0  0  0
  -20.8640  -26.7940   22.1380 C   0  0  0  0  0  2  0  0  0  0  0  0
  -19.7690  -26.5270   21.1010 C   0  0  0  0  0  2  0  0  0  0  0  0
  -18.3870  -26.5350   21.7610 C   0  0  0  0  0  2  0  0  0  0  0  0
  -19.2350  -28.5610   23.0820 C   0  0  0  0  0  0  0  0  0  0  0  0
  -18.9620  -29.7450   23.8010 C   0  0  0  0  0  3  0  0  0  0  0  0
  -17.6360  -30.1610   24.0220 C   0  0  0  0  0  3  0  0  0  0  0  0
  -16.5660  -29.3880   23.5390 C   0  0  0  0  0  3  0  0  0  0  0  0
  -16.8240  -28.2070   22.8220 C   0  0  0  0  0  3  0  0  0  0  0  0
  -25.9600  -32.3220   23.8420 C   0  0  0  0  0  3  0  0  0  0  0  0
  -26.5160  -31.4320   25.0210 C   0  0  1  0  0  0  0  0  0  0  0  0
  -25.4610  -31.1090   26.1060 C   0  0  0  0  0  1  0  0  0  0  0  0
  -27.0570  -30.0880   24.4790 C   0  0  0  0  0  1  0  0  0  0  0  0
  -27.7050  -32.1460   25.7050 C   0  0  0  0  0  1  0  0  0  0  0  0
  -25.6830  -33.6870   24.3060 N   0  0  0  0  0  0  0  0  0  0  0  0
  -26.0250  -34.7990   23.6400 C   0  0  0  0  0  0  0  0  0  0  0  0
  -26.6770  -34.7810   22.5930 O   0  0  0  0  0  0  0  0  0  0  0  0
  -25.1050  -33.7790   25.1270 H   0  0  0  0  0  0  0  0  0  0  0  0
  -24.3220  -36.6420   23.4680 C   0  0  0  0  0  1  0  0  0  0  0  0
  -25.5650  -36.1470   24.2270 C   0  0  0  0  0  3  0  0  0  0  0  0
  -27.7230  -36.9140   25.1120 C   0  0  0  0  0  1  0  0  0  0  0  0
  -26.6150  -37.1890   24.2020 N   0  0  0  0  0  0  0  0  0  0  0  0
  -26.2280  -38.0980   24.4430 H   0  0  0  0  0  0  0  0  0  0  0  0
  -29.7070  -20.0860   21.5270 C   0  0  0  0  0  2  0  0  0  0  0  0
  -30.3180  -18.9310   20.8320 N   0  0  0  0  0  4  0  0  0  0  0  0
  -30.6440  -19.2390   19.9310 H   0  0  0  0  0  0  0  0  0  0  0  0
  -29.5870  -18.2570   20.6700 H   0  0  0  0  0  0  0  0  0  0  0  0
  -31.4430  -18.2430   21.5210 C   0  0  0  0  0  3  0  0  0  0  0  0
  -33.1240  -20.0600   20.7060 C   0  0  0  0  0  1  0  0  0  0  0  0
  -32.6130  -19.1990   21.8750 C   0  0  0  0  0  2  0  0  0  0  0  0
  -31.9440  -17.0620   20.6600 C   0  0  0  0  0  2  0  0  0  0  0  0
  -30.9980  -15.8400   20.6660 C   0  0  0  0  0  2  0  0  0  0  0  0
  -31.4970  -14.6560   19.8190 C   0  0  0  0  0  0  0  0  0  0  0  0
  -31.1720  -12.3500   18.9880 C   0  0  0  0  0  2  0  0  0  0  0  0
  -30.2000  -12.3220   17.7940 C   0  0  0  0  0  2  0  0  0  0  0  0
  -28.7410  -12.2380   18.2820 C   0  0  0  0  0  2  0  0  0  0  0  0
  -28.4150  -13.2970   19.3680 C   0  0  0  0  0  3  0  0  0  0  0  0
  -29.4910  -13.2930   20.4740 C   0  0  0  0  0  2  0  0  0  0  0  0
  -30.8070  -13.4870   19.8430 N   0  0  0  0  0  0  0  0  0  0  0  0
  -32.5080  -14.8080   19.1250 O   0  0  0  0  0  0  0  0  0  0  0  0
  -26.1020  -14.0440   20.2220 C   0  0  0  0  0  0  0  0  0  0  0  0
  -25.0090  -13.3340   20.6410 C   0  0  0  0  0  0  0  0  0  0  0  0
  -25.3810  -11.9560   20.5650 C   0  0  0  0  0  0  0  0  0  0  0  0
  -27.0750  -13.1030   19.9180 N   0  0  0  0  0  0  0  0  0  0  0  0
  -26.6450  -11.8410   20.1780 N   0  0  0  0  0  0  0  0  0  0  0  0
  -24.5890  -10.7380   20.7800 C   0  0  0  0  0  0  0  0  0  0  0  0
  -24.9380   -9.7960   21.7720 C   0  0  0  0  0  3  0  0  0  0  0  0
  -24.1500   -8.6420   21.9720 C   0  0  0  0  0  3  0  0  0  0  0  0
  -23.0000   -8.4220   21.1770 C   0  0  0  0  0  0  0  0  0  0  0  0
  -22.6700   -9.3530   20.1770 C   0  0  0  0  0  3  0  0  0  0  0  0
  -23.4580  -10.4980   19.9760 C   0  0  0  0  0  3  0  0  0  0  0  0
  -22.1910   -7.3150   21.2810 O   0  0  0  0  0  0  0  0  0  0  0  0
  -21.9520   -6.7100   22.4890 C   0  0  0  0  0  0  0  0  0  0  0  0
  -21.3660   -7.4080   23.5680 C   0  0  0  0  0  3  0  0  0  0  0  0
  -21.0730   -6.7300   24.7690 C   0  0  0  0  0  3  0  0  0  0  0  0
  -21.3560   -5.3550   24.8890 C   0  0  0  0  0  0  0  0  0  0  0  0
  -21.9350   -4.6580   23.8140 C   0  0  0  0  0  3  0  0  0  0  0  0
  -22.2300   -5.3340   22.6160 C   0  0  0  0  0  0  0  0  0  0  0  0
  -22.7680   -4.6530   21.5750 F   0  0  0  0  0  0  0  0  0  0  0  0
  -21.0680   -4.7010   26.0390 F   0  0  0  0  0  0  0  0  0  0  0  0
  -23.6640  -13.8930   21.0040 C   0  0  0  0  0  0  0  0  0  0  0  0
  -22.9510  -13.2340   21.9120 N   0  0  0  0  0  0  0  0  0  0  0  0
  -23.2580  -14.9490   20.5220 O   0  0  0  0  0  0  0  0  0  0  0  0
  -23.2910  -12.3770   22.3220 H   0  0  0  0  0  0  0  0  0  0  0  0
  -22.0530  -13.5940   22.2020 H   0  0  0  0  0  0  0  0  0  0  0  0
  -26.3440  -15.4040   20.0550 N   0  0  0  0  0  0  0  0  0  0  0  0
  -25.6240  -16.1010   20.2080 H   0  0  0  0  0  0  0  0  0  0  0  0
  -27.1950  -15.7900   19.6620 H   0  0  0  0  0  0  0  0  0  0  0  0
  1  5  1  0
  2  6  1  0
  4  7  1  0
  4  2  1  0
  4  1  1  0
  5  3  1  0
  5 54  1  0
  6  8  1  0
  6  3  1  0
  8 11  1  0
  8  9  1  0
 10  8  1  0
 12 11  1  0
 13 15  1  0
 13 12  1  0
 14 25  2  0
 15 20  1  0
 16 24  1  0
 16 26  1  0
 17 23  1  0
 17 19  1  0
 18 24  1  0
 19 18  1  0
 20 19  2  0
 21 22  1  0
 21 15  2  0
 22 17  2  0
 23 16  1  0
 24 14  1  0
 26 28  2  0
 27 26  1  0
 29 27  1  0
 30 39  2  0
 30 35  1  0
 31 27  1  0
 31 35  1  0
 32 31  1  0
 33 34  1  0
 33 32  1  0
 34 30  1  0
 35 36  2  0
 36 37  1  0
 38 37  2  0
 39 38  1  0
 40 14  1  0
 40 45  1  0
 40 41  1  0
 41 44  1  1
 41 42  1  0
 43 41  1  0
 45 48  1  0
 46 50  1  0
 46 45  1  0
 47 46  2  0
 50 49  1  0
 52 50  1  0
 52 53  1  0
 52 51  1  0
 55 58  1  0
 55 54  1  0
 56 55  1  0
 57 55  1  0
 58 61  1  0
 58 60  1  0
 59 60  1  0
 61 62  1  0
 63 69  1  0
 63 62  1  0
 64 69  1  0
 65 66  1  0
 65 64  1  0
 67 66  1  0
 67 74  1  0
 67 68  1  0
 69 68  1  0
 70 63  2  0
 71 72  2  0
 72 91  1  0
 73 72  1  0
 73 76  1  0
 74 75  1  0
 74 71  1  0
 75 73  2  0
 76 77  1  0
 77 78  2  0
 79 82  1  0
 79 78  1  0
 80 79  2  0
 81 80  1  0
 81 76  2  0
 82 83  1  0
 83 88  2  0
 83 84  1  0
 84 85  2  0
 85 86  1  0
 86 90  1  0
 87 86  2  0
 88 87  1  0
 89 88  1  0
 91 92  1  0
 92 95  1  0
 92 94  1  0
 93 91  2  0
 96 97  1  0
 96 71  1  0
 98 96  1  0
M  ISO  4  12 101  13 101  62 100  63 100
M  END
>  <TORSDO>  (18) 
F 25

>  <SCORE>  (18) 
-10.026

>  <name>  (18) 
18

>  <ligand_id>  (18) 
18

>  <original_smiles>  (18) 
[H]c1c([H])c([H])c2c(c1[H])C([H])([H])C([H])([H])C([H])([H])C2([H])N([H])C(=O)C1([H])N(C(=O)C([H])(N([H])C(=O)C([H])(N([H])C([H])([H])[H])C([H])([H])[H])C(C([H])([H])[H])(C([H])([H])[H])C([H])([H])[H])C([H])([H])c2c([H])c(OC([H])([H])C([H])([H])[N+]([H])([H])C3([H])C([H])([H])C([H])(C([H])([H])[H])C([H])([H])C([H])(C([H])([H])[N+]([H])([H])C([H])(C([H])([H])C([H])([H])[H])C([H])([H])C([H])([H])C(=O)N4C([H])([H])C([H])([H])C([H])([H])C([H])(n5nc(-c6c([H])c([H])c(Oc7c([H])c([H])c(F)c([H])c7F)c([H])c6[H])c(C(=O)N([H])[H])c5N([H])[H])C4([H])[H])C3([H])[H])c([H])c([H])c2C1([H])[H]

>  <smiles>  (18) 
[H]c1c([H])c([H])c2c(c1[H])C([H])([H])C([H])([H])C([H])([H])C2([H])N([H])C(=O)C1([H])N(C(=O)C([H])(N([H])C(=O)C([H])(N([H])C([H])([H])[H])C([H])([H])[H])C(C([H])([H])[H])(C([H])([H])[H])C([H])([H])[H])C([H])([H])c2c([H])c(OC([H])([H])C([H])([H])[N+]([H])([H])C3([H])C([H])([H])C([H])(C([H])([H])[H])C([H])([H])C([H])(C([H])([H])[N+]([H])([H])C([H])(C([H])([H])C([H])([H])[H])C([H])([H])C([H])([H])C(=O)N4C([H])([H])C([H])([H])C([H])([H])C([H])(n5nc(-c6c([H])c([H])c(Oc7c([H])c([H])c(F)c([H])c7F)c([H])c6[H])c(C(=O)N([H])[H])c5N([H])[H])C4([H])[H])C3([H])[H])c([H])c([H])c2C1([H])[H]

$$$$
19:0:0
     RDKit          3D

 93102  0  0  1  0  0  0  0  0999 V2000
  -29.7280  -20.1070   20.3010 C   0  0  0  0  0  0  0  0  0  0  0  0
  -28.8250  -21.1440   20.2910 N   0  0  0  0  0  0  0  0  0  0  0  0
  -30.8990  -20.3050   19.9690 O   0  0  0  0  0  0  0  0  0  0  0  0
  -27.8840  -20.9110   20.5900 H   0  0  0  0  0  0  0  0  0  0  0  0
  -29.2830  -18.6300   20.6620 C   0  0  0  0  0  3  0  0  0  0  0  0
  -29.2530  -18.3670   22.1590 C   0  0  0  0  0  3  0  0  0  0  0  0
  -30.2380  -17.2160   22.0150 C   0  0  0  0  0  3  0  0  0  0  0  0
  -30.2830  -17.3940   20.5080 C   0  0  0  0  0  3  0  0  0  0  0  0
  -30.4760  -18.2900   23.0450 C   0  0  0  0  0  3  0  0  0  0  0  0
  -31.6950  -17.3370   25.0380 C   0  0  0  0  0  1  0  0  0  0  0  0
  -29.8450  -19.0380   25.3880 C   0  0  0  0  0  1  0  0  0  0  0  0
  -30.3650  -17.8940   24.5100 C   0  0  0  0  0  3  0  0  0  0  0  0
  -29.8430  -16.0330   19.8260 C   0  0  0  0  0  2  0  0  0  0  0  0
  -30.7170  -14.7000   19.8470 C   0  0  0  0  0  0  0  0  0  0  0  0
  -30.4210  -12.4890   18.7730 C   0  0  0  0  0  2  0  0  0  0  0  0
  -29.4210  -12.6930   17.6100 C   0  0  0  0  0  2  0  0  0  0  0  0
  -27.9660  -12.5430   18.1040 C   0  0  0  0  0  2  0  0  0  0  0  0
  -27.6890  -13.3850   19.3740 C   0  0  0  0  0  3  0  0  0  0  0  0
  -28.7960  -13.1810   20.4330 C   0  0  0  0  0  2  0  0  0  0  0  0
  -30.0920  -13.4820   19.8150 N   0  0  0  0  0  0  0  0  0  0  0  0
  -31.9160  -14.7920   19.5610 O   0  0  0  0  0  0  0  0  0  0  0  0
  -25.3480  -14.0580   20.1920 C   0  0  0  0  0  0  0  0  0  0  0  0
  -24.2840  -13.3130   20.6180 C   0  0  0  0  0  0  0  0  0  0  0  0
  -24.7180  -11.9520   20.5950 C   0  0  0  0  0  0  0  0  0  0  0  0
  -26.3620  -13.1480   19.9260 N   0  0  0  0  0  0  0  0  0  0  0  0
  -25.9930  -11.8800   20.2350 N   0  0  0  0  0  0  0  0  0  0  0  0
  -23.9780  -10.7100   20.8360 C   0  0  0  0  0  0  0  0  0  0  0  0
  -24.4240   -9.7580   21.7770 C   0  0  0  0  0  3  0  0  0  0  0  0
  -23.6850   -8.5770   22.0030 C   0  0  0  0  0  3  0  0  0  0  0  0
  -22.4870   -8.3410   21.2870 C   0  0  0  0  0  0  0  0  0  0  0  0
  -22.0610   -9.2830   20.3330 C   0  0  0  0  0  3  0  0  0  0  0  0
  -22.8000  -10.4560   20.1060 C   0  0  0  0  0  3  0  0  0  0  0  0
  -21.7180   -7.2110   21.4220 O   0  0  0  0  0  0  0  0  0  0  0  0
  -21.6810   -6.5030   22.5960 C   0  0  0  0  0  0  0  0  0  0  0  0
  -21.3120   -7.1060   23.8190 C   0  0  0  0  0  3  0  0  0  0  0  0
  -21.2190   -6.3260   24.9900 C   0  0  0  0  0  3  0  0  0  0  0  0
  -21.4880   -4.9450   24.9380 C   0  0  0  0  0  0  0  0  0  0  0  0
  -21.8510   -4.3430   23.7220 C   0  0  0  0  0  3  0  0  0  0  0  0
  -21.9460   -5.1200   22.5530 C   0  0  0  0  0  0  0  0  0  0  0  0
  -22.2750   -4.5300   21.3790 F   0  0  0  0  0  0  0  0  0  0  0  0
  -21.3920   -4.1940   26.0610 F   0  0  0  0  0  0  0  0  0  0  0  0
  -22.9080  -13.8230   20.9360 C   0  0  0  0  0  0  0  0  0  0  0  0
  -22.2110  -13.1700   21.8570 N   0  0  0  0  0  0  0  0  0  0  0  0
  -22.4620  -14.8380   20.3990 O   0  0  0  0  0  0  0  0  0  0  0  0
  -22.5880  -12.3520   22.3130 H   0  0  0  0  0  0  0  0  0  0  0  0
  -21.2910  -13.4970   22.1150 H   0  0  0  0  0  0  0  0  0  0  0  0
  -25.5310  -15.4230   19.9840 N   0  0  0  0  0  0  0  0  0  0  0  0
  -24.7750  -16.0840   20.1160 H   0  0  0  0  0  0  0  0  0  0  0  0
  -26.3650  -15.8500   19.6010 H   0  0  0  0  0  0  0  0  0  0  0  0
  -29.0200  -22.5210   19.7010 C   0  0  0  0  0  3  0  0  0  0  0  0
  -28.1690  -23.7630   20.2460 C   0  0  0  0  0  3  0  0  0  0  0  0
  -28.2810  -25.1170   19.4050 C   0  0  0  0  0  2  0  0  0  0  0  0
  -28.2110  -26.4540   20.0380 O   0  0  0  0  0  0  0  0  0  0  0  0
  -24.6590  -31.8350   23.2300 C   0  0  0  0  0  0  0  0  0  0  0  0
  -27.0840  -27.2870   20.0040 C   0  0  0  0  0  0  0  0  0  0  0  0
  -23.3860  -30.5120   21.5760 C   0  0  0  0  0  3  0  0  0  0  0  0
  -24.7640  -28.9560   20.0840 C   0  0  0  0  0  0  0  0  0  0  0  0
  -25.9280  -30.7630   21.3580 C   0  0  0  0  0  2  0  0  0  0  0  0
  -25.9540  -29.4010   20.6710 C   0  0  0  0  0  0  0  0  0  0  0  0
  -27.1150  -28.5750   20.6210 C   0  0  0  0  0  3  0  0  0  0  0  0
  -25.8690  -26.8850   19.4080 C   0  0  0  0  0  3  0  0  0  0  0  0
  -24.7230  -27.7040   19.4490 C   0  0  0  0  0  3  0  0  0  0  0  0
  -23.5560  -29.8680   20.1740 C   0  0  0  0  0  2  0  0  0  0  0  0
  -24.6770  -31.0540   22.1110 N   0  0  0  0  0  0  0  0  0  0  0  0
  -23.5940  -32.1280   23.7930 O   0  0  0  0  0  0  0  0  0  0  0  0
  -22.7130  -29.4900   22.5220 C   0  0  0  0  0  0  0  0  0  0  0  0
  -21.3830  -29.3370   22.4030 N   0  0  0  0  0  0  0  0  0  0  0  0
  -23.3870  -28.8360   23.3240 O   0  0  0  0  0  0  0  0  0  0  0  0
  -20.8980  -29.9140   21.7300 H   0  0  0  0  0  0  0  0  0  0  0  0
  -17.9970  -28.1700   22.8810 C   0  0  0  0  0  0  0  0  0  0  0  0
  -20.5570  -28.4010   23.1660 C   0  0  0  0  0  3  0  0  0  0  0  0
  -20.6490  -26.9740   22.5770 C   0  0  0  0  0  2  0  0  0  0  0  0
  -19.5490  -26.6710   21.5540 C   0  0  0  0  0  2  0  0  0  0  0  0
  -18.1650  -26.8270   22.1900 C   0  0  0  0  0  2  0  0  0  0  0  0
  -19.1210  -28.9160   23.3250 C   0  0  0  0  0  0  0  0  0  0  0  0
  -18.9120  -30.1770   23.9260 C   0  0  0  0  0  3  0  0  0  0  0  0
  -17.6110  -30.6880   24.0930 C   0  0  0  0  0  3  0  0  0  0  0  0
  -16.5020  -29.9380   23.6690 C   0  0  0  0  0  3  0  0  0  0  0  0
  -16.6960  -28.6820   23.0660 C   0  0  0  0  0  3  0  0  0  0  0  0
  -25.9710  -32.4130   23.8430 C   0  0  0  0  0  3  0  0  0  0  0  0
  -25.7010  -33.8000   24.2450 N   0  0  0  0  0  0  0  0  0  0  0  0
  -26.0370  -34.8820   23.5290 C   0  0  0  0  0  0  0  0  0  0  0  0
  -26.6800  -34.8140   22.4780 O   0  0  0  0  0  0  0  0  0  0  0  0
  -25.1310  -33.9290   25.0680 H   0  0  0  0  0  0  0  0  0  0  0  0
  -24.3360  -36.7220   23.3110 C   0  0  0  0  0  1  0  0  0  0  0  0
  -25.5910  -36.2560   24.0650 C   0  0  0  0  0  3  0  0  0  0  0  0
  -27.7670  -37.0630   24.8690 C   0  0  0  0  0  1  0  0  0  0  0  0
  -26.6400  -37.2930   23.9700 N   0  0  0  0  0  0  0  0  0  0  0  0
  -26.2550  -38.2130   24.1730 H   0  0  0  0  0  0  0  0  0  0  0  0
  -26.5090  -31.5760   25.0670 C   0  0  1  0  0  0  0  0  0  0  0  0
  -25.4390  -31.3140   26.1530 C   0  0  0  0  0  1  0  0  0  0  0  0
  -27.0530  -30.2060   24.6010 C   0  0  0  0  0  1  0  0  0  0  0  0
  -27.6940  -32.3190   25.7280 C   0  0  0  0  0  1  0  0  0  0  0  0
  2  1  1  0
  2  4  1  0
  3  1  2  0
  5  1  1  0
  5  6  1  0
  6  9  1  0
  7  6  1  0
  7  9  1  0
  8  5  1  0
  8  7  1  0
  9 12  1  0
 12 10  1  0
 12 11  1  0
 13 14  1  0
 13  8  1  0
 15 20  1  0
 16 17  1  0
 16 15  1  0
 17 18  1  0
 18 25  1  0
 18 19  1  0
 20 14  1  0
 20 19  1  0
 21 14  2  0
 22 23  2  0
 23 42  1  0
 24 23  1  0
 24 27  1  0
 25 22  1  0
 25 26  1  0
 26 24  2  0
 27 28  1  0
 28 29  2  0
 30 33  1  0
 30 29  1  0
 31 30  2  0
 32 31  1  0
 32 27  2  0
 33 34  1  0
 34 35  1  0
 35 36  2  0
 37 36  1  0
 37 41  1  0
 38 37  2  0
 39 34  2  0
 39 38  1  0
 40 39  1  0
 42 43  1  0
 43 46  1  0
 43 45  1  0
 44 42  2  0
 47 48  1  0
 47 22  1  0
 49 47  1  0
 50 51  2  0
 50  2  1  0
 52 53  1  0
 52 51  1  0
 54 65  2  0
 54 80  1  0
 55 53  1  0
 55 60  1  0
 56 64  1  0
 56 66  1  0
 57 63  1  0
 57 59  1  0
 58 64  1  0
 59 58  1  0
 60 59  2  0
 61 62  1  0
 61 55  2  0
 62 57  2  0
 63 56  1  0
 64 54  1  0
 66 68  2  0
 67 66  1  0
 67 71  1  0
 69 67  1  0
 70 79  2  0
 70 75  1  0
 71 75  1  0
 72 71  1  0
 73 74  1  0
 73 72  1  0
 74 70  1  0
 75 76  2  0
 76 77  1  0
 78 77  2  0
 79 78  1  0
 80 81  1  0
 80 90  1  0
 81 84  1  0
 82 86  1  0
 82 81  1  0
 83 82  2  0
 85 86  1  0
 88 86  1  0
 88 89  1  0
 88 87  1  0
 90 93  1  1
 90 91  1  0
 92 90  1  0
M  ISO  4  13 100  14 100  52 101  53 101
M  END
>  <TORSDO>  (19) 
F 22

>  <SCORE>  (19) 
-3.989

>  <name>  (19) 
19

>  <ligand_id>  (19) 
19

>  <original_smiles>  (19) 
[H]c1c([H])c([H])c2c(c1[H])C([H])([H])C([H])([H])C([H])([H])C2([H])N([H])C(=O)C1([H])N(C(=O)C([H])(N([H])C(=O)C([H])(N([H])C([H])([H])[H])C([H])([H])[H])C(C([H])([H])[H])(C([H])([H])[H])C([H])([H])[H])C([H])([H])c2c([H])c(OC([H])([H])C([H])([H])C([H])([H])N([H])C(=O)C3([H])C([H])(C([H])([H])C(=O)N4C([H])([H])C([H])([H])C([H])([H])C([H])(n5nc(-c6c([H])c([H])c(Oc7c([H])c([H])c(F)c([H])c7F)c([H])c6[H])c(C(=O)N([H])[H])c5N([H])[H])C4([H])[H])C4([H])C3([H])C4([H])C([H])(C([H])([H])[H])C([H])([H])[H])c([H])c([H])c2C1([H])[H]

>  <smiles>  (19) 
[H]c1c([H])c([H])c2c(c1[H])C([H])([H])C([H])([H])C([H])([H])C2([H])N([H])C(=O)C1([H])N(C(=O)C([H])(N([H])C(=O)C([H])(N([H])C([H])([H])[H])C([H])([H])[H])C(C([H])([H])[H])(C([H])([H])[H])C([H])([H])[H])C([H])([H])c2c([H])c(OC([H])([H])C([H])([H])C([H])([H])N([H])C(=O)C3([H])C([H])(C([H])([H])C(=O)N4C([H])([H])C([H])([H])C([H])([H])C([H])(n5nc(-c6c([H])c([H])c(Oc7c([H])c([H])c(F)c([H])c7F)c([H])c6[H])c(C(=O)N([H])[H])c5N([H])[H])C4([H])[H])C4([H])C3([H])C4([H])C([H])(C([H])([H])[H])C([H])([H])[H])c([H])c([H])c2C1([H])[H]

$$$$
20:0:0
     RDKit          3D

 93102  0  0  1  0  0  0  0  0999 V2000
  -29.3500  -22.7500   18.9690 N   0  0  0  0  0  4  0  0  0  0  0  0
  -30.2970  -22.6910   18.6380 H   0  0  0  0  0  0  0  0  0  0  0  0
  -28.8100  -22.8710   18.1230 H   0  0  0  0  0  0  0  0  0  0  0  0
  -28.5730  -18.7730   20.9580 C   0  0  0  0  0  2  0  0  0  0  0  0
  -30.0480  -20.6260   21.3980 C   0  0  0  0  0  2  0  0  0  0  0  0
  -27.9340  -21.2490   20.5990 C   0  0  0  0  0  2  0  0  0  0  0  0
  -29.6400  -18.7680   19.8360 C   0  0  0  0  0  3  0  0  0  0  0  0
  -28.5840  -20.2170   21.5340 C   0  0  0  0  0  3  0  0  0  0  0  0
  -30.1060  -20.3080   19.9010 C   0  0  0  0  0  3  0  0  0  0  0  0
  -28.9660  -21.3370   19.4400 C   0  0  0  0  0  3  0  0  0  0  0  0
  -30.3030  -16.2350   19.6060 C   0  0  0  0  0  3  0  0  0  0  0  0
  -30.6600  -17.5380   19.9150 C   0  0  0  0  0  0  0  0  0  0  0  0
  -32.0800  -17.9030   20.3500 C   0  0  0  0  0  1  0  0  0  0  0  0
  -31.1660  -14.9980   19.5100 C   0  0  0  0  0  0  0  0  0  0  0  0
  -30.8740  -12.6990   18.6000 C   0  0  0  0  0  2  0  0  0  0  0  0
  -29.8170  -12.7160   17.4710 C   0  0  0  0  0  2  0  0  0  0  0  0
  -28.3980  -12.5490   18.0480 C   0  0  0  0  0  2  0  0  0  0  0  0
  -28.1260  -13.4910   19.2440 C   0  0  0  0  0  3  0  0  0  0  0  0
  -29.2850  -13.4900   20.2640 C   0  0  0  0  0  2  0  0  0  0  0  0
  -30.5350  -13.7810   19.5490 N   0  0  0  0  0  0  0  0  0  0  0  0
  -32.3470  -15.0530   19.1340 O   0  0  0  0  0  0  0  0  0  0  0  0
  -25.8670  -14.1170   20.2920 C   0  0  0  0  0  0  0  0  0  0  0  0
  -24.8200  -13.3550   20.7410 C   0  0  0  0  0  0  0  0  0  0  0  0
  -25.2310  -11.9970   20.5910 C   0  0  0  0  0  0  0  0  0  0  0  0
  -26.8400  -13.2190   19.8840 N   0  0  0  0  0  0  0  0  0  0  0  0
  -26.4740  -11.9350   20.1280 N   0  0  0  0  0  0  0  0  0  0  0  0
  -24.4860  -10.7480   20.7940 C   0  0  0  0  0  0  0  0  0  0  0  0
  -24.8570   -9.8210   21.7920 C   0  0  0  0  0  3  0  0  0  0  0  0
  -24.1100   -8.6390   21.9840 C   0  0  0  0  0  3  0  0  0  0  0  0
  -22.9760   -8.3750   21.1810 C   0  0  0  0  0  0  0  0  0  0  0  0
  -22.6250   -9.2900   20.1720 C   0  0  0  0  0  3  0  0  0  0  0  0
  -23.3720  -10.4630   19.9780 C   0  0  0  0  0  3  0  0  0  0  0  0
  -22.2090   -7.2400   21.2780 O   0  0  0  0  0  0  0  0  0  0  0  0
  -21.9330   -6.6610   22.4910 C   0  0  0  0  0  0  0  0  0  0  0  0
  -21.2550   -7.3600   23.5140 C   0  0  0  0  0  3  0  0  0  0  0  0
  -20.9300   -6.7050   24.7170 C   0  0  0  0  0  3  0  0  0  0  0  0
  -21.2700   -5.3510   24.8990 C   0  0  0  0  0  0  0  0  0  0  0  0
  -21.9330   -4.6510   23.8780 C   0  0  0  0  0  3  0  0  0  0  0  0
  -22.2610   -5.3040   22.6760 C   0  0  0  0  0  0  0  0  0  0  0  0
  -22.8860   -4.6160   21.6900 F   0  0  0  0  0  0  0  0  0  0  0  0
  -20.9480   -4.7210   26.0530 F   0  0  0  0  0  0  0  0  0  0  0  0
  -23.4800  -13.8630   21.1920 C   0  0  0  0  0  0  0  0  0  0  0  0
  -22.8480  -13.1670   22.1320 N   0  0  0  0  0  0  0  0  0  0  0  0
  -23.0050  -14.9040   20.7440 O   0  0  0  0  0  0  0  0  0  0  0  0
  -23.2460  -12.3300   22.5240 H   0  0  0  0  0  0  0  0  0  0  0  0
  -21.9480  -13.4790   22.4680 H   0  0  0  0  0  0  0  0  0  0  0  0
  -26.0620  -15.4890   20.1870 N   0  0  0  0  0  0  0  0  0  0  0  0
  -25.3610  -16.1520   20.4970 H   0  0  0  0  0  0  0  0  0  0  0  0
  -26.9220  -15.9360   19.8960 H   0  0  0  0  0  0  0  0  0  0  0  0
  -29.2130  -24.0530   19.7840 C   0  0  0  0  0  2  0  0  0  0  0  0
  -29.1750  -25.5730   17.6170 C   0  0  0  0  0  1  0  0  0  0  0  0
  -28.5840  -25.3120   19.0100 C   0  0  0  0  0  3  0  0  0  0  0  0
  -28.5820  -26.6640   19.6560 O   0  0  0  0  0  0  0  0  0  0  0  0
  -24.6580  -31.7280   23.0360 C   0  0  0  0  0  0  0  0  0  0  0  0
  -27.4350  -27.4890   19.6420 C   0  0  0  0  0  0  0  0  0  0  0  0
  -23.5060  -30.3580   21.3500 C   0  0  0  0  0  3  0  0  0  0  0  0
  -25.0070  -29.0060   19.7850 C   0  0  0  0  0  0  0  0  0  0  0  0
  -26.0230  -30.8220   21.1420 C   0  0  0  0  0  2  0  0  0  0  0  0
  -26.1590  -29.4950   20.4070 C   0  0  0  0  0  0  0  0  0  0  0  0
  -27.3770  -28.7480   20.3310 C   0  0  0  0  0  3  0  0  0  0  0  0
  -26.2580  -27.0910   18.9640 C   0  0  0  0  0  3  0  0  0  0  0  0
  -25.0590  -27.8140   19.0580 C   0  0  0  0  0  3  0  0  0  0  0  0
  -23.7260  -29.7990   19.9210 C   0  0  0  0  0  2  0  0  0  0  0  0
  -24.7490  -30.9840   21.8990 N   0  0  0  0  0  0  0  0  0  0  0  0
  -23.5690  -31.9090   23.6000 O   0  0  0  0  0  0  0  0  0  0  0  0
  -22.9330  -29.2340   22.2520 C   0  0  0  0  0  0  0  0  0  0  0  0
  -21.6150  -28.9810   22.1380 N   0  0  0  0  0  0  0  0  0  0  0  0
  -23.6680  -28.5970   23.0120 O   0  0  0  0  0  0  0  0  0  0  0  0
  -21.0540  -29.5810   21.5480 H   0  0  0  0  0  0  0  0  0  0  0  0
  -18.3510  -27.4810   22.5520 C   0  0  0  0  0  0  0  0  0  0  0  0
  -20.8800  -27.9220   22.8360 C   0  0  0  0  0  3  0  0  0  0  0  0
  -21.1030  -26.5520   22.1460 C   0  0  0  0  0  2  0  0  0  0  0  0
  -20.0080  -26.1940   21.1320 C   0  0  0  0  0  2  0  0  0  0  0  0
  -18.6330  -26.1810   21.8170 C   0  0  0  0  0  2  0  0  0  0  0  0
  -19.4080  -28.3020   23.0300 C   0  0  0  0  0  0  0  0  0  0  0  0
  -19.0880  -29.5110   23.6830 C   0  0  0  0  0  3  0  0  0  0  0  0
  -17.7490  -29.9060   23.8480 C   0  0  0  0  0  3  0  0  0  0  0  0
  -16.7080  -29.0830   23.3870 C   0  0  0  0  0  3  0  0  0  0  0  0
  -17.0100  -27.8710   22.7430 C   0  0  0  0  0  3  0  0  0  0  0  0
  -25.9080  -32.4050   23.6700 C   0  0  0  0  0  3  0  0  0  0  0  0
  -26.4810  -31.6110   24.9060 C   0  0  1  0  0  0  0  0  0  0  0  0
  -25.4130  -31.2640   25.9690 C   0  0  0  0  0  1  0  0  0  0  0  0
  -27.1470  -30.2920   24.4480 C   0  0  0  0  0  1  0  0  0  0  0  0
  -27.5870  -32.4450   25.5890 C   0  0  0  0  0  1  0  0  0  0  0  0
  -25.5250  -33.7690   24.0560 N   0  0  0  0  0  0  0  0  0  0  0  0
  -25.7870  -34.8700   23.3410 C   0  0  0  0  0  0  0  0  0  0  0  0
  -26.4510  -34.8510   22.2980 O   0  0  0  0  0  0  0  0  0  0  0  0
  -24.9400  -33.8540   24.8750 H   0  0  0  0  0  0  0  0  0  0  0  0
  -23.9630  -36.5790   23.0830 C   0  0  0  0  0  1  0  0  0  0  0  0
  -25.2310  -36.2070   23.8660 C   0  0  0  0  0  3  0  0  0  0  0  0
  -27.3160  -37.1800   24.7230 C   0  0  0  0  0  1  0  0  0  0  0  0
  -26.2020  -37.3200   23.7910 N   0  0  0  0  0  0  0  0  0  0  0  0
  -25.7440  -38.2100   23.9710 H   0  0  0  0  0  0  0  0  0  0  0  0
  1 50  1  0
  2  1  1  0
  3  1  1  0
  4  8  1  0
  5  8  1  0
  7  9  1  0
  7 12  1  0
  7  4  1  0
  8  6  1  0
  9  5  1  0
 10  1  1  0
 10  9  1  0
 10  6  1  0
 11 12  2  0
 12 13  1  0
 14 20  1  0
 14 11  1  0
 15 20  1  0
 16 17  1  0
 16 15  1  0
 18 17  1  0
 18 25  1  0
 18 19  1  0
 20 19  1  0
 21 14  2  0
 22 23  2  0
 23 42  1  0
 24 23  1  0
 24 27  1  0
 25 26  1  0
 25 22  1  0
 26 24  2  0
 27 28  1  0
 28 29  2  0
 30 33  1  0
 30 29  1  0
 31 30  2  0
 32 31  1  0
 32 27  2  0
 33 34  1  0
 34 39  2  0
 34 35  1  0
 35 36  2  0
 36 37  1  0
 37 41  1  0
 38 37  2  0
 39 38  1  0
 40 39  1  0
 42 43  1  0
 43 46  1  0
 43 45  1  0
 44 42  2  0
 47 22  1  0
 47 48  1  0
 49 47  1  0
 52 51  1  0
 52 53  1  0
 52 50  1  0
 54 65  2  0
 55 53  1  0
 55 60  1  0
 56 64  1  0
 56 66  1  0
 57 63  1  0
 57 59  1  0
 58 64  1  0
 59 58  1  0
 60 59  2  0
 61 62  1  0
 61 55  2  0
 62 57  2  0
 63 56  1  0
 64 54  1  0
 66 68  2  0
 67 66  1  0
 69 67  1  0
 70 79  2  0
 70 75  1  0
 71 67  1  0
 71 75  1  0
 72 71  1  0
 73 74  1  0
 73 72  1  0
 74 70  1  0
 75 76  2  0
 76 77  1  0
 78 77  2  0
 79 78  1  0
 80 54  1  0
 80 85  1  0
 80 81  1  0
 81 84  1  1
 81 82  1  0
 83 81  1  0
 85 88  1  0
 86 90  1  0
 86 85  1  0
 87 86  2  0
 90 89  1  0
 92 90  1  0
 92 93  1  0
 92 91  1  0
M  ISO  4  11 100  14 100  52 101  53 101
M  END
>  <TORSDO>  (20) 
F 20

>  <SCORE>  (20) 
-11.128

>  <name>  (20) 
20

>  <ligand_id>  (20) 
20

>  <original_smiles>  (20) 
[H]C(C(=O)N1C([H])([H])C([H])([H])C([H])([H])C([H])(n2nc(-c3c([H])c([H])c(Oc4c([H])c([H])c(F)c([H])c4F)c([H])c3[H])c(C(=O)N([H])[H])c2N([H])[H])C1([H])[H])=C(C([H])([H])[H])C1([H])C([H])([H])C2([H])C([H])([H])C1([H])C([H])([N+]([H])([H])C([H])([H])C([H])(Oc1c([H])c([H])c3c(c1[H])C([H])([H])N(C(=O)C([H])(N([H])C(=O)C([H])(N([H])C([H])([H])[H])C([H])([H])[H])C(C([H])([H])[H])(C([H])([H])[H])C([H])([H])[H])C([H])(C(=O)N([H])C1([H])c4c([H])c([H])c([H])c([H])c4C([H])([H])C([H])([H])C1([H])[H])C3([H])[H])C([H])([H])[H])C2([H])[H]

>  <smiles>  (20) 
[H]C(C(=O)N1C([H])([H])C([H])([H])C([H])([H])C([H])(n2nc(-c3c([H])c([H])c(Oc4c([H])c([H])c(F)c([H])c4F)c([H])c3[H])c(C(=O)N([H])[H])c2N([H])[H])C1([H])[H])=C(C([H])([H])[H])C1([H])C([H])([H])C2([H])C([H])([H])C1([H])C([H])([N+]([H])([H])C([H])([H])C([H])(Oc1c([H])c([H])c3c(c1[H])C([H])([H])N(C(=O)C([H])(N([H])C(=O)C([H])(N([H])C([H])([H])[H])C([H])([H])[H])C(C([H])([H])[H])(C([H])([H])[H])C([H])([H])[H])C([H])(C(=O)N([H])C1([H])c4c([H])c([H])c([H])c([H])c4C([H])([H])C([H])([H])C1([H])[H])C3([H])[H])C([H])([H])[H])C2([H])[H]

$$$$
21:0:0
     RDKit          3D

 95103  0  0  1  0  0  0  0  0999 V2000
  -27.0350  -24.0330   19.1990 C   0  0  0  0  0  2  0  0  0  0  0  0
  -29.0020  -23.0180   20.2190 C   0  0  0  0  0  2  0  0  0  0  0  0
  -28.4610  -24.3660   19.6660 C   0  0  0  0  0  3  0  0  0  0  0  0
  -26.8300  -22.5170   19.3470 C   0  0  0  0  0  3  0  0  0  0  0  0
  -28.2410  -21.9100   19.4520 C   0  0  0  0  0  3  0  0  0  0  0  0
  -25.9410  -21.9400   18.2290 C   0  0  0  0  0  1  0  0  0  0  0  0
  -28.2470  -20.4790   20.0880 C   0  0  0  0  0  2  0  0  0  0  0  0
  -29.4630  -19.5610   19.7400 C   0  0  0  0  0  3  0  0  0  0  0  0
  -29.2390  -18.1520   20.1900 N   0  0  0  0  0  4  0  0  0  0  0  0
  -29.1960  -18.1630   21.1960 H   0  0  0  0  0  0  0  0  0  0  0  0
  -28.3310  -17.8650   19.8580 H   0  0  0  0  0  0  0  0  0  0  0  0
  -30.2410  -17.1350   19.7440 C   0  0  0  0  0  2  0  0  0  0  0  0
  -30.1190  -15.7840   20.5120 C   0  0  0  0  0  2  0  0  0  0  0  0
  -30.8200  -14.5700   19.8400 C   0  0  0  0  0  0  0  0  0  0  0  0
  -30.5790  -12.2810   18.9120 C   0  0  0  0  0  2  0  0  0  0  0  0
  -29.5750  -12.3160   17.7400 C   0  0  0  0  0  2  0  0  0  0  0  0
  -28.1200  -12.2080   18.2470 C   0  0  0  0  0  2  0  0  0  0  0  0
  -27.8160  -13.1700   19.4260 C   0  0  0  0  0  3  0  0  0  0  0  0
  -28.9230  -13.0580   20.5000 C   0  0  0  0  0  2  0  0  0  0  0  0
  -30.2080  -13.3550   19.8500 N   0  0  0  0  0  0  0  0  0  0  0  0
  -31.8850  -14.7580   19.2460 O   0  0  0  0  0  0  0  0  0  0  0  0
  -25.4930  -13.8500   20.3120 C   0  0  0  0  0  0  0  0  0  0  0  0
  -24.4230  -13.1030   20.7330 C   0  0  0  0  0  0  0  0  0  0  0  0
  -24.8280  -11.7390   20.6300 C   0  0  0  0  0  0  0  0  0  0  0  0
  -26.4850  -12.9370   19.9830 N   0  0  0  0  0  0  0  0  0  0  0  0
  -26.0910  -11.6620   20.2270 N   0  0  0  0  0  0  0  0  0  0  0  0
  -24.0650  -10.5000   20.8320 C   0  0  0  0  0  0  0  0  0  0  0  0
  -24.4480   -9.5450   21.8000 C   0  0  0  0  0  3  0  0  0  0  0  0
  -23.6870   -8.3700   21.9870 C   0  0  0  0  0  3  0  0  0  0  0  0
  -22.5280   -8.1440   21.2070 C   0  0  0  0  0  0  0  0  0  0  0  0
  -22.1650   -9.0860   20.2270 C   0  0  0  0  0  3  0  0  0  0  0  0
  -22.9270  -10.2520   20.0380 C   0  0  0  0  0  3  0  0  0  0  0  0
  -21.7400   -7.0220   21.3040 O   0  0  0  0  0  0  0  0  0  0  0  0
  -21.5630   -6.3690   22.4980 C   0  0  0  0  0  0  0  0  0  0  0  0
  -21.0050   -7.0120   23.6240 C   0  0  0  0  0  3  0  0  0  0  0  0
  -20.7750   -6.2860   24.8090 C   0  0  0  0  0  3  0  0  0  0  0  0
  -21.0970   -4.9160   24.8670 C   0  0  0  0  0  0  0  0  0  0  0  0
  -21.6520   -4.2710   23.7460 C   0  0  0  0  0  3  0  0  0  0  0  0
  -21.8810   -4.9980   22.5650 C   0  0  0  0  0  0  0  0  0  0  0  0
  -22.3930   -4.3670   21.4800 F   0  0  0  0  0  0  0  0  0  0  0  0
  -20.8680   -4.2140   26.0030 F   0  0  0  0  0  0  0  0  0  0  0  0
  -23.0690  -13.6230   21.1240 C   0  0  0  0  0  0  0  0  0  0  0  0
  -22.3820  -12.9270   22.0230 N   0  0  0  0  0  0  0  0  0  0  0  0
  -22.6320  -14.6760   20.6640 O   0  0  0  0  0  0  0  0  0  0  0  0
  -22.7510  -12.0750   22.4160 H   0  0  0  0  0  0  0  0  0  0  0  0
  -21.4740  -13.2530   22.3210 H   0  0  0  0  0  0  0  0  0  0  0  0
  -25.6940  -15.2180   20.1650 N   0  0  0  0  0  0  0  0  0  0  0  0
  -24.9460  -15.8820   20.3310 H   0  0  0  0  0  0  0  0  0  0  0  0
  -26.5100  -15.6390   19.7410 H   0  0  0  0  0  0  0  0  0  0  0  0
  -30.8150  -20.1090   20.2760 C   0  0  0  0  0  2  0  0  0  0  0  0
  -30.8810  -20.3530   21.8030 C   0  0  0  0  0  2  0  0  0  0  0  0
  -32.4090  -20.7680   23.8140 C   0  0  0  0  0  1  0  0  0  0  0  0
  -32.2780  -20.7860   22.2850 C   0  0  0  0  0  2  0  0  0  0  0  0
  -28.5150  -25.5910   20.6320 C   0  0  0  0  0  2  0  0  0  0  0  0
  -28.4460  -26.8640   19.9630 O   0  0  0  0  0  0  0  0  0  0  0  0
  -24.4510  -31.7810   23.2990 C   0  0  0  0  0  0  0  0  0  0  0  0
  -27.2540  -27.5540   20.0450 C   0  0  0  0  0  0  0  0  0  0  0  0
  -23.3040  -30.4310   21.5720 C   0  0  0  0  0  3  0  0  0  0  0  0
  -24.8170  -28.9970   20.0980 C   0  0  0  0  0  0  0  0  0  0  0  0
  -25.8230  -30.8560   21.4330 C   0  0  0  0  0  2  0  0  0  0  0  0
  -25.9540  -29.5190   20.7310 C   0  0  0  0  0  0  0  0  0  0  0  0
  -27.1740  -28.8020   20.7070 C   0  0  0  0  0  3  0  0  0  0  0  0
  -26.1080  -27.0600   19.3890 C   0  0  0  0  0  3  0  0  0  0  0  0
  -24.8890  -27.7620   19.4300 C   0  0  0  0  0  3  0  0  0  0  0  0
  -23.5500  -29.8230   20.1650 C   0  0  0  0  0  2  0  0  0  0  0  0
  -24.5430  -31.0350   22.1620 N   0  0  0  0  0  0  0  0  0  0  0  0
  -23.3560  -32.0010   23.8360 O   0  0  0  0  0  0  0  0  0  0  0  0
  -22.6640  -29.3480   22.4720 C   0  0  0  0  0  0  0  0  0  0  0  0
  -21.3540  -29.1210   22.2920 N   0  0  0  0  0  0  0  0  0  0  0  0
  -23.3470  -28.7210   23.2850 O   0  0  0  0  0  0  0  0  0  0  0  0
  -20.8660  -29.6810   21.6060 H   0  0  0  0  0  0  0  0  0  0  0  0
  -18.0160  -27.7740   22.6280 C   0  0  0  0  0  0  0  0  0  0  0  0
  -20.5500  -28.1210   22.9950 C   0  0  0  0  0  3  0  0  0  0  0  0
  -20.7300  -26.7210   22.3660 C   0  0  0  0  0  2  0  0  0  0  0  0
  -19.6750  -26.3960   21.3040 C   0  0  0  0  0  2  0  0  0  0  0  0
  -18.2670  -26.4610   21.9050 C   0  0  0  0  0  2  0  0  0  0  0  0
  -19.0890  -28.5610   23.1240 C   0  0  0  0  0  0  0  0  0  0  0  0
  -18.8040  -29.7890   23.7580 C   0  0  0  0  0  3  0  0  0  0  0  0
  -17.4780  -30.2360   23.9010 C   0  0  0  0  0  3  0  0  0  0  0  0
  -16.4170  -29.4460   23.4220 C   0  0  0  0  0  3  0  0  0  0  0  0
  -16.6870  -28.2160   22.7930 C   0  0  0  0  0  3  0  0  0  0  0  0
  -25.7150  -32.4070   23.9680 C   0  0  0  0  0  3  0  0  0  0  0  0
  -26.1740  -31.6420   25.2700 C   0  0  1  0  0  0  0  0  0  0  0  0
  -25.0350  -31.4070   26.2890 C   0  0  0  0  0  1  0  0  0  0  0  0
  -26.7820  -30.2660   24.9120 C   0  0  0  0  0  1  0  0  0  0  0  0
  -27.2950  -32.4430   25.9770 C   0  0  0  0  0  1  0  0  0  0  0  0
  -25.4020  -33.8080   24.2750 N   0  0  0  0  0  0  0  0  0  0  0  0
  -25.7640  -34.8520   23.5170 C   0  0  0  0  0  0  0  0  0  0  0  0
  -26.4690  -34.7370   22.5100 O   0  0  0  0  0  0  0  0  0  0  0  0
  -24.7800  -33.9710   25.0530 H   0  0  0  0  0  0  0  0  0  0  0  0
  -24.0590  -36.6460   23.0810 C   0  0  0  0  0  1  0  0  0  0  0  0
  -25.2650  -36.2450   23.9440 C   0  0  0  0  0  3  0  0  0  0  0  0
  -27.3670  -37.1260   24.8530 C   0  0  0  0  0  1  0  0  0  0  0  0
  -26.3040  -37.2940   23.8640 N   0  0  0  0  0  0  0  0  0  0  0  0
  -25.8970  -38.2160   23.9970 H   0  0  0  0  0  0  0  0  0  0  0  0
  1  4  1  0
  1  3  1  0
  3  2  1  0
  3 54  1  0
  4  6  1  0
  4  5  1  0
  5  7  1  0
  5  2  1  0
  8  7  1  0
  8  9  1  0
  8 50  1  0
  9 10  1  0
 11  9  1  0
 12  9  1  0
 12 13  1  0
 14 20  1  0
 14 13  1  0
 15 20  1  0
 16 17  1  0
 16 15  1  0
 18 17  1  0
 18 25  1  0
 18 19  1  0
 20 19  1  0
 21 14  2  0
 22 23  2  0
 23 42  1  0
 24 23  1  0
 24 27  1  0
 25 26  1  0
 25 22  1  0
 26 24  2  0
 27 28  1  0
 28 29  2  0
 30 33  1  0
 30 29  1  0
 31 30  2  0
 32 31  1  0
 32 27  2  0
 33 34  1  0
 34 39  2  0
 34 35  1  0
 35 36  2  0
 36 37  1  0
 37 41  1  0
 38 37  2  0
 39 38  1  0
 40 39  1  0
 42 43  1  0
 43 46  1  0
 43 45  1  0
 44 42  2  0
 47 22  1  0
 47 48  1  0
 49 47  1  0
 50 51  1  0
 51 53  1  0
 53 52  1  0
 55 57  1  0
 55 54  1  0
 56 67  2  0
 57 62  1  0
 58 66  1  0
 58 68  1  0
 59 65  1  0
 59 61  1  0
 60 66  1  0
 61 60  1  0
 62 61  2  0
 63 64  1  0
 63 57  2  0
 64 59  2  0
 65 58  1  0
 66 56  1  0
 68 70  2  0
 69 68  1  0
 71 69  1  0
 72 81  2  0
 72 77  1  0
 73 69  1  0
 73 77  1  0
 74 73  1  0
 75 76  1  0
 75 74  1  0
 76 72  1  0
 77 78  2  0
 78 79  1  0
 80 79  2  0
 81 80  1  0
 82 56  1  0
 82 87  1  0
 82 83  1  0
 83 86  1  1
 83 84  1  0
 85 83  1  0
 87 90  1  0
 88 92  1  0
 88 87  1  0
 89 88  2  0
 92 91  1  0
 94 92  1  0
 94 95  1  0
 94 93  1  0
M  ISO  4  13 100  14 100  54 101  55 101
M  END
>  <TORSDO>  (21) 
F 25

>  <SCORE>  (21) 
-12.116

>  <name>  (21) 
21

>  <ligand_id>  (21) 
21

>  <original_smiles>  (21) 
[H]c1c([H])c([H])c2c(c1[H])C([H])([H])C([H])([H])C([H])([H])C2([H])N([H])C(=O)C1([H])N(C(=O)C([H])(N([H])C(=O)C([H])(N([H])C([H])([H])[H])C([H])([H])[H])C(C([H])([H])[H])(C([H])([H])[H])C([H])([H])[H])C([H])([H])c2c([H])c(OC([H])([H])C3([H])C([H])([H])C([H])(C([H])([H])[H])C([H])(C([H])([H])C([H])(C([H])([H])C([H])([H])C([H])([H])C([H])([H])[H])[N+]([H])([H])C([H])([H])C([H])([H])C(=O)N4C([H])([H])C([H])([H])C([H])([H])C([H])(n5nc(-c6c([H])c([H])c(Oc7c([H])c([H])c(F)c([H])c7F)c([H])c6[H])c(C(=O)N([H])[H])c5N([H])[H])C4([H])[H])C3([H])[H])c([H])c([H])c2C1([H])[H]

>  <smiles>  (21) 
[H]c1c([H])c([H])c2c(c1[H])C([H])([H])C([H])([H])C([H])([H])C2([H])N([H])C(=O)C1([H])N(C(=O)C([H])(N([H])C(=O)C([H])(N([H])C([H])([H])[H])C([H])([H])[H])C(C([H])([H])[H])(C([H])([H])[H])C([H])([H])[H])C([H])([H])c2c([H])c(OC([H])([H])C3([H])C([H])([H])C([H])(C([H])([H])[H])C([H])(C([H])([H])C([H])(C([H])([H])C([H])([H])C([H])([H])C([H])([H])[H])[N+]([H])([H])C([H])([H])C([H])([H])C(=O)N4C([H])([H])C([H])([H])C([H])([H])C([H])(n5nc(-c6c([H])c([H])c(Oc7c([H])c([H])c(F)c([H])c7F)c([H])c6[H])c(C(=O)N([H])[H])c5N([H])[H])C4([H])[H])C3([H])[H])c([H])c([H])c2C1([H])[H]

$$$$
22:0:0
     RDKit          3D

 89 89  0  0  1  0  0  0  0  0999 V2000
  -17.2960  -25.1180   20.1260 C   0  0  0  0  0  3  0  0  0  0  0  0
  -17.1440  -26.8650   19.2400 C   0  0  0  0  0  3  0  0  0  0  0  0
  -18.9050  -24.2290   20.7700 C   0  0  0  0  0  3  0  0  0  0  0  0
  -18.5850  -28.1800   19.0360 C   0  0  0  0  0  3  0  0  0  0  0  0
  -20.7180  -24.7990   20.4810 C   0  0  0  0  0  3  0  0  0  0  0  0
  -20.4540  -27.7870   19.3810 C   0  0  0  0  0  2  0  0  0  0  0  0
  -22.2690  -22.9090   19.7430 C   0  0  0  0  0 15  0  0  0  0  0  0
  -24.2980  -21.4820   19.3700 C   0  0  0  0  0 15  0  0  0  0  0  0
  -25.7060  -19.4230   19.0840 C   0  0  0  0  0 15  0  0  0  0  0  0
  -27.4720  -17.7020   19.5430 C   0  0  0  0  0 15  0  0  0  0  0  0
  -29.1270  -16.0480   19.2580 C   0  0  0  0  0  2  0  0  0  0  0  0
  -30.5720  -13.4490   18.8550 C   0  0  0  0  0  2  0  0  0  0  0  0
  -30.0610  -12.2570   17.9140 C   0  0  0  0  0  2  0  0  0  0  0  0
  -28.7660  -11.6340   18.4440 C   0  0  0  0  0  2  0  0  0  0  0  0
  -28.0250  -12.7740   19.1400 C   0  0  0  0  0  3  0  0  0  0  0  0
  -28.8020  -13.5110   20.2260 C   0  0  0  0  0  2  0  0  0  0  0  0
  -29.4740  -14.5140   19.4360 N   0  0  0  0  0  0  0  0  0  0  0  0
  -30.3680  -16.1910   18.8860 O   0  0  0  0  0  1  0  0  0  0  0  0
  -25.8470  -13.4760   20.0130 C   0  0  0  0  0  0  0  0  0  0  0  0
  -24.8070  -12.7810   20.5270 C   0  0  0  0  0  0  0  0  0  0  0  0
  -25.2030  -11.4070   20.5140 C   0  0  0  0  0  0  0  0  0  0  0  0
  -26.7670  -12.5090   19.6880 N   0  0  0  0  0  0  0  0  0  0  0  0
  -26.4390  -11.2650   20.0710 N   0  0  0  0  0  0  0  0  0  0  0  0
  -24.4470  -10.2040   20.8130 C   0  0  0  0  0  0  0  0  0  0  0  0
  -24.6480   -9.4820   22.0080 C   0  0  0  0  0  3  0  0  0  0  0  0
  -23.8840   -8.3270   22.2690 C   0  0  0  0  0  3  0  0  0  0  0  0
  -22.9140   -7.8970   21.3330 C   0  0  0  0  0  0  0  0  0  0  0  0
  -22.7440   -8.6060   20.1320 C   0  0  0  0  0  3  0  0  0  0  0  0
  -23.5080   -9.7510   19.8690 C   0  0  0  0  0  3  0  0  0  0  0  0
  -22.1360   -6.7780   21.4920 O   0  0  0  0  0  0  0  0  0  0  0  0
  -21.4800   -6.5280   22.6690 C   0  0  0  0  0  0  0  0  0  0  0  0
  -20.5190   -7.4200   23.1930 C   0  0  0  0  0  3  0  0  0  0  0  0
  -19.8190   -7.0850   24.3680 C   0  0  0  0  0  3  0  0  0  0  0  0
  -20.0710   -5.8590   25.0140 C   0  0  0  0  0  0  0  0  0  0  0  0
  -21.0240   -4.9690   24.4900 C   0  0  0  0  0  3  0  0  0  0  0  0
  -21.7260   -5.3020   23.3180 C   0  0  0  0  0  0  0  0  0  0  0  0
  -22.6300   -4.4340   22.8040 F   0  0  0  0  0  0  0  0  0  0  0  0
  -19.3910   -5.5330   26.1380 F   0  0  0  0  0  0  0  0  0  0  0  0
  -23.4820  -13.3630   20.8910 C   0  0  0  0  0  0  0  0  0  0  0  0
  -22.8590  -12.8400   21.9380 N   0  0  0  0  0  0  0  0  0  0  0  0
  -23.0230  -14.3230   20.2740 O   0  0  0  0  0  0  0  0  0  0  0  0
  -23.2580  -12.0680   22.4500 H   0  0  0  0  0  0  0  0  0  0  0  0
  -21.9710  -13.2190   22.2340 H   0  0  0  0  0  0  0  0  0  0  0  0
  -26.0820  -14.8300   19.7690 N   0  0  0  0  0  0  0  0  0  0  0  0
  -25.3430  -15.5120   19.8980 H   0  0  0  0  0  0  0  0  0  0  0  0
  -26.8230  -15.1630   19.1670 H   0  0  0  0  0  0  0  0  0  0  0  0
  -22.1300  -29.2090   20.2860 C   0  0  0  0  0 15  0  0  0  0  0  0
  -23.5880  -28.5410   21.9410 C   0  0  0  0  0 15  0  0  0  0  0  0
  -24.9090  -27.1400   22.4270 O   0  0  0  0  0  1  0  0  0  0  0  0
  -24.8450  -31.1710   21.9690 C   0  0  0  0  0  0  0  0  0  0  0  0
  -26.3420  -26.6450   22.2660 C   0  0  0  0  0  3  0  0  0  0  0  0
  -25.2970  -29.5250   19.8550 C   0  0  0  0  0  3  0  0  0  0  0  0
  -27.3310  -28.0180   20.2970 C   0  0  0  0  0  3  0  0  0  0  0  0
  -26.8860  -29.8770   21.8890 C   0  0  0  0  0  2  0  0  0  0  0  0
  -27.3110  -28.4780   21.6240 C   0  0  0  0  0  3  0  0  0  0  0  0
  -27.2640  -27.5740   22.6810 C   0  0  0  0  0  2  0  0  0  0  0  0
  -26.8940  -25.8290   21.1940 C   0  0  0  0  0  2  0  0  0  0  0  0
  -27.4020  -26.5970   20.1010 C   0  0  0  0  0  2  0  0  0  0  0  0
  -26.6780  -29.0170   19.3130 C   0  0  0  0  0  2  0  0  0  0  0  0
  -25.5750  -30.1920   21.2790 N   0  0  0  0  0  0  0  0  0  0  0  0
  -23.8550  -31.7060   21.4650 O   0  0  0  0  0  0  0  0  0  0  0  0
  -24.6430  -28.0350   19.5560 C   0  0  0  0  0  3  0  0  0  0  0  0
  -24.1750  -26.8510   20.2080 N   0  0  0  0  0  0  0  0  0  0  0  0
  -25.2440  -27.2010   19.1320 O   0  0  0  0  0  1  0  0  0  0  0  0
  -24.5990  -26.1640   19.6090 H   0  0  0  0  0  0  0  0  0  0  0  0
  -20.3700  -26.3040   21.6090 C   0  0  0  0  0  3  0  0  0  0  0  0
  -23.3680  -26.0830   21.4690 C   0  0  0  0  0  1  0  0  0  0  0  0
  -23.4500  -25.6370   19.7330 C   0  0  0  0  0  3  0  0  0  0  0  0
  -22.0790  -25.7790   18.7390 C   0  0  0  0  0  2  0  0  0  0  0  0
  -20.6270  -25.9650   19.4770 C   0  0  0  0  0  3  0  0  0  0  0  0
  -21.6500  -26.5360   22.4360 C   0  0  0  0  0  2  0  0  0  0  0  0
  -21.3810  -27.8290   23.2270 C   0  0  0  0  0  2  0  0  0  0  0  0
  -20.2050  -28.6710   23.3720 C   0  0  0  0  0  2  0  0  0  0  0  0
  -18.9970  -28.1360   22.9650 C   0  0  0  0  0  2  0  0  0  0  0  0
  -19.1360  -26.8670   22.3380 C   0  0  0  0  0  2  0  0  0  0  0  0
  -25.1850  -31.6800   23.4490 C   0  0  0  0  0  3  0  0  0  0  0  0
  -24.8060  -33.0970   23.5500 N   0  0  0  0  0  0  0  0  0  0  0  0
  -25.6500  -34.1250   23.3750 C   0  0  0  0  0  0  0  0  0  0  0  0
  -26.8520  -33.9730   23.1390 O   0  0  0  0  0  0  0  0  0  0  0  0
  -23.8240  -33.2960   23.6750 H   0  0  0  0  0  0  0  0  0  0  0  0
  -24.6420  -36.0030   22.0500 C   0  0  0  0  0  1  0  0  0  0  0  0
  -25.0660  -35.5490   23.4560 C   0  0  0  0  0  3  0  0  0  0  0  0
  -26.2290  -36.3490   25.4660 C   0  0  0  0  0  1  0  0  0  0  0  0
  -26.0010  -36.5390   24.0360 N   0  0  0  0  0  0  0  0  0  0  0  0
  -25.6580  -37.4850   23.8940 H   0  0  0  0  0  0  0  0  0  0  0  0
  -24.5260  -30.8730   24.6520 C   0  0  1  0  0  0  0  0  0  0  0  0
  -23.0090  -30.6020   24.4650 C   0  0  0  0  0  1  0  0  0  0  0  0
  -25.2910  -29.5520   24.9160 C   0  0  0  0  0  1  0  0  0  0  0  0
  -24.6570  -31.6570   25.9850 C   0  0  0  0  0  1  0  0  0  0  0  0
  1  3  2  0
  2  1  1  0
  4  2  2  0
  4  6  1  0
  5  3  1  0
  5 66  1  0
  6 70  1  0
 11 17  1  0
 12 17  1  0
 13 14  1  0
 13 12  1  0
 15 14  1  0
 15 22  1  0
 15 16  1  0
 17 16  1  0
 18 11  1  0
 19 20  2  0
 20 39  1  0
 21 20  1  0
 21 24  1  0
 22 19  1  0
 22 23  1  0
 23 21  2  0
 24 25  1  0
 25 26  2  0
 27 30  1  0
 27 26  1  0
 28 27  2  0
 29 28  1  0
 29 24  2  0
 30 31  1  0
 31 32  2  0
 31 36  1  0
 32 33  1  0
 33 34  2  0
 34 38  1  0
 35 34  1  0
 36 35  2  0
 37 36  1  0
 39 40  1  0
 40 43  1  0
 40 42  1  0
 41 39  2  0
 44 45  1  0
 44 19  1  0
 46 44  1  0
 51 49  1  0
 51 56  1  0
 52 62  1  0
 52 60  1  0
 53 59  1  0
 53 55  1  0
 55 54  1  0
 55 56  1  0
 57 51  1  0
 58 53  1  0
 58 57  1  0
 59 52  1  0
 60 54  1  0
 60 50  1  0
 61 50  2  0
 62 64  1  0
 62 63  1  0
 65 63  1  0
 66 75  1  0
 66 71  1  0
 68 63  1  0
 68 67  1  0
 69 68  1  0
 70 69  1  0
 70  5  1  0
 71 72  1  0
 72 73  1  0
 74 73  1  0
 75 74  1  0
 76 50  1  0
 76 77  1  0
 76 86  1  0
 77 80  1  0
 78 82  1  0
 78 77  1  0
 79 78  2  0
 82 81  1  0
 82 84  1  0
 84 83  1  0
 85 84  1  0
 86 88  1  1
 86 89  1  0
 87 86  1  0
M  ISO  4  10 100  11 100  48 101  49 101
M  END
>  <TORSDO>  (22) 
F 22

>  <SCORE>  (22) 
-6.477

>  <name>  (22) 
22

>  <ligand_id>  (22) 
22

>  <original_smiles>  (22) 
[H]c1c([H])c([H])c2c(c1[H])C([H])([H])C([H])([H])C([H])([H])C2([H])N([H])C(=O)C1([H])N(C(=O)C([H])(N([H])C(=O)C([H])(N([H])C([H])([H])[H])C([H])([H])[H])C(C([H])([H])[H])(C([H])([H])[H])C([H])([H])[H])C([H])([H])c2c([H])c(OC([H])([H])C([H])([H])C3([H])C([H])([H])C([H])([H])C([H])([H])C([H])([H])C3([H])C([H])([H])C([H])([H])C([H])([H])C([H])([H])C(=O)N3C([H])([H])C([H])([H])C([H])([H])C([H])(n4nc(-c5c([H])c([H])c(Oc6c([H])c([H])c(F)c([H])c6F)c([H])c5[H])c(C(=O)N([H])[H])c4N([H])[H])C3([H])[H])c([H])c([H])c2C1([H])[H]

>  <smiles>  (22) 
[H]c1c([H])c([H])c2c(c1[H])C([H])([H])C([H])([H])C([H])([H])C2([H])N([H])C(=O)C1([H])N(C(=O)C([H])(N([H])C(=O)C([H])(N([H])C([H])([H])[H])C([H])([H])[H])C(C([H])([H])[H])(C([H])([H])[H])C([H])([H])[H])C([H])([H])c2c([H])c(OC([H])([H])C([H])([H])C3([H])C([H])([H])C([H])([H])C([H])([H])C([H])([H])C3([H])C([H])([H])C([H])([H])C([H])([H])C([H])([H])C(=O)N3C([H])([H])C([H])([H])C([H])([H])C([H])(n4nc(-c5c([H])c([H])c(Oc6c([H])c([H])c(F)c([H])c6F)c([H])c5[H])c(C(=O)N([H])[H])c4N([H])[H])C3([H])[H])c([H])c([H])c2C1([H])[H]

$$$$
23:0:0
     RDKit          3D

 90 98  0  0  1  0  0  0  0  0999 V2000
  -29.6360  -21.4660   19.0300 C   0  0  0  0  0  3  0  0  0  0  0  0
  -26.4510  -20.0710   17.3240 C   0  0  0  0  0  2  0  0  0  0  0  0
  -25.8610  -20.8030   18.5380 C   0  0  0  0  0  2  0  0  0  0  0  0
  -27.9580  -20.0170   17.5750 C   0  0  0  0  0  2  0  0  0  0  0  0
  -27.0370  -21.4760   19.2640 C   0  0  0  0  0  2  0  0  0  0  0  0
  -28.2540  -21.3180   18.3330 C   0  0  0  0  0  3  0  0  0  0  0  0
  -29.9810  -20.0440   19.8020 N   0  0  0  0  0  4  0  0  0  0  0  0
  -30.7960  -20.2570   20.3550 H   0  0  0  0  0  0  0  0  0  0  0  0
  -29.2450  -19.9170   20.4740 H   0  0  0  0  0  0  0  0  0  0  0  0
  -30.3230  -18.5390   19.2030 C   0  0  0  0  0  3  0  0  0  0  0  0
  -30.2570  -16.9520   19.9950 C   0  0  0  0  0  3  0  0  0  0  0  0
  -30.9260  -15.3870   19.6470 C   0  0  0  0  0  0  0  0  0  0  0  0
  -30.8360  -12.8830   18.9980 C   0  0  0  0  0  2  0  0  0  0  0  0
  -29.8750  -12.6340   17.8070 C   0  0  0  0  0  2  0  0  0  0  0  0
  -28.4350  -12.4330   18.3080 C   0  0  0  0  0  2  0  0  0  0  0  0
  -28.0400  -13.4860   19.3730 C   0  0  0  0  0  3  0  0  0  0  0  0
  -29.1250  -13.6870   20.4540 C   0  0  0  0  0  2  0  0  0  0  0  0
  -30.3610  -14.0900   19.7660 N   0  0  0  0  0  0  0  0  0  0  0  0
  -32.0960  -15.3510   19.2400 O   0  0  0  0  0  0  0  0  0  0  0  0
  -25.7470  -14.1490   20.2770 C   0  0  0  0  0  0  0  0  0  0  0  0
  -24.6670  -13.4170   20.6840 C   0  0  0  0  0  0  0  0  0  0  0  0
  -25.0560  -12.0460   20.5880 C   0  0  0  0  0  0  0  0  0  0  0  0
  -26.7250  -13.2280   19.9460 N   0  0  0  0  0  0  0  0  0  0  0  0
  -26.3240  -11.9540   20.2000 N   0  0  0  0  0  0  0  0  0  0  0  0
  -24.2720  -10.8190   20.7830 C   0  0  0  0  0  0  0  0  0  0  0  0
  -24.6770   -9.8200   21.6960 C   0  0  0  0  0  3  0  0  0  0  0  0
  -23.8960   -8.6600   21.8820 C   0  0  0  0  0  3  0  0  0  0  0  0
  -22.6940   -8.4910   21.1550 C   0  0  0  0  0  0  0  0  0  0  0  0
  -22.3070   -9.4750   20.2300 C   0  0  0  0  0  3  0  0  0  0  0  0
  -23.0890  -10.6270   20.0430 C   0  0  0  0  0  3  0  0  0  0  0  0
  -21.8830   -7.3840   21.2520 O   0  0  0  0  0  0  0  0  0  0  0  0
  -21.7840   -6.6630   22.4150 C   0  0  0  0  0  0  0  0  0  0  0  0
  -21.3510   -7.2520   23.6220 C   0  0  0  0  0  3  0  0  0  0  0  0
  -21.1970   -6.4590   24.7770 C   0  0  0  0  0  3  0  0  0  0  0  0
  -21.4680   -5.0790   24.7250 C   0  0  0  0  0  0  0  0  0  0  0  0
  -21.8940   -4.4890   23.5220 C   0  0  0  0  0  3  0  0  0  0  0  0
  -22.0500   -5.2800   22.3700 C   0  0  0  0  0  0  0  0  0  0  0  0
  -22.4400   -4.7030   21.2070 F   0  0  0  0  0  0  0  0  0  0  0  0
  -21.3140   -4.3150   25.8320 F   0  0  0  0  0  0  0  0  0  0  0  0
  -23.3150  -13.9590   21.0490 C   0  0  0  0  0  0  0  0  0  0  0  0
  -22.6090  -13.2880   21.9520 N   0  0  0  0  0  0  0  0  0  0  0  0
  -22.8990  -15.0120   20.5670 O   0  0  0  0  0  0  0  0  0  0  0  0
  -22.9630  -12.4360   22.3610 H   0  0  0  0  0  0  0  0  0  0  0  0
  -21.7050  -13.6310   22.2390 H   0  0  0  0  0  0  0  0  0  0  0  0
  -25.9750  -15.5140   20.1320 N   0  0  0  0  0  0  0  0  0  0  0  0
  -25.2520  -16.2020   20.3050 H   0  0  0  0  0  0  0  0  0  0  0  0
  -26.8280  -15.9150   19.7630 H   0  0  0  0  0  0  0  0  0  0  0  0
  -29.6010  -23.1130   19.7140 C   0  0  0  0  0  3  0  0  0  0  0  0
  -28.7190  -24.5850   19.2280 C   0  0  0  0  0  3  0  0  0  0  0  0
  -28.8060  -26.1650   19.6220 O   0  0  0  0  0  0  0  0  0  0  0  0
  -24.6510  -31.4590   22.9570 C   0  0  0  0  0  0  0  0  0  0  0  0
  -27.6930  -27.1410   19.6150 C   0  0  0  0  0  0  0  0  0  0  0  0
  -23.6160  -30.1060   21.1800 C   0  0  0  0  0  3  0  0  0  0  0  0
  -25.2280  -28.7710   19.6630 C   0  0  0  0  0  0  0  0  0  0  0  0
  -26.1510  -30.5690   21.1120 C   0  0  0  0  0  2  0  0  0  0  0  0
  -26.3610  -29.2370   20.3430 C   0  0  0  0  0  0  0  0  0  0  0  0
  -27.5870  -28.4440   20.2960 C   0  0  0  0  0  3  0  0  0  0  0  0
  -26.5190  -26.8130   18.9000 C   0  0  0  0  0  3  0  0  0  0  0  0
  -25.3280  -27.5800   18.9250 C   0  0  0  0  0  3  0  0  0  0  0  0
  -23.9290  -29.5650   19.7570 C   0  0  0  0  0  2  0  0  0  0  0  0
  -24.8240  -30.7350   21.8060 N   0  0  0  0  0  0  0  0  0  0  0  0
  -23.5310  -31.6030   23.4750 O   0  0  0  0  0  0  0  0  0  0  0  0
  -23.0050  -28.9720   22.0400 C   0  0  0  0  0  0  0  0  0  0  0  0
  -21.6990  -28.6980   21.8670 N   0  0  0  0  0  0  0  0  0  0  0  0
  -23.7100  -28.3410   22.8330 O   0  0  0  0  0  0  0  0  0  0  0  0
  -21.1840  -29.2540   21.1990 H   0  0  0  0  0  0  0  0  0  0  0  0
  -18.4230  -27.1840   22.2290 C   0  0  0  0  0  0  0  0  0  0  0  0
  -20.9540  -27.6280   22.5380 C   0  0  0  0  0  3  0  0  0  0  0  0
  -21.1710  -26.2710   21.8310 C   0  0  0  0  0  2  0  0  0  0  0  0
  -20.0990  -25.9580   20.7800 C   0  0  0  0  0  2  0  0  0  0  0  0
  -18.7120  -25.9270   21.4250 C   0  0  0  0  0  2  0  0  0  0  0  0
  -19.4750  -27.9910   22.7390 C   0  0  0  0  0  0  0  0  0  0  0  0
  -19.1510  -29.1630   23.4550 C   0  0  0  0  0  3  0  0  0  0  0  0
  -17.8080  -29.5320   23.6640 C   0  0  0  0  0  3  0  0  0  0  0  0
  -16.7720  -28.7240   23.1670 C   0  0  0  0  0  3  0  0  0  0  0  0
  -17.0800  -27.5510   22.4560 C   0  0  0  0  0  3  0  0  0  0  0  0
  -25.8490  -32.1550   23.6720 C   0  0  0  0  0  3  0  0  0  0  0  0
  -25.4340  -33.5250   24.0200 N   0  0  0  0  0  0  0  0  0  0  0  0
  -25.7960  -34.6290   23.3520 C   0  0  0  0  0  0  0  0  0  0  0  0
  -26.5750  -34.6020   22.3960 O   0  0  0  0  0  0  0  0  0  0  0  0
  -24.7470  -33.6150   24.7540 H   0  0  0  0  0  0  0  0  0  0  0  0
  -24.0370  -36.3720   22.8940 C   0  0  0  0  0  1  0  0  0  0  0  0
  -25.2010  -35.9740   23.8160 C   0  0  0  0  0  3  0  0  0  0  0  0
  -27.1880  -36.9060   24.9170 C   0  0  0  0  0  1  0  0  0  0  0  0
  -26.1910  -37.0720   23.8630 N   0  0  0  0  0  0  0  0  0  0  0  0
  -25.7310  -37.9680   23.9990 H   0  0  0  0  0  0  0  0  0  0  0  0
  -26.3280  -31.3880   24.9660 C   0  0  1  0  0  0  0  0  0  0  0  0
  -25.1870  -31.0730   25.9630 C   0  0  0  0  0  1  0  0  0  0  0  0
  -27.0050  -30.0490   24.5960 C   0  0  0  0  0  1  0  0  0  0  0  0
  -27.3930  -32.2290   25.7080 C   0  0  0  0  0  1  0  0  0  0  0  0
  1 48  1  0
  1  7  1  0
  2  4  1  0
  2  3  1  0
  3  5  1  0
  4  6  1  0
  6  1  1  0
  6  5  1  0
  7  8  1  0
  7  9  1  0
 10  7  1  0
 10 11  2  0
 12 18  1  0
 12 11  1  0
 13 18  1  0
 14 15  1  0
 14 13  1  0
 16 15  1  0
 16 23  1  0
 16 17  1  0
 18 17  1  0
 19 12  2  0
 20 21  2  0
 21 40  1  0
 22 21  1  0
 22 25  1  0
 23 24  1  0
 23 20  1  0
 24 22  2  0
 25 26  1  0
 26 27  2  0
 28 31  1  0
 28 27  1  0
 29 28  2  0
 30 29  1  0
 30 25  2  0
 31 32  1  0
 32 33  1  0
 33 34  2  0
 35 34  1  0
 35 39  1  0
 36 35  2  0
 37 32  2  0
 37 36  1  0
 38 37  1  0
 40 41  1  0
 41 44  1  0
 41 43  1  0
 42 40  2  0
 45 20  1  0
 45 46  1  0
 47 45  1  0
 49 50  1  0
 49 48  2  0
 51 62  2  0
 52 50  1  0
 52 57  1  0
 53 61  1  0
 53 63  1  0
 54 60  1  0
 54 56  1  0
 55 61  1  0
 56 55  1  0
 57 56  2  0
 58 59  1  0
 58 52  2  0
 59 54  2  0
 60 53  1  0
 61 51  1  0
 63 65  2  0
 64 63  1  0
 66 64  1  0
 67 76  2  0
 67 72  1  0
 68 64  1  0
 68 72  1  0
 69 68  1  0
 70 71  1  0
 70 69  1  0
 71 67  1  0
 72 73  2  0
 73 74  1  0
 75 74  2  0
 76 75  1  0
 77 51  1  0
 77 78  1  0
 77 87  1  0
 78 81  1  0
 79 83  1  0
 79 78  1  0
 80 79  2  0
 83 82  1  0
 83 85  1  0
 85 86  1  0
 85 84  1  0
 87 90  1  1
 87 88  1  0
 89 87  1  0
M  ISO  4  11 100  12 100  49 101  50 101
M  END
>  <TORSDO>  (23) 
F 22

>  <SCORE>  (23) 
-13.169

>  <name>  (23) 
23

>  <ligand_id>  (23) 
23

>  <original_smiles>  (23) 
[H]c1c([H])c([H])c2c(c1[H])C([H])([H])C([H])([H])C([H])([H])C2([H])N([H])C(=O)C1([H])N(C(=O)C([H])(N([H])C(=O)C([H])(N([H])C([H])([H])[H])C([H])([H])[H])C(C([H])([H])[H])(C([H])([H])[H])C([H])([H])[H])C([H])([H])c2c([H])c(OC([H])([H])C([H])([H])C([H])(C3([H])C([H])([H])C([H])([H])C([H])([H])C3([H])[H])[N+]([H])([H])C([H])([H])C([H])([H])C(=O)N3C([H])([H])C([H])([H])C([H])([H])C([H])(n4nc(-c5c([H])c([H])c(Oc6c([H])c([H])c(F)c([H])c6F)c([H])c5[H])c(C(=O)N([H])[H])c4N([H])[H])C3([H])[H])c([H])c([H])c2C1([H])[H]

>  <smiles>  (23) 
[H]c1c([H])c([H])c2c(c1[H])C([H])([H])C([H])([H])C([H])([H])C2([H])N([H])C(=O)C1([H])N(C(=O)C([H])(N([H])C(=O)C([H])(N([H])C([H])([H])[H])C([H])([H])[H])C(C([H])([H])[H])(C([H])([H])[H])C([H])([H])[H])C([H])([H])c2c([H])c(OC([H])([H])C([H])([H])C([H])(C3([H])C([H])([H])C([H])([H])C([H])([H])C3([H])[H])[N+]([H])([H])C([H])([H])C([H])([H])C(=O)N3C([H])([H])C([H])([H])C([H])([H])C([H])(n4nc(-c5c([H])c([H])c(Oc6c([H])c([H])c(F)c([H])c6F)c([H])c5[H])c(C(=O)N([H])[H])c4N([H])[H])C3([H])[H])c([H])c([H])c2C1([H])[H]

$$$$
24:0:0
     RDKit          3D

 89 98  0  0  1  0  0  0  0  0999 V2000
  -30.3930  -21.8820   19.5470 C   0  0  0  0  0  0  0  0  0  0  0  0
  -30.3300  -23.0060   20.6110 C   0  0  0  0  0  2  0  0  0  0  0  0
  -28.6970  -19.6060   17.9890 C   0  0  0  0  0  2  0  0  0  0  0  0
  -28.7120  -18.2750   18.7930 C   0  0  0  0  0  2  0  0  0  0  0  0
  -28.1860  -20.8760   18.7430 C   0  0  0  0  0  2  0  0  0  0  0  0
  -29.3150  -19.7830   20.7630 C   0  0  0  0  0  2  0  0  0  0  0  0
  -28.7890  -22.9520   20.5660 C   0  0  0  0  0  3  0  0  0  0  0  0
  -29.6750  -18.2630   19.9990 C   0  0  0  0  0  3  0  0  0  0  0  0
  -29.0170  -21.3020   19.9690 C   0  0  1  0  0  0  0  0  0  0  0  0
  -31.2110  -21.6070   18.6690 O   0  0  0  0  0  0  0  0  0  0  0  0
  -29.7130  -16.6420   20.6960 C   0  0  0  0  0  2  0  0  0  0  0  0
  -30.4440  -15.1540   20.2260 C   0  0  0  0  0  0  0  0  0  0  0  0
  -30.3740  -12.7450   19.3070 C   0  0  0  0  0  2  0  0  0  0  0  0
  -29.4390  -12.6470   18.0770 C   0  0  0  0  0  2  0  0  0  0  0  0
  -27.9830  -12.4080   18.5150 C   0  0  0  0  0  2  0  0  0  0  0  0
  -27.5690  -13.3390   19.6830 C   0  0  0  0  0  3  0  0  0  0  0  0
  -28.6280  -13.3980   20.8040 C   0  0  0  0  0  2  0  0  0  0  0  0
  -29.8850  -13.8560   20.1950 N   0  0  0  0  0  0  0  0  0  0  0  0
  -31.6250  -15.1840   19.8510 O   0  0  0  0  0  0  0  0  0  0  0  0
  -25.1960  -13.9070   20.4370 C   0  0  0  0  0  0  0  0  0  0  0  0
  -24.1350  -13.1320   20.8140 C   0  0  0  0  0  0  0  0  0  0  0  0
  -24.6000  -11.7810   20.7870 C   0  0  0  0  0  0  0  0  0  0  0  0
  -26.2370  -13.0300   20.1930 N   0  0  0  0  0  0  0  0  0  0  0  0
  -25.8900  -11.7450   20.4700 N   0  0  0  0  0  0  0  0  0  0  0  0
  -23.8730  -10.5200   20.9870 C   0  0  0  0  0  0  0  0  0  0  0  0
  -24.3090   -9.5530   21.9190 C   0  0  0  0  0  3  0  0  0  0  0  0
  -23.5800   -8.3590   22.1070 C   0  0  0  0  0  3  0  0  0  0  0  0
  -22.4000   -8.1230   21.3630 C   0  0  0  0  0  0  0  0  0  0  0  0
  -21.9820   -9.0780   20.4200 C   0  0  0  0  0  3  0  0  0  0  0  0
  -22.7120  -10.2640   20.2300 C   0  0  0  0  0  3  0  0  0  0  0  0
  -21.6420   -6.9810   21.4600 O   0  0  0  0  0  0  0  0  0  0  0  0
  -21.6040   -6.2380   22.6130 C   0  0  0  0  0  0  0  0  0  0  0  0
  -21.1970   -6.7940   23.8450 C   0  0  0  0  0  3  0  0  0  0  0  0
  -21.1050   -5.9780   24.9900 C   0  0  0  0  0  3  0  0  0  0  0  0
  -21.4120   -4.6070   24.9040 C   0  0  0  0  0  0  0  0  0  0  0  0
  -21.8120   -4.0500   23.6770 C   0  0  0  0  0  3  0  0  0  0  0  0
  -21.9040   -4.8630   22.5340 C   0  0  0  0  0  0  0  0  0  0  0  0
  -22.2700   -4.3170   21.3500 F   0  0  0  0  0  0  0  0  0  0  0  0
  -21.3170   -3.8210   26.0020 F   0  0  0  0  0  0  0  0  0  0  0  0
  -22.7380  -13.6110   21.0870 C   0  0  0  0  0  0  0  0  0  0  0  0
  -22.0130  -12.9190   21.9600 N   0  0  0  0  0  0  0  0  0  0  0  0
  -22.3000  -14.6340   20.5630 O   0  0  0  0  0  0  0  0  0  0  0  0
  -22.3820  -12.0930   22.4060 H   0  0  0  0  0  0  0  0  0  0  0  0
  -21.0770  -13.2230   22.1860 H   0  0  0  0  0  0  0  0  0  0  0  0
  -25.3580  -15.2770   20.2550 N   0  0  0  0  0  0  0  0  0  0  0  0
  -24.5940  -15.9330   20.3720 H   0  0  0  0  0  0  0  0  0  0  0  0
  -26.2090  -15.7150   19.9270 H   0  0  0  0  0  0  0  0  0  0  0  0
  -28.0500  -24.4190   19.9440 C   0  0  0  0  0  2  0  0  0  0  0  0
  -28.2090  -25.9820   20.3160 O   0  0  0  0  0  0  0  0  0  0  0  0
  -24.6240  -31.8440   23.2370 C   0  0  0  0  0  0  0  0  0  0  0  0
  -27.1830  -27.0320   20.2150 C   0  0  0  0  0  0  0  0  0  0  0  0
  -23.4240  -30.4470   21.6000 C   0  0  0  0  0  3  0  0  0  0  0  0
  -24.8710  -28.8560   20.1720 C   0  0  0  0  0  0  0  0  0  0  0  0
  -25.9840  -30.6800   21.4440 C   0  0  0  0  0  2  0  0  0  0  0  0
  -26.0540  -29.2780   20.7890 C   0  0  0  0  0  0  0  0  0  0  0  0
  -27.2050  -28.3830   20.7920 C   0  0  0  0  0  3  0  0  0  0  0  0
  -25.9740  -26.7460   19.5400 C   0  0  0  0  0  3  0  0  0  0  0  0
  -24.8510  -27.6080   19.5280 C   0  0  0  0  0  3  0  0  0  0  0  0
  -23.6470  -29.7660   20.2220 C   0  0  0  0  0  2  0  0  0  0  0  0
  -24.6980  -31.0160   22.1470 N   0  0  0  0  0  0  0  0  0  0  0  0
  -23.5370  -32.1330   23.7620 O   0  0  0  0  0  0  0  0  0  0  0  0
  -22.7380  -29.4470   22.5660 C   0  0  0  0  0  0  0  0  0  0  0  0
  -21.4080  -29.2810   22.4440 N   0  0  0  0  0  0  0  0  0  0  0  0
  -23.4070  -28.8230   23.3940 O   0  0  0  0  0  0  0  0  0  0  0  0
  -20.9220  -29.8390   21.7540 H   0  0  0  0  0  0  0  0  0  0  0  0
  -18.0260  -28.0740   22.9510 C   0  0  0  0  0  0  0  0  0  0  0  0
  -20.5850  -28.3460   23.2180 C   0  0  0  0  0  3  0  0  0  0  0  0
  -20.6900  -26.9120   22.6500 C   0  0  0  0  0  2  0  0  0  0  0  0
  -19.5910  -26.5820   21.6360 C   0  0  0  0  0  2  0  0  0  0  0  0
  -18.2080  -26.7240   22.2770 C   0  0  0  0  0  2  0  0  0  0  0  0
  -19.1420  -28.8430   23.3780 C   0  0  0  0  0  0  0  0  0  0  0  0
  -18.9180  -30.1040   23.9720 C   0  0  0  0  0  3  0  0  0  0  0  0
  -17.6100  -30.5990   24.1390 C   0  0  0  0  0  3  0  0  0  0  0  0
  -16.5090  -29.8290   23.7270 C   0  0  0  0  0  3  0  0  0  0  0  0
  -16.7180  -28.5670   23.1390 C   0  0  0  0  0  3  0  0  0  0  0  0
  -25.9000  -32.4840   23.8640 C   0  0  0  0  0  3  0  0  0  0  0  0
  -25.5880  -33.8850   24.1910 N   0  0  0  0  0  0  0  0  0  0  0  0
  -25.9160  -34.9410   23.4340 C   0  0  0  0  0  0  0  0  0  0  0  0
  -26.5760  -34.8370   22.3970 O   0  0  0  0  0  0  0  0  0  0  0  0
  -24.9980  -34.0400   24.9960 H   0  0  0  0  0  0  0  0  0  0  0  0
  -24.1830  -36.7400   23.1070 C   0  0  0  0  0  1  0  0  0  0  0  0
  -25.4370  -36.3320   23.8980 C   0  0  0  0  0  3  0  0  0  0  0  0
  -27.5830  -37.2210   24.6960 C   0  0  0  0  0  1  0  0  0  0  0  0
  -26.4680  -37.3850   23.7680 N   0  0  0  0  0  0  0  0  0  0  0  0
  -26.0650  -38.3060   23.9190 H   0  0  0  0  0  0  0  0  0  0  0  0
  -26.4040  -31.7220   25.1530 C   0  0  1  0  0  0  0  0  0  0  0  0
  -25.3040  -31.5020   26.2170 C   0  0  0  0  0  1  0  0  0  0  0  0
  -26.9840  -30.3370   24.7850 C   0  0  0  0  0  1  0  0  0  0  0  0
  -27.5560  -32.5180   25.8130 C   0  0  0  0  0  1  0  0  0  0  0  0
  1  9  1  0
  1  2  1  0
  3  5  1  0
  3  4  1  0
  4  8  1  0
  7 48  1  0
  7  2  1  0
  8 11  1  0
  8  6  1  0
  9  5  1  6
  9  7  1  0
  9  6  1  0
 10  1  2  0
 12 11  1  0
 13 18  1  0
 14 15  1  0
 14 13  1  0
 16 15  1  0
 16 23  1  0
 16 17  1  0
 18 12  1  0
 18 17  1  0
 19 12  2  0
 20 21  2  0
 21 40  1  0
 22 21  1  0
 22 25  1  0
 23 20  1  0
 23 24  1  0
 24 22  2  0
 25 26  1  0
 26 27  2  0
 28 31  1  0
 28 27  1  0
 29 28  2  0
 30 29  1  0
 30 25  2  0
 31 32  1  0
 32 33  1  0
 33 34  2  0
 35 34  1  0
 35 39  1  0
 36 35  2  0
 37 32  2  0
 37 36  1  0
 38 37  1  0
 40 41  1  0
 41 44  1  0
 41 43  1  0
 42 40  2  0
 45 46  1  0
 45 20  1  0
 47 45  1  0
 48 49  1  0
 50 61  2  0
 51 49  1  0
 51 56  1  0
 52 60  1  0
 52 62  1  0
 53 59  1  0
 53 55  1  0
 54 60  1  0
 55 56  2  0
 55 54  1  0
 57 51  2  0
 58 57  1  0
 58 53  2  0
 59 52  1  0
 60 50  1  0
 62 64  2  0
 63 62  1  0
 65 63  1  0
 66 75  2  0
 66 71  1  0
 67 63  1  0
 67 71  1  0
 68 67  1  0
 69 70  1  0
 69 68  1  0
 70 66  1  0
 71 72  2  0
 72 73  1  0
 74 73  2  0
 75 74  1  0
 76 50  1  0
 76 77  1  0
 76 86  1  0
 77 80  1  0
 78 82  1  0
 78 77  1  0
 79 78  2  0
 82 81  1  0
 84 82  1  0
 84 85  1  0
 84 83  1  0
 86 89  1  1
 86 87  1  0
 88 86  1  0
M  ISO  4  11 100  12 100  48 101  49 101
M  END
>  <TORSDO>  (24) 
F 18

>  <SCORE>  (24) 
-16.264

>  <name>  (24) 
24

>  <ligand_id>  (24) 
24

>  <original_smiles>  (24) 
[H]c1c([H])c([H])c2c(c1[H])C([H])([H])C([H])([H])C([H])([H])C2([H])N([H])C(=O)C1([H])N(C(=O)C([H])(N([H])C(=O)C([H])(N([H])C([H])([H])[H])C([H])([H])[H])C(C([H])([H])[H])(C([H])([H])[H])C([H])([H])[H])C([H])([H])c2c([H])c(OC([H])([H])C3([H])C([H])([H])C(=O)C34C([H])([H])C([H])([H])C([H])([H])C([H])(C([H])([H])C(=O)N3C([H])([H])C([H])([H])C([H])([H])C([H])(n5nc(-c6c([H])c([H])c(Oc7c([H])c([H])c(F)c([H])c7F)c([H])c6[H])c(C(=O)N([H])[H])c5N([H])[H])C3([H])[H])C4([H])[H])c([H])c([H])c2C1([H])[H]

>  <smiles>  (24) 
[H]c1c([H])c([H])c2c(c1[H])C([H])([H])C([H])([H])C([H])([H])C2([H])N([H])C(=O)C1([H])N(C(=O)C([H])(N([H])C(=O)C([H])(N([H])C([H])([H])[H])C([H])([H])[H])C(C([H])([H])[H])(C([H])([H])[H])C([H])([H])[H])C([H])([H])c2c([H])c(OC([H])([H])C3([H])C([H])([H])C(=O)C34C([H])([H])C([H])([H])C([H])([H])C([H])(C([H])([H])C(=O)N3C([H])([H])C([H])([H])C([H])([H])C([H])(n5nc(-c6c([H])c([H])c(Oc7c([H])c([H])c(F)c([H])c7F)c([H])c6[H])c(C(=O)N([H])[H])c5N([H])[H])C3([H])[H])C4([H])[H])c([H])c([H])c2C1([H])[H]

$$$$
25:0:0
     RDKit          3D

 95103  0  0  1  0  0  0  0  0999 V2000
  -30.1250  -20.9860   21.2520 C   0  0  0  0  0  2  0  0  0  0  0  0
  -30.2620  -22.5080   21.1800 C   0  0  0  0  0  2  0  0  0  0  0  0
  -28.9620  -21.8170   19.2650 C   0  0  0  0  0  2  0  0  0  0  0  0
  -28.9800  -20.6410   20.2840 C   0  0  0  0  0  3  0  0  0  0  0  0
  -30.0750  -22.7990   19.6910 C   0  0  0  0  0  3  0  0  0  0  0  0
  -29.7950  -24.2220   19.3790 N   0  0  0  0  0  4  0  0  0  0  0  0
  -28.9710  -24.5360   19.8690 H   0  0  0  0  0  0  0  0  0  0  0  0
  -29.6020  -24.2880   18.3920 H   0  0  0  0  0  0  0  0  0  0  0  0
  -30.9180  -25.1460   19.6790 C   0  0  0  0  0  2  0  0  0  0  0  0
  -30.6490  -26.5970   19.2280 C   0  0  0  0  0  2  0  0  0  0  0  0
  -29.6670  -27.3690   20.1230 C   0  0  0  0  0  2  0  0  0  0  0  0
  -28.4090  -26.7080   20.0780 O   0  0  0  0  0  0  0  0  0  0  0  0
  -24.5810  -31.8810   23.2380 C   0  0  0  0  0  0  0  0  0  0  0  0
  -27.2670  -27.4720   20.1630 C   0  0  0  0  0  0  0  0  0  0  0  0
  -23.3830  -30.4690   21.5920 C   0  0  0  0  0  3  0  0  0  0  0  0
  -24.8490  -28.9300   20.1830 C   0  0  0  0  0  0  0  0  0  0  0  0
  -25.9010  -30.8470   21.3960 C   0  0  0  0  0  2  0  0  0  0  0  0
  -25.9980  -29.4720   20.7730 C   0  0  0  0  0  0  0  0  0  0  0  0
  -27.2080  -28.7490   20.7720 C   0  0  0  0  0  3  0  0  0  0  0  0
  -26.0970  -26.9280   19.5990 C   0  0  0  0  0  3  0  0  0  0  0  0
  -24.8900  -27.6510   19.5980 C   0  0  0  0  0  3  0  0  0  0  0  0
  -23.5990  -29.7800   20.2160 C   0  0  0  0  0  2  0  0  0  0  0  0
  -24.6400  -31.0820   22.1350 N   0  0  0  0  0  0  0  0  0  0  0  0
  -23.4990  -32.1520   23.7740 O   0  0  0  0  0  0  0  0  0  0  0  0
  -22.7340  -29.4500   22.5560 C   0  0  0  0  0  0  0  0  0  0  0  0
  -21.4110  -29.2670   22.4210 N   0  0  0  0  0  0  0  0  0  0  0  0
  -23.4170  -28.8260   23.3720 O   0  0  0  0  0  0  0  0  0  0  0  0
  -20.9260  -29.8240   21.7310 H   0  0  0  0  0  0  0  0  0  0  0  0
  -18.0350  -28.0870   22.9130 C   0  0  0  0  0  0  0  0  0  0  0  0
  -20.5920  -28.3300   23.1880 C   0  0  0  0  0  3  0  0  0  0  0  0
  -20.6870  -26.9000   22.6080 C   0  0  0  0  0  2  0  0  0  0  0  0
  -19.5850  -26.5870   21.5910 C   0  0  0  0  0  2  0  0  0  0  0  0
  -18.2040  -26.7380   22.2320 C   0  0  0  0  0  2  0  0  0  0  0  0
  -19.1570  -28.8400   23.3470 C   0  0  0  0  0  0  0  0  0  0  0  0
  -18.9460  -30.1030   23.9410 C   0  0  0  0  0  3  0  0  0  0  0  0
  -17.6450  -30.6120   24.1080 C   0  0  0  0  0  3  0  0  0  0  0  0
  -16.5370  -29.8540   23.6930 C   0  0  0  0  0  3  0  0  0  0  0  0
  -16.7320  -28.5930   23.0990 C   0  0  0  0  0  3  0  0  0  0  0  0
  -25.8670  -32.5110   23.8620 C   0  0  0  0  0  3  0  0  0  0  0  0
  -25.5610  -33.9100   24.1880 N   0  0  0  0  0  0  0  0  0  0  0  0
  -25.9010  -34.9590   23.4270 C   0  0  0  0  0  0  0  0  0  0  0  0
  -26.5790  -34.8520   22.4010 O   0  0  0  0  0  0  0  0  0  0  0  0
  -24.9610  -34.0690   24.9840 H   0  0  0  0  0  0  0  0  0  0  0  0
  -24.1810  -36.7520   23.0380 C   0  0  0  0  0  1  0  0  0  0  0  0
  -25.4080  -36.3470   23.8720 C   0  0  0  0  0  3  0  0  0  0  0  0
  -27.5340  -37.2270   24.7330 C   0  0  0  0  0  1  0  0  0  0  0  0
  -26.4450  -37.3980   23.7750 N   0  0  0  0  0  0  0  0  0  0  0  0
  -26.0400  -38.3200   23.9160 H   0  0  0  0  0  0  0  0  0  0  0  0
  -26.3830  -31.7410   25.1390 C   0  0  1  0  0  0  0  0  0  0  0  0
  -25.2890  -31.5060   26.2060 C   0  0  0  0  0  1  0  0  0  0  0  0
  -26.9650  -30.3630   24.7440 C   0  0  0  0  0  1  0  0  0  0  0  0
  -27.5310  -32.5360   25.8040 C   0  0  0  0  0  1  0  0  0  0  0  0
  -27.7860  -18.9430   18.8260 C   0  0  0  0  0  1  0  0  0  0  0  0
  -29.0720  -19.2320   19.6280 C   0  0  0  0  0  3  0  0  0  0  0  0
  -29.3300  -18.1610   20.6370 N   0  0  0  0  0  4  0  0  0  0  0  0
  -30.0330  -18.5080   21.2720 H   0  0  0  0  0  0  0  0  0  0  0  0
  -28.4940  -18.0040   21.1780 H   0  0  0  0  0  0  0  0  0  0  0  0
  -29.8370  -16.8750   20.0750 C   0  0  0  0  0  2  0  0  0  0  0  0
  -30.0140  -15.7450   21.1290 C   0  0  0  0  0  2  0  0  0  0  0  0
  -30.6810  -14.4930   20.5130 C   0  0  0  0  0  0  0  0  0  0  0  0
  -30.3880  -12.3420   19.3420 C   0  0  0  0  0  2  0  0  0  0  0  0
  -29.4510  -12.5650   18.1360 C   0  0  0  0  0  2  0  0  0  0  0  0
  -27.9730  -12.4380   18.5520 C   0  0  0  0  0  2  0  0  0  0  0  0
  -27.6330  -13.2500   19.8310 C   0  0  0  0  0  3  0  0  0  0  0  0
  -28.6850  -13.0010   20.9350 C   0  0  0  0  0  2  0  0  0  0  0  0
  -30.0110  -13.3140   20.3820 N   0  0  0  0  0  0  0  0  0  0  0  0
  -31.8080  -14.6510   20.0370 O   0  0  0  0  0  0  0  0  0  0  0  0
  -25.2260  -13.8500   20.5100 C   0  0  0  0  0  0  0  0  0  0  0  0
  -24.1570  -13.0760   20.8740 C   0  0  0  0  0  0  0  0  0  0  0  0
  -24.6230  -11.7260   20.8570 C   0  0  0  0  0  0  0  0  0  0  0  0
  -26.2770  -12.9710   20.2990 N   0  0  0  0  0  0  0  0  0  0  0  0
  -25.9160  -11.6890   20.5630 N   0  0  0  0  0  0  0  0  0  0  0  0
  -23.8980  -10.4630   21.0520 C   0  0  0  0  0  0  0  0  0  0  0  0
  -24.3350   -9.4990   21.9860 C   0  0  0  0  0  3  0  0  0  0  0  0
  -23.6140   -8.2990   22.1660 C   0  0  0  0  0  3  0  0  0  0  0  0
  -22.4410   -8.0560   21.4140 C   0  0  0  0  0  0  0  0  0  0  0  0
  -22.0210   -9.0110   20.4700 C   0  0  0  0  0  3  0  0  0  0  0  0
  -22.7430  -10.2020   20.2870 C   0  0  0  0  0  3  0  0  0  0  0  0
  -21.6930   -6.9080   21.5020 O   0  0  0  0  0  0  0  0  0  0  0  0
  -21.6590   -6.1560   22.6480 C   0  0  0  0  0  0  0  0  0  0  0  0
  -21.2540   -6.7040   23.8850 C   0  0  0  0  0  3  0  0  0  0  0  0
  -21.1660   -5.8790   25.0250 C   0  0  0  0  0  3  0  0  0  0  0  0
  -21.4710   -4.5080   24.9300 C   0  0  0  0  0  0  0  0  0  0  0  0
  -21.8690   -3.9620   23.6970 C   0  0  0  0  0  3  0  0  0  0  0  0
  -21.9590   -4.7820   22.5590 C   0  0  0  0  0  0  0  0  0  0  0  0
  -22.3210   -4.2440   21.3690 F   0  0  0  0  0  0  0  0  0  0  0  0
  -21.3810   -3.7150   26.0230 F   0  0  0  0  0  0  0  0  0  0  0  0
  -22.7540  -13.5500   21.1260 C   0  0  0  0  0  0  0  0  0  0  0  0
  -22.0200  -12.8590   21.9880 N   0  0  0  0  0  0  0  0  0  0  0  0
  -22.3140  -14.5690   20.5940 O   0  0  0  0  0  0  0  0  0  0  0  0
  -22.3900  -12.0380   22.4440 H   0  0  0  0  0  0  0  0  0  0  0  0
  -21.0780  -13.1600   22.1950 H   0  0  0  0  0  0  0  0  0  0  0  0
  -25.3870  -15.2190   20.3170 N   0  0  0  0  0  0  0  0  0  0  0  0
  -24.6060  -15.8640   20.3780 H   0  0  0  0  0  0  0  0  0  0  0  0
  -26.2270  -15.6470   19.9500 H   0  0  0  0  0  0  0  0  0  0  0  0
  2  1  1  0
  3  5  1  0
  3  4  1  0
  4 54  1  0
  4  1  1  0
  5  6  1  0
  5  2  1  0
  6  9  1  0
  6  7  1  0
  8  6  1  0
 10  9  1  0
 10 11  1  0
 12 11  1  0
 12 14  1  0
 13 24  2  0
 14 19  1  0
 15 23  1  0
 15 25  1  0
 16 22  1  0
 16 18  1  0
 17 23  1  0
 18 17  1  0
 19 18  2  0
 20 14  2  0
 21 20  1  0
 21 16  2  0
 22 15  1  0
 23 13  1  0
 25 27  2  0
 26 25  1  0
 28 26  1  0
 29 38  2  0
 29 34  1  0
 30 26  1  0
 30 34  1  0
 31 30  1  0
 32 33  1  0
 32 31  1  0
 33 29  1  0
 34 35  2  0
 35 36  1  0
 37 36  2  0
 38 37  1  0
 39 13  1  0
 39 40  1  0
 39 49  1  0
 40 43  1  0
 41 45  1  0
 41 40  1  0
 42 41  2  0
 45 44  1  0
 47 45  1  0
 47 48  1  0
 47 46  1  0
 49 52  1  1
 49 50  1  0
 51 49  1  0
 54 53  1  0
 54 55  1  0
 55 57  1  0
 55 56  1  0
 58 55  1  0
 58 59  1  0
 60 59  1  0
 61 66  1  0
 62 63  1  0
 62 61  1  0
 64 63  1  0
 64 71  1  0
 64 65  1  0
 66 60  1  0
 66 65  1  0
 67 60  2  0
 68 69  2  0
 69 88  1  0
 70 69  1  0
 70 73  1  0
 71 68  1  0
 71 72  1  0
 72 70  2  0
 73 74  1  0
 74 75  2  0
 76 79  1  0
 76 75  1  0
 77 76  2  0
 78 77  1  0
 78 73  2  0
 79 80  1  0
 80 81  1  0
 81 82  2  0
 83 82  1  0
 83 87  1  0
 84 83  2  0
 85 80  2  0
 85 84  1  0
 86 85  1  0
 88 89  1  0
 89 92  1  0
 89 91  1  0
 90 88  2  0
 93 94  1  0
 93 68  1  0
 95 93  1  0
M  ISO  4  11 101  12 101  59 100  60 100
M  END
>  <TORSDO>  (25) 
F 24

>  <SCORE>  (25) 
-12.735

>  <name>  (25) 
25

>  <ligand_id>  (25) 
25

>  <original_smiles>  (25) 
[H]c1c([H])c([H])c2c(c1[H])C([H])([H])C([H])([H])C([H])([H])C2([H])N([H])C(=O)C1([H])N(C(=O)C([H])(N([H])C(=O)C([H])(N([H])C([H])([H])[H])C([H])([H])[H])C(C([H])([H])[H])(C([H])([H])[H])C([H])([H])[H])C([H])([H])c2c([H])c(OC([H])([H])C([H])([H])C([H])([H])[N+]([H])([H])C3([H])C([H])([H])C([H])([H])C([H])(C([H])(C([H])([H])[H])[N+]([H])([H])C([H])([H])C([H])([H])C(=O)N4C([H])([H])C([H])([H])C([H])([H])C([H])(n5nc(-c6c([H])c([H])c(Oc7c([H])c([H])c(F)c([H])c7F)c([H])c6[H])c(C(=O)N([H])[H])c5N([H])[H])C4([H])[H])C3([H])[H])c([H])c([H])c2C1([H])[H]

>  <smiles>  (25) 
[H]c1c([H])c([H])c2c(c1[H])C([H])([H])C([H])([H])C([H])([H])C2([H])N([H])C(=O)C1([H])N(C(=O)C([H])(N([H])C(=O)C([H])(N([H])C([H])([H])[H])C([H])([H])[H])C(C([H])([H])[H])(C([H])([H])[H])C([H])([H])[H])C([H])([H])c2c([H])c(OC([H])([H])C([H])([H])C([H])([H])[N+]([H])([H])C3([H])C([H])([H])C([H])([H])C([H])(C([H])(C([H])([H])[H])[N+]([H])([H])C([H])([H])C([H])([H])C(=O)N4C([H])([H])C([H])([H])C([H])([H])C([H])(n5nc(-c6c([H])c([H])c(Oc7c([H])c([H])c(F)c([H])c7F)c([H])c6[H])c(C(=O)N([H])[H])c5N([H])[H])C4([H])[H])C3([H])[H])c([H])c([H])c2C1([H])[H]

$$$$
26:0:0
     RDKit          3D

 89 97  0  0  1  0  0  0  0  0999 V2000
  -29.4750  -20.6860   19.9270 N   0  0  0  0  0  4  0  0  0  0  0  0
  -28.9390  -20.5130   19.0910 H   0  0  0  0  0  0  0  0  0  0  0  0
  -30.3990  -20.9300   19.6160 H   0  0  0  0  0  0  0  0  0  0  0  0
  -30.8150  -19.3250   21.6120 C   0  0  0  0  0  2  0  0  0  0  0  0
  -31.5360  -18.3720   20.6360 C   0  0  0  0  0  3  0  0  0  0  0  0
  -30.1620  -17.8650   20.1420 C   0  0  0  0  0  3  0  0  0  0  0  0
  -29.5670  -19.3240   20.7180 C   0  0  0  0  0  3  0  0  0  0  0  0
  -32.5280  -18.9510   19.6240 C   0  0  0  0  0  1  0  0  0  0  0  0
  -29.7370  -16.3230   20.6320 C   0  0  0  0  0  2  0  0  0  0  0  0
  -30.5370  -14.9190   20.2990 C   0  0  0  0  0  0  0  0  0  0  0  0
  -30.3720  -12.6010   19.3120 C   0  0  0  0  0  2  0  0  0  0  0  0
  -29.4260  -12.6550   18.0890 C   0  0  0  0  0  2  0  0  0  0  0  0
  -27.9610  -12.4530   18.5170 C   0  0  0  0  0  2  0  0  0  0  0  0
  -27.5840  -13.3350   19.7350 C   0  0  0  0  0  3  0  0  0  0  0  0
  -28.6500  -13.2850   20.8510 C   0  0  0  0  0  2  0  0  0  0  0  0
  -29.9420  -13.6650   20.2610 N   0  0  0  0  0  0  0  0  0  0  0  0
  -31.7200  -14.9900   19.9450 O   0  0  0  0  0  0  0  0  0  0  0  0
  -25.2070  -13.9240   20.4840 C   0  0  0  0  0  0  0  0  0  0  0  0
  -24.1410  -13.1540   20.8550 C   0  0  0  0  0  0  0  0  0  0  0  0
  -24.5990  -11.7990   20.8210 C   0  0  0  0  0  0  0  0  0  0  0  0
  -26.2460  -13.0420   20.2380 N   0  0  0  0  0  0  0  0  0  0  0  0
  -25.8900  -11.7580   20.5080 N   0  0  0  0  0  0  0  0  0  0  0  0
  -23.8690  -10.5410   21.0150 C   0  0  0  0  0  0  0  0  0  0  0  0
  -24.2940   -9.5790   21.9580 C   0  0  0  0  0  3  0  0  0  0  0  0
  -23.5620   -8.3850   22.1390 C   0  0  0  0  0  3  0  0  0  0  0  0
  -22.3930   -8.1460   21.3780 C   0  0  0  0  0  0  0  0  0  0  0  0
  -21.9870   -9.0980   20.4250 C   0  0  0  0  0  3  0  0  0  0  0  0
  -22.7170  -10.2830   20.2440 C   0  0  0  0  0  3  0  0  0  0  0  0
  -21.6330   -7.0040   21.4670 O   0  0  0  0  0  0  0  0  0  0  0  0
  -21.5680   -6.2700   22.6240 C   0  0  0  0  0  0  0  0  0  0  0  0
  -21.1170   -6.8310   23.8380 C   0  0  0  0  0  3  0  0  0  0  0  0
  -21.0040   -6.0230   24.9870 C   0  0  0  0  0  3  0  0  0  0  0  0
  -21.3300   -4.6560   24.9230 C   0  0  0  0  0  0  0  0  0  0  0  0
  -21.7710   -4.0940   23.7120 C   0  0  0  0  0  3  0  0  0  0  0  0
  -21.8880   -4.8980   22.5650 C   0  0  0  0  0  0  0  0  0  0  0  0
  -22.2960   -4.3480   21.3960 F   0  0  0  0  0  0  0  0  0  0  0  0
  -21.2090   -3.8770   26.0240 F   0  0  0  0  0  0  0  0  0  0  0  0
  -22.7450  -13.6330   21.1310 C   0  0  0  0  0  0  0  0  0  0  0  0
  -22.0190  -12.9350   21.9950 N   0  0  0  0  0  0  0  0  0  0  0  0
  -22.3070  -14.6620   20.6140 O   0  0  0  0  0  0  0  0  0  0  0  0
  -22.3890  -12.1060   22.4360 H   0  0  0  0  0  0  0  0  0  0  0  0
  -21.0810  -13.2340   22.2200 H   0  0  0  0  0  0  0  0  0  0  0  0
  -25.3760  -15.2940   20.3060 N   0  0  0  0  0  0  0  0  0  0  0  0
  -24.6170  -15.9560   20.4230 H   0  0  0  0  0  0  0  0  0  0  0  0
  -26.2320  -15.7320   19.9880 H   0  0  0  0  0  0  0  0  0  0  0  0
  -28.8520  -21.9750   20.5820 C   0  0  0  0  0  2  0  0  0  0  0  0
  -28.9890  -23.5140   19.9420 C   0  0  0  0  0  3  0  0  0  0  0  0
  -28.1380  -24.8160   20.5390 C   0  0  0  0  0  3  0  0  0  0  0  0
  -28.3440  -26.3070   20.2090 O   0  0  0  0  0  0  0  0  0  0  0  0
  -24.6080  -31.8830   23.2130 C   0  0  0  0  0  0  0  0  0  0  0  0
  -27.2470  -27.2280   20.2020 C   0  0  0  0  0  0  0  0  0  0  0  0
  -23.4200  -30.4770   21.5710 C   0  0  0  0  0  3  0  0  0  0  0  0
  -24.8870  -28.9070   20.1680 C   0  0  0  0  0  0  0  0  0  0  0  0
  -25.9710  -30.7730   21.4110 C   0  0  0  0  0  2  0  0  0  0  0  0
  -26.0600  -29.3810   20.7690 C   0  0  0  0  0  0  0  0  0  0  0  0
  -27.2420  -28.5590   20.7670 C   0  0  0  0  0  3  0  0  0  0  0  0
  -26.0500  -26.8400   19.5650 C   0  0  0  0  0  3  0  0  0  0  0  0
  -24.8910  -27.6450   19.5540 C   0  0  0  0  0  3  0  0  0  0  0  0
  -23.6500  -29.7900   20.1980 C   0  0  0  0  0  2  0  0  0  0  0  0
  -24.6860  -31.0640   22.1210 N   0  0  0  0  0  0  0  0  0  0  0  0
  -23.5180  -32.1630   23.7340 O   0  0  0  0  0  0  0  0  0  0  0  0
  -22.7450  -29.4680   22.5340 C   0  0  0  0  0  0  0  0  0  0  0  0
  -21.4170  -29.2950   22.4060 N   0  0  0  0  0  0  0  0  0  0  0  0
  -23.4180  -28.8410   23.3550 O   0  0  0  0  0  0  0  0  0  0  0  0
  -20.9310  -29.8600   21.7250 H   0  0  0  0  0  0  0  0  0  0  0  0
  -18.0330  -28.1100   22.9070 C   0  0  0  0  0  0  0  0  0  0  0  0
  -20.5930  -28.3590   23.1710 C   0  0  0  0  0  3  0  0  0  0  0  0
  -20.6860  -26.9270   22.5920 C   0  0  0  0  0  2  0  0  0  0  0  0
  -19.5810  -26.6130   21.5790 C   0  0  0  0  0  2  0  0  0  0  0  0
  -18.2020  -26.7620   22.2260 C   0  0  0  0  0  2  0  0  0  0  0  0
  -19.1560  -28.8680   23.3340 C   0  0  0  0  0  0  0  0  0  0  0  0
  -18.9430  -30.1300   23.9310 C   0  0  0  0  0  3  0  0  0  0  0  0
  -17.6400  -30.6330   24.1090 C   0  0  0  0  0  3  0  0  0  0  0  0
  -16.5320  -29.8720   23.6940 C   0  0  0  0  0  3  0  0  0  0  0  0
  -16.7300  -28.6140   23.0980 C   0  0  0  0  0  3  0  0  0  0  0  0
  -25.8810  -32.5260   23.8450 C   0  0  0  0  0  3  0  0  0  0  0  0
  -25.5610  -33.9240   24.1730 N   0  0  0  0  0  0  0  0  0  0  0  0
  -25.8880  -34.9810   23.4170 C   0  0  0  0  0  0  0  0  0  0  0  0
  -26.5600  -34.8820   22.3860 O   0  0  0  0  0  0  0  0  0  0  0  0
  -24.9740  -34.0760   24.9810 H   0  0  0  0  0  0  0  0  0  0  0  0
  -24.1580  -36.7730   23.0600 C   0  0  0  0  0  1  0  0  0  0  0  0
  -25.3960  -36.3680   23.8770 C   0  0  0  0  0  3  0  0  0  0  0  0
  -27.5240  -37.2610   24.7170 C   0  0  0  0  0  1  0  0  0  0  0  0
  -26.4270  -37.4230   23.7680 N   0  0  0  0  0  0  0  0  0  0  0  0
  -26.0170  -38.3440   23.9100 H   0  0  0  0  0  0  0  0  0  0  0  0
  -26.3890  -31.7580   25.1290 C   0  0  1  0  0  0  0  0  0  0  0  0
  -25.2890  -31.5210   26.1900 C   0  0  0  0  0  1  0  0  0  0  0  0
  -26.9800  -30.3790   24.7510 C   0  0  0  0  0  1  0  0  0  0  0  0
  -27.5290  -32.5580   25.8010 C   0  0  0  0  0  1  0  0  0  0  0  0
  1 46  1  0
  2  1  1  0
  3  1  1  0
  5  8  1  0
  5  4  1  0
  6  9  1  0
  6  5  1  0
  6  7  1  0
  7  1  1  0
  7  4  1  0
 10  9  1  0
 11 16  1  0
 12 13  1  0
 12 11  1  0
 14 13  1  0
 14 21  1  0
 14 15  1  0
 16 10  1  0
 16 15  1  0
 17 10  2  0
 18 19  2  0
 19 38  1  0
 20 19  1  0
 20 23  1  0
 21 18  1  0
 21 22  1  0
 22 20  2  0
 23 24  1  0
 24 25  2  0
 26 29  1  0
 26 25  1  0
 27 26  2  0
 28 27  1  0
 28 23  2  0
 29 30  1  0
 30 31  1  0
 31 32  2  0
 33 32  1  0
 33 37  1  0
 34 33  2  0
 35 30  2  0
 35 34  1  0
 36 35  1  0
 38 39  1  0
 39 42  1  0
 39 41  1  0
 40 38  2  0
 43 44  1  0
 43 18  1  0
 45 43  1  0
 47 48  2  0
 47 46  1  0
 49 48  1  0
 50 61  2  0
 51 49  1  0
 51 56  1  0
 52 60  1  0
 52 62  1  0
 53 59  1  0
 53 55  1  0
 54 60  1  0
 55 54  1  0
 56 55  2  0
 57 51  2  0
 58 57  1  0
 58 53  2  0
 59 52  1  0
 60 50  1  0
 62 64  2  0
 63 62  1  0
 65 63  1  0
 66 75  2  0
 66 71  1  0
 67 63  1  0
 67 71  1  0
 68 67  1  0
 69 70  1  0
 69 68  1  0
 70 66  1  0
 71 72  2  0
 72 73  1  0
 74 73  2  0
 75 74  1  0
 76 50  1  0
 76 77  1  0
 76 86  1  0
 77 80  1  0
 78 82  1  0
 78 77  1  0
 79 78  2  0
 82 81  1  0
 84 82  1  0
 84 85  1  0
 84 83  1  0
 86 89  1  1
 86 87  1  0
 88 86  1  0
M  ISO  4   9 100  10 100  48 101  49 101
M  END
>  <TORSDO>  (26) 
F 21

>  <SCORE>  (26) 
-13.406

>  <name>  (26) 
26

>  <ligand_id>  (26) 
26

>  <original_smiles>  (26) 
[H]c1c([H])c([H])c2c(c1[H])C([H])([H])C([H])([H])C([H])([H])C2([H])N([H])C(=O)C1([H])N(C(=O)C([H])(N([H])C(=O)C([H])(N([H])C([H])([H])[H])C([H])([H])[H])C(C([H])([H])[H])(C([H])([H])[H])C([H])([H])[H])C([H])([H])c2c([H])c(OC([H])([H])C([H])([H])C([H])([H])[N+]([H])([H])C3([H])C([H])([H])C([H])(C([H])([H])[H])C3([H])C([H])([H])C(=O)N3C([H])([H])C([H])([H])C([H])([H])C([H])(n4nc(-c5c([H])c([H])c(Oc6c([H])c([H])c(F)c([H])c6F)c([H])c5[H])c(C(=O)N([H])[H])c4N([H])[H])C3([H])[H])c([H])c([H])c2C1([H])[H]

>  <smiles>  (26) 
[H]c1c([H])c([H])c2c(c1[H])C([H])([H])C([H])([H])C([H])([H])C2([H])N([H])C(=O)C1([H])N(C(=O)C([H])(N([H])C(=O)C([H])(N([H])C([H])([H])[H])C([H])([H])[H])C(C([H])([H])[H])(C([H])([H])[H])C([H])([H])[H])C([H])([H])c2c([H])c(OC([H])([H])C([H])([H])C([H])([H])[N+]([H])([H])C3([H])C([H])([H])C([H])(C([H])([H])[H])C3([H])C([H])([H])C(=O)N3C([H])([H])C([H])([H])C([H])([H])C([H])(n4nc(-c5c([H])c([H])c(Oc6c([H])c([H])c(F)c([H])c6F)c([H])c5[H])c(C(=O)N([H])[H])c4N([H])[H])C3([H])[H])c([H])c([H])c2C1([H])[H]

$$$$
27:0:0
     RDKit          3D

 96104  0  0  1  0  0  0  0  0999 V2000
  -27.6980  -22.3140   22.5250 C   0  0  0  0  0  1  0  0  0  0  0  0
  -28.6080  -23.2350   21.6930 C   0  0  0  0  0  3  0  0  0  0  0  0
  -31.8790  -22.7650   19.8160 C   0  0  0  0  0  2  0  0  0  0  0  0
  -30.4580  -23.3500   19.8670 C   0  0  0  0  0  2  0  0  0  0  0  0
  -30.6830  -21.6630   21.5970 C   0  0  0  0  0  2  0  0  0  0  0  0
  -31.8740  -21.4710   20.6440 C   0  0  0  0  0  3  0  0  0  0  0  0
  -29.6290  -22.4600   20.8160 C   0  0  0  0  0  3  0  0  0  0  0  0
  -31.7700  -20.2230   19.7490 C   0  0  0  0  0  0  0  0  0  0  0  0
  -32.7850  -19.3540   19.8190 N   0  0  0  0  0  0  0  0  0  0  0  0
  -30.8020  -20.0510   19.0040 O   0  0  0  0  0  0  0  0  0  0  0  0
  -33.5470  -19.5700   20.4510 H   0  0  0  0  0  0  0  0  0  0  0  0
  -32.9120  -18.1460   19.0100 C   0  0  0  0  0  2  0  0  0  0  0  0
  -32.1700  -16.9550   19.6460 C   0  0  0  0  0  2  0  0  0  0  0  0
  -32.7640  -15.5970   19.2430 C   0  0  0  0  0  0  0  0  0  0  0  0
  -32.6590  -13.1300   19.2910 C   0  0  0  0  0  2  0  0  0  0  0  0
  -31.7200  -12.5990   18.1940 C   0  0  0  0  0  2  0  0  0  0  0  0
  -30.2600  -12.5680   18.6880 C   0  0  0  0  0  2  0  0  0  0  0  0
  -29.8230  -13.9070   19.3370 C   0  0  0  0  0  3  0  0  0  0  0  0
  -30.8700  -14.3860   20.3650 C   0  0  0  0  0  2  0  0  0  0  0  0
  -32.1770  -14.4590   19.6920 N   0  0  0  0  0  0  0  0  0  0  0  0
  -33.7650  -15.5800   18.5200 O   0  0  0  0  0  0  0  0  0  0  0  0
  -27.6300  -14.8030   20.3500 C   0  0  0  0  0  0  0  0  0  0  0  0
  -26.4890  -14.1680   20.7630 C   0  0  0  0  0  0  0  0  0  0  0  0
  -26.7180  -12.7730   20.5630 C   0  0  0  0  0  0  0  0  0  0  0  0
  -28.4920  -13.8000   19.9330 N   0  0  0  0  0  0  0  0  0  0  0  0
  -27.9490  -12.5690   20.1130 N   0  0  0  0  0  0  0  0  0  0  0  0
  -25.8160  -11.6240   20.7200 C   0  0  0  0  0  0  0  0  0  0  0  0
  -26.0540  -10.6250   21.6890 C   0  0  0  0  0  3  0  0  0  0  0  0
  -25.1630   -9.5390   21.8320 C   0  0  0  0  0  3  0  0  0  0  0  0
  -24.0180   -9.4480   21.0050 C   0  0  0  0  0  0  0  0  0  0  0  0
  -23.8000  -10.4320   20.0250 C   0  0  0  0  0  3  0  0  0  0  0  0
  -24.6910  -11.5090   19.8790 C   0  0  0  0  0  3  0  0  0  0  0  0
  -23.1130   -8.4150   21.0530 O   0  0  0  0  0  0  0  0  0  0  0  0
  -22.6530   -7.9180   22.2460 C   0  0  0  0  0  0  0  0  0  0  0  0
  -21.9480   -8.7230   23.1670 C   0  0  0  0  0  3  0  0  0  0  0  0
  -21.4330   -8.1550   24.3490 C   0  0  0  0  0  3  0  0  0  0  0  0
  -21.6120   -6.7820   24.6070 C   0  0  0  0  0  0  0  0  0  0  0  0
  -22.3100   -5.9770   23.6890 C   0  0  0  0  0  3  0  0  0  0  0  0
  -22.8250   -6.5440   22.5100 C   0  0  0  0  0  0  0  0  0  0  0  0
  -23.4770   -5.7600   21.6170 F   0  0  0  0  0  0  0  0  0  0  0  0
  -21.1100   -6.2330   25.7380 F   0  0  0  0  0  0  0  0  0  0  0  0
  -25.2190  -14.8240   21.2270 C   0  0  0  0  0  0  0  0  0  0  0  0
  -24.4900  -14.1740   22.1280 N   0  0  0  0  0  0  0  0  0  0  0  0
  -24.8920  -15.9410   20.8290 O   0  0  0  0  0  0  0  0  0  0  0  0
  -24.7680  -13.2650   22.4680 H   0  0  0  0  0  0  0  0  0  0  0  0
  -23.6400  -14.5910   22.4810 H   0  0  0  0  0  0  0  0  0  0  0  0
  -27.9990  -16.1420   20.2780 N   0  0  0  0  0  0  0  0  0  0  0  0
  -27.3650  -16.8940   20.5290 H   0  0  0  0  0  0  0  0  0  0  0  0
  -28.8830  -16.4750   19.9130 H   0  0  0  0  0  0  0  0  0  0  0  0
  -27.7640  -24.1080   20.8530 N   0  0  0  0  0  4  0  0  0  0  0  0
  -27.4510  -23.5960   20.0430 H   0  0  0  0  0  0  0  0  0  0  0  0
  -26.9460  -24.3380   21.3940 H   0  0  0  0  0  0  0  0  0  0  0  0
  -28.3830  -25.3880   20.4480 C   0  0  0  0  0  2  0  0  0  0  0  0
  -27.3340  -26.3760   19.9350 C   0  0  0  0  0  2  0  0  0  0  0  0
  -27.0280  -26.2450   18.4280 C   0  0  0  0  0  2  0  0  0  0  0  0
  -26.7220  -27.5150   17.8640 O   0  0  0  0  0  0  0  0  0  0  0  0
  -25.6970  -30.8240   24.0500 C   0  0  0  0  0  0  0  0  0  0  0  0
  -25.8880  -28.3140   18.6060 C   0  0  0  0  0  0  0  0  0  0  0  0
  -23.7530  -30.7930   22.5160 C   0  0  0  0  0  3  0  0  0  0  0  0
  -24.2270  -29.9910   20.1450 C   0  0  0  0  0  0  0  0  0  0  0  0
  -26.1370  -30.6870   21.6080 C   0  0  0  0  0  2  0  0  0  0  0  0
  -25.5920  -29.8890   20.4450 C   0  0  0  0  0  0  0  0  0  0  0  0
  -26.4290  -29.0600   19.6710 C   0  0  0  0  0  3  0  0  0  0  0  0
  -24.5090  -28.4070   18.3200 C   0  0  0  0  0  3  0  0  0  0  0  0
  -23.6750  -29.2450   19.0870 C   0  0  0  0  0  3  0  0  0  0  0  0
  -23.4130  -30.9280   21.0080 C   0  0  0  0  0  2  0  0  0  0  0  0
  -25.2270  -30.7440   22.7740 N   0  0  0  0  0  0  0  0  0  0  0  0
  -24.9250  -30.9820   25.0080 O   0  0  0  0  0  0  0  0  0  0  0  0
  -22.9960  -29.5760   23.0890 C   0  0  0  0  0  0  0  0  0  0  0  0
  -21.6600  -29.5860   22.9400 N   0  0  0  0  0  0  0  0  0  0  0  0
  -23.5990  -28.6460   23.6250 O   0  0  0  0  0  0  0  0  0  0  0  0
  -21.2410  -30.3920   22.5010 H   0  0  0  0  0  0  0  0  0  0  0  0
  -18.2810  -28.3700   22.5940 C   0  0  0  0  0  0  0  0  0  0  0  0
  -20.7420  -28.5310   23.3640 C   0  0  0  0  0  3  0  0  0  0  0  0
  -20.9730  -27.2360   22.5520 C   0  0  0  0  0  2  0  0  0  0  0  0
  -20.0760  -27.1270   21.3150 C   0  0  0  0  0  2  0  0  0  0  0  0
  -18.5980  -27.1670   21.7200 C   0  0  0  0  0  2  0  0  0  0  0  0
  -19.2900  -29.0190   23.3530 C   0  0  0  0  0  0  0  0  0  0  0  0
  -18.9480  -30.1520   24.1190 C   0  0  0  0  0  3  0  0  0  0  0  0
  -17.6250  -30.6340   24.1430 C   0  0  0  0  0  3  0  0  0  0  0  0
  -16.6260  -29.9760   23.4030 C   0  0  0  0  0  3  0  0  0  0  0  0
  -16.9560  -28.8480   22.6310 C   0  0  0  0  0  3  0  0  0  0  0  0
  -27.2220  -30.7440   24.3690 C   0  0  0  0  0  3  0  0  0  0  0  0
  -27.5380  -31.8390   25.2950 N   0  0  0  0  0  0  0  0  0  0  0  0
  -28.1890  -32.9590   24.9520 C   0  0  0  0  0  0  0  0  0  0  0  0
  -28.6570  -33.1470   23.8250 O   0  0  0  0  0  0  0  0  0  0  0  0
  -27.1250  -31.7840   26.2120 H   0  0  0  0  0  0  0  0  0  0  0  0
  -27.3370  -35.1750   25.7830 C   0  0  0  0  0  1  0  0  0  0  0  0
  -28.3460  -34.0440   26.0330 C   0  0  0  0  0  3  0  0  0  0  0  0
  -30.7010  -33.6560   26.6120 C   0  0  0  0  0  1  0  0  0  0  0  0
  -29.7120  -34.6040   26.1070 N   0  0  0  0  0  0  0  0  0  0  0  0
  -29.7330  -35.4300   26.6990 H   0  0  0  0  0  0  0  0  0  0  0  0
  -27.6590  -29.3530   24.9730 C   0  0  1  0  0  0  0  0  0  0  0  0
  -26.8030  -28.9040   26.1810 C   0  0  0  0  0  1  0  0  0  0  0  0
  -27.5810  -28.2400   23.9000 C   0  0  0  0  0  1  0  0  0  0  0  0
  -29.1330  -29.4210   25.4380 C   0  0  0  0  0  1  0  0  0  0  0  0
  2  1  1  0
  3  4  1  0
  3  6  1  0
  4  7  1  0
  6  8  1  0
  6  5  1  0
  7  5  1  0
  7  2  1  0
  8  9  1  0
  9 11  1  0
 10  8  2  0
 12 13  1  0
 12  9  1  0
 14 13  1  0
 14 20  1  0
 15 20  1  0
 16 17  1  0
 16 15  1  0
 18 17  1  0
 18 25  1  0
 18 19  1  0
 20 19  1  0
 21 14  2  0
 22 23  2  0
 23 42  1  0
 24 27  1  0
 24 23  1  0
 25 26  1  0
 25 22  1  0
 26 24  2  0
 27 28  1  0
 28 29  2  0
 30 33  1  0
 30 29  1  0
 31 30  2  0
 32 31  1  0
 32 27  2  0
 33 34  1  0
 34 39  2  0
 34 35  1  0
 35 36  2  0
 36 37  1  0
 37 41  1  0
 38 37  2  0
 39 38  1  0
 40 39  1  0
 42 43  1  0
 43 45  1  0
 43 46  1  0
 44 42  2  0
 47 22  1  0
 47 48  1  0
 49 47  1  0
 50 52  1  0
 50  2  1  0
 51 50  1  0
 53 50  1  0
 54 53  1  0
 55 54  1  0
 56 55  1  0
 56 58  1  0
 57 68  2  0
 58 63  1  0
 59 67  1  0
 59 69  1  0
 60 62  1  0
 60 66  1  0
 61 67  1  0
 62 61  1  0
 63 62  2  0
 64 58  2  0
 64 65  1  0
 65 60  2  0
 66 59  1  0
 67 57  1  0
 69 71  2  0
 70 69  1  0
 72 70  1  0
 73 82  2  0
 73 78  1  0
 74 70  1  0
 75 74  1  0
 76 77  1  0
 76 75  1  0
 77 73  1  0
 78 74  1  0
 78 79  2  0
 79 80  1  0
 81 80  2  0
 82 81  1  0
 83 57  1  0
 83 93  1  0
 83 84  1  0
 84 87  1  0
 85 84  1  0
 85 89  1  0
 86 85  2  0
 89 88  1  0
 89 91  1  0
 91 90  1  0
 91 92  1  0
 93 96  1  1
 93 94  1  0
 95 93  1  0
M  ISO  4  13 100  14 100  55 101  56 101
M  END
>  <TORSDO>  (27) 
F 24

>  <SCORE>  (27) 
-7.179

>  <name>  (27) 
27

>  <ligand_id>  (27) 
27

>  <original_smiles>  (27) 
[H]c1c([H])c([H])c2c(c1[H])C([H])([H])C([H])([H])C([H])([H])C2([H])N([H])C(=O)C1([H])N(C(=O)C([H])(N([H])C(=O)C([H])(N([H])C([H])([H])[H])C([H])([H])[H])C(C([H])([H])[H])(C([H])([H])[H])C([H])([H])[H])C([H])([H])c2c([H])c(OC([H])([H])C([H])([H])C([H])([H])[N+]([H])([H])C([H])(C([H])([H])[H])C3([H])C([H])([H])C([H])([H])C([H])(C(=O)N([H])C([H])([H])C([H])([H])C(=O)N4C([H])([H])C([H])([H])C([H])([H])C([H])(n5nc(-c6c([H])c([H])c(Oc7c([H])c([H])c(F)c([H])c7F)c([H])c6[H])c(C(=O)N([H])[H])c5N([H])[H])C4([H])[H])C3([H])[H])c([H])c([H])c2C1([H])[H]

>  <smiles>  (27) 
[H]c1c([H])c([H])c2c(c1[H])C([H])([H])C([H])([H])C([H])([H])C2([H])N([H])C(=O)C1([H])N(C(=O)C([H])(N([H])C(=O)C([H])(N([H])C([H])([H])[H])C([H])([H])[H])C(C([H])([H])[H])(C([H])([H])[H])C([H])([H])[H])C([H])([H])c2c([H])c(OC([H])([H])C([H])([H])C([H])([H])[N+]([H])([H])C([H])(C([H])([H])[H])C3([H])C([H])([H])C([H])([H])C([H])(C(=O)N([H])C([H])([H])C([H])([H])C(=O)N4C([H])([H])C([H])([H])C([H])([H])C([H])(n5nc(-c6c([H])c([H])c(Oc7c([H])c([H])c(F)c([H])c7F)c([H])c6[H])c(C(=O)N([H])[H])c5N([H])[H])C4([H])[H])C3([H])[H])c([H])c([H])c2C1([H])[H]

$$$$
28:0:0
     RDKit          3D

 92101  0  0  1  0  0  0  0  0999 V2000
  -28.4880  -21.7540   18.9120 C   0  0  0  0  0  2  0  0  0  0  0  0
  -28.9340  -22.6380   20.0240 C   0  0  0  0  0  3  0  0  0  0  0  0
  -28.3800  -21.1550   20.2790 C   0  0  0  0  0  3  0  0  0  0  0  0
  -29.5900  -18.8270   20.6620 C   0  0  0  0  0  0  0  0  0  0  0  0
  -28.8990  -19.8030   19.9870 N   0  0  0  0  0  0  0  0  0  0  0  0
  -30.0940  -19.0390   21.7770 O   0  0  0  0  0  0  0  0  0  0  0  0
  -28.5410  -19.4710   19.0890 H   0  0  0  0  0  0  0  0  0  0  0  0
  -29.9090  -18.2660   17.5420 C   0  0  0  0  0  2  0  0  0  0  0  0
  -28.4570  -17.8210   17.8110 C   0  0  0  0  0  2  0  0  0  0  0  0
  -30.7610  -17.7030   18.7100 C   0  0  0  0  0  2  0  0  0  0  0  0
  -28.5230  -17.0050   19.1080 C   0  0  0  0  0  2  0  0  0  0  0  0
  -29.7930  -17.4170   19.9110 C   0  0  2  0  0  0  0  0  0  0  0  0
  -30.1530  -16.1620   20.8980 C   0  0  0  0  0  2  0  0  0  0  0  0
  -30.8480  -14.8040   20.3980 C   0  0  0  0  0  0  0  0  0  0  0  0
  -30.6470  -12.5340   19.3770 C   0  0  0  0  0  2  0  0  0  0  0  0
  -29.7300  -12.6750   18.1410 C   0  0  0  0  0  2  0  0  0  0  0  0
  -28.2620  -12.4860   18.5660 C   0  0  0  0  0  2  0  0  0  0  0  0
  -27.8830  -13.3610   19.7830 C   0  0  0  0  0  3  0  0  0  0  0  0
  -28.9240  -13.2340   20.9170 C   0  0  0  0  0  2  0  0  0  0  0  0
  -30.2300  -13.5790   20.3460 N   0  0  0  0  0  0  0  0  0  0  0  0
  -32.0070  -14.8930   19.9940 O   0  0  0  0  0  0  0  0  0  0  0  0
  -25.4840  -13.9890   20.4300 C   0  0  0  0  0  0  0  0  0  0  0  0
  -24.4100  -13.2290   20.7900 C   0  0  0  0  0  0  0  0  0  0  0  0
  -24.8700  -11.8680   20.7970 C   0  0  0  0  0  0  0  0  0  0  0  0
  -26.5300  -13.0970   20.2440 N   0  0  0  0  0  0  0  0  0  0  0  0
  -26.1650  -11.8230   20.5230 N   0  0  0  0  0  0  0  0  0  0  0  0
  -24.1460  -10.6050   20.9820 C   0  0  0  0  0  0  0  0  0  0  0  0
  -24.5530   -9.6550   21.9450 C   0  0  0  0  0  3  0  0  0  0  0  0
  -23.8310   -8.4610   22.1310 C   0  0  0  0  0  3  0  0  0  0  0  0
  -22.6810   -8.2000   21.3480 C   0  0  0  0  0  0  0  0  0  0  0  0
  -22.2900   -9.1470   20.3820 C   0  0  0  0  0  3  0  0  0  0  0  0
  -23.0170  -10.3300   20.1930 C   0  0  0  0  0  3  0  0  0  0  0  0
  -21.9290   -7.0580   21.4340 O   0  0  0  0  0  0  0  0  0  0  0  0
  -21.8260   -6.3510   22.6060 C   0  0  0  0  0  0  0  0  0  0  0  0
  -21.3300   -6.9270   23.7940 C   0  0  0  0  0  3  0  0  0  0  0  0
  -21.1640   -6.1390   24.9480 C   0  0  0  0  0  3  0  0  0  0  0  0
  -21.5090   -4.7740   24.9290 C   0  0  0  0  0  0  0  0  0  0  0  0
  -22.0090   -4.1980   23.7480 C   0  0  0  0  0  3  0  0  0  0  0  0
  -22.1550   -4.9790   22.5870 C   0  0  0  0  0  0  0  0  0  0  0  0
  -22.5960   -4.4010   21.4460 F   0  0  0  0  0  0  0  0  0  0  0  0
  -21.3620   -4.0150   26.0400 F   0  0  0  0  0  0  0  0  0  0  0  0
  -23.0080  -13.7200   21.0270 C   0  0  0  0  0  0  0  0  0  0  0  0
  -22.2630  -13.0660   21.9030 N   0  0  0  0  0  0  0  0  0  0  0  0
  -22.5820  -14.7390   20.4770 O   0  0  0  0  0  0  0  0  0  0  0  0
  -22.6180  -12.2500   22.3820 H   0  0  0  0  0  0  0  0  0  0  0  0
  -21.3350  -13.4040   22.1180 H   0  0  0  0  0  0  0  0  0  0  0  0
  -25.6550  -15.3630   20.2390 N   0  0  0  0  0  0  0  0  0  0  0  0
  -24.9170  -16.0490   20.3730 H   0  0  0  0  0  0  0  0  0  0  0  0
  -26.5330  -15.7780   19.9490 H   0  0  0  0  0  0  0  0  0  0  0  0
  -28.2310  -24.0400   19.7880 C   0  0  0  0  0  2  0  0  0  0  0  0
  -28.2370  -25.2180   20.8330 C   0  0  0  0  0  2  0  0  0  0  0  0
  -28.3950  -26.5790   20.2800 O   0  0  0  0  0  0  0  0  0  0  0  0
  -24.6060  -31.8960   23.2290 C   0  0  0  0  0  0  0  0  0  0  0  0
  -27.2670  -27.3950   20.2090 C   0  0  0  0  0  0  0  0  0  0  0  0
  -23.4260  -30.5040   21.5630 C   0  0  0  0  0  3  0  0  0  0  0  0
  -24.9010  -28.9720   20.1410 C   0  0  0  0  0  0  0  0  0  0  0  0
  -25.9620  -30.8500   21.4030 C   0  0  0  0  0  2  0  0  0  0  0  0
  -26.0540  -29.4790   20.7560 C   0  0  0  0  0  0  0  0  0  0  0  0
  -27.2490  -28.7020   20.7720 C   0  0  0  0  0  3  0  0  0  0  0  0
  -26.0960  -26.9190   19.5810 C   0  0  0  0  0  3  0  0  0  0  0  0
  -24.9230  -27.6960   19.5430 C   0  0  0  0  0  3  0  0  0  0  0  0
  -23.6590  -29.8360   20.1800 C   0  0  0  0  0  2  0  0  0  0  0  0
  -24.6810  -31.0970   22.1220 N   0  0  0  0  0  0  0  0  0  0  0  0
  -23.5140  -32.1630   23.7540 O   0  0  0  0  0  0  0  0  0  0  0  0
  -22.7620  -29.4780   22.5080 C   0  0  0  0  0  0  0  0  0  0  0  0
  -21.4390  -29.2980   22.3710 N   0  0  0  0  0  0  0  0  0  0  0  0
  -23.4380  -28.8470   23.3270 O   0  0  0  0  0  0  0  0  0  0  0  0
  -20.9550  -29.8560   21.6830 H   0  0  0  0  0  0  0  0  0  0  0  0
  -18.0590  -28.0960   22.8280 C   0  0  0  0  0  0  0  0  0  0  0  0
  -20.6140  -28.3540   23.1280 C   0  0  0  0  0  3  0  0  0  0  0  0
  -20.7230  -26.9260   22.5430 C   0  0  0  0  0  2  0  0  0  0  0  0
  -19.6320  -26.6120   21.5160 C   0  0  0  0  0  2  0  0  0  0  0  0
  -18.2420  -26.7520   22.1450 C   0  0  0  0  0  2  0  0  0  0  0  0
  -19.1730  -28.8560   23.2730 C   0  0  0  0  0  0  0  0  0  0  0  0
  -18.9470  -30.1150   23.8700 C   0  0  0  0  0  3  0  0  0  0  0  0
  -17.6400  -30.6140   24.0260 C   0  0  0  0  0  3  0  0  0  0  0  0
  -16.5400  -29.8510   23.5950 C   0  0  0  0  0  3  0  0  0  0  0  0
  -16.7510  -28.5930   23.0010 C   0  0  0  0  0  3  0  0  0  0  0  0
  -25.8800  -32.5310   23.8680 C   0  0  0  0  0  3  0  0  0  0  0  0
  -25.5560  -33.9230   24.2020 N   0  0  0  0  0  0  0  0  0  0  0  0
  -25.8910  -34.9840   23.4570 C   0  0  0  0  0  0  0  0  0  0  0  0
  -26.5700  -34.8940   22.4320 O   0  0  0  0  0  0  0  0  0  0  0  0
  -24.9460  -34.0680   24.9930 H   0  0  0  0  0  0  0  0  0  0  0  0
  -24.1570  -36.7740   23.1000 C   0  0  0  0  0  1  0  0  0  0  0  0
  -25.3950  -36.3670   23.9170 C   0  0  0  0  0  3  0  0  0  0  0  0
  -27.5160  -37.2610   24.7790 C   0  0  0  0  0  1  0  0  0  0  0  0
  -26.4230  -37.4270   23.8210 N   0  0  0  0  0  0  0  0  0  0  0  0
  -26.0100  -38.3450   23.9660 H   0  0  0  0  0  0  0  0  0  0  0  0
  -26.3840  -31.7520   25.1460 C   0  0  1  0  0  0  0  0  0  0  0  0
  -25.2800  -31.5000   26.2010 C   0  0  0  0  0  1  0  0  0  0  0  0
  -26.9780  -30.3800   24.7480 C   0  0  0  0  0  1  0  0  0  0  0  0
  -27.5200  -32.5510   25.8270 C   0  0  0  0  0  1  0  0  0  0  0  0
  1  2  1  0
  1  3  1  0
  2 50  1  0
  2  3  1  0
  3  5  1  0
  4  6  2  0
  5  4  1  0
  7  5  1  0
  8  9  1  0
  8 10  1  0
  9 11  1  0
 10 12  1  0
 11 12  1  0
 12  4  1  0
 12 13  1  1
 14 13  1  0
 15 20  1  0
 16 17  1  0
 16 15  1  0
 18 17  1  0
 18 25  1  0
 18 19  1  0
 20 14  1  0
 20 19  1  0
 21 14  2  0
 22 23  2  0
 23 24  1  0
 23 42  1  0
 24 27  1  0
 25 22  1  0
 25 26  1  0
 26 24  2  0
 27 28  1  0
 28 29  2  0
 30 33  1  0
 30 29  1  0
 31 30  2  0
 32 31  1  0
 32 27  2  0
 33 34  1  0
 34 35  1  0
 35 36  2  0
 37 36  1  0
 37 41  1  0
 38 37  2  0
 39 34  2  0
 39 38  1  0
 40 39  1  0
 42 43  1  0
 43 46  1  0
 43 45  1  0
 44 42  2  0
 47 48  1  0
 47 22  1  0
 49 47  1  0
 50 51  1  0
 52 51  1  0
 53 64  2  0
 54 52  1  0
 54 59  1  0
 55 63  1  0
 55 65  1  0
 56 62  1  0
 56 58  1  0
 57 63  1  0
 58 59  2  0
 58 57  1  0
 60 54  2  0
 61 60  1  0
 61 56  2  0
 62 55  1  0
 63 53  1  0
 65 67  2  0
 66 65  1  0
 68 66  1  0
 69 78  2  0
 69 74  1  0
 70 66  1  0
 70 74  1  0
 71 70  1  0
 72 73  1  0
 72 71  1  0
 73 69  1  0
 74 75  2  0
 75 76  1  0
 77 76  2  0
 78 77  1  0
 79 53  1  0
 79 80  1  0
 79 89  1  0
 80 83  1  0
 81 85  1  0
 81 80  1  0
 82 81  2  0
 85 84  1  0
 87 85  1  0
 87 88  1  0
 87 86  1  0
 89 92  1  1
 89 90  1  0
 91 89  1  0
M  ISO  4  13 100  14 100  51 101  52 101
M  END
>  <TORSDO>  (28) 
F 21

>  <SCORE>  (28) 
-13.432

>  <name>  (28) 
28

>  <ligand_id>  (28) 
28

>  <original_smiles>  (28) 
[H]c1c([H])c([H])c2c(c1[H])C([H])([H])C([H])([H])C([H])([H])C2([H])N([H])C(=O)C1([H])N(C(=O)C([H])(N([H])C(=O)C([H])(N([H])C([H])([H])[H])C([H])([H])[H])C(C([H])([H])[H])(C([H])([H])[H])C([H])([H])[H])C([H])([H])c2c([H])c(OC([H])([H])C([H])([H])C3([H])C([H])([H])C3([H])N([H])C(=O)C3(C([H])([H])C(=O)N4C([H])([H])C([H])([H])C([H])([H])C([H])(n5nc(-c6c([H])c([H])c(Oc7c([H])c([H])c(F)c([H])c7F)c([H])c6[H])c(C(=O)N([H])[H])c5N([H])[H])C4([H])[H])C([H])([H])C([H])([H])C([H])([H])C3([H])[H])c([H])c([H])c2C1([H])[H]

>  <smiles>  (28) 
[H]c1c([H])c([H])c2c(c1[H])C([H])([H])C([H])([H])C([H])([H])C2([H])N([H])C(=O)C1([H])N(C(=O)C([H])(N([H])C(=O)C([H])(N([H])C([H])([H])[H])C([H])([H])[H])C(C([H])([H])[H])(C([H])([H])[H])C([H])([H])[H])C([H])([H])c2c([H])c(OC([H])([H])C([H])([H])C3([H])C([H])([H])C3([H])N([H])C(=O)C3(C([H])([H])C(=O)N4C([H])([H])C([H])([H])C([H])([H])C([H])(n5nc(-c6c([H])c([H])c(Oc7c([H])c([H])c(F)c([H])c7F)c([H])c6[H])c(C(=O)N([H])[H])c5N([H])[H])C4([H])[H])C([H])([H])C([H])([H])C([H])([H])C3([H])[H])c([H])c([H])c2C1([H])[H]

$$$$
29:0:0
     RDKit          3D

101111  0  0  1  0  0  0  0  0999 V2000
  -31.0710  -18.5080   23.0290 C   0  0  0  0  0  3  0  0  0  0  0  0
  -31.9720  -19.4110   22.4180 C   0  0  0  0  0  3  0  0  0  0  0  0
  -30.0050  -17.9530   22.2880 C   0  0  0  0  0  3  0  0  0  0  0  0
  -31.8190  -19.7680   21.0590 C   0  0  0  0  0  3  0  0  0  0  0  0
  -29.8750  -18.3120   20.9340 C   0  0  0  0  0  0  0  0  0  0  0  0
  -30.7550  -19.2030   20.3310 C   0  0  0  0  0  0  0  0  0  0  0  0
  -32.1190  -20.8970   17.8490 C   0  0  0  0  0  2  0  0  0  0  0  0
  -32.5370  -19.4270   17.7410 C   0  0  0  0  0  2  0  0  0  0  0  0
  -30.6780  -20.8930   18.3870 C   0  0  0  0  0  2  0  0  0  0  0  0
  -31.2530  -18.6240   17.9390 C   0  0  0  0  0  2  0  0  0  0  0  0
  -28.8080  -17.8510   19.9730 C   0  0  0  0  0  3  0  0  0  0  0  0
  -28.8690  -18.9670   18.8680 C   0  0  0  0  0  3  0  0  0  0  0  0
  -30.3680  -19.4610   18.8850 C   0  0  1  0  0  0  0  0  0  0  0  0
  -29.2200  -15.3000   20.0350 C   0  0  0  0  0  3  0  0  0  0  0  0
  -29.1630  -16.4870   19.3880 C   0  0  0  0  0  3  0  0  0  0  0  0
  -29.7410  -14.1440   19.3110 C   0  0  0  0  0  0  0  0  0  0  0  0
  -29.7250  -11.7110   18.9000 C   0  0  0  0  0  2  0  0  0  0  0  0
  -28.7580  -11.3490   17.7590 C   0  0  0  0  0  2  0  0  0  0  0  0
  -27.3420  -11.1130   18.3140 C   0  0  0  0  0  2  0  0  0  0  0  0
  -26.8730  -12.2600   19.2490 C   0  0  0  0  0  3  0  0  0  0  0  0
  -27.9560  -12.6180   20.2930 C   0  0  0  0  0  2  0  0  0  0  0  0
  -29.2120  -12.9150   19.5810 N   0  0  0  0  0  0  0  0  0  0  0  0
  -30.6710  -14.2740   18.5100 O   0  0  0  0  0  0  0  0  0  0  0  0
  -24.5330  -12.7640   20.2010 C   0  0  0  0  0  0  0  0  0  0  0  0
  -23.5610  -11.9520   20.7230 C   0  0  0  0  0  0  0  0  0  0  0  0
  -24.0970  -10.6290   20.6920 C   0  0  0  0  0  0  0  0  0  0  0  0
  -25.5980  -11.9340   19.8870 N   0  0  0  0  0  0  0  0  0  0  0  0
  -25.3450  -10.6480   20.2380 N   0  0  0  0  0  0  0  0  0  0  0  0
  -23.4740   -9.3380   21.0150 C   0  0  0  0  0  0  0  0  0  0  0  0
  -23.9390   -8.5400   22.0840 C   0  0  0  0  0  3  0  0  0  0  0  0
  -23.3110   -7.3130   22.3880 C   0  0  0  0  0  3  0  0  0  0  0  0
  -22.2050   -6.8730   21.6220 C   0  0  0  0  0  0  0  0  0  0  0  0
  -21.7620   -7.6590   20.5440 C   0  0  0  0  0  3  0  0  0  0  0  0
  -22.3910   -8.8770   20.2390 C   0  0  0  0  0  3  0  0  0  0  0  0
  -21.5510   -5.6830   21.8260 O   0  0  0  0  0  0  0  0  0  0  0  0
  -21.3410   -5.1840   23.0870 C   0  0  0  0  0  0  0  0  0  0  0  0
  -20.6030   -5.8970   24.0580 C   0  0  0  0  0  3  0  0  0  0  0  0
  -20.3520   -5.3150   25.3170 C   0  0  0  0  0  3  0  0  0  0  0  0
  -20.8290   -4.0230   25.6040 C   0  0  0  0  0  0  0  0  0  0  0  0
  -21.5580   -3.3110   24.6360 C   0  0  0  0  0  3  0  0  0  0  0  0
  -21.8110   -3.8890   23.3810 C   0  0  0  0  0  0  0  0  0  0  0  0
  -22.4950   -3.1890   22.4430 F   0  0  0  0  0  0  0  0  0  0  0  0
  -20.5830   -3.4610   26.8110 F   0  0  0  0  0  0  0  0  0  0  0  0
  -22.1770  -12.3620   21.1360 C   0  0  0  0  0  0  0  0  0  0  0  0
  -21.5950  -11.6700   22.1090 N   0  0  0  0  0  0  0  0  0  0  0  0
  -21.6200  -13.3350   20.6270 O   0  0  0  0  0  0  0  0  0  0  0  0
  -22.0580  -10.8850   22.5440 H   0  0  0  0  0  0  0  0  0  0  0  0
  -20.6720  -11.9300   22.4260 H   0  0  0  0  0  0  0  0  0  0  0  0
  -24.5950  -14.1310   19.9490 N   0  0  0  0  0  0  0  0  0  0  0  0
  -23.8190  -14.7560   20.1310 H   0  0  0  0  0  0  0  0  0  0  0  0
  -25.3890  -14.6000   19.5320 H   0  0  0  0  0  0  0  0  0  0  0  0
  -27.8400  -20.1170   19.1260 C   0  0  0  0  0  2  0  0  0  0  0  0
  -25.9030  -21.0010   17.6780 C   0  0  0  0  0  1  0  0  0  0  0  0
  -27.4340  -20.9860   17.9010 C   0  0  0  0  0  3  0  0  0  0  0  0
  -27.9620  -22.3720   18.0690 N   0  0  0  0  0  4  0  0  0  0  0  0
  -27.4790  -22.8160   18.8340 H   0  0  0  0  0  0  0  0  0  0  0  0
  -28.9350  -22.2980   18.3230 H   0  0  0  0  0  0  0  0  0  0  0  0
  -27.8840  -23.2440   16.8700 C   0  0  0  0  0  2  0  0  0  0  0  0
  -28.5660  -24.6190   17.0630 C   0  0  0  0  0  2  0  0  0  0  0  0
  -27.9080  -25.6970   16.1850 C   0  0  0  0  0  2  0  0  0  0  0  0
  -28.1160  -27.0130   16.7110 O   0  0  0  0  0  0  0  0  0  0  0  0
  -25.5650  -28.8950   23.0600 C   0  0  0  0  0  0  0  0  0  0  0  0
  -27.0600  -27.5940   17.3830 C   0  0  0  0  0  0  0  0  0  0  0  0
  -23.9410  -28.9610   21.1920 C   0  0  0  0  0  3  0  0  0  0  0  0
  -24.9320  -28.7400   18.8550 C   0  0  0  0  0  0  0  0  0  0  0  0
  -26.4360  -29.3240   20.7640 C   0  0  0  0  0  2  0  0  0  0  0  0
  -26.2260  -28.7260   19.3910 C   0  0  0  0  0  0  0  0  0  0  0  0
  -27.2930  -28.1620   18.6550 C   0  0  0  0  0  3  0  0  0  0  0  0
  -25.7490  -27.6400   16.8510 C   0  0  0  0  0  3  0  0  0  0  0  0
  -24.6880  -28.2000   17.5830 C   0  0  0  0  0  3  0  0  0  0  0  0
  -23.8470  -29.3690   19.6980 C   0  0  0  0  0  2  0  0  0  0  0  0
  -25.3420  -29.0340   21.7220 N   0  0  0  0  0  0  0  0  0  0  0  0
  -24.6250  -28.7490   23.8540 O   0  0  0  0  0  0  0  0  0  0  0  0
  -23.2950  -27.5670   21.3670 C   0  0  0  0  0  0  0  0  0  0  0  0
  -22.1000  -27.3830   20.7810 N   0  0  0  0  0  0  0  0  0  0  0  0
  -23.8760  -26.6770   21.9910 O   0  0  0  0  0  0  0  0  0  0  0  0
  -21.6810  -28.1690   20.3040 H   0  0  0  0  0  0  0  0  0  0  0  0
  -19.3730  -25.6590   19.1560 C   0  0  0  0  0  0  0  0  0  0  0  0
  -21.3250  -26.1410   20.7790 C   0  0  0  0  0  3  0  0  0  0  0  0
  -22.0820  -25.0100   20.0440 C   0  0  0  0  0  2  0  0  0  0  0  0
  -21.7140  -24.9030   18.5610 C   0  0  0  0  0  2  0  0  0  0  0  0
  -20.2140  -24.6470   18.3970 C   0  0  0  0  0  2  0  0  0  0  0  0
  -19.9000  -26.3730   20.2650 C   0  0  0  0  0  0  0  0  0  0  0  0
  -19.0890  -27.3290   20.9140 C   0  0  0  0  0  3  0  0  0  0  0  0
  -17.7740  -27.5740   20.4780 C   0  0  0  0  0  3  0  0  0  0  0  0
  -17.2520  -26.8550   19.3880 C   0  0  0  0  0  3  0  0  0  0  0  0
  -18.0480  -25.8980   18.7330 C   0  0  0  0  0  3  0  0  0  0  0  0
  -27.0070  -28.9390   23.6570 C   0  0  0  0  0  3  0  0  0  0  0  0
  -27.0520  -30.0460   24.6230 N   0  0  0  0  0  0  0  0  0  0  0  0
  -27.6750  -31.2130   24.4150 C   0  0  0  0  0  0  0  0  0  0  0  0
  -28.3400  -31.4460   23.4010 O   0  0  0  0  0  0  0  0  0  0  0  0
  -26.4940  -29.9400   25.4560 H   0  0  0  0  0  0  0  0  0  0  0  0
  -26.5390  -33.3650   25.0450 C   0  0  0  0  0  1  0  0  0  0  0  0
  -27.5400  -32.2930   25.5050 C   0  0  0  0  0  3  0  0  0  0  0  0
  -29.7460  -32.0320   26.5510 C   0  0  0  0  0  1  0  0  0  0  0  0
  -28.8240  -32.9330   25.8640 N   0  0  0  0  0  0  0  0  0  0  0  0
  -28.6690  -33.7400   26.4610 H   0  0  0  0  0  0  0  0  0  0  0  0
  -27.4390  -27.5840   24.3390 C   0  0  1  0  0  0  0  0  0  0  0  0
  -26.3850  -27.0120   25.3160 C   0  0  0  0  0  1  0  0  0  0  0  0
  -27.7280  -26.5070   23.2680 C   0  0  0  0  0  1  0  0  0  0  0  0
  -28.7510  -27.7900   25.1320 C   0  0  0  0  0  1  0  0  0  0  0  0
  2  1  1  0
  3  1  2  0
  4  2  2  0
  5  3  1  0
  6  5  2  0
  6  4  1  0
  7  9  1  0
  8  7  1  0
  8 10  1  0
 13  9  1  6
 10 13  1  0
 11 15  1  0
 11  5  1  0
 12 13  1  0
 12 52  1  0
 12 11  1  0
 13  6  1  0
 15 14  2  0
 16 22  1  0
 16 14  1  0
 17 22  1  0
 18 19  1  0
 18 17  1  0
 20 19  1  0
 20 27  1  0
 20 21  1  0
 22 21  1  0
 23 16  2  0
 24 25  2  0
 25 44  1  0
 26 25  1  0
 26 29  1  0
 27 24  1  0
 27 28  1  0
 28 26  2  0
 29 30  1  0
 30 31  2  0
 32 35  1  0
 32 31  1  0
 33 32  2  0
 34 33  1  0
 34 29  2  0
 35 36  1  0
 36 41  2  0
 36 37  1  0
 37 38  2  0
 38 39  1  0
 39 43  1  0
 40 39  2  0
 41 40  1  0
 42 41  1  0
 44 45  1  0
 45 48  1  0
 45 47  1  0
 46 44  2  0
 49 50  1  0
 49 24  1  0
 51 49  1  0
 54 53  1  0
 54 55  1  0
 54 52  1  0
 55 57  1  0
 55 56  1  0
 58 59  1  0
 58 55  1  0
 60 61  1  0
 60 59  1  0
 61 63  1  0
 62 73  2  0
 63 68  1  0
 64 74  1  0
 64 72  1  0
 65 67  1  0
 65 71  1  0
 66 72  1  0
 67 66  1  0
 68 67  2  0
 69 63  2  0
 69 70  1  0
 70 65  2  0
 71 64  1  0
 72 62  1  0
 74 76  2  0
 75 74  1  0
 77 75  1  0
 78 83  1  0
 79 75  1  0
 80 79  1  0
 81 80  1  0
 82 81  1  0
 82 78  1  0
 83 79  1  0
 83 84  2  0
 85 84  1  0
 86 85  2  0
 87 78  2  0
 87 86  1  0
 88 62  1  0
 88 98  1  0
 88 89  1  0
 89 92  1  0
 90 89  1  0
 90 94  1  0
 91 90  2  0
 94 93  1  0
 94 96  1  0
 96 97  1  0
 96 95  1  0
 98101  1  1
 98 99  1  0
100 98  1  0
M  ISO  4  14 100  16 100  60 101  61 101
M  END
>  <TORSDO>  (29) 
F 23

>  <SCORE>  (29) 
-4.595

>  <name>  (29) 
29

>  <ligand_id>  (29) 
29

>  <original_smiles>  (29) 
[H]C(C(=O)N1C([H])([H])C([H])([H])C([H])([H])C([H])(n2nc(-c3c([H])c([H])c(Oc4c([H])c([H])c(F)c([H])c4F)c([H])c3[H])c(C(=O)N([H])[H])c2N([H])[H])C1([H])[H])=C([H])C1([H])c2c([H])c([H])c([H])c([H])c2C2(C([H])([H])C([H])([H])C([H])([H])C2([H])[H])C1([H])C([H])([H])C([H])(C([H])([H])[H])[N+]([H])([H])C([H])([H])C([H])([H])C([H])([H])Oc1c([H])c([H])c2c(c1[H])C([H])([H])N(C(=O)C([H])(N([H])C(=O)C([H])(N([H])C([H])([H])[H])C([H])([H])[H])C(C([H])([H])[H])(C([H])([H])[H])C([H])([H])[H])C([H])(C(=O)N([H])C1([H])c3c([H])c([H])c([H])c([H])c3C([H])([H])C([H])([H])C1([H])[H])C2([H])[H]

>  <smiles>  (29) 
[H]C(C(=O)N1C([H])([H])C([H])([H])C([H])([H])C([H])(n2nc(-c3c([H])c([H])c(Oc4c([H])c([H])c(F)c([H])c4F)c([H])c3[H])c(C(=O)N([H])[H])c2N([H])[H])C1([H])[H])=C([H])C1([H])c2c([H])c([H])c([H])c([H])c2C2(C([H])([H])C([H])([H])C([H])([H])C2([H])[H])C1([H])C([H])([H])C([H])(C([H])([H])[H])[N+]([H])([H])C([H])([H])C([H])([H])C([H])([H])Oc1c([H])c([H])c2c(c1[H])C([H])([H])N(C(=O)C([H])(N([H])C(=O)C([H])(N([H])C([H])([H])[H])C([H])([H])[H])C(C([H])([H])[H])(C([H])([H])[H])C([H])([H])[H])C([H])(C(=O)N([H])C1([H])c3c([H])c([H])c([H])c([H])c3C([H])([H])C([H])([H])C1([H])[H])C2([H])[H]

$$$$
30:0:0
     RDKit          3D

100106  0  0  1  0  0  0  0  0999 V2000
  -27.9580  -20.8010   20.0220 C   0  0  0  0  0  3  0  0  0  0  0  0
  -28.7910  -22.1820   19.9620 N   0  0  0  0  0  4  0  0  0  0  0  0
  -29.6690  -21.9910   20.4220 H   0  0  0  0  0  0  0  0  0  0  0  0
  -29.0300  -22.2800   18.9870 H   0  0  0  0  0  0  0  0  0  0  0  0
  -28.3610  -23.6590   20.4340 C   0  0  0  0  0  3  0  0  0  0  0  0
  -28.8730  -25.1160   19.7290 C   0  0  0  0  0  3  0  0  0  0  0  0
  -28.8190  -26.6000   20.2550 O   0  0  0  0  0  0  0  0  0  0  0  0
  -24.8230  -31.9580   23.3120 C   0  0  0  0  0  0  0  0  0  0  0  0
  -27.7570  -27.5610   20.1220 C   0  0  0  0  0  0  0  0  0  0  0  0
  -23.8290  -30.6900   21.4830 C   0  0  0  0  0  3  0  0  0  0  0  0
  -25.4040  -29.2580   20.0380 C   0  0  0  0  0  0  0  0  0  0  0  0
  -26.3590  -31.0220   21.5220 C   0  0  0  0  0  2  0  0  0  0  0  0
  -26.5160  -29.6820   20.7750 C   0  0  0  0  0  0  0  0  0  0  0  0
  -27.6940  -28.8470   20.8010 C   0  0  0  0  0  3  0  0  0  0  0  0
  -26.6290  -27.2510   19.3390 C   0  0  0  0  0  3  0  0  0  0  0  0
  -25.4780  -28.0670   19.3000 C   0  0  0  0  0  3  0  0  0  0  0  0
  -24.1560  -30.1240   20.0730 C   0  0  0  0  0  2  0  0  0  0  0  0
  -25.0230  -31.2570   22.1530 N   0  0  0  0  0  0  0  0  0  0  0  0
  -23.6880  -32.1440   23.7800 O   0  0  0  0  0  0  0  0  0  0  0  0
  -23.2150  -29.6010   22.3640 C   0  0  0  0  0  0  0  0  0  0  0  0
  -21.8970  -29.5120   22.3400 N   0  0  0  0  0  0  0  0  0  0  0  0
  -23.9170  -28.8350   23.0320 O   0  0  0  0  0  0  0  0  0  0  0  0
  -21.3490  -30.1860   21.8260 H   0  0  0  0  0  0  0  0  0  0  0  0
  -18.3910  -27.6940   22.7220 C   0  0  0  0  0  0  0  0  0  0  0  0
  -21.2940  -28.2630   22.6910 C   0  0  0  0  0  3  0  0  0  0  0  0
  -21.7870  -27.1720   21.2460 C   0  0  0  0  0  1  0  0  0  0  0  0
  -19.6910  -25.9160   20.4510 C   0  0  0  0  0  1  0  0  0  0  0  0
  -18.2650  -26.4120   21.5450 C   0  0  0  0  0  2  0  0  0  0  0  0
  -19.6440  -28.4640   23.2020 C   0  0  0  0  0  0  0  0  0  0  0  0
  -19.4030  -29.7000   23.8830 C   0  0  0  0  0  3  0  0  0  0  0  0
  -18.1190  -30.2420   24.0950 C   0  0  0  0  0  3  0  0  0  0  0  0
  -16.9890  -29.5550   23.6390 C   0  0  0  0  0  3  0  0  0  0  0  0
  -17.1360  -28.3180   22.9790 C   0  0  0  0  0  3  0  0  0  0  0  0
  -26.0130  -32.5730   24.0910 C   0  0  0  0  0  3  0  0  0  0  0  0
  -26.3530  -31.7930   25.4180 C   0  0  1  0  0  0  0  0  0  0  0  0
  -25.1240  -31.5140   26.3150 C   0  0  0  0  0  1  0  0  0  0  0  0
  -27.0200  -30.4350   25.1020 C   0  0  0  0  0  1  0  0  0  0  0  0
  -27.3760  -32.6070   26.2430 C   0  0  0  0  0  1  0  0  0  0  0  0
  -25.6580  -33.9680   24.3880 N   0  0  0  0  0  0  0  0  0  0  0  0
  -25.9950  -35.0130   23.6240 C   0  0  0  0  0  0  0  0  0  0  0  0
  -26.7120  -34.9040   22.6250 O   0  0  0  0  0  0  0  0  0  0  0  0
  -25.0270  -34.1230   25.1610 H   0  0  0  0  0  0  0  0  0  0  0  0
  -24.2180  -36.7450   23.1980 C   0  0  0  0  0  1  0  0  0  0  0  0
  -25.4610  -36.3970   24.0360 C   0  0  0  0  0  3  0  0  0  0  0  0
  -27.5660  -37.3550   24.8600 C   0  0  0  0  0  1  0  0  0  0  0  0
  -26.4640  -37.4760   23.9090 N   0  0  0  0  0  0  0  0  0  0  0  0
  -26.0320  -38.3880   24.0380 H   0  0  0  0  0  0  0  0  0  0  0  0
  -26.2400  -21.2400   19.8720 C   0  0  0  0  0  2  0  0  0  0  0  0
  -26.0780  -24.1030   20.9160 C   0  0  0  0  0  2  0  0  0  0  0  0
  -26.1550  -24.0300   19.3940 C   0  0  0  0  0  2  0  0  0  0  0  0
  -24.7730  -23.3330   20.7600 C   0  0  0  0  0  2  0  0  0  0  0  0
  -25.3360  -22.7100   19.4500 C   0  0  2  0  0  0  0  0  0  0  0  0
  -24.0860  -22.7550   18.3680 N   0  0  0  0  0  4  0  0  0  0  0  0
  -23.4010  -22.1090   18.7320 H   0  0  0  0  0  0  0  0  0  0  0  0
  -24.4380  -22.3150   17.5330 H   0  0  0  0  0  0  0  0  0  0  0  0
  -23.1990  -24.0340   17.8190 C   0  0  0  0  0  2  0  0  0  0  0  0
  -21.3540  -23.0750   12.6830 C   0  0  0  0  0  2  0  0  0  0  0  0
  -20.4410  -24.5540   13.0160 C   0  0  0  0  0  1  0  0  0  0  0  0
  -22.1920  -22.1980   13.9580 C   0  0  0  0  0  3  0  0  0  0  0  0
  -20.6830  -25.3580   15.7530 C   0  0  0  0  0 15  0  0  0  0  0  0
  -22.4960  -22.6430   15.6350 C   0  0  0  0  0  3  0  0  0  0  0  0
  -21.8790  -23.9670   16.6550 C   0  0  0  0  0  2  0  0  0  0  0  0
  -28.9910  -19.1620   19.8850 C   0  0  0  0  0  3  0  0  0  0  0  0
  -29.1610  -17.3130   20.2960 C   0  0  0  0  0  3  0  0  0  0  0  0
  -30.2900  -15.8660   20.0280 C   0  0  0  0  0  0  0  0  0  0  0  0
  -30.6920  -13.3010   19.4070 C   0  0  0  0  0  2  0  0  0  0  0  0
  -29.8560  -12.8490   18.1730 C   0  0  0  0  0  2  0  0  0  0  0  0
  -28.3920  -12.5630   18.5600 C   0  0  0  0  0  2  0  0  0  0  0  0
  -27.8620  -13.6320   19.5460 C   0  0  0  0  0  3  0  0  0  0  0  0
  -28.8120  -13.8880   20.7200 C   0  0  0  0  0  2  0  0  0  0  0  0
  -30.0010  -14.4620   20.1150 N   0  0  0  0  0  0  0  0  0  0  0  0
  -31.5000  -15.9810   19.7160 O   0  0  0  0  0  0  0  0  0  0  0  0
  -25.5430  -14.2980   20.3070 C   0  0  0  0  0  0  0  0  0  0  0  0
  -24.4490  -13.5680   20.6690 C   0  0  0  0  0  0  0  0  0  0  0  0
  -24.8500  -12.1970   20.6050 C   0  0  0  0  0  0  0  0  0  0  0  0
  -26.5280  -13.3710   20.0260 N   0  0  0  0  0  0  0  0  0  0  0  0
  -26.1330  -12.1020   20.2820 N   0  0  0  0  0  0  0  0  0  0  0  0
  -24.0670  -10.9700   20.7720 C   0  0  0  0  0  0  0  0  0  0  0  0
  -24.5180   -9.9080   21.5850 C   0  0  0  0  0  3  0  0  0  0  0  0
  -23.7330   -8.7470   21.7420 C   0  0  0  0  0  3  0  0  0  0  0  0
  -22.4840   -8.6410   21.0860 C   0  0  0  0  0  0  0  0  0  0  0  0
  -22.0520   -9.6920   20.2580 C   0  0  0  0  0  3  0  0  0  0  0  0
  -22.8360  -10.8440   20.0980 C   0  0  0  0  0  3  0  0  0  0  0  0
  -21.6640   -7.5410   21.1590 O   0  0  0  0  0  0  0  0  0  0  0  0
  -21.7460   -6.6520   22.2010 C   0  0  0  0  0  0  0  0  0  0  0  0
  -21.6320   -7.0670   23.5460 C   0  0  0  0  0  3  0  0  0  0  0  0
  -21.6520   -6.1110   24.5810 C   0  0  0  0  0  3  0  0  0  0  0  0
  -21.7750   -4.7430   24.2740 C   0  0  0  0  0  0  0  0  0  0  0  0
  -21.8850   -4.3280   22.9350 C   0  0  0  0  0  3  0  0  0  0  0  0
  -21.8670   -5.2800   21.9010 C   0  0  0  0  0  0  0  0  0  0  0  0
  -21.9510   -4.8740   20.6120 F   0  0  0  0  0  0  0  0  0  0  0  0
  -21.7860   -3.8220   25.2670 F   0  0  0  0  0  0  0  0  0  0  0  0
  -23.0830  -14.1120   20.9520 C   0  0  0  0  0  0  0  0  0  0  0  0
  -22.3440  -13.4670   21.8460 N   0  0  0  0  0  0  0  0  0  0  0  0
  -22.6820  -15.1410   20.4100 O   0  0  0  0  0  0  0  0  0  0  0  0
  -22.6870  -12.6350   22.3020 H   0  0  0  0  0  0  0  0  0  0  0  0
  -21.4240  -13.8130   22.0800 H   0  0  0  0  0  0  0  0  0  0  0  0
  -25.7750  -15.6630   20.1630 N   0  0  0  0  0  0  0  0  0  0  0  0
  -25.0320  -16.3430   20.2820 H   0  0  0  0  0  0  0  0  0  0  0  0
  -26.6190  -16.0610   19.7720 H   0  0  0  0  0  0  0  0  0  0  0  0
  1 48  1  0
  2  1  1  0
  2  3  1  0
  2  5  1  0
  4  2  1  0
  6  7  1  0
  6  5  2  0
  8 19  2  0
  9  7  1  0
  9 14  1  0
 10 18  1  0
 10 20  1  0
 11 17  1  0
 11 13  1  0
 12 18  1  0
 13 14  2  0
 13 12  1  0
 15  9  2  0
 16 15  1  0
 16 11  2  0
 17 10  1  0
 18  8  1  0
 20 22  2  0
 21 20  1  0
 21 25  1  0
 23 21  1  0
 24 33  2  0
 24 29  1  0
 25 26  1  0
 25 29  1  0
 27 28  1  0
 28 24  1  0
 29 30  2  0
 30 31  1  0
 32 31  2  0
 33 32  1  0
 34  8  1  0
 34 39  1  0
 34 35  1  0
 35 38  1  1
 35 36  1  0
 37 35  1  0
 39 42  1  0
 40 44  1  0
 40 39  1  0
 41 40  2  0
 44 43  1  0
 46 44  1  0
 46 47  1  0
 46 45  1  0
 50 52  1  0
 50 49  1  0
 51 49  1  0
 52 48  1  1
 52 51  1  0
 53 54  1  0
 53 52  1  0
 55 53  1  0
 56 53  1  0
 57 58  1  0
 57 59  1  0
 59 61  2  0
 61 62  1  0
 62 56  1  0
 63  1  1  0
 63 64  2  0
 65 71  1  0
 65 64  1  0
 66 71  1  0
 67 68  1  0
 67 66  1  0
 69 68  1  0
 69 76  1  0
 69 70  1  0
 71 70  1  0
 72 65  2  0
 73 74  2  0
 74 93  1  0
 75 74  1  0
 75 78  1  0
 76 77  1  0
 76 73  1  0
 77 75  2  0
 78 79  1  0
 79 80  2  0
 81 84  1  0
 81 80  1  0
 82 81  2  0
 83 82  1  0
 83 78  2  0
 84 85  1  0
 85 86  1  0
 86 87  2  0
 88 87  1  0
 88 92  1  0
 89 88  2  0
 90 85  2  0
 90 89  1  0
 91 90  1  0
 93 94  1  0
 94 97  1  0
 94 96  1  0
 95 93  2  0
 98 99  1  0
 98 73  1  0
100 98  1  0
M  ISO  4   6 101   7 101  64 100  65 100
M  END
>  <TORSDO>  (30) 
F 26

>  <SCORE>  (30) 
-13.869

>  <name>  (30) 
30

>  <ligand_id>  (30) 
30

>  <original_smiles>  (30) 
[H]c1c([H])c([H])c2c(c1[H])C([H])([H])C([H])([H])C([H])([H])C2([H])N([H])C(=O)C1([H])N(C(=O)C([H])(N([H])C(=O)C([H])(N([H])C([H])([H])[H])C([H])([H])[H])C(C([H])([H])[H])(C([H])([H])[H])C([H])([H])[H])C([H])([H])c2c([H])c(OC([H])([H])C([H])([H])[N+]([H])([H])C([H])(C([H])([H])C([H])([H])C(=O)N3C([H])([H])C([H])([H])C([H])([H])C([H])(n4nc(-c5c([H])c([H])c(Oc6c([H])c([H])c(F)c([H])c6F)c([H])c5[H])c(C(=O)N([H])[H])c4N([H])[H])C3([H])[H])C([H])([H])C3([N+]([H])([H])C([H])([H])C4([H])C([H])([H])C([H])([H])C([H])([H])C([H])([H])C4([H])[H])C([H])([H])C([H])([H])C3([H])[H])c([H])c([H])c2C1([H])[H]

>  <smiles>  (30) 
[H]c1c([H])c([H])c2c(c1[H])C([H])([H])C([H])([H])C([H])([H])C2([H])N([H])C(=O)C1([H])N(C(=O)C([H])(N([H])C(=O)C([H])(N([H])C([H])([H])[H])C([H])([H])[H])C(C([H])([H])[H])(C([H])([H])[H])C([H])([H])[H])C([H])([H])c2c([H])c(OC([H])([H])C([H])([H])[N+]([H])([H])C([H])(C([H])([H])C([H])([H])C(=O)N3C([H])([H])C([H])([H])C([H])([H])C([H])(n4nc(-c5c([H])c([H])c(Oc6c([H])c([H])c(F)c([H])c6F)c([H])c5[H])c(C(=O)N([H])[H])c4N([H])[H])C3([H])[H])C([H])([H])C3([N+]([H])([H])C([H])([H])C4([H])C([H])([H])C([H])([H])C([H])([H])C([H])([H])C4([H])[H])C([H])([H])C([H])([H])C3([H])[H])c([H])c([H])c2C1([H])[H]

$$$$
31:0:0
     RDKit          3D

 91 99  0  0  1  0  0  0  0  0999 V2000
  -29.6940  -21.3920   21.5940 N   0  0  0  0  0  4  0  0  0  0  0  0
  -30.6270  -21.7440   21.4560 H   0  0  0  0  0  0  0  0  0  0  0  0
  -29.6240  -21.0920   22.5540 H   0  0  0  0  0  0  0  0  0  0  0  0
  -28.5910  -19.1600   21.2480 C   0  0  0  0  0  2  0  0  0  0  0  0
  -29.4460  -17.8950   21.3730 C   0  0  0  0  0  2  0  0  0  0  0  0
  -30.8750  -19.4880   20.5240 C   0  0  0  0  0  2  0  0  0  0  0  0
  -29.5430  -20.2320   20.6930 C   0  0  0  0  0  3  0  0  0  0  0  0
  -30.4800  -18.0960   20.3630 N   0  0  0  0  0  0  0  0  0  0  0  0
  -31.6180  -17.1820   20.4880 C   0  0  0  0  0  2  0  0  0  0  0  0
  -31.1380  -15.7650   20.8710 C   0  0  0  0  0  2  0  0  0  0  0  0
  -31.7360  -14.6060   20.0510 C   0  0  0  0  0  0  0  0  0  0  0  0
  -31.3710  -12.3800   19.0350 C   0  0  0  0  0  2  0  0  0  0  0  0
  -30.4380  -12.4930   17.8140 C   0  0  0  0  0  2  0  0  0  0  0  0
  -28.9550  -12.4670   18.2390 C   0  0  0  0  0  2  0  0  0  0  0  0
  -28.6510  -13.4540   19.3960 C   0  0  0  0  0  3  0  0  0  0  0  0
  -29.6760  -13.2590   20.5360 C   0  0  0  0  0  2  0  0  0  0  0  0
  -31.0200  -13.4550   19.9690 N   0  0  0  0  0  0  0  0  0  0  0  0
  -32.8170  -14.7540   19.4680 O   0  0  0  0  0  0  0  0  0  0  0  0
  -26.2930  -14.2790   20.0360 C   0  0  0  0  0  0  0  0  0  0  0  0
  -25.1710  -13.6060   20.4410 C   0  0  0  0  0  0  0  0  0  0  0  0
  -25.5370  -12.2270   20.4990 C   0  0  0  0  0  0  0  0  0  0  0  0
  -27.2760  -13.3130   19.8720 N   0  0  0  0  0  0  0  0  0  0  0  0
  -26.8220  -12.0780   20.2040 N   0  0  0  0  0  0  0  0  0  0  0  0
  -24.7280  -11.0300   20.7580 C   0  0  0  0  0  0  0  0  0  0  0  0
  -25.0370  -10.1430   21.8130 C   0  0  0  0  0  3  0  0  0  0  0  0
  -24.2310   -9.0100   22.0540 C   0  0  0  0  0  3  0  0  0  0  0  0
  -23.1020   -8.7560   21.2410 C   0  0  0  0  0  0  0  0  0  0  0  0
  -22.8110   -9.6300   20.1780 C   0  0  0  0  0  3  0  0  0  0  0  0
  -23.6180  -10.7540   19.9350 C   0  0  0  0  0  3  0  0  0  0  0  0
  -22.2780   -7.6660   21.3860 O   0  0  0  0  0  0  0  0  0  0  0  0
  -22.0250   -7.1130   22.6160 C   0  0  0  0  0  0  0  0  0  0  0  0
  -21.4800   -7.8720   23.6750 C   0  0  0  0  0  3  0  0  0  0  0  0
  -21.1690   -7.2480   24.9000 C   0  0  0  0  0  3  0  0  0  0  0  0
  -21.3940   -5.8680   25.0670 C   0  0  0  0  0  0  0  0  0  0  0  0
  -21.9320   -5.1110   24.0110 C   0  0  0  0  0  3  0  0  0  0  0  0
  -22.2430   -5.7320   22.7880 C   0  0  0  0  0  0  0  0  0  0  0  0
  -22.7400   -4.9930   21.7680 F   0  0  0  0  0  0  0  0  0  0  0  0
  -21.0910   -5.2690   26.2410 F   0  0  0  0  0  0  0  0  0  0  0  0
  -23.8070  -14.1910   20.6740 C   0  0  0  0  0  0  0  0  0  0  0  0
  -23.0410  -13.6170   21.5950 N   0  0  0  0  0  0  0  0  0  0  0  0
  -23.4300  -15.1950   20.0710 O   0  0  0  0  0  0  0  0  0  0  0  0
  -23.3560  -12.8050   22.1050 H   0  0  0  0  0  0  0  0  0  0  0  0
  -22.1270  -13.9980   21.7960 H   0  0  0  0  0  0  0  0  0  0  0  0
  -26.5530  -15.6210   19.7750 N   0  0  0  0  0  0  0  0  0  0  0  0
  -25.8350  -16.3350   19.8390 H   0  0  0  0  0  0  0  0  0  0  0  0
  -27.4400  -15.9820   19.4490 H   0  0  0  0  0  0  0  0  0  0  0  0
  -28.7640  -22.5120   21.3370 C   0  0  0  0  0  2  0  0  0  0  0  0
  -29.2540  -23.7910   22.0390 C   0  0  0  0  0  2  0  0  0  0  0  0
  -28.5250  -25.0770   21.6210 C   0  0  0  0  0  2  0  0  0  0  0  0
  -28.8050  -25.5090   20.1690 C   0  0  0  0  0  2  0  0  0  0  0  0
  -28.7290  -26.9270   20.0770 O   0  0  0  0  0  0  0  0  0  0  0  0
  -24.6040  -31.7760   23.2280 C   0  0  0  0  0  0  0  0  0  0  0  0
  -27.4940  -27.5300   20.1090 C   0  0  0  0  0  0  0  0  0  0  0  0
  -23.4910  -30.3650   21.5270 C   0  0  0  0  0  3  0  0  0  0  0  0
  -25.0330  -28.9120   20.1120 C   0  0  0  0  0  0  0  0  0  0  0  0
  -26.0000  -30.8300   21.3920 C   0  0  0  0  0  2  0  0  0  0  0  0
  -26.1530  -29.4770   20.7310 C   0  0  0  0  0  0  0  0  0  0  0  0
  -27.3860  -28.7940   20.7250 C   0  0  0  0  0  3  0  0  0  0  0  0
  -26.3560  -26.9640   19.4930 C   0  0  0  0  0  3  0  0  0  0  0  0
  -25.1260  -27.6520   19.4920 C   0  0  0  0  0  3  0  0  0  0  0  0
  -23.7560  -29.7200   20.1400 C   0  0  0  0  0  2  0  0  0  0  0  0
  -24.7150  -31.0050   22.1100 N   0  0  0  0  0  0  0  0  0  0  0  0
  -23.5010  -31.9950   23.7480 O   0  0  0  0  0  0  0  0  0  0  0  0
  -22.8590  -29.2990   22.4520 C   0  0  0  0  0  0  0  0  0  0  0  0
  -21.5490  -29.0630   22.2800 N   0  0  0  0  0  0  0  0  0  0  0  0
  -23.5450  -28.6880   23.2750 O   0  0  0  0  0  0  0  0  0  0  0  0
  -21.0550  -29.6160   21.5940 H   0  0  0  0  0  0  0  0  0  0  0  0
  -18.2150  -27.7240   22.6560 C   0  0  0  0  0  0  0  0  0  0  0  0
  -20.7510  -28.0760   23.0060 C   0  0  0  0  0  3  0  0  0  0  0  0
  -20.9270  -26.6630   22.4030 C   0  0  0  0  0  2  0  0  0  0  0  0
  -19.8670  -26.3180   21.3510 C   0  0  0  0  0  2  0  0  0  0  0  0
  -18.4640  -26.3960   21.9590 C   0  0  0  0  0  2  0  0  0  0  0  0
  -19.2900  -28.5190   23.1330 C   0  0  0  0  0  0  0  0  0  0  0  0
  -19.0060  -29.7620   23.7420 C   0  0  0  0  0  3  0  0  0  0  0  0
  -17.6790  -30.2090   23.8800 C   0  0  0  0  0  3  0  0  0  0  0  0
  -16.6170  -29.4100   23.4210 C   0  0  0  0  0  3  0  0  0  0  0  0
  -16.8860  -28.1680   22.8150 C   0  0  0  0  0  3  0  0  0  0  0  0
  -25.8500  -32.4430   23.8900 C   0  0  0  0  0  3  0  0  0  0  0  0
  -25.4970  -33.8370   24.1930 N   0  0  0  0  0  0  0  0  0  0  0  0
  -25.8400  -34.8900   23.4370 C   0  0  0  0  0  0  0  0  0  0  0  0
  -26.5590  -34.7910   22.4370 O   0  0  0  0  0  0  0  0  0  0  0  0
  -24.8650  -33.9860   24.9650 H   0  0  0  0  0  0  0  0  0  0  0  0
  -24.0930  -36.6420   22.9820 C   0  0  0  0  0  1  0  0  0  0  0  0
  -25.3010  -36.2700   23.8560 C   0  0  0  0  0  3  0  0  0  0  0  0
  -27.3760  -37.2080   24.7780 C   0  0  0  0  0  1  0  0  0  0  0  0
  -26.3150  -37.3440   23.7830 N   0  0  0  0  0  0  0  0  0  0  0  0
  -25.8830  -38.2560   23.9030 H   0  0  0  0  0  0  0  0  0  0  0  0
  -26.3390  -31.6940   25.1910 C   0  0  1  0  0  0  0  0  0  0  0  0
  -25.2140  -31.4250   26.2180 C   0  0  0  0  0  1  0  0  0  0  0  0
  -26.9770  -30.3330   24.8260 C   0  0  0  0  0  1  0  0  0  0  0  0
  -27.4350  -32.5270   25.8950 C   0  0  0  0  0  1  0  0  0  0  0  0
  1  3  1  0
  2  1  1  0
  4  5  1  0
  6  7  1  0
  7  4  1  0
  7  1  1  0
  8  9  1  0
  8  6  1  0
  8  5  1  0
  9 10  1  0
 11 10  1  0
 12 17  1  0
 13 14  1  0
 13 12  1  0
 15 14  1  0
 15 22  1  0
 15 16  1  0
 17 11  1  0
 17 16  1  0
 18 11  2  0
 19 20  2  0
 20 21  1  0
 20 39  1  0
 21 24  1  0
 22 19  1  0
 22 23  1  0
 23 21  2  0
 24 25  1  0
 25 26  2  0
 27 30  1  0
 27 26  1  0
 28 27  2  0
 29 28  1  0
 29 24  2  0
 30 31  1  0
 31 36  2  0
 31 32  1  0
 32 33  2  0
 33 34  1  0
 34 38  1  0
 35 34  2  0
 36 35  1  0
 37 36  1  0
 39 40  1  0
 40 43  1  0
 40 42  1  0
 41 39  2  0
 44 45  1  0
 44 19  1  0
 46 44  1  0
 47  1  1  0
 47 48  1  0
 49 48  1  0
 50 49  1  0
 51 53  1  0
 51 50  1  0
 52 63  2  0
 53 58  1  0
 54 62  1  0
 54 64  1  0
 55 61  1  0
 55 57  1  0
 56 62  1  0
 57 56  1  0
 58 57  2  0
 59 53  2  0
 60 59  1  0
 60 55  2  0
 61 54  1  0
 62 52  1  0
 64 66  2  0
 65 64  1  0
 67 65  1  0
 68 77  2  0
 68 73  1  0
 69 65  1  0
 69 73  1  0
 70 69  1  0
 71 72  1  0
 71 70  1  0
 72 68  1  0
 73 74  2  0
 74 75  1  0
 76 75  2  0
 77 76  1  0
 78 52  1  0
 78 79  1  0
 78 88  1  0
 79 82  1  0
 80 84  1  0
 80 79  1  0
 81 80  2  0
 84 83  1  0
 86 84  1  0
 86 87  1  0
 86 85  1  0
 88 91  1  1
 88 89  1  0
 90 88  1  0
M  ISO  4  10 100  11 100  50 101  51 101
M  END
>  <TORSDO>  (31) 
F 23

>  <SCORE>  (31) 
-10.533

>  <name>  (31) 
31

>  <ligand_id>  (31) 
31

>  <original_smiles>  (31) 
[H]c1c([H])c([H])c2c(c1[H])C([H])([H])C([H])([H])C([H])([H])C2([H])N([H])C(=O)C1([H])N(C(=O)C([H])(N([H])C(=O)C([H])(N([H])C([H])([H])[H])C([H])([H])[H])C(C([H])([H])[H])(C([H])([H])[H])C([H])([H])[H])C([H])([H])c2c([H])c(OC([H])([H])C([H])([H])C([H])([H])C([H])([H])[N+]([H])([H])C3([H])C([H])([H])N(C([H])([H])C([H])([H])C(=O)N4C([H])([H])C([H])([H])C([H])([H])C([H])(n5nc(-c6c([H])c([H])c(Oc7c([H])c([H])c(F)c([H])c7F)c([H])c6[H])c(C(=O)N([H])[H])c5N([H])[H])C4([H])[H])C([H])([H])C3([H])[H])c([H])c([H])c2C1([H])[H]

>  <smiles>  (31) 
[H]c1c([H])c([H])c2c(c1[H])C([H])([H])C([H])([H])C([H])([H])C2([H])N([H])C(=O)C1([H])N(C(=O)C([H])(N([H])C(=O)C([H])(N([H])C([H])([H])[H])C([H])([H])[H])C(C([H])([H])[H])(C([H])([H])[H])C([H])([H])[H])C([H])([H])c2c([H])c(OC([H])([H])C([H])([H])C([H])([H])C([H])([H])[N+]([H])([H])C3([H])C([H])([H])N(C([H])([H])C([H])([H])C(=O)N4C([H])([H])C([H])([H])C([H])([H])C([H])(n5nc(-c6c([H])c([H])c(Oc7c([H])c([H])c(F)c([H])c7F)c([H])c6[H])c(C(=O)N([H])[H])c5N([H])[H])C4([H])[H])C([H])([H])C3([H])[H])c([H])c([H])c2C1([H])[H]

$$$$
32:0:0
     RDKit          3D

 94 94  0  0  1  0  0  0  0  0999 V2000
  -24.3030  -24.3210   20.1980 C   0  0  0  0  0  2  0  0  0  0  0  0
  -17.0900  -26.8990   18.8670 C   0  0  0  0  0 15  0  0  0  0  0  0
  -18.5560  -29.0820   18.4250 C   0  0  0  0  0 15  0  0  0  0  0  0
  -18.3480  -24.7510   19.1280 C   0  0  0  0  0 15  0  0  0  0  0  0
  -22.1130  -22.2490   19.3720 C   0  0  0  0  0 15  0  0  0  0  0  0
  -21.0410  -28.0030   18.4080 C   0  0  0  0  0 15  0  0  0  0  0  0
  -24.2030  -21.4530   19.2490 C   0  0  0  0  0 15  0  0  0  0  0  0
  -20.6800  -23.9550   19.0220 C   0  0  0  0  0  1  0  0  0  0  0  0
  -23.4030  -23.7190   19.0740 C   0  0  0  0  0  1  0  0  0  0  0  0
  -21.8620  -25.1550   18.8270 N   0  0  0  0  0  1  0  0  0  0  0  0
  -26.2440  -19.0440   19.6110 C   0  0  0  0  0 15  0  0  0  0  0  0
  -28.3060  -16.9890   19.6550 C   0  0  0  0  0  2  0  0  0  0  0  0
  -30.3820  -14.3380   19.4570 C   0  0  0  0  0  2  0  0  0  0  0  0
  -30.4430  -12.7690   18.8360 C   0  0  0  0  0  2  0  0  0  0  0  0
  -29.4100  -11.8170   19.4190 C   0  0  0  0  0  2  0  0  0  0  0  0
  -28.3840  -12.8390   19.8680 C   0  0  0  0  0  3  0  0  0  0  0  0
  -28.7810  -14.0690   20.7750 C   0  0  0  0  0  2  0  0  0  0  0  0
  -28.9810  -15.3270   19.8830 N   0  0  0  0  0  0  0  0  0  0  0  0
  -29.6490  -17.0210   19.4630 O   0  0  0  0  0  1  0  0  0  0  0  0
  -26.2020  -13.2860   20.7250 C   0  0  0  0  0  0  0  0  0  0  0  0
  -25.1910  -12.5140   21.1530 C   0  0  0  0  0  0  0  0  0  0  0  0
  -25.6030  -11.1580   20.9460 C   0  0  0  0  0  0  0  0  0  0  0  0
  -27.1530  -12.3920   20.3190 N   0  0  0  0  0  0  0  0  0  0  0  0
  -26.8480  -11.0930   20.4930 N   0  0  0  0  0  0  0  0  0  0  0  0
  -24.8380   -9.9310   21.0870 C   0  0  0  0  0  0  0  0  0  0  0  0
  -25.0450   -9.0430   22.1630 C   0  0  0  0  0  3  0  0  0  0  0  0
  -24.2530   -7.8830   22.2800 C   0  0  0  0  0  3  0  0  0  0  0  0
  -23.2500   -7.6130   21.3170 C   0  0  0  0  0  0  0  0  0  0  0  0
  -23.0720   -8.4910   20.2340 C   0  0  0  0  0  3  0  0  0  0  0  0
  -23.8650   -9.6400   20.1160 C   0  0  0  0  0  3  0  0  0  0  0  0
  -22.4450   -6.5020   21.3350 O   0  0  0  0  0  0  0  0  0  0  0  0
  -21.7880   -6.1150   22.4720 C   0  0  0  0  0  0  0  0  0  0  0  0
  -20.7740   -6.9070   23.0520 C   0  0  0  0  0  3  0  0  0  0  0  0
  -20.0750   -6.4350   24.1810 C   0  0  0  0  0  3  0  0  0  0  0  0
  -20.3830   -5.1730   24.7230 C   0  0  0  0  0  0  0  0  0  0  0  0
  -21.3920   -4.3830   24.1440 C   0  0  0  0  0  3  0  0  0  0  0  0
  -22.0900   -4.8530   23.0180 C   0  0  0  0  0  0  0  0  0  0  0  0
  -23.0460   -4.0800   22.4480 F   0  0  0  0  0  0  0  0  0  0  0  0
  -19.7060   -4.7160   25.8020 F   0  0  0  0  0  0  0  0  0  0  0  0
  -23.8860  -13.0510   21.6190 C   0  0  0  0  0  0  0  0  0  0  0  0
  -23.2100  -12.3240   22.4940 N   0  0  0  0  0  0  0  0  0  0  0  0
  -23.4970  -14.1610   21.2560 O   0  0  0  0  0  0  0  0  0  0  0  0
  -23.5520  -11.4290   22.8100 H   0  0  0  0  0  0  0  0  0  0  0  0
  -22.3370  -12.6740   22.8590 H   0  0  0  0  0  0  0  0  0  0  0  0
  -26.3840  -14.6710   20.6410 N   0  0  0  0  0  0  0  0  0  0  0  0
  -25.6160  -15.3100   20.8170 H   0  0  0  0  0  0  0  0  0  0  0  0
  -27.1590  -15.0850   20.1460 H   0  0  0  0  0  0  0  0  0  0  0  0
  -25.3010  -23.4270   20.8700 N   0  0  0  0  0  4  0  0  0  0  0  0
  -24.8650  -22.5560   21.1350 H   0  0  0  0  0  0  0  0  0  0  0  0
  -25.5690  -23.9030   21.7170 H   0  0  0  0  0  0  0  0  0  0  0  0
  -26.5290  -23.1570   20.0600 C   0  0  0  0  0  2  0  0  0  0  0  0
  -27.4910  -22.0130   20.5330 C   0  0  0  0  0  2  0  0  0  0  0  0
  -28.0670  -21.9630   21.9850 C   0  0  0  0  0  2  0  0  0  0  0  0
  -29.3920  -22.5020   22.2240 O   0  0  0  0  0  0  0  0  0  0  0  0
  -26.5690  -28.9400   23.4290 C   0  0  0  0  0  0  0  0  0  0  0  0
  -29.4440  -23.8490   21.9840 C   0  0  0  0  0  0  0  0  0  0  0  0
  -27.9620  -28.6740   21.4550 C   0  0  0  0  0  3  0  0  0  0  0  0
  -29.3730  -26.5640   21.2700 C   0  0  0  0  0  0  0  0  0  0  0  0
  -28.4070  -27.2340   23.4820 C   0  0  0  0  0  2  0  0  0  0  0  0
  -28.9090  -26.1620   22.5290 C   0  0  0  0  0  0  0  0  0  0  0  0
  -28.9210  -24.7960   22.8890 C   0  0  0  0  0  3  0  0  0  0  0  0
  -29.9950  -24.2840   20.7690 C   0  0  0  0  0  3  0  0  0  0  0  0
  -29.9150  -25.6270   20.3750 C   0  0  0  0  0  3  0  0  0  0  0  0
  -29.3000  -28.0420   20.9760 C   0  0  0  0  0  2  0  0  0  0  0  0
  -27.6150  -28.3030   22.8380 N   0  0  0  0  0  0  0  0  0  0  0  0
  -25.9520  -29.8520   22.8600 O   0  0  0  0  0  0  0  0  0  0  0  0
  -26.8360  -28.1970   20.5540 C   0  0  0  0  0  0  0  0  0  0  0  0
  -27.0370  -28.4360   19.2990 N   0  0  0  0  0  0  0  0  0  0  0  0
  -25.8710  -27.5430   20.9580 O   0  0  0  0  0  0  0  0  0  0  0  0
  -27.7910  -29.0480   19.0240 H   0  0  0  0  0  0  0  0  0  0  0  0
  -25.8730  -27.5190   15.3550 C   0  0  2  0  0  0  0  0  0  0  0  0
  -26.6430  -27.3510   18.4300 C   0  0  0  0  0  3  0  0  0  0  0  0
  -28.2120  -26.5530   17.9030 C   0  0  0  0  0  2  0  0  0  0  0  0
  -28.5730  -26.2400   16.0670 C   0  0  0  0  0  3  0  0  0  0  0  0
  -27.3380  -26.7400   14.7880 C   0  0  0  0  0  3  0  0  0  0  0  0
  -25.5210  -27.8250   17.2040 C   0  0  2  0  0  0  0  0  0  0  0  0
  -24.6640  -28.7380   17.8400 C   0  0  0  0  0  2  0  0  0  0  0  0
  -25.4870  -29.1140   16.9930 C   0  0  0  0  0  3  0  0  0  0  0  0
  -25.8450  -28.8110   15.1390 C   0  0  0  0  0  3  0  0  0  0  0  0
  -25.3730  -28.1510   14.2130 C   0  0  0  0  0  2  0  0  0  0  0  0
  -26.1160  -28.5500   24.8590 C   0  0  0  0  0  3  0  0  0  0  0  0
  -26.0320  -29.8010   25.6170 N   0  0  0  0  0  0  0  0  0  0  0  0
  -27.0810  -30.3870   26.2080 C   0  0  0  0  0  0  0  0  0  0  0  0
  -28.2050  -29.8750   26.2400 O   0  0  0  0  0  0  0  0  0  0  0  0
  -25.1520  -30.2930   25.5900 H   0  0  0  0  0  0  0  0  0  0  0  0
  -27.2220  -32.8780   25.9060 C   0  0  0  0  0  1  0  0  0  0  0  0
  -26.8390  -31.7500   26.8770 C   0  0  0  0  0  3  0  0  0  0  0  0
  -27.1860  -30.9440   29.1690 C   0  0  0  0  0  1  0  0  0  0  0  0
  -27.5740  -31.9160   28.1500 N   0  0  0  0  0  0  0  0  0  0  0  0
  -27.4320  -32.8470   28.5300 H   0  0  0  0  0  0  0  0  0  0  0  0
  -24.7460  -27.7740   24.8890 C   0  0  1  0  0  0  0  0  0  0  0  0
  -23.6250  -28.4430   24.0600 C   0  0  0  0  0  1  0  0  0  0  0  0
  -24.9210  -26.3280   24.3680 C   0  0  0  0  0  1  0  0  0  0  0  0
  -24.2640  -27.6610   26.3530 C   0  0  0  0  0  1  0  0  0  0  0  0
  1 48  1  0
  9  1  1  0
 10  8  1  0
 12 18  1  0
 13 18  1  0
 14 15  1  0
 14 13  1  0
 16 15  1  0
 16 23  1  0
 16 17  1  0
 18 17  1  0
 19 12  1  0
 20 21  2  0
 21 40  1  0
 22 25  1  0
 22 21  1  0
 23 24  1  0
 23 20  1  0
 24 22  2  0
 25 26  1  0
 26 27  2  0
 28 31  1  0
 28 27  1  0
 29 28  2  0
 30 29  1  0
 30 25  2  0
 31 32  1  0
 32 37  2  0
 32 33  1  0
 33 34  2  0
 34 35  1  0
 35 39  1  0
 36 35  2  0
 37 36  1  0
 38 37  1  0
 40 41  1  0
 41 43  1  0
 41 44  1  0
 42 40  2  0
 45 20  1  0
 45 46  1  0
 47 45  1  0
 48 49  1  0
 48 50  1  0
 51 52  1  0
 51 48  1  0
 52 53  1  0
 53 54  1  0
 56 54  1  0
 56 61  1  0
 57 67  1  0
 57 65  1  0
 58 60  1  0
 60 61  2  0
 60 59  1  0
 62 56  2  0
 63 62  1  0
 63 58  2  0
 64 58  1  0
 64 57  1  0
 65 55  1  0
 65 59  1  0
 66 55  2  0
 67 69  2  0
 68 67  1  0
 70 68  1  0
 71 80  1  1
 71 76  1  0
 72 68  1  0
 73 72  1  0
 74 73  1  0
 75 71  1  0
 75 74  2  0
 76 77  1  6
 76 72  1  0
 78 76  1  0
 78 77  1  0
 79 80  1  0
 79 71  1  0
 79 78  1  0
 81 55  1  0
 81 91  1  0
 81 82  1  0
 82 83  1  0
 83 84  2  0
 83 87  1  0
 85 82  1  0
 87 86  1  0
 87 89  1  0
 89 90  1  0
 89 88  1  0
 91 94  1  1
 92 91  1  0
 93 91  1  0
M  ISO  4  11 100  12 100  53 101  54 101
M  END
>  <TORSDO>  (32) 
F 22

>  <SCORE>  (32) 
-1.638

>  <name>  (32) 
32

>  <ligand_id>  (32) 
32

>  <original_smiles>  (32) 
[H]c1c([H])c([H])c2c(c1[H])C([H])([H])C([H])([H])C([H])([H])C2([H])N([H])C(=O)C1([H])N(C(=O)C([H])(N([H])C(=O)C([H])(N([H])C([H])([H])[H])C([H])([H])[H])C(C([H])([H])[H])(C([H])([H])[H])C([H])([H])[H])C([H])([H])c2c([H])c(OC([H])([H])C([H])([H])C([H])([H])[N+]([H])([H])C([H])([H])C3([H])N4C([H])([H])C([H])([H])C([H])([H])C([H])([H])C4([H])C([H])([H])C3([H])C([H])([H])C(=O)N3C([H])([H])C([H])([H])C([H])([H])C([H])(n4nc(-c5c([H])c([H])c(Oc6c([H])c([H])c(F)c([H])c6F)c([H])c5[H])c(C(=O)N([H])[H])c4N([H])[H])C3([H])[H])c([H])c([H])c2C1([H])[H]

>  <smiles>  (32) 
[H]c1c([H])c([H])c2c(c1[H])C([H])([H])C([H])([H])C([H])([H])C2([H])N([H])C(=O)C1([H])N(C(=O)C([H])(N([H])C(=O)C([H])(N([H])C([H])([H])[H])C([H])([H])[H])C(C([H])([H])[H])(C([H])([H])[H])C([H])([H])[H])C([H])([H])c2c([H])c(OC([H])([H])C([H])([H])C([H])([H])[N+]([H])([H])C([H])([H])C3([H])N4C([H])([H])C([H])([H])C([H])([H])C([H])([H])C4([H])C([H])([H])C3([H])C([H])([H])C(=O)N3C([H])([H])C([H])([H])C([H])([H])C([H])(n4nc(-c5c([H])c([H])c(Oc6c([H])c([H])c(F)c([H])c6F)c([H])c5[H])c(C(=O)N([H])[H])c4N([H])[H])C3([H])[H])c([H])c([H])c2C1([H])[H]

$$$$
33:0:0
     RDKit          3D

 91 99  0  0  1  0  0  0  0  0999 V2000
  -29.1540  -22.7770   19.4680 C   0  0  0  0  0  3  0  0  0  0  0  0
  -25.6530  -21.9450   20.9210 C   0  0  0  0  0  2  0  0  0  0  0  0
  -26.3080  -22.6660   22.1100 C   0  0  0  0  0  2  0  0  0  0  0  0
  -26.7420  -21.7620   19.8570 C   0  0  0  0  0  2  0  0  0  0  0  0
  -27.7170  -23.0850   21.6680 C   0  0  0  0  0  2  0  0  0  0  0  0
  -27.7510  -22.8820   20.1460 C   0  0  0  0  0  3  0  0  0  0  0  0
  -30.0480  -21.6590   20.1340 N   0  0  0  0  0  4  0  0  0  0  0  0
  -30.9410  -21.7040   19.6690 H   0  0  0  0  0  0  0  0  0  0  0  0
  -30.2160  -21.9500   21.0830 H   0  0  0  0  0  0  0  0  0  0  0  0
  -29.6610  -20.1330   20.1920 C   0  0  0  0  0  3  0  0  0  0  0  0
  -30.7190  -18.9570   20.6980 C   0  0  0  0  0  3  0  0  0  0  0  0
  -30.3500  -17.3210   20.8220 C   0  0  0  0  0  2  0  0  0  0  0  0
  -31.2390  -15.9360   20.7060 C   0  0  0  0  0  0  0  0  0  0  0  0
  -31.2640  -13.5480   19.8950 C   0  0  0  0  0  2  0  0  0  0  0  0
  -30.4690  -13.4640   18.5700 C   0  0  0  0  0  2  0  0  0  0  0  0
  -28.9670  -13.2540   18.8470 C   0  0  0  0  0  2  0  0  0  0  0  0
  -28.4250  -14.2170   19.9370 C   0  0  0  0  0  3  0  0  0  0  0  0
  -29.3540  -14.2880   21.1670 C   0  0  0  0  0  2  0  0  0  0  0  0
  -30.6930  -14.6610   20.6970 N   0  0  0  0  0  0  0  0  0  0  0  0
  -32.4540  -16.0280   20.4800 O   0  0  0  0  0  0  0  0  0  0  0  0
  -25.9780  -14.7730   20.4510 C   0  0  0  0  0  0  0  0  0  0  0  0
  -24.8920  -13.9850   20.7210 C   0  0  0  0  0  0  0  0  0  0  0  0
  -25.3710  -12.6390   20.7310 C   0  0  0  0  0  0  0  0  0  0  0  0
  -27.0480  -13.9050   20.3060 N   0  0  0  0  0  0  0  0  0  0  0  0
  -26.6860  -12.6170   20.5400 N   0  0  0  0  0  0  0  0  0  0  0  0
  -24.6440  -11.3690   20.8530 C   0  0  0  0  0  0  0  0  0  0  0  0
  -24.9920  -10.4070   21.8270 C   0  0  0  0  0  3  0  0  0  0  0  0
  -24.2630   -9.2030   21.9370 C   0  0  0  0  0  3  0  0  0  0  0  0
  -23.1720   -8.9520   21.0720 C   0  0  0  0  0  0  0  0  0  0  0  0
  -22.8450   -9.9020   20.0870 C   0  0  0  0  0  3  0  0  0  0  0  0
  -23.5740  -11.0980   19.9760 C   0  0  0  0  0  3  0  0  0  0  0  0
  -22.4230   -7.8000   21.0880 O   0  0  0  0  0  0  0  0  0  0  0  0
  -22.2410   -7.0760   22.2390 C   0  0  0  0  0  0  0  0  0  0  0  0
  -21.6590   -7.6450   23.3930 C   0  0  0  0  0  3  0  0  0  0  0  0
  -21.4250   -6.8470   24.5310 C   0  0  0  0  0  3  0  0  0  0  0  0
  -21.7650   -5.4810   24.5150 C   0  0  0  0  0  0  0  0  0  0  0  0
  -22.3380   -4.9120   23.3650 C   0  0  0  0  0  3  0  0  0  0  0  0
  -22.5730   -5.7060   22.2290 C   0  0  0  0  0  0  0  0  0  0  0  0
  -23.1070   -5.1480   21.1160 F   0  0  0  0  0  0  0  0  0  0  0  0
  -21.5340   -4.7120   25.6050 F   0  0  0  0  0  0  0  0  0  0  0  0
  -23.4710  -14.4460   20.8630 C   0  0  0  0  0  0  0  0  0  0  0  0
  -22.6780  -13.7520   21.6720 N   0  0  0  0  0  0  0  0  0  0  0  0
  -23.0670  -15.4600   20.2920 O   0  0  0  0  0  0  0  0  0  0  0  0
  -23.0150  -12.9330   22.1560 H   0  0  0  0  0  0  0  0  0  0  0  0
  -21.7200  -14.0420   21.8080 H   0  0  0  0  0  0  0  0  0  0  0  0
  -26.1430  -16.1450   20.2920 N   0  0  0  0  0  0  0  0  0  0  0  0
  -25.3660  -16.7940   20.3420 H   0  0  0  0  0  0  0  0  0  0  0  0
  -27.0210  -16.5940   20.0660 H   0  0  0  0  0  0  0  0  0  0  0  0
  -29.7420  -24.3300   19.2460 C   0  0  0  0  0  2  0  0  0  0  0  0
  -28.7770  -25.6330   18.8560 C   0  0  0  0  0  2  0  0  0  0  0  0
  -28.9940  -27.1190   19.1830 O   0  0  0  0  0  0  0  0  0  0  0  0
  -24.9450  -31.5850   23.3540 C   0  0  0  0  0  0  0  0  0  0  0  0
  -27.8640  -27.9890   19.3250 C   0  0  0  0  0  0  0  0  0  0  0  0
  -23.8500  -30.5490   21.4040 C   0  0  0  0  0  3  0  0  0  0  0  0
  -25.4100  -29.4860   19.6680 C   0  0  0  0  0  0  0  0  0  0  0  0
  -26.3740  -31.0410   21.3540 C   0  0  0  0  0  2  0  0  0  0  0  0
  -26.5500  -29.8630   20.3880 C   0  0  0  0  0  0  0  0  0  0  0  0
  -27.7780  -29.1330   20.2050 C   0  0  0  0  0  3  0  0  0  0  0  0
  -26.6890  -27.7100   18.5880 C   0  0  0  0  0  3  0  0  0  0  0  0
  -25.4890  -28.4240   18.7570 C   0  0  0  0  0  3  0  0  0  0  0  0
  -24.1180  -30.2480   19.9060 C   0  0  0  0  0  2  0  0  0  0  0  0
  -25.0740  -31.0660   22.0970 N   0  0  0  0  0  0  0  0  0  0  0  0
  -23.8410  -31.6540   23.9160 O   0  0  0  0  0  0  0  0  0  0  0  0
  -23.2500  -29.2900   22.0780 C   0  0  0  0  0  0  0  0  0  0  0  0
  -21.9470  -29.0420   21.8590 N   0  0  0  0  0  0  0  0  0  0  0  0
  -23.9600  -28.5460   22.7600 O   0  0  0  0  0  0  0  0  0  0  0  0
  -21.4270  -29.7020   21.2980 H   0  0  0  0  0  0  0  0  0  0  0  0
  -18.6840  -27.4730   21.9090 C   0  0  0  0  0  0  0  0  0  0  0  0
  -21.1970  -27.8870   22.3600 C   0  0  0  0  0  3  0  0  0  0  0  0
  -21.4540  -26.6360   21.4870 C   0  0  0  0  0  2  0  0  0  0  0  0
  -20.4180  -26.4550   20.3730 C   0  0  0  0  0  2  0  0  0  0  0  0
  -19.0110  -26.3310   20.9610 C   0  0  0  0  0  2  0  0  0  0  0  0
  -19.7110  -28.2130   22.5540 C   0  0  0  0  0  0  0  0  0  0  0  0
  -19.3530  -29.2850   23.4010 C   0  0  0  0  0  3  0  0  0  0  0  0
  -18.0010  -29.6200   23.6070 C   0  0  0  0  0  3  0  0  0  0  0  0
  -16.9890  -28.8750   22.9770 C   0  0  0  0  0  3  0  0  0  0  0  0
  -17.3310  -27.8030   22.1350 C   0  0  0  0  0  3  0  0  0  0  0  0
  -26.1740  -32.1360   24.1390 C   0  0  0  0  0  3  0  0  0  0  0  0
  -25.8190  -33.4700   24.6460 N   0  0  0  0  0  0  0  0  0  0  0  0
  -26.1630  -34.6250   24.0620 C   0  0  0  0  0  0  0  0  0  0  0  0
  -26.8810  -34.6790   23.0600 O   0  0  0  0  0  0  0  0  0  0  0  0
  -25.1870  -33.5000   25.4320 H   0  0  0  0  0  0  0  0  0  0  0  0
  -24.4100  -36.4230   23.8960 C   0  0  0  0  0  1  0  0  0  0  0  0
  -25.6300  -35.9280   24.6910 C   0  0  0  0  0  3  0  0  0  0  0  0
  -27.7100  -36.7260   25.7220 C   0  0  0  0  0  1  0  0  0  0  0  0
  -26.6420  -37.0050   24.7650 N   0  0  0  0  0  0  0  0  0  0  0  0
  -26.2100  -37.8890   25.0200 H   0  0  0  0  0  0  0  0  0  0  0  0
  -26.6250  -31.1960   25.3240 C   0  0  1  0  0  0  0  0  0  0  0  0
  -25.4740  -30.8070   26.2810 C   0  0  0  0  0  1  0  0  0  0  0  0
  -27.2470  -29.8880   24.7830 C   0  0  0  0  0  1  0  0  0  0  0  0
  -27.7250  -31.8950   26.1570 C   0  0  0  0  0  1  0  0  0  0  0  0
  1 49  1  0
  1  7  1  0
  1  6  1  0
  2  3  1  0
  4  6  1  0
  4  2  1  0
  5  3  1  0
  6  5  1  0
  7 10  1  0
  7  9  1  0
  8  7  1  0
 10 11  2  0
 11 12  1  0
 13 12  1  0
 14 19  1  0
 15 16  1  0
 15 14  1  0
 17 16  1  0
 17 24  1  0
 17 18  1  0
 19 13  1  0
 19 18  1  0
 20 13  2  0
 21 22  2  0
 22 23  1  0
 22 41  1  0
 23 26  1  0
 24 21  1  0
 24 25  1  0
 25 23  2  0
 26 27  1  0
 27 28  2  0
 29 32  1  0
 29 28  1  0
 30 29  2  0
 31 30  1  0
 31 26  2  0
 32 33  1  0
 33 34  1  0
 34 35  2  0
 36 35  1  0
 36 40  1  0
 37 36  2  0
 38 33  2  0
 38 37  1  0
 39 38  1  0
 41 42  1  0
 42 45  1  0
 42 44  1  0
 43 41  2  0
 46 47  1  0
 46 21  1  0
 48 46  1  0
 50 51  1  0
 50 49  1  0
 51 53  1  0
 52 63  2  0
 53 58  1  0
 54 64  1  0
 54 62  1  0
 55 61  1  0
 55 57  1  0
 56 62  1  0
 57 56  1  0
 58 57  2  0
 59 60  1  0
 59 53  2  0
 60 55  2  0
 61 54  1  0
 62 52  1  0
 64 66  2  0
 65 64  1  0
 67 65  1  0
 68 77  2  0
 68 73  1  0
 69 65  1  0
 69 73  1  0
 70 69  1  0
 71 72  1  0
 71 70  1  0
 72 68  1  0
 73 74  2  0
 74 75  1  0
 76 75  2  0
 77 76  1  0
 78 52  1  0
 78 79  1  0
 78 88  1  0
 79 82  1  0
 80 79  1  0
 80 84  1  0
 81 80  2  0
 84 83  1  0
 84 86  1  0
 86 87  1  0
 86 85  1  0
 88 91  1  1
 88 89  1  0
 90 88  1  0
M  ISO  4  12 100  13 100  50 101  51 101
M  END
>  <TORSDO>  (33) 
F 23

>  <SCORE>  (33) 
-5.534

>  <name>  (33) 
33

>  <ligand_id>  (33) 
33

>  <original_smiles>  (33) 
[H]c1c([H])c([H])c2c(c1[H])C([H])([H])C([H])([H])C([H])([H])C2([H])N([H])C(=O)C1([H])N(C(=O)C([H])(N([H])C(=O)C([H])(N([H])C([H])([H])[H])C([H])([H])[H])C(C([H])([H])[H])(C([H])([H])[H])C([H])([H])[H])C([H])([H])c2c([H])c(OC([H])([H])C([H])([H])C([H])(C3([H])C([H])([H])C([H])([H])C([H])([H])C3([H])[H])[N+]([H])([H])C([H])([H])C([H])([H])C([H])([H])C(=O)N3C([H])([H])C([H])([H])C([H])([H])C([H])(n4nc(-c5c([H])c([H])c(Oc6c([H])c([H])c(F)c([H])c6F)c([H])c5[H])c(C(=O)N([H])[H])c4N([H])[H])C3([H])[H])c([H])c([H])c2C1([H])[H]

>  <smiles>  (33) 
[H]c1c([H])c([H])c2c(c1[H])C([H])([H])C([H])([H])C([H])([H])C2([H])N([H])C(=O)C1([H])N(C(=O)C([H])(N([H])C(=O)C([H])(N([H])C([H])([H])[H])C([H])([H])[H])C(C([H])([H])[H])(C([H])([H])[H])C([H])([H])[H])C([H])([H])c2c([H])c(OC([H])([H])C([H])([H])C([H])(C3([H])C([H])([H])C([H])([H])C([H])([H])C3([H])[H])[N+]([H])([H])C([H])([H])C([H])([H])C([H])([H])C(=O)N3C([H])([H])C([H])([H])C([H])([H])C([H])(n4nc(-c5c([H])c([H])c(Oc6c([H])c([H])c(F)c([H])c6F)c([H])c5[H])c(C(=O)N([H])[H])c4N([H])[H])C3([H])[H])c([H])c([H])c2C1([H])[H]

$$$$
34:0:0
     RDKit          3D

 88 96  0  0  1  0  0  0  0  0999 V2000
  -29.4010  -22.3710   19.8980 C   0  0  0  0  0  2  0  0  0  0  0  0
  -28.8040  -19.8600   19.9590 C   0  0  0  0  0  0  0  0  0  0  0  0
  -27.6670  -18.9380   20.3520 C   0  0  0  0  0  1  0  0  0  0  0  0
  -28.5510  -21.1530   20.1160 N   0  0  0  0  0  0  0  0  0  0  0  0
  -30.0350  -19.0090   19.3880 C   0  0  0  0  0  2  0  0  0  0  0  0
  -32.0920  -17.8790   20.6060 C   0  0  0  0  0  2  0  0  0  0  0  0
  -31.0120  -17.9080   21.6320 C   0  0  0  0  0  2  0  0  0  0  0  0
  -30.6360  -17.7170   20.1670 C   0  0  1  0  0  0  0  0  0  0  0  0
  -30.1060  -16.2380   19.7710 C   0  0  0  0  0  2  0  0  0  0  0  0
  -30.9640  -14.8610   19.8210 C   0  0  0  0  0  0  0  0  0  0  0  0
  -30.7660  -12.4830   19.0780 C   0  0  0  0  0  2  0  0  0  0  0  0
  -29.8150  -12.4500   17.8590 C   0  0  0  0  0  2  0  0  0  0  0  0
  -28.3440  -12.3430   18.3110 C   0  0  0  0  0  2  0  0  0  0  0  0
  -27.9930  -13.3490   19.4400 C   0  0  0  0  0  3  0  0  0  0  0  0
  -29.0610  -13.3470   20.5530 C   0  0  0  0  0  2  0  0  0  0  0  0
  -30.3620  -13.6250   19.9310 N   0  0  0  0  0  0  0  0  0  0  0  0
  -32.1570  -14.9000   19.5000 O   0  0  0  0  0  0  0  0  0  0  0  0
  -25.6610  -14.0590   20.2370 C   0  0  0  0  0  0  0  0  0  0  0  0
  -24.5680  -13.3400   20.6380 C   0  0  0  0  0  0  0  0  0  0  0  0
  -24.9620  -11.9670   20.5980 C   0  0  0  0  0  0  0  0  0  0  0  0
  -26.6510  -13.1280   19.9710 N   0  0  0  0  0  0  0  0  0  0  0  0
  -26.2400  -11.8650   20.2520 N   0  0  0  0  0  0  0  0  0  0  0  0
  -24.1790  -10.7430   20.8110 C   0  0  0  0  0  0  0  0  0  0  0  0
  -24.5430   -9.7940   21.7920 C   0  0  0  0  0  3  0  0  0  0  0  0
  -23.7630   -8.6350   21.9910 C   0  0  0  0  0  3  0  0  0  0  0  0
  -22.6040   -8.4160   21.2080 C   0  0  0  0  0  0  0  0  0  0  0  0
  -22.2590   -9.3520   20.2180 C   0  0  0  0  0  3  0  0  0  0  0  0
  -23.0390  -10.5030   20.0180 C   0  0  0  0  0  3  0  0  0  0  0  0
  -21.8000   -7.3060   21.3140 O   0  0  0  0  0  0  0  0  0  0  0  0
  -21.6310   -6.6500   22.5070 C   0  0  0  0  0  0  0  0  0  0  0  0
  -21.1220   -7.3040   23.6510 C   0  0  0  0  0  3  0  0  0  0  0  0
  -20.9000   -6.5750   24.8360 C   0  0  0  0  0  3  0  0  0  0  0  0
  -21.1760   -5.1950   24.8790 C   0  0  0  0  0  0  0  0  0  0  0  0
  -21.6770   -4.5420   23.7390 C   0  0  0  0  0  3  0  0  0  0  0  0
  -21.9010   -5.2680   22.5560 C   0  0  0  0  0  0  0  0  0  0  0  0
  -22.3650   -4.6290   21.4540 F   0  0  0  0  0  0  0  0  0  0  0  0
  -20.9540   -4.4940   26.0150 F   0  0  0  0  0  0  0  0  0  0  0  0
  -23.2050  -13.8860   20.9490 C   0  0  0  0  0  0  0  0  0  0  0  0
  -22.4700  -13.2310   21.8410 N   0  0  0  0  0  0  0  0  0  0  0  0
  -22.8030  -14.9300   20.4350 O   0  0  0  0  0  0  0  0  0  0  0  0
  -22.8090  -12.3870   22.2770 H   0  0  0  0  0  0  0  0  0  0  0  0
  -21.5550  -13.5790   22.0910 H   0  0  0  0  0  0  0  0  0  0  0  0
  -25.8910  -15.4200   20.0530 N   0  0  0  0  0  0  0  0  0  0  0  0
  -25.1650  -16.1150   20.1860 H   0  0  0  0  0  0  0  0  0  0  0  0
  -26.7540  -15.8120   19.6980 H   0  0  0  0  0  0  0  0  0  0  0  0
  -28.6720  -23.7920   19.5450 C   0  0  0  0  0  2  0  0  0  0  0  0
  -28.2840  -24.9400   20.6160 C   0  0  0  0  0  2  0  0  0  0  0  0
  -28.4280  -26.4060   20.3140 O   0  0  0  0  0  0  0  0  0  0  0  0
  -24.6090  -31.7870   23.3670 C   0  0  0  0  0  0  0  0  0  0  0  0
  -27.3120  -27.2650   20.3060 C   0  0  0  0  0  0  0  0  0  0  0  0
  -23.4700  -30.4550   21.6280 C   0  0  0  0  0  3  0  0  0  0  0  0
  -24.9700  -28.9210   20.2280 C   0  0  0  0  0  0  0  0  0  0  0  0
  -26.0190  -30.7420   21.5740 C   0  0  0  0  0  2  0  0  0  0  0  0
  -26.1170  -29.3780   20.8900 C   0  0  0  0  0  0  0  0  0  0  0  0
  -27.2940  -28.5660   20.9080 C   0  0  0  0  0  3  0  0  0  0  0  0
  -26.1430  -26.8580   19.6320 C   0  0  0  0  0  3  0  0  0  0  0  0
  -24.9880  -27.6680   19.5860 C   0  0  0  0  0  3  0  0  0  0  0  0
  -23.7430  -29.8130   20.2410 C   0  0  0  0  0  2  0  0  0  0  0  0
  -24.7170  -31.0120   22.2480 N   0  0  0  0  0  0  0  0  0  0  0  0
  -23.5040  -32.0630   23.8570 O   0  0  0  0  0  0  0  0  0  0  0  0
  -22.7470  -29.4210   22.5240 C   0  0  0  0  0  0  0  0  0  0  0  0
  -21.4240  -29.2770   22.3380 N   0  0  0  0  0  0  0  0  0  0  0  0
  -23.3780  -28.7530   23.3470 O   0  0  0  0  0  0  0  0  0  0  0  0
  -20.9750  -29.8690   21.6520 H   0  0  0  0  0  0  0  0  0  0  0  0
  -18.0040  -28.1400   22.6660 C   0  0  0  0  0  0  0  0  0  0  0  0
  -20.5550  -28.3280   23.0380 C   0  0  0  0  0  3  0  0  0  0  0  0
  -20.6470  -26.9200   22.4080 C   0  0  0  0  0  2  0  0  0  0  0  0
  -19.5770  -26.6650   21.3410 C   0  0  0  0  0  2  0  0  0  0  0  0
  -18.1760  -26.8170   21.9400 C   0  0  0  0  0  2  0  0  0  0  0  0
  -19.1220  -28.8580   23.1670 C   0  0  0  0  0  0  0  0  0  0  0  0
  -18.9100  -30.1010   23.8040 C   0  0  0  0  0  3  0  0  0  0  0  0
  -17.6120  -30.6250   23.9430 C   0  0  0  0  0  3  0  0  0  0  0  0
  -16.5060  -29.9030   23.4590 C   0  0  0  0  0  3  0  0  0  0  0  0
  -16.7030  -28.6630   22.8270 C   0  0  0  0  0  3  0  0  0  0  0  0
  -25.8660  -32.3840   24.0710 C   0  0  0  0  0  3  0  0  0  0  0  0
  -25.5720  -33.7880   24.3950 N   0  0  0  0  0  0  0  0  0  0  0  0
  -25.9710  -34.8390   23.6670 C   0  0  0  0  0  0  0  0  0  0  0  0
  -26.6950  -34.7270   22.6730 O   0  0  0  0  0  0  0  0  0  0  0  0
  -24.9380  -33.9500   25.1640 H   0  0  0  0  0  0  0  0  0  0  0  0
  -24.3100  -36.6770   23.2370 C   0  0  0  0  0  1  0  0  0  0  0  0
  -25.4950  -36.2360   24.1090 C   0  0  0  0  0  3  0  0  0  0  0  0
  -27.6010  -37.0640   25.0640 C   0  0  0  0  0  1  0  0  0  0  0  0
  -26.5580  -37.2640   24.0610 N   0  0  0  0  0  0  0  0  0  0  0  0
  -26.1670  -38.1930   24.1900 H   0  0  0  0  0  0  0  0  0  0  0  0
  -26.2840  -31.5920   25.3710 C   0  0  1  0  0  0  0  0  0  0  0  0
  -25.1190  -31.3720   26.3670 C   0  0  0  0  0  1  0  0  0  0  0  0
  -26.8580  -30.2040   25.0060 C   0  0  0  0  0  1  0  0  0  0  0  0
  -27.4080  -32.3550   26.1110 C   0  0  0  0  0  1  0  0  0  0  0  0
  1  4  1  0
  2  4  2  0
  2  3  1  0
  5  2  1  0
  8  5  1  6
  6  7  1  0
  8  6  1  0
  8  7  1  0
  9 10  1  0
  9  8  1  0
 10 16  1  0
 11 16  1  0
 12 13  1  0
 12 11  1  0
 14 13  1  0
 14 21  1  0
 14 15  1  0
 16 15  1  0
 17 10  2  0
 18 19  2  0
 19 38  1  0
 20 19  1  0
 20 23  1  0
 21 18  1  0
 21 22  1  0
 22 20  2  0
 23 24  1  0
 24 25  2  0
 26 29  1  0
 26 25  1  0
 27 26  2  0
 28 27  1  0
 28 23  2  0
 29 30  1  0
 30 35  2  0
 30 31  1  0
 31 32  2  0
 32 33  1  0
 33 37  1  0
 34 33  2  0
 35 34  1  0
 36 35  1  0
 38 39  1  0
 39 42  1  0
 39 41  1  0
 40 38  2  0
 43 44  1  0
 43 18  1  0
 45 43  1  0
 46  1  1  0
 46 47  1  0
 48 47  1  0
 49 60  2  0
 50 48  1  0
 50 55  1  0
 51 59  1  0
 51 61  1  0
 52 58  1  0
 52 54  1  0
 53 59  1  0
 54 55  2  0
 54 53  1  0
 56 50  2  0
 57 56  1  0
 57 52  2  0
 58 51  1  0
 59 49  1  0
 61 63  2  0
 62 61  1  0
 64 62  1  0
 65 74  2  0
 65 70  1  0
 66 62  1  0
 66 70  1  0
 67 66  1  0
 68 69  1  0
 68 67  1  0
 69 65  1  0
 70 71  2  0
 71 72  1  0
 73 72  2  0
 74 73  1  0
 75 49  1  0
 75 76  1  0
 75 85  1  0
 76 79  1  0
 77 81  1  0
 77 76  1  0
 78 77  2  0
 81 80  1  0
 83 81  1  0
 83 84  1  0
 83 82  1  0
 85 88  1  1
 85 86  1  0
 87 85  1  0
M  ISO  4   9 100  10 100  47 101  48 101
M  END
>  <TORSDO>  (34) 
F 22

>  <SCORE>  (34) 
-12.586

>  <name>  (34) 
34

>  <ligand_id>  (34) 
34

>  <original_smiles>  (34) 
[H]c1c([H])c([H])c2c(c1[H])C([H])([H])C([H])([H])C([H])([H])C2([H])N([H])C(=O)C1([H])N(C(=O)C([H])(N([H])C(=O)C([H])(N([H])C([H])([H])[H])C([H])([H])[H])C(C([H])([H])[H])(C([H])([H])[H])C([H])([H])[H])C([H])([H])c2c([H])c(OC([H])([H])C([H])([H])C([H])([H])N=C(C([H])([H])[H])C([H])([H])C3(C([H])([H])C(=O)N4C([H])([H])C([H])([H])C([H])([H])C([H])(n5nc(-c6c([H])c([H])c(Oc7c([H])c([H])c(F)c([H])c7F)c([H])c6[H])c(C(=O)N([H])[H])c5N([H])[H])C4([H])[H])C([H])([H])C3([H])[H])c([H])c([H])c2C1([H])[H]

>  <smiles>  (34) 
[H]c1c([H])c([H])c2c(c1[H])C([H])([H])C([H])([H])C([H])([H])C2([H])N([H])C(=O)C1([H])N(C(=O)C([H])(N([H])C(=O)C([H])(N([H])C([H])([H])[H])C([H])([H])[H])C(C([H])([H])[H])(C([H])([H])[H])C([H])([H])[H])C([H])([H])c2c([H])c(OC([H])([H])C([H])([H])C([H])([H])N=C(C([H])([H])[H])C([H])([H])C3(C([H])([H])C(=O)N4C([H])([H])C([H])([H])C([H])([H])C([H])(n5nc(-c6c([H])c([H])c(Oc7c([H])c([H])c(F)c([H])c7F)c([H])c6[H])c(C(=O)N([H])[H])c5N([H])[H])C4([H])[H])C([H])([H])C3([H])[H])c([H])c([H])c2C1([H])[H]

$$$$
35:0:0
     RDKit          3D

 87 95  0  0  1  0  0  0  0  0999 V2000
  -28.8200  -22.3480   20.1480 C   0  0  0  0  0  3  0  0  0  0  0  0
  -29.1640  -23.8950   20.4190 C   0  0  0  0  0  3  0  0  0  0  0  0
  -28.0750  -24.9920   20.0260 C   0  0  0  0  0  3  0  0  0  0  0  0
  -28.3080  -26.4440   20.2620 O   0  0  0  0  0  0  0  0  0  0  0  0
  -24.5830  -31.8820   23.2350 C   0  0  0  0  0  0  0  0  0  0  0  0
  -27.1990  -27.3100   20.1910 C   0  0  0  0  0  0  0  0  0  0  0  0
  -23.3850  -30.4870   21.5900 C   0  0  0  0  0  3  0  0  0  0  0  0
  -24.8410  -28.9380   20.1680 C   0  0  0  0  0  0  0  0  0  0  0  0
  -25.9280  -30.7950   21.4250 C   0  0  0  0  0  2  0  0  0  0  0  0
  -26.0090  -29.4190   20.7750 C   0  0  0  0  0  0  0  0  0  0  0  0
  -27.1920  -28.6170   20.7760 C   0  0  0  0  0  3  0  0  0  0  0  0
  -26.0080  -26.8920   19.5550 C   0  0  0  0  0  3  0  0  0  0  0  0
  -24.8430  -27.6800   19.5490 C   0  0  0  0  0  3  0  0  0  0  0  0
  -23.6050  -29.8130   20.2100 C   0  0  0  0  0  2  0  0  0  0  0  0
  -24.6500  -31.0730   22.1400 N   0  0  0  0  0  0  0  0  0  0  0  0
  -23.4960  -32.1640   23.7630 O   0  0  0  0  0  0  0  0  0  0  0  0
  -22.7150  -29.4700   22.5440 C   0  0  0  0  0  0  0  0  0  0  0  0
  -21.3910  -29.2940   22.4030 N   0  0  0  0  0  0  0  0  0  0  0  0
  -23.3860  -28.8450   23.3690 O   0  0  0  0  0  0  0  0  0  0  0  0
  -20.9080  -29.8490   21.7100 H   0  0  0  0  0  0  0  0  0  0  0  0
  -18.0030  -28.1200   22.8950 C   0  0  0  0  0  0  0  0  0  0  0  0
  -20.5630  -28.3590   23.1690 C   0  0  0  0  0  3  0  0  0  0  0  0
  -20.6550  -26.9280   22.5880 C   0  0  0  0  0  2  0  0  0  0  0  0
  -19.5520  -26.6190   21.5710 C   0  0  0  0  0  2  0  0  0  0  0  0
  -18.1700  -26.7730   22.2130 C   0  0  0  0  0  2  0  0  0  0  0  0
  -19.1270  -28.8720   23.3300 C   0  0  0  0  0  0  0  0  0  0  0  0
  -18.9180  -30.1340   23.9260 C   0  0  0  0  0  3  0  0  0  0  0  0
  -17.6170  -30.6450   24.0920 C   0  0  0  0  0  3  0  0  0  0  0  0
  -16.5070  -29.8890   23.6750 C   0  0  0  0  0  3  0  0  0  0  0  0
  -16.7010  -28.6280   23.0820 C   0  0  0  0  0  3  0  0  0  0  0  0
  -25.8650  -32.5120   23.8640 C   0  0  0  0  0  3  0  0  0  0  0  0
  -25.5550  -33.9110   24.1950 N   0  0  0  0  0  0  0  0  0  0  0  0
  -25.8780  -34.9620   23.4330 C   0  0  0  0  0  0  0  0  0  0  0  0
  -26.5380  -34.8600   22.3950 O   0  0  0  0  0  0  0  0  0  0  0  0
  -24.9670  -34.0630   25.0020 H   0  0  0  0  0  0  0  0  0  0  0  0
  -24.1430  -36.7520   23.0940 C   0  0  0  0  0  1  0  0  0  0  0  0
  -25.3930  -36.3500   23.8940 C   0  0  0  0  0  3  0  0  0  0  0  0
  -27.5300  -37.2430   24.7090 C   0  0  0  0  0  1  0  0  0  0  0  0
  -26.4230  -37.4060   23.7710 N   0  0  0  0  0  0  0  0  0  0  0  0
  -26.0160  -38.3250   23.9180 H   0  0  0  0  0  0  0  0  0  0  0  0
  -26.3730  -31.7390   25.1430 C   0  0  1  0  0  0  0  0  0  0  0  0
  -25.2710  -31.4970   26.2010 C   0  0  0  0  0  1  0  0  0  0  0  0
  -26.9620  -30.3630   24.7550 C   0  0  0  0  0  1  0  0  0  0  0  0
  -27.5170  -32.5340   25.8140 C   0  0  0  0  0  1  0  0  0  0  0  0
  -29.9360  -21.2560   20.4780 C   0  0  0  0  0  3  0  0  0  0  0  0
  -29.7110  -19.8080   20.2150 O   0  0  0  0  0  0  0  0  0  0  0  0
  -30.5240  -18.3560   21.8770 C   0  0  0  0  0  2  0  0  0  0  0  0
  -30.8930  -17.3230   20.8500 C   0  0  0  0  0  3  0  0  0  0  0  0
  -30.8370  -18.8790   20.4870 C   0  0  1  0  0  0  0  0  0  0  0  0
  -32.1870  -19.4800   20.1080 C   0  0  0  0  0  1  0  0  0  0  0  0
  -29.9980  -16.0660   20.5370 C   0  0  0  0  0  2  0  0  0  0  0  0
  -30.7600  -14.6950   20.2390 C   0  0  0  0  0  0  0  0  0  0  0  0
  -30.5110  -12.4360   19.2260 C   0  0  0  0  0  2  0  0  0  0  0  0
  -29.5530  -12.5530   18.0190 C   0  0  0  0  0  2  0  0  0  0  0  0
  -28.0880  -12.4030   18.4710 C   0  0  0  0  0  2  0  0  0  0  0  0
  -27.7480  -13.2890   19.7000 C   0  0  0  0  0  3  0  0  0  0  0  0
  -28.8220  -13.1630   20.8000 C   0  0  0  0  0  2  0  0  0  0  0  0
  -30.1240  -13.4780   20.2020 N   0  0  0  0  0  0  0  0  0  0  0  0
  -31.9300  -14.7740   19.8530 O   0  0  0  0  0  0  0  0  0  0  0  0
  -25.3750  -13.8970   20.4670 C   0  0  0  0  0  0  0  0  0  0  0  0
  -24.3080  -13.1300   20.8490 C   0  0  0  0  0  0  0  0  0  0  0  0
  -24.7590  -11.7740   20.8020 C   0  0  0  0  0  0  0  0  0  0  0  0
  -26.4080  -13.0110   20.2090 N   0  0  0  0  0  0  0  0  0  0  0  0
  -26.0440  -11.7300   20.4720 N   0  0  0  0  0  0  0  0  0  0  0  0
  -24.0250  -10.5170   20.9950 C   0  0  0  0  0  0  0  0  0  0  0  0
  -24.4610   -9.5390   21.9160 C   0  0  0  0  0  3  0  0  0  0  0  0
  -23.7270   -8.3470   22.0980 C   0  0  0  0  0  3  0  0  0  0  0  0
  -22.5410   -8.1250   21.3580 C   0  0  0  0  0  0  0  0  0  0  0  0
  -22.1230   -9.0910   20.4260 C   0  0  0  0  0  3  0  0  0  0  0  0
  -22.8580  -10.2750   20.2430 C   0  0  0  0  0  3  0  0  0  0  0  0
  -21.7770   -6.9860   21.4500 O   0  0  0  0  0  0  0  0  0  0  0  0
  -21.7310   -6.2420   22.6010 C   0  0  0  0  0  0  0  0  0  0  0  0
  -21.2980   -6.7910   23.8270 C   0  0  0  0  0  3  0  0  0  0  0  0
  -21.1990   -5.9720   24.9700 C   0  0  0  0  0  3  0  0  0  0  0  0
  -21.5240   -4.6050   24.8890 C   0  0  0  0  0  0  0  0  0  0  0  0
  -21.9520   -4.0550   23.6670 C   0  0  0  0  0  3  0  0  0  0  0  0
  -22.0510   -4.8710   22.5260 C   0  0  0  0  0  0  0  0  0  0  0  0
  -22.4430   -4.3310   21.3470 F   0  0  0  0  0  0  0  0  0  0  0  0
  -21.4230   -3.8170   25.9840 F   0  0  0  0  0  0  0  0  0  0  0  0
  -22.9200  -13.6160   21.1480 C   0  0  0  0  0  0  0  0  0  0  0  0
  -22.2030  -12.9220   22.0240 N   0  0  0  0  0  0  0  0  0  0  0  0
  -22.4810  -14.6480   20.6400 O   0  0  0  0  0  0  0  0  0  0  0  0
  -22.5690  -12.0850   22.4530 H   0  0  0  0  0  0  0  0  0  0  0  0
  -21.2740  -13.2320   22.2730 H   0  0  0  0  0  0  0  0  0  0  0  0
  -25.5490  -15.2680   20.2950 N   0  0  0  0  0  0  0  0  0  0  0  0
  -24.7930  -15.9330   20.4280 H   0  0  0  0  0  0  0  0  0  0  0  0
  -26.4050  -15.7010   19.9730 H   0  0  0  0  0  0  0  0  0  0  0  0
  1  2  1  0
  1 45  2  0
  3  4  1  0
  3  2  2  0
  5 16  2  0
  6  4  1  0
  6 11  1  0
  7 15  1  0
  7 17  1  0
  8 14  1  0
  8 10  1  0
  9 15  1  0
 10 11  2  0
 10  9  1  0
 12  6  2  0
 13 12  1  0
 13  8  2  0
 14  7  1  0
 15  5  1  0
 17 19  2  0
 18 17  1  0
 20 18  1  0
 21 30  2  0
 21 26  1  0
 22 18  1  0
 22 26  1  0
 23 22  1  0
 24 25  1  0
 24 23  1  0
 25 21  1  0
 26 27  2  0
 27 28  1  0
 29 28  2  0
 30 29  1  0
 31  5  1  0
 31 32  1  0
 31 41  1  0
 32 35  1  0
 33 37  1  0
 33 32  1  0
 34 33  2  0
 37 36  1  0
 39 37  1  0
 39 40  1  0
 39 38  1  0
 41 44  1  1
 41 42  1  0
 43 41  1  0
 46 45  1  0
 46 49  1  0
 48 51  1  0
 48 47  1  0
 49 50  1  1
 49 48  1  0
 49 47  1  0
 52 51  1  0
 53 58  1  0
 54 55  1  0
 54 53  1  0
 56 55  1  0
 56 63  1  0
 56 57  1  0
 58 52  1  0
 58 57  1  0
 59 52  2  0
 60 61  2  0
 61 80  1  0
 62 61  1  0
 62 65  1  0
 63 60  1  0
 63 64  1  0
 64 62  2  0
 65 66  1  0
 66 67  2  0
 68 71  1  0
 68 67  1  0
 69 68  2  0
 70 69  1  0
 70 65  2  0
 71 72  1  0
 72 73  1  0
 73 74  2  0
 75 74  1  0
 75 79  1  0
 76 75  2  0
 77 72  2  0
 77 76  1  0
 78 77  1  0
 80 81  1  0
 81 84  1  0
 81 83  1  0
 82 80  2  0
 85 86  1  0
 85 60  1  0
 87 85  1  0
M  ISO  4   3 101   4 101  51 100  52 100
M  END
>  <TORSDO>  (35) 
F 22

>  <SCORE>  (35) 
-12.930

>  <name>  (35) 
35

>  <ligand_id>  (35) 
35

>  <original_smiles>  (35) 
[H]c1c([H])c([H])c2c(c1[H])C([H])([H])C([H])([H])C([H])([H])C2([H])N([H])C(=O)C1([H])N(C(=O)C([H])(N([H])C(=O)C([H])(N([H])C([H])([H])[H])C([H])([H])[H])C(C([H])([H])[H])(C([H])([H])[H])C([H])([H])[H])C([H])([H])c2c([H])c(OC([H])([H])C([H])([H])C([H])([H])C([H])([H])OC3(C([H])([H])[H])C([H])([H])C3([H])C([H])([H])C(=O)N3C([H])([H])C([H])([H])C([H])([H])C([H])(n4nc(-c5c([H])c([H])c(Oc6c([H])c([H])c(F)c([H])c6F)c([H])c5[H])c(C(=O)N([H])[H])c4N([H])[H])C3([H])[H])c([H])c([H])c2C1([H])[H]

>  <smiles>  (35) 
[H]c1c([H])c([H])c2c(c1[H])C([H])([H])C([H])([H])C([H])([H])C2([H])N([H])C(=O)C1([H])N(C(=O)C([H])(N([H])C(=O)C([H])(N([H])C([H])([H])[H])C([H])([H])[H])C(C([H])([H])[H])(C([H])([H])[H])C([H])([H])[H])C([H])([H])c2c([H])c(OC([H])([H])C([H])([H])C([H])([H])C([H])([H])OC3(C([H])([H])[H])C([H])([H])C3([H])C([H])([H])C(=O)N3C([H])([H])C([H])([H])C([H])([H])C([H])(n4nc(-c5c([H])c([H])c(Oc6c([H])c([H])c(F)c([H])c6F)c([H])c5[H])c(C(=O)N([H])[H])c4N([H])[H])C3([H])[H])c([H])c([H])c2C1([H])[H]

$$$$
36:0:0
     RDKit          3D

 90 99  0  0  1  0  0  0  0  0999 V2000
  -31.2080  -18.5000   19.3910 C   0  0  0  0  0  2  0  0  0  0  0  0
  -31.9670  -19.5710   20.1290 C   0  0  0  0  0  3  0  0  0  0  0  0
  -31.0100  -20.4910   20.8300 C   0  0  0  0  0  3  0  0  0  0  0  0
  -29.8100  -18.4020   20.0090 C   0  0  0  0  0  3  0  0  0  0  0  0
  -32.0870  -19.7870   21.6390 C   0  0  1  0  0  0  0  0  0  0  0  0
  -31.7870  -18.7600   22.7190 C   0  0  0  0  0  1  0  0  0  0  0  0
  -33.2550  -20.6330   22.1230 C   0  0  0  0  0  1  0  0  0  0  0  0
  -29.6320  -19.9180   20.6760 N   0  0  2  0  0  4  0  0  0  0  0  0
  -29.2730  -19.7720   21.6070 H   0  0  0  0  0  0  0  0  0  0  0  0
  -29.6130  -16.7460   20.6680 C   0  0  0  0  0  2  0  0  0  0  0  0
  -30.3980  -15.2200   20.3670 C   0  0  0  0  0  0  0  0  0  0  0  0
  -30.3720  -12.7790   19.5000 C   0  0  0  0  0  2  0  0  0  0  0  0
  -29.4780  -12.6310   18.2430 C   0  0  0  0  0  2  0  0  0  0  0  0
  -28.0140  -12.3800   18.6410 C   0  0  0  0  0  2  0  0  0  0  0  0
  -27.5520  -13.3340   19.7710 C   0  0  0  0  0  3  0  0  0  0  0  0
  -28.5750  -13.4480   20.9210 C   0  0  0  0  0  2  0  0  0  0  0  0
  -29.8440  -13.9130   20.3390 N   0  0  0  0  0  0  0  0  0  0  0  0
  -31.6030  -15.2170   20.0810 O   0  0  0  0  0  0  0  0  0  0  0  0
  -25.1600  -13.8930   20.4590 C   0  0  0  0  0  0  0  0  0  0  0  0
  -24.0920  -13.1150   20.8170 C   0  0  0  0  0  0  0  0  0  0  0  0
  -24.5680  -11.7680   20.8170 C   0  0  0  0  0  0  0  0  0  0  0  0
  -26.2110  -13.0200   20.2510 N   0  0  0  0  0  0  0  0  0  0  0  0
  -25.8650  -11.7360   20.5330 N   0  0  0  0  0  0  0  0  0  0  0  0
  -23.8420  -10.5040   21.0130 C   0  0  0  0  0  0  0  0  0  0  0  0
  -24.2620   -9.5470   21.9610 C   0  0  0  0  0  3  0  0  0  0  0  0
  -23.5350   -8.3500   22.1410 C   0  0  0  0  0  3  0  0  0  0  0  0
  -22.3730   -8.1030   21.3730 C   0  0  0  0  0  0  0  0  0  0  0  0
  -21.9730   -9.0480   20.4100 C   0  0  0  0  0  3  0  0  0  0  0  0
  -22.7020  -10.2360   20.2290 C   0  0  0  0  0  3  0  0  0  0  0  0
  -21.6160   -6.9600   21.4630 O   0  0  0  0  0  0  0  0  0  0  0  0
  -21.5580   -6.2240   22.6200 C   0  0  0  0  0  0  0  0  0  0  0  0
  -21.1310   -6.7890   23.8400 C   0  0  0  0  0  3  0  0  0  0  0  0
  -21.0210   -5.9810   24.9900 C   0  0  0  0  0  3  0  0  0  0  0  0
  -21.3250   -4.6080   24.9180 C   0  0  0  0  0  0  0  0  0  0  0  0
  -21.7440   -4.0420   23.7010 C   0  0  0  0  0  3  0  0  0  0  0  0
  -21.8580   -4.8480   22.5550 C   0  0  0  0  0  0  0  0  0  0  0  0
  -22.2410   -4.2930   21.3800 F   0  0  0  0  0  0  0  0  0  0  0  0
  -21.2100   -3.8300   26.0190 F   0  0  0  0  0  0  0  0  0  0  0  0
  -22.6870  -13.5890   21.0480 C   0  0  0  0  0  0  0  0  0  0  0  0
  -21.9420  -12.9000   21.9050 N   0  0  0  0  0  0  0  0  0  0  0  0
  -22.2600  -14.6050   20.5030 O   0  0  0  0  0  0  0  0  0  0  0  0
  -22.3040  -12.0780   22.3660 H   0  0  0  0  0  0  0  0  0  0  0  0
  -20.9980  -13.1960   22.1030 H   0  0  0  0  0  0  0  0  0  0  0  0
  -25.3190  -15.2620   20.2660 N   0  0  0  0  0  0  0  0  0  0  0  0
  -24.5480  -15.9150   20.3510 H   0  0  0  0  0  0  0  0  0  0  0  0
  -26.1710  -15.6980   19.9380 H   0  0  0  0  0  0  0  0  0  0  0  0
  -28.7440  -21.1850   20.0920 C   0  0  0  0  0  2  0  0  0  0  0  0
  -28.9260  -22.9350   20.4250 C   0  0  0  0  0  3  0  0  0  0  0  0
  -27.9420  -24.3650   20.0490 C   0  0  0  0  0  3  0  0  0  0  0  0
  -28.1660  -25.9680   20.2280 O   0  0  0  0  0  0  0  0  0  0  0  0
  -24.5800  -31.8550   23.1780 C   0  0  0  0  0  0  0  0  0  0  0  0
  -27.1360  -27.0250   20.1520 C   0  0  0  0  0  0  0  0  0  0  0  0
  -23.3750  -30.4540   21.5500 C   0  0  0  0  0  3  0  0  0  0  0  0
  -24.8180  -28.8570   20.1200 C   0  0  0  0  0  0  0  0  0  0  0  0
  -25.9350  -30.6880   21.3780 C   0  0  0  0  0  2  0  0  0  0  0  0
  -26.0070  -29.2820   20.7270 C   0  0  0  0  0  0  0  0  0  0  0  0
  -27.1610  -28.3870   20.7170 C   0  0  0  0  0  3  0  0  0  0  0  0
  -25.9190  -26.7380   19.4950 C   0  0  0  0  0  3  0  0  0  0  0  0
  -24.7960  -27.6040   19.4840 C   0  0  0  0  0  3  0  0  0  0  0  0
  -23.5940  -29.7670   20.1740 C   0  0  0  0  0  2  0  0  0  0  0  0
  -24.6530  -31.0250   22.0890 N   0  0  0  0  0  0  0  0  0  0  0  0
  -23.4970  -32.1450   23.7070 O   0  0  0  0  0  0  0  0  0  0  0  0
  -22.6940  -29.4580   22.5220 C   0  0  0  0  0  0  0  0  0  0  0  0
  -21.3630  -29.2960   22.4110 N   0  0  0  0  0  0  0  0  0  0  0  0
  -23.3670  -28.8300   23.3440 O   0  0  0  0  0  0  0  0  0  0  0  0
  -20.8720  -29.8500   21.7220 H   0  0  0  0  0  0  0  0  0  0  0  0
  -17.9840  -28.0930   22.9480 C   0  0  0  0  0  0  0  0  0  0  0  0
  -20.5460  -28.3600   23.1900 C   0  0  0  0  0  3  0  0  0  0  0  0
  -20.6430  -26.9270   22.6180 C   0  0  0  0  0  2  0  0  0  0  0  0
  -19.5340  -26.6020   21.6130 C   0  0  0  0  0  2  0  0  0  0  0  0
  -18.1570  -26.7450   22.2670 C   0  0  0  0  0  2  0  0  0  0  0  0
  -19.1050  -28.8580   23.3660 C   0  0  0  0  0  0  0  0  0  0  0  0
  -18.8890  -30.1170   23.9660 C   0  0  0  0  0  3  0  0  0  0  0  0
  -17.5860  -30.6140   24.1480 C   0  0  0  0  0  3  0  0  0  0  0  0
  -16.4780  -29.8480   23.7440 C   0  0  0  0  0  3  0  0  0  0  0  0
  -16.6790  -28.5880   23.1510 C   0  0  0  0  0  3  0  0  0  0  0  0
  -25.8580  -32.4980   23.7980 C   0  0  0  0  0  3  0  0  0  0  0  0
  -26.3830  -31.7250   25.0720 C   0  0  1  0  0  0  0  0  0  0  0  0
  -25.2980  -31.4880   26.1460 C   0  0  0  0  0  1  0  0  0  0  0  0
  -26.9660  -30.3470   24.6830 C   0  0  0  0  0  1  0  0  0  0  0  0
  -27.5370  -32.5210   25.7290 C   0  0  0  0  0  1  0  0  0  0  0  0
  -25.5400  -33.8940   24.1460 N   0  0  0  0  0  0  0  0  0  0  0  0
  -25.8610  -34.9620   23.4040 C   0  0  0  0  0  0  0  0  0  0  0  0
  -26.5210  -34.8750   22.3650 O   0  0  0  0  0  0  0  0  0  0  0  0
  -24.9510  -34.0360   24.9530 H   0  0  0  0  0  0  0  0  0  0  0  0
  -24.1220  -36.7580   23.1030 C   0  0  0  0  0  1  0  0  0  0  0  0
  -25.3760  -36.3440   23.8890 C   0  0  0  0  0  3  0  0  0  0  0  0
  -27.5190  -37.2270   24.7030 C   0  0  0  0  0  1  0  0  0  0  0  0
  -26.4020  -37.4030   23.7780 N   0  0  0  0  0  0  0  0  0  0  0  0
  -25.9950  -38.3190   23.9450 H   0  0  0  0  0  0  0  0  0  0  0  0
  1  4  1  0
  2  1  1  0
  2  3  1  0
  2  5  1  0
  3  5  1  0
  4 10  1  0
  4  8  1  0
  5  7  1  6
  5  6  1  0
  8  3  1  0
  8  9  1  1
 11 10  1  0
 12 17  1  0
 13 14  1  0
 13 12  1  0
 15 14  1  0
 15 22  1  0
 15 16  1  0
 17 11  1  0
 17 16  1  0
 18 11  2  0
 19 20  2  0
 20 21  1  0
 20 39  1  0
 21 24  1  0
 22 19  1  0
 22 23  1  0
 23 21  2  0
 24 25  1  0
 25 26  2  0
 27 30  1  0
 27 26  1  0
 28 27  2  0
 29 28  1  0
 29 24  2  0
 30 31  1  0
 31 32  1  0
 32 33  2  0
 34 33  1  0
 34 38  1  0
 35 34  2  0
 36 31  2  0
 36 35  1  0
 37 36  1  0
 39 40  1  0
 40 43  1  0
 40 42  1  0
 41 39  2  0
 44 45  1  0
 44 19  1  0
 46 44  1  0
 47 48  1  0
 47  8  1  0
 49 50  1  0
 49 48  2  0
 51 62  2  0
 52 50  1  0
 52 57  1  0
 53 61  1  0
 53 63  1  0
 54 60  1  0
 54 56  1  0
 55 61  1  0
 56 55  1  0
 57 56  2  0
 58 52  2  0
 59 58  1  0
 59 54  2  0
 60 53  1  0
 61 51  1  0
 63 65  2  0
 64 63  1  0
 66 64  1  0
 67 76  2  0
 67 72  1  0
 68 64  1  0
 68 72  1  0
 69 68  1  0
 70 71  1  0
 70 69  1  0
 71 67  1  0
 72 73  2  0
 73 74  1  0
 75 74  2  0
 76 75  1  0
 77 51  1  0
 77 82  1  0
 77 78  1  0
 78 81  1  1
 78 79  1  0
 80 78  1  0
 82 85  1  0
 83 87  1  0
 83 82  1  0
 84 83  2  0
 87 86  1  0
 89 87  1  0
 89 90  1  0
 89 88  1  0
M  ISO  4  10 100  11 100  49 101  50 101
M  END
>  <TORSDO>  (36) 
F 20

>  <SCORE>  (36) 
-15.790

>  <name>  (36) 
36

>  <ligand_id>  (36) 
36

>  <original_smiles>  (36) 
[H]c1c([H])c([H])c2c(c1[H])C([H])([H])C([H])([H])C([H])([H])C2([H])N([H])C(=O)C1([H])N(C(=O)C([H])(N([H])C(=O)C([H])(N([H])C([H])([H])[H])C([H])([H])[H])C(C([H])([H])[H])(C([H])([H])[H])C([H])([H])[H])C([H])([H])c2c([H])c(OC([H])([H])C([H])([H])C([H])([H])[N+]3([H])C([H])(C([H])([H])C(=O)N4C([H])([H])C([H])([H])C([H])([H])C([H])(n5nc(-c6c([H])c([H])c(Oc7c([H])c([H])c(F)c([H])c7F)c([H])c6[H])c(C(=O)N([H])[H])c5N([H])[H])C4([H])[H])C([H])([H])C4([H])C(C([H])([H])[H])(C([H])([H])[H])C43[H])c([H])c([H])c2C1([H])[H]

>  <smiles>  (36) 
[H]c1c([H])c([H])c2c(c1[H])C([H])([H])C([H])([H])C([H])([H])C2([H])N([H])C(=O)C1([H])N(C(=O)C([H])(N([H])C(=O)C([H])(N([H])C([H])([H])[H])C([H])([H])[H])C(C([H])([H])[H])(C([H])([H])[H])C([H])([H])[H])C([H])([H])c2c([H])c(OC([H])([H])C([H])([H])C([H])([H])[N+]3([H])C([H])(C([H])([H])C(=O)N4C([H])([H])C([H])([H])C([H])([H])C([H])(n5nc(-c6c([H])c([H])c(Oc7c([H])c([H])c(F)c([H])c7F)c([H])c6[H])c(C(=O)N([H])[H])c5N([H])[H])C4([H])[H])C([H])([H])C4([H])C(C([H])([H])[H])(C([H])([H])[H])C43[H])c([H])c([H])c2C1([H])[H]

$$$$
37:0:0
     RDKit          3D

 95103  0  0  1  0  0  0  0  0999 V2000
  -30.0070  -22.3360   19.8620 C   0  0  0  0  0  2  0  0  0  0  0  0
  -32.3280  -25.2580   20.1460 C   0  0  0  0  0  2  0  0  0  0  0  0
  -32.0490  -23.8640   19.5880 C   0  0  0  0  0  2  0  0  0  0  0  0
  -31.0200  -26.0150   19.9790 C   0  0  0  0  0  2  0  0  0  0  0  0
  -30.5200  -23.7240   19.3960 C   0  0  0  0  0  3  0  0  0  0  0  0
  -29.9240  -24.9530   20.1260 C   0  0  0  0  0  3  0  0  0  0  0  0
  -28.5550  -25.4700   19.6210 C   0  0  0  0  0  2  0  0  0  0  0  0
  -28.4110  -26.7900   20.1490 O   0  0  0  0  0  0  0  0  0  0  0  0
  -24.5880  -31.8770   23.2370 C   0  0  0  0  0  0  0  0  0  0  0  0
  -27.2060  -27.4520   20.1190 C   0  0  0  0  0  0  0  0  0  0  0  0
  -23.3640  -30.4790   21.6010 C   0  0  0  0  0  3  0  0  0  0  0  0
  -24.8020  -28.9400   20.1610 C   0  0  0  0  0  0  0  0  0  0  0  0
  -25.8860  -30.8380   21.3820 C   0  0  0  0  0  2  0  0  0  0  0  0
  -25.9600  -29.4680   20.7400 C   0  0  0  0  0  0  0  0  0  0  0  0
  -27.1600  -28.7300   20.7160 C   0  0  0  0  0  3  0  0  0  0  0  0
  -26.0300  -26.9280   19.5340 C   0  0  0  0  0  3  0  0  0  0  0  0
  -24.8310  -27.6680   19.5570 C   0  0  0  0  0  3  0  0  0  0  0  0
  -23.5590  -29.7980   20.2190 C   0  0  0  0  0  2  0  0  0  0  0  0
  -24.6320  -31.0800   22.1320 N   0  0  0  0  0  0  0  0  0  0  0  0
  -23.5120  -32.1490   23.7880 O   0  0  0  0  0  0  0  0  0  0  0  0
  -22.7220  -29.4580   22.5680 C   0  0  0  0  0  0  0  0  0  0  0  0
  -21.3960  -29.2740   22.4480 N   0  0  0  0  0  0  0  0  0  0  0  0
  -23.4110  -28.8350   23.3790 O   0  0  0  0  0  0  0  0  0  0  0  0
  -20.9010  -29.8330   21.7670 H   0  0  0  0  0  0  0  0  0  0  0  0
  -18.0280  -28.0690   22.9500 C   0  0  0  0  0  0  0  0  0  0  0  0
  -20.5860  -28.3350   23.2200 C   0  0  0  0  0  3  0  0  0  0  0  0
  -20.6920  -26.9020   22.6470 C   0  0  0  0  0  2  0  0  0  0  0  0
  -19.5900  -26.5750   21.6340 C   0  0  0  0  0  2  0  0  0  0  0  0
  -18.2090  -26.7180   22.2790 C   0  0  0  0  0  2  0  0  0  0  0  0
  -19.1440  -28.8340   23.3790 C   0  0  0  0  0  0  0  0  0  0  0  0
  -18.9230  -30.1000   23.9660 C   0  0  0  0  0  3  0  0  0  0  0  0
  -17.6180  -30.5980   24.1290 C   0  0  0  0  0  3  0  0  0  0  0  0
  -16.5150  -29.8300   23.7170 C   0  0  0  0  0  3  0  0  0  0  0  0
  -16.7210  -28.5660   23.1330 C   0  0  0  0  0  3  0  0  0  0  0  0
  -25.8810  -32.5050   23.8470 C   0  0  0  0  0  3  0  0  0  0  0  0
  -26.4090  -31.7310   25.1170 C   0  0  1  0  0  0  0  0  0  0  0  0
  -25.3280  -31.4940   26.1980 C   0  0  0  0  0  1  0  0  0  0  0  0
  -26.9850  -30.3550   24.7120 C   0  0  0  0  0  1  0  0  0  0  0  0
  -27.5670  -32.5220   25.7690 C   0  0  0  0  0  1  0  0  0  0  0  0
  -25.5770  -33.9030   24.1810 N   0  0  0  0  0  0  0  0  0  0  0  0
  -25.9100  -34.9550   23.4220 C   0  0  0  0  0  0  0  0  0  0  0  0
  -26.5760  -34.8520   22.3890 O   0  0  0  0  0  0  0  0  0  0  0  0
  -24.9880  -34.0570   24.9860 H   0  0  0  0  0  0  0  0  0  0  0  0
  -24.1870  -36.7530   23.0770 C   0  0  0  0  0  1  0  0  0  0  0  0
  -25.4280  -36.3440   23.8850 C   0  0  0  0  0  3  0  0  0  0  0  0
  -27.5690  -37.2180   24.7110 C   0  0  0  0  0  1  0  0  0  0  0  0
  -26.4640  -37.3930   23.7720 N   0  0  0  0  0  0  0  0  0  0  0  0
  -26.0610  -38.3140   23.9240 H   0  0  0  0  0  0  0  0  0  0  0  0
  -29.7220  -20.8960   17.7710 C   0  0  0  0  0  1  0  0  0  0  0  0
  -30.5850  -21.1570   19.0170 C   0  0  0  0  0  3  0  0  0  0  0  0
  -30.9340  -19.8400   19.7840 C   0  0  0  0  0  3  0  0  0  0  0  0
  -29.7240  -19.1980   20.3530 N   0  0  0  0  0  4  0  0  0  0  0  0
  -29.5720  -19.5000   21.3020 H   0  0  0  0  0  0  0  0  0  0  0  0
  -28.9470  -19.5500   19.8150 H   0  0  0  0  0  0  0  0  0  0  0  0
  -29.6440  -17.7130   20.2560 C   0  0  0  0  0  2  0  0  0  0  0  0
  -30.4940  -16.9530   21.3070 C   0  0  0  0  0  2  0  0  0  0  0  0
  -30.0810  -15.4730   21.5140 C   0  0  0  0  0  2  0  0  0  0  0  0
  -30.6950  -14.4350   20.5480 C   0  0  0  0  0  0  0  0  0  0  0  0
  -30.4140  -12.3390   19.2590 C   0  0  0  0  0  2  0  0  0  0  0  0
  -29.4570  -12.5830   18.0750 C   0  0  0  0  0  2  0  0  0  0  0  0
  -27.9830  -12.4330   18.5110 C   0  0  0  0  0  2  0  0  0  0  0  0
  -27.6610  -13.2270   19.8050 C   0  0  0  0  0  3  0  0  0  0  0  0
  -28.7180  -12.9200   20.8900 C   0  0  0  0  0  2  0  0  0  0  0  0
  -30.0370  -13.2640   20.3360 N   0  0  0  0  0  0  0  0  0  0  0  0
  -31.7550  -14.7060   19.9720 O   0  0  0  0  0  0  0  0  0  0  0  0
  -25.2560  -13.8410   20.4940 C   0  0  0  0  0  0  0  0  0  0  0  0
  -24.1870  -13.0700   20.8650 C   0  0  0  0  0  0  0  0  0  0  0  0
  -24.6510  -11.7190   20.8440 C   0  0  0  0  0  0  0  0  0  0  0  0
  -26.3040  -12.9600   20.2760 N   0  0  0  0  0  0  0  0  0  0  0  0
  -25.9410  -11.6790   20.5370 N   0  0  0  0  0  0  0  0  0  0  0  0
  -23.9280  -10.4560   21.0400 C   0  0  0  0  0  0  0  0  0  0  0  0
  -24.3700   -9.4910   21.9710 C   0  0  0  0  0  3  0  0  0  0  0  0
  -23.6480   -8.2910   22.1540 C   0  0  0  0  0  3  0  0  0  0  0  0
  -22.4720   -8.0500   21.4060 C   0  0  0  0  0  0  0  0  0  0  0  0
  -22.0500   -9.0040   20.4640 C   0  0  0  0  0  3  0  0  0  0  0  0
  -22.7720  -10.1940   20.2790 C   0  0  0  0  0  3  0  0  0  0  0  0
  -21.7220   -6.9020   21.4980 O   0  0  0  0  0  0  0  0  0  0  0  0
  -21.6920   -6.1520   22.6470 C   0  0  0  0  0  0  0  0  0  0  0  0
  -21.2910   -6.7010   23.8840 C   0  0  0  0  0  3  0  0  0  0  0  0
  -21.2080   -5.8780   25.0250 C   0  0  0  0  0  3  0  0  0  0  0  0
  -21.5160   -4.5070   24.9290 C   0  0  0  0  0  0  0  0  0  0  0  0
  -21.9090   -3.9580   23.6970 C   0  0  0  0  0  3  0  0  0  0  0  0
  -21.9940   -4.7780   22.5580 C   0  0  0  0  0  0  0  0  0  0  0  0
  -22.3540   -4.2400   21.3680 F   0  0  0  0  0  0  0  0  0  0  0  0
  -21.4290   -3.7150   26.0230 F   0  0  0  0  0  0  0  0  0  0  0  0
  -22.7870  -13.5470   21.1310 C   0  0  0  0  0  0  0  0  0  0  0  0
  -22.0590  -12.8520   22.0000 N   0  0  0  0  0  0  0  0  0  0  0  0
  -22.3470  -14.5690   20.6060 O   0  0  0  0  0  0  0  0  0  0  0  0
  -22.4250  -12.0250   22.4460 H   0  0  0  0  0  0  0  0  0  0  0  0
  -21.1200  -13.1530   22.2190 H   0  0  0  0  0  0  0  0  0  0  0  0
  -25.4200  -15.2110   20.3060 N   0  0  0  0  0  0  0  0  0  0  0  0
  -24.6530  -15.8680   20.4020 H   0  0  0  0  0  0  0  0  0  0  0  0
  -26.2700  -15.6410   19.9660 H   0  0  0  0  0  0  0  0  0  0  0  0
  -33.4390  -20.2770   20.2540 C   0  0  0  0  0  1  0  0  0  0  0  0
  -32.0450  -20.0290   20.8500 C   0  0  0  0  0  2  0  0  0  0  0  0
  3  2  1  0
  4  6  1  0
  4  2  1  0
  5  3  1  0
  5  1  1  0
  5  6  1  0
  6  7  1  0
  7  8  1  0
  9 20  2  0
 10  8  1  0
 10 15  1  0
 11 19  1  0
 11 21  1  0
 12 18  1  0
 12 14  1  0
 13 19  1  0
 14 13  1  0
 15 14  2  0
 16 17  1  0
 16 10  2  0
 17 12  2  0
 18 11  1  0
 19  9  1  0
 21 23  2  0
 22 21  1  0
 24 22  1  0
 25 34  2  0
 25 30  1  0
 26 22  1  0
 26 30  1  0
 27 26  1  0
 28 29  1  0
 28 27  1  0
 29 25  1  0
 30 31  2  0
 31 32  1  0
 33 32  2  0
 34 33  1  0
 35  9  1  0
 35 40  1  0
 35 36  1  0
 36 39  1  1
 36 37  1  0
 38 36  1  0
 40 43  1  0
 41 45  1  0
 41 40  1  0
 42 41  2  0
 45 44  1  0
 47 45  1  0
 47 48  1  0
 47 46  1  0
 50 49  1  0
 50 51  1  0
 50  1  1  0
 51 52  1  0
 51 95  1  0
 52 53  1  0
 54 52  1  0
 55 52  1  0
 55 56  1  0
 56 57  1  0
 58 57  1  0
 59 64  1  0
 60 61  1  0
 60 59  1  0
 62 61  1  0
 62 69  1  0
 62 63  1  0
 64 58  1  0
 64 63  1  0
 65 58  2  0
 66 67  2  0
 67 86  1  0
 68 67  1  0
 68 71  1  0
 69 66  1  0
 69 70  1  0
 70 68  2  0
 71 72  1  0
 72 73  2  0
 74 77  1  0
 74 73  1  0
 75 74  2  0
 76 75  1  0
 76 71  2  0
 77 78  1  0
 78 79  1  0
 79 80  2  0
 81 80  1  0
 81 85  1  0
 82 81  2  0
 83 78  2  0
 83 82  1  0
 84 83  1  0
 86 87  1  0
 87 90  1  0
 87 89  1  0
 88 86  2  0
 91 92  1  0
 91 66  1  0
 93 91  1  0
 94 95  1  0
M  ISO  4   7 101   8 101  57 100  58 100
M  END
>  <TORSDO>  (37) 
F 25

>  <SCORE>  (37) 
-12.252

>  <name>  (37) 
37

>  <ligand_id>  (37) 
37

>  <original_smiles>  (37) 
[H]c1c([H])c([H])c2c(c1[H])C([H])([H])C([H])([H])C([H])([H])C2([H])N([H])C(=O)C1([H])N(C(=O)C([H])(N([H])C(=O)C([H])(N([H])C([H])([H])[H])C([H])([H])[H])C(C([H])([H])[H])(C([H])([H])[H])C([H])([H])[H])C([H])([H])c2c([H])c(OC([H])([H])C3([H])C([H])([H])C([H])([H])C([H])([H])C3([H])C([H])([H])C([H])(C([H])([H])[H])C([H])(C([H])([H])C([H])([H])[H])[N+]([H])([H])C([H])([H])C([H])([H])C([H])([H])C(=O)N3C([H])([H])C([H])([H])C([H])([H])C([H])(n4nc(-c5c([H])c([H])c(Oc6c([H])c([H])c(F)c([H])c6F)c([H])c5[H])c(C(=O)N([H])[H])c4N([H])[H])C3([H])[H])c([H])c([H])c2C1([H])[H]

>  <smiles>  (37) 
[H]c1c([H])c([H])c2c(c1[H])C([H])([H])C([H])([H])C([H])([H])C2([H])N([H])C(=O)C1([H])N(C(=O)C([H])(N([H])C(=O)C([H])(N([H])C([H])([H])[H])C([H])([H])[H])C(C([H])([H])[H])(C([H])([H])[H])C([H])([H])[H])C([H])([H])c2c([H])c(OC([H])([H])C3([H])C([H])([H])C([H])([H])C([H])([H])C3([H])C([H])([H])C([H])(C([H])([H])[H])C([H])(C([H])([H])C([H])([H])[H])[N+]([H])([H])C([H])([H])C([H])([H])C([H])([H])C(=O)N3C([H])([H])C([H])([H])C([H])([H])C([H])(n4nc(-c5c([H])c([H])c(Oc6c([H])c([H])c(F)c([H])c6F)c([H])c5[H])c(C(=O)N([H])[H])c4N([H])[H])C3([H])[H])c([H])c([H])c2C1([H])[H]

$$$$
38:0:0
     RDKit          3D

 91101  0  0  1  0  0  0  0  0999 V2000
  -30.2030  -18.4370   23.6610 C   0  0  0  0  0  2  0  0  0  0  0  0
  -29.2480  -17.6050   22.7920 C   0  0  0  0  0  2  0  0  0  0  0  0
  -31.7080  -18.2730   23.3270 C   0  0  0  0  0  3  0  0  0  0  0  0
  -29.9670  -16.8600   21.6700 C   0  0  0  0  0  2  0  0  0  0  0  0
  -32.0940  -18.0940   21.8280 C   0  0  0  0  0  3  0  0  0  0  0  0
  -31.7770  -20.4350   18.9680 C   0  0  0  0  0  2  0  0  0  0  0  0
  -30.2240  -20.5550   20.7590 C   0  0  0  0  0  2  0  0  0  0  0  0
  -31.2690  -17.2170   19.4460 C   0  0  0  0  0  3  0  0  0  0  0  0
  -31.1220  -18.8790   18.9450 C   0  0  0  0  0  3  0  0  0  0  0  0
  -30.2450  -19.0530   20.1830 C   0  0  0  0  0  3  0  0  0  0  0  0
  -31.1020  -21.6280   19.9630 C   0  0  0  0  0  3  0  0  0  0  0  0
  -30.9200  -17.7700   20.8760 C   0  0  1  0  0  0  0  0  0  0  0  0
  -32.1030  -15.7120   19.0890 C   0  0  0  0  0  0  0  0  0  0  0  0
  -31.9450  -13.2570   18.2370 C   0  0  0  0  0  2  0  0  0  0  0  0
  -30.8410  -13.0980   17.1560 C   0  0  0  0  0  2  0  0  0  0  0  0
  -29.4520  -12.8950   17.7900 C   0  0  0  0  0  2  0  0  0  0  0  0
  -29.2130  -13.8690   18.9690 C   0  0  0  0  0  3  0  0  0  0  0  0
  -30.4160  -13.9200   19.9290 C   0  0  0  0  0  2  0  0  0  0  0  0
  -31.5720  -14.3940   19.1560 N   0  0  0  0  0  0  0  0  0  0  0  0
  -33.2420  -15.7370   18.5970 O   0  0  0  0  0  0  0  0  0  0  0  0
  -27.0330  -14.5370   20.1270 C   0  0  0  0  0  0  0  0  0  0  0  0
  -25.9900  -13.8050   20.6300 C   0  0  0  0  0  0  0  0  0  0  0  0
  -26.3500  -12.4350   20.4570 C   0  0  0  0  0  0  0  0  0  0  0  0
  -27.9590  -13.6130   19.6720 N   0  0  0  0  0  0  0  0  0  0  0  0
  -27.5690  -12.3380   19.9360 N   0  0  0  0  0  0  0  0  0  0  0  0
  -25.5780  -11.2080   20.7110 C   0  0  0  0  0  0  0  0  0  0  0  0
  -25.9550  -10.2900   21.7140 C   0  0  0  0  0  3  0  0  0  0  0  0
  -25.1840   -9.1310   21.9480 C   0  0  0  0  0  3  0  0  0  0  0  0
  -24.0240   -8.8810   21.1770 C   0  0  0  0  0  0  0  0  0  0  0  0
  -23.6680   -9.7860   20.1640 C   0  0  0  0  0  3  0  0  0  0  0  0
  -24.4380  -10.9370   19.9280 C   0  0  0  0  0  3  0  0  0  0  0  0
  -23.2300   -7.7670   21.3140 O   0  0  0  0  0  0  0  0  0  0  0  0
  -22.6300   -7.4550   22.5080 C   0  0  0  0  0  0  0  0  0  0  0  0
  -21.8460   -8.3940   23.2140 C   0  0  0  0  0  3  0  0  0  0  0  0
  -21.1880   -8.0110   24.4000 C   0  0  0  0  0  3  0  0  0  0  0  0
  -21.3080   -6.6930   24.8790 C   0  0  0  0  0  0  0  0  0  0  0  0
  -22.0790   -5.7540   24.1710 C   0  0  0  0  0  3  0  0  0  0  0  0
  -22.7370   -6.1360   22.9890 C   0  0  0  0  0  0  0  0  0  0  0  0
  -23.4660   -5.2230   22.3020 F   0  0  0  0  0  0  0  0  0  0  0  0
  -20.6690   -6.3230   26.0130 F   0  0  0  0  0  0  0  0  0  0  0  0
  -24.6910  -14.3520   21.1440 C   0  0  0  0  0  0  0  0  0  0  0  0
  -24.1070  -13.6980   22.1460 N   0  0  0  0  0  0  0  0  0  0  0  0
  -24.2080  -15.3900   20.6960 O   0  0  0  0  0  0  0  0  0  0  0  0
  -24.5130  -12.8630   22.5330 H   0  0  0  0  0  0  0  0  0  0  0  0
  -23.2400  -14.0480   22.5300 H   0  0  0  0  0  0  0  0  0  0  0  0
  -27.2560  -15.9030   19.9970 N   0  0  0  0  0  0  0  0  0  0  0  0
  -26.5780  -16.5920   20.2990 H   0  0  0  0  0  0  0  0  0  0  0  0
  -28.0860  -16.3220   19.5970 H   0  0  0  0  0  0  0  0  0  0  0  0
  -30.3910  -23.2850   19.8270 C   0  0  0  0  0  2  0  0  0  0  0  0
  -30.8510  -25.0130   19.7590 C   0  0  0  0  0  2  0  0  0  0  0  0
  -30.2930  -26.4940   20.2200 O   0  0  0  0  0  0  0  0  0  0  0  0
  -25.1460  -30.8700   23.3860 C   0  0  0  0  0  0  0  0  0  0  0  0
  -29.0330  -27.2670   20.0780 C   0  0  0  0  0  0  0  0  0  0  0  0
  -24.4370  -29.4720   21.4820 C   0  0  0  0  0  3  0  0  0  0  0  0
  -26.3310  -28.4900   20.0080 C   0  0  0  0  0  0  0  0  0  0  0  0
  -26.8580  -30.3380   21.5860 C   0  0  0  0  0  2  0  0  0  0  0  0
  -27.3240  -29.0920   20.7870 C   0  0  0  0  0  0  0  0  0  0  0  0
  -28.6560  -28.4950   20.8090 C   0  0  0  0  0  3  0  0  0  0  0  0
  -27.9850  -26.8080   19.2480 C   0  0  0  0  0  3  0  0  0  0  0  0
  -26.6810  -27.3770   19.2170 C   0  0  0  0  0  3  0  0  0  0  0  0
  -24.9130  -29.0670   20.0570 C   0  0  0  0  0  2  0  0  0  0  0  0
  -25.4910  -30.2500   22.2120 N   0  0  0  0  0  0  0  0  0  0  0  0
  -23.9960  -30.7990   23.8470 O   0  0  0  0  0  0  0  0  0  0  0  0
  -23.9800  -28.2090   22.2580 C   0  0  0  0  0  0  0  0  0  0  0  0
  -22.8040  -27.6580   21.9110 N   0  0  0  0  0  0  0  0  0  0  0  0
  -24.6930  -27.7330   23.1460 O   0  0  0  0  0  0  0  0  0  0  0  0
  -22.2640  -28.1130   21.1890 H   0  0  0  0  0  0  0  0  0  0  0  0
  -19.9640  -25.4040   21.7770 C   0  0  0  0  0  0  0  0  0  0  0  0
  -22.2320  -26.4320   22.4780 C   0  0  0  0  0  3  0  0  0  0  0  0
  -22.8770  -25.1730   21.8550 C   0  0  0  0  0  2  0  0  0  0  0  0
  -22.0950  -24.6310   20.6540 C   0  0  0  0  0  2  0  0  0  0  0  0
  -20.6660  -24.2630   21.0620 C   0  0  0  0  0  2  0  0  0  0  0  0
  -20.6990  -26.4290   22.4310 C   0  0  0  0  0  0  0  0  0  0  0  0
  -19.9940  -27.4810   23.0570 C   0  0  0  0  0  3  0  0  0  0  0  0
  -18.5870  -27.5210   23.0340 C   0  0  0  0  0  3  0  0  0  0  0  0
  -17.8650  -26.4960   22.3970 C   0  0  0  0  0  3  0  0  0  0  0  0
  -18.5550  -25.4400   21.7730 C   0  0  0  0  0  3  0  0  0  0  0  0
  -26.1750  -31.7190   24.1950 C   0  0  0  0  0  3  0  0  0  0  0  0
  -25.6390  -33.0870   24.3200 N   0  0  0  0  0  0  0  0  0  0  0  0
  -25.9710  -34.1200   23.5340 C   0  0  0  0  0  0  0  0  0  0  0  0
  -26.8210  -34.0280   22.6440 O   0  0  0  0  0  0  0  0  0  0  0  0
  -24.9110  -33.2250   25.0060 H   0  0  0  0  0  0  0  0  0  0  0  0
  -24.1300  -35.6380   22.7310 C   0  0  0  0  0  1  0  0  0  0  0  0
  -25.2540  -35.4640   23.7670 C   0  0  0  0  0  3  0  0  0  0  0  0
  -27.0840  -36.7040   24.8450 C   0  0  0  0  0  1  0  0  0  0  0  0
  -26.1580  -36.6340   23.7160 N   0  0  0  0  0  0  0  0  0  0  0  0
  -25.6280  -37.5000   23.6830 H   0  0  0  0  0  0  0  0  0  0  0  0
  -26.4790  -31.1250   25.6290 C   0  0  1  0  0  0  0  0  0  0  0  0
  -25.2120  -30.8250   26.4620 C   0  0  0  0  0  1  0  0  0  0  0  0
  -27.3000  -29.8190   25.5220 C   0  0  0  0  0  1  0  0  0  0  0  0
  -27.3440  -32.1190   26.4390 C   0  0  0  0  0  1  0  0  0  0  0  0
  2  1  1  0
  3  1  1  0
  4  2  1  0
  5  3  2  0
  6 11  1  0
  8 13  1  0
  8 12  1  0
  9  6  1  0
  9  8  1  0
  9 10  1  0
 10  7  1  0
 10 12  1  0
 11 49  1  0
 11  7  1  0
 12  4  1  1
 12  5  1  0
 13 19  1  0
 14 19  1  0
 15 16  1  0
 15 14  1  0
 17 16  1  0
 17 24  1  0
 17 18  1  0
 19 18  1  0
 20 13  2  0
 21 22  2  0
 22 41  1  0
 23 22  1  0
 23 26  1  0
 24 25  1  0
 24 21  1  0
 25 23  2  0
 26 27  1  0
 27 28  2  0
 29 32  1  0
 29 28  1  0
 30 29  2  0
 31 30  1  0
 31 26  2  0
 32 33  1  0
 33 38  2  0
 33 34  1  0
 34 35  2  0
 35 36  1  0
 36 40  1  0
 37 36  2  0
 38 37  1  0
 39 38  1  0
 41 42  1  0
 42 45  1  0
 42 44  1  0
 43 41  2  0
 46 21  1  0
 46 47  1  0
 48 46  1  0
 50 49  1  0
 50 51  1  0
 52 63  2  0
 53 51  1  0
 53 58  1  0
 54 62  1  0
 54 64  1  0
 55 61  1  0
 55 57  1  0
 56 62  1  0
 57 58  2  0
 57 56  1  0
 59 53  2  0
 60 59  1  0
 60 55  2  0
 61 54  1  0
 62 52  1  0
 64 66  2  0
 65 64  1  0
 67 65  1  0
 68 73  1  0
 69 65  1  0
 70 69  1  0
 71 72  1  0
 71 70  1  0
 72 68  1  0
 73 69  1  0
 73 74  2  0
 75 74  1  0
 76 75  2  0
 77 68  2  0
 77 76  1  0
 78 52  1  0
 78 79  1  0
 78 88  1  0
 79 82  1  0
 80 84  1  0
 80 79  1  0
 81 80  2  0
 84 83  1  0
 86 84  1  0
 86 85  1  0
 87 86  1  0
 88 91  1  1
 88 89  1  0
 90 88  1  0
M  ISO  4   8 100  13 100  50 101  51 101
M  END
>  <TORSDO>  (38) 
F 18

>  <SCORE>  (38) 
-4.115

>  <name>  (38) 
38

>  <ligand_id>  (38) 
38

>  <original_smiles>  (38) 
[H]c1c([H])c([H])c2c(c1[H])C([H])([H])C([H])([H])C([H])([H])C2([H])N([H])C(=O)C1([H])N(C(=O)C([H])(N([H])C(=O)C([H])(N([H])C([H])([H])[H])C([H])([H])[H])C(C([H])([H])[H])(C([H])([H])[H])C([H])([H])[H])C([H])([H])c2c([H])c(OC([H])([H])C([H])([H])C3([H])C([H])([H])C4([H])C([H])(C(=O)N5C([H])([H])C([H])([H])C([H])([H])C([H])(n6nc(-c7c([H])c([H])c(Oc8c([H])c([H])c(F)c([H])c8F)c([H])c7[H])c(C(=O)N([H])[H])c6N([H])[H])C5([H])[H])C5(C([H])([H])C([H])([H])C([H])([H])C([H])([H])C5([H])[H])C4([H])C3([H])[H])c([H])c([H])c2C1([H])[H]

>  <smiles>  (38) 
[H]c1c([H])c([H])c2c(c1[H])C([H])([H])C([H])([H])C([H])([H])C2([H])N([H])C(=O)C1([H])N(C(=O)C([H])(N([H])C(=O)C([H])(N([H])C([H])([H])[H])C([H])([H])[H])C(C([H])([H])[H])(C([H])([H])[H])C([H])([H])[H])C([H])([H])c2c([H])c(OC([H])([H])C([H])([H])C3([H])C([H])([H])C4([H])C([H])(C(=O)N5C([H])([H])C([H])([H])C([H])([H])C([H])(n6nc(-c7c([H])c([H])c(Oc8c([H])c([H])c(F)c([H])c8F)c([H])c7[H])c(C(=O)N([H])[H])c6N([H])[H])C5([H])[H])C5(C([H])([H])C([H])([H])C([H])([H])C([H])([H])C5([H])[H])C4([H])C3([H])[H])c([H])c([H])c2C1([H])[H]

$$$$
39:0:0
     RDKit          3D

 95 95  0  0  1  0  0  0  0  0999 V2000
  -25.6700  -14.4850   22.1970 C   0  0  0  0  0  2  0  0  0  0  0  0
  -26.1660  -15.5660   21.0990 N   0  0  0  0  0  0  0  0  0  0  0  0
  -25.1710  -15.0980   23.1410 O   0  0  0  0  0  1  0  0  0  0  0  0
  -26.5990  -15.0110   20.3530 H   0  0  0  0  0  0  0  0  0  0  0  0
  -25.7620   -7.8250   20.0300 C   0  0  0  0  0 15  0  0  0  0  0  0
  -23.6360   -8.2230   19.4090 C   0  0  0  0  0  2  0  0  0  0  0  0
  -25.5120  -12.5380   22.5970 C   0  0  0  0  0 15  0  0  0  0  0  0
  -26.5970   -8.9630   21.7650 C   0  0  0  0  0  1  0  0  0  0  0  0
  -23.6500  -10.7970   22.3280 C   0  0  0  0  0  1  0  0  0  0  0  0
  -27.4480  -11.2490   22.3630 C   0  0  0  0  0  1  0  0  0  0  0  0
  -22.4840   -9.7450   20.6300 C   0  0  0  0  0  2  0  0  0  0  0  0
  -21.2710   -9.0590   21.3110 C   0  0  0  0  0  1  0  0  0  0  0  0
  -21.7810  -10.5810   19.5370 C   0  0  0  0  0  1  0  0  0  0  0  0
  -29.1480  -12.1500   22.4370 C   0  0  0  0  0  2  0  0  0  0  0  0
  -30.5900  -12.7600   21.5070 C   0  0  0  0  0  0  0  0  0  0  0  0
  -31.6610  -11.4630   19.7790 C   0  0  0  0  0  2  0  0  0  0  0  0
  -31.0320  -10.8750   18.5170 C   0  0  0  0  0  2  0  0  0  0  0  0
  -29.5030  -10.7490   18.6560 C   0  0  0  0  0  2  0  0  0  0  0  0
  -28.8680  -12.1590   18.8700 C   0  0  0  0  0  3  0  0  0  0  0  0
  -29.6630  -13.0490   19.7360 C   0  0  0  0  0  2  0  0  0  0  0  0
  -30.6040  -12.2390   20.3970 N   0  0  0  0  0  0  0  0  0  0  0  0
  -31.5980  -13.5600   21.5630 O   0  0  0  0  0  0  0  0  0  0  0  0
  -26.5400  -13.1310   19.2840 C   0  0  0  0  0  0  0  0  0  0  0  0
  -25.3660  -12.5630   19.6160 C   0  0  0  0  0  0  0  0  0  0  0  0
  -25.9030  -11.3430   19.9790 C   0  0  0  0  0  3  0  0  0  0  0  0
  -27.5120  -12.1430   19.2780 N   0  0  0  0  0  0  0  0  0  0  0  0
  -27.0350  -10.9790   19.5300 N   0  0  0  0  0  2  0  0  0  0  0  0
  -25.3630  -10.4320   20.7550 C   0  0  0  0  0  2  0  0  0  0  0  0
  -25.1690   -9.6400   22.6760 C   0  0  0  0  0  3  0  0  0  0  0  0
  -24.4380   -8.3470   22.9750 C   0  0  0  0  0  2  0  0  0  0  0  0
  -23.7440   -7.6380   21.9670 C   0  0  0  0  0  0  0  0  0  0  0  0
  -23.9200   -8.2750   20.7770 C   0  0  0  0  0  0  0  0  0  0  0  0
  -24.6840   -9.6530   20.0030 C   0  0  0  0  0  3  0  0  0  0  0  0
  -22.9540   -6.4540   21.8950 O   0  0  0  0  0  0  0  0  0  0  0  0
  -22.4350   -5.7830   22.9580 C   0  0  0  0  0  0  0  0  0  0  0  0
  -21.6880   -6.4850   23.9140 C   0  0  0  0  0  3  0  0  0  0  0  0
  -21.2870   -5.8380   25.0920 C   0  0  0  0  0  3  0  0  0  0  0  0
  -21.6070   -4.4830   25.2940 C   0  0  0  0  0  0  0  0  0  0  0  0
  -22.2510   -3.7460   24.2840 C   0  0  0  0  0  3  0  0  0  0  0  0
  -22.6470   -4.3890   23.0980 C   0  0  0  0  0  0  0  0  0  0  0  0
  -23.2510   -3.6620   22.1220 F   0  0  0  0  0  0  0  0  0  0  0  0
  -21.2860   -3.8930   26.4680 F   0  0  0  0  0  0  0  0  0  0  0  0
  -23.9690  -13.1680   19.7940 C   0  0  0  0  0  0  0  0  0  0  0  0
  -23.1480  -12.9260   20.8110 N   0  0  0  0  0  0  0  0  0  0  0  0
  -23.5910  -13.9980   19.0040 O   0  0  0  0  0  0  0  0  0  0  0  0
  -23.3480  -12.1780   21.4660 H   0  0  0  0  0  0  0  0  0  0  0  0
  -22.2580  -13.4010   20.8620 H   0  0  0  0  0  0  0  0  0  0  0  0
  -26.8810  -14.4070   18.9530 N   0  0  0  0  0  0  0  0  0  0  0  0
  -26.1640  -15.0750   18.6900 H   0  0  0  0  0  0  0  0  0  0  0  0
  -27.7810  -14.6390   18.5470 H   0  0  0  0  0  0  0  0  0  0  0  0
  -26.0170  -17.2530   20.2920 C   0  0  0  0  0  1  0  0  0  0  0  0
  -26.9700  -18.8560   19.4220 C   0  0  0  0  0 15  0  0  0  0  0  0
  -26.8420  -20.7840   18.6880 C   0  0  0  0  0 15  0  0  0  0  0  0
  -27.3930  -22.7690   18.8060 C   0  0  0  0  0  1  0  0  0  0  0  0
  -27.5940  -24.4820   18.0950 O   0  0  0  0  0  0  0  0  0  0  0  0
  -25.9490  -30.2570   22.9120 C   0  0  0  0  0  0  0  0  0  0  0  0
  -27.1580  -25.9610   18.4170 C   0  0  0  0  0  0  0  0  0  0  0  0
  -24.4640  -29.6150   21.0690 C   0  0  0  0  0  3  0  0  0  0  0  0
  -25.5310  -28.4140   19.0330 C   0  0  0  0  0  0  0  0  0  0  0  0
  -27.0120  -29.4600   20.7110 C   0  0  0  0  0  2  0  0  0  0  0  0
  -26.7740  -28.3040   19.6600 C   0  0  0  0  0  0  0  0  0  0  0  0
  -27.6050  -27.1060   19.3200 C   0  0  0  0  0  3  0  0  0  0  0  0
  -26.0530  -26.4120   17.6720 C   0  0  0  0  0  3  0  0  0  0  0  0
  -25.2420  -27.5300   17.9860 C   0  0  0  0  0  3  0  0  0  0  0  0
  -24.5080  -29.4460   19.5220 C   0  0  0  0  0  2  0  0  0  0  0  0
  -25.8430  -29.8020   21.6190 N   0  0  0  0  0  0  0  0  0  0  0  0
  -24.9460  -30.4720   23.6160 O   0  0  0  0  0  0  0  0  0  0  0  0
  -23.7230  -28.4190   21.7280 C   0  0  0  0  0  0  0  0  0  0  0  0
  -22.3810  -28.3710   21.6210 N   0  0  0  0  0  0  0  0  0  0  0  0
  -24.3640  -27.5470   22.3190 O   0  0  0  0  0  0  0  0  0  0  0  0
  -21.9160  -29.1260   21.1370 H   0  0  0  0  0  0  0  0  0  0  0  0
  -18.9670  -27.1390   21.7510 C   0  0  0  0  0  0  0  0  0  0  0  0
  -21.5230  -27.2920   22.1280 C   0  0  0  0  0  3  0  0  0  0  0  0
  -21.6220  -26.0370   21.2300 C   0  0  0  0  0  2  0  0  0  0  0  0
  -20.5450  -25.9880   20.1410 C   0  0  0  0  0  2  0  0  0  0  0  0
  -19.1480  -25.9950   20.7690 C   0  0  0  0  0  2  0  0  0  0  0  0
  -20.0820  -27.7590   22.3780 C   0  0  0  0  0  0  0  0  0  0  0  0
  -19.8590  -28.8370   23.2610 C   0  0  0  0  0  3  0  0  0  0  0  0
  -18.5540  -29.2960   23.5220 C   0  0  0  0  0  3  0  0  0  0  0  0
  -17.4530  -28.6710   22.9100 C   0  0  0  0  0  3  0  0  0  0  0  0
  -17.6610  -27.5940   22.0310 C   0  0  0  0  0  3  0  0  0  0  0  0
  -27.3300  -30.5450   23.5720 C   0  0  0  0  0  3  0  0  0  0  0  0
  -27.1390  -31.5980   24.5910 N   0  0  0  0  0  0  0  0  0  0  0  0
  -27.5570  -32.8670   24.4820 C   0  0  0  0  0  0  0  0  0  0  0  0
  -28.2020  -33.2720   23.5130 O   0  0  0  0  0  0  0  0  0  0  0  0
  -26.5670  -31.3530   25.3850 H   0  0  0  0  0  0  0  0  0  0  0  0
  -26.0530  -34.7610   25.1960 C   0  0  0  0  0  1  0  0  0  0  0  0
  -27.2070  -33.8420   25.6290 C   0  0  0  0  0  3  0  0  0  0  0  0
  -29.3840  -33.8970   26.7680 C   0  0  0  0  0  1  0  0  0  0  0  0
  -28.3520  -34.6670   26.0760 N   0  0  0  0  0  0  0  0  0  0  0  0
  -28.0420  -35.4090   26.6970 H   0  0  0  0  0  0  0  0  0  0  0  0
  -27.9730  -29.2680   24.2440 C   0  0  1  0  0  0  0  0  0  0  0  0
  -27.0290  -28.5400   25.2300 C   0  0  0  0  0  1  0  0  0  0  0  0
  -28.4170  -28.2360   23.1840 C   0  0  0  0  0  1  0  0  0  0  0  0
  -29.2540  -29.6730   25.0140 C   0  0  0  0  0  1  0  0  0  0  0  0
  1  3  1  0
  2  1  1  0
  4  2  1  0
  6 33  1  0
  6 32  1  0
  8 29  1  0
  9 29  1  0
 10 14  1  0
 11 12  1  0
 13 11  1  0
 15 22  2  0
 15 14  1  0
 16 21  1  0
 17 18  1  0
 17 16  1  0
 19 18  1  0
 19 26  1  0
 19 20  1  0
 20 21  1  0
 21 15  1  0
 23 24  2  0
 24 43  1  0
 24 25  1  0
 25 28  1  0
 26 23  1  0
 26 27  1  0
 27 25  1  0
 29 30  1  0
 31 30  1  0
 32 31  2  0
 33 28  1  0
 33 32  1  0
 34 31  1  0
 34 35  1  0
 35 40  2  0
 35 36  1  0
 36 37  2  0
 37 38  1  0
 38 42  1  0
 39 38  2  0
 40 39  1  0
 41 40  1  0
 43 44  1  0
 44 47  1  0
 44 46  1  0
 45 43  2  0
 48 23  1  0
 49 48  1  0
 50 48  1  0
 51  2  1  0
 55 57  1  0
 55 54  1  0
 56 67  2  0
 57 62  1  0
 58 66  1  0
 58 68  1  0
 59 65  1  0
 59 61  1  0
 60 66  1  0
 61 60  1  0
 62 61  2  0
 63 64  1  0
 63 57  2  0
 64 59  2  0
 65 58  1  0
 66 56  1  0
 68 70  2  0
 69 68  1  0
 71 69  1  0
 72 81  2  0
 72 77  1  0
 73 69  1  0
 73 77  1  0
 74 73  1  0
 75 76  1  0
 75 74  1  0
 76 72  1  0
 77 78  2  0
 78 79  1  0
 80 79  2  0
 81 80  1  0
 82 56  1  0
 82 92  1  0
 82 83  1  0
 83 86  1  0
 84 83  1  0
 84 88  1  0
 85 84  2  0
 88 87  1  0
 88 90  1  0
 90 91  1  0
 90 89  1  0
 92 95  1  1
 92 93  1  0
 94 92  1  0
M  ISO  4  14 100  15 100  54 101  55 101
M  END
>  <TORSDO>  (39) 
F 22

>  <SCORE>  (39) 
4.937

>  <name>  (39) 
39

>  <ligand_id>  (39) 
39

>  <original_smiles>  (39) 
[H]c1c([H])c([H])c2c(c1[H])C([H])([H])C([H])([H])C([H])([H])C2([H])N([H])C(=O)C1([H])N(C(=O)C([H])(N([H])C(=O)C([H])(N([H])C([H])([H])[H])C([H])([H])[H])C(C([H])([H])[H])(C([H])([H])[H])C([H])([H])[H])C([H])([H])c2c([H])c(OC([H])([H])C([H])([H])C([H])([H])C([H])([H])N([H])C(=O)C3([H])C([H])(C([H])([H])C(=O)N4C([H])([H])C([H])([H])C([H])([H])C([H])(n5nc(-c6c([H])c([H])c(Oc7c([H])c([H])c(F)c([H])c7F)c([H])c6[H])c(C(=O)N([H])[H])c5N([H])[H])C4([H])[H])C4([H])C([H])([H])C([H])([H])C(C([H])([H])[H])(C([H])([H])[H])C34[H])c([H])c([H])c2C1([H])[H]

>  <smiles>  (39) 
[H]c1c([H])c([H])c2c(c1[H])C([H])([H])C([H])([H])C([H])([H])C2([H])N([H])C(=O)C1([H])N(C(=O)C([H])(N([H])C(=O)C([H])(N([H])C([H])([H])[H])C([H])([H])[H])C(C([H])([H])[H])(C([H])([H])[H])C([H])([H])[H])C([H])([H])c2c([H])c(OC([H])([H])C([H])([H])C([H])([H])C([H])([H])N([H])C(=O)C3([H])C([H])(C([H])([H])C(=O)N4C([H])([H])C([H])([H])C([H])([H])C([H])(n5nc(-c6c([H])c([H])c(Oc7c([H])c([H])c(F)c([H])c7F)c([H])c6[H])c(C(=O)N([H])[H])c5N([H])[H])C4([H])[H])C4([H])C([H])([H])C([H])([H])C(C([H])([H])[H])(C([H])([H])[H])C34[H])c([H])c([H])c2C1([H])[H]

$$$$
40:0:0
     RDKit          3D

 87 95  0  0  1  0  0  0  0  0999 V2000
  -29.7340  -22.9850   19.0850 C   0  0  0  0  0  2  0  0  0  0  0  0
  -30.0010  -21.4260   19.0930 C   0  0  0  0  0  2  0  0  0  0  0  0
  -28.5110  -21.9750   20.8500 C   0  0  0  0  0  2  0  0  0  0  0  0
  -29.0030  -23.4440   20.3740 C   0  0  0  0  0  3  0  0  0  0  0  0
  -29.5360  -20.7910   20.4300 C   0  0  0  0  0  3  0  0  0  0  0  0
  -27.9840  -18.9350   19.4450 C   0  0  0  0  0  1  0  0  0  0  0  0
  -29.1170  -19.1660   20.4570 C   0  0  0  0  0  3  0  0  0  0  0  0
  -30.1570  -17.8610   20.3550 C   0  0  0  0  0  3  0  0  0  0  0  0
  -29.6900  -16.2920   20.6870 C   0  0  0  0  0  3  0  0  0  0  0  0
  -30.5320  -14.9170   20.3570 C   0  0  0  0  0  0  0  0  0  0  0  0
  -30.3850  -12.6020   19.3540 C   0  0  0  0  0  2  0  0  0  0  0  0
  -29.4290  -12.6410   18.1370 C   0  0  0  0  0  2  0  0  0  0  0  0
  -27.9660  -12.4440   18.5760 C   0  0  0  0  0  2  0  0  0  0  0  0
  -27.5930  -13.3250   19.7940 C   0  0  0  0  0  3  0  0  0  0  0  0
  -28.6640  -13.2700   20.9030 C   0  0  0  0  0  2  0  0  0  0  0  0
  -29.9500  -13.6570   20.3080 N   0  0  0  0  0  0  0  0  0  0  0  0
  -31.7120  -15.0140   20.0060 O   0  0  0  0  0  0  0  0  0  0  0  0
  -25.2170  -13.9030   20.5620 C   0  0  0  0  0  0  0  0  0  0  0  0
  -24.1540  -13.1250   20.9340 C   0  0  0  0  0  0  0  0  0  0  0  0
  -24.6190  -11.7750   20.8880 C   0  0  0  0  0  0  0  0  0  0  0  0
  -26.2570  -13.0250   20.3030 N   0  0  0  0  0  0  0  0  0  0  0  0
  -25.9060  -11.7400   20.5650 N   0  0  0  0  0  0  0  0  0  0  0  0
  -23.8920  -10.5110   21.0760 C   0  0  0  0  0  0  0  0  0  0  0  0
  -24.3330   -9.5330   21.9940 C   0  0  0  0  0  3  0  0  0  0  0  0
  -23.6070   -8.3360   22.1700 C   0  0  0  0  0  3  0  0  0  0  0  0
  -22.4250   -8.1060   21.4260 C   0  0  0  0  0  0  0  0  0  0  0  0
  -22.0030   -9.0730   20.4940 C   0  0  0  0  0  3  0  0  0  0  0  0
  -22.7300  -10.2610   20.3180 C   0  0  0  0  0  3  0  0  0  0  0  0
  -21.6690   -6.9630   21.5120 O   0  0  0  0  0  0  0  0  0  0  0  0
  -21.6340   -6.2070   22.6560 C   0  0  0  0  0  0  0  0  0  0  0  0
  -21.2180   -6.7460   23.8920 C   0  0  0  0  0  3  0  0  0  0  0  0
  -21.1310   -5.9170   25.0290 C   0  0  0  0  0  3  0  0  0  0  0  0
  -21.4480   -4.5490   24.9290 C   0  0  0  0  0  0  0  0  0  0  0  0
  -21.8580   -4.0090   23.6970 C   0  0  0  0  0  3  0  0  0  0  0  0
  -21.9470   -4.8350   22.5630 C   0  0  0  0  0  0  0  0  0  0  0  0
  -22.3220   -4.3050   21.3740 F   0  0  0  0  0  0  0  0  0  0  0  0
  -21.3570   -3.7500   26.0170 F   0  0  0  0  0  0  0  0  0  0  0  0
  -22.7600  -13.5990   21.2210 C   0  0  0  0  0  0  0  0  0  0  0  0
  -22.0410  -12.8990   22.0920 N   0  0  0  0  0  0  0  0  0  0  0  0
  -22.3150  -14.6260   20.7090 O   0  0  0  0  0  0  0  0  0  0  0  0
  -22.4160  -12.0690   22.5280 H   0  0  0  0  0  0  0  0  0  0  0  0
  -21.1050  -13.1970   22.3260 H   0  0  0  0  0  0  0  0  0  0  0  0
  -25.3810  -15.2750   20.3980 N   0  0  0  0  0  0  0  0  0  0  0  0
  -24.6220  -15.9340   20.5360 H   0  0  0  0  0  0  0  0  0  0  0  0
  -26.2330  -15.7160   20.0770 H   0  0  0  0  0  0  0  0  0  0  0  0
  -27.9570  -24.7390   20.2300 C   0  0  0  0  0  2  0  0  0  0  0  0
  -28.2600  -26.2540   20.2320 O   0  0  0  0  0  0  0  0  0  0  0  0
  -24.6290  -31.8850   23.2510 C   0  0  0  0  0  0  0  0  0  0  0  0
  -27.1890  -27.2100   20.1880 C   0  0  0  0  0  0  0  0  0  0  0  0
  -23.4150  -30.4960   21.6170 C   0  0  0  0  0  3  0  0  0  0  0  0
  -24.8520  -28.9300   20.1800 C   0  0  0  0  0  0  0  0  0  0  0  0
  -25.9660  -30.7700   21.4300 C   0  0  0  0  0  2  0  0  0  0  0  0
  -26.0360  -29.3820   20.7770 C   0  0  0  0  0  0  0  0  0  0  0  0
  -27.2050  -28.5390   20.7640 C   0  0  0  0  0  3  0  0  0  0  0  0
  -25.9750  -26.8520   19.5550 C   0  0  0  0  0  3  0  0  0  0  0  0
  -24.8310  -27.6750   19.5560 C   0  0  0  0  0  3  0  0  0  0  0  0
  -23.6240  -29.8230   20.2360 C   0  0  0  0  0  2  0  0  0  0  0  0
  -24.6910  -31.0710   22.1550 N   0  0  0  0  0  0  0  0  0  0  0  0
  -23.5480  -32.1690   23.7880 O   0  0  0  0  0  0  0  0  0  0  0  0
  -22.7440  -29.4850   22.5800 C   0  0  0  0  0  0  0  0  0  0  0  0
  -21.4150  -29.3120   22.4560 N   0  0  0  0  0  0  0  0  0  0  0  0
  -23.4190  -28.8590   23.4010 O   0  0  0  0  0  0  0  0  0  0  0  0
  -20.9280  -29.8680   21.7680 H   0  0  0  0  0  0  0  0  0  0  0  0
  -18.0380  -28.1060   22.9580 C   0  0  0  0  0  0  0  0  0  0  0  0
  -20.5960  -28.3750   23.2280 C   0  0  0  0  0  3  0  0  0  0  0  0
  -20.7020  -26.9410   22.6590 C   0  0  0  0  0  2  0  0  0  0  0  0
  -19.6020  -26.6120   21.6450 C   0  0  0  0  0  2  0  0  0  0  0  0
  -18.2190  -26.7550   22.2860 C   0  0  0  0  0  2  0  0  0  0  0  0
  -19.1540  -28.8730   23.3860 C   0  0  0  0  0  0  0  0  0  0  0  0
  -18.9290  -30.1360   23.9750 C   0  0  0  0  0  3  0  0  0  0  0  0
  -17.6220  -30.6330   24.1400 C   0  0  0  0  0  3  0  0  0  0  0  0
  -16.5210  -29.8620   23.7260 C   0  0  0  0  0  3  0  0  0  0  0  0
  -16.7300  -28.6010   23.1430 C   0  0  0  0  0  3  0  0  0  0  0  0
  -25.9140  -32.5150   23.8720 C   0  0  0  0  0  3  0  0  0  0  0  0
  -26.4340  -31.7360   25.1430 C   0  0  1  0  0  0  0  0  0  0  0  0
  -25.3460  -31.4970   26.2150 C   0  0  0  0  0  1  0  0  0  0  0  0
  -27.0110  -30.3580   24.7450 C   0  0  0  0  0  1  0  0  0  0  0  0
  -27.5900  -32.5230   25.8030 C   0  0  0  0  0  1  0  0  0  0  0  0
  -25.6050  -33.9110   24.2160 N   0  0  0  0  0  0  0  0  0  0  0  0
  -25.9080  -34.9700   23.4530 C   0  0  0  0  0  0  0  0  0  0  0  0
  -26.5440  -34.8750   22.4010 O   0  0  0  0  0  0  0  0  0  0  0  0
  -25.0350  -34.0580   25.0360 H   0  0  0  0  0  0  0  0  0  0  0  0
  -24.1480  -36.7500   23.1840 C   0  0  0  0  0  1  0  0  0  0  0  0
  -25.4310  -36.3560   23.9340 C   0  0  0  0  0  3  0  0  0  0  0  0
  -27.5940  -37.2630   24.6620 C   0  0  0  0  0  1  0  0  0  0  0  0
  -26.4480  -37.4170   23.7700 N   0  0  0  0  0  0  0  0  0  0  0  0
  -26.0400  -38.3350   23.9340 H   0  0  0  0  0  0  0  0  0  0  0  0
  1  2  1  0
  1  4  1  0
  2  5  1  0
  4 46  1  0
  4  3  1  0
  5  7  1  0
  5  3  1  0
  7  6  1  0
  8  7  1  0
  8  9  2  0
 10  9  1  0
 11 16  1  0
 12 13  1  0
 12 11  1  0
 14 13  1  0
 14 21  1  0
 14 15  1  0
 16 10  1  0
 16 15  1  0
 17 10  2  0
 18 19  2  0
 19 38  1  0
 20 19  1  0
 20 23  1  0
 21 18  1  0
 21 22  1  0
 22 20  2  0
 23 24  1  0
 24 25  2  0
 26 29  1  0
 26 25  1  0
 27 26  2  0
 28 27  1  0
 28 23  2  0
 29 30  1  0
 30 31  1  0
 31 32  2  0
 33 32  1  0
 33 37  1  0
 34 33  2  0
 35 30  2  0
 35 34  1  0
 36 35  1  0
 38 39  1  0
 39 42  1  0
 39 41  1  0
 40 38  2  0
 43 44  1  0
 43 18  1  0
 45 43  1  0
 46 47  1  0
 48 59  2  0
 49 47  1  0
 49 54  1  0
 50 58  1  0
 50 60  1  0
 51 57  1  0
 51 53  1  0
 52 58  1  0
 53 52  1  0
 54 53  2  0
 55 56  1  0
 55 49  2  0
 56 51  2  0
 57 50  1  0
 58 48  1  0
 60 62  2  0
 61 60  1  0
 63 61  1  0
 64 73  2  0
 64 69  1  0
 65 61  1  0
 65 69  1  0
 66 65  1  0
 67 68  1  0
 67 66  1  0
 68 64  1  0
 69 70  2  0
 70 71  1  0
 72 71  2  0
 73 72  1  0
 74 48  1  0
 74 79  1  0
 74 75  1  0
 75 78  1  1
 75 76  1  0
 77 75  1  0
 79 82  1  0
 80 84  1  0
 80 79  1  0
 81 80  2  0
 84 83  1  0
 86 87  1  0
 86 84  1  0
 86 85  1  0
M  ISO  4   9 100  10 100  46 101  47 101
M  END
>  <TORSDO>  (40) 
F 20

>  <SCORE>  (40) 
-13.810

>  <name>  (40) 
40

>  <ligand_id>  (40) 
40

>  <original_smiles>  (40) 
[H]c1c([H])c([H])c2c(c1[H])C([H])([H])C([H])([H])C([H])([H])C2([H])N([H])C(=O)C1([H])N(C(=O)C([H])(N([H])C(=O)C([H])(N([H])C([H])([H])[H])C([H])([H])[H])C(C([H])([H])[H])(C([H])([H])[H])C([H])([H])[H])C([H])([H])c2c([H])c(OC([H])([H])C3([H])C([H])([H])C([H])([H])C([H])(C([H])(C([H])([H])[H])C([H])([H])C([H])([H])C(=O)N4C([H])([H])C([H])([H])C([H])([H])C([H])(n5nc(-c6c([H])c([H])c(Oc7c([H])c([H])c(F)c([H])c7F)c([H])c6[H])c(C(=O)N([H])[H])c5N([H])[H])C4([H])[H])C3([H])[H])c([H])c([H])c2C1([H])[H]

>  <smiles>  (40) 
[H]c1c([H])c([H])c2c(c1[H])C([H])([H])C([H])([H])C([H])([H])C2([H])N([H])C(=O)C1([H])N(C(=O)C([H])(N([H])C(=O)C([H])(N([H])C([H])([H])[H])C([H])([H])[H])C(C([H])([H])[H])(C([H])([H])[H])C([H])([H])[H])C([H])([H])c2c([H])c(OC([H])([H])C3([H])C([H])([H])C([H])([H])C([H])(C([H])(C([H])([H])[H])C([H])([H])C([H])([H])C(=O)N4C([H])([H])C([H])([H])C([H])([H])C([H])(n5nc(-c6c([H])c([H])c(Oc7c([H])c([H])c(F)c([H])c7F)c([H])c6[H])c(C(=O)N([H])[H])c5N([H])[H])C4([H])[H])C3([H])[H])c([H])c([H])c2C1([H])[H]

$$$$
41:0:0
     RDKit          3D

 90 98  0  0  1  0  0  0  0  0999 V2000
  -29.9200  -21.3300   20.4450 C   0  0  0  0  0  3  0  0  0  0  0  0
  -29.5020  -19.9360   20.8990 N   0  0  0  0  0  4  0  0  0  0  0  0
  -29.5280  -19.9290   21.9060 H   0  0  0  0  0  0  0  0  0  0  0  0
  -28.5350  -19.8250   20.6350 H   0  0  0  0  0  0  0  0  0  0  0  0
  -31.9360  -18.2550   22.0830 C   0  0  0  0  0  2  0  0  0  0  0  0
  -30.8770  -17.1660   22.2910 C   0  0  0  0  0  2  0  0  0  0  0  0
  -31.7440  -18.7560   20.6480 C   0  0  0  0  0  2  0  0  0  0  0  0
  -29.8440  -17.3360   21.1570 C   0  0  0  0  0  3  0  0  0  0  0  0
  -30.2300  -18.6870   20.3940 C   0  0  0  0  0  3  0  0  0  0  0  0
  -29.4870  -15.9810   20.3710 C   0  0  0  0  0  2  0  0  0  0  0  0
  -30.4310  -14.7170   20.1160 C   0  0  0  0  0  0  0  0  0  0  0  0
  -30.2510  -12.4970   18.9960 C   0  0  0  0  0  2  0  0  0  0  0  0
  -29.2460  -12.6520   17.8290 C   0  0  0  0  0  2  0  0  0  0  0  0
  -27.7890  -12.4690   18.3080 C   0  0  0  0  0  2  0  0  0  0  0  0
  -27.4860  -13.2840   19.5930 C   0  0  0  0  0  3  0  0  0  0  0  0
  -28.5910  -13.0710   20.6510 C   0  0  0  0  0  2  0  0  0  0  0  0
  -29.8720  -13.4630   20.0470 N   0  0  0  0  0  0  0  0  0  0  0  0
  -31.5940  -14.9000   19.7340 O   0  0  0  0  0  0  0  0  0  0  0  0
  -25.1200  -13.8750   20.4110 C   0  0  0  0  0  0  0  0  0  0  0  0
  -24.0730  -13.0940   20.8200 C   0  0  0  0  0  0  0  0  0  0  0  0
  -24.5410  -11.7450   20.7620 C   0  0  0  0  0  0  0  0  0  0  0  0
  -26.1570  -12.9980   20.1270 N   0  0  0  0  0  0  0  0  0  0  0  0
  -25.8160  -11.7140   20.4000 N   0  0  0  0  0  0  0  0  0  0  0  0
  -23.8290  -10.4780   20.9770 C   0  0  0  0  0  0  0  0  0  0  0  0
  -24.3020   -9.5100   21.8900 C   0  0  0  0  0  3  0  0  0  0  0  0
  -23.5890   -8.3080   22.0910 C   0  0  0  0  0  3  0  0  0  0  0  0
  -22.3900   -8.0670   21.3770 C   0  0  0  0  0  0  0  0  0  0  0  0
  -21.9380   -9.0230   20.4510 C   0  0  0  0  0  3  0  0  0  0  0  0
  -22.6510  -10.2160   20.2490 C   0  0  0  0  0  3  0  0  0  0  0  0
  -21.6450   -6.9170   21.4880 O   0  0  0  0  0  0  0  0  0  0  0  0
  -21.6450   -6.1680   22.6390 C   0  0  0  0  0  0  0  0  0  0  0  0
  -21.2620   -6.7150   23.8830 C   0  0  0  0  0  3  0  0  0  0  0  0
  -21.2060   -5.8940   25.0260 C   0  0  0  0  0  3  0  0  0  0  0  0
  -21.5260   -4.5270   24.9270 C   0  0  0  0  0  0  0  0  0  0  0  0
  -21.9020   -3.9780   23.6870 C   0  0  0  0  0  3  0  0  0  0  0  0
  -21.9580   -4.7970   22.5460 C   0  0  0  0  0  0  0  0  0  0  0  0
  -22.3000   -4.2600   21.3510 F   0  0  0  0  0  0  0  0  0  0  0  0
  -21.4650   -3.7350   26.0230 F   0  0  0  0  0  0  0  0  0  0  0  0
  -22.6850  -13.5600   21.1520 C   0  0  0  0  0  0  0  0  0  0  0  0
  -21.9950  -12.8550   22.0410 N   0  0  0  0  0  0  0  0  0  0  0  0
  -22.2190  -14.5850   20.6530 O   0  0  0  0  0  0  0  0  0  0  0  0
  -22.3840  -12.0230   22.4630 H   0  0  0  0  0  0  0  0  0  0  0  0
  -21.0660  -13.1500   22.3040 H   0  0  0  0  0  0  0  0  0  0  0  0
  -25.2700  -15.2480   20.2360 N   0  0  0  0  0  0  0  0  0  0  0  0
  -24.5050  -15.8980   20.3830 H   0  0  0  0  0  0  0  0  0  0  0  0
  -26.0990  -15.6960   19.8670 H   0  0  0  0  0  0  0  0  0  0  0  0
  -28.9150  -22.5220   20.8050 C   0  0  0  0  0  3  0  0  0  0  0  0
  -29.2780  -24.0360   20.4460 C   0  0  0  0  0  3  0  0  0  0  0  0
  -28.0810  -25.0810   20.5310 C   0  0  0  0  0  3  0  0  0  0  0  0
  -28.3100  -26.5240   20.2840 O   0  0  0  0  0  0  0  0  0  0  0  0
  -24.5240  -31.8960   23.2620 C   0  0  0  0  0  0  0  0  0  0  0  0
  -27.1780  -27.3550   20.2330 C   0  0  0  0  0  0  0  0  0  0  0  0
  -23.3340  -30.4940   21.6150 C   0  0  0  0  0  3  0  0  0  0  0  0
  -24.8000  -28.9490   20.2030 C   0  0  0  0  0  0  0  0  0  0  0  0
  -25.8730  -30.8250   21.4470 C   0  0  0  0  0  2  0  0  0  0  0  0
  -25.9640  -29.4480   20.8030 C   0  0  0  0  0  0  0  0  0  0  0  0
  -27.1560  -28.6640   20.8050 C   0  0  0  0  0  3  0  0  0  0  0  0
  -25.9900  -26.9120   19.6040 C   0  0  0  0  0  3  0  0  0  0  0  0
  -24.8150  -27.6840   19.5960 C   0  0  0  0  0  3  0  0  0  0  0  0
  -23.5570  -29.8140   20.2400 C   0  0  0  0  0  2  0  0  0  0  0  0
  -24.5960  -31.0880   22.1660 N   0  0  0  0  0  0  0  0  0  0  0  0
  -23.4360  -32.1720   23.7880 O   0  0  0  0  0  0  0  0  0  0  0  0
  -22.6670  -29.4760   22.5710 C   0  0  0  0  0  0  0  0  0  0  0  0
  -21.3460  -29.2860   22.4230 N   0  0  0  0  0  0  0  0  0  0  0  0
  -23.3380  -28.8610   23.4040 O   0  0  0  0  0  0  0  0  0  0  0  0
  -20.8630  -29.8320   21.7230 H   0  0  0  0  0  0  0  0  0  0  0  0
  -17.9720  -28.0600   22.8660 C   0  0  0  0  0  0  0  0  0  0  0  0
  -20.5220  -28.3460   23.1850 C   0  0  0  0  0  3  0  0  0  0  0  0
  -20.6490  -26.9110   22.6250 C   0  0  0  0  0  2  0  0  0  0  0  0
  -19.5720  -26.5690   21.5910 C   0  0  0  0  0  2  0  0  0  0  0  0
  -18.1750  -26.7060   22.2050 C   0  0  0  0  0  2  0  0  0  0  0  0
  -19.0740  -28.8360   23.3100 C   0  0  0  0  0  0  0  0  0  0  0  0
  -18.8300  -30.1030   23.8840 C   0  0  0  0  0  3  0  0  0  0  0  0
  -17.5170  -30.5930   24.0190 C   0  0  0  0  0  3  0  0  0  0  0  0
  -16.4290  -29.8120   23.5910 C   0  0  0  0  0  3  0  0  0  0  0  0
  -16.6580  -28.5470   23.0210 C   0  0  0  0  0  3  0  0  0  0  0  0
  -25.8020  -32.5290   23.8940 C   0  0  0  0  0  3  0  0  0  0  0  0
  -25.4930  -33.9320   24.2020 N   0  0  0  0  0  0  0  0  0  0  0  0
  -25.8420  -34.9760   23.4370 C   0  0  0  0  0  0  0  0  0  0  0  0
  -26.5280  -34.8580   22.4180 O   0  0  0  0  0  0  0  0  0  0  0  0
  -24.8820  -34.0990   24.9880 H   0  0  0  0  0  0  0  0  0  0  0  0
  -24.1270  -36.7720   23.0370 C   0  0  0  0  0  1  0  0  0  0  0  0
  -25.3530  -36.3700   23.8730 C   0  0  0  0  0  3  0  0  0  0  0  0
  -27.4850  -37.2470   24.7210 C   0  0  0  0  0  1  0  0  0  0  0  0
  -26.3900  -37.4210   23.7690 N   0  0  0  0  0  0  0  0  0  0  0  0
  -25.9830  -38.3400   23.9240 H   0  0  0  0  0  0  0  0  0  0  0  0
  -26.2960  -31.7720   25.1880 C   0  0  1  0  0  0  0  0  0  0  0  0
  -25.1870  -31.5540   26.2440 C   0  0  0  0  0  1  0  0  0  0  0  0
  -26.8770  -30.3860   24.8240 C   0  0  0  0  0  1  0  0  0  0  0  0
  -27.4410  -32.5690   25.8560 C   0  0  0  0  0  1  0  0  0  0  0  0
  1 47  2  0
  1  2  1  0
  2  3  1  0
  4  2  1  0
  5  6  1  0
  7  5  1  0
  8 10  1  0
  8  6  1  0
  9  7  1  0
  9  2  1  0
  9  8  1  0
 11 10  1  0
 12 17  1  0
 13 14  1  0
 13 12  1  0
 15 14  1  0
 15 22  1  0
 15 16  1  0
 17 11  1  0
 17 16  1  0
 18 11  2  0
 19 20  2  0
 20 39  1  0
 21 20  1  0
 21 24  1  0
 22 23  1  0
 22 19  1  0
 23 21  2  0
 24 25  1  0
 25 26  2  0
 27 30  1  0
 27 26  1  0
 28 27  2  0
 29 28  1  0
 29 24  2  0
 30 31  1  0
 31 32  1  0
 32 33  2  0
 34 33  1  0
 34 38  1  0
 35 34  2  0
 36 31  2  0
 36 35  1  0
 37 36  1  0
 39 40  1  0
 40 43  1  0
 40 42  1  0
 41 39  2  0
 44 45  1  0
 44 19  1  0
 46 44  1  0
 48 49  2  0
 48 47  1  0
 50 49  1  0
 51 62  2  0
 52 50  1  0
 52 57  1  0
 53 61  1  0
 53 63  1  0
 54 60  1  0
 54 56  1  0
 55 61  1  0
 56 57  2  0
 56 55  1  0
 58 52  2  0
 59 58  1  0
 59 54  2  0
 60 53  1  0
 61 51  1  0
 63 65  2  0
 64 63  1  0
 66 64  1  0
 67 76  2  0
 67 72  1  0
 68 64  1  0
 68 72  1  0
 69 68  1  0
 70 71  1  0
 70 69  1  0
 71 67  1  0
 72 73  2  0
 73 74  1  0
 75 74  2  0
 76 75  1  0
 77 51  1  0
 77 78  1  0
 77 87  1  0
 78 81  1  0
 79 83  1  0
 79 78  1  0
 80 79  2  0
 83 82  1  0
 85 83  1  0
 85 86  1  0
 85 84  1  0
 87 90  1  1
 87 88  1  0
 89 87  1  0
M  ISO  4  10 100  11 100  49 101  50 101
M  END
>  <TORSDO>  (41) 
F 22

>  <SCORE>  (41) 
-12.879

>  <name>  (41) 
41

>  <ligand_id>  (41) 
41

>  <original_smiles>  (41) 
[H]c1c([H])c([H])c2c(c1[H])C([H])([H])C([H])([H])C([H])([H])C2([H])N([H])C(=O)C1([H])N(C(=O)C([H])(N([H])C(=O)C([H])(N([H])C([H])([H])[H])C([H])([H])[H])C(C([H])([H])[H])(C([H])([H])[H])C([H])([H])[H])C([H])([H])c2c([H])c(OC([H])([H])C([H])([H])C([H])([H])C([H])([H])[N+]([H])([H])C3([H])C([H])([H])C([H])([H])C([H])([H])C3([H])C([H])([H])C(=O)N3C([H])([H])C([H])([H])C([H])([H])C([H])(n4nc(-c5c([H])c([H])c(Oc6c([H])c([H])c(F)c([H])c6F)c([H])c5[H])c(C(=O)N([H])[H])c4N([H])[H])C3([H])[H])c([H])c([H])c2C1([H])[H]

>  <smiles>  (41) 
[H]c1c([H])c([H])c2c(c1[H])C([H])([H])C([H])([H])C([H])([H])C2([H])N([H])C(=O)C1([H])N(C(=O)C([H])(N([H])C(=O)C([H])(N([H])C([H])([H])[H])C([H])([H])[H])C(C([H])([H])[H])(C([H])([H])[H])C([H])([H])[H])C([H])([H])c2c([H])c(OC([H])([H])C([H])([H])C([H])([H])C([H])([H])[N+]([H])([H])C3([H])C([H])([H])C([H])([H])C([H])([H])C3([H])C([H])([H])C(=O)N3C([H])([H])C([H])([H])C([H])([H])C([H])(n4nc(-c5c([H])c([H])c(Oc6c([H])c([H])c(F)c([H])c6F)c([H])c5[H])c(C(=O)N([H])[H])c4N([H])[H])C3([H])[H])c([H])c([H])c2C1([H])[H]

$$$$
42:0:0
     RDKit          3D

 97107  0  0  1  0  0  0  0  0999 V2000
  -33.2500  -21.5150   18.0680 C   0  0  0  0  0  3  0  0  0  0  0  0
  -33.2190  -21.4270   19.4680 C   0  0  0  0  0  3  0  0  0  0  0  0
  -32.0500  -21.4590   17.3450 C   0  0  0  0  0  3  0  0  0  0  0  0
  -31.9970  -21.3040   20.1690 C   0  0  0  0  0  0  0  0  0  0  0  0
  -30.8170  -21.3340   18.0170 C   0  0  0  0  0  0  0  0  0  0  0  0
  -30.7730  -21.2880   19.4420 C   0  0  0  0  0  0  0  0  0  0  0  0
  -32.4460  -19.6690   22.0310 C   0  0  0  0  0  2  0  0  0  0  0  0
  -31.0000  -21.7810   22.5610 C   0  0  0  0  0  2  0  0  0  0  0  0
  -31.2570  -18.7670   22.3690 C   0  0  0  0  0  2  0  0  0  0  0  0
  -29.5950  -21.1330   22.5230 C   0  0  0  0  0  2  0  0  0  0  0  0
  -32.1070  -21.1320   21.6890 C   0  0  0  0  0  3  0  0  0  0  0  0
  -30.0250  -18.8190   21.4220 C   0  0  0  0  0  3  0  0  0  0  0  0
  -29.3400  -20.3010   21.2510 C   0  0  0  0  0  3  0  0  0  0  0  0
  -29.5720  -21.2040   17.1500 C   0  0  0  0  0  1  0  0  0  0  0  0
  -29.5310  -21.2400   20.0980 N   0  0  0  0  0  0  0  0  0  0  0  0
  -30.0800  -17.6100   20.3740 C   0  0  0  0  0  2  0  0  0  0  0  0
  -29.9000  -16.1220   20.9930 C   0  0  0  0  0  2  0  0  0  0  0  0
  -30.6660  -14.8480   20.4190 C   0  0  0  0  0  0  0  0  0  0  0  0
  -30.5130  -12.5840   19.3660 C   0  0  0  0  0  2  0  0  0  0  0  0
  -29.5930  -12.6710   18.1270 C   0  0  0  0  0  2  0  0  0  0  0  0
  -28.1130  -12.4980   18.5240 C   0  0  0  0  0  2  0  0  0  0  0  0
  -27.7180  -13.3770   19.7400 C   0  0  0  0  0  3  0  0  0  0  0  0
  -28.7520  -13.2510   20.8810 C   0  0  0  0  0  2  0  0  0  0  0  0
  -30.0660  -13.6120   20.3310 N   0  0  0  0  0  0  0  0  0  0  0  0
  -31.8120  -15.0030   19.9880 O   0  0  0  0  0  0  0  0  0  0  0  0
  -25.2980  -13.9590   20.3800 C   0  0  0  0  0  0  0  0  0  0  0  0
  -24.2310  -13.1810   20.7410 C   0  0  0  0  0  0  0  0  0  0  0  0
  -24.7110  -11.8350   20.7560 C   0  0  0  0  0  0  0  0  0  0  0  0
  -26.3600  -13.0880   20.1970 N   0  0  0  0  0  0  0  0  0  0  0  0
  -26.0100  -11.8060   20.4820 N   0  0  0  0  0  0  0  0  0  0  0  0
  -23.9950  -10.5680   20.9570 C   0  0  0  0  0  0  0  0  0  0  0  0
  -24.4180   -9.6270   21.9220 C   0  0  0  0  0  3  0  0  0  0  0  0
  -23.7010   -8.4260   22.1110 C   0  0  0  0  0  3  0  0  0  0  0  0
  -22.5490   -8.1560   21.3350 C   0  0  0  0  0  0  0  0  0  0  0  0
  -22.1460   -9.0860   20.3600 C   0  0  0  0  0  3  0  0  0  0  0  0
  -22.8630  -10.2790   20.1690 C   0  0  0  0  0  3  0  0  0  0  0  0
  -21.8060   -7.0040   21.4300 O   0  0  0  0  0  0  0  0  0  0  0  0
  -21.7430   -6.2830   22.5960 C   0  0  0  0  0  0  0  0  0  0  0  0
  -21.2800   -6.8540   23.8010 C   0  0  0  0  0  3  0  0  0  0  0  0
  -21.1650   -6.0590   24.9580 C   0  0  0  0  0  3  0  0  0  0  0  0
  -21.5040   -4.6940   24.9130 C   0  0  0  0  0  0  0  0  0  0  0  0
  -21.9620   -4.1210   23.7120 C   0  0  0  0  0  3  0  0  0  0  0  0
  -22.0780   -4.9140   22.5560 C   0  0  0  0  0  0  0  0  0  0  0  0
  -22.4990   -4.3530   21.3970 F   0  0  0  0  0  0  0  0  0  0  0  0
  -21.3880   -3.9270   26.0220 F   0  0  0  0  0  0  0  0  0  0  0  0
  -22.8200  -13.6460   20.9640 C   0  0  0  0  0  0  0  0  0  0  0  0
  -22.0790  -12.9620   21.8270 N   0  0  0  0  0  0  0  0  0  0  0  0
  -22.3830  -14.6520   20.4060 O   0  0  0  0  0  0  0  0  0  0  0  0
  -22.4450  -12.1490   22.3010 H   0  0  0  0  0  0  0  0  0  0  0  0
  -21.1320  -13.2570   22.0200 H   0  0  0  0  0  0  0  0  0  0  0  0
  -25.4490  -15.3280   20.1740 N   0  0  0  0  0  0  0  0  0  0  0  0
  -24.6720  -15.9750   20.2520 H   0  0  0  0  0  0  0  0  0  0  0  0
  -26.3060  -15.7720   19.8710 H   0  0  0  0  0  0  0  0  0  0  0  0
  -28.6320  -22.4550   19.9230 C   0  0  0  0  0  2  0  0  0  0  0  0
  -29.1720  -23.9610   20.1080 C   0  0  0  0  0  3  0  0  0  0  0  0
  -28.1050  -25.1220   19.8130 C   0  0  0  0  0  3  0  0  0  0  0  0
  -28.3550  -26.5740   20.0620 O   0  0  0  0  0  0  0  0  0  0  0  0
  -24.6690  -31.9120   23.2960 C   0  0  0  0  0  0  0  0  0  0  0  0
  -27.2420  -27.4440   20.0520 C   0  0  0  0  0  0  0  0  0  0  0  0
  -23.4420  -30.5620   21.6360 C   0  0  0  0  0  3  0  0  0  0  0  0
  -24.8720  -29.0640   20.1370 C   0  0  0  0  0  0  0  0  0  0  0  0
  -25.9790  -30.8890   21.4210 C   0  0  0  0  0  2  0  0  0  0  0  0
  -26.0530  -29.5310   20.7290 C   0  0  0  0  0  0  0  0  0  0  0  0
  -27.2400  -28.7330   20.6790 C   0  0  0  0  0  3  0  0  0  0  0  0
  -26.0320  -27.0420   19.4350 C   0  0  0  0  0  3  0  0  0  0  0  0
  -24.8650  -27.8260   19.4810 C   0  0  0  0  0  3  0  0  0  0  0  0
  -23.6350  -29.9330   20.2320 C   0  0  0  0  0  2  0  0  0  0  0  0
  -24.7170  -31.1370   22.1740 N   0  0  0  0  0  0  0  0  0  0  0  0
  -23.5940  -32.1700   23.8580 O   0  0  0  0  0  0  0  0  0  0  0  0
  -22.7980  -29.5130   22.5750 C   0  0  0  0  0  0  0  0  0  0  0  0
  -21.4710  -29.3320   22.4620 N   0  0  0  0  0  0  0  0  0  0  0  0
  -23.4910  -28.8660   23.3650 O   0  0  0  0  0  0  0  0  0  0  0  0
  -20.9690  -29.9080   21.8000 H   0  0  0  0  0  0  0  0  0  0  0  0
  -18.1090  -28.0950   22.9710 C   0  0  0  0  0  0  0  0  0  0  0  0
  -20.6690  -28.3690   23.2180 C   0  0  0  0  0  3  0  0  0  0  0  0
  -20.7750  -26.9520   22.6060 C   0  0  0  0  0  2  0  0  0  0  0  0
  -19.6640  -26.6470   21.5970 C   0  0  0  0  0  2  0  0  0  0  0  0
  -18.2890  -26.7650   22.2610 C   0  0  0  0  0  2  0  0  0  0  0  0
  -19.2270  -28.8550   23.4080 C   0  0  0  0  0  0  0  0  0  0  0  0
  -19.0060  -30.1000   24.0360 C   0  0  0  0  0  3  0  0  0  0  0  0
  -17.7000  -30.5870   24.2290 C   0  0  0  0  0  3  0  0  0  0  0  0
  -16.5960  -29.8240   23.8090 C   0  0  0  0  0  3  0  0  0  0  0  0
  -16.8020  -28.5800   23.1860 C   0  0  0  0  0  3  0  0  0  0  0  0
  -25.9600  -32.5310   23.9150 C   0  0  0  0  0  3  0  0  0  0  0  0
  -25.6570  -33.9230   24.2720 N   0  0  0  0  0  0  0  0  0  0  0  0
  -25.9740  -34.9890   23.5230 C   0  0  0  0  0  0  0  0  0  0  0  0
  -26.6220  -34.9010   22.4780 O   0  0  0  0  0  0  0  0  0  0  0  0
  -25.0750  -34.0650   25.0860 H   0  0  0  0  0  0  0  0  0  0  0  0
  -24.2380  -36.7880   23.2380 C   0  0  0  0  0  1  0  0  0  0  0  0
  -25.4980  -36.3710   24.0130 C   0  0  0  0  0  3  0  0  0  0  0  0
  -27.6510  -37.2470   24.8070 C   0  0  0  0  0  1  0  0  0  0  0  0
  -26.5280  -37.4250   23.8900 N   0  0  0  0  0  0  0  0  0  0  0  0
  -26.1250  -38.3430   24.0580 H   0  0  0  0  0  0  0  0  0  0  0  0
  -26.4870  -31.7370   25.1730 C   0  0  1  0  0  0  0  0  0  0  0  0
  -25.4040  -31.4840   26.2490 C   0  0  0  0  0  1  0  0  0  0  0  0
  -27.0620  -30.3640   24.7550 C   0  0  0  0  0  1  0  0  0  0  0  0
  -27.6480  -32.5160   25.8370 C   0  0  0  0  0  1  0  0  0  0  0  0
  1  2  1  0
  2  4  2  0
  3  5  1  0
  3  1  2  0
  4 11  1  0
  5  6  2  0
  6 15  1  0
  6  4  1  0
  7  9  1  0
 10  8  1  0
 11  7  1  0
 11  8  1  0
 12 16  1  0
 12  9  1  0
 13 12  1  0
 13 10  1  0
 14  5  1  0
 15 13  1  0
 16 17  1  0
 18 17  1  0
 19 24  1  0
 20 21  1  0
 20 19  1  0
 22 21  1  0
 22 29  1  0
 22 23  1  0
 24 18  1  0
 24 23  1  0
 25 18  2  0
 26 27  2  0
 27 28  1  0
 27 46  1  0
 28 31  1  0
 29 26  1  0
 29 30  1  0
 30 28  2  0
 31 32  1  0
 32 33  2  0
 34 37  1  0
 34 33  1  0
 35 34  2  0
 36 35  1  0
 36 31  2  0
 37 38  1  0
 38 39  1  0
 39 40  2  0
 41 40  1  0
 41 45  1  0
 42 41  2  0
 43 38  2  0
 43 42  1  0
 44 43  1  0
 46 47  1  0
 47 50  1  0
 47 49  1  0
 48 46  2  0
 51 52  1  0
 51 26  1  0
 53 51  1  0
 54 15  1  0
 54 55  1  0
 56 57  1  0
 56 55  2  0
 58 69  2  0
 59 57  1  0
 59 64  1  0
 60 68  1  0
 60 70  1  0
 61 67  1  0
 61 63  1  0
 62 68  1  0
 63 62  1  0
 64 63  2  0
 65 66  1  0
 65 59  2  0
 66 61  2  0
 67 60  1  0
 68 58  1  0
 70 72  2  0
 71 70  1  0
 73 71  1  0
 74 83  2  0
 74 79  1  0
 75 71  1  0
 75 79  1  0
 76 75  1  0
 77 78  1  0
 77 76  1  0
 78 74  1  0
 79 80  2  0
 80 81  1  0
 82 81  2  0
 83 82  1  0
 84 58  1  0
 84 85  1  0
 84 94  1  0
 85 88  1  0
 86 90  1  0
 86 85  1  0
 87 86  2  0
 90 89  1  0
 92 90  1  0
 92 93  1  0
 92 91  1  0
 94 97  1  1
 94 95  1  0
 96 94  1  0
M  ISO  4  17 100  18 100  56 101  57 101
M  END
>  <TORSDO>  (42) 
F 21

>  <SCORE>  (42) 
-13.349

>  <name>  (42) 
42

>  <ligand_id>  (42) 
42

>  <original_smiles>  (42) 
[H]c1c([H])c([H])c2c(c1[H])C([H])([H])C([H])([H])C([H])([H])C2([H])N([H])C(=O)C1([H])N(C(=O)C([H])(N([H])C(=O)C([H])(N([H])C([H])([H])[H])C([H])([H])[H])C(C([H])([H])[H])(C([H])([H])[H])C([H])([H])[H])C([H])([H])c2c([H])c(OC([H])([H])C([H])([H])C([H])([H])N3c4c(C([H])([H])[H])c([H])c([H])c([H])c4C4([H])C([H])([H])C([H])([H])C3([H])C([H])(C([H])([H])C([H])([H])C(=O)N3C([H])([H])C([H])([H])C([H])([H])C([H])(n5nc(-c6c([H])c([H])c(Oc7c([H])c([H])c(F)c([H])c7F)c([H])c6[H])c(C(=O)N([H])[H])c5N([H])[H])C3([H])[H])C([H])([H])C4([H])[H])c([H])c([H])c2C1([H])[H]

>  <smiles>  (42) 
[H]c1c([H])c([H])c2c(c1[H])C([H])([H])C([H])([H])C([H])([H])C2([H])N([H])C(=O)C1([H])N(C(=O)C([H])(N([H])C(=O)C([H])(N([H])C([H])([H])[H])C([H])([H])[H])C(C([H])([H])[H])(C([H])([H])[H])C([H])([H])[H])C([H])([H])c2c([H])c(OC([H])([H])C([H])([H])C([H])([H])N3c4c(C([H])([H])[H])c([H])c([H])c([H])c4C4([H])C([H])([H])C([H])([H])C3([H])C([H])(C([H])([H])C([H])([H])C(=O)N3C([H])([H])C([H])([H])C([H])([H])C([H])(n5nc(-c6c([H])c([H])c(Oc7c([H])c([H])c(F)c([H])c7F)c([H])c6[H])c(C(=O)N([H])[H])c5N([H])[H])C3([H])[H])C([H])([H])C4([H])[H])c([H])c([H])c2C1([H])[H]

$$$$
43:0:0
     RDKit          3D

 97105  0  0  1  0  0  0  0  0999 V2000
  -28.1310  -20.5440   16.9420 C   0  0  0  0  0  2  0  0  0  0  0  0
  -28.3180  -21.9890   17.4380 C   0  0  0  0  0  2  0  0  0  0  0  0
  -29.8140  -20.6090   18.6890 C   0  0  0  0  0  2  0  0  0  0  0  0
  -28.9140  -19.6440   17.9070 C   0  0  0  0  0  3  0  0  0  0  0  0
  -29.0220  -21.9210   18.8120 C   0  0  2  0  0  0  0  0  0  0  0  0
  -27.9690  -21.7900   19.9400 C   0  0  0  0  0  1  0  0  0  0  0  0
  -30.8040  -23.0100   20.3490 C   0  0  0  0  0  1  0  0  0  0  0  0
  -29.9790  -23.1310   19.0480 C   0  0  0  0  0  3  0  0  0  0  0  0
  -29.2170  -24.3980   19.0140 N   0  0  0  0  0  4  0  0  0  0  0  0
  -28.5680  -24.3480   18.2430 H   0  0  0  0  0  0  0  0  0  0  0  0
  -28.6720  -24.4790   19.8590 H   0  0  0  0  0  0  0  0  0  0  0  0
  -30.0160  -25.6360   18.8680 C   0  0  0  0  0  2  0  0  0  0  0  0
  -29.1010  -26.8540   18.9590 C   0  0  0  0  0  2  0  0  0  0  0  0
  -28.4030  -26.7530   20.1970 O   0  0  0  0  0  0  0  0  0  0  0  0
  -24.5430  -31.8890   23.2200 C   0  0  0  0  0  0  0  0  0  0  0  0
  -27.2300  -27.4550   20.2130 C   0  0  0  0  0  0  0  0  0  0  0  0
  -23.3580  -30.4770   21.5670 C   0  0  0  0  0  3  0  0  0  0  0  0
  -24.8320  -28.9250   20.1840 C   0  0  0  0  0  0  0  0  0  0  0  0
  -25.8830  -30.8350   21.4100 C   0  0  0  0  0  2  0  0  0  0  0  0
  -25.9760  -29.4600   20.7900 C   0  0  0  0  0  0  0  0  0  0  0  0
  -27.1780  -28.7270   20.8130 C   0  0  0  0  0  3  0  0  0  0  0  0
  -26.0700  -26.9070   19.6250 C   0  0  0  0  0  3  0  0  0  0  0  0
  -24.8700  -27.6420   19.6060 C   0  0  0  0  0  3  0  0  0  0  0  0
  -23.5900  -29.7860   20.1970 C   0  0  0  0  0  2  0  0  0  0  0  0
  -24.6120  -31.0820   22.1240 N   0  0  0  0  0  0  0  0  0  0  0  0
  -23.4540  -32.1690   23.7390 O   0  0  0  0  0  0  0  0  0  0  0  0
  -22.6900  -29.4640   22.5230 C   0  0  0  0  0  0  0  0  0  0  0  0
  -21.3670  -29.2900   22.3790 N   0  0  0  0  0  0  0  0  0  0  0  0
  -23.3580  -28.8380   23.3510 O   0  0  0  0  0  0  0  0  0  0  0  0
  -20.8920  -29.8450   21.6820 H   0  0  0  0  0  0  0  0  0  0  0  0
  -17.9730  -28.1500   22.8540 C   0  0  0  0  0  0  0  0  0  0  0  0
  -20.5320  -28.3650   23.1430 C   0  0  0  0  0  3  0  0  0  0  0  0
  -20.6160  -26.9330   22.5660 C   0  0  0  0  0  2  0  0  0  0  0  0
  -19.5140  -26.6280   21.5450 C   0  0  0  0  0  2  0  0  0  0  0  0
  -18.1310  -26.7980   22.1790 C   0  0  0  0  0  2  0  0  0  0  0  0
  -19.1020  -28.8930   23.2920 C   0  0  0  0  0  0  0  0  0  0  0  0
  -18.9000  -30.1610   23.8800 C   0  0  0  0  0  3  0  0  0  0  0  0
  -17.6040  -30.6840   24.0380 C   0  0  0  0  0  3  0  0  0  0  0  0
  -16.4900  -29.9370   23.6180 C   0  0  0  0  0  3  0  0  0  0  0  0
  -16.6750  -28.6730   23.0330 C   0  0  0  0  0  3  0  0  0  0  0  0
  -25.8230  -32.5180   23.8550 C   0  0  0  0  0  3  0  0  0  0  0  0
  -26.3200  -31.7540   25.1440 C   0  0  1  0  0  0  0  0  0  0  0  0
  -25.2090  -31.5230   26.1950 C   0  0  0  0  0  1  0  0  0  0  0  0
  -26.9080  -30.3740   24.7670 C   0  0  0  0  0  1  0  0  0  0  0  0
  -27.4590  -32.5510   25.8200 C   0  0  0  0  0  1  0  0  0  0  0  0
  -25.5170  -33.9200   24.1670 N   0  0  0  0  0  0  0  0  0  0  0  0
  -25.8770  -34.9620   23.4060 C   0  0  0  0  0  0  0  0  0  0  0  0
  -26.5710  -34.8450   22.3920 O   0  0  0  0  0  0  0  0  0  0  0  0
  -24.9060  -34.0870   24.9530 H   0  0  0  0  0  0  0  0  0  0  0  0
  -24.1760  -36.7650   22.9790 C   0  0  0  0  0  1  0  0  0  0  0  0
  -25.3840  -36.3570   23.8390 C   0  0  0  0  0  3  0  0  0  0  0  0
  -27.4910  -37.2240   24.7480 C   0  0  0  0  0  1  0  0  0  0  0  0
  -26.4290  -37.4000   23.7620 N   0  0  0  0  0  0  0  0  0  0  0  0
  -26.0260  -38.3240   23.8940 H   0  0  0  0  0  0  0  0  0  0  0  0
  -29.6930  -18.5120   17.2100 C   0  0  0  0  0  2  0  0  0  0  0  0
  -31.7450  -17.1740   17.4630 C   0  0  0  0  0  1  0  0  0  0  0  0
  -30.6030  -17.8180   18.1540 N   0  0  2  0  0  4  0  0  0  0  0  0
  -31.0020  -18.5520   18.7190 H   0  0  0  0  0  0  0  0  0  0  0  0
  -29.9140  -16.8930   19.0870 C   0  0  0  0  0  2  0  0  0  0  0  0
  -30.5640  -16.9070   20.4930 C   0  0  0  0  0  2  0  0  0  0  0  0
  -30.3170  -15.6110   21.2970 C   0  0  0  0  0  2  0  0  0  0  0  0
  -30.9500  -14.3960   20.5950 C   0  0  0  0  0  0  0  0  0  0  0  0
  -30.5900  -12.3170   19.3320 C   0  0  0  0  0  2  0  0  0  0  0  0
  -29.6820  -12.6300   18.1260 C   0  0  0  0  0  2  0  0  0  0  0  0
  -28.1940  -12.5300   18.5220 C   0  0  0  0  0  2  0  0  0  0  0  0
  -27.8660  -13.3050   19.8280 C   0  0  0  0  0  3  0  0  0  0  0  0
  -28.8970  -12.9840   20.9350 C   0  0  0  0  0  2  0  0  0  0  0  0
  -30.2390  -13.2570   20.4040 N   0  0  0  0  0  0  0  0  0  0  0  0
  -32.0640  -14.5660   20.0900 O   0  0  0  0  0  0  0  0  0  0  0  0
  -25.4520  -13.9360   20.4660 C   0  0  0  0  0  0  0  0  0  0  0  0
  -24.3710  -13.1730   20.8180 C   0  0  0  0  0  0  0  0  0  0  0  0
  -24.8230  -11.8180   20.8140 C   0  0  0  0  0  0  0  0  0  0  0  0
  -26.4970  -13.0460   20.2730 N   0  0  0  0  0  0  0  0  0  0  0  0
  -26.1200  -11.7680   20.5330 N   0  0  0  0  0  0  0  0  0  0  0  0
  -24.0860  -10.5620   21.0020 C   0  0  0  0  0  0  0  0  0  0  0  0
  -24.4840   -9.6090   21.9650 C   0  0  0  0  0  3  0  0  0  0  0  0
  -23.7500   -8.4160   22.1390 C   0  0  0  0  0  3  0  0  0  0  0  0
  -22.6020   -8.1680   21.3500 C   0  0  0  0  0  0  0  0  0  0  0  0
  -22.2210   -9.1100   20.3790 C   0  0  0  0  0  3  0  0  0  0  0  0
  -22.9560  -10.2950   20.2040 C   0  0  0  0  0  3  0  0  0  0  0  0
  -21.8420   -7.0260   21.4310 O   0  0  0  0  0  0  0  0  0  0  0  0
  -21.7420   -6.3090   22.5960 C   0  0  0  0  0  0  0  0  0  0  0  0
  -21.2530   -6.8870   23.7880 C   0  0  0  0  0  3  0  0  0  0  0  0
  -21.1040   -6.0950   24.9440 C   0  0  0  0  0  3  0  0  0  0  0  0
  -21.4330   -4.7280   24.9090 C   0  0  0  0  0  0  0  0  0  0  0  0
  -21.9150   -4.1490   23.7220 C   0  0  0  0  0  3  0  0  0  0  0  0
  -22.0650   -4.9370   22.5680 C   0  0  0  0  0  0  0  0  0  0  0  0
  -22.5090   -4.3710   21.4200 F   0  0  0  0  0  0  0  0  0  0  0  0
  -21.2820   -3.9640   26.0170 F   0  0  0  0  0  0  0  0  0  0  0  0
  -22.9710  -13.6620   21.0580 C   0  0  0  0  0  0  0  0  0  0  0  0
  -22.2200  -12.9790   21.9160 N   0  0  0  0  0  0  0  0  0  0  0  0
  -22.5520  -14.6870   20.5240 O   0  0  0  0  0  0  0  0  0  0  0  0
  -22.5680  -12.1480   22.3720 H   0  0  0  0  0  0  0  0  0  0  0  0
  -21.2860  -13.2980   22.1250 H   0  0  0  0  0  0  0  0  0  0  0  0
  -25.6300  -15.3020   20.2760 N   0  0  0  0  0  0  0  0  0  0  0  0
  -24.8690  -15.9660   20.3590 H   0  0  0  0  0  0  0  0  0  0  0  0
  -26.4990  -15.7340   19.9880 H   0  0  0  0  0  0  0  0  0  0  0  0
  1  2  1  0
  1  4  1  0
  2  5  1  0
  3  5  1  0
  4 55  1  0
  4  3  1  0
  5  8  1  0
  5  6  1  1
  8  7  1  0
  9  8  1  0
  9 11  1  0
 10  9  1  0
 12 13  1  0
 12  9  1  0
 13 14  1  0
 14 16  1  0
 15 26  2  0
 16 21  1  0
 17 25  1  0
 17 27  1  0
 18 24  1  0
 18 20  1  0
 19 25  1  0
 20 21  2  0
 20 19  1  0
 22 16  2  0
 23 22  1  0
 23 18  2  0
 24 17  1  0
 25 15  1  0
 27 29  2  0
 28 27  1  0
 30 28  1  0
 31 40  2  0
 31 36  1  0
 32 28  1  0
 32 36  1  0
 33 32  1  0
 34 35  1  0
 34 33  1  0
 35 31  1  0
 36 37  2  0
 37 38  1  0
 39 38  2  0
 40 39  1  0
 41 15  1  0
 41 46  1  0
 41 42  1  0
 42 45  1  1
 42 43  1  0
 44 42  1  0
 46 49  1  0
 47 51  1  0
 47 46  1  0
 48 47  2  0
 51 50  1  0
 53 51  1  0
 53 54  1  0
 53 52  1  0
 55 57  1  0
 56 57  1  0
 57 58  1  1
 57 59  1  0
 59 60  1  0
 60 61  1  0
 62 61  1  0
 63 68  1  0
 64 65  1  0
 64 63  1  0
 66 65  1  0
 66 73  1  0
 66 67  1  0
 68 62  1  0
 68 67  1  0
 69 62  2  0
 70 71  2  0
 71 90  1  0
 72 71  1  0
 72 75  1  0
 73 70  1  0
 73 74  1  0
 74 72  2  0
 75 76  1  0
 76 77  2  0
 78 81  1  0
 78 77  1  0
 79 78  2  0
 80 79  1  0
 80 75  2  0
 81 82  1  0
 82 83  1  0
 83 84  2  0
 85 84  1  0
 85 89  1  0
 86 85  2  0
 87 82  2  0
 87 86  1  0
 88 87  1  0
 90 91  1  0
 91 94  1  0
 91 93  1  0
 92 90  2  0
 95 96  1  0
 95 70  1  0
 97 95  1  0
M  ISO  4  13 101  14 101  61 100  62 100
M  END
>  <TORSDO>  (43) 
F 25

>  <SCORE>  (43) 
-12.150

>  <name>  (43) 
43

>  <ligand_id>  (43) 
43

>  <original_smiles>  (43) 
[H]c1c([H])c([H])c2c(c1[H])C([H])([H])C([H])([H])C([H])([H])C2([H])N([H])C(=O)C1([H])N(C(=O)C([H])(N([H])C(=O)C([H])(N([H])C([H])([H])[H])C([H])([H])[H])C(C([H])([H])[H])(C([H])([H])[H])C([H])([H])[H])C([H])([H])c2c([H])c(OC([H])([H])C([H])([H])[N+]([H])([H])C([H])(C([H])([H])[H])C3(C([H])([H])[H])C([H])([H])C([H])([H])C([H])(C([H])([H])[N+]([H])(C([H])([H])[H])C([H])([H])C([H])([H])C([H])([H])C(=O)N4C([H])([H])C([H])([H])C([H])([H])C([H])(n5nc(-c6c([H])c([H])c(Oc7c([H])c([H])c(F)c([H])c7F)c([H])c6[H])c(C(=O)N([H])[H])c5N([H])[H])C4([H])[H])C3([H])[H])c([H])c([H])c2C1([H])[H]

>  <smiles>  (43) 
[H]c1c([H])c([H])c2c(c1[H])C([H])([H])C([H])([H])C([H])([H])C2([H])N([H])C(=O)C1([H])N(C(=O)C([H])(N([H])C(=O)C([H])(N([H])C([H])([H])[H])C([H])([H])[H])C(C([H])([H])[H])(C([H])([H])[H])C([H])([H])[H])C([H])([H])c2c([H])c(OC([H])([H])C([H])([H])[N+]([H])([H])C([H])(C([H])([H])[H])C3(C([H])([H])[H])C([H])([H])C([H])([H])C([H])(C([H])([H])[N+]([H])(C([H])([H])[H])C([H])([H])C([H])([H])C([H])([H])C(=O)N4C([H])([H])C([H])([H])C([H])([H])C([H])(n5nc(-c6c([H])c([H])c(Oc7c([H])c([H])c(F)c([H])c7F)c([H])c6[H])c(C(=O)N([H])[H])c5N([H])[H])C4([H])[H])C3([H])[H])c([H])c([H])c2C1([H])[H]

$$$$
44:0:0
     RDKit          3D

 89 97  0  0  1  0  0  0  0  0999 V2000
  -28.3310  -21.8770   20.3760 C   0  0  0  0  0  2  0  0  0  0  0  0
  -29.5990  -19.6770   20.3040 C   0  0  0  0  0  0  0  0  0  0  0  0
  -28.8450  -20.6050   20.9280 N   0  0  0  0  0  0  0  0  0  0  0  0
  -29.9890  -19.8330   19.1450 O   0  0  0  0  0  0  0  0  0  0  0  0
  -28.5660  -20.3790   21.8740 H   0  0  0  0  0  0  0  0  0  0  0  0
  -31.3910  -17.9840   21.0330 C   0  0  0  0  0  2  0  0  0  0  0  0
  -29.9510  -18.4580   21.1300 C   0  0  0  0  0  3  0  0  0  0  0  0
  -30.2970  -17.1110   20.4600 C   0  0  0  0  0  3  0  0  0  0  0  0
  -29.9680  -15.7460   21.1020 C   0  0  0  0  0  2  0  0  0  0  0  0
  -30.6850  -14.5130   20.4670 C   0  0  0  0  0  0  0  0  0  0  0  0
  -30.3990  -12.3620   19.2780 C   0  0  0  0  0  2  0  0  0  0  0  0
  -29.4510  -12.5920   18.0840 C   0  0  0  0  0  2  0  0  0  0  0  0
  -27.9770  -12.4680   18.5120 C   0  0  0  0  0  2  0  0  0  0  0  0
  -27.6530  -13.2720   19.7980 C   0  0  0  0  0  3  0  0  0  0  0  0
  -28.7120  -13.0080   20.8930 C   0  0  0  0  0  2  0  0  0  0  0  0
  -30.0300  -13.3250   20.3290 N   0  0  0  0  0  0  0  0  0  0  0  0
  -31.8100  -14.6870   19.9920 O   0  0  0  0  0  0  0  0  0  0  0  0
  -25.2510  -13.8910   20.4820 C   0  0  0  0  0  0  0  0  0  0  0  0
  -24.1750  -13.1270   20.8430 C   0  0  0  0  0  0  0  0  0  0  0  0
  -24.6300  -11.7720   20.8280 C   0  0  0  0  0  0  0  0  0  0  0  0
  -26.2950  -13.0050   20.2690 N   0  0  0  0  0  0  0  0  0  0  0  0
  -25.9230  -11.7260   20.5330 N   0  0  0  0  0  0  0  0  0  0  0  0
  -23.8990  -10.5140   21.0190 C   0  0  0  0  0  0  0  0  0  0  0  0
  -24.3210   -9.5470   21.9590 C   0  0  0  0  0  3  0  0  0  0  0  0
  -23.5880   -8.3560   22.1410 C   0  0  0  0  0  3  0  0  0  0  0  0
  -22.4210   -8.1180   21.3780 C   0  0  0  0  0  0  0  0  0  0  0  0
  -22.0180   -9.0710   20.4240 C   0  0  0  0  0  3  0  0  0  0  0  0
  -22.7530  -10.2560   20.2420 C   0  0  0  0  0  3  0  0  0  0  0  0
  -21.6620   -6.9750   21.4650 O   0  0  0  0  0  0  0  0  0  0  0  0
  -21.6040   -6.2360   22.6190 C   0  0  0  0  0  0  0  0  0  0  0  0
  -21.1720   -6.7980   23.8400 C   0  0  0  0  0  3  0  0  0  0  0  0
  -21.0620   -5.9890   24.9910 C   0  0  0  0  0  3  0  0  0  0  0  0
  -21.3740   -4.6170   24.9160 C   0  0  0  0  0  0  0  0  0  0  0  0
  -21.8030   -4.0550   23.7010 C   0  0  0  0  0  3  0  0  0  0  0  0
  -21.9130   -4.8610   22.5540 C   0  0  0  0  0  0  0  0  0  0  0  0
  -22.3060   -4.3100   21.3810 F   0  0  0  0  0  0  0  0  0  0  0  0
  -21.2580   -3.8370   26.0160 F   0  0  0  0  0  0  0  0  0  0  0  0
  -22.7780  -13.6100   21.1000 C   0  0  0  0  0  0  0  0  0  0  0  0
  -22.0450  -12.9180   21.9630 N   0  0  0  0  0  0  0  0  0  0  0  0
  -22.3480  -14.6380   20.5750 O   0  0  0  0  0  0  0  0  0  0  0  0
  -22.4120  -12.0890   22.4090 H   0  0  0  0  0  0  0  0  0  0  0  0
  -21.1050  -13.2190   22.1820 H   0  0  0  0  0  0  0  0  0  0  0  0
  -25.4230  -15.2610   20.2970 N   0  0  0  0  0  0  0  0  0  0  0  0
  -24.6620  -15.9270   20.3840 H   0  0  0  0  0  0  0  0  0  0  0  0
  -26.2870  -15.6870   19.9880 H   0  0  0  0  0  0  0  0  0  0  0  0
  -28.3860  -23.0260   21.4190 C   0  0  0  0  0  2  0  0  0  0  0  0
  -27.6990  -24.3850   21.0570 C   0  0  0  0  0  2  0  0  0  0  0  0
  -28.3720  -25.2440   19.9470 C   0  0  0  0  0  2  0  0  0  0  0  0
  -28.3790  -26.6690   20.2020 O   0  0  0  0  0  0  0  0  0  0  0  0
  -24.5730  -31.8760   23.2290 C   0  0  0  0  0  0  0  0  0  0  0  0
  -27.2040  -27.4020   20.1570 C   0  0  0  0  0  0  0  0  0  0  0  0
  -23.3730  -30.4830   21.5790 C   0  0  0  0  0  3  0  0  0  0  0  0
  -24.8250  -28.9450   20.1510 C   0  0  0  0  0  0  0  0  0  0  0  0
  -25.9040  -30.8260   21.3990 C   0  0  0  0  0  2  0  0  0  0  0  0
  -25.9840  -29.4560   20.7490 C   0  0  0  0  0  0  0  0  0  0  0  0
  -27.1770  -28.6920   20.7430 C   0  0  0  0  0  3  0  0  0  0  0  0
  -26.0260  -26.9130   19.5510 C   0  0  0  0  0  3  0  0  0  0  0  0
  -24.8430  -27.6760   19.5490 C   0  0  0  0  0  3  0  0  0  0  0  0
  -23.5850  -29.8110   20.1960 C   0  0  0  0  0  2  0  0  0  0  0  0
  -24.6350  -31.0760   22.1270 N   0  0  0  0  0  0  0  0  0  0  0  0
  -23.4890  -32.1530   23.7610 O   0  0  0  0  0  0  0  0  0  0  0  0
  -22.7160  -29.4590   22.5320 C   0  0  0  0  0  0  0  0  0  0  0  0
  -21.3890  -29.2860   22.4020 N   0  0  0  0  0  0  0  0  0  0  0  0
  -23.3930  -28.8270   23.3460 O   0  0  0  0  0  0  0  0  0  0  0  0
  -20.9030  -29.8480   21.7170 H   0  0  0  0  0  0  0  0  0  0  0  0
  -18.0050  -28.1250   22.9040 C   0  0  0  0  0  0  0  0  0  0  0  0
  -20.5660  -28.3480   23.1670 C   0  0  0  0  0  3  0  0  0  0  0  0
  -20.6490  -26.9230   22.5740 C   0  0  0  0  0  2  0  0  0  0  0  0
  -19.5390  -26.6240   21.5620 C   0  0  0  0  0  2  0  0  0  0  0  0
  -18.1620  -26.7810   22.2120 C   0  0  0  0  0  2  0  0  0  0  0  0
  -19.1350  -28.8680   23.3370 C   0  0  0  0  0  0  0  0  0  0  0  0
  -18.9350  -30.1280   23.9430 C   0  0  0  0  0  3  0  0  0  0  0  0
  -17.6380  -30.6440   24.1190 C   0  0  0  0  0  3  0  0  0  0  0  0
  -16.5220  -29.8980   23.7030 C   0  0  0  0  0  3  0  0  0  0  0  0
  -16.7080  -28.6390   23.1020 C   0  0  0  0  0  3  0  0  0  0  0  0
  -25.8570  -32.5030   23.8570 C   0  0  0  0  0  3  0  0  0  0  0  0
  -25.5520  -33.9020   24.1820 N   0  0  0  0  0  0  0  0  0  0  0  0
  -25.8960  -34.9510   23.4240 C   0  0  0  0  0  0  0  0  0  0  0  0
  -26.5770  -34.8430   22.4000 O   0  0  0  0  0  0  0  0  0  0  0  0
  -24.9420  -34.0600   24.9720 H   0  0  0  0  0  0  0  0  0  0  0  0
  -24.1820  -36.7520   23.0460 C   0  0  0  0  0  1  0  0  0  0  0  0
  -25.4100  -36.3420   23.8750 C   0  0  0  0  0  3  0  0  0  0  0  0
  -27.5360  -37.2160   24.7360 C   0  0  0  0  0  1  0  0  0  0  0  0
  -26.4490  -37.3900   23.7750 N   0  0  0  0  0  0  0  0  0  0  0  0
  -26.0450  -38.3120   23.9170 H   0  0  0  0  0  0  0  0  0  0  0  0
  -26.3630  -31.7300   25.1370 C   0  0  1  0  0  0  0  0  0  0  0  0
  -25.2600  -31.4930   26.1950 C   0  0  0  0  0  1  0  0  0  0  0  0
  -26.9470  -30.3530   24.7500 C   0  0  0  0  0  1  0  0  0  0  0  0
  -27.5100  -32.5220   25.8060 C   0  0  0  0  0  1  0  0  0  0  0  0
  1  3  1  0
  1 46  1  0
  2  3  1  0
  3  5  1  0
  4  2  2  0
  6  7  1  0
  7  2  1  0
  8  6  1  0
  8  9  1  0
  8  7  1  0
 10  9  1  0
 11 16  1  0
 12 13  1  0
 12 11  1  0
 14 13  1  0
 14 21  1  0
 14 15  1  0
 16 10  1  0
 16 15  1  0
 17 10  2  0
 18 19  2  0
 19 38  1  0
 20 19  1  0
 20 23  1  0
 21 18  1  0
 21 22  1  0
 22 20  2  0
 23 24  1  0
 24 25  2  0
 26 29  1  0
 26 25  1  0
 27 26  2  0
 28 27  1  0
 28 23  2  0
 29 30  1  0
 30 31  1  0
 31 32  2  0
 33 32  1  0
 33 37  1  0
 34 33  2  0
 35 30  2  0
 35 34  1  0
 36 35  1  0
 38 39  1  0
 39 42  1  0
 39 41  1  0
 40 38  2  0
 43 44  1  0
 43 18  1  0
 45 43  1  0
 47 46  1  0
 48 49  1  0
 48 47  1  0
 50 61  2  0
 51 49  1  0
 51 56  1  0
 52 60  1  0
 52 62  1  0
 53 59  1  0
 53 55  1  0
 54 60  1  0
 55 54  1  0
 56 55  2  0
 57 51  2  0
 58 57  1  0
 58 53  2  0
 59 52  1  0
 60 50  1  0
 62 64  2  0
 63 62  1  0
 65 63  1  0
 66 75  2  0
 66 71  1  0
 67 63  1  0
 67 71  1  0
 68 67  1  0
 69 70  1  0
 69 68  1  0
 70 66  1  0
 71 72  2  0
 72 73  1  0
 74 73  2  0
 75 74  1  0
 76 50  1  0
 76 77  1  0
 76 86  1  0
 77 80  1  0
 78 82  1  0
 78 77  1  0
 79 78  2  0
 82 81  1  0
 84 82  1  0
 84 85  1  0
 84 83  1  0
 86 89  1  1
 86 87  1  0
 88 86  1  0
M  ISO  4   9 100  10 100  48 101  49 101
M  END
>  <TORSDO>  (44) 
F 22

>  <SCORE>  (44) 
-13.292

>  <name>  (44) 
44

>  <ligand_id>  (44) 
44

>  <original_smiles>  (44) 
[H]c1c([H])c([H])c2c(c1[H])C([H])([H])C([H])([H])C([H])([H])C2([H])N([H])C(=O)C1([H])N(C(=O)C([H])(N([H])C(=O)C([H])(N([H])C([H])([H])[H])C([H])([H])[H])C(C([H])([H])[H])(C([H])([H])[H])C([H])([H])[H])C([H])([H])c2c([H])c(OC([H])([H])C([H])([H])C([H])([H])C([H])([H])N([H])C(=O)C3([H])C([H])([H])C3([H])C([H])([H])C(=O)N3C([H])([H])C([H])([H])C([H])([H])C([H])(n4nc(-c5c([H])c([H])c(Oc6c([H])c([H])c(F)c([H])c6F)c([H])c5[H])c(C(=O)N([H])[H])c4N([H])[H])C3([H])[H])c([H])c([H])c2C1([H])[H]

>  <smiles>  (44) 
[H]c1c([H])c([H])c2c(c1[H])C([H])([H])C([H])([H])C([H])([H])C2([H])N([H])C(=O)C1([H])N(C(=O)C([H])(N([H])C(=O)C([H])(N([H])C([H])([H])[H])C([H])([H])[H])C(C([H])([H])[H])(C([H])([H])[H])C([H])([H])[H])C([H])([H])c2c([H])c(OC([H])([H])C([H])([H])C([H])([H])C([H])([H])N([H])C(=O)C3([H])C([H])([H])C3([H])C([H])([H])C(=O)N3C([H])([H])C([H])([H])C([H])([H])C([H])(n4nc(-c5c([H])c([H])c(Oc6c([H])c([H])c(F)c([H])c6F)c([H])c5[H])c(C(=O)N([H])[H])c4N([H])[H])C3([H])[H])c([H])c([H])c2C1([H])[H]

$$$$
45:0:0
     RDKit          3D

 92100  0  0  1  0  0  0  0  0999 V2000
  -29.6910  -20.4630   20.2030 C   0  0  0  0  0  3  0  0  0  0  0  0
  -30.2830  -19.5870   15.8220 C   0  0  0  0  0  2  0  0  0  0  0  0
  -31.4050  -20.2710   16.6210 C   0  0  0  0  0  2  0  0  0  0  0  0
  -28.8960  -19.9900   16.3500 C   0  0  0  0  0  2  0  0  0  0  0  0
  -31.2630  -19.9710   18.1220 C   0  0  0  0  0  2  0  0  0  0  0  0
  -28.7630  -19.7350   17.8620 C   0  0  0  0  0  2  0  0  0  0  0  0
  -29.8920  -20.4420   18.6500 C   0  0  0  0  0  3  0  0  0  0  0  0
  -29.3640  -19.0230   20.7770 N   0  0  0  0  0  4  0  0  0  0  0  0
  -29.1220  -19.1660   21.7440 H   0  0  0  0  0  0  0  0  0  0  0  0
  -28.5170  -18.7200   20.3250 H   0  0  0  0  0  0  0  0  0  0  0  0
  -30.3620  -17.7920   20.7830 C   0  0  0  0  0  3  0  0  0  0  0  0
  -29.8700  -16.2340   21.1230 C   0  0  0  0  0  3  0  0  0  0  0  0
  -30.7090  -14.8670   20.7490 C   0  0  0  0  0  0  0  0  0  0  0  0
  -30.6030  -12.5960   19.6400 C   0  0  0  0  0  2  0  0  0  0  0  0
  -29.7120  -12.6910   18.3790 C   0  0  0  0  0  2  0  0  0  0  0  0
  -28.2270  -12.4860   18.7380 C   0  0  0  0  0  2  0  0  0  0  0  0
  -27.7980  -13.3250   19.9690 C   0  0  0  0  0  3  0  0  0  0  0  0
  -28.8100  -13.2130   21.1280 C   0  0  0  0  0  2  0  0  0  0  0  0
  -30.1260  -13.6140   20.6130 N   0  0  0  0  0  0  0  0  0  0  0  0
  -31.9060  -14.9680   20.4520 O   0  0  0  0  0  0  0  0  0  0  0  0
  -25.3730  -13.8910   20.5740 C   0  0  0  0  0  0  0  0  0  0  0  0
  -24.2990  -13.1080   20.8970 C   0  0  0  0  0  0  0  0  0  0  0  0
  -24.7800  -11.7620   20.9080 C   0  0  0  0  0  0  0  0  0  0  0  0
  -26.4370  -13.0220   20.3980 N   0  0  0  0  0  0  0  0  0  0  0  0
  -26.0860  -11.7370   20.6650 N   0  0  0  0  0  0  0  0  0  0  0  0
  -24.0590  -10.4940   21.0750 C   0  0  0  0  0  0  0  0  0  0  0  0
  -24.4350   -9.5530   22.0600 C   0  0  0  0  0  3  0  0  0  0  0  0
  -23.7140   -8.3500   22.2150 C   0  0  0  0  0  3  0  0  0  0  0  0
  -22.6010   -8.0780   21.3820 C   0  0  0  0  0  0  0  0  0  0  0  0
  -22.2440   -9.0070   20.3890 C   0  0  0  0  0  3  0  0  0  0  0  0
  -22.9680  -10.2020   20.2330 C   0  0  0  0  0  3  0  0  0  0  0  0
  -21.8570   -6.9250   21.4430 O   0  0  0  0  0  0  0  0  0  0  0  0
  -21.7220   -6.2150   22.6090 C   0  0  0  0  0  0  0  0  0  0  0  0
  -21.1160   -6.7730   23.7550 C   0  0  0  0  0  3  0  0  0  0  0  0
  -20.9370   -5.9860   24.9100 C   0  0  0  0  0  3  0  0  0  0  0  0
  -21.3520   -4.6420   24.9190 C   0  0  0  0  0  0  0  0  0  0  0  0
  -21.9510   -4.0830   23.7760 C   0  0  0  0  0  3  0  0  0  0  0  0
  -22.1330   -4.8660   22.6230 C   0  0  0  0  0  0  0  0  0  0  0  0
  -22.6910   -4.3170   21.5180 F   0  0  0  0  0  0  0  0  0  0  0  0
  -21.1720   -3.8830   26.0250 F   0  0  0  0  0  0  0  0  0  0  0  0
  -22.8840  -13.5710   21.0870 C   0  0  0  0  0  0  0  0  0  0  0  0
  -22.1210  -12.8800   21.9270 N   0  0  0  0  0  0  0  0  0  0  0  0
  -22.4620  -14.5810   20.5260 O   0  0  0  0  0  0  0  0  0  0  0  0
  -22.4750  -12.0640   22.4030 H   0  0  0  0  0  0  0  0  0  0  0  0
  -21.1690  -13.1730   22.0970 H   0  0  0  0  0  0  0  0  0  0  0  0
  -25.5300  -15.2610   20.3880 N   0  0  0  0  0  0  0  0  0  0  0  0
  -24.7490  -15.9050   20.4500 H   0  0  0  0  0  0  0  0  0  0  0  0
  -26.3870  -15.7030   20.0830 H   0  0  0  0  0  0  0  0  0  0  0  0
  -28.6850  -21.7700   20.5360 C   0  0  0  0  0  2  0  0  0  0  0  0
  -28.9170  -23.3440   19.9970 C   0  0  0  0  0  3  0  0  0  0  0  0
  -27.9360  -24.6370   20.3620 C   0  0  0  0  0  3  0  0  0  0  0  0
  -28.1840  -26.1170   20.0010 O   0  0  0  0  0  0  0  0  0  0  0  0
  -24.5900  -31.6980   23.1520 C   0  0  0  0  0  0  0  0  0  0  0  0
  -27.1160  -27.0720   20.0020 C   0  0  0  0  0  0  0  0  0  0  0  0
  -23.3670  -30.3520   21.4860 C   0  0  0  0  0  3  0  0  0  0  0  0
  -24.7940  -28.8030   20.0200 C   0  0  0  0  0  0  0  0  0  0  0  0
  -25.9200  -30.6120   21.3100 C   0  0  0  0  0  2  0  0  0  0  0  0
  -25.9790  -29.2370   20.6300 C   0  0  0  0  0  0  0  0  0  0  0  0
  -27.1420  -28.3880   20.6030 C   0  0  0  0  0  3  0  0  0  0  0  0
  -25.9100  -26.7320   19.3510 C   0  0  0  0  0  3  0  0  0  0  0  0
  -24.7710  -27.5620   19.3650 C   0  0  0  0  0  3  0  0  0  0  0  0
  -23.5740  -29.7050   20.0910 C   0  0  0  0  0  2  0  0  0  0  0  0
  -24.6460  -30.9060   22.0380 N   0  0  0  0  0  0  0  0  0  0  0  0
  -23.5090  -31.9770   23.6930 O   0  0  0  0  0  0  0  0  0  0  0  0
  -22.6880  -29.3270   22.4270 C   0  0  0  0  0  0  0  0  0  0  0  0
  -21.3600  -29.1570   22.2890 N   0  0  0  0  0  0  0  0  0  0  0  0
  -23.3560  -28.6860   23.2420 O   0  0  0  0  0  0  0  0  0  0  0  0
  -20.8790  -29.7260   21.6070 H   0  0  0  0  0  0  0  0  0  0  0  0
  -17.9740  -27.9660   22.7660 C   0  0  0  0  0  0  0  0  0  0  0  0
  -20.5340  -28.2090   23.0410 C   0  0  0  0  0  3  0  0  0  0  0  0
  -20.6280  -26.7890   22.4370 C   0  0  0  0  0  2  0  0  0  0  0  0
  -19.5250  -26.4930   21.4150 C   0  0  0  0  0  2  0  0  0  0  0  0
  -18.1440  -26.6310   22.0620 C   0  0  0  0  0  2  0  0  0  0  0  0
  -19.0950  -28.7130   23.2120 C   0  0  0  0  0  0  0  0  0  0  0  0
  -18.8820  -29.9640   23.8320 C   0  0  0  0  0  3  0  0  0  0  0  0
  -17.5790  -30.4660   24.0100 C   0  0  0  0  0  3  0  0  0  0  0  0
  -16.4710  -29.7160   23.5800 C   0  0  0  0  0  3  0  0  0  0  0  0
  -16.6700  -28.4670   22.9640 C   0  0  0  0  0  3  0  0  0  0  0  0
  -25.8780  -32.3050   23.7860 C   0  0  0  0  0  3  0  0  0  0  0  0
  -25.5890  -33.7060   24.1290 N   0  0  0  0  0  0  0  0  0  0  0  0
  -25.9560  -34.7640   23.3920 C   0  0  0  0  0  0  0  0  0  0  0  0
  -26.6400  -34.6610   22.3710 O   0  0  0  0  0  0  0  0  0  0  0  0
  -24.9840  -33.8610   24.9220 H   0  0  0  0  0  0  0  0  0  0  0  0
  -24.2880  -36.6120   23.0240 C   0  0  0  0  0  1  0  0  0  0  0  0
  -25.4920  -36.1560   23.8640 C   0  0  0  0  0  3  0  0  0  0  0  0
  -27.6130  -36.9800   24.7900 C   0  0  0  0  0  1  0  0  0  0  0  0
  -26.5550  -37.1840   23.8030 N   0  0  0  0  0  0  0  0  0  0  0  0
  -26.1670  -38.1120   23.9420 H   0  0  0  0  0  0  0  0  0  0  0  0
  -26.3720  -31.5170   25.0620 C   0  0  1  0  0  0  0  0  0  0  0  0
  -25.2680  -31.2910   26.1210 C   0  0  0  0  0  1  0  0  0  0  0  0
  -26.9340  -30.1310   24.6680 C   0  0  0  0  0  1  0  0  0  0  0  0
  -27.5320  -32.2870   25.7370 C   0  0  0  0  0  1  0  0  0  0  0  0
  1 49  1  0
  1  8  1  0
  2  4  1  0
  2  3  1  0
  3  5  1  0
  4  6  1  0
  5  7  1  0
  6  7  1  0
  7  1  1  0
  8 11  1  0
  8  9  1  0
 10  8  1  0
 11 12  2  0
 13 12  1  0
 14 19  1  0
 15 16  1  0
 15 14  1  0
 17 16  1  0
 17 24  1  0
 17 18  1  0
 19 13  1  0
 19 18  1  0
 20 13  2  0
 21 22  2  0
 22 23  1  0
 22 41  1  0
 23 26  1  0
 24 21  1  0
 24 25  1  0
 25 23  2  0
 26 27  1  0
 27 28  2  0
 29 32  1  0
 29 28  1  0
 30 29  2  0
 31 30  1  0
 31 26  2  0
 32 33  1  0
 33 38  2  0
 33 34  1  0
 34 35  2  0
 35 36  1  0
 36 40  1  0
 37 36  2  0
 38 37  1  0
 39 38  1  0
 41 42  1  0
 42 45  1  0
 42 44  1  0
 43 41  2  0
 46 47  1  0
 46 21  1  0
 48 46  1  0
 50 51  2  0
 50 49  1  0
 52 54  1  0
 52 51  1  0
 53 64  2  0
 54 59  1  0
 55 63  1  0
 55 65  1  0
 56 62  1  0
 56 58  1  0
 57 63  1  0
 58 57  1  0
 59 58  2  0
 60 61  1  0
 60 54  2  0
 61 56  2  0
 62 55  1  0
 63 53  1  0
 65 67  2  0
 66 65  1  0
 68 66  1  0
 69 78  2  0
 69 74  1  0
 70 66  1  0
 70 74  1  0
 71 70  1  0
 72 73  1  0
 72 71  1  0
 73 69  1  0
 74 75  2  0
 75 76  1  0
 77 76  2  0
 78 77  1  0
 79 53  1  0
 79 80  1  0
 79 89  1  0
 80 83  1  0
 81 85  1  0
 81 80  1  0
 82 81  2  0
 85 84  1  0
 87 85  1  0
 87 88  1  0
 87 86  1  0
 89 92  1  1
 89 90  1  0
 91 89  1  0
M  ISO  4  12 100  13 100  51 101  52 101
M  END
>  <TORSDO>  (45) 
F 23

>  <SCORE>  (45) 
-12.719

>  <name>  (45) 
45

>  <ligand_id>  (45) 
45

>  <original_smiles>  (45) 
[H]c1c([H])c([H])c2c(c1[H])C([H])([H])C([H])([H])C([H])([H])C2([H])N([H])C(=O)C1([H])N(C(=O)C([H])(N([H])C(=O)C([H])(N([H])C([H])([H])[H])C([H])([H])[H])C(C([H])([H])[H])(C([H])([H])[H])C([H])([H])[H])C([H])([H])c2c([H])c(OC([H])([H])C([H])([H])C([H])([H])C([H])(C3([H])C([H])([H])C([H])([H])C([H])([H])C([H])([H])C3([H])[H])[N+]([H])([H])C([H])([H])C([H])([H])C(=O)N3C([H])([H])C([H])([H])C([H])([H])C([H])(n4nc(-c5c([H])c([H])c(Oc6c([H])c([H])c(F)c([H])c6F)c([H])c5[H])c(C(=O)N([H])[H])c4N([H])[H])C3([H])[H])c([H])c([H])c2C1([H])[H]

>  <smiles>  (45) 
[H]c1c([H])c([H])c2c(c1[H])C([H])([H])C([H])([H])C([H])([H])C2([H])N([H])C(=O)C1([H])N(C(=O)C([H])(N([H])C(=O)C([H])(N([H])C([H])([H])[H])C([H])([H])[H])C(C([H])([H])[H])(C([H])([H])[H])C([H])([H])[H])C([H])([H])c2c([H])c(OC([H])([H])C([H])([H])C([H])([H])C([H])(C3([H])C([H])([H])C([H])([H])C([H])([H])C([H])([H])C3([H])[H])[N+]([H])([H])C([H])([H])C([H])([H])C(=O)N3C([H])([H])C([H])([H])C([H])([H])C([H])(n4nc(-c5c([H])c([H])c(Oc6c([H])c([H])c(F)c([H])c6F)c([H])c5[H])c(C(=O)N([H])[H])c4N([H])[H])C3([H])[H])c([H])c([H])c2C1([H])[H]

$$$$
46:0:0
     RDKit          3D

 91 99  0  0  1  0  0  0  0  0999 V2000
  -29.3990  -19.4010   20.8040 C   0  0  0  0  0  0  0  0  0  0  0  0
  -29.2780  -20.5950   20.1940 N   0  0  0  0  0  0  0  0  0  0  0  0
  -28.8390  -19.1720   21.8780 O   0  0  0  0  0  0  0  0  0  0  0  0
  -29.7480  -20.6940   19.3030 H   0  0  0  0  0  0  0  0  0  0  0  0
  -29.7780  -17.9190   17.8090 C   0  0  0  0  0  2  0  0  0  0  0  0
  -30.7720  -18.6250   18.7240 C   0  0  0  0  0  2  0  0  0  0  0  0
  -29.5530  -16.5850   18.5120 C   0  0  0  0  0  2  0  0  0  0  0  0
  -30.2940  -18.3020   20.1570 C   0  0  0  0  0  3  0  0  0  0  0  0
  -29.5890  -16.9060   20.0310 C   0  0  0  0  0  3  0  0  0  0  0  0
  -30.0910  -15.7820   21.0120 C   0  0  0  0  0  2  0  0  0  0  0  0
  -30.7910  -14.5430   20.3880 C   0  0  0  0  0  0  0  0  0  0  0  0
  -30.5090  -12.3970   19.2040 C   0  0  0  0  0  2  0  0  0  0  0  0
  -29.5590  -12.6240   18.0080 C   0  0  0  0  0  2  0  0  0  0  0  0
  -28.0820  -12.4950   18.4340 C   0  0  0  0  0  2  0  0  0  0  0  0
  -27.7560  -13.3000   19.7230 C   0  0  0  0  0  3  0  0  0  0  0  0
  -28.8150  -13.0280   20.8120 C   0  0  0  0  0  2  0  0  0  0  0  0
  -30.1350  -13.3570   20.2550 N   0  0  0  0  0  0  0  0  0  0  0  0
  -31.9210  -14.7180   19.9180 O   0  0  0  0  0  0  0  0  0  0  0  0
  -25.3570  -13.9100   20.4230 C   0  0  0  0  0  0  0  0  0  0  0  0
  -24.2890  -13.1390   20.7960 C   0  0  0  0  0  0  0  0  0  0  0  0
  -24.7510  -11.7870   20.7750 C   0  0  0  0  0  0  0  0  0  0  0  0
  -26.4030  -13.0280   20.1990 N   0  0  0  0  0  0  0  0  0  0  0  0
  -26.0410  -11.7470   20.4670 N   0  0  0  0  0  0  0  0  0  0  0  0
  -24.0280  -10.5260   20.9760 C   0  0  0  0  0  0  0  0  0  0  0  0
  -24.4580   -9.5710   21.9230 C   0  0  0  0  0  3  0  0  0  0  0  0
  -23.7360   -8.3740   22.1110 C   0  0  0  0  0  3  0  0  0  0  0  0
  -22.5670   -8.1230   21.3530 C   0  0  0  0  0  0  0  0  0  0  0  0
  -22.1550   -9.0680   20.3970 C   0  0  0  0  0  3  0  0  0  0  0  0
  -22.8790  -10.2580   20.2060 C   0  0  0  0  0  3  0  0  0  0  0  0
  -21.8150   -6.9780   21.4480 O   0  0  0  0  0  0  0  0  0  0  0  0
  -21.7600   -6.2500   22.6100 C   0  0  0  0  0  0  0  0  0  0  0  0
  -21.3160   -6.8150   23.8250 C   0  0  0  0  0  3  0  0  0  0  0  0
  -21.2070   -6.0130   24.9780 C   0  0  0  0  0  3  0  0  0  0  0  0
  -21.5310   -4.6440   24.9180 C   0  0  0  0  0  0  0  0  0  0  0  0
  -21.9680   -4.0780   23.7060 C   0  0  0  0  0  3  0  0  0  0  0  0
  -22.0790   -4.8770   22.5560 C   0  0  0  0  0  0  0  0  0  0  0  0
  -22.4800   -4.3210   21.3870 F   0  0  0  0  0  0  0  0  0  0  0  0
  -21.4210   -3.8710   26.0230 F   0  0  0  0  0  0  0  0  0  0  0  0
  -22.8920  -13.6180   21.0650 C   0  0  0  0  0  0  0  0  0  0  0  0
  -22.1650  -12.9280   21.9380 N   0  0  0  0  0  0  0  0  0  0  0  0
  -22.4520  -14.6390   20.5380 O   0  0  0  0  0  0  0  0  0  0  0  0
  -22.5370  -12.1040   22.3880 H   0  0  0  0  0  0  0  0  0  0  0  0
  -21.2270  -13.2310   22.1580 H   0  0  0  0  0  0  0  0  0  0  0  0
  -25.5220  -15.2800   20.2370 N   0  0  0  0  0  0  0  0  0  0  0  0
  -24.7600  -15.9380   20.3520 H   0  0  0  0  0  0  0  0  0  0  0  0
  -26.3830  -15.7190   19.9370 H   0  0  0  0  0  0  0  0  0  0  0  0
  -28.5930  -21.7790   20.7240 C   0  0  0  0  0  2  0  0  0  0  0  0
  -28.8520  -23.0230   19.8400 C   0  0  0  0  0  2  0  0  0  0  0  0
  -28.3540  -24.3630   20.4370 C   0  0  0  0  0  2  0  0  0  0  0  0
  -28.6860  -25.5790   19.5390 C   0  0  0  0  0  2  0  0  0  0  0  0
  -28.5080  -26.8370   20.2000 O   0  0  0  0  0  0  0  0  0  0  0  0
  -24.5810  -31.9150   23.2460 C   0  0  0  0  0  0  0  0  0  0  0  0
  -27.2950  -27.5000   20.1760 C   0  0  0  0  0  0  0  0  0  0  0  0
  -23.4010  -30.5100   21.5860 C   0  0  0  0  0  3  0  0  0  0  0  0
  -24.8790  -28.9820   20.1760 C   0  0  0  0  0  0  0  0  0  0  0  0
  -25.9250  -30.8860   21.4160 C   0  0  0  0  0  2  0  0  0  0  0  0
  -26.0250  -29.5150   20.7760 C   0  0  0  0  0  0  0  0  0  0  0  0
  -27.2310  -28.7800   20.7750 C   0  0  0  0  0  3  0  0  0  0  0  0
  -26.1240  -26.9730   19.5840 C   0  0  0  0  0  3  0  0  0  0  0  0
  -24.9230  -27.7080   19.5810 C   0  0  0  0  0  3  0  0  0  0  0  0
  -23.6290  -29.8310   20.2080 C   0  0  0  0  0  2  0  0  0  0  0  0
  -24.6530  -31.1190   22.1420 N   0  0  0  0  0  0  0  0  0  0  0  0
  -23.4920  -32.1780   23.7760 O   0  0  0  0  0  0  0  0  0  0  0  0
  -22.7460  -29.4840   22.5370 C   0  0  0  0  0  0  0  0  0  0  0  0
  -21.4240  -29.2940   22.3950 N   0  0  0  0  0  0  0  0  0  0  0  0
  -23.4250  -28.8600   23.3580 O   0  0  0  0  0  0  0  0  0  0  0  0
  -20.9380  -29.8510   21.7060 H   0  0  0  0  0  0  0  0  0  0  0  0
  -18.0500  -28.0870   22.8550 C   0  0  0  0  0  0  0  0  0  0  0  0
  -20.6040  -28.3480   23.1520 C   0  0  0  0  0  3  0  0  0  0  0  0
  -20.7150  -26.9210   22.5660 C   0  0  0  0  0  2  0  0  0  0  0  0
  -19.6220  -26.6030   21.5410 C   0  0  0  0  0  2  0  0  0  0  0  0
  -18.2350  -26.7430   22.1730 C   0  0  0  0  0  2  0  0  0  0  0  0
  -19.1620  -28.8480   23.3000 C   0  0  0  0  0  0  0  0  0  0  0  0
  -18.9380  -30.1080   23.8960 C   0  0  0  0  0  3  0  0  0  0  0  0
  -17.6300  -30.6070   24.0530 C   0  0  0  0  0  3  0  0  0  0  0  0
  -16.5310  -29.8420   23.6250 C   0  0  0  0  0  3  0  0  0  0  0  0
  -16.7410  -28.5840   23.0320 C   0  0  0  0  0  3  0  0  0  0  0  0
  -25.8580  -32.5510   23.8820 C   0  0  0  0  0  3  0  0  0  0  0  0
  -25.5450  -33.9520   24.1920 N   0  0  0  0  0  0  0  0  0  0  0  0
  -25.8960  -34.9960   23.4290 C   0  0  0  0  0  0  0  0  0  0  0  0
  -26.5890  -34.8800   22.4140 O   0  0  0  0  0  0  0  0  0  0  0  0
  -24.9330  -34.1160   24.9780 H   0  0  0  0  0  0  0  0  0  0  0  0
  -24.1850  -36.7910   23.0130 C   0  0  0  0  0  1  0  0  0  0  0  0
  -25.4020  -36.3900   23.8610 C   0  0  0  0  0  3  0  0  0  0  0  0
  -27.5140  -37.2760   24.7440 C   0  0  0  0  0  1  0  0  0  0  0  0
  -26.4410  -37.4380   23.7680 N   0  0  0  0  0  0  0  0  0  0  0  0
  -26.0330  -38.3610   23.8950 H   0  0  0  0  0  0  0  0  0  0  0  0
  -26.3540  -31.7920   25.1740 C   0  0  1  0  0  0  0  0  0  0  0  0
  -25.2440  -31.5640   26.2270 C   0  0  0  0  0  1  0  0  0  0  0  0
  -26.9430  -30.4120   24.8010 C   0  0  0  0  0  1  0  0  0  0  0  0
  -27.4930  -32.5920   25.8470 C   0  0  0  0  0  1  0  0  0  0  0  0
  1  3  2  0
  2 47  1  0
  2  1  1  0
  4  2  1  0
  5  7  1  0
  5  6  1  0
  6  8  1  0
  7  9  1  0
  8  1  1  0
  9  8  1  0
  9 10  1  0
 11 10  1  0
 12 17  1  0
 13 14  1  0
 13 12  1  0
 15 14  1  0
 15 22  1  0
 15 16  1  0
 17 11  1  0
 17 16  1  0
 18 11  2  0
 19 20  2  0
 20 39  1  0
 21 20  1  0
 21 24  1  0
 22 19  1  0
 22 23  1  0
 23 21  2  0
 24 25  1  0
 25 26  2  0
 27 30  1  0
 27 26  1  0
 28 27  2  0
 29 28  1  0
 29 24  2  0
 30 31  1  0
 31 32  1  0
 32 33  2  0
 34 33  1  0
 34 38  1  0
 35 34  2  0
 36 31  2  0
 36 35  1  0
 37 36  1  0
 39 40  1  0
 40 43  1  0
 40 42  1  0
 41 39  2  0
 44 45  1  0
 44 19  1  0
 46 44  1  0
 48 49  1  0
 48 47  1  0
 50 51  1  0
 50 49  1  0
 52 63  2  0
 53 51  1  0
 53 58  1  0
 54 62  1  0
 54 64  1  0
 55 61  1  0
 55 57  1  0
 56 62  1  0
 57 56  1  0
 58 57  2  0
 59 53  2  0
 60 59  1  0
 60 55  2  0
 61 54  1  0
 62 52  1  0
 64 66  2  0
 65 64  1  0
 67 65  1  0
 68 77  2  0
 68 73  1  0
 69 65  1  0
 69 73  1  0
 70 69  1  0
 71 72  1  0
 71 70  1  0
 72 68  1  0
 73 74  2  0
 74 75  1  0
 76 75  2  0
 77 76  1  0
 78 52  1  0
 78 79  1  0
 78 88  1  0
 79 82  1  0
 80 84  1  0
 80 79  1  0
 81 80  2  0
 84 83  1  0
 86 84  1  0
 86 87  1  0
 86 85  1  0
 88 91  1  1
 88 89  1  0
 90 88  1  0
M  ISO  4  10 100  11 100  50 101  51 101
M  END
>  <TORSDO>  (46) 
F 22

>  <SCORE>  (46) 
-11.774

>  <name>  (46) 
46

>  <ligand_id>  (46) 
46

>  <original_smiles>  (46) 
[H]c1c([H])c([H])c2c(c1[H])C([H])([H])C([H])([H])C([H])([H])C2([H])N([H])C(=O)C1([H])N(C(=O)C([H])(N([H])C(=O)C([H])(N([H])C([H])([H])[H])C([H])([H])[H])C(C([H])([H])[H])(C([H])([H])[H])C([H])([H])[H])C([H])([H])c2c([H])c(OC([H])([H])C([H])([H])C([H])([H])C([H])([H])N([H])C(=O)C3([H])C([H])([H])C([H])([H])C([H])([H])C3([H])C([H])([H])C(=O)N3C([H])([H])C([H])([H])C([H])([H])C([H])(n4nc(-c5c([H])c([H])c(Oc6c([H])c([H])c(F)c([H])c6F)c([H])c5[H])c(C(=O)N([H])[H])c4N([H])[H])C3([H])[H])c([H])c([H])c2C1([H])[H]

>  <smiles>  (46) 
[H]c1c([H])c([H])c2c(c1[H])C([H])([H])C([H])([H])C([H])([H])C2([H])N([H])C(=O)C1([H])N(C(=O)C([H])(N([H])C(=O)C([H])(N([H])C([H])([H])[H])C([H])([H])[H])C(C([H])([H])[H])(C([H])([H])[H])C([H])([H])[H])C([H])([H])c2c([H])c(OC([H])([H])C([H])([H])C([H])([H])C([H])([H])N([H])C(=O)C3([H])C([H])([H])C([H])([H])C([H])([H])C3([H])C([H])([H])C(=O)N3C([H])([H])C([H])([H])C([H])([H])C([H])(n4nc(-c5c([H])c([H])c(Oc6c([H])c([H])c(F)c([H])c6F)c([H])c5[H])c(C(=O)N([H])[H])c4N([H])[H])C3([H])[H])c([H])c([H])c2C1([H])[H]

$$$$
47:0:0
     RDKit          3D

 86 95  0  0  1  0  0  0  0  0999 V2000
  -29.4300  -22.2600   20.3190 C   0  0  0  0  0  3  0  0  0  0  0  0
  -29.2270  -23.6680   20.2500 C   0  0  0  0  0  3  0  0  0  0  0  0
  -28.7190  -19.9540   21.4380 C   0  0  0  0  0  2  0  0  0  0  0  0
  -28.6410  -20.8760   20.2510 C   0  0  0  0  0  3  0  0  0  0  0  0
  -28.8840  -19.2090   20.1300 C   0  0  0  0  0  3  0  0  0  0  0  0
  -30.4280  -17.3290   21.4070 C   0  0  0  0  0  2  0  0  0  0  0  0
  -29.7390  -16.3610   20.4660 C   0  0  0  0  0  3  0  0  0  0  0  0
  -29.9930  -17.9770   20.1140 C   0  0  0  0  0  3  0  0  0  0  0  0
  -30.5930  -15.0180   20.1190 C   0  0  0  0  0  0  0  0  0  0  0  0
  -30.4630  -12.6710   19.1670 C   0  0  0  0  0  2  0  0  0  0  0  0
  -29.4920  -12.6610   17.9620 C   0  0  0  0  0  2  0  0  0  0  0  0
  -28.0380  -12.4580   18.4300 C   0  0  0  0  0  2  0  0  0  0  0  0
  -27.6710  -13.3640   19.6340 C   0  0  0  0  0  3  0  0  0  0  0  0
  -28.7590  -13.3360   20.7270 C   0  0  0  0  0  2  0  0  0  0  0  0
  -30.0230  -13.7470   20.0990 N   0  0  0  0  0  0  0  0  0  0  0  0
  -31.7710  -15.0990   19.7480 O   0  0  0  0  0  0  0  0  0  0  0  0
  -25.3160  -13.9400   20.4600 C   0  0  0  0  0  0  0  0  0  0  0  0
  -24.2610  -13.1620   20.8490 C   0  0  0  0  0  0  0  0  0  0  0  0
  -24.7170  -11.8100   20.7770 C   0  0  0  0  0  0  0  0  0  0  0  0
  -26.3470  -13.0630   20.1680 N   0  0  0  0  0  0  0  0  0  0  0  0
  -25.9980  -11.7740   20.4230 N   0  0  0  0  0  0  0  0  0  0  0  0
  -23.9910  -10.5470   20.9660 C   0  0  0  0  0  0  0  0  0  0  0  0
  -24.4190   -9.5830   21.9050 C   0  0  0  0  0  3  0  0  0  0  0  0
  -23.6930   -8.3870   22.0860 C   0  0  0  0  0  3  0  0  0  0  0  0
  -22.5220   -8.1450   21.3270 C   0  0  0  0  0  0  0  0  0  0  0  0
  -22.1130   -9.0980   20.3770 C   0  0  0  0  0  3  0  0  0  0  0  0
  -22.8410  -10.2870   20.1950 C   0  0  0  0  0  3  0  0  0  0  0  0
  -21.7700   -6.9990   21.4140 O   0  0  0  0  0  0  0  0  0  0  0  0
  -21.6750   -6.2870   22.5830 C   0  0  0  0  0  0  0  0  0  0  0  0
  -21.1740   -6.8640   23.7710 C   0  0  0  0  0  3  0  0  0  0  0  0
  -21.0310   -6.0770   24.9300 C   0  0  0  0  0  3  0  0  0  0  0  0
  -21.3760   -4.7120   24.9020 C   0  0  0  0  0  0  0  0  0  0  0  0
  -21.8680   -4.1340   23.7190 C   0  0  0  0  0  3  0  0  0  0  0  0
  -22.0140   -4.9180   22.5620 C   0  0  0  0  0  0  0  0  0  0  0  0
  -22.4700   -4.3510   21.4180 F   0  0  0  0  0  0  0  0  0  0  0  0
  -21.2310   -3.9530   26.0130 F   0  0  0  0  0  0  0  0  0  0  0  0
  -22.8750  -13.6390   21.1720 C   0  0  0  0  0  0  0  0  0  0  0  0
  -22.1720  -12.9340   22.0500 N   0  0  0  0  0  0  0  0  0  0  0  0
  -22.4260  -14.6740   20.6810 O   0  0  0  0  0  0  0  0  0  0  0  0
  -22.5510  -12.0970   22.4690 H   0  0  0  0  0  0  0  0  0  0  0  0
  -21.2430  -13.2350   22.3080 H   0  0  0  0  0  0  0  0  0  0  0  0
  -25.4790  -15.3120   20.3050 N   0  0  0  0  0  0  0  0  0  0  0  0
  -24.7180  -15.9640   20.4620 H   0  0  0  0  0  0  0  0  0  0  0  0
  -26.3190  -15.7580   19.9610 H   0  0  0  0  0  0  0  0  0  0  0  0
  -28.0400  -24.7610   20.0380 C   0  0  0  0  0  2  0  0  0  0  0  0
  -28.2890  -26.2810   20.2270 O   0  0  0  0  0  0  0  0  0  0  0  0
  -24.6230  -31.8790   23.2710 C   0  0  0  0  0  0  0  0  0  0  0  0
  -27.2170  -27.2400   20.1710 C   0  0  0  0  0  0  0  0  0  0  0  0
  -23.4280  -30.5130   21.6030 C   0  0  0  0  0  3  0  0  0  0  0  0
  -24.8820  -28.9650   20.1570 C   0  0  0  0  0  0  0  0  0  0  0  0
  -25.9810  -30.7870   21.4500 C   0  0  0  0  0  2  0  0  0  0  0  0
  -26.0580  -29.4090   20.7760 C   0  0  0  0  0  0  0  0  0  0  0  0
  -27.2260  -28.5630   20.7650 C   0  0  0  0  0  3  0  0  0  0  0  0
  -26.0140  -26.8900   19.5200 C   0  0  0  0  0  3  0  0  0  0  0  0
  -24.8710  -27.7170   19.5150 C   0  0  0  0  0  3  0  0  0  0  0  0
  -23.6520  -29.8580   20.2140 C   0  0  0  0  0  2  0  0  0  0  0  0
  -24.6970  -31.0810   22.1630 N   0  0  0  0  0  0  0  0  0  0  0  0
  -23.5350  -32.1540   23.8000 O   0  0  0  0  0  0  0  0  0  0  0  0
  -22.7490  -29.4890   22.5450 C   0  0  0  0  0  0  0  0  0  0  0  0
  -21.4200  -29.3190   22.4100 N   0  0  0  0  0  0  0  0  0  0  0  0
  -23.4190  -28.8470   23.3580 O   0  0  0  0  0  0  0  0  0  0  0  0
  -20.9370  -29.8880   21.7290 H   0  0  0  0  0  0  0  0  0  0  0  0
  -18.0360  -28.1280   22.8960 C   0  0  0  0  0  0  0  0  0  0  0  0
  -20.5970  -28.3700   23.1630 C   0  0  0  0  0  3  0  0  0  0  0  0
  -20.6900  -26.9500   22.5580 C   0  0  0  0  0  2  0  0  0  0  0  0
  -19.5840  -26.6550   21.5380 C   0  0  0  0  0  2  0  0  0  0  0  0
  -18.2050  -26.7940   22.1880 C   0  0  0  0  0  2  0  0  0  0  0  0
  -19.1600  -28.8750   23.3390 C   0  0  0  0  0  0  0  0  0  0  0  0
  -18.9470  -30.1240   23.9600 C   0  0  0  0  0  3  0  0  0  0  0  0
  -17.6450  -30.6280   24.1430 C   0  0  0  0  0  3  0  0  0  0  0  0
  -16.5360  -29.8760   23.7150 C   0  0  0  0  0  3  0  0  0  0  0  0
  -16.7330  -28.6290   23.0970 C   0  0  0  0  0  3  0  0  0  0  0  0
  -25.9000  -32.5030   23.9130 C   0  0  0  0  0  3  0  0  0  0  0  0
  -26.3850  -31.7330   25.2020 C   0  0  1  0  0  0  0  0  0  0  0  0
  -25.2710  -31.5100   26.2510 C   0  0  0  0  0  1  0  0  0  0  0  0
  -26.9630  -30.3480   24.8310 C   0  0  0  0  0  1  0  0  0  0  0  0
  -27.5310  -32.5190   25.8820 C   0  0  0  0  0  1  0  0  0  0  0  0
  -25.5980  -33.9060   24.2380 N   0  0  0  0  0  0  0  0  0  0  0  0
  -25.9190  -34.9550   23.4690 C   0  0  0  0  0  0  0  0  0  0  0  0
  -26.5690  -34.8430   22.4260 O   0  0  0  0  0  0  0  0  0  0  0  0
  -25.0180  -34.0660   25.0490 H   0  0  0  0  0  0  0  0  0  0  0  0
  -24.1790  -36.7460   23.1590 C   0  0  0  0  0  1  0  0  0  0  0  0
  -25.4480  -36.3490   23.9300 C   0  0  0  0  0  3  0  0  0  0  0  0
  -27.6060  -37.2490   24.6810 C   0  0  0  0  0  1  0  0  0  0  0  0
  -26.4760  -37.4020   23.7680 N   0  0  0  0  0  0  0  0  0  0  0  0
  -26.0720  -38.3230   23.9150 H   0  0  0  0  0  0  0  0  0  0  0  0
  2  1  2  0
  4  1  1  0
  4  3  1  0
  5  4  1  0
  5  3  1  0
  7  9  1  0
  7  6  1  0
  8  5  1  0
  8  7  1  0
  8  6  1  0
 10 15  1  0
 11 12  1  0
 11 10  1  0
 13 12  1  0
 13 20  1  0
 13 14  1  0
 15  9  1  0
 15 14  1  0
 16  9  2  0
 17 18  2  0
 18 37  1  0
 19 18  1  0
 19 22  1  0
 20 21  1  0
 20 17  1  0
 21 19  2  0
 22 23  1  0
 23 24  2  0
 25 28  1  0
 25 24  1  0
 26 25  2  0
 27 26  1  0
 27 22  2  0
 28 29  1  0
 29 30  1  0
 30 31  2  0
 32 31  1  0
 32 36  1  0
 33 32  2  0
 34 29  2  0
 34 33  1  0
 35 34  1  0
 37 38  1  0
 38 41  1  0
 38 40  1  0
 39 37  2  0
 42 17  1  0
 42 43  1  0
 44 42  1  0
 45 46  1  0
 45  2  1  0
 47 58  2  0
 48 46  1  0
 48 53  1  0
 49 57  1  0
 49 59  1  0
 50 56  1  0
 50 52  1  0
 51 57  1  0
 52 51  1  0
 53 52  2  0
 54 48  2  0
 55 54  1  0
 55 50  2  0
 56 49  1  0
 57 47  1  0
 59 61  2  0
 60 59  1  0
 62 60  1  0
 63 72  2  0
 63 68  1  0
 64 60  1  0
 64 68  1  0
 65 64  1  0
 66 67  1  0
 66 65  1  0
 67 63  1  0
 68 69  2  0
 69 70  1  0
 71 70  2  0
 72 71  1  0
 73 47  1  0
 73 78  1  0
 73 74  1  0
 74 77  1  1
 74 75  1  0
 76 74  1  0
 78 81  1  0
 79 83  1  0
 79 78  1  0
 80 79  2  0
 83 82  1  0
 85 86  1  0
 85 83  1  0
 85 84  1  0
M  ISO  4   7 100   9 100  45 101  46 101
M  END
>  <TORSDO>  (47) 
F 19

>  <SCORE>  (47) 
-13.550

>  <name>  (47) 
47

>  <ligand_id>  (47) 
47

>  <original_smiles>  (47) 
[H]C(=C([H])C1([H])C([H])([H])C1([H])C1([H])C([H])([H])C1([H])C(=O)N1C([H])([H])C([H])([H])C([H])([H])C([H])(n2nc(-c3c([H])c([H])c(Oc4c([H])c([H])c(F)c([H])c4F)c([H])c3[H])c(C(=O)N([H])[H])c2N([H])[H])C1([H])[H])C([H])([H])Oc1c([H])c([H])c2c(c1[H])C([H])([H])N(C(=O)C([H])(N([H])C(=O)C([H])(N([H])C([H])([H])[H])C([H])([H])[H])C(C([H])([H])[H])(C([H])([H])[H])C([H])([H])[H])C([H])(C(=O)N([H])C1([H])c3c([H])c([H])c([H])c([H])c3C([H])([H])C([H])([H])C1([H])[H])C2([H])[H]

>  <smiles>  (47) 
[H]C(=C([H])C1([H])C([H])([H])C1([H])C1([H])C([H])([H])C1([H])C(=O)N1C([H])([H])C([H])([H])C([H])([H])C([H])(n2nc(-c3c([H])c([H])c(Oc4c([H])c([H])c(F)c([H])c4F)c([H])c3[H])c(C(=O)N([H])[H])c2N([H])[H])C1([H])[H])C([H])([H])Oc1c([H])c([H])c2c(c1[H])C([H])([H])N(C(=O)C([H])(N([H])C(=O)C([H])(N([H])C([H])([H])[H])C([H])([H])[H])C(C([H])([H])[H])(C([H])([H])[H])C([H])([H])[H])C([H])(C(=O)N([H])C1([H])c3c([H])c([H])c([H])c([H])c3C([H])([H])C([H])([H])C1([H])[H])C2([H])[H]

$$$$
48:0:0
     RDKit          3D

 99108  0  0  1  0  0  0  0  0999 V2000
  -30.8220  -23.9610   23.0690 C   0  0  0  0  0  2  0  0  0  0  0  0
  -31.6720  -22.6920   22.9700 C   0  0  0  0  0  2  0  0  0  0  0  0
  -29.9840  -22.3100   24.5880 C   0  0  0  0  0  2  0  0  0  0  0  0
  -30.2080  -20.5480   22.6690 C   0  0  0  0  0  2  0  0  0  0  0  0
  -31.6900  -20.3590   24.1650 C   0  0  0  0  0  2  0  0  0  0  0  0
  -29.5570  -23.6030   23.8730 C   0  0  0  0  0  3  0  0  0  0  0  0
  -30.6150  -19.4130   23.6180 C   0  0  0  0  0  3  0  0  0  0  0  0
  -30.8900  -21.5560   23.6190 C   0  0  1  0  0  0  0  0  0  0  0  0
  -31.1590  -18.2120   22.9450 N   0  0  0  0  0  4  0  0  0  0  0  0
  -31.8270  -17.7670   23.5540 H   0  0  0  0  0  0  0  0  0  0  0  0
  -31.6530  -18.4950   22.1150 H   0  0  0  0  0  0  0  0  0  0  0  0
  -30.1400  -17.2110   22.5710 C   0  0  0  0  0  2  0  0  0  0  0  0
  -30.7340  -16.1070   21.6800 C   0  0  0  0  0  2  0  0  0  0  0  0
  -29.7610  -14.9310   21.4560 C   0  0  0  0  0  2  0  0  0  0  0  0
  -30.2360  -13.9320   20.3870 C   0  0  0  0  0  0  0  0  0  0  0  0
  -29.9880  -11.7420   19.2660 C   0  0  0  0  0  2  0  0  0  0  0  0
  -28.9900  -11.8090   18.0970 C   0  0  0  0  0  2  0  0  0  0  0  0
  -27.5490  -11.5940   18.5980 C   0  0  0  0  0  2  0  0  0  0  0  0
  -27.2020  -12.4970   19.8110 C   0  0  0  0  0  3  0  0  0  0  0  0
  -28.3020  -12.4080   20.8910 C   0  0  0  0  0  2  0  0  0  0  0  0
  -29.5910  -12.7440   20.2650 N   0  0  0  0  0  0  0  0  0  0  0  0
  -31.1990  -14.2360   19.6760 O   0  0  0  0  0  0  0  0  0  0  0  0
  -24.8300  -13.0160   20.6730 C   0  0  0  0  0  0  0  0  0  0  0  0
  -23.8050  -12.2020   21.0780 C   0  0  0  0  0  0  0  0  0  0  0  0
  -24.3010  -10.8650   20.9760 C   0  0  0  0  0  0  0  0  0  0  0  0
  -25.8840  -12.1730   20.3560 N   0  0  0  0  0  0  0  0  0  0  0  0
  -25.5700  -10.8720   20.5910 N   0  0  0  0  0  0  0  0  0  0  0  0
  -23.6230   -9.5770   21.1680 C   0  0  0  0  0  0  0  0  0  0  0  0
  -24.1210   -8.6060   22.0640 C   0  0  0  0  0  3  0  0  0  0  0  0
  -23.4420   -7.3820   22.2440 C   0  0  0  0  0  3  0  0  0  0  0  0
  -22.2500   -7.1200   21.5280 C   0  0  0  0  0  0  0  0  0  0  0  0
  -21.7700   -8.0800   20.6210 C   0  0  0  0  0  3  0  0  0  0  0  0
  -22.4500   -9.2960   20.4380 C   0  0  0  0  0  3  0  0  0  0  0  0
  -21.5370   -5.9480   21.6200 O   0  0  0  0  0  0  0  0  0  0  0  0
  -21.5410   -5.1920   22.7640 C   0  0  0  0  0  0  0  0  0  0  0  0
  -21.0930   -5.7070   24.0000 C   0  0  0  0  0  3  0  0  0  0  0  0
  -21.0470   -4.8750   25.1350 C   0  0  0  0  0  3  0  0  0  0  0  0
  -21.4400   -3.5260   25.0370 C   0  0  0  0  0  0  0  0  0  0  0  0
  -21.8810   -3.0090   23.8050 C   0  0  0  0  0  3  0  0  0  0  0  0
  -21.9280   -3.8400   22.6720 C   0  0  0  0  0  0  0  0  0  0  0  0
  -22.3340   -3.3310   21.4840 F   0  0  0  0  0  0  0  0  0  0  0  0
  -21.3880   -2.7240   26.1250 F   0  0  0  0  0  0  0  0  0  0  0  0
  -22.4150  -12.6280   21.4500 C   0  0  0  0  0  0  0  0  0  0  0  0
  -21.7530  -11.8740   22.3210 N   0  0  0  0  0  0  0  0  0  0  0  0
  -21.9230  -13.6650   21.0040 O   0  0  0  0  0  0  0  0  0  0  0  0
  -22.1640  -11.0350   22.7030 H   0  0  0  0  0  0  0  0  0  0  0  0
  -20.8240  -12.1420   22.6130 H   0  0  0  0  0  0  0  0  0  0  0  0
  -24.9470  -14.3950   20.5310 N   0  0  0  0  0  0  0  0  0  0  0  0
  -24.1760  -15.0290   20.7070 H   0  0  0  0  0  0  0  0  0  0  0  0
  -25.7720  -14.8640   20.1770 H   0  0  0  0  0  0  0  0  0  0  0  0
  -28.1890  -24.1880   25.9770 C   0  0  0  0  0  1  0  0  0  0  0  0
  -29.0230  -24.7390   24.8030 C   0  0  0  0  0  3  0  0  0  0  0  0
  -28.1970  -25.7370   24.0720 N   0  0  0  0  0  4  0  0  0  0  0  0
  -27.3450  -25.3060   23.7500 H   0  0  0  0  0  0  0  0  0  0  0  0
  -27.9290  -26.4370   24.7450 H   0  0  0  0  0  0  0  0  0  0  0  0
  -28.8330  -26.4660   22.9500 C   0  0  0  0  0  2  0  0  0  0  0  0
  -28.1300  -26.1690   21.6110 C   0  0  0  0  0  2  0  0  0  0  0  0
  -28.8390  -26.7780   20.3820 C   0  0  0  0  0  2  0  0  0  0  0  0
  -27.9470  -26.8680   19.2640 O   0  0  0  0  0  0  0  0  0  0  0  0
  -24.4240  -31.7260   23.0930 C   0  0  0  0  0  0  0  0  0  0  0  0
  -26.8120  -27.6320   19.4310 C   0  0  0  0  0  0  0  0  0  0  0  0
  -23.0820  -30.4860   21.4200 C   0  0  0  0  0  3  0  0  0  0  0  0
  -24.4130  -29.0890   19.7510 C   0  0  0  0  0  0  0  0  0  0  0  0
  -25.5770  -30.8790   21.0600 C   0  0  0  0  0  2  0  0  0  0  0  0
  -25.6060  -29.5720   20.2990 C   0  0  0  0  0  0  0  0  0  0  0  0
  -26.8030  -28.8530   20.1430 C   0  0  0  0  0  3  0  0  0  0  0  0
  -25.6080  -27.1610   18.8690 C   0  0  0  0  0  3  0  0  0  0  0  0
  -24.4060  -27.8770   19.0340 C   0  0  0  0  0  3  0  0  0  0  0  0
  -23.1780  -29.9320   19.9710 C   0  0  0  0  0  2  0  0  0  0  0  0
  -24.3840  -31.0380   21.9180 N   0  0  0  0  0  0  0  0  0  0  0  0
  -23.3910  -31.9430   23.7410 O   0  0  0  0  0  0  0  0  0  0  0  0
  -22.4990  -29.3810   22.3290 C   0  0  0  0  0  0  0  0  0  0  0  0
  -21.1740  -29.1830   22.2500 N   0  0  0  0  0  0  0  0  0  0  0  0
  -23.2330  -28.7080   23.0570 O   0  0  0  0  0  0  0  0  0  0  0  0
  -20.6440  -29.7830   21.6320 H   0  0  0  0  0  0  0  0  0  0  0  0
  -17.8560  -27.8450   22.7390 C   0  0  0  0  0  0  0  0  0  0  0  0
  -20.4080  -28.1720   22.9770 C   0  0  0  0  0  3  0  0  0  0  0  0
  -20.5470  -26.7830   22.3130 C   0  0  0  0  0  2  0  0  0  0  0  0
  -19.4350  -26.4840   21.3030 C   0  0  0  0  0  2  0  0  0  0  0  0
  -18.0630  -26.5440   21.9820 C   0  0  0  0  0  2  0  0  0  0  0  0
  -18.9570  -28.6170   23.1940 C   0  0  0  0  0  0  0  0  0  0  0  0
  -18.7110  -29.8360   23.8620 C   0  0  0  0  0  3  0  0  0  0  0  0
  -17.3950  -30.2830   24.0790 C   0  0  0  0  0  3  0  0  0  0  0  0
  -16.3080  -29.5060   23.6440 C   0  0  0  0  0  3  0  0  0  0  0  0
  -16.5390  -28.2880   22.9810 C   0  0  0  0  0  3  0  0  0  0  0  0
  -25.7620  -32.2900   23.6700 C   0  0  0  0  0  3  0  0  0  0  0  0
  -26.3300  -31.4370   24.8700 C   0  0  1  0  0  0  0  0  0  0  0  0
  -25.3000  -31.1810   25.9950 C   0  0  0  0  0  1  0  0  0  0  0  0
  -26.8380  -30.0640   24.3690 C   0  0  0  0  0  1  0  0  0  0  0  0
  -27.5440  -32.1610   25.4960 C   0  0  0  0  0  1  0  0  0  0  0  0
  -25.5140  -33.6760   24.0850 N   0  0  0  0  0  0  0  0  0  0  0  0
  -25.8470  -34.7540   23.3640 C   0  0  0  0  0  0  0  0  0  0  0  0
  -26.4660  -34.6840   22.2980 O   0  0  0  0  0  0  0  0  0  0  0  0
  -24.9600  -33.8050   24.9190 H   0  0  0  0  0  0  0  0  0  0  0  0
  -24.1600  -36.6090   23.1790 C   0  0  0  0  0  1  0  0  0  0  0  0
  -25.4260  -36.1310   23.9090 C   0  0  0  0  0  3  0  0  0  0  0  0
  -27.6240  -36.9130   24.6760 C   0  0  0  0  0  1  0  0  0  0  0  0
  -26.4850  -37.1590   23.7960 N   0  0  0  0  0  0  0  0  0  0  0  0
  -26.1140  -38.0830   24.0070 H   0  0  0  0  0  0  0  0  0  0  0  0
  1  6  1  0
  2  1  1  0
  8  2  1  6
  4  7  1  0
  6  3  1  0
  6 52  1  0
  7  9  1  0
  7  5  1  0
  8  4  1  0
  8  5  1  0
  8  3  1  0
  9 10  1  0
 11  9  1  0
 12  9  1  0
 13 12  1  0
 14 13  1  0
 15 14  1  0
 16 21  1  0
 17 18  1  0
 17 16  1  0
 19 18  1  0
 19 26  1  0
 19 20  1  0
 21 15  1  0
 21 20  1  0
 22 15  2  0
 23 24  2  0
 24 43  1  0
 25 24  1  0
 25 28  1  0
 26 27  1  0
 26 23  1  0
 27 25  2  0
 28 29  1  0
 29 30  2  0
 31 34  1  0
 31 30  1  0
 32 31  2  0
 33 32  1  0
 33 28  2  0
 34 35  1  0
 35 36  1  0
 36 37  2  0
 38 37  1  0
 38 42  1  0
 39 38  2  0
 40 35  2  0
 40 39  1  0
 41 40  1  0
 43 44  1  0
 44 47  1  0
 44 46  1  0
 45 43  2  0
 48 23  1  0
 48 49  1  0
 50 48  1  0
 52 51  1  0
 53 55  1  0
 53 52  1  0
 54 53  1  0
 56 53  1  0
 57 56  1  0
 58 57  1  0
 59 61  1  0
 59 58  1  0
 60 71  2  0
 61 66  1  0
 62 70  1  0
 62 72  1  0
 63 69  1  0
 63 65  1  0
 64 70  1  0
 65 64  1  0
 66 65  2  0
 67 68  1  0
 67 61  2  0
 68 63  2  0
 69 62  1  0
 70 60  1  0
 72 74  2  0
 73 72  1  0
 75 73  1  0
 76 85  2  0
 76 81  1  0
 77 73  1  0
 77 81  1  0
 78 77  1  0
 79 80  1  0
 79 78  1  0
 80 76  1  0
 81 82  2  0
 82 83  1  0
 84 83  2  0
 85 84  1  0
 86 60  1  0
 86 91  1  0
 86 87  1  0
 87 90  1  1
 87 88  1  0
 89 87  1  0
 91 94  1  0
 92 96  1  0
 92 91  1  0
 93 92  2  0
 96 95  1  0
 98 96  1  0
 98 99  1  0
 98 97  1  0
M  ISO  4  14 100  15 100  58 101  59 101
M  END
>  <TORSDO>  (48) 
F 25

>  <SCORE>  (48) 
-3.602

>  <name>  (48) 
48

>  <ligand_id>  (48) 
48

>  <original_smiles>  (48) 
[H]c1c([H])c([H])c2c(c1[H])C([H])([H])C([H])([H])C([H])([H])C2([H])N([H])C(=O)C1([H])N(C(=O)C([H])(N([H])C(=O)C([H])(N([H])C([H])([H])[H])C([H])([H])[H])C(C([H])([H])[H])(C([H])([H])[H])C([H])([H])[H])C([H])([H])c2c([H])c(OC([H])([H])C([H])([H])C([H])([H])[N+]([H])([H])C([H])(C([H])([H])[H])C3([H])C([H])([H])C([H])([H])C4(C3([H])[H])C([H])([H])C([H])([N+]([H])([H])C([H])([H])C([H])([H])C([H])([H])C(=O)N3C([H])([H])C([H])([H])C([H])([H])C([H])(n5nc(-c6c([H])c([H])c(Oc7c([H])c([H])c(F)c([H])c7F)c([H])c6[H])c(C(=O)N([H])[H])c5N([H])[H])C3([H])[H])C4([H])[H])c([H])c([H])c2C1([H])[H]

>  <smiles>  (48) 
[H]c1c([H])c([H])c2c(c1[H])C([H])([H])C([H])([H])C([H])([H])C2([H])N([H])C(=O)C1([H])N(C(=O)C([H])(N([H])C(=O)C([H])(N([H])C([H])([H])[H])C([H])([H])[H])C(C([H])([H])[H])(C([H])([H])[H])C([H])([H])[H])C([H])([H])c2c([H])c(OC([H])([H])C([H])([H])C([H])([H])[N+]([H])([H])C([H])(C([H])([H])[H])C3([H])C([H])([H])C([H])([H])C4(C3([H])[H])C([H])([H])C([H])([N+]([H])([H])C([H])([H])C([H])([H])C([H])([H])C(=O)N3C([H])([H])C([H])([H])C([H])([H])C([H])(n5nc(-c6c([H])c([H])c(Oc7c([H])c([H])c(F)c([H])c7F)c([H])c6[H])c(C(=O)N([H])[H])c5N([H])[H])C3([H])[H])C4([H])[H])c([H])c([H])c2C1([H])[H]

$$$$
49:0:0
     RDKit          3D

 92101  0  0  1  0  0  0  0  0999 V2000
  -29.3200  -20.8300   20.7760 C   0  0  0  0  0  0  0  0  0  0  0  0
  -29.1000  -21.9080   19.9930 N   0  0  0  0  0  0  0  0  0  0  0  0
  -29.3110  -20.9020   22.0060 O   0  0  0  0  0  0  0  0  0  0  0  0
  -29.1070  -21.7280   18.9970 H   0  0  0  0  0  0  0  0  0  0  0  0
  -32.2230  -20.3770   19.7350 C   0  0  0  0  0  2  0  0  0  0  0  0
  -32.4580  -19.5390   20.9930 C   0  0  0  0  0  2  0  0  0  0  0  0
  -29.6420  -19.4870   20.0530 C   0  0  0  0  0  3  0  0  0  0  0  0
  -31.0310  -19.4720   19.3710 C   0  0  0  0  0  3  0  0  0  0  0  0
  -31.5280  -18.4640   20.4150 C   0  0  0  0  0  3  0  0  0  0  0  0
  -30.0840  -18.2350   20.8910 C   0  0  0  0  0  3  0  0  0  0  0  0
  -29.4910  -16.8360   20.5900 C   0  0  0  0  0  2  0  0  0  0  0  0
  -30.1520  -15.6560   21.3730 C   0  0  0  0  0  2  0  0  0  0  0  0
  -30.6850  -14.4940   20.4930 C   0  0  0  0  0  0  0  0  0  0  0  0
  -30.3460  -12.3710   19.2650 C   0  0  0  0  0  2  0  0  0  0  0  0
  -29.4040  -12.6100   18.0670 C   0  0  0  0  0  2  0  0  0  0  0  0
  -27.9290  -12.4810   18.4970 C   0  0  0  0  0  2  0  0  0  0  0  0
  -27.6100  -13.2950   19.7790 C   0  0  0  0  0  3  0  0  0  0  0  0
  -28.6630  -13.0270   20.8760 C   0  0  0  0  0  2  0  0  0  0  0  0
  -29.9900  -13.3330   20.3220 N   0  0  0  0  0  0  0  0  0  0  0  0
  -31.7630  -14.6860   19.9220 O   0  0  0  0  0  0  0  0  0  0  0  0
  -25.2150  -13.9200   20.4860 C   0  0  0  0  0  0  0  0  0  0  0  0
  -24.1420  -13.1570   20.8580 C   0  0  0  0  0  0  0  0  0  0  0  0
  -24.5920  -11.8020   20.8300 C   0  0  0  0  0  0  0  0  0  0  0  0
  -26.2540  -13.0310   20.2570 N   0  0  0  0  0  0  0  0  0  0  0  0
  -25.8810  -11.7510   20.5200 N   0  0  0  0  0  0  0  0  0  0  0  0
  -23.8550  -10.5460   21.0250 C   0  0  0  0  0  0  0  0  0  0  0  0
  -24.2870   -9.5720   21.9520 C   0  0  0  0  0  3  0  0  0  0  0  0
  -23.5520   -8.3810   22.1340 C   0  0  0  0  0  3  0  0  0  0  0  0
  -22.3700   -8.1550   21.3880 C   0  0  0  0  0  0  0  0  0  0  0  0
  -21.9580   -9.1180   20.4500 C   0  0  0  0  0  3  0  0  0  0  0  0
  -22.6930  -10.3010   20.2670 C   0  0  0  0  0  3  0  0  0  0  0  0
  -21.6050   -7.0170   21.4800 O   0  0  0  0  0  0  0  0  0  0  0  0
  -21.5640   -6.2690   22.6290 C   0  0  0  0  0  0  0  0  0  0  0  0
  -21.1700   -6.8240   23.8660 C   0  0  0  0  0  3  0  0  0  0  0  0
  -21.0740   -6.0020   25.0070 C   0  0  0  0  0  3  0  0  0  0  0  0
  -21.3610   -4.6280   24.9120 C   0  0  0  0  0  0  0  0  0  0  0  0
  -21.7480   -4.0720   23.6800 C   0  0  0  0  0  3  0  0  0  0  0  0
  -21.8470   -4.8910   22.5410 C   0  0  0  0  0  0  0  0  0  0  0  0
  -22.1980   -4.3470   21.3520 F   0  0  0  0  0  0  0  0  0  0  0  0
  -21.2620   -3.8360   26.0060 F   0  0  0  0  0  0  0  0  0  0  0  0
  -22.7480  -13.6470   21.1330 C   0  0  0  0  0  0  0  0  0  0  0  0
  -22.0160  -12.9580   22.0020 N   0  0  0  0  0  0  0  0  0  0  0  0
  -22.3170  -14.6740   20.6110 O   0  0  0  0  0  0  0  0  0  0  0  0
  -22.3800  -12.1280   22.4470 H   0  0  0  0  0  0  0  0  0  0  0  0
  -21.0820  -13.2670   22.2280 H   0  0  0  0  0  0  0  0  0  0  0  0
  -25.3910  -15.2890   20.3060 N   0  0  0  0  0  0  0  0  0  0  0  0
  -24.6310  -15.9520   20.4150 H   0  0  0  0  0  0  0  0  0  0  0  0
  -26.2510  -15.7200   19.9870 H   0  0  0  0  0  0  0  0  0  0  0  0
  -29.1050  -23.3310   20.3970 C   0  0  0  0  0  2  0  0  0  0  0  0
  -28.1530  -24.2150   19.5370 C   0  0  0  0  0  2  0  0  0  0  0  0
  -28.6330  -25.6620   19.1940 C   0  0  0  0  0  2  0  0  0  0  0  0
  -28.4110  -26.7090   20.1610 O   0  0  0  0  0  0  0  0  0  0  0  0
  -24.5960  -31.8980   23.2310 C   0  0  0  0  0  0  0  0  0  0  0  0
  -27.2340  -27.4390   20.1310 C   0  0  0  0  0  0  0  0  0  0  0  0
  -23.3880  -30.5000   21.5860 C   0  0  0  0  0  3  0  0  0  0  0  0
  -24.8390  -28.9650   20.1550 C   0  0  0  0  0  0  0  0  0  0  0  0
  -25.9160  -30.8490   21.3930 C   0  0  0  0  0  2  0  0  0  0  0  0
  -25.9980  -29.4770   20.7490 C   0  0  0  0  0  0  0  0  0  0  0  0
  -27.1930  -28.7180   20.7410 C   0  0  0  0  0  3  0  0  0  0  0  0
  -26.0500  -26.9460   19.5350 C   0  0  0  0  0  3  0  0  0  0  0  0
  -24.8600  -27.6970   19.5490 C   0  0  0  0  0  3  0  0  0  0  0  0
  -23.5960  -29.8250   20.2060 C   0  0  0  0  0  2  0  0  0  0  0  0
  -24.6520  -31.0980   22.1280 N   0  0  0  0  0  0  0  0  0  0  0  0
  -23.5150  -32.1710   23.7720 O   0  0  0  0  0  0  0  0  0  0  0  0
  -22.7380  -29.4760   22.5450 C   0  0  0  0  0  0  0  0  0  0  0  0
  -21.4150  -29.2850   22.4100 N   0  0  0  0  0  0  0  0  0  0  0  0
  -23.4200  -28.8570   23.3660 O   0  0  0  0  0  0  0  0  0  0  0  0
  -20.9270  -29.8360   21.7170 H   0  0  0  0  0  0  0  0  0  0  0  0
  -18.0480  -28.0580   22.8750 C   0  0  0  0  0  0  0  0  0  0  0  0
  -20.5990  -28.3450   23.1760 C   0  0  0  0  0  3  0  0  0  0  0  0
  -20.7240  -26.9110   22.6110 C   0  0  0  0  0  2  0  0  0  0  0  0
  -19.6380  -26.5700   21.5860 C   0  0  0  0  0  2  0  0  0  0  0  0
  -18.2470  -26.7060   22.2110 C   0  0  0  0  0  2  0  0  0  0  0  0
  -19.1530  -28.8350   23.3140 C   0  0  0  0  0  0  0  0  0  0  0  0
  -18.9150  -30.1020   23.8910 C   0  0  0  0  0  3  0  0  0  0  0  0
  -17.6030  -30.5900   24.0380 C   0  0  0  0  0  3  0  0  0  0  0  0
  -16.5120  -29.8110   23.6160 C   0  0  0  0  0  3  0  0  0  0  0  0
  -16.7350  -28.5480   23.0410 C   0  0  0  0  0  3  0  0  0  0  0  0
  -25.8830  -32.5270   23.8500 C   0  0  0  0  0  3  0  0  0  0  0  0
  -25.5760  -33.9250   24.1810 N   0  0  0  0  0  0  0  0  0  0  0  0
  -25.9120  -34.9770   23.4230 C   0  0  0  0  0  0  0  0  0  0  0  0
  -26.5840  -34.8740   22.3930 O   0  0  0  0  0  0  0  0  0  0  0  0
  -24.9810  -34.0800   24.9820 H   0  0  0  0  0  0  0  0  0  0  0  0
  -24.1880  -36.7730   23.0630 C   0  0  0  0  0  1  0  0  0  0  0  0
  -25.4250  -36.3660   23.8810 C   0  0  0  0  0  3  0  0  0  0  0  0
  -27.5580  -37.2440   24.7230 C   0  0  0  0  0  1  0  0  0  0  0  0
  -26.4600  -37.4170   23.7750 N   0  0  0  0  0  0  0  0  0  0  0  0
  -26.0550  -38.3370   23.9230 H   0  0  0  0  0  0  0  0  0  0  0  0
  -26.4040  -31.7530   25.1230 C   0  0  1  0  0  0  0  0  0  0  0  0
  -25.3140  -31.5140   26.1940 C   0  0  0  0  0  1  0  0  0  0  0  0
  -26.9850  -30.3760   24.7270 C   0  0  0  0  0  1  0  0  0  0  0  0
  -27.5570  -32.5460   25.7830 C   0  0  0  0  0  1  0  0  0  0  0  0
  1  3  2  0
  2 49  1  0
  2  1  1  0
  4  2  1  0
  5  6  1  0
  7  1  1  0
  7 10  1  0
  8  5  1  0
  8  7  1  0
  8  9  1  0
  9 10  1  0
  9  6  1  0
 10 11  1  0
 11 12  1  0
 13 12  1  0
 14 19  1  0
 15 16  1  0
 15 14  1  0
 17 16  1  0
 17 24  1  0
 17 18  1  0
 19 13  1  0
 19 18  1  0
 20 13  2  0
 21 22  2  0
 22 41  1  0
 23 22  1  0
 23 26  1  0
 24 21  1  0
 24 25  1  0
 25 23  2  0
 26 27  1  0
 27 28  2  0
 29 32  1  0
 29 28  1  0
 30 29  2  0
 31 30  1  0
 31 26  2  0
 32 33  1  0
 33 34  1  0
 34 35  2  0
 36 35  1  0
 36 40  1  0
 37 36  2  0
 38 33  2  0
 38 37  1  0
 39 38  1  0
 41 42  1  0
 42 45  1  0
 42 44  1  0
 43 41  2  0
 46 47  1  0
 46 21  1  0
 48 46  1  0
 50 49  1  0
 51 50  1  0
 51 52  1  0
 53 64  2  0
 54 52  1  0
 54 59  1  0
 55 63  1  0
 55 65  1  0
 56 62  1  0
 56 58  1  0
 57 63  1  0
 58 57  1  0
 59 58  2  0
 60 61  1  0
 60 54  2  0
 61 56  2  0
 62 55  1  0
 63 53  1  0
 65 67  2  0
 66 65  1  0
 68 66  1  0
 69 78  2  0
 69 74  1  0
 70 66  1  0
 70 74  1  0
 71 70  1  0
 72 73  1  0
 72 71  1  0
 73 69  1  0
 74 75  2  0
 75 76  1  0
 77 76  2  0
 78 77  1  0
 79 53  1  0
 79 80  1  0
 79 89  1  0
 80 83  1  0
 81 85  1  0
 81 80  1  0
 82 81  2  0
 85 84  1  0
 87 85  1  0
 87 88  1  0
 87 86  1  0
 89 92  1  1
 89 90  1  0
 91 89  1  0
M  ISO  4  12 100  13 100  51 101  52 101
M  END
>  <TORSDO>  (49) 
F 22

>  <SCORE>  (49) 
-13.334

>  <name>  (49) 
49

>  <ligand_id>  (49) 
49

>  <original_smiles>  (49) 
[H]c1c([H])c([H])c2c(c1[H])C([H])([H])C([H])([H])C([H])([H])C2([H])N([H])C(=O)C1([H])N(C(=O)C([H])(N([H])C(=O)C([H])(N([H])C([H])([H])[H])C([H])([H])[H])C(C([H])([H])[H])(C([H])([H])[H])C([H])([H])[H])C([H])([H])c2c([H])c(OC([H])([H])C([H])([H])C([H])([H])N([H])C(=O)C3([H])C([H])(C([H])([H])C([H])([H])C(=O)N4C([H])([H])C([H])([H])C([H])([H])C([H])(n5nc(-c6c([H])c([H])c(Oc7c([H])c([H])c(F)c([H])c7F)c([H])c6[H])c(C(=O)N([H])[H])c5N([H])[H])C4([H])[H])C4([H])C([H])([H])C([H])([H])C34[H])c([H])c([H])c2C1([H])[H]

>  <smiles>  (49) 
[H]c1c([H])c([H])c2c(c1[H])C([H])([H])C([H])([H])C([H])([H])C2([H])N([H])C(=O)C1([H])N(C(=O)C([H])(N([H])C(=O)C([H])(N([H])C([H])([H])[H])C([H])([H])[H])C(C([H])([H])[H])(C([H])([H])[H])C([H])([H])[H])C([H])([H])c2c([H])c(OC([H])([H])C([H])([H])C([H])([H])N([H])C(=O)C3([H])C([H])(C([H])([H])C([H])([H])C(=O)N4C([H])([H])C([H])([H])C([H])([H])C([H])(n5nc(-c6c([H])c([H])c(Oc7c([H])c([H])c(F)c([H])c7F)c([H])c6[H])c(C(=O)N([H])[H])c5N([H])[H])C4([H])[H])C4([H])C([H])([H])C([H])([H])C34[H])c([H])c([H])c2C1([H])[H]

$$$$
50:0:0
     RDKit          3D

 93101  0  0  1  0  0  0  0  0999 V2000
  -29.1270  -22.4320   20.8470 C   0  0  0  0  0  3  0  0  0  0  0  0
  -30.2310  -23.1550   24.5110 C   0  0  0  0  0  2  0  0  0  0  0  0
  -30.1270  -21.6250   24.5190 C   0  0  0  0  0  2  0  0  0  0  0  0
  -29.6020  -23.5860   23.1890 C   0  0  0  0  0  2  0  0  0  0  0  0
  -29.6390  -21.2220   23.1180 C   0  0  0  0  0  2  0  0  0  0  0  0
  -29.8950  -22.4360   22.2130 C   0  0  0  0  0  3  0  0  0  0  0  0
  -29.6840  -21.2930   19.9860 N   0  0  0  0  0  4  0  0  0  0  0  0
  -30.6870  -21.2710   20.0700 H   0  0  0  0  0  0  0  0  0  0  0  0
  -29.5180  -21.6040   19.0420 H   0  0  0  0  0  0  0  0  0  0  0  0
  -27.6780  -19.7130   20.3790 C   0  0  0  0  0  1  0  0  0  0  0  0
  -29.1560  -19.8500   19.9620 C   0  0  0  0  0  3  0  0  0  0  0  0
  -30.0280  -18.6820   20.6330 C   0  0  0  0  0  2  0  0  0  0  0  0
  -29.8700  -17.1860   20.0700 C   0  0  0  0  0  2  0  0  0  0  0  0
  -30.2030  -15.9390   21.0130 C   0  0  0  0  0  2  0  0  0  0  0  0
  -30.7630  -14.5990   20.3750 C   0  0  0  0  0  0  0  0  0  0  0  0
  -30.4800  -12.3200   19.4090 C   0  0  0  0  0  2  0  0  0  0  0  0
  -29.5740  -12.4010   18.1610 C   0  0  0  0  0  2  0  0  0  0  0  0
  -28.0930  -12.2800   18.5640 C   0  0  0  0  0  2  0  0  0  0  0  0
  -27.7240  -13.2220   19.7400 C   0  0  0  0  0  3  0  0  0  0  0  0
  -28.7540  -13.1310   20.8890 C   0  0  0  0  0  2  0  0  0  0  0  0
  -30.0840  -13.4060   20.3300 N   0  0  0  0  0  0  0  0  0  0  0  0
  -31.8860  -14.6780   19.8680 O   0  0  0  0  0  0  0  0  0  0  0  0
  -25.3470  -13.9000   20.4470 C   0  0  0  0  0  0  0  0  0  0  0  0
  -24.2510  -13.1610   20.8080 C   0  0  0  0  0  0  0  0  0  0  0  0
  -24.6670  -11.7960   20.7770 C   0  0  0  0  0  0  0  0  0  0  0  0
  -26.3610  -12.9840   20.2140 N   0  0  0  0  0  0  0  0  0  0  0  0
  -25.9580  -11.7140   20.4740 N   0  0  0  0  0  0  0  0  0  0  0  0
  -23.8960  -10.5570   20.9610 C   0  0  0  0  0  0  0  0  0  0  0  0
  -24.2800   -9.5820   21.9080 C   0  0  0  0  0  3  0  0  0  0  0  0
  -23.5110   -8.4100   22.0780 C   0  0  0  0  0  3  0  0  0  0  0  0
  -22.3450   -8.2070   21.3030 C   0  0  0  0  0  0  0  0  0  0  0  0
  -21.9800   -9.1710   20.3470 C   0  0  0  0  0  3  0  0  0  0  0  0
  -22.7500  -10.3340   20.1740 C   0  0  0  0  0  3  0  0  0  0  0  0
  -21.5530   -7.0850   21.3800 O   0  0  0  0  0  0  0  0  0  0  0  0
  -21.4530   -6.3540   22.5370 C   0  0  0  0  0  0  0  0  0  0  0  0
  -21.0100   -6.9320   23.7470 C   0  0  0  0  0  3  0  0  0  0  0  0
  -20.8520   -6.1300   24.8950 C   0  0  0  0  0  3  0  0  0  0  0  0
  -21.1280   -4.7500   24.8340 C   0  0  0  0  0  0  0  0  0  0  0  0
  -21.5670   -4.1720   23.6280 C   0  0  0  0  0  3  0  0  0  0  0  0
  -21.7240   -4.9720   22.4830 C   0  0  0  0  0  0  0  0  0  0  0  0
  -22.1240   -4.4070   21.3180 F   0  0  0  0  0  0  0  0  0  0  0  0
  -20.9710   -3.9770   25.9330 F   0  0  0  0  0  0  0  0  0  0  0  0
  -22.8710  -13.6880   21.0730 C   0  0  0  0  0  0  0  0  0  0  0  0
  -22.1090  -13.0170   21.9310 N   0  0  0  0  0  0  0  0  0  0  0  0
  -22.4740  -14.7300   20.5530 O   0  0  0  0  0  0  0  0  0  0  0  0
  -22.4450  -12.1770   22.3760 H   0  0  0  0  0  0  0  0  0  0  0  0
  -21.1840  -13.3560   22.1470 H   0  0  0  0  0  0  0  0  0  0  0  0
  -25.5640  -15.2620   20.2770 N   0  0  0  0  0  0  0  0  0  0  0  0
  -24.8290  -15.9520   20.3890 H   0  0  0  0  0  0  0  0  0  0  0  0
  -26.4420  -15.6610   19.9720 H   0  0  0  0  0  0  0  0  0  0  0  0
  -29.2000  -23.8910   20.1490 C   0  0  0  0  0  3  0  0  0  0  0  0
  -28.1970  -25.0510   20.6170 C   0  0  0  0  0  3  0  0  0  0  0  0
  -28.4130  -26.4600   20.2010 O   0  0  0  0  0  0  0  0  0  0  0  0
  -24.6500  -31.8600   23.2060 C   0  0  0  0  0  0  0  0  0  0  0  0
  -27.2900  -27.3020   20.1890 C   0  0  0  0  0  0  0  0  0  0  0  0
  -23.4540  -30.4410   21.5760 C   0  0  0  0  0  3  0  0  0  0  0  0
  -24.9120  -28.8830   20.1710 C   0  0  0  0  0  0  0  0  0  0  0  0
  -25.9890  -30.7800   21.3860 C   0  0  0  0  0  2  0  0  0  0  0  0
  -26.0790  -29.3930   20.7590 C   0  0  0  0  0  0  0  0  0  0  0  0
  -27.2750  -28.6130   20.7560 C   0  0  0  0  0  3  0  0  0  0  0  0
  -26.1040  -26.8450   19.5770 C   0  0  0  0  0  3  0  0  0  0  0  0
  -24.9250  -27.6130   19.5750 C   0  0  0  0  0  3  0  0  0  0  0  0
  -23.6700  -29.7470   20.2050 C   0  0  0  0  0  2  0  0  0  0  0  0
  -24.7160  -31.0470   22.1110 N   0  0  0  0  0  0  0  0  0  0  0  0
  -23.5640  -32.1350   23.7370 O   0  0  0  0  0  0  0  0  0  0  0  0
  -22.7970  -29.4310   22.5480 C   0  0  0  0  0  0  0  0  0  0  0  0
  -21.4710  -29.2470   22.4260 N   0  0  0  0  0  0  0  0  0  0  0  0
  -23.4800  -28.8140   23.3700 O   0  0  0  0  0  0  0  0  0  0  0  0
  -20.9800  -29.8020   21.7390 H   0  0  0  0  0  0  0  0  0  0  0  0
  -18.0990  -28.0500   22.9520 C   0  0  0  0  0  0  0  0  0  0  0  0
  -20.6580  -28.3110   23.2030 C   0  0  0  0  0  3  0  0  0  0  0  0
  -20.7560  -26.8770   22.6320 C   0  0  0  0  0  2  0  0  0  0  0  0
  -19.6470  -26.5510   21.6270 C   0  0  0  0  0  2  0  0  0  0  0  0
  -18.2700  -26.6980   22.2800 C   0  0  0  0  0  2  0  0  0  0  0  0
  -19.2210  -28.8140   23.3720 C   0  0  0  0  0  0  0  0  0  0  0  0
  -19.0060  -30.0780   23.9610 C   0  0  0  0  0  3  0  0  0  0  0  0
  -17.7020  -30.5800   24.1340 C   0  0  0  0  0  3  0  0  0  0  0  0
  -16.5950  -29.8140   23.7270 C   0  0  0  0  0  3  0  0  0  0  0  0
  -16.7940  -28.5500   23.1430 C   0  0  0  0  0  3  0  0  0  0  0  0
  -25.9300  -32.5040   23.8250 C   0  0  0  0  0  3  0  0  0  0  0  0
  -25.6070  -33.9000   24.1570 N   0  0  0  0  0  0  0  0  0  0  0  0
  -25.9280  -34.9570   23.4000 C   0  0  0  0  0  0  0  0  0  0  0  0
  -26.5960  -34.8590   22.3680 O   0  0  0  0  0  0  0  0  0  0  0  0
  -25.0130  -34.0510   24.9600 H   0  0  0  0  0  0  0  0  0  0  0  0
  -24.1880  -36.7390   23.0490 C   0  0  0  0  0  1  0  0  0  0  0  0
  -25.4300  -36.3400   23.8610 C   0  0  0  0  0  3  0  0  0  0  0  0
  -27.5580  -37.2380   24.6960 C   0  0  0  0  0  1  0  0  0  0  0  0
  -26.4550  -37.4010   23.7530 N   0  0  0  0  0  0  0  0  0  0  0  0
  -26.0420  -38.3190   23.8970 H   0  0  0  0  0  0  0  0  0  0  0  0
  -26.4630  -31.7380   25.0970 C   0  0  1  0  0  0  0  0  0  0  0  0
  -25.3760  -31.4870   26.1680 C   0  0  0  0  0  1  0  0  0  0  0  0
  -27.0620  -30.3690   24.7020 C   0  0  0  0  0  1  0  0  0  0  0  0
  -27.6090  -32.5440   25.7520 C   0  0  0  0  0  1  0  0  0  0  0  0
  1 51  1  0
  1  6  1  0
  2  3  1  0
  4  2  1  0
  5  3  1  0
  6  5  1  0
  6  4  1  0
  7  8  1  0
  7  1  1  0
  9  7  1  0
 11  7  1  0
 11 10  1  0
 11 12  1  0
 13 12  1  0
 13 14  1  0
 15 14  1  0
 16 21  1  0
 17 18  1  0
 17 16  1  0
 19 18  1  0
 19 26  1  0
 19 20  1  0
 21 15  1  0
 21 20  1  0
 22 15  2  0
 23 24  2  0
 24 43  1  0
 25 24  1  0
 25 28  1  0
 26 23  1  0
 26 27  1  0
 27 25  2  0
 28 29  1  0
 29 30  2  0
 31 34  1  0
 31 30  1  0
 32 31  2  0
 33 32  1  0
 33 28  2  0
 34 35  1  0
 35 36  1  0
 36 37  2  0
 38 37  1  0
 38 42  1  0
 39 38  2  0
 40 35  2  0
 40 39  1  0
 41 40  1  0
 43 44  1  0
 44 47  1  0
 44 46  1  0
 45 43  2  0
 48 49  1  0
 48 23  1  0
 50 48  1  0
 51 52  2  0
 53 52  1  0
 54 65  2  0
 55 53  1  0
 55 60  1  0
 56 64  1  0
 56 66  1  0
 57 63  1  0
 57 59  1  0
 58 64  1  0
 59 58  1  0
 60 59  2  0
 61 55  2  0
 62 61  1  0
 62 57  2  0
 63 56  1  0
 64 54  1  0
 66 68  2  0
 67 66  1  0
 69 67  1  0
 70 79  2  0
 70 75  1  0
 71 67  1  0
 71 75  1  0
 72 71  1  0
 73 74  1  0
 73 72  1  0
 74 70  1  0
 75 76  2  0
 76 77  1  0
 78 77  2  0
 79 78  1  0
 80 54  1  0
 80 81  1  0
 80 90  1  0
 81 84  1  0
 82 86  1  0
 82 81  1  0
 83 82  2  0
 86 85  1  0
 88 86  1  0
 88 89  1  0
 88 87  1  0
 90 93  1  1
 90 91  1  0
 92 90  1  0
M  ISO  4  14 100  15 100  52 101  53 101
M  END
>  <TORSDO>  (50) 
F 24

>  <SCORE>  (50) 
-11.867

>  <name>  (50) 
50

>  <ligand_id>  (50) 
50

>  <original_smiles>  (50) 
[H]c1c([H])c([H])c2c(c1[H])C([H])([H])C([H])([H])C([H])([H])C2([H])N([H])C(=O)C1([H])N(C(=O)C([H])(N([H])C(=O)C([H])(N([H])C([H])([H])[H])C([H])([H])[H])C(C([H])([H])[H])(C([H])([H])[H])C([H])([H])[H])C([H])([H])c2c([H])c(OC([H])([H])C([H])([H])C([H])(C3([H])C([H])([H])C([H])([H])C([H])([H])C3([H])[H])[N+]([H])([H])C([H])(C([H])([H])[H])C([H])([H])C([H])([H])C([H])([H])C(=O)N3C([H])([H])C([H])([H])C([H])([H])C([H])(n4nc(-c5c([H])c([H])c(Oc6c([H])c([H])c(F)c([H])c6F)c([H])c5[H])c(C(=O)N([H])[H])c4N([H])[H])C3([H])[H])c([H])c([H])c2C1([H])[H]

>  <smiles>  (50) 
[H]c1c([H])c([H])c2c(c1[H])C([H])([H])C([H])([H])C([H])([H])C2([H])N([H])C(=O)C1([H])N(C(=O)C([H])(N([H])C(=O)C([H])(N([H])C([H])([H])[H])C([H])([H])[H])C(C([H])([H])[H])(C([H])([H])[H])C([H])([H])[H])C([H])([H])c2c([H])c(OC([H])([H])C([H])([H])C([H])(C3([H])C([H])([H])C([H])([H])C([H])([H])C3([H])[H])[N+]([H])([H])C([H])(C([H])([H])[H])C([H])([H])C([H])([H])C([H])([H])C(=O)N3C([H])([H])C([H])([H])C([H])([H])C([H])(n4nc(-c5c([H])c([H])c(Oc6c([H])c([H])c(F)c([H])c6F)c([H])c5[H])c(C(=O)N([H])[H])c4N([H])[H])C3([H])[H])c([H])c([H])c2C1([H])[H]

$$$$
51:0:0
     RDKit          3D

 94 99  0  0  1  0  0  0  0  0999 V2000
  -28.2980  -18.8580   18.8510 C   0  0  0  0  0  2  0  0  0  0  0  0
  -28.0490  -20.5500   18.7570 C   0  0  0  0  0  3  0  0  0  0  0  0
  -26.6200  -20.6910   18.9390 C   0  0  0  0  0  3  0  0  0  0  0  0
  -27.0760  -17.7190   19.0920 C   0  0  0  0  0  3  0  0  0  0  0  0
  -27.5590  -21.9090   19.6960 C   0  0  0  0  0  3  0  0  0  0  0  0
  -26.0550  -19.0750   19.0680 C   0  0  1  0  0  0  0  0  0  0  0  0
  -25.1220  -19.0270   20.2840 C   0  0  0  0  0  1  0  0  0  0  0  0
  -25.1920  -18.8390   17.8110 C   0  0  0  0  0  1  0  0  0  0  0  0
  -26.6620  -15.8940   18.4830 C   0  0  0  0  0  2  0  0  0  0  0  0
  -28.4800  -13.2840   19.0270 C   0  0  0  0  0  3  0  0  0  0  0  0
  -27.2560  -14.1630   18.5070 N   0  0  0  0  0  0  0  0  0  0  0  0
  -28.4620  -12.0830   18.7220 O   0  0  0  0  0  0  0  0  0  0  0  0
  -26.6310  -13.5790   17.9680 H   0  0  0  0  0  0  0  0  0  0  0  0
  -29.9190  -16.1470   21.4090 C   0  0  0  0  0  1  0  0  0  0  0  0
  -30.2020  -14.6440   20.7220 C   0  0  0  0  0  2  0  0  0  0  0  0
  -30.8640  -14.2810   22.1010 C   0  0  0  0  0  2  0  0  0  0  0  0
  -31.5280  -13.2810   21.4110 C   0  0  0  0  0  0  0  0  0  0  0  0
  -31.0440  -12.6510   19.3200 C   0  0  0  0  0  2  0  0  0  0  0  0
  -30.6520  -14.1750   18.3750 C   0  0  0  0  0  1  0  0  0  0  0  0
  -29.1800  -15.4420   18.9590 C   0  0  0  0  0 15  0  0  0  0  0  0
  -27.9540  -14.3580   20.9630 C   0  0  0  0  0  1  0  0  0  0  0  0
  -28.9820  -12.7470   21.5020 C   0  0  0  0  0  1  0  0  0  0  0  0
  -30.5620  -12.4530   20.8580 N   0  0  0  0  0  0  0  0  0  0  0  0
  -32.6220  -13.7220   20.9690 O   0  0  0  0  0  0  0  0  0  0  0  0
  -25.4450  -14.1340   21.0590 C   0  0  0  0  0  0  0  0  0  0  0  0
  -24.4860  -13.1900   21.2310 C   0  0  0  0  0  0  0  0  0  0  0  0
  -25.0840  -11.8990   21.1630 C   0  0  0  0  0  0  0  0  0  0  0  0
  -26.6220  -13.5240   20.9780 N   0  0  0  0  0  0  0  0  0  0  0  0
  -26.3960  -12.1190   21.0060 N   0  0  0  0  0  0  0  0  0  0  0  0
  -24.4340  -10.5460   21.2620 C   0  0  0  0  0  0  0  0  0  0  0  0
  -24.7840   -9.5690   22.2300 C   0  0  0  0  0  3  0  0  0  0  0  0
  -24.0530   -8.3570   22.3560 C   0  0  0  0  0  3  0  0  0  0  0  0
  -22.9430   -8.0950   21.5190 C   0  0  0  0  0  0  0  0  0  0  0  0
  -22.6090   -9.0490   20.5410 C   0  0  0  0  0  3  0  0  0  0  0  0
  -23.3430  -10.2460   20.4130 C   0  0  0  0  0  3  0  0  0  0  0  0
  -22.1900   -6.9400   21.5450 O   0  0  0  0  0  0  0  0  0  0  0  0
  -21.9780   -6.2220   22.6980 C   0  0  0  0  0  0  0  0  0  0  0  0
  -21.3600   -6.7980   23.8300 C   0  0  0  0  0  3  0  0  0  0  0  0
  -21.0980   -6.0110   24.9690 C   0  0  0  0  0  3  0  0  0  0  0  0
  -21.4450   -4.6470   24.9800 C   0  0  0  0  0  0  0  0  0  0  0  0
  -22.0520   -4.0680   23.8520 C   0  0  0  0  0  3  0  0  0  0  0  0
  -22.3100   -4.8510   22.7130 C   0  0  0  0  0  0  0  0  0  0  0  0
  -22.8710   -4.2750   21.6210 F   0  0  0  0  0  0  0  0  0  0  0  0
  -21.1940   -3.8930   26.0760 F   0  0  0  0  0  0  0  0  0  0  0  0
  -23.0660  -13.5420   21.4520 C   0  0  0  0  0  0  0  0  0  0  0  0
  -22.3820  -12.7940   22.3050 N   0  0  0  0  0  0  0  0  0  0  0  0
  -22.5960  -14.5520   20.9350 O   0  0  0  0  0  0  0  0  0  0  0  0
  -22.8050  -11.9930   22.7520 H   0  0  0  0  0  0  0  0  0  0  0  0
  -21.4210  -13.0230   22.5160 H   0  0  0  0  0  0  0  0  0  0  0  0
  -25.4520  -15.5110   21.0550 N   0  0  0  0  0  0  0  0  0  0  0  0
  -24.5980  -16.0510   21.1310 H   0  0  0  0  0  0  0  0  0  0  0  0
  -26.2820  -16.0790   20.9580 H   0  0  0  0  0  0  0  0  0  0  0  0
  -27.4610  -23.8130   19.4880 C   0  0  0  0  0  2  0  0  0  0  0  0
  -28.0350  -25.4030   20.0170 O   0  0  0  0  0  0  0  0  0  0  0  0
  -24.8570  -31.7480   23.3220 C   0  0  0  0  0  0  0  0  0  0  0  0
  -27.2970  -26.7490   20.0820 C   0  0  0  0  0  0  0  0  0  0  0  0
  -23.7310  -30.4220   21.6080 C   0  0  0  0  0  3  0  0  0  0  0  0
  -25.1860  -28.8650   20.1450 C   0  0  0  0  0  0  0  0  0  0  0  0
  -26.3210  -30.5180   21.5950 C   0  0  0  0  0  2  0  0  0  0  0  0
  -26.3690  -29.1280   20.8450 C   0  0  0  0  0  0  0  0  0  0  0  0
  -27.4320  -28.0790   20.8040 C   0  0  0  0  0  3  0  0  0  0  0  0
  -26.1250  -26.7380   19.3290 C   0  0  0  0  0  3  0  0  0  0  0  0
  -25.1040  -27.7030   19.3770 C   0  0  0  0  0  3  0  0  0  0  0  0
  -24.0070  -29.8300   20.2070 C   0  0  0  0  0  2  0  0  0  0  0  0
  -24.9960  -30.9300   22.2260 N   0  0  0  0  0  0  0  0  0  0  0  0
  -23.7430  -32.0270   23.7970 O   0  0  0  0  0  0  0  0  0  0  0  0
  -23.0010  -29.3800   22.4970 C   0  0  0  0  0  0  0  0  0  0  0  0
  -21.6750  -29.2220   22.3200 N   0  0  0  0  0  0  0  0  0  0  0  0
  -23.6350  -28.7240   23.3280 O   0  0  0  0  0  0  0  0  0  0  0  0
  -21.2140  -29.8030   21.6340 H   0  0  0  0  0  0  0  0  0  0  0  0
  -18.2830  -27.9740   22.6600 C   0  0  0  0  0  0  0  0  0  0  0  0
  -20.8280  -28.2550   23.0300 C   0  0  0  0  0  3  0  0  0  0  0  0
  -20.9650  -26.8400   22.4210 C   0  0  0  0  0  2  0  0  0  0  0  0
  -19.9070  -26.5400   21.3540 C   0  0  0  0  0  2  0  0  0  0  0  0
  -18.5000  -26.6510   21.9460 C   0  0  0  0  0  2  0  0  0  0  0  0
  -19.3760  -28.7340   23.1560 C   0  0  0  0  0  0  0  0  0  0  0  0
  -19.1180  -29.9700   23.7870 C   0  0  0  0  0  3  0  0  0  0  0  0
  -17.8010  -30.4490   23.9230 C   0  0  0  0  0  3  0  0  0  0  0  0
  -16.7220  -29.6860   23.4420 C   0  0  0  0  0  3  0  0  0  0  0  0
  -16.9640  -28.4500   22.8170 C   0  0  0  0  0  3  0  0  0  0  0  0
  -26.0880  -32.3900   24.0270 C   0  0  0  0  0  3  0  0  0  0  0  0
  -25.7140  -33.7570   24.4390 N   0  0  0  0  0  0  0  0  0  0  0  0
  -26.0860  -34.8840   23.8200 C   0  0  0  0  0  0  0  0  0  0  0  0
  -26.8420  -34.8840   22.8450 O   0  0  0  0  0  0  0  0  0  0  0  0
  -25.0490  -33.8290   25.1950 H   0  0  0  0  0  0  0  0  0  0  0  0
  -24.3770  -36.7070   23.4860 C   0  0  0  0  0  1  0  0  0  0  0  0
  -25.5420  -36.2230   24.3640 C   0  0  0  0  0  3  0  0  0  0  0  0
  -27.5770  -37.0340   25.4750 C   0  0  0  0  0  1  0  0  0  0  0  0
  -26.5680  -37.2870   24.4520 N   0  0  0  0  0  0  0  0  0  0  0  0
  -26.1370  -38.1880   24.6460 H   0  0  0  0  0  0  0  0  0  0  0  0
  -26.5730  -31.5700   25.2860 C   0  0  1  0  0  0  0  0  0  0  0  0
  -25.4470  -31.2610   26.3020 C   0  0  0  0  0  1  0  0  0  0  0  0
  -27.2000  -30.2210   24.8680 C   0  0  0  0  0  1  0  0  0  0  0  0
  -27.6790  -32.3550   26.0260 C   0  0  0  0  0  1  0  0  0  0  0  0
  1  4  1  0
  2  1  1  0
  2  3  1  0
  2  5  1  0
  3  6  1  0
  3  5  1  0
  4  9  1  0
  5 53  1  0
  6  4  1  0
  6  7  1  1
  8  6  1  0
  9 11  1  0
 11 10  1  0
 12 10  2  0
 13 11  1  0
 15 14  1  0
 15 16  1  0
 17 16  1  0
 18 23  1  0
 19 18  1  0
 21 28  1  0
 23 17  1  0
 23 22  1  0
 24 17  2  0
 25 26  2  0
 26 45  1  0
 27 26  1  0
 27 30  1  0
 28 29  1  0
 28 25  1  0
 29 27  2  0
 30 31  1  0
 31 32  2  0
 33 36  1  0
 33 32  1  0
 34 33  2  0
 35 34  1  0
 35 30  2  0
 36 37  1  0
 37 42  2  0
 37 38  1  0
 38 39  2  0
 39 40  1  0
 40 44  1  0
 41 40  2  0
 42 41  1  0
 43 42  1  0
 45 46  1  0
 46 49  1  0
 46 48  1  0
 47 45  2  0
 50 25  1  0
 50 51  1  0
 52 50  1  0
 53 54  1  0
 54 56  1  0
 55 66  2  0
 56 61  1  0
 57 65  1  0
 57 67  1  0
 58 64  1  0
 58 60  1  0
 59 65  1  0
 60 59  1  0
 61 60  2  0
 62 63  1  0
 62 56  2  0
 63 58  2  0
 64 57  1  0
 65 55  1  0
 67 69  2  0
 68 67  1  0
 70 68  1  0
 71 80  2  0
 71 76  1  0
 72 68  1  0
 72 76  1  0
 73 72  1  0
 74 75  1  0
 74 73  1  0
 75 71  1  0
 76 77  2  0
 77 78  1  0
 79 78  2  0
 80 79  1  0
 81 55  1  0
 81 82  1  0
 81 91  1  0
 82 85  1  0
 83 87  1  0
 83 82  1  0
 84 83  2  0
 87 86  1  0
 87 89  1  0
 89 90  1  0
 89 88  1  0
 91 94  1  1
 91 92  1  0
 93 91  1  0
M  ISO  4  16 100  17 100  53 101  54 101
M  END
>  <TORSDO>  (51) 
F 21

>  <SCORE>  (51) 
-6.604

>  <name>  (51) 
51

>  <ligand_id>  (51) 
51

>  <original_smiles>  (51) 
[H]c1c([H])c([H])c2c(c1[H])C([H])([H])C([H])([H])C([H])([H])C2([H])N([H])C(=O)C1([H])N(C(=O)C([H])(N([H])C(=O)C([H])(N([H])C([H])([H])[H])C([H])([H])[H])C(C([H])([H])[H])(C([H])([H])[H])C([H])([H])[H])C([H])([H])c2c([H])c(OC([H])([H])C3([H])C4([H])C([H])([H])C([H])(C([H])([H])N([H])C(=O)C([H])(C([H])([H])[H])C([H])([H])C(=O)N5C([H])([H])C([H])([H])C([H])([H])C([H])(n6nc(-c7c([H])c([H])c(Oc8c([H])c([H])c(F)c([H])c8F)c([H])c7[H])c(C(=O)N([H])[H])c6N([H])[H])C5([H])[H])C(C([H])([H])[H])(C([H])([H])[H])C34[H])c([H])c([H])c2C1([H])[H]

>  <smiles>  (51) 
[H]c1c([H])c([H])c2c(c1[H])C([H])([H])C([H])([H])C([H])([H])C2([H])N([H])C(=O)C1([H])N(C(=O)C([H])(N([H])C(=O)C([H])(N([H])C([H])([H])[H])C([H])([H])[H])C(C([H])([H])[H])(C([H])([H])[H])C([H])([H])[H])C([H])([H])c2c([H])c(OC([H])([H])C3([H])C4([H])C([H])([H])C([H])(C([H])([H])N([H])C(=O)C([H])(C([H])([H])[H])C([H])([H])C(=O)N5C([H])([H])C([H])([H])C([H])([H])C([H])(n6nc(-c7c([H])c([H])c(Oc8c([H])c([H])c(F)c([H])c8F)c([H])c7[H])c(C(=O)N([H])[H])c6N([H])[H])C5([H])[H])C(C([H])([H])[H])(C([H])([H])[H])C34[H])c([H])c([H])c2C1([H])[H]

$$$$
52:0:0
     RDKit          3D

 93102  0  0  1  0  0  0  0  0999 V2000
  -27.6940  -23.8480   17.7350 C   0  0  0  0  0  2  0  0  0  0  0  0
  -26.8990  -23.0100   18.7440 C   0  0  0  0  0  2  0  0  0  0  0  0
  -30.1580  -22.2840   21.4110 C   0  0  0  0  0  2  0  0  0  0  0  0
  -28.9770  -24.2980   18.4490 C   0  0  0  0  0  2  0  0  0  0  0  0
  -30.1450  -23.6440   20.6580 C   0  0  0  0  0  2  0  0  0  0  0  0
  -28.6010  -21.3440   19.6450 C   0  0  0  0  0  2  0  0  0  0  0  0
  -27.8790  -22.7180   19.8930 C   0  0  0  0  0  3  0  0  0  0  0  0
  -29.8980  -21.0850   20.4620 C   0  0  0  0  0  3  0  0  0  0  0  0
  -28.7930  -23.9890   19.9510 C   0  0  2  0  0  0  0  0  0  0  0  0
  -29.9660  -19.7630   21.1810 N   0  0  0  0  0  4  0  0  0  0  0  0
  -29.2890  -19.7570   21.9290 H   0  0  0  0  0  0  0  0  0  0  0  0
  -30.8760  -19.7270   21.6120 H   0  0  0  0  0  0  0  0  0  0  0  0
  -29.7960  -18.4920   20.4010 C   0  0  0  0  0  2  0  0  0  0  0  0
  -30.4800  -17.2300   21.0530 C   0  0  0  0  0  2  0  0  0  0  0  0
  -29.7580  -15.8460   20.8420 C   0  0  0  0  0  2  0  0  0  0  0  0
  -30.6080  -14.5820   20.4680 C   0  0  0  0  0  0  0  0  0  0  0  0
  -30.3930  -12.3960   19.3320 C   0  0  0  0  0  2  0  0  0  0  0  0
  -29.4450  -12.5900   18.1270 C   0  0  0  0  0  2  0  0  0  0  0  0
  -27.9690  -12.4280   18.5460 C   0  0  0  0  0  2  0  0  0  0  0  0
  -27.6180  -13.2440   19.8180 C   0  0  0  0  0  3  0  0  0  0  0  0
  -28.6770  -13.0290   20.9210 C   0  0  0  0  0  2  0  0  0  0  0  0
  -29.9950  -13.3670   20.3650 N   0  0  0  0  0  0  0  0  0  0  0  0
  -31.7690  -14.7480   20.0830 O   0  0  0  0  0  0  0  0  0  0  0  0
  -25.2130  -13.8250   20.5240 C   0  0  0  0  0  0  0  0  0  0  0  0
  -24.1530  -13.0420   20.8910 C   0  0  0  0  0  0  0  0  0  0  0  0
  -24.6280  -11.6960   20.8650 C   0  0  0  0  0  0  0  0  0  0  0  0
  -26.2670  -12.9550   20.2960 N   0  0  0  0  0  0  0  0  0  0  0  0
  -25.9210  -11.6700   20.5600 N   0  0  0  0  0  0  0  0  0  0  0  0
  -23.9150  -10.4270   21.0560 C   0  0  0  0  0  0  0  0  0  0  0  0
  -24.3590   -9.4630   21.9880 C   0  0  0  0  0  3  0  0  0  0  0  0
  -23.6470   -8.2580   22.1650 C   0  0  0  0  0  3  0  0  0  0  0  0
  -22.4760   -8.0070   21.4110 C   0  0  0  0  0  0  0  0  0  0  0  0
  -22.0520   -8.9590   20.4670 C   0  0  0  0  0  3  0  0  0  0  0  0
  -22.7650  -10.1560   20.2880 C   0  0  0  0  0  3  0  0  0  0  0  0
  -21.7340   -6.8540   21.4990 O   0  0  0  0  0  0  0  0  0  0  0  0
  -21.7010   -6.1060   22.6480 C   0  0  0  0  0  0  0  0  0  0  0  0
  -21.2750   -6.6500   23.8790 C   0  0  0  0  0  3  0  0  0  0  0  0
  -21.1900   -5.8270   25.0200 C   0  0  0  0  0  3  0  0  0  0  0  0
  -21.5190   -4.4610   24.9300 C   0  0  0  0  0  0  0  0  0  0  0  0
  -21.9370   -3.9170   23.7030 C   0  0  0  0  0  3  0  0  0  0  0  0
  -22.0250   -4.7370   22.5650 C   0  0  0  0  0  0  0  0  0  0  0  0
  -22.4080   -4.2030   21.3790 F   0  0  0  0  0  0  0  0  0  0  0  0
  -21.4290   -3.6680   26.0230 F   0  0  0  0  0  0  0  0  0  0  0  0
  -22.7490  -13.5050   21.1590 C   0  0  0  0  0  0  0  0  0  0  0  0
  -22.0250  -12.8020   22.0210 N   0  0  0  0  0  0  0  0  0  0  0  0
  -22.3030  -14.5250   20.6340 O   0  0  0  0  0  0  0  0  0  0  0  0
  -22.3990  -11.9760   22.4660 H   0  0  0  0  0  0  0  0  0  0  0  0
  -21.0820  -13.0920   22.2390 H   0  0  0  0  0  0  0  0  0  0  0  0
  -25.3650  -15.1970   20.3460 N   0  0  0  0  0  0  0  0  0  0  0  0
  -24.5910  -15.8440   20.4480 H   0  0  0  0  0  0  0  0  0  0  0  0
  -26.2140  -15.6460   20.0280 H   0  0  0  0  0  0  0  0  0  0  0  0
  -28.0550  -25.1910   20.6760 C   0  0  0  0  0  2  0  0  0  0  0  0
  -28.2990  -26.5600   20.2130 O   0  0  0  0  0  0  0  0  0  0  0  0
  -24.5640  -31.8780   23.2270 C   0  0  0  0  0  0  0  0  0  0  0  0
  -27.1800  -27.3840   20.1620 C   0  0  0  0  0  0  0  0  0  0  0  0
  -23.3570  -30.4830   21.5850 C   0  0  0  0  0  3  0  0  0  0  0  0
  -24.8090  -28.9480   20.1500 C   0  0  0  0  0  0  0  0  0  0  0  0
  -25.8890  -30.8240   21.3920 C   0  0  0  0  0  2  0  0  0  0  0  0
  -25.9740  -29.4520   20.7440 C   0  0  0  0  0  0  0  0  0  0  0  0
  -27.1680  -28.6800   20.7410 C   0  0  0  0  0  3  0  0  0  0  0  0
  -26.0040  -26.9280   19.5270 C   0  0  0  0  0  3  0  0  0  0  0  0
  -24.8230  -27.6890   19.5290 C   0  0  0  0  0  3  0  0  0  0  0  0
  -23.5640  -29.8070   20.2040 C   0  0  0  0  0  2  0  0  0  0  0  0
  -24.6230  -31.0750   22.1260 N   0  0  0  0  0  0  0  0  0  0  0  0
  -23.4820  -32.1530   23.7650 O   0  0  0  0  0  0  0  0  0  0  0  0
  -22.6980  -29.4630   22.5430 C   0  0  0  0  0  0  0  0  0  0  0  0
  -21.3710  -29.2870   22.4180 N   0  0  0  0  0  0  0  0  0  0  0  0
  -23.3780  -28.8320   23.3580 O   0  0  0  0  0  0  0  0  0  0  0  0
  -20.8820  -29.8470   21.7330 H   0  0  0  0  0  0  0  0  0  0  0  0
  -17.9920  -28.1080   22.9190 C   0  0  0  0  0  0  0  0  0  0  0  0
  -20.5510  -28.3510   23.1880 C   0  0  0  0  0  3  0  0  0  0  0  0
  -20.6450  -26.9210   22.6070 C   0  0  0  0  0  2  0  0  0  0  0  0
  -19.5400  -26.6080   21.5930 C   0  0  0  0  0  2  0  0  0  0  0  0
  -18.1600  -26.7600   22.2390 C   0  0  0  0  0  2  0  0  0  0  0  0
  -19.1150  -28.8630   23.3500 C   0  0  0  0  0  0  0  0  0  0  0  0
  -18.9040  -30.1270   23.9440 C   0  0  0  0  0  3  0  0  0  0  0  0
  -17.6010  -30.6360   24.1100 C   0  0  0  0  0  3  0  0  0  0  0  0
  -16.4930  -29.8770   23.6950 C   0  0  0  0  0  3  0  0  0  0  0  0
  -16.6880  -28.6140   23.1070 C   0  0  0  0  0  3  0  0  0  0  0  0
  -25.8490  -32.5100   23.8480 C   0  0  0  0  0  3  0  0  0  0  0  0
  -25.5430  -33.9090   24.1750 N   0  0  0  0  0  0  0  0  0  0  0  0
  -25.8850  -34.9600   23.4160 C   0  0  0  0  0  0  0  0  0  0  0  0
  -26.5620  -34.8510   22.3890 O   0  0  0  0  0  0  0  0  0  0  0  0
  -24.9450  -34.0680   24.9730 H   0  0  0  0  0  0  0  0  0  0  0  0
  -24.1740  -36.7610   23.0360 C   0  0  0  0  0  1  0  0  0  0  0  0
  -25.4010  -36.3510   23.8660 C   0  0  0  0  0  3  0  0  0  0  0  0
  -27.5280  -37.2200   24.7310 C   0  0  0  0  0  1  0  0  0  0  0  0
  -26.4430  -37.3970   23.7700 N   0  0  0  0  0  0  0  0  0  0  0  0
  -26.0410  -38.3190   23.9120 H   0  0  0  0  0  0  0  0  0  0  0  0
  -26.3610  -31.7380   25.1250 C   0  0  1  0  0  0  0  0  0  0  0  0
  -25.2660  -31.5040   26.1900 C   0  0  0  0  0  1  0  0  0  0  0  0
  -26.9380  -30.3590   24.7330 C   0  0  0  0  0  1  0  0  0  0  0  0
  -27.5160  -32.5270   25.7860 C   0  0  0  0  0  1  0  0  0  0  0  0
  1  4  1  0
  1  2  1  0
  4  9  1  0
  5  3  1  0
  6  7  1  0
  6  8  1  0
  7  2  1  0
  7  9  1  0
  8 10  1  0
  8  3  1  0
  9  5  1  0
  9 52  1  1
 10 12  1  0
 10 11  1  0
 13 14  1  0
 13 10  1  0
 15 14  1  0
 16 15  1  0
 17 22  1  0
 18 19  1  0
 18 17  1  0
 20 19  1  0
 20 27  1  0
 20 21  1  0
 22 16  1  0
 22 21  1  0
 23 16  2  0
 24 25  2  0
 25 44  1  0
 26 25  1  0
 26 29  1  0
 27 24  1  0
 27 28  1  0
 28 26  2  0
 29 30  1  0
 30 31  2  0
 32 35  1  0
 32 31  1  0
 33 32  2  0
 34 33  1  0
 34 29  2  0
 35 36  1  0
 36 37  1  0
 37 38  2  0
 39 38  1  0
 39 43  1  0
 40 39  2  0
 41 36  2  0
 41 40  1  0
 42 41  1  0
 44 45  1  0
 45 48  1  0
 45 47  1  0
 46 44  2  0
 49 50  1  0
 49 24  1  0
 51 49  1  0
 53 52  1  0
 54 65  2  0
 55 53  1  0
 55 60  1  0
 56 64  1  0
 56 66  1  0
 57 63  1  0
 57 59  1  0
 58 64  1  0
 59 58  1  0
 60 59  2  0
 61 62  1  0
 61 55  2  0
 62 57  2  0
 63 56  1  0
 64 54  1  0
 66 68  2  0
 67 66  1  0
 69 67  1  0
 70 79  2  0
 70 75  1  0
 71 67  1  0
 71 75  1  0
 72 71  1  0
 73 74  1  0
 73 72  1  0
 74 70  1  0
 75 76  2  0
 76 77  1  0
 78 77  2  0
 79 78  1  0
 80 54  1  0
 80 81  1  0
 80 90  1  0
 81 84  1  0
 82 86  1  0
 82 81  1  0
 83 82  2  0
 86 85  1  0
 88 86  1  0
 88 89  1  0
 88 87  1  0
 90 93  1  1
 90 91  1  0
 92 90  1  0
M  ISO  4  15 100  16 100  52 101  53 101
M  END
>  <TORSDO>  (52) 
F 21

>  <SCORE>  (52) 
-13.715

>  <name>  (52) 
52

>  <ligand_id>  (52) 
52

>  <original_smiles>  (52) 
[H]c1c([H])c([H])c2c(c1[H])C([H])([H])C([H])([H])C([H])([H])C2([H])N([H])C(=O)C1([H])N(C(=O)C([H])(N([H])C(=O)C([H])(N([H])C([H])([H])[H])C([H])([H])[H])C(C([H])([H])[H])(C([H])([H])[H])C([H])([H])[H])C([H])([H])c2c([H])c(OC([H])([H])C34C([H])([H])C([H])([H])C([H])([H])C3([H])C([H])([H])C([H])([N+]([H])([H])C([H])([H])C([H])([H])C([H])([H])C(=O)N3C([H])([H])C([H])([H])C([H])([H])C([H])(n5nc(-c6c([H])c([H])c(Oc7c([H])c([H])c(F)c([H])c7F)c([H])c6[H])c(C(=O)N([H])[H])c5N([H])[H])C3([H])[H])C([H])([H])C4([H])[H])c([H])c([H])c2C1([H])[H]

>  <smiles>  (52) 
[H]c1c([H])c([H])c2c(c1[H])C([H])([H])C([H])([H])C([H])([H])C2([H])N([H])C(=O)C1([H])N(C(=O)C([H])(N([H])C(=O)C([H])(N([H])C([H])([H])[H])C([H])([H])[H])C(C([H])([H])[H])(C([H])([H])[H])C([H])([H])[H])C([H])([H])c2c([H])c(OC([H])([H])C34C([H])([H])C([H])([H])C([H])([H])C3([H])C([H])([H])C([H])([N+]([H])([H])C([H])([H])C([H])([H])C([H])([H])C(=O)N3C([H])([H])C([H])([H])C([H])([H])C([H])(n5nc(-c6c([H])c([H])c(Oc7c([H])c([H])c(F)c([H])c7F)c([H])c6[H])c(C(=O)N([H])[H])c5N([H])[H])C3([H])[H])C([H])([H])C4([H])[H])c([H])c([H])c2C1([H])[H]

$$$$
53:0:0
     RDKit          3D

 94104  0  0  1  0  0  0  0  0999 V2000
  -25.4990  -24.8930   23.0130 C   0  0  0  0  0  2  0  0  0  0  0  0
  -26.6620  -23.9250   23.1770 C   0  0  0  0  0  2  0  0  0  0  0  0
  -25.6320  -25.4020   21.5750 C   0  0  0  0  0  2  0  0  0  0  0  0
  -28.3620  -21.9820   20.1720 C   0  0  0  0  0  3  0  0  0  0  0  0
  -26.7460  -23.2280   21.8190 C   0  0  0  0  0  3  0  0  0  0  0  0
  -26.3490  -24.2860   20.7710 C   0  0  0  0  0  3  0  0  0  0  0  0
  -28.1190  -22.7410   21.4560 C   0  0  0  0  0  3  0  0  0  0  0  0
  -28.6330  -23.4940   20.2700 C   0  0  0  0  0  3  0  0  0  0  0  0
  -27.6270  -24.6020   19.9110 C   0  0  0  0  0  3  0  0  0  0  0  0
  -29.4820  -20.9820   20.2860 C   0  0  0  0  0  0  0  0  0  0  0  0
  -29.1160  -19.6860   20.2580 N   0  0  0  0  0  0  0  0  0  0  0  0
  -30.6500  -21.3260   20.4870 O   0  0  0  0  0  0  0  0  0  0  0  0
  -28.1420  -19.4860   20.0730 H   0  0  0  0  0  0  0  0  0  0  0  0
  -29.9380  -18.5820   20.7720 C   0  0  0  0  0  2  0  0  0  0  0  0
  -29.7220  -17.2270   20.0530 C   0  0  0  0  0  2  0  0  0  0  0  0
  -30.2750  -16.0320   20.8820 C   0  0  0  0  0  2  0  0  0  0  0  0
  -30.8230  -14.8570   20.0410 C   0  0  0  0  0  0  0  0  0  0  0  0
  -30.5850  -12.6300   18.9940 C   0  0  0  0  0  2  0  0  0  0  0  0
  -29.5950  -12.7100   17.8160 C   0  0  0  0  0  2  0  0  0  0  0  0
  -28.1440  -12.5260   18.3020 C   0  0  0  0  0  2  0  0  0  0  0  0
  -27.8080  -13.4200   19.5230 C   0  0  0  0  0  3  0  0  0  0  0  0
  -28.9050  -13.3030   20.6020 C   0  0  0  0  0  2  0  0  0  0  0  0
  -30.1950  -13.6490   19.9830 N   0  0  0  0  0  0  0  0  0  0  0  0
  -31.8560  -15.0790   19.4030 O   0  0  0  0  0  0  0  0  0  0  0  0
  -25.4360  -13.9700   20.3600 C   0  0  0  0  0  0  0  0  0  0  0  0
  -24.4000  -13.1720   20.7640 C   0  0  0  0  0  0  0  0  0  0  0  0
  -24.8800  -11.8290   20.6800 C   0  0  0  0  0  0  0  0  0  0  0  0
  -26.4830  -13.1140   20.0600 N   0  0  0  0  0  0  0  0  0  0  0  0
  -26.1540  -11.8190   20.3060 N   0  0  0  0  0  0  0  0  0  0  0  0
  -24.1840  -10.5510   20.8790 C   0  0  0  0  0  0  0  0  0  0  0  0
  -24.5820   -9.6420   21.8830 C   0  0  0  0  0  3  0  0  0  0  0  0
  -23.8860   -8.4270   22.0670 C   0  0  0  0  0  3  0  0  0  0  0  0
  -22.7780   -8.1130   21.2450 C   0  0  0  0  0  0  0  0  0  0  0  0
  -22.4010   -9.0120   20.2300 C   0  0  0  0  0  3  0  0  0  0  0  0
  -23.0970  -10.2170   20.0460 C   0  0  0  0  0  3  0  0  0  0  0  0
  -22.0590   -6.9460   21.3330 O   0  0  0  0  0  0  0  0  0  0  0  0
  -21.8230   -6.3360   22.5380 C   0  0  0  0  0  0  0  0  0  0  0  0
  -21.1520   -6.9960   23.5900 C   0  0  0  0  0  3  0  0  0  0  0  0
  -20.8690   -6.3080   24.7880 C   0  0  0  0  0  3  0  0  0  0  0  0
  -21.2490   -4.9600   24.9320 C   0  0  0  0  0  0  0  0  0  0  0  0
  -21.9130   -4.2990   23.8820 C   0  0  0  0  0  3  0  0  0  0  0  0
  -22.1960   -4.9850   22.6890 C   0  0  0  0  0  0  0  0  0  0  0  0
  -22.8170   -4.3370   21.6740 F   0  0  0  0  0  0  0  0  0  0  0  0
  -20.9710   -4.2960   26.0780 F   0  0  0  0  0  0  0  0  0  0  0  0
  -23.0110  -13.6180   21.1200 C   0  0  0  0  0  0  0  0  0  0  0  0
  -22.3440  -12.8970   22.0160 N   0  0  0  0  0  0  0  0  0  0  0  0
  -22.5230  -14.6400   20.6370 O   0  0  0  0  0  0  0  0  0  0  0  0
  -22.7520  -12.0710   22.4280 H   0  0  0  0  0  0  0  0  0  0  0  0
  -21.4150  -13.1770   22.2970 H   0  0  0  0  0  0  0  0  0  0  0  0
  -25.5680  -15.3480   20.2080 N   0  0  0  0  0  0  0  0  0  0  0  0
  -24.7980  -15.9860   20.3730 H   0  0  0  0  0  0  0  0  0  0  0  0
  -26.3980  -15.8100   19.8600 H   0  0  0  0  0  0  0  0  0  0  0  0
  -28.2630  -26.0270   20.0410 C   0  0  0  0  0  2  0  0  0  0  0  0
  -27.8400  -27.0060   19.0790 O   0  0  0  0  0  0  0  0  0  0  0  0
  -24.4920  -31.8140   23.1860 C   0  0  0  0  0  0  0  0  0  0  0  0
  -26.7080  -27.7330   19.3570 C   0  0  0  0  0  0  0  0  0  0  0  0
  -23.0990  -30.6370   21.5160 C   0  0  0  0  0  3  0  0  0  0  0  0
  -24.3690  -29.2570   19.7850 C   0  0  0  0  0  0  0  0  0  0  0  0
  -25.6040  -30.9740   21.1200 C   0  0  0  0  0  2  0  0  0  0  0  0
  -25.5900  -29.6870   20.3210 C   0  0  0  0  0  0  0  0  0  0  0  0
  -26.7650  -28.9280   20.1100 C   0  0  0  0  0  3  0  0  0  0  0  0
  -25.4770  -27.3220   18.8100 C   0  0  0  0  0  3  0  0  0  0  0  0
  -24.3050  -28.0710   19.0330 C   0  0  0  0  0  3  0  0  0  0  0  0
  -23.1580  -30.1240   20.0530 C   0  0  0  0  0  2  0  0  0  0  0  0
  -24.4220  -31.1500   21.9980 N   0  0  0  0  0  0  0  0  0  0  0  0
  -23.4740  -32.0360   23.8560 O   0  0  0  0  0  0  0  0  0  0  0  0
  -22.5160  -29.5180   22.4070 C   0  0  0  0  0  0  0  0  0  0  0  0
  -21.1970  -29.2870   22.2890 N   0  0  0  0  0  0  0  0  0  0  0  0
  -23.2430  -28.8620   23.1570 O   0  0  0  0  0  0  0  0  0  0  0  0
  -20.6690  -29.8720   21.6580 H   0  0  0  0  0  0  0  0  0  0  0  0
  -17.9150  -27.8190   22.6470 C   0  0  0  0  0  0  0  0  0  0  0  0
  -20.4390  -28.2570   22.9970 C   0  0  0  0  0  3  0  0  0  0  0  0
  -20.6660  -26.8650   22.3600 C   0  0  0  0  0  2  0  0  0  0  0  0
  -19.6110  -26.5010   21.3110 C   0  0  0  0  0  2  0  0  0  0  0  0
  -18.2090  -26.5140   21.9290 C   0  0  0  0  0  2  0  0  0  0  0  0
  -18.9610  -28.6450   23.1370 C   0  0  0  0  0  0  0  0  0  0  0  0
  -18.6340  -29.8640   23.7700 C   0  0  0  0  0  3  0  0  0  0  0  0
  -17.2910  -30.2570   23.9220 C   0  0  0  0  0  3  0  0  0  0  0  0
  -16.2590  -29.4290   23.4480 C   0  0  0  0  0  3  0  0  0  0  0  0
  -16.5710  -28.2130   22.8150 C   0  0  0  0  0  3  0  0  0  0  0  0
  -25.8480  -32.3430   23.7490 C   0  0  0  0  0  3  0  0  0  0  0  0
  -25.6370  -33.7340   24.1740 N   0  0  0  0  0  0  0  0  0  0  0  0
  -26.0060  -34.8080   23.4650 C   0  0  0  0  0  0  0  0  0  0  0  0
  -26.6310  -34.7290   22.4040 O   0  0  0  0  0  0  0  0  0  0  0  0
  -25.0770  -33.8740   25.0020 H   0  0  0  0  0  0  0  0  0  0  0  0
  -24.3860  -36.7220   23.2750 C   0  0  0  0  0  1  0  0  0  0  0  0
  -25.6200  -36.1910   24.0230 C   0  0  0  0  0  3  0  0  0  0  0  0
  -27.8260  -36.8860   24.8450 C   0  0  0  0  0  1  0  0  0  0  0  0
  -26.7140  -37.1830   23.9450 N   0  0  0  0  0  0  0  0  0  0  0  0
  -26.3710  -38.1160   24.1610 H   0  0  0  0  0  0  0  0  0  0  0  0
  -26.4090  -31.4740   24.9410 C   0  0  1  0  0  0  0  0  0  0  0  0
  -25.3790  -31.2270   26.0680 C   0  0  0  0  0  1  0  0  0  0  0  0
  -26.8920  -30.0960   24.4300 C   0  0  0  0  0  1  0  0  0  0  0  0
  -27.6420  -32.1720   25.5620 C   0  0  0  0  0  1  0  0  0  0  0  0
  1  2  1  0
  3  1  1  0
  4  8  1  0
  4 10  1  0
  4  7  1  0
  5  2  1  0
  6  3  1  0
  6  5  1  0
  7  5  1  0
  8  7  1  0
  9 53  1  0
  9  8  1  0
  9  6  1  0
 10 12  2  0
 11 10  1  0
 11 14  1  0
 13 11  1  0
 15 14  1  0
 15 16  1  0
 17 16  1  0
 18 23  1  0
 19 20  1  0
 19 18  1  0
 20 21  1  0
 21 28  1  0
 21 22  1  0
 23 17  1  0
 23 22  1  0
 24 17  2  0
 25 26  2  0
 26 45  1  0
 27 26  1  0
 27 30  1  0
 28 29  1  0
 28 25  1  0
 29 27  2  0
 30 31  1  0
 31 32  2  0
 33 36  1  0
 33 32  1  0
 34 33  2  0
 35 34  1  0
 35 30  2  0
 36 37  1  0
 37 42  2  0
 37 38  1  0
 38 39  2  0
 39 40  1  0
 40 44  1  0
 41 40  2  0
 42 41  1  0
 43 42  1  0
 45 46  1  0
 46 49  1  0
 46 48  1  0
 47 45  2  0
 50 25  1  0
 50 51  1  0
 52 50  1  0
 54 56  1  0
 54 53  1  0
 55 81  1  0
 55 66  2  0
 56 61  1  0
 57 65  1  0
 57 67  1  0
 58 64  1  0
 58 60  1  0
 59 65  1  0
 60 59  1  0
 61 60  2  0
 62 63  1  0
 62 56  2  0
 63 58  2  0
 64 57  1  0
 65 55  1  0
 67 69  2  0
 68 67  1  0
 68 72  1  0
 70 68  1  0
 71 80  2  0
 71 76  1  0
 72 76  1  0
 73 72  1  0
 74 75  1  0
 74 73  1  0
 75 71  1  0
 76 77  2  0
 77 78  1  0
 79 78  2  0
 80 79  1  0
 81 82  1  0
 81 91  1  0
 82 85  1  0
 83 87  1  0
 83 82  1  0
 84 83  2  0
 86 87  1  0
 89 87  1  0
 89 90  1  0
 89 88  1  0
 91 94  1  1
 91 92  1  0
 93 91  1  0
M  ISO  4  16 100  17 100  53 101  54 101
M  END
>  <TORSDO>  (53) 
F 21

>  <SCORE>  (53) 
-11.185

>  <name>  (53) 
53

>  <ligand_id>  (53) 
53

>  <original_smiles>  (53) 
[H]c1c([H])c([H])c2c(c1[H])C([H])([H])C([H])([H])C([H])([H])C2([H])N([H])C(=O)C1([H])N(C(=O)C([H])(N([H])C(=O)C([H])(N([H])C([H])([H])[H])C([H])([H])[H])C(C([H])([H])[H])(C([H])([H])[H])C([H])([H])[H])C([H])([H])c2c([H])c(OC([H])([H])C3([H])C4([H])C([H])([H])C([H])([H])C([H])([H])C4([H])C4([H])C([H])(C(=O)N([H])C([H])([H])C([H])([H])C([H])([H])C(=O)N5C([H])([H])C([H])([H])C([H])([H])C([H])(n6nc(-c7c([H])c([H])c(Oc8c([H])c([H])c(F)c([H])c8F)c([H])c7[H])c(C(=O)N([H])[H])c6N([H])[H])C5([H])[H])C34[H])c([H])c([H])c2C1([H])[H]

>  <smiles>  (53) 
[H]c1c([H])c([H])c2c(c1[H])C([H])([H])C([H])([H])C([H])([H])C2([H])N([H])C(=O)C1([H])N(C(=O)C([H])(N([H])C(=O)C([H])(N([H])C([H])([H])[H])C([H])([H])[H])C(C([H])([H])[H])(C([H])([H])[H])C([H])([H])[H])C([H])([H])c2c([H])c(OC([H])([H])C3([H])C4([H])C([H])([H])C([H])([H])C([H])([H])C4([H])C4([H])C([H])(C(=O)N([H])C([H])([H])C([H])([H])C([H])([H])C(=O)N5C([H])([H])C([H])([H])C([H])([H])C([H])(n6nc(-c7c([H])c([H])c(Oc8c([H])c([H])c(F)c([H])c8F)c([H])c7[H])c(C(=O)N([H])[H])c6N([H])[H])C5([H])[H])C34[H])c([H])c([H])c2C1([H])[H]

$$$$
54:0:0
     RDKit          3D

 93100  0  0  1  0  0  0  0  0999 V2000
  -28.9420  -22.1180   20.1820 C   0  0  0  0  0  3  0  0  0  0  0  0
  -27.1190  -21.1800   18.7540 C   0  0  0  0  0  0  0  0  0  0  0  0
  -26.4430  -21.2290   17.3930 C   0  0  0  0  0  1  0  0  0  0  0  0
  -28.1780  -21.9810   18.9380 N   0  0  0  0  0  0  0  0  0  0  0  0
  -26.6870  -20.4270   19.6270 O   0  0  0  0  0  0  0  0  0  0  0  0
  -28.4330  -22.5810   18.1650 H   0  0  0  0  0  0  0  0  0  0  0  0
  -29.3410  -23.7240   20.3540 C   0  0  0  0  0  3  0  0  0  0  0  0
  -28.2240  -24.9420   20.2740 C   0  0  0  0  0  3  0  0  0  0  0  0
  -28.4930  -26.4520   20.3070 O   0  0  0  0  0  0  0  0  0  0  0  0
  -24.6670  -31.9150   23.3410 C   0  0  0  0  0  0  0  0  0  0  0  0
  -27.4010  -27.3750   20.2570 C   0  0  0  0  0  0  0  0  0  0  0  0
  -23.5300  -30.5490   21.6340 C   0  0  0  0  0  3  0  0  0  0  0  0
  -25.0370  -29.0440   20.2100 C   0  0  0  0  0  0  0  0  0  0  0  0
  -26.0790  -30.8700   21.5420 C   0  0  0  0  0  2  0  0  0  0  0  0
  -26.1910  -29.5020   20.8580 C   0  0  0  0  0  0  0  0  0  0  0  0
  -27.3750  -28.6840   20.8670 C   0  0  0  0  0  3  0  0  0  0  0  0
  -26.2210  -27.0090   19.5680 C   0  0  0  0  0  3  0  0  0  0  0  0
  -25.0620  -27.8070   19.5520 C   0  0  0  0  0  3  0  0  0  0  0  0
  -23.7950  -29.9150   20.2440 C   0  0  0  0  0  2  0  0  0  0  0  0
  -24.7760  -31.1300   22.2290 N   0  0  0  0  0  0  0  0  0  0  0  0
  -23.5650  -32.1700   23.8480 O   0  0  0  0  0  0  0  0  0  0  0  0
  -22.8440  -29.5030   22.5480 C   0  0  0  0  0  0  0  0  0  0  0  0
  -21.5210  -29.3250   22.3870 N   0  0  0  0  0  0  0  0  0  0  0  0
  -23.5050  -28.8560   23.3650 O   0  0  0  0  0  0  0  0  0  0  0  0
  -21.0450  -29.8980   21.7030 H   0  0  0  0  0  0  0  0  0  0  0  0
  -18.1280  -28.1470   22.8370 C   0  0  0  0  0  0  0  0  0  0  0  0
  -20.6900  -28.3620   23.1120 C   0  0  0  0  0  3  0  0  0  0  0  0
  -20.7730  -26.9590   22.4660 C   0  0  0  0  0  2  0  0  0  0  0  0
  -19.6640  -26.7020   21.4400 C   0  0  0  0  0  2  0  0  0  0  0  0
  -18.2850  -26.8320   22.0940 C   0  0  0  0  0  2  0  0  0  0  0  0
  -19.2570  -28.8730   23.3020 C   0  0  0  0  0  0  0  0  0  0  0  0
  -19.0550  -30.1060   23.9590 C   0  0  0  0  0  3  0  0  0  0  0  0
  -17.7570  -30.6130   24.1560 C   0  0  0  0  0  3  0  0  0  0  0  0
  -16.6420  -29.8850   23.7070 C   0  0  0  0  0  3  0  0  0  0  0  0
  -16.8280  -28.6540   23.0540 C   0  0  0  0  0  3  0  0  0  0  0  0
  -25.9220  -32.5490   24.0170 C   0  0  0  0  0  3  0  0  0  0  0  0
  -26.3590  -31.8020   25.3370 C   0  0  1  0  0  0  0  0  0  0  0  0
  -25.2030  -31.5910   26.3440 C   0  0  0  0  0  1  0  0  0  0  0  0
  -26.9570  -30.4140   25.0130 C   0  0  0  0  0  1  0  0  0  0  0  0
  -27.4700  -32.6070   26.0510 C   0  0  0  0  0  1  0  0  0  0  0  0
  -25.6120  -33.9580   24.3010 N   0  0  0  0  0  0  0  0  0  0  0  0
  -25.9530  -34.9890   23.5170 C   0  0  0  0  0  0  0  0  0  0  0  0
  -26.6320  -34.8540   22.4950 O   0  0  0  0  0  0  0  0  0  0  0  0
  -25.0110  -34.1370   25.0920 H   0  0  0  0  0  0  0  0  0  0  0  0
  -24.2190  -36.7670   23.1180 C   0  0  0  0  0  1  0  0  0  0  0  0
  -25.4670  -36.3910   23.9320 C   0  0  0  0  0  3  0  0  0  0  0  0
  -27.6050  -37.3080   24.7180 C   0  0  0  0  0  1  0  0  0  0  0  0
  -26.4940  -37.4440   23.7780 N   0  0  0  0  0  0  0  0  0  0  0  0
  -26.0850  -38.3660   23.9070 H   0  0  0  0  0  0  0  0  0  0  0  0
  -30.0360  -20.8660   20.2690 C   0  0  0  0  0  3  0  0  0  0  0  0
  -30.8640  -20.9060   19.0520 N   0  0  0  0  0  4  0  0  0  0  0  0
  -30.3120  -20.6960   18.2390 H   0  0  0  0  0  0  0  0  0  0  0  0
  -31.6130  -20.2400   19.1130 H   0  0  0  0  0  0  0  0  0  0  0  0
  -31.2730  -21.8160   18.9350 H   0  0  0  0  0  0  0  0  0  0  0  0
  -29.5720  -19.2870   20.5170 C   0  0  0  0  0  2  0  0  0  0  0  0
  -30.5720  -17.9650   20.4150 C   0  0  0  0  0  3  0  0  0  0  0  0
  -30.0900  -16.4270   20.8010 C   0  0  0  0  0  3  0  0  0  0  0  0
  -30.9050  -15.0640   20.4080 C   0  0  0  0  0  0  0  0  0  0  0  0
  -30.7550  -12.7620   19.3860 C   0  0  0  0  0  2  0  0  0  0  0  0
  -29.8170  -12.8210   18.1580 C   0  0  0  0  0  2  0  0  0  0  0  0
  -28.3480  -12.6250   18.5800 C   0  0  0  0  0  2  0  0  0  0  0  0
  -27.9620  -13.5090   19.7950 C   0  0  0  0  0  3  0  0  0  0  0  0
  -29.0190  -13.4380   20.9190 C   0  0  0  0  0  2  0  0  0  0  0  0
  -30.3150  -13.8120   20.3400 N   0  0  0  0  0  0  0  0  0  0  0  0
  -32.0810  -15.1690   20.0420 O   0  0  0  0  0  0  0  0  0  0  0  0
  -25.5790  -14.0950   20.5370 C   0  0  0  0  0  0  0  0  0  0  0  0
  -24.5100  -13.3180   20.8900 C   0  0  0  0  0  0  0  0  0  0  0  0
  -24.9660  -11.9660   20.8360 C   0  0  0  0  0  0  0  0  0  0  0  0
  -26.6190  -13.2150   20.2820 N   0  0  0  0  0  0  0  0  0  0  0  0
  -26.2580  -11.9290   20.5270 N   0  0  0  0  0  0  0  0  0  0  0  0
  -24.2320  -10.7040   21.0030 C   0  0  0  0  0  0  0  0  0  0  0  0
  -24.6180   -9.7470   21.9680 C   0  0  0  0  0  3  0  0  0  0  0  0
  -23.8840   -8.5510   22.1220 C   0  0  0  0  0  3  0  0  0  0  0  0
  -22.7510   -8.3030   21.3120 C   0  0  0  0  0  0  0  0  0  0  0  0
  -22.3850   -9.2480   20.3370 C   0  0  0  0  0  3  0  0  0  0  0  0
  -23.1190  -10.4360   20.1800 C   0  0  0  0  0  3  0  0  0  0  0  0
  -21.9930   -7.1590   21.3730 O   0  0  0  0  0  0  0  0  0  0  0  0
  -21.8280   -6.4670   22.5480 C   0  0  0  0  0  0  0  0  0  0  0  0
  -21.2640   -7.0710   23.6930 C   0  0  0  0  0  3  0  0  0  0  0  0
  -21.0470   -6.3060   24.8570 C   0  0  0  0  0  3  0  0  0  0  0  0
  -21.3840   -4.9390   24.8740 C   0  0  0  0  0  0  0  0  0  0  0  0
  -21.9400   -4.3350   23.7330 C   0  0  0  0  0  3  0  0  0  0  0  0
  -22.1580   -5.0980   22.5710 C   0  0  0  0  0  0  0  0  0  0  0  0
  -22.6760   -4.5070   21.4670 F   0  0  0  0  0  0  0  0  0  0  0  0
  -21.1690   -4.2010   25.9880 F   0  0  0  0  0  0  0  0  0  0  0  0
  -23.1140  -13.7970   21.1680 C   0  0  0  0  0  0  0  0  0  0  0  0
  -22.3850  -13.0940   22.0280 N   0  0  0  0  0  0  0  0  0  0  0  0
  -22.6800  -14.8290   20.6590 O   0  0  0  0  0  0  0  0  0  0  0  0
  -22.7510  -12.2590   22.4610 H   0  0  0  0  0  0  0  0  0  0  0  0
  -21.4490  -13.3960   22.2580 H   0  0  0  0  0  0  0  0  0  0  0  0
  -25.7510  -15.4670   20.3860 N   0  0  0  0  0  0  0  0  0  0  0  0
  -24.9890  -16.1240   20.5150 H   0  0  0  0  0  0  0  0  0  0  0  0
  -26.6070  -15.9090   20.0770 H   0  0  0  0  0  0  0  0  0  0  0  0
  1 50  1  0
  1  7  1  0
  2  4  1  0
  2  5  2  0
  3  2  1  0
  4  1  1  0
  6  4  1  0
  8  9  1  0
  8  7  2  0
 10 21  2  0
 11  9  1  0
 11 16  1  0
 12 20  1  0
 12 22  1  0
 13 19  1  0
 13 15  1  0
 14 20  1  0
 15 16  2  0
 15 14  1  0
 17 11  2  0
 18 17  1  0
 18 13  2  0
 19 12  1  0
 20 10  1  0
 22 24  2  0
 23 22  1  0
 25 23  1  0
 26 35  2  0
 26 31  1  0
 27 23  1  0
 27 31  1  0
 28 27  1  0
 29 30  1  0
 29 28  1  0
 30 26  1  0
 31 32  2  0
 32 33  1  0
 34 33  2  0
 35 34  1  0
 36 10  1  0
 36 41  1  0
 36 37  1  0
 37 40  1  1
 37 38  1  0
 39 37  1  0
 41 44  1  0
 42 46  1  0
 42 41  1  0
 43 42  2  0
 46 45  1  0
 48 49  1  0
 48 46  1  0
 48 47  1  0
 50 55  1  0
 51 53  1  0
 51 50  1  0
 52 51  1  0
 54 51  1  0
 56 55  1  0
 56 57  2  0
 58 57  1  0
 59 64  1  0
 60 61  1  0
 60 59  1  0
 62 61  1  0
 62 69  1  0
 62 63  1  0
 64 58  1  0
 64 63  1  0
 65 58  2  0
 66 67  2  0
 67 86  1  0
 68 67  1  0
 68 71  1  0
 69 70  1  0
 69 66  1  0
 70 68  2  0
 71 72  1  0
 72 73  2  0
 74 77  1  0
 74 73  1  0
 75 74  2  0
 76 75  1  0
 76 71  2  0
 77 78  1  0
 78 83  2  0
 78 79  1  0
 79 80  2  0
 80 81  1  0
 81 85  1  0
 82 81  2  0
 83 82  1  0
 84 83  1  0
 86 87  1  0
 87 90  1  0
 87 89  1  0
 88 86  2  0
 91 92  1  0
 91 66  1  0
 93 91  1  0
M  ISO  4   8 101   9 101  57 100  58 100
M  END
>  <TORSDO>  (54) 
F 24

>  <SCORE>  (54) 
-11.900

>  <name>  (54) 
54

>  <ligand_id>  (54) 
54

>  <original_smiles>  (54) 
[H]c1c([H])c([H])c2c(c1[H])C([H])([H])C([H])([H])C([H])([H])C2([H])N([H])C(=O)C1([H])N(C(=O)C([H])(N([H])C(=O)C([H])(N([H])C([H])([H])[H])C([H])([H])[H])C(C([H])([H])[H])(C([H])([H])[H])C([H])([H])[H])C([H])([H])c2c([H])c(OC([H])([H])C([H])([H])C([H])(N([H])C(=O)C([H])([H])[H])C([H])(C([H])([H])C([H])([H])C([H])([H])C(=O)N3C([H])([H])C([H])([H])C([H])([H])C([H])(n4nc(-c5c([H])c([H])c(Oc6c([H])c([H])c(F)c([H])c6F)c([H])c5[H])c(C(=O)N([H])[H])c4N([H])[H])C3([H])[H])[N+]([H])([H])[H])c([H])c([H])c2C1([H])[H]

>  <smiles>  (54) 
[H]c1c([H])c([H])c2c(c1[H])C([H])([H])C([H])([H])C([H])([H])C2([H])N([H])C(=O)C1([H])N(C(=O)C([H])(N([H])C(=O)C([H])(N([H])C([H])([H])[H])C([H])([H])[H])C(C([H])([H])[H])(C([H])([H])[H])C([H])([H])[H])C([H])([H])c2c([H])c(OC([H])([H])C([H])([H])C([H])(N([H])C(=O)C([H])([H])[H])C([H])(C([H])([H])C([H])([H])C([H])([H])C(=O)N3C([H])([H])C([H])([H])C([H])([H])C([H])(n4nc(-c5c([H])c([H])c(Oc6c([H])c([H])c(F)c([H])c6F)c([H])c5[H])c(C(=O)N([H])[H])c4N([H])[H])C3([H])[H])[N+]([H])([H])[H])c([H])c([H])c2C1([H])[H]

$$$$
55:0:0
     RDKit          3D

 94103  0  0  1  0  0  0  0  0999 V2000
  -29.2990  -19.1570   18.2100 C   0  0  0  0  0  1  0  0  0  0  0  0
  -29.0450  -19.8110   19.5760 C   0  0  0  0  0  3  0  0  0  0  0  0
  -32.3730  -20.3210   23.7780 C   0  0  0  0  0  2  0  0  0  0  0  0
  -32.8150  -20.7340   22.3750 C   0  0  0  0  0  2  0  0  0  0  0  0
  -31.9480  -18.8470   23.8350 C   0  0  0  0  0  2  0  0  0  0  0  0
  -31.6090  -20.6210   21.4400 C   0  0  0  0  0  2  0  0  0  0  0  0
  -30.0420  -17.4650   22.6980 C   0  0  0  0  0  2  0  0  0  0  0  0
  -29.5390  -17.2440   21.2490 C   0  0  0  0  0  3  0  0  0  0  0  0
  -31.3570  -18.2590   22.5250 C   0  0  0  0  0  3  0  0  0  0  0  0
  -31.1880  -19.1540   21.2480 C   0  0  0  0  0  3  0  0  0  0  0  0
  -29.7310  -18.8730   20.7940 C   0  0  0  0  0  3  0  0  0  0  0  0
  -30.3830  -15.8660   20.8710 C   0  0  0  0  0  0  0  0  0  0  0  0
  -30.5970  -13.3820   20.3960 C   0  0  0  0  0  2  0  0  0  0  0  0
  -29.8800  -13.0590   19.0670 C   0  0  0  0  0  2  0  0  0  0  0  0
  -28.3820  -12.7920   19.3090 C   0  0  0  0  0  2  0  0  0  0  0  0
  -27.7350  -13.8430   20.2470 C   0  0  0  0  0  3  0  0  0  0  0  0
  -28.6000  -14.1370   21.4940 C   0  0  0  0  0  2  0  0  0  0  0  0
  -29.9220  -14.5600   21.0140 N   0  0  0  0  0  0  0  0  0  0  0  0
  -31.5460  -15.9820   20.4690 O   0  0  0  0  0  0  0  0  0  0  0  0
  -25.2600  -14.3240   20.6800 C   0  0  0  0  0  0  0  0  0  0  0  0
  -24.1940  -13.5050   20.9390 C   0  0  0  0  0  0  0  0  0  0  0  0
  -24.7170  -12.1770   20.9870 C   0  0  0  0  0  0  0  0  0  0  0  0
  -26.3620  -13.4890   20.5900 N   0  0  0  0  0  0  0  0  0  0  0  0
  -26.0360  -12.1920   20.8330 N   0  0  0  0  0  0  0  0  0  0  0  0
  -24.0290  -10.8860   21.1230 C   0  0  0  0  0  0  0  0  0  0  0  0
  -24.4230   -9.9350   22.0880 C   0  0  0  0  0  3  0  0  0  0  0  0
  -23.7310   -8.7090   22.2090 C   0  0  0  0  0  3  0  0  0  0  0  0
  -22.6320   -8.4280   21.3660 C   0  0  0  0  0  0  0  0  0  0  0  0
  -22.2600   -9.3700   20.3910 C   0  0  0  0  0  3  0  0  0  0  0  0
  -22.9510  -10.5850   20.2680 C   0  0  0  0  0  3  0  0  0  0  0  0
  -21.9180   -7.2530   21.3940 O   0  0  0  0  0  0  0  0  0  0  0  0
  -21.8390   -6.4880   22.5280 C   0  0  0  0  0  0  0  0  0  0  0  0
  -21.3370   -7.0030   23.7410 C   0  0  0  0  0  3  0  0  0  0  0  0
  -21.2040   -6.1620   24.8630 C   0  0  0  0  0  3  0  0  0  0  0  0
  -21.5620   -4.8050   24.7740 C   0  0  0  0  0  0  0  0  0  0  0  0
  -22.0560   -4.2870   23.5640 C   0  0  0  0  0  3  0  0  0  0  0  0
  -22.1880   -5.1260   22.4440 C   0  0  0  0  0  0  0  0  0  0  0  0
  -22.6450   -4.6150   21.2750 F   0  0  0  0  0  0  0  0  0  0  0  0
  -21.4280   -3.9940   25.8510 F   0  0  0  0  0  0  0  0  0  0  0  0
  -22.7550  -13.9220   21.0450 C   0  0  0  0  0  0  0  0  0  0  0  0
  -21.9730  -13.2100   21.8470 N   0  0  0  0  0  0  0  0  0  0  0  0
  -22.3340  -14.9140   20.4480 O   0  0  0  0  0  0  0  0  0  0  0  0
  -22.3320  -12.4090   22.3460 H   0  0  0  0  0  0  0  0  0  0  0  0
  -21.0020  -13.4690   21.9620 H   0  0  0  0  0  0  0  0  0  0  0  0
  -25.3900  -15.6960   20.4890 N   0  0  0  0  0  0  0  0  0  0  0  0
  -24.6000  -16.3320   20.4860 H   0  0  0  0  0  0  0  0  0  0  0  0
  -26.2580  -16.1560   20.2430 H   0  0  0  0  0  0  0  0  0  0  0  0
  -29.3410  -21.3680   19.4820 N   0  0  0  0  0  4  0  0  0  0  0  0
  -29.6070  -21.6620   20.4080 H   0  0  0  0  0  0  0  0  0  0  0  0
  -30.1620  -21.4640   18.9040 H   0  0  0  0  0  0  0  0  0  0  0  0
  -28.3230  -22.4650   18.9740 C   0  0  0  0  0  2  0  0  0  0  0  0
  -28.7310  -24.0910   18.8030 C   0  0  0  0  0  3  0  0  0  0  0  0
  -27.6340  -25.3420   18.6200 C   0  0  0  0  0  3  0  0  0  0  0  0
  -27.8940  -26.8660   18.7060 O   0  0  0  0  0  0  0  0  0  0  0  0
  -24.6050  -31.7870   23.0800 C   0  0  0  0  0  0  0  0  0  0  0  0
  -26.8240  -27.7980   18.9450 C   0  0  0  0  0  0  0  0  0  0  0  0
  -23.2280  -30.6990   21.3530 C   0  0  0  0  0  3  0  0  0  0  0  0
  -24.5020  -29.4480   19.5030 C   0  0  0  0  0  0  0  0  0  0  0  0
  -25.7450  -31.0400   20.9580 C   0  0  0  0  0  2  0  0  0  0  0  0
  -25.7410  -29.7990   20.0520 C   0  0  0  0  0  0  0  0  0  0  0  0
  -26.9030  -28.9900   19.7640 C   0  0  0  0  0  3  0  0  0  0  0  0
  -25.5510  -27.5410   18.3860 C   0  0  0  0  0  3  0  0  0  0  0  0
  -24.4160  -28.3310   18.6570 C   0  0  0  0  0  3  0  0  0  0  0  0
  -23.2880  -30.2950   19.8550 C   0  0  0  0  0  2  0  0  0  0  0  0
  -24.5510  -31.1880   21.8520 N   0  0  0  0  0  0  0  0  0  0  0  0
  -23.5860  -31.9440   23.7730 O   0  0  0  0  0  0  0  0  0  0  0  0
  -22.6640  -29.5120   22.1770 C   0  0  0  0  0  0  0  0  0  0  0  0
  -21.3410  -29.2950   22.1000 N   0  0  0  0  0  0  0  0  0  0  0  0
  -23.4170  -28.8020   22.8490 O   0  0  0  0  0  0  0  0  0  0  0  0
  -20.7870  -29.9320   21.5450 H   0  0  0  0  0  0  0  0  0  0  0  0
  -18.0760  -27.7700   22.4890 C   0  0  0  0  0  0  0  0  0  0  0  0
  -20.6100  -28.2030   22.7530 C   0  0  0  0  0  3  0  0  0  0  0  0
  -20.8110  -26.8650   22.0040 C   0  0  0  0  0  2  0  0  0  0  0  0
  -19.7140  -26.5830   20.9700 C   0  0  0  0  0  2  0  0  0  0  0  0
  -18.3410  -26.5360   21.6440 C   0  0  0  0  0  2  0  0  0  0  0  0
  -19.1410  -28.5610   22.9960 C   0  0  0  0  0  0  0  0  0  0  0  0
  -18.8340  -29.7180   23.7450 C   0  0  0  0  0  3  0  0  0  0  0  0
  -17.4970  -30.0830   23.9930 C   0  0  0  0  0  3  0  0  0  0  0  0
  -16.4480  -29.2900   23.4980 C   0  0  0  0  0  3  0  0  0  0  0  0
  -16.7390  -28.1340   22.7520 C   0  0  0  0  0  3  0  0  0  0  0  0
  -25.9480  -32.3150   23.6710 C   0  0  0  0  0  3  0  0  0  0  0  0
  -25.6720  -33.6000   24.3290 N   0  0  0  0  0  0  0  0  0  0  0  0
  -25.9900  -34.8000   23.8240 C   0  0  0  0  0  0  0  0  0  0  0  0
  -26.6120  -34.9300   22.7660 O   0  0  0  0  0  0  0  0  0  0  0  0
  -25.1130  -33.5680   25.1680 H   0  0  0  0  0  0  0  0  0  0  0  0
  -24.2920  -36.6590   23.9610 C   0  0  0  0  0  1  0  0  0  0  0  0
  -25.5460  -36.0510   24.6120 C   0  0  0  0  0  3  0  0  0  0  0  0
  -27.7290  -36.6790   25.5470 C   0  0  0  0  0  1  0  0  0  0  0  0
  -26.6000  -37.0850   24.7180 N   0  0  0  0  0  0  0  0  0  0  0  0
  -26.2210  -37.9510   25.0920 H   0  0  0  0  0  0  0  0  0  0  0  0
  -26.6190  -31.3080   24.6870 C   0  0  1  0  0  0  0  0  0  0  0  0
  -25.6740  -30.8160   25.8100 C   0  0  0  0  0  1  0  0  0  0  0  0
  -27.1550  -30.0550   23.9530 C   0  0  0  0  0  1  0  0  0  0  0  0
  -27.8420  -31.9840   25.3550 C   0  0  0  0  0  1  0  0  0  0  0  0
  2  1  1  0
  3  5  1  0
  4  3  1  0
  6  4  1  0
  8 12  1  0
  8  7  1  0
  9  7  1  0
  9  5  1  0
 10  6  1  0
 10  9  1  0
 11  2  1  0
 11 10  1  0
 11  8  1  0
 12 18  1  0
 13 18  1  0
 14 15  1  0
 14 13  1  0
 16 15  1  0
 16 23  1  0
 16 17  1  0
 18 17  1  0
 19 12  2  0
 20 21  2  0
 21 22  1  0
 21 40  1  0
 22 25  1  0
 23 20  1  0
 23 24  1  0
 24 22  2  0
 25 26  1  0
 26 27  2  0
 28 31  1  0
 28 27  1  0
 29 28  2  0
 30 29  1  0
 30 25  2  0
 31 32  1  0
 32 33  1  0
 33 34  2  0
 35 34  1  0
 35 39  1  0
 36 35  2  0
 37 32  2  0
 37 36  1  0
 38 37  1  0
 40 41  1  0
 41 44  1  0
 41 43  1  0
 42 40  2  0
 45 20  1  0
 46 45  1  0
 47 45  1  0
 48  2  1  0
 48 49  1  0
 50 48  1  0
 51 48  1  0
 52 51  1  0
 53 54  1  0
 53 52  2  0
 54 56  1  0
 55 66  2  0
 56 61  1  0
 57 65  1  0
 57 67  1  0
 58 64  1  0
 58 60  1  0
 59 65  1  0
 60 59  1  0
 61 60  2  0
 62 63  1  0
 62 56  2  0
 63 58  2  0
 64 57  1  0
 65 55  1  0
 67 69  2  0
 68 67  1  0
 70 68  1  0
 71 80  2  0
 71 76  1  0
 72 68  1  0
 72 76  1  0
 73 72  1  0
 74 75  1  0
 74 73  1  0
 75 71  1  0
 76 77  2  0
 77 78  1  0
 79 78  2  0
 80 79  1  0
 81 55  1  0
 81 82  1  0
 81 91  1  0
 82 85  1  0
 83 82  1  0
 83 87  1  0
 84 83  2  0
 87 86  1  0
 87 89  1  0
 89 90  1  0
 89 88  1  0
 91 94  1  1
 91 92  1  0
 93 91  1  0
M  ISO  4   8 100  12 100  53 101  54 101
M  END
>  <TORSDO>  (55) 
F 21

>  <SCORE>  (55) 
-9.611

>  <name>  (55) 
55

>  <ligand_id>  (55) 
55

>  <original_smiles>  (55) 
[H]c1c([H])c([H])c2c(c1[H])C([H])([H])C([H])([H])C([H])([H])C2([H])N([H])C(=O)C1([H])N(C(=O)C([H])(N([H])C(=O)C([H])(N([H])C([H])([H])[H])C([H])([H])[H])C(C([H])([H])[H])(C([H])([H])[H])C([H])([H])[H])C([H])([H])c2c([H])c(OC([H])([H])C([H])([H])C([H])([H])[N+]([H])([H])C([H])(C([H])([H])[H])C3([H])C([H])(C(=O)N4C([H])([H])C([H])([H])C([H])([H])C([H])(n5nc(-c6c([H])c([H])c(Oc7c([H])c([H])c(F)c([H])c7F)c([H])c6[H])c(C(=O)N([H])[H])c5N([H])[H])C4([H])[H])C([H])([H])C4([H])C([H])([H])C([H])([H])C([H])([H])C([H])([H])C43[H])c([H])c([H])c2C1([H])[H]

>  <smiles>  (55) 
[H]c1c([H])c([H])c2c(c1[H])C([H])([H])C([H])([H])C([H])([H])C2([H])N([H])C(=O)C1([H])N(C(=O)C([H])(N([H])C(=O)C([H])(N([H])C([H])([H])[H])C([H])([H])[H])C(C([H])([H])[H])(C([H])([H])[H])C([H])([H])[H])C([H])([H])c2c([H])c(OC([H])([H])C([H])([H])C([H])([H])[N+]([H])([H])C([H])(C([H])([H])[H])C3([H])C([H])(C(=O)N4C([H])([H])C([H])([H])C([H])([H])C([H])(n5nc(-c6c([H])c([H])c(Oc7c([H])c([H])c(F)c([H])c7F)c([H])c6[H])c(C(=O)N([H])[H])c5N([H])[H])C4([H])[H])C([H])([H])C4([H])C([H])([H])C([H])([H])C([H])([H])C([H])([H])C43[H])c([H])c([H])c2C1([H])[H]

$$$$
56:0:0
     RDKit          3D

 97 96  0  0  1  0  0  0  0  0999 V2000
  -20.3680  -23.5680   21.6730 C   0  0  0  0  0 15  0  0  0  0  0  0
  -22.4880  -23.6180   21.2490 C   0  0  0  0  0 15  0  0  0  0  0  0
  -19.1090  -24.8160   20.4770 C   0  0  0  0  0 15  0  0  0  0  0  0
  -18.1440  -24.4690   18.1340 C   0  0  0  0  0  1  0  0  0  0  0  0
  -19.8670  -25.4600   16.9430 C   0  0  0  0  0  1  0  0  0  0  0  0
  -21.9670  -25.4690   17.8520 C   0  0  0  0  0  1  0  0  0  0  0  0
  -23.3450  -24.4070   19.4700 C   0  0  0  0  0  1  0  0  0  0  0  0
  -21.2510  -26.3410   18.9680 C   0  0  0  0  0  1  0  0  0  0  0  0
  -18.6740  -24.5120   16.6070 C   0  0  2  0  0  0  0  0  0  0  0  0
  -17.6970  -25.1670   15.6240 C   0  0  0  0  0  1  0  0  0  0  0  0
  -19.0060  -23.1820   15.8970 C   0  0  0  0  0  1  0  0  0  0  0  0
  -24.8620  -23.3900   19.0970 C   0  0  0  0  0  3  0  0  0  0  0  0
  -26.3420  -22.7150   19.9960 C   0  0  0  0  0  3  0  0  0  0  0  0
  -27.5410  -21.5690   19.5990 N   0  0  0  0  0  4  0  0  0  0  0  0
  -28.3600  -22.1290   19.4290 H   0  0  0  0  0  0  0  0  0  0  0  0
  -27.2720  -21.2240   18.6930 H   0  0  0  0  0  0  0  0  0  0  0  0
  -28.1340  -20.1910   20.4130 C   0  0  0  0  0  3  0  0  0  0  0  0
  -28.9110  -18.5870   19.8690 C   0  0  0  0  0  3  0  0  0  0  0  0
  -29.2900  -16.9580   20.6770 C   0  0  0  0  0  2  0  0  0  0  0  0
  -30.5340  -15.6350   20.7250 C   0  0  0  0  0  0  0  0  0  0  0  0
  -31.1350  -13.0810   20.5560 C   0  0  0  0  0  2  0  0  0  0  0  0
  -30.5110  -12.4960   19.2560 C   0  0  0  0  0  2  0  0  0  0  0  0
  -28.9940  -12.2590   19.4210 C   0  0  0  0  0  2  0  0  0  0  0  0
  -28.3170  -13.4300   20.1740 C   0  0  0  0  0  3  0  0  0  0  0  0
  -29.0490  -13.7610   21.4730 C   0  0  0  0  0  2  0  0  0  0  0  0
  -30.3170  -14.2700   21.0120 N   0  0  0  0  0  0  0  0  0  0  0  0
  -31.7630  -15.8240   20.5650 O   0  0  0  0  0  0  0  0  0  0  0  0
  -25.9120  -14.1670   20.4570 C   0  0  0  0  0  0  0  0  0  0  0  0
  -24.7680  -13.4670   20.7020 C   0  0  0  0  0  0  0  0  0  0  0  0
  -25.1630  -12.1020   20.8480 C   0  0  0  0  0  0  0  0  0  0  0  0
  -26.9190  -13.2230   20.4420 N   0  0  0  0  0  0  0  0  0  0  0  0
  -26.4780  -11.9830   20.7530 N   0  0  0  0  0  0  0  0  0  0  0  0
  -24.3590  -10.8890   21.0050 C   0  0  0  0  0  0  0  0  0  0  0  0
  -24.7900   -9.8180   21.8180 C   0  0  0  0  0  3  0  0  0  0  0  0
  -23.9840   -8.6690   21.9650 C   0  0  0  0  0  3  0  0  0  0  0  0
  -22.7390   -8.5860   21.2980 C   0  0  0  0  0  0  0  0  0  0  0  0
  -22.3310   -9.6460   20.4700 C   0  0  0  0  0  3  0  0  0  0  0  0
  -23.1340  -10.7870   20.3190 C   0  0  0  0  0  3  0  0  0  0  0  0
  -21.9020   -7.5000   21.3640 O   0  0  0  0  0  0  0  0  0  0  0  0
  -21.5600   -6.9290   22.5620 C   0  0  0  0  0  0  0  0  0  0  0  0
  -20.9550   -7.6720   23.5990 C   0  0  0  0  0  3  0  0  0  0  0  0
  -20.5560   -7.0270   24.7880 C   0  0  0  0  0  3  0  0  0  0  0  0
  -20.7540   -5.6420   24.9380 C   0  0  0  0  0  0  0  0  0  0  0  0
  -21.3480   -4.8980   23.9040 C   0  0  0  0  0  3  0  0  0  0  0  0
  -21.7490   -5.5400   22.7190 C   0  0  0  0  0  0  0  0  0  0  0  0
  -22.3030   -4.8150   21.7170 F   0  0  0  0  0  0  0  0  0  0  0  0
  -20.3620   -5.0220   26.0760 F   0  0  0  0  0  0  0  0  0  0  0  0
  -23.3770  -14.0220   20.6950 C   0  0  0  0  0  0  0  0  0  0  0  0
  -22.5180  -13.5330   21.5810 N   0  0  0  0  0  0  0  0  0  0  0  0
  -23.0600  -14.9330   19.9310 O   0  0  0  0  0  0  0  0  0  0  0  0
  -22.7880  -12.8040   22.2240 H   0  0  0  0  0  0  0  0  0  0  0  0
  -21.5760  -13.8960   21.6160 H   0  0  0  0  0  0  0  0  0  0  0  0
  -26.1660  -15.5150   20.2220 N   0  0  0  0  0  0  0  0  0  0  0  0
  -25.4030  -16.1790   20.1470 H   0  0  0  0  0  0  0  0  0  0  0  0
  -27.0650  -15.9170   19.9930 H   0  0  0  0  0  0  0  0  0  0  0  0
  -23.0800  -27.1580   19.3910 C   0  0  0  0  0  1  0  0  0  0  0  0
  -24.7490  -27.3110   20.1040 O   0  0  0  0  0  0  0  0  0  0  0  0
  -24.4420  -32.1130   23.5010 C   0  0  0  0  0  0  0  0  0  0  0  0
  -25.9740  -28.0310   19.7530 C   0  0  0  0  0  3  0  0  0  0  0  0
  -23.2110  -31.1410   21.6400 C   0  0  0  0  0  3  0  0  0  0  0  0
  -24.5910  -30.2180   19.6360 C   0  0  0  0  0  3  0  0  0  0  0  0
  -25.7360  -31.4090   21.4880 C   0  0  0  0  0  2  0  0  0  0  0  0
  -25.6670  -30.2560   20.5150 C   0  0  0  0  0  3  0  0  0  0  0  0
  -26.4920  -29.1240   20.5220 C   0  0  0  0  0  2  0  0  0  0  0  0
  -25.6710  -28.3730   18.4620 C   0  0  0  0  0  2  0  0  0  0  0  0
  -24.6710  -29.3600   18.5010 C   0  0  0  0  0  2  0  0  0  0  0  0
  -23.3570  -30.9860   20.0750 C   0  0  0  0  0  2  0  0  0  0  0  0
  -24.4810  -31.6090   22.2410 N   0  0  0  0  0  0  0  0  0  0  0  0
  -23.3700  -32.2600   24.1090 O   0  0  0  0  0  0  0  0  0  0  0  0
  -22.7430  -29.9040   22.4670 C   0  0  0  0  0  0  0  0  0  0  0  0
  -21.6260  -29.9670   23.1400 N   0  0  0  0  0  0  0  0  0  0  0  0
  -23.3550  -28.8350   22.4720 O   0  0  0  0  0  0  0  0  0  0  0  0
  -21.1490  -30.8580   23.1940 H   0  0  0  0  0  0  0  0  0  0  0  0
  -18.7160  -29.1280   22.6750 C   0  0  0  0  0  3  0  0  0  0  0  0
  -20.9690  -28.8840   23.8970 C   0  0  0  0  0  3  0  0  0  0  0  0
  -21.1820  -27.1410   23.5010 C   0  0  0  0  0  1  0  0  0  0  0  0
  -19.6990  -26.0010   22.1650 C   0  0  0  0  0  3  0  0  0  0  0  0
  -18.7640  -26.5940   21.8200 C   0  0  0  0  0  3  0  0  0  0  0  0
  -19.6390  -29.6390   23.7270 C   0  0  0  0  0  0  0  0  0  0  0  0
  -19.4520  -30.6770   24.7360 C   0  0  0  0  0  3  0  0  0  0  0  0
  -18.2340  -31.2810   25.0630 C   0  0  0  0  0  3  0  0  0  0  0  0
  -17.1870  -30.8430   24.2820 C   0  0  0  0  0  3  0  0  0  0  0  0
  -17.4710  -29.9450   23.1850 C   0  0  0  0  0  3  0  0  0  0  0  0
  -25.7430  -32.5490   24.2120 C   0  0  0  0  0  3  0  0  0  0  0  0
  -25.6100  -33.9910   24.4260 N   0  0  0  0  0  0  0  0  0  0  0  0
  -26.0870  -34.9220   23.5930 C   0  0  0  0  0  0  0  0  0  0  0  0
  -26.7800  -34.6480   22.6090 O   0  0  0  0  0  0  0  0  0  0  0  0
  -25.0000  -34.2820   25.1750 H   0  0  0  0  0  0  0  0  0  0  0  0
  -24.6000  -36.8640   23.0160 C   0  0  0  0  0  1  0  0  0  0  0  0
  -25.7520  -36.3880   23.9130 C   0  0  0  0  0  3  0  0  0  0  0  0
  -27.9330  -37.0900   24.7900 C   0  0  0  0  0  1  0  0  0  0  0  0
  -26.9100  -37.2950   23.7690 N   0  0  0  0  0  0  0  0  0  0  0  0
  -26.6120  -38.2660   23.8090 H   0  0  0  0  0  0  0  0  0  0  0  0
  -25.9940  -31.7940   25.5730 C   0  0  1  0  0  0  0  0  0  0  0  0
  -24.7630  -31.7610   26.5090 C   0  0  0  0  0  1  0  0  0  0  0  0
  -26.4400  -30.3320   25.3290 C   0  0  0  0  0  1  0  0  0  0  0  0
  -27.1510  -32.4880   26.3260 C   0  0  0  0  0  1  0  0  0  0  0  0
  6  8  1  0
  9  5  1  1
  9  4  1  0
 10  9  1  0
 11  9  1  0
 12  7  1  0
 12 13  2  0
 14 13  1  0
 14 17  1  0
 15 14  1  0
 16 14  1  0
 18 17  2  0
 18 19  1  0
 19 20  1  0
 20 26  1  0
 21 26  1  0
 22 23  1  0
 22 21  1  0
 24 23  1  0
 24 31  1  0
 24 25  1  0
 26 25  1  0
 27 20  2  0
 28 29  2  0
 29 30  1  0
 30 33  1  0
 31 28  1  0
 31 32  1  0
 32 30  2  0
 33 34  1  0
 34 35  2  0
 36 39  1  0
 36 35  1  0
 37 36  2  0
 38 37  1  0
 38 33  2  0
 39 40  1  0
 40 45  2  0
 40 41  1  0
 41 42  2  0
 42 43  1  0
 43 47  1  0
 44 43  2  0
 45 44  1  0
 46 45  1  0
 48 29  1  0
 48 49  1  0
 49 52  1  0
 49 51  1  0
 50 48  2  0
 53 28  1  0
 54 53  1  0
 55 53  1  0
 56 57  1  0
 58 69  2  0
 59 57  1  0
 59 64  1  0
 60 68  1  0
 60 70  1  0
 61 66  1  0
 61 67  1  0
 61 63  1  0
 62 68  1  0
 63 64  1  0
 63 62  1  0
 65 66  1  0
 65 59  1  0
 67 60  1  0
 68 58  1  0
 70 72  2  0
 70 71  1  0
 71 73  1  0
 71 75  1  0
 74 83  2  0
 74 79  1  0
 75 76  1  0
 78 77  3  0
 79 75  1  0
 79 80  2  0
 80 81  1  0
 82 81  2  0
 83 82  1  0
 84 58  1  0
 84 85  1  0
 84 94  1  0
 85 88  1  0
 86 90  1  0
 86 85  1  0
 87 86  2  0
 90 89  1  0
 92 93  1  0
 92 90  1  0
 92 91  1  0
 94 97  1  1
 94 95  1  0
 96 94  1  0
M  ISO  4  19 100  20 100  56 101  57 101
M  END
>  <TORSDO>  (56) 
F 23

>  <SCORE>  (56) 
-9.215

>  <name>  (56) 
56

>  <ligand_id>  (56) 
56

>  <original_smiles>  (56) 
[H]c1c([H])c([H])c2c(c1[H])C([H])([H])C([H])([H])C([H])([H])C2([H])N([H])C(=O)C1([H])N(C(=O)C([H])(N([H])C(=O)C([H])(N([H])C([H])([H])[H])C([H])([H])[H])C(C([H])([H])[H])(C([H])([H])[H])C([H])([H])[H])C([H])([H])c2c([H])c(OC([H])([H])C3([H])C4([H])C([H])([H])C([H])([H])C([H])(C([H])([H])C([H])([H])[N+]([H])([H])C([H])([H])C([H])([H])C([H])([H])C(=O)N5C([H])([H])C([H])([H])C([H])([H])C([H])(n6nc(-c7c([H])c([H])c(Oc8c([H])c([H])c(F)c([H])c8F)c([H])c7[H])c(C(=O)N([H])[H])c6N([H])[H])C5([H])[H])C3([H])C3([H])C4([H])C3(C([H])([H])[H])C([H])([H])[H])c([H])c([H])c2C1([H])[H]

>  <smiles>  (56) 
[H]c1c([H])c([H])c2c(c1[H])C([H])([H])C([H])([H])C([H])([H])C2([H])N([H])C(=O)C1([H])N(C(=O)C([H])(N([H])C(=O)C([H])(N([H])C([H])([H])[H])C([H])([H])[H])C(C([H])([H])[H])(C([H])([H])[H])C([H])([H])[H])C([H])([H])c2c([H])c(OC([H])([H])C3([H])C4([H])C([H])([H])C([H])([H])C([H])(C([H])([H])C([H])([H])[N+]([H])([H])C([H])([H])C([H])([H])C([H])([H])C(=O)N5C([H])([H])C([H])([H])C([H])([H])C([H])(n6nc(-c7c([H])c([H])c(Oc8c([H])c([H])c(F)c([H])c8F)c([H])c7[H])c(C(=O)N([H])[H])c6N([H])[H])C5([H])[H])C3([H])C3([H])C4([H])C3(C([H])([H])[H])C([H])([H])[H])c([H])c([H])c2C1([H])[H]

$$$$
57:0:0
     RDKit          3D

 87 95  0  0  1  0  0  0  0  0999 V2000
  -30.5590  -20.9500   22.4150 C   0  0  0  0  0  2  0  0  0  0  0  0
  -29.9680  -19.5460   22.1200 C   0  0  0  0  0  2  0  0  0  0  0  0
  -29.6420  -22.1380   22.0210 C   0  0  0  0  0  2  0  0  0  0  0  0
  -29.6880  -20.7420   19.8500 C   0  0  0  0  0  2  0  0  0  0  0  0
  -29.5840  -19.2900   20.6360 C   0  0  0  0  0  3  0  0  0  0  0  0
  -29.0960  -22.1120   20.5670 C   0  0  0  0  0  3  0  0  0  0  0  0
  -30.2650  -17.8680   20.0890 C   0  0  0  0  0  3  0  0  0  0  0  0
  -29.8760  -16.3490   20.6570 C   0  0  0  0  0  3  0  0  0  0  0  0
  -30.6250  -14.9580   20.2130 C   0  0  0  0  0  0  0  0  0  0  0  0
  -30.4510  -12.6420   19.2120 C   0  0  0  0  0  2  0  0  0  0  0  0
  -29.5050  -12.6760   17.9910 C   0  0  0  0  0  2  0  0  0  0  0  0
  -28.0460  -12.4720   18.4410 C   0  0  0  0  0  2  0  0  0  0  0  0
  -27.6650  -13.3680   19.6530 C   0  0  0  0  0  3  0  0  0  0  0  0
  -28.7390  -13.3270   20.7620 C   0  0  0  0  0  2  0  0  0  0  0  0
  -30.0230  -13.7070   20.1590 N   0  0  0  0  0  0  0  0  0  0  0  0
  -31.7910  -15.0450   19.8150 O   0  0  0  0  0  0  0  0  0  0  0  0
  -25.2850  -13.9340   20.4160 C   0  0  0  0  0  0  0  0  0  0  0  0
  -24.2290  -13.1530   20.7990 C   0  0  0  0  0  0  0  0  0  0  0  0
  -24.7020  -11.8040   20.7670 C   0  0  0  0  0  0  0  0  0  0  0  0
  -26.3320  -13.0630   20.1660 N   0  0  0  0  0  0  0  0  0  0  0  0
  -25.9910  -11.7770   20.4440 N   0  0  0  0  0  0  0  0  0  0  0  0
  -23.9850  -10.5380   20.9720 C   0  0  0  0  0  0  0  0  0  0  0  0
  -24.4310   -9.5830   21.9130 C   0  0  0  0  0  3  0  0  0  0  0  0
  -23.7190   -8.3800   22.1050 C   0  0  0  0  0  3  0  0  0  0  0  0
  -22.5450   -8.1200   21.3570 C   0  0  0  0  0  0  0  0  0  0  0  0
  -22.1190   -9.0650   20.4050 C   0  0  0  0  0  3  0  0  0  0  0  0
  -22.8320  -10.2600   20.2120 C   0  0  0  0  0  3  0  0  0  0  0  0
  -21.8030   -6.9700   21.4580 O   0  0  0  0  0  0  0  0  0  0  0  0
  -21.7600   -6.2410   22.6230 C   0  0  0  0  0  0  0  0  0  0  0  0
  -21.3250   -6.8070   23.8390 C   0  0  0  0  0  3  0  0  0  0  0  0
  -21.2300   -6.0040   24.9940 C   0  0  0  0  0  3  0  0  0  0  0  0
  -21.5550   -4.6360   24.9310 C   0  0  0  0  0  0  0  0  0  0  0  0
  -21.9810   -4.0700   23.7190 C   0  0  0  0  0  3  0  0  0  0  0  0
  -22.0810   -4.8720   22.5650 C   0  0  0  0  0  0  0  0  0  0  0  0
  -22.4710   -4.3150   21.3940 F   0  0  0  0  0  0  0  0  0  0  0  0
  -21.4570   -3.8620   26.0380 F   0  0  0  0  0  0  0  0  0  0  0  0
  -22.8300  -13.6190   21.0820 C   0  0  0  0  0  0  0  0  0  0  0  0
  -22.1190  -12.9190   21.9610 N   0  0  0  0  0  0  0  0  0  0  0  0
  -22.3780  -14.6370   20.5590 O   0  0  0  0  0  0  0  0  0  0  0  0
  -22.4990  -12.0980   22.4110 H   0  0  0  0  0  0  0  0  0  0  0  0
  -21.1760  -13.2040   22.1870 H   0  0  0  0  0  0  0  0  0  0  0  0
  -25.4410  -15.3040   20.2280 N   0  0  0  0  0  0  0  0  0  0  0  0
  -24.6800  -15.9630   20.3390 H   0  0  0  0  0  0  0  0  0  0  0  0
  -26.2930  -15.7420   19.8990 H   0  0  0  0  0  0  0  0  0  0  0  0
  -29.1660  -23.6440   19.9150 C   0  0  0  0  0  3  0  0  0  0  0  0
  -28.1980  -24.8910   20.4420 C   0  0  0  0  0  3  0  0  0  0  0  0
  -28.3830  -26.3910   20.1750 O   0  0  0  0  0  0  0  0  0  0  0  0
  -24.6350  -31.9240   23.2330 C   0  0  0  0  0  0  0  0  0  0  0  0
  -27.2720  -27.2930   20.1810 C   0  0  0  0  0  0  0  0  0  0  0  0
  -23.4420  -30.5140   21.5990 C   0  0  0  0  0  3  0  0  0  0  0  0
  -24.9010  -28.9550   20.1760 C   0  0  0  0  0  0  0  0  0  0  0  0
  -25.9870  -30.8200   21.4220 C   0  0  0  0  0  2  0  0  0  0  0  0
  -26.0750  -29.4310   20.7750 C   0  0  0  0  0  0  0  0  0  0  0  0
  -27.2630  -28.6170   20.7590 C   0  0  0  0  0  3  0  0  0  0  0  0
  -26.0730  -26.9030   19.5470 C   0  0  0  0  0  3  0  0  0  0  0  0
  -24.9090  -27.7020   19.5490 C   0  0  0  0  0  3  0  0  0  0  0  0
  -23.6610  -29.8320   20.2220 C   0  0  0  0  0  2  0  0  0  0  0  0
  -24.7080  -31.1050   22.1410 N   0  0  0  0  0  0  0  0  0  0  0  0
  -23.5500  -32.1970   23.7670 O   0  0  0  0  0  0  0  0  0  0  0  0
  -22.7790  -29.5010   22.5650 C   0  0  0  0  0  0  0  0  0  0  0  0
  -21.4520  -29.3180   22.4460 N   0  0  0  0  0  0  0  0  0  0  0  0
  -23.4590  -28.8830   23.3870 O   0  0  0  0  0  0  0  0  0  0  0  0
  -20.9550  -29.8720   21.7620 H   0  0  0  0  0  0  0  0  0  0  0  0
  -18.0860  -28.0880   22.9490 C   0  0  0  0  0  0  0  0  0  0  0  0
  -20.6410  -28.3750   23.2200 C   0  0  0  0  0  3  0  0  0  0  0  0
  -20.7580  -26.9400   22.6550 C   0  0  0  0  0  2  0  0  0  0  0  0
  -19.6620  -26.6000   21.6420 C   0  0  0  0  0  2  0  0  0  0  0  0
  -18.2780  -26.7350   22.2820 C   0  0  0  0  0  2  0  0  0  0  0  0
  -19.1950  -28.8640   23.3760 C   0  0  0  0  0  0  0  0  0  0  0  0
  -18.9620  -30.1260   23.9620 C   0  0  0  0  0  3  0  0  0  0  0  0
  -17.6510  -30.6130   24.1250 C   0  0  0  0  0  3  0  0  0  0  0  0
  -16.5560  -29.8340   23.7160 C   0  0  0  0  0  3  0  0  0  0  0  0
  -16.7740  -28.5740   23.1300 C   0  0  0  0  0  3  0  0  0  0  0  0
  -25.9120  -32.5730   23.8530 C   0  0  0  0  0  3  0  0  0  0  0  0
  -26.4290  -31.8150   25.1380 C   0  0  1  0  0  0  0  0  0  0  0  0
  -25.3350  -31.5830   26.2050 C   0  0  0  0  0  1  0  0  0  0  0  0
  -27.0210  -30.4360   24.7610 C   0  0  0  0  0  1  0  0  0  0  0  0
  -27.5660  -32.6280   25.8010 C   0  0  0  0  0  1  0  0  0  0  0  0
  -25.5880  -33.9700   24.1740 N   0  0  0  0  0  0  0  0  0  0  0  0
  -25.9230  -35.0250   23.4190 C   0  0  0  0  0  0  0  0  0  0  0  0
  -26.5980  -34.9260   22.3910 O   0  0  0  0  0  0  0  0  0  0  0  0
  -24.9930  -34.1230   24.9730 H   0  0  0  0  0  0  0  0  0  0  0  0
  -24.1920  -36.8170   23.0610 C   0  0  0  0  0  1  0  0  0  0  0  0
  -25.4280  -36.4100   23.8780 C   0  0  0  0  0  3  0  0  0  0  0  0
  -27.5520  -37.3070   24.7210 C   0  0  0  0  0  1  0  0  0  0  0  0
  -26.4550  -37.4680   23.7710 N   0  0  0  0  0  0  0  0  0  0  0  0
  -26.0440  -38.3850   23.9180 H   0  0  0  0  0  0  0  0  0  0  0  0
  2  1  1  0
  3  1  1  0
  4  6  1  0
  4  5  1  0
  5  7  1  0
  5  2  1  0
  6 45  1  0
  6  3  1  0
  7  8  2  0
  9  8  1  0
 10 15  1  0
 11 12  1  0
 11 10  1  0
 13 12  1  0
 13 20  1  0
 13 14  1  0
 15  9  1  0
 15 14  1  0
 16  9  2  0
 17 18  2  0
 18 37  1  0
 19 18  1  0
 19 22  1  0
 20 17  1  0
 20 21  1  0
 21 19  2  0
 22 23  1  0
 23 24  2  0
 25 28  1  0
 25 24  1  0
 26 25  2  0
 27 26  1  0
 27 22  2  0
 28 29  1  0
 29 30  1  0
 30 31  2  0
 32 31  1  0
 32 36  1  0
 33 32  2  0
 34 29  2  0
 34 33  1  0
 35 34  1  0
 37 38  1  0
 38 41  1  0
 38 40  1  0
 39 37  2  0
 42 43  1  0
 42 17  1  0
 44 42  1  0
 45 46  2  0
 47 49  1  0
 47 46  1  0
 48 59  2  0
 49 54  1  0
 50 58  1  0
 50 60  1  0
 51 57  1  0
 51 53  1  0
 52 58  1  0
 53 52  1  0
 54 53  2  0
 55 56  1  0
 55 49  2  0
 56 51  2  0
 57 50  1  0
 58 48  1  0
 60 62  2  0
 61 60  1  0
 63 61  1  0
 64 73  2  0
 64 69  1  0
 65 61  1  0
 65 69  1  0
 66 65  1  0
 67 68  1  0
 67 66  1  0
 68 64  1  0
 69 70  2  0
 70 71  1  0
 72 71  2  0
 73 72  1  0
 74 48  1  0
 74 79  1  0
 74 75  1  0
 75 78  1  1
 75 76  1  0
 77 75  1  0
 79 82  1  0
 80 84  1  0
 80 79  1  0
 81 80  2  0
 84 83  1  0
 86 84  1  0
 86 87  1  0
 86 85  1  0
M  ISO  4   8 100   9 100  46 101  47 101
M  END
>  <TORSDO>  (57) 
F 20

>  <SCORE>  (57) 
-13.238

>  <name>  (57) 
57

>  <ligand_id>  (57) 
57

>  <original_smiles>  (57) 
[H]c1c([H])c([H])c2c(c1[H])C([H])([H])C([H])([H])C([H])([H])C2([H])N([H])C(=O)C1([H])N(C(=O)C([H])(N([H])C(=O)C([H])(N([H])C([H])([H])[H])C([H])([H])[H])C(C([H])([H])[H])(C([H])([H])[H])C([H])([H])[H])C([H])([H])c2c([H])c(OC([H])([H])C([H])([H])C3([H])C([H])([H])C([H])([H])C([H])([H])C([H])(C([H])([H])C([H])([H])C(=O)N4C([H])([H])C([H])([H])C([H])([H])C([H])(n5nc(-c6c([H])c([H])c(Oc7c([H])c([H])c(F)c([H])c7F)c([H])c6[H])c(C(=O)N([H])[H])c5N([H])[H])C4([H])[H])C3([H])[H])c([H])c([H])c2C1([H])[H]

>  <smiles>  (57) 
[H]c1c([H])c([H])c2c(c1[H])C([H])([H])C([H])([H])C([H])([H])C2([H])N([H])C(=O)C1([H])N(C(=O)C([H])(N([H])C(=O)C([H])(N([H])C([H])([H])[H])C([H])([H])[H])C(C([H])([H])[H])(C([H])([H])[H])C([H])([H])[H])C([H])([H])c2c([H])c(OC([H])([H])C([H])([H])C3([H])C([H])([H])C([H])([H])C([H])([H])C([H])(C([H])([H])C([H])([H])C(=O)N4C([H])([H])C([H])([H])C([H])([H])C([H])(n5nc(-c6c([H])c([H])c(Oc7c([H])c([H])c(F)c([H])c7F)c([H])c6[H])c(C(=O)N([H])[H])c5N([H])[H])C4([H])[H])C3([H])[H])c([H])c([H])c2C1([H])[H]

$$$$
58:0:0
     RDKit          3D

 92 99  0  0  1  0  0  0  0  0999 V2000
  -31.9290  -20.0980   19.1410 C   0  0  0  0  0  1  0  0  0  0  0  0
  -30.5480  -20.3600   19.7830 C   0  0  0  0  0  3  0  0  0  0  0  0
  -30.0330  -19.2520   20.6670 N   0  0  0  0  0  4  0  0  0  0  0  0
  -29.2850  -18.8400   20.1340 H   0  0  0  0  0  0  0  0  0  0  0  0
  -29.5980  -19.6620   21.4790 H   0  0  0  0  0  0  0  0  0  0  0  0
  -30.8820  -18.0920   21.1210 C   0  0  0  0  0  3  0  0  0  0  0  0
  -32.7020  -19.4370   22.3940 C   0  0  0  0  0  1  0  0  0  0  0  0
  -30.5620  -18.7900   23.6050 C   0  0  0  0  0  1  0  0  0  0  0  0
  -31.5580  -18.4130   22.4920 C   0  0  0  0  0  3  0  0  0  0  0  0
  -30.0250  -16.7690   21.1550 C   0  0  0  0  0  2  0  0  0  0  0  0
  -30.6940  -15.4400   21.6570 C   0  0  0  0  0  2  0  0  0  0  0  0
  -31.0360  -14.3940   20.5650 C   0  0  0  0  0  0  0  0  0  0  0  0
  -30.6050  -12.3470   19.2350 C   0  0  0  0  0  2  0  0  0  0  0  0
  -29.6800  -12.6540   18.0420 C   0  0  0  0  0  2  0  0  0  0  0  0
  -28.2020  -12.5320   18.4600 C   0  0  0  0  0  2  0  0  0  0  0  0
  -27.8930  -13.3090   19.7670 C   0  0  0  0  0  3  0  0  0  0  0  0
  -28.9370  -13.0040   20.8680 C   0  0  0  0  0  2  0  0  0  0  0  0
  -30.2790  -13.2840   20.3280 N   0  0  0  0  0  0  0  0  0  0  0  0
  -32.0700  -14.6140   19.9280 O   0  0  0  0  0  0  0  0  0  0  0  0
  -25.4880  -13.9480   20.4220 C   0  0  0  0  0  0  0  0  0  0  0  0
  -24.4040  -13.1960   20.7830 C   0  0  0  0  0  0  0  0  0  0  0  0
  -24.8480  -11.8370   20.7790 C   0  0  0  0  0  0  0  0  0  0  0  0
  -26.5280  -13.0540   20.2250 N   0  0  0  0  0  0  0  0  0  0  0  0
  -26.1430  -11.7780   20.4920 N   0  0  0  0  0  0  0  0  0  0  0  0
  -24.1010  -10.5880   20.9810 C   0  0  0  0  0  0  0  0  0  0  0  0
  -24.5090   -9.6270   21.9310 C   0  0  0  0  0  3  0  0  0  0  0  0
  -23.7650   -8.4410   22.1160 C   0  0  0  0  0  3  0  0  0  0  0  0
  -22.5970   -8.2090   21.3510 C   0  0  0  0  0  0  0  0  0  0  0  0
  -22.2090   -9.1580   20.3880 C   0  0  0  0  0  3  0  0  0  0  0  0
  -22.9540  -10.3350   20.2020 C   0  0  0  0  0  3  0  0  0  0  0  0
  -21.8280   -7.0750   21.4440 O   0  0  0  0  0  0  0  0  0  0  0  0
  -21.7520   -6.3490   22.6050 C   0  0  0  0  0  0  0  0  0  0  0  0
  -21.3290   -6.9300   23.8210 C   0  0  0  0  0  3  0  0  0  0  0  0
  -21.2010   -6.1310   24.9760 C   0  0  0  0  0  3  0  0  0  0  0  0
  -21.4840   -4.7540   24.9140 C   0  0  0  0  0  0  0  0  0  0  0  0
  -21.8980   -4.1720   23.7030 C   0  0  0  0  0  3  0  0  0  0  0  0
  -22.0290   -4.9680   22.5510 C   0  0  0  0  0  0  0  0  0  0  0  0
  -22.4100   -4.3980   21.3830 F   0  0  0  0  0  0  0  0  0  0  0  0
  -21.3510   -3.9870   26.0210 F   0  0  0  0  0  0  0  0  0  0  0  0
  -23.0080  -13.6930   21.0280 C   0  0  0  0  0  0  0  0  0  0  0  0
  -22.2610  -13.0230   21.8990 N   0  0  0  0  0  0  0  0  0  0  0  0
  -22.5890  -14.7120   20.4810 O   0  0  0  0  0  0  0  0  0  0  0  0
  -22.6150  -12.2000   22.3650 H   0  0  0  0  0  0  0  0  0  0  0  0
  -21.3230  -13.3370   22.1060 H   0  0  0  0  0  0  0  0  0  0  0  0
  -25.6700  -15.3150   20.2260 N   0  0  0  0  0  0  0  0  0  0  0  0
  -24.9090  -15.9780   20.3070 H   0  0  0  0  0  0  0  0  0  0  0  0
  -26.5360  -15.7350   19.9150 H   0  0  0  0  0  0  0  0  0  0  0  0
  -30.4620  -21.7980   20.4190 C   0  0  0  0  0  3  0  0  0  0  0  0
  -29.3740  -22.7630   19.8520 C   0  0  0  0  0  3  0  0  0  0  0  0
  -29.4960  -24.2530   20.3190 C   0  0  0  0  0  2  0  0  0  0  0  0
  -28.2860  -25.1450   19.9190 C   0  0  0  0  0  2  0  0  0  0  0  0
  -28.3900  -26.5480   20.2740 O   0  0  0  0  0  0  0  0  0  0  0  0
  -24.6020  -31.8520   23.2410 C   0  0  0  0  0  0  0  0  0  0  0  0
  -27.2290  -27.3150   20.2300 C   0  0  0  0  0  0  0  0  0  0  0  0
  -23.3970  -30.4370   21.6140 C   0  0  0  0  0  3  0  0  0  0  0  0
  -24.8460  -28.8700   20.2170 C   0  0  0  0  0  0  0  0  0  0  0  0
  -25.9310  -30.7620   21.4310 C   0  0  0  0  0  2  0  0  0  0  0  0
  -26.0090  -29.3810   20.8040 C   0  0  0  0  0  0  0  0  0  0  0  0
  -27.2020  -28.6130   20.8060 C   0  0  0  0  0  3  0  0  0  0  0  0
  -26.0380  -26.8350   19.6310 C   0  0  0  0  0  3  0  0  0  0  0  0
  -24.8570  -27.5980   19.6270 C   0  0  0  0  0  3  0  0  0  0  0  0
  -23.6090  -29.7400   20.2460 C   0  0  0  0  0  2  0  0  0  0  0  0
  -24.6620  -31.0330   22.1530 N   0  0  0  0  0  0  0  0  0  0  0  0
  -23.5190  -32.1400   23.7690 O   0  0  0  0  0  0  0  0  0  0  0  0
  -22.7300  -29.4340   22.5840 C   0  0  0  0  0  0  0  0  0  0  0  0
  -21.4070  -29.2500   22.4410 N   0  0  0  0  0  0  0  0  0  0  0  0
  -23.4010  -28.8230   23.4210 O   0  0  0  0  0  0  0  0  0  0  0  0
  -20.9280  -29.7910   21.7350 H   0  0  0  0  0  0  0  0  0  0  0  0
  -18.0290  -28.0510   22.8950 C   0  0  0  0  0  0  0  0  0  0  0  0
  -20.5780  -28.3290   23.2180 C   0  0  0  0  0  3  0  0  0  0  0  0
  -20.7010  -26.8840   22.6810 C   0  0  0  0  0  2  0  0  0  0  0  0
  -19.6230  -26.5290   21.6510 C   0  0  0  0  0  2  0  0  0  0  0  0
  -18.2270  -26.6850   22.2600 C   0  0  0  0  0  2  0  0  0  0  0  0
  -19.1330  -28.8290   23.3310 C   0  0  0  0  0  0  0  0  0  0  0  0
  -18.8950  -30.1070   23.8830 C   0  0  0  0  0  3  0  0  0  0  0  0
  -17.5840  -30.6050   24.0090 C   0  0  0  0  0  3  0  0  0  0  0  0
  -16.4940  -29.8230   23.5900 C   0  0  0  0  0  3  0  0  0  0  0  0
  -16.7170  -28.5490   23.0380 C   0  0  0  0  0  3  0  0  0  0  0  0
  -25.8880  -32.4830   23.8590 C   0  0  0  0  0  3  0  0  0  0  0  0
  -26.4080  -31.7110   25.1340 C   0  0  1  0  0  0  0  0  0  0  0  0
  -25.3160  -31.4730   26.2020 C   0  0  0  0  0  1  0  0  0  0  0  0
  -26.9890  -30.3330   24.7400 C   0  0  0  0  0  1  0  0  0  0  0  0
  -27.5590  -32.5050   25.7950 C   0  0  0  0  0  1  0  0  0  0  0  0
  -25.5780  -33.8800   24.1900 N   0  0  0  0  0  0  0  0  0  0  0  0
  -25.9100  -34.9330   23.4310 C   0  0  0  0  0  0  0  0  0  0  0  0
  -26.5800  -34.8320   22.4000 O   0  0  0  0  0  0  0  0  0  0  0  0
  -24.9780  -34.0330   24.9880 H   0  0  0  0  0  0  0  0  0  0  0  0
  -24.1780  -36.7240   23.0810 C   0  0  0  0  0  1  0  0  0  0  0  0
  -25.4210  -36.3200   23.8890 C   0  0  0  0  0  3  0  0  0  0  0  0
  -27.5580  -37.2060   24.7140 C   0  0  0  0  0  1  0  0  0  0  0  0
  -26.4520  -37.3760   23.7760 N   0  0  0  0  0  0  0  0  0  0  0  0
  -26.0460  -38.2950   23.9300 H   0  0  0  0  0  0  0  0  0  0  0  0
  2  1  1  0
  2 48  1  0
  2  3  1  0
  3  6  1  0
  3  5  1  0
  4  3  1  0
  6 10  1  0
  6  9  1  0
  7  9  1  0
  9  8  1  0
 10 11  1  0
 12 11  1  0
 13 18  1  0
 14 15  1  0
 14 13  1  0
 16 15  1  0
 16 23  1  0
 16 17  1  0
 18 12  1  0
 18 17  1  0
 19 12  2  0
 20 21  2  0
 21 40  1  0
 22 21  1  0
 22 25  1  0
 23 20  1  0
 23 24  1  0
 24 22  2  0
 25 26  1  0
 26 27  2  0
 28 31  1  0
 28 27  1  0
 29 28  2  0
 30 29  1  0
 30 25  2  0
 31 32  1  0
 32 33  1  0
 33 34  2  0
 35 34  1  0
 35 39  1  0
 36 35  2  0
 37 32  2  0
 37 36  1  0
 38 37  1  0
 40 41  1  0
 41 44  1  0
 41 43  1  0
 42 40  2  0
 45 46  1  0
 45 20  1  0
 47 45  1  0
 49 50  1  0
 49 48  2  0
 51 52  1  0
 51 50  1  0
 53 64  2  0
 54 52  1  0
 54 59  1  0
 55 63  1  0
 55 65  1  0
 56 62  1  0
 56 58  1  0
 57 63  1  0
 58 59  2  0
 58 57  1  0
 60 54  2  0
 61 60  1  0
 61 56  2  0
 62 55  1  0
 63 53  1  0
 65 67  2  0
 66 65  1  0
 68 66  1  0
 69 78  2  0
 69 74  1  0
 70 66  1  0
 70 74  1  0
 71 70  1  0
 72 73  1  0
 72 71  1  0
 73 69  1  0
 74 75  2  0
 75 76  1  0
 77 76  2  0
 78 77  1  0
 79 53  1  0
 79 84  1  0
 79 80  1  0
 80 83  1  1
 80 81  1  0
 82 80  1  0
 84 87  1  0
 85 89  1  0
 85 84  1  0
 86 85  2  0
 89 88  1  0
 91 89  1  0
 91 92  1  0
 91 90  1  0
M  ISO  4  11 100  12 100  51 101  52 101
M  END
>  <TORSDO>  (58) 
F 25

>  <SCORE>  (58) 
-11.399

>  <name>  (58) 
58

>  <ligand_id>  (58) 
58

>  <original_smiles>  (58) 
[H]c1c([H])c([H])c2c(c1[H])C([H])([H])C([H])([H])C([H])([H])C2([H])N([H])C(=O)C1([H])N(C(=O)C([H])(N([H])C(=O)C([H])(N([H])C([H])([H])[H])C([H])([H])[H])C(C([H])([H])[H])(C([H])([H])[H])C([H])([H])[H])C([H])([H])c2c([H])c(OC([H])([H])C([H])([H])C([H])([H])C([H])([H])C([H])(C([H])([H])[H])[N+]([H])([H])C([H])(C([H])([H])C([H])([H])C(=O)N3C([H])([H])C([H])([H])C([H])([H])C([H])(n4nc(-c5c([H])c([H])c(Oc6c([H])c([H])c(F)c([H])c6F)c([H])c5[H])c(C(=O)N([H])[H])c4N([H])[H])C3([H])[H])C([H])(C([H])([H])[H])C([H])([H])[H])c([H])c([H])c2C1([H])[H]

>  <smiles>  (58) 
[H]c1c([H])c([H])c2c(c1[H])C([H])([H])C([H])([H])C([H])([H])C2([H])N([H])C(=O)C1([H])N(C(=O)C([H])(N([H])C(=O)C([H])(N([H])C([H])([H])[H])C([H])([H])[H])C(C([H])([H])[H])(C([H])([H])[H])C([H])([H])[H])C([H])([H])c2c([H])c(OC([H])([H])C([H])([H])C([H])([H])C([H])([H])C([H])(C([H])([H])[H])[N+]([H])([H])C([H])(C([H])([H])C([H])([H])C(=O)N3C([H])([H])C([H])([H])C([H])([H])C([H])(n4nc(-c5c([H])c([H])c(Oc6c([H])c([H])c(F)c([H])c6F)c([H])c5[H])c(C(=O)N([H])[H])c4N([H])[H])C3([H])[H])C([H])(C([H])([H])[H])C([H])([H])[H])c([H])c([H])c2C1([H])[H]

$$$$
59:0:0
     RDKit          3D

 91 99  0  0  1  0  0  0  0  0999 V2000
  -29.8030  -19.5080   21.0690 C   0  0  0  0  0  0  0  0  0  0  0  0
  -29.7140  -20.7540   20.5590 N   0  0  0  0  0  0  0  0  0  0  0  0
  -29.3850  -19.2530   22.2000 O   0  0  0  0  0  0  0  0  0  0  0  0
  -30.1050  -20.8970   19.6380 H   0  0  0  0  0  0  0  0  0  0  0  0
  -29.3400  -18.0890   18.0540 C   0  0  0  0  0  2  0  0  0  0  0  0
  -30.5720  -18.7030   18.7090 C   0  0  0  0  0  2  0  0  0  0  0  0
  -29.1850  -16.7560   18.7790 C   0  0  0  0  0  2  0  0  0  0  0  0
  -30.4450  -18.3650   20.2140 C   0  0  0  0  0  3  0  0  0  0  0  0
  -29.6210  -17.0210   20.2420 C   0  0  0  0  0  3  0  0  0  0  0  0
  -30.2240  -15.8080   21.0540 C   0  0  0  0  0  2  0  0  0  0  0  0
  -30.7910  -14.6010   20.2510 C   0  0  0  0  0  0  0  0  0  0  0  0
  -30.4120  -12.4990   18.9980 C   0  0  0  0  0  2  0  0  0  0  0  0
  -29.4230  -12.7470   17.8390 C   0  0  0  0  0  2  0  0  0  0  0  0
  -27.9660  -12.6120   18.3170 C   0  0  0  0  0  2  0  0  0  0  0  0
  -27.6900  -13.3990   19.6260 C   0  0  0  0  0  3  0  0  0  0  0  0
  -28.7810  -13.1180   20.6800 C   0  0  0  0  0  2  0  0  0  0  0  0
  -30.0870  -13.4430   20.0850 N   0  0  0  0  0  0  0  0  0  0  0  0
  -31.8810  -14.7750   19.7000 O   0  0  0  0  0  0  0  0  0  0  0  0
  -25.3190  -14.0070   20.4180 C   0  0  0  0  0  0  0  0  0  0  0  0
  -24.2580  -13.2360   20.8090 C   0  0  0  0  0  0  0  0  0  0  0  0
  -24.7110  -11.8820   20.7470 C   0  0  0  0  0  0  0  0  0  0  0  0
  -26.3520  -13.1240   20.1430 N   0  0  0  0  0  0  0  0  0  0  0  0
  -25.9900  -11.8400   20.3970 N   0  0  0  0  0  0  0  0  0  0  0  0
  -23.9840  -10.6210   20.9410 C   0  0  0  0  0  0  0  0  0  0  0  0
  -24.4120   -9.6600   21.8830 C   0  0  0  0  0  3  0  0  0  0  0  0
  -23.6890   -8.4620   22.0620 C   0  0  0  0  0  3  0  0  0  0  0  0
  -22.5210   -8.2170   21.3010 C   0  0  0  0  0  0  0  0  0  0  0  0
  -22.1130   -9.1660   20.3470 C   0  0  0  0  0  3  0  0  0  0  0  0
  -22.8370  -10.3570   20.1660 C   0  0  0  0  0  3  0  0  0  0  0  0
  -21.7670   -7.0710   21.3900 O   0  0  0  0  0  0  0  0  0  0  0  0
  -21.6780   -6.3570   22.5590 C   0  0  0  0  0  0  0  0  0  0  0  0
  -21.1650   -6.9270   23.7450 C   0  0  0  0  0  3  0  0  0  0  0  0
  -21.0310   -6.1390   24.9050 C   0  0  0  0  0  3  0  0  0  0  0  0
  -21.3940   -4.7790   24.8790 C   0  0  0  0  0  0  0  0  0  0  0  0
  -21.8980   -4.2070   23.6960 C   0  0  0  0  0  3  0  0  0  0  0  0
  -22.0370   -4.9940   22.5400 C   0  0  0  0  0  0  0  0  0  0  0  0
  -22.5040   -4.4340   21.3990 F   0  0  0  0  0  0  0  0  0  0  0  0
  -21.2580   -4.0180   25.9900 F   0  0  0  0  0  0  0  0  0  0  0  0
  -22.8720  -13.7140   21.1320 C   0  0  0  0  0  0  0  0  0  0  0  0
  -22.1630  -13.0050   22.0040 N   0  0  0  0  0  0  0  0  0  0  0  0
  -22.4250  -14.7530   20.6460 O   0  0  0  0  0  0  0  0  0  0  0  0
  -22.5340  -12.1630   22.4190 H   0  0  0  0  0  0  0  0  0  0  0  0
  -21.2340  -13.3080   22.2610 H   0  0  0  0  0  0  0  0  0  0  0  0
  -25.4930  -15.3790   20.2560 N   0  0  0  0  0  0  0  0  0  0  0  0
  -24.7440  -16.0490   20.3930 H   0  0  0  0  0  0  0  0  0  0  0  0
  -26.3530  -15.8070   19.9410 H   0  0  0  0  0  0  0  0  0  0  0  0
  -29.0030  -21.8960   21.1590 C   0  0  0  0  0  2  0  0  0  0  0  0
  -29.0620  -23.1630   20.2580 C   0  0  0  0  0  2  0  0  0  0  0  0
  -28.0050  -24.2690   20.5560 C   0  0  0  0  0  2  0  0  0  0  0  0
  -28.5070  -25.6130   21.1630 C   0  0  0  0  0  2  0  0  0  0  0  0
  -28.4900  -26.7490   20.2710 O   0  0  0  0  0  0  0  0  0  0  0  0
  -24.5640  -31.9110   23.2640 C   0  0  0  0  0  0  0  0  0  0  0  0
  -27.3250  -27.4870   20.2580 C   0  0  0  0  0  0  0  0  0  0  0  0
  -23.4150  -30.5000   21.5910 C   0  0  0  0  0  3  0  0  0  0  0  0
  -24.9190  -28.9770   20.2030 C   0  0  0  0  0  0  0  0  0  0  0  0
  -25.9420  -30.8840   21.4550 C   0  0  0  0  0  2  0  0  0  0  0  0
  -26.0570  -29.5130   20.8170 C   0  0  0  0  0  0  0  0  0  0  0  0
  -27.2670  -28.7760   20.8390 C   0  0  0  0  0  3  0  0  0  0  0  0
  -26.1710  -26.9710   19.6310 C   0  0  0  0  0  3  0  0  0  0  0  0
  -24.9700  -27.7060   19.6090 C   0  0  0  0  0  3  0  0  0  0  0  0
  -23.6650  -29.8230   20.2170 C   0  0  0  0  0  2  0  0  0  0  0  0
  -24.6570  -31.1130   22.1620 N   0  0  0  0  0  0  0  0  0  0  0  0
  -23.4660  -32.1690   23.7780 O   0  0  0  0  0  0  0  0  0  0  0  0
  -22.7510  -29.4690   22.5340 C   0  0  0  0  0  0  0  0  0  0  0  0
  -21.4340  -29.2650   22.3700 N   0  0  0  0  0  0  0  0  0  0  0  0
  -23.4210  -28.8560   23.3700 O   0  0  0  0  0  0  0  0  0  0  0  0
  -20.9550  -29.8100   21.6660 H   0  0  0  0  0  0  0  0  0  0  0  0
  -18.0670  -28.0170   22.7720 C   0  0  0  0  0  0  0  0  0  0  0  0
  -20.6110  -28.3160   23.1190 C   0  0  0  0  0  3  0  0  0  0  0  0
  -20.7540  -26.8850   22.5510 C   0  0  0  0  0  2  0  0  0  0  0  0
  -19.6880  -26.5430   21.5050 C   0  0  0  0  0  2  0  0  0  0  0  0
  -18.2850  -26.6670   22.1060 C   0  0  0  0  0  2  0  0  0  0  0  0
  -19.1590  -28.7980   23.2320 C   0  0  0  0  0  0  0  0  0  0  0  0
  -18.9020  -30.0590   23.8120 C   0  0  0  0  0  3  0  0  0  0  0  0
  -17.5860  -30.5390   23.9380 C   0  0  0  0  0  3  0  0  0  0  0  0
  -16.5070  -29.7550   23.4930 C   0  0  0  0  0  3  0  0  0  0  0  0
  -16.7480  -28.4960   22.9160 C   0  0  0  0  0  3  0  0  0  0  0  0
  -25.8280  -32.5570   23.9150 C   0  0  0  0  0  3  0  0  0  0  0  0
  -25.5010  -33.9550   24.2200 N   0  0  0  0  0  0  0  0  0  0  0  0
  -25.8480  -35.0000   23.4560 C   0  0  0  0  0  0  0  0  0  0  0  0
  -26.5460  -34.8890   22.4440 O   0  0  0  0  0  0  0  0  0  0  0  0
  -24.8880  -34.1160   25.0030 H   0  0  0  0  0  0  0  0  0  0  0  0
  -24.1280  -36.7830   23.0220 C   0  0  0  0  0  1  0  0  0  0  0  0
  -25.3400  -36.3910   23.8820 C   0  0  0  0  0  3  0  0  0  0  0  0
  -27.4350  -37.2970   24.7880 C   0  0  0  0  0  1  0  0  0  0  0  0
  -26.3720  -37.4480   23.7970 N   0  0  0  0  0  0  0  0  0  0  0  0
  -25.9580  -38.3670   23.9150 H   0  0  0  0  0  0  0  0  0  0  0  0
  -26.3150  -31.8010   25.2110 C   0  0  1  0  0  0  0  0  0  0  0  0
  -25.1950  -31.5580   26.2490 C   0  0  0  0  0  1  0  0  0  0  0  0
  -26.9230  -30.4260   24.8450 C   0  0  0  0  0  1  0  0  0  0  0  0
  -27.4380  -32.6120   25.8990 C   0  0  0  0  0  1  0  0  0  0  0  0
  1  3  2  0
  2  1  1  0
  2 47  1  0
  4  2  1  0
  5  6  1  0
  5  7  1  0
  6  8  1  0
  7  9  1  0
  8  9  1  0
  8  1  1  0
  9 10  1  0
 11 10  1  0
 12 17  1  0
 13 14  1  0
 13 12  1  0
 15 14  1  0
 15 22  1  0
 15 16  1  0
 17 11  1  0
 17 16  1  0
 18 11  2  0
 19 20  2  0
 20 39  1  0
 21 20  1  0
 21 24  1  0
 22 23  1  0
 22 19  1  0
 23 21  2  0
 24 25  1  0
 25 26  2  0
 27 30  1  0
 27 26  1  0
 28 27  2  0
 29 28  1  0
 29 24  2  0
 30 31  1  0
 31 32  1  0
 32 33  2  0
 34 33  1  0
 34 38  1  0
 35 34  2  0
 36 31  2  0
 36 35  1  0
 37 36  1  0
 39 40  1  0
 40 43  1  0
 40 42  1  0
 41 39  2  0
 44 45  1  0
 44 19  1  0
 46 44  1  0
 48 49  1  0
 48 47  1  0
 49 50  1  0
 51 50  1  0
 52 63  2  0
 53 51  1  0
 53 58  1  0
 54 62  1  0
 54 64  1  0
 55 61  1  0
 55 57  1  0
 56 62  1  0
 57 58  2  0
 57 56  1  0
 59 53  2  0
 60 59  1  0
 60 55  2  0
 61 54  1  0
 62 52  1  0
 64 66  2  0
 65 64  1  0
 67 65  1  0
 68 77  2  0
 68 73  1  0
 69 65  1  0
 69 73  1  0
 70 69  1  0
 71 72  1  0
 71 70  1  0
 72 68  1  0
 73 74  2  0
 74 75  1  0
 76 75  2  0
 77 76  1  0
 78 52  1  0
 78 79  1  0
 78 88  1  0
 79 82  1  0
 80 84  1  0
 80 79  1  0
 81 80  2  0
 84 83  1  0
 86 84  1  0
 86 87  1  0
 86 85  1  0
 88 91  1  1
 88 89  1  0
 90 88  1  0
M  ISO  4  10 100  11 100  50 101  51 101
M  END
>  <TORSDO>  (59) 
F 22

>  <SCORE>  (59) 
-12.118

>  <name>  (59) 
59

>  <ligand_id>  (59) 
59

>  <original_smiles>  (59) 
[H]c1c([H])c([H])c2c(c1[H])C([H])([H])C([H])([H])C([H])([H])C2([H])N([H])C(=O)C1([H])N(C(=O)C([H])(N([H])C(=O)C([H])(N([H])C([H])([H])[H])C([H])([H])[H])C(C([H])([H])[H])(C([H])([H])[H])C([H])([H])[H])C([H])([H])c2c([H])c(OC([H])([H])C([H])([H])C([H])([H])C([H])([H])N([H])C(=O)C3([H])C([H])([H])C([H])([H])C([H])([H])C3([H])C([H])([H])C(=O)N3C([H])([H])C([H])([H])C([H])([H])C([H])(n4nc(-c5c([H])c([H])c(Oc6c([H])c([H])c(F)c([H])c6F)c([H])c5[H])c(C(=O)N([H])[H])c4N([H])[H])C3([H])[H])c([H])c([H])c2C1([H])[H]

>  <smiles>  (59) 
[H]c1c([H])c([H])c2c(c1[H])C([H])([H])C([H])([H])C([H])([H])C2([H])N([H])C(=O)C1([H])N(C(=O)C([H])(N([H])C(=O)C([H])(N([H])C([H])([H])[H])C([H])([H])[H])C(C([H])([H])[H])(C([H])([H])[H])C([H])([H])[H])C([H])([H])c2c([H])c(OC([H])([H])C([H])([H])C([H])([H])C([H])([H])N([H])C(=O)C3([H])C([H])([H])C([H])([H])C([H])([H])C3([H])C([H])([H])C(=O)N3C([H])([H])C([H])([H])C([H])([H])C([H])(n4nc(-c5c([H])c([H])c(Oc6c([H])c([H])c(F)c([H])c6F)c([H])c5[H])c(C(=O)N([H])[H])c4N([H])[H])C3([H])[H])c([H])c([H])c2C1([H])[H]

$$$$
60:0:0
     RDKit          3D

 90 98  0  0  1  0  0  0  0  0999 V2000
  -31.6210  -17.8910   21.1810 C   0  0  0  0  0  2  0  0  0  0  0  0
  -31.6520  -19.4450   21.0930 C   0  0  0  0  0  2  0  0  0  0  0  0
  -29.7230  -18.6580   19.9170 C   0  0  0  0  0  3  0  0  0  0  0  0
  -30.1760  -17.4910   20.8790 C   0  0  0  0  0  3  0  0  0  0  0  0
  -30.2680  -19.9680   20.6110 C   0  0  0  0  0  3  0  0  0  0  0  0
  -27.7730  -18.4920   18.3590 C   0  0  0  0  0  2  0  0  0  0  0  0
  -28.2280  -18.6770   19.6090 C   0  0  0  0  0  0  0  0  0  0  0  0
  -27.2730  -18.9060   20.7670 C   0  0  0  0  0  1  0  0  0  0  0  0
  -29.7450  -15.9510   20.6940 C   0  0  0  0  0  2  0  0  0  0  0  0
  -30.5820  -14.7540   20.0690 C   0  0  0  0  0  0  0  0  0  0  0  0
  -30.3880  -12.5130   18.9730 C   0  0  0  0  0  2  0  0  0  0  0  0
  -29.3710  -12.6110   17.8120 C   0  0  0  0  0  2  0  0  0  0  0  0
  -27.9250  -12.4150   18.3160 C   0  0  0  0  0  2  0  0  0  0  0  0
  -27.6140  -13.2730   19.5690 C   0  0  0  0  0  3  0  0  0  0  0  0
  -28.7330  -13.1310   20.6240 C   0  0  0  0  0  2  0  0  0  0  0  0
  -30.0070  -13.5100   19.9920 N   0  0  0  0  0  0  0  0  0  0  0  0
  -31.6940  -14.9600   19.5730 O   0  0  0  0  0  0  0  0  0  0  0  0
  -25.2670  -13.8430   20.4530 C   0  0  0  0  0  0  0  0  0  0  0  0
  -24.2260  -13.0550   20.8580 C   0  0  0  0  0  0  0  0  0  0  0  0
  -24.6870  -11.7070   20.7540 C   0  0  0  0  0  0  0  0  0  0  0  0
  -26.2960  -12.9730   20.1260 N   0  0  0  0  0  0  0  0  0  0  0  0
  -25.9560  -11.6820   20.3670 N   0  0  0  0  0  0  0  0  0  0  0  0
  -23.9750  -10.4360   20.9450 C   0  0  0  0  0  0  0  0  0  0  0  0
  -24.4260   -9.4690   21.8700 C   0  0  0  0  0  3  0  0  0  0  0  0
  -23.7160   -8.2630   22.0490 C   0  0  0  0  0  3  0  0  0  0  0  0
  -22.5400   -8.0140   21.3010 C   0  0  0  0  0  0  0  0  0  0  0  0
  -22.1090   -8.9700   20.3650 C   0  0  0  0  0  3  0  0  0  0  0  0
  -22.8190  -10.1680   20.1850 C   0  0  0  0  0  3  0  0  0  0  0  0
  -21.8000   -6.8600   21.3890 O   0  0  0  0  0  0  0  0  0  0  0  0
  -21.6960   -6.1590   22.5640 C   0  0  0  0  0  0  0  0  0  0  0  0
  -21.1870   -6.7480   23.7420 C   0  0  0  0  0  3  0  0  0  0  0  0
  -21.0330   -5.9720   24.9080 C   0  0  0  0  0  3  0  0  0  0  0  0
  -21.3780   -4.6080   24.8970 C   0  0  0  0  0  0  0  0  0  0  0  0
  -21.8820   -4.0180   23.7240 C   0  0  0  0  0  3  0  0  0  0  0  0
  -22.0380   -4.7920   22.5600 C   0  0  0  0  0  0  0  0  0  0  0  0
  -22.5020   -4.2130   21.4260 F   0  0  0  0  0  0  0  0  0  0  0  0
  -21.2240   -3.8590   26.0140 F   0  0  0  0  0  0  0  0  0  0  0  0
  -22.8460  -13.5160   21.2300 C   0  0  0  0  0  0  0  0  0  0  0  0
  -22.1810  -12.8020   22.1320 N   0  0  0  0  0  0  0  0  0  0  0  0
  -22.3670  -14.5460   20.7560 O   0  0  0  0  0  0  0  0  0  0  0  0
  -22.5810  -11.9680   22.5360 H   0  0  0  0  0  0  0  0  0  0  0  0
  -21.2590  -13.0940   22.4230 H   0  0  0  0  0  0  0  0  0  0  0  0
  -25.4200  -15.2190   20.3140 N   0  0  0  0  0  0  0  0  0  0  0  0
  -24.6640  -15.8680   20.5030 H   0  0  0  0  0  0  0  0  0  0  0  0
  -26.2580  -15.6760   19.9740 H   0  0  0  0  0  0  0  0  0  0  0  0
  -30.3670  -21.3810   19.8590 C   0  0  0  0  0  2  0  0  0  0  0  0
  -29.1650  -22.4290   19.8720 C   0  0  0  0  0  2  0  0  0  0  0  0
  -29.4980  -23.9820   19.6390 C   0  0  0  0  0  3  0  0  0  0  0  0
  -28.2790  -24.9980   19.5070 C   0  0  0  0  0  3  0  0  0  0  0  0
  -28.4920  -26.4700   19.5410 O   0  0  0  0  0  0  0  0  0  0  0  0
  -24.6880  -31.5360   23.0390 C   0  0  0  0  0  0  0  0  0  0  0  0
  -27.3540  -27.2980   19.5870 C   0  0  0  0  0  0  0  0  0  0  0  0
  -23.4960  -30.2640   21.2920 C   0  0  0  0  0  3  0  0  0  0  0  0
  -24.9610  -28.8680   19.7330 C   0  0  0  0  0  0  0  0  0  0  0  0
  -26.0300  -30.6380   21.1240 C   0  0  0  0  0  2  0  0  0  0  0  0
  -26.1270  -29.3220   20.3610 C   0  0  0  0  0  0  0  0  0  0  0  0
  -27.3270  -28.5510   20.2780 C   0  0  0  0  0  3  0  0  0  0  0  0
  -26.1580  -26.9050   18.9390 C   0  0  0  0  0  3  0  0  0  0  0  0
  -24.9790  -27.6660   19.0140 C   0  0  0  0  0  3  0  0  0  0  0  0
  -23.7120  -29.7140   19.8580 C   0  0  0  0  0  2  0  0  0  0  0  0
  -24.7570  -30.8250   21.8760 N   0  0  0  0  0  0  0  0  0  0  0  0
  -23.6030  -31.7490   23.6000 O   0  0  0  0  0  0  0  0  0  0  0  0
  -22.8550  -29.1570   22.1630 C   0  0  0  0  0  0  0  0  0  0  0  0
  -21.5250  -28.9970   22.0550 N   0  0  0  0  0  0  0  0  0  0  0  0
  -23.5510  -28.4510   22.8970 O   0  0  0  0  0  0  0  0  0  0  0  0
  -21.0210  -29.6200   21.4390 H   0  0  0  0  0  0  0  0  0  0  0  0
  -18.1460  -27.8160   22.5820 C   0  0  0  0  0  0  0  0  0  0  0  0
  -20.7200  -27.9920   22.7500 C   0  0  0  0  0  3  0  0  0  0  0  0
  -20.7580  -26.6360   22.0070 C   0  0  0  0  0  2  0  0  0  0  0  0
  -19.6010  -26.4570   21.0190 C   0  0  0  0  0  2  0  0  0  0  0  0
  -18.2560  -26.5520   21.7460 C   0  0  0  0  0  2  0  0  0  0  0  0
  -19.3030  -28.4990   23.0410 C   0  0  0  0  0  0  0  0  0  0  0  0
  -19.1440  -29.6880   23.7870 C   0  0  0  0  0  3  0  0  0  0  0  0
  -17.8620  -30.1910   24.0770 C   0  0  0  0  0  3  0  0  0  0  0  0
  -16.7200  -29.5000   23.6320 C   0  0  0  0  0  3  0  0  0  0  0  0
  -16.8630  -28.3140   22.8910 C   0  0  0  0  0  3  0  0  0  0  0  0
  -25.9640  -32.1320   23.7080 C   0  0  0  0  0  3  0  0  0  0  0  0
  -25.6420  -33.4990   24.1400 N   0  0  0  0  0  0  0  0  0  0  0  0
  -25.9400  -34.6070   23.4480 C   0  0  0  0  0  0  0  0  0  0  0  0
  -26.5880  -34.5850   22.3980 O   0  0  0  0  0  0  0  0  0  0  0  0
  -25.0640  -33.5890   24.9620 H   0  0  0  0  0  0  0  0  0  0  0  0
  -24.1690  -36.3830   23.2670 C   0  0  0  0  0  1  0  0  0  0  0  0
  -25.4440  -35.9530   24.0110 C   0  0  0  0  0  3  0  0  0  0  0  0
  -27.5870  -36.8260   24.8310 C   0  0  0  0  0  1  0  0  0  0  0  0
  -26.4530  -37.0320   23.9330 N   0  0  0  0  0  0  0  0  0  0  0  0
  -26.0350  -37.9330   24.1500 H   0  0  0  0  0  0  0  0  0  0  0  0
  -26.4860  -31.2730   24.9250 C   0  0  1  0  0  0  0  0  0  0  0  0
  -25.3940  -30.9550   25.9740 C   0  0  0  0  0  1  0  0  0  0  0  0
  -27.0730  -29.9290   24.4350 C   0  0  0  0  0  1  0  0  0  0  0  0
  -27.6350  -32.0220   25.6400 C   0  0  0  0  0  1  0  0  0  0  0  0
  2  1  1  0
  3  7  1  0
  3  5  1  0
  3  4  1  0
  4  9  1  0
  4  1  1  0
  5 46  1  0
  5  2  1  0
  6  7  2  0
  7  8  1  0
 10  9  1  0
 11 16  1  0
 12 13  1  0
 12 11  1  0
 14 13  1  0
 14 21  1  0
 14 15  1  0
 16 10  1  0
 16 15  1  0
 17 10  2  0
 18 19  2  0
 19 38  1  0
 20 19  1  0
 20 23  1  0
 21 22  1  0
 21 18  1  0
 22 20  2  0
 23 24  1  0
 24 25  2  0
 26 29  1  0
 26 25  1  0
 27 26  2  0
 28 27  1  0
 28 23  2  0
 29 30  1  0
 30 31  1  0
 31 32  2  0
 33 32  1  0
 33 37  1  0
 34 33  2  0
 35 30  2  0
 35 34  1  0
 36 35  1  0
 38 39  1  0
 39 42  1  0
 39 41  1  0
 40 38  2  0
 43 18  1  0
 43 44  1  0
 45 43  1  0
 46 47  1  0
 48 47  1  0
 49 50  1  0
 49 48  2  0
 50 52  1  0
 51 62  2  0
 52 57  1  0
 53 61  1  0
 53 63  1  0
 54 60  1  0
 54 56  1  0
 55 61  1  0
 56 55  1  0
 57 56  2  0
 58 59  1  0
 58 52  2  0
 59 54  2  0
 60 53  1  0
 61 51  1  0
 63 65  2  0
 64 63  1  0
 66 64  1  0
 67 76  2  0
 67 72  1  0
 68 64  1  0
 68 72  1  0
 69 68  1  0
 70 71  1  0
 70 69  1  0
 71 67  1  0
 72 73  2  0
 73 74  1  0
 75 74  2  0
 76 75  1  0
 77 51  1  0
 77 78  1  0
 77 87  1  0
 78 81  1  0
 79 83  1  0
 79 78  1  0
 80 79  2  0
 83 82  1  0
 85 83  1  0
 85 86  1  0
 85 84  1  0
 87 90  1  1
 87 88  1  0
 89 87  1  0
M  ISO  4   9 100  10 100  49 101  50 101
M  END
>  <TORSDO>  (60) 
F 22

>  <SCORE>  (60) 
-11.831

>  <name>  (60) 
60

>  <ligand_id>  (60) 
60

>  <original_smiles>  (60) 
[H]C([H])=C(C([H])([H])[H])C1([H])C([H])(C([H])([H])C(=O)N2C([H])([H])C([H])([H])C([H])([H])C([H])(n3nc(-c4c([H])c([H])c(Oc5c([H])c([H])c(F)c([H])c5F)c([H])c4[H])c(C(=O)N([H])[H])c3N([H])[H])C2([H])[H])C([H])([H])C([H])([H])C1([H])C([H])([H])C([H])([H])C([H])([H])C([H])([H])Oc1c([H])c([H])c2c(c1[H])C([H])([H])N(C(=O)C([H])(N([H])C(=O)C([H])(N([H])C([H])([H])[H])C([H])([H])[H])C(C([H])([H])[H])(C([H])([H])[H])C([H])([H])[H])C([H])(C(=O)N([H])C1([H])c3c([H])c([H])c([H])c([H])c3C([H])([H])C([H])([H])C1([H])[H])C2([H])[H]

>  <smiles>  (60) 
[H]C([H])=C(C([H])([H])[H])C1([H])C([H])(C([H])([H])C(=O)N2C([H])([H])C([H])([H])C([H])([H])C([H])(n3nc(-c4c([H])c([H])c(Oc5c([H])c([H])c(F)c([H])c5F)c([H])c4[H])c(C(=O)N([H])[H])c3N([H])[H])C2([H])[H])C([H])([H])C([H])([H])C1([H])C([H])([H])C([H])([H])C([H])([H])C([H])([H])Oc1c([H])c([H])c2c(c1[H])C([H])([H])N(C(=O)C([H])(N([H])C(=O)C([H])(N([H])C([H])([H])[H])C([H])([H])[H])C(C([H])([H])[H])(C([H])([H])[H])C([H])([H])[H])C([H])(C(=O)N([H])C1([H])c3c([H])c([H])c([H])c([H])c3C([H])([H])C([H])([H])C1([H])[H])C2([H])[H]

$$$$
61:0:0
     RDKit          3D

 94104  0  0  1  0  0  0  0  0999 V2000
  -29.7990  -20.8350   22.2020 C   0  0  0  0  0  2  0  0  0  0  0  0
  -30.0200  -21.8710   21.3820 C   0  0  0  0  0  3  0  0  0  0  0  0
  -29.4570  -23.2870   21.6240 C   0  0  0  0  0  2  0  0  0  0  0  0
  -31.4830  -23.7480   19.1290 C   0  0  0  0  0  2  0  0  0  0  0  0
  -32.0470  -22.5760   19.9390 C   0  0  0  0  0  2  0  0  0  0  0  0
  -30.7360  -24.7910   19.9660 C   0  0  0  0  0  2  0  0  0  0  0  0
  -31.0310  -17.8540   19.5520 C   0  0  0  0  0  2  0  0  0  0  0  0
  -31.9390  -19.0990   19.6670 C   0  0  0  0  0  2  0  0  0  0  0  0
  -29.8620  -18.3200   21.6390 C   0  0  0  0  0  2  0  0  0  0  0  0
  -30.6570  -19.6180   21.9240 C   0  0  0  0  0  3  0  0  0  0  0  0
  -31.0180  -21.4830   20.3030 C   0  0  0  0  0  3  0  0  0  0  0  0
  -29.3510  -24.3480   20.4780 C   0  0  0  0  0  3  0  0  0  0  0  0
  -30.7220  -17.2430   20.9320 C   0  0  0  0  0  3  0  0  0  0  0  0
  -31.6430  -20.1220   20.8180 C   0  0  2  0  0  0  0  0  0  0  0  0
  -32.9920  -20.3850   21.5430 C   0  0  0  0  0  1  0  0  0  0  0  0
  -30.0380  -15.8290   20.9360 C   0  0  0  0  0  2  0  0  0  0  0  0
  -30.7870  -14.6230   20.2880 C   0  0  0  0  0  0  0  0  0  0  0  0
  -30.4980  -12.4660   19.1020 C   0  0  0  0  0  2  0  0  0  0  0  0
  -29.5170  -12.6770   17.9290 C   0  0  0  0  0  2  0  0  0  0  0  0
  -28.0570  -12.5090   18.3990 C   0  0  0  0  0  2  0  0  0  0  0  0
  -27.7480  -13.3240   19.6820 C   0  0  0  0  0  3  0  0  0  0  0  0
  -28.8390  -13.1040   20.7540 C   0  0  0  0  0  2  0  0  0  0  0  0
  -30.1420  -13.4290   20.1560 N   0  0  0  0  0  0  0  0  0  0  0  0
  -31.9070  -14.8040   19.8030 O   0  0  0  0  0  0  0  0  0  0  0  0
  -25.3730  -13.9050   20.4820 C   0  0  0  0  0  0  0  0  0  0  0  0
  -24.3200  -13.1200   20.8700 C   0  0  0  0  0  0  0  0  0  0  0  0
  -24.7870  -11.7710   20.8010 C   0  0  0  0  0  0  0  0  0  0  0  0
  -26.4140  -13.0330   20.2000 N   0  0  0  0  0  0  0  0  0  0  0  0
  -26.0670  -11.7440   20.4500 N   0  0  0  0  0  0  0  0  0  0  0  0
  -24.0750  -10.5020   20.9910 C   0  0  0  0  0  0  0  0  0  0  0  0
  -24.5130   -9.5410   21.9280 C   0  0  0  0  0  3  0  0  0  0  0  0
  -23.7990   -8.3350   22.1050 C   0  0  0  0  0  3  0  0  0  0  0  0
  -22.6350   -8.0820   21.3430 C   0  0  0  0  0  0  0  0  0  0  0  0
  -22.2150   -9.0330   20.3940 C   0  0  0  0  0  3  0  0  0  0  0  0
  -22.9290  -10.2300   20.2150 C   0  0  0  0  0  3  0  0  0  0  0  0
  -21.8930   -6.9290   21.4290 O   0  0  0  0  0  0  0  0  0  0  0  0
  -21.8050   -6.2150   22.5950 C   0  0  0  0  0  0  0  0  0  0  0  0
  -21.2790   -6.7800   23.7780 C   0  0  0  0  0  3  0  0  0  0  0  0
  -21.1430   -5.9890   24.9370 C   0  0  0  0  0  3  0  0  0  0  0  0
  -21.5220   -4.6340   24.9130 C   0  0  0  0  0  0  0  0  0  0  0  0
  -22.0410   -4.0680   23.7350 C   0  0  0  0  0  3  0  0  0  0  0  0
  -22.1790   -4.8560   22.5790 C   0  0  0  0  0  0  0  0  0  0  0  0
  -22.6590   -4.2990   21.4410 F   0  0  0  0  0  0  0  0  0  0  0  0
  -21.3840   -3.8720   26.0230 F   0  0  0  0  0  0  0  0  0  0  0  0
  -22.9290  -13.5830   21.1960 C   0  0  0  0  0  0  0  0  0  0  0  0
  -22.2300  -12.8620   22.0650 N   0  0  0  0  0  0  0  0  0  0  0  0
  -22.4720  -14.6190   20.7140 O   0  0  0  0  0  0  0  0  0  0  0  0
  -22.6120  -12.0220   22.4740 H   0  0  0  0  0  0  0  0  0  0  0  0
  -21.2980  -13.1540   22.3250 H   0  0  0  0  0  0  0  0  0  0  0  0
  -25.5250  -15.2790   20.3260 N   0  0  0  0  0  0  0  0  0  0  0  0
  -24.7620  -15.9310   20.4740 H   0  0  0  0  0  0  0  0  0  0  0  0
  -26.3700  -15.7280   19.9940 H   0  0  0  0  0  0  0  0  0  0  0  0
  -28.5560  -25.5940   21.0040 C   0  0  0  0  0  2  0  0  0  0  0  0
  -28.5720  -26.7670   20.1610 O   0  0  0  0  0  0  0  0  0  0  0  0
  -24.5910  -31.8900   23.1830 C   0  0  0  0  0  0  0  0  0  0  0  0
  -27.4050  -27.5060   20.1590 C   0  0  0  0  0  0  0  0  0  0  0  0
  -23.4580  -30.4750   21.4990 C   0  0  0  0  0  3  0  0  0  0  0  0
  -24.9830  -28.9730   20.1060 C   0  0  0  0  0  0  0  0  0  0  0  0
  -25.9810  -30.8820   21.3720 C   0  0  0  0  0  2  0  0  0  0  0  0
  -26.1150  -29.5150   20.7300 C   0  0  0  0  0  0  0  0  0  0  0  0
  -27.3330  -28.7910   20.7510 C   0  0  0  0  0  3  0  0  0  0  0  0
  -26.2590  -26.9820   19.5270 C   0  0  0  0  0  3  0  0  0  0  0  0
  -25.0510  -27.7050   19.5010 C   0  0  0  0  0  3  0  0  0  0  0  0
  -23.7200  -29.8070   20.1210 C   0  0  0  0  0  2  0  0  0  0  0  0
  -24.6930  -31.0970   22.0770 N   0  0  0  0  0  0  0  0  0  0  0  0
  -23.4900  -32.1380   23.6940 O   0  0  0  0  0  0  0  0  0  0  0  0
  -22.7990  -29.4370   22.4360 C   0  0  0  0  0  0  0  0  0  0  0  0
  -21.4770  -29.2520   22.2910 N   0  0  0  0  0  0  0  0  0  0  0  0
  -23.4760  -28.7990   23.2470 O   0  0  0  0  0  0  0  0  0  0  0  0
  -20.9940  -29.8210   21.6080 H   0  0  0  0  0  0  0  0  0  0  0  0
  -18.0940  -28.0740   22.7680 C   0  0  0  0  0  0  0  0  0  0  0  0
  -20.6550  -28.2970   23.0330 C   0  0  0  0  0  3  0  0  0  0  0  0
  -20.7400  -26.8860   22.4090 C   0  0  0  0  0  2  0  0  0  0  0  0
  -19.6290  -26.6090   21.3900 C   0  0  0  0  0  2  0  0  0  0  0  0
  -18.2520  -26.7460   22.0460 C   0  0  0  0  0  2  0  0  0  0  0  0
  -19.2220  -28.8100   23.2170 C   0  0  0  0  0  0  0  0  0  0  0  0
  -19.0200  -30.0560   23.8500 C   0  0  0  0  0  3  0  0  0  0  0  0
  -17.7210  -30.5670   24.0360 C   0  0  0  0  0  3  0  0  0  0  0  0
  -16.6080  -29.8270   23.6040 C   0  0  0  0  0  3  0  0  0  0  0  0
  -16.7940  -28.5820   22.9760 C   0  0  0  0  0  3  0  0  0  0  0  0
  -25.8460  -32.5400   23.8420 C   0  0  0  0  0  3  0  0  0  0  0  0
  -25.5030  -33.9310   24.1690 N   0  0  0  0  0  0  0  0  0  0  0  0
  -25.8370  -34.9930   23.4240 C   0  0  0  0  0  0  0  0  0  0  0  0
  -26.5390  -34.9070   22.4140 O   0  0  0  0  0  0  0  0  0  0  0  0
  -24.8820  -34.0700   24.9540 H   0  0  0  0  0  0  0  0  0  0  0  0
  -24.0960  -36.7620   23.0180 C   0  0  0  0  0  1  0  0  0  0  0  0
  -25.3110  -36.3710   23.8730 C   0  0  0  0  0  3  0  0  0  0  0  0
  -27.3960  -37.2840   24.7970 C   0  0  0  0  0  1  0  0  0  0  0  0
  -26.3320  -37.4390   23.8080 N   0  0  0  0  0  0  0  0  0  0  0  0
  -25.9060  -38.3530   23.9410 H   0  0  0  0  0  0  0  0  0  0  0  0
  -26.3430  -31.7710   25.1270 C   0  0  1  0  0  0  0  0  0  0  0  0
  -25.2250  -31.4980   26.1600 C   0  0  0  0  0  1  0  0  0  0  0  0
  -26.9700  -30.4110   24.7380 C   0  0  0  0  0  1  0  0  0  0  0  0
  -27.4560  -32.5860   25.8280 C   0  0  0  0  0  1  0  0  0  0  0  0
  2  3  1  0
  2  1  1  0
  4  5  1  0
  4  6  1  0
  6 12  1  0
  7  8  1  0
  7 13  1  0
  8 14  1  0
 10  9  1  0
 10  1  1  0
 11  5  1  0
 11 14  1  0
 11  2  1  0
 12 53  1  0
 12  3  1  0
 13 16  1  0
 13  9  1  0
 14 15  1  1
 14 10  1  0
 17 16  1  0
 18 23  1  0
 19 20  1  0
 19 18  1  0
 21 20  1  0
 21 28  1  0
 21 22  1  0
 23 17  1  0
 23 22  1  0
 24 17  2  0
 25 26  2  0
 26 45  1  0
 27 26  1  0
 27 30  1  0
 28 29  1  0
 28 25  1  0
 29 27  2  0
 30 31  1  0
 31 32  2  0
 33 36  1  0
 33 32  1  0
 34 33  2  0
 35 34  1  0
 35 30  2  0
 36 37  1  0
 37 38  1  0
 38 39  2  0
 40 39  1  0
 40 44  1  0
 41 40  2  0
 42 37  2  0
 42 41  1  0
 43 42  1  0
 45 46  1  0
 46 49  1  0
 46 48  1  0
 47 45  2  0
 50 51  1  0
 50 25  1  0
 52 50  1  0
 54 53  1  0
 55 66  2  0
 56 54  1  0
 56 61  1  0
 57 65  1  0
 57 67  1  0
 58 64  1  0
 58 60  1  0
 59 65  1  0
 60 61  2  0
 60 59  1  0
 62 56  2  0
 63 62  1  0
 63 58  2  0
 64 57  1  0
 65 55  1  0
 67 69  2  0
 68 67  1  0
 70 68  1  0
 71 80  2  0
 71 76  1  0
 72 68  1  0
 72 76  1  0
 73 72  1  0
 74 75  1  0
 74 73  1  0
 75 71  1  0
 76 77  2  0
 77 78  1  0
 79 78  2  0
 80 79  1  0
 81 55  1  0
 81 82  1  0
 81 91  1  0
 82 85  1  0
 83 87  1  0
 83 82  1  0
 84 83  2  0
 87 86  1  0
 89 87  1  0
 89 90  1  0
 89 88  1  0
 91 94  1  1
 91 92  1  0
 93 91  1  0
M  ISO  4  16 100  17 100  53 101  54 101
M  END
>  <TORSDO>  (61) 
F 18

>  <SCORE>  (61) 
-14.486

>  <name>  (61) 
61

>  <ligand_id>  (61) 
61

>  <original_smiles>  (61) 
[H]C1=C2C([H])([H])C([H])(C([H])([H])Oc3c([H])c([H])c4c(c3[H])C([H])([H])N(C(=O)C([H])(N([H])C(=O)C([H])(N([H])C([H])([H])[H])C([H])([H])[H])C(C([H])([H])[H])(C([H])([H])[H])C([H])([H])[H])C([H])(C(=O)N([H])C3([H])c5c([H])c([H])c([H])c([H])c5C([H])([H])C([H])([H])C3([H])[H])C4([H])[H])C([H])([H])C([H])([H])C([H])([H])C2([H])C2(C([H])([H])[H])C([H])([H])C([H])([H])C([H])(C([H])([H])C(=O)N3C([H])([H])C([H])([H])C([H])([H])C([H])(n4nc(-c5c([H])c([H])c(Oc6c([H])c([H])c(F)c([H])c6F)c([H])c5[H])c(C(=O)N([H])[H])c4N([H])[H])C3([H])[H])C([H])([H])C12[H]

>  <smiles>  (61) 
[H]C1=C2C([H])([H])C([H])(C([H])([H])Oc3c([H])c([H])c4c(c3[H])C([H])([H])N(C(=O)C([H])(N([H])C(=O)C([H])(N([H])C([H])([H])[H])C([H])([H])[H])C(C([H])([H])[H])(C([H])([H])[H])C([H])([H])[H])C([H])(C(=O)N([H])C3([H])c5c([H])c([H])c([H])c([H])c5C([H])([H])C([H])([H])C3([H])[H])C4([H])[H])C([H])([H])C([H])([H])C([H])([H])C2([H])C2(C([H])([H])[H])C([H])([H])C([H])([H])C([H])(C([H])([H])C(=O)N3C([H])([H])C([H])([H])C([H])([H])C([H])(n4nc(-c5c([H])c([H])c(Oc6c([H])c([H])c(F)c([H])c6F)c([H])c5[H])c(C(=O)N([H])[H])c4N([H])[H])C3([H])[H])C([H])([H])C12[H]

$$$$
62:0:0
     RDKit          3D

 90 98  0  0  1  0  0  0  0  0999 V2000
  -28.9340  -22.1310   20.7650 C   0  0  0  0  0  2  0  0  0  0  0  0
  -27.5300  -20.0600   20.5400 C   0  0  0  0  0  1  0  0  0  0  0  0
  -28.7920  -20.7710   20.0050 C   0  0  0  0  0  3  0  0  0  0  0  0
  -30.0890  -19.8710   19.9590 C   0  0  0  0  0  2  0  0  0  0  0  0
  -32.1260  -18.1870   22.0870 C   0  0  0  0  0  2  0  0  0  0  0  0
  -32.3520  -17.6460   20.6710 C   0  0  0  0  0  2  0  0  0  0  0  0
  -30.6670  -18.6700   22.1400 C   0  0  0  0  0  2  0  0  0  0  0  0
  -30.9520  -17.3460   20.1200 C   0  0  0  0  0  3  0  0  0  0  0  0
  -30.0820  -18.4970   20.7260 C   0  0  0  0  0  3  0  0  0  0  0  0
  -30.4620  -15.9150   20.5510 C   0  0  0  0  0  2  0  0  0  0  0  0
  -31.1940  -14.6730   19.9580 C   0  0  0  0  0  0  0  0  0  0  0  0
  -30.9030  -12.4040   18.9960 C   0  0  0  0  0  2  0  0  0  0  0  0
  -29.9170  -12.4740   17.8090 C   0  0  0  0  0  2  0  0  0  0  0  0
  -28.4550  -12.3790   18.2940 C   0  0  0  0  0  2  0  0  0  0  0  0
  -28.1560  -13.3400   19.4730 C   0  0  0  0  0  3  0  0  0  0  0  0
  -29.2410  -13.2170   20.5660 C   0  0  0  0  0  2  0  0  0  0  0  0
  -30.5480  -13.4720   19.9410 N   0  0  0  0  0  0  0  0  0  0  0  0
  -32.2970  -14.8210   19.4200 O   0  0  0  0  0  0  0  0  0  0  0  0
  -25.8200  -14.0570   20.2870 C   0  0  0  0  0  0  0  0  0  0  0  0
  -24.7360  -13.3340   20.7020 C   0  0  0  0  0  0  0  0  0  0  0  0
  -25.1350  -11.9630   20.6560 C   0  0  0  0  0  0  0  0  0  0  0  0
  -26.8150  -13.1300   20.0140 N   0  0  0  0  0  0  0  0  0  0  0  0
  -26.4080  -11.8650   20.2920 N   0  0  0  0  0  0  0  0  0  0  0  0
  -24.3640  -10.7330   20.8790 C   0  0  0  0  0  0  0  0  0  0  0  0
  -24.7430   -9.7920   21.8620 C   0  0  0  0  0  3  0  0  0  0  0  0
  -23.9750   -8.6260   22.0690 C   0  0  0  0  0  3  0  0  0  0  0  0
  -22.8150   -8.3930   21.2940 C   0  0  0  0  0  0  0  0  0  0  0  0
  -22.4550   -9.3220   20.3010 C   0  0  0  0  0  3  0  0  0  0  0  0
  -23.2230  -10.4790   20.0930 C   0  0  0  0  0  3  0  0  0  0  0  0
  -22.0220   -7.2770   21.4080 O   0  0  0  0  0  0  0  0  0  0  0  0
  -21.8620   -6.6280   22.6060 C   0  0  0  0  0  0  0  0  0  0  0  0
  -21.3420   -7.2810   23.7440 C   0  0  0  0  0  3  0  0  0  0  0  0
  -21.1300   -6.5580   24.9350 C   0  0  0  0  0  3  0  0  0  0  0  0
  -21.4270   -5.1830   24.9880 C   0  0  0  0  0  0  0  0  0  0  0  0
  -21.9410   -4.5300   23.8540 C   0  0  0  0  0  3  0  0  0  0  0  0
  -22.1550   -5.2500   22.6660 C   0  0  0  0  0  0  0  0  0  0  0  0
  -22.6300   -4.6100   21.5690 F   0  0  0  0  0  0  0  0  0  0  0  0
  -21.2150   -4.4870   26.1300 F   0  0  0  0  0  0  0  0  0  0  0  0
  -23.3730  -13.8720   21.0360 C   0  0  0  0  0  0  0  0  0  0  0  0
  -22.6640  -13.2210   21.9510 N   0  0  0  0  0  0  0  0  0  0  0  0
  -22.9500  -14.9050   20.5180 O   0  0  0  0  0  0  0  0  0  0  0  0
  -23.0190  -12.3840   22.3910 H   0  0  0  0  0  0  0  0  0  0  0  0
  -21.7540  -13.5680   22.2180 H   0  0  0  0  0  0  0  0  0  0  0  0
  -26.0390  -15.4190   20.0970 N   0  0  0  0  0  0  0  0  0  0  0  0
  -25.3080  -16.1100   20.2320 H   0  0  0  0  0  0  0  0  0  0  0  0
  -26.8970  -15.8180   19.7390 H   0  0  0  0  0  0  0  0  0  0  0  0
  -29.8870  -23.1960   20.1680 C   0  0  0  0  0  2  0  0  0  0  0  0
  -29.2360  -24.5270   19.6700 C   0  0  0  0  0  2  0  0  0  0  0  0
  -28.6340  -25.4710   20.7480 C   0  0  0  0  0  2  0  0  0  0  0  0
  -28.6270  -26.8560   20.3340 O   0  0  0  0  0  0  0  0  0  0  0  0
  -24.5390  -31.8490   23.3900 C   0  0  0  0  0  0  0  0  0  0  0  0
  -27.4220  -27.5300   20.3400 C   0  0  0  0  0  0  0  0  0  0  0  0
  -23.4300  -30.4440   21.6810 C   0  0  0  0  0  3  0  0  0  0  0  0
  -24.9780  -28.9650   20.2860 C   0  0  0  0  0  0  0  0  0  0  0  0
  -25.9480  -30.8770   21.5780 C   0  0  0  0  0  2  0  0  0  0  0  0
  -26.0980  -29.5160   20.9210 C   0  0  0  0  0  0  0  0  0  0  0  0
  -27.3240  -28.8100   20.9380 C   0  0  0  0  0  3  0  0  0  0  0  0
  -26.2840  -26.9890   19.7020 C   0  0  0  0  0  3  0  0  0  0  0  0
  -25.0670  -27.7020   19.6720 C   0  0  0  0  0  3  0  0  0  0  0  0
  -23.7090  -29.7890   20.3000 C   0  0  0  0  0  2  0  0  0  0  0  0
  -24.6560  -31.0710   22.2760 N   0  0  0  0  0  0  0  0  0  0  0  0
  -23.4320  -32.0810   23.8980 O   0  0  0  0  0  0  0  0  0  0  0  0
  -22.7740  -29.3900   22.6030 C   0  0  0  0  0  0  0  0  0  0  0  0
  -21.4670  -29.1510   22.4040 N   0  0  0  0  0  0  0  0  0  0  0  0
  -23.4410  -28.7900   23.4510 O   0  0  0  0  0  0  0  0  0  0  0  0
  -20.9890  -29.6930   21.6970 H   0  0  0  0  0  0  0  0  0  0  0  0
  -18.1350  -27.7810   22.6920 C   0  0  0  0  0  0  0  0  0  0  0  0
  -20.6530  -28.1700   23.1230 C   0  0  0  0  0  3  0  0  0  0  0  0
  -20.8670  -26.7480   22.5550 C   0  0  0  0  0  2  0  0  0  0  0  0
  -19.8490  -26.3700   21.4740 C   0  0  0  0  0  2  0  0  0  0  0  0
  -18.4230  -26.4440   22.0300 C   0  0  0  0  0  2  0  0  0  0  0  0
  -19.1830  -28.5980   23.1910 C   0  0  0  0  0  0  0  0  0  0  0  0
  -18.8670  -29.8480   23.7650 C   0  0  0  0  0  3  0  0  0  0  0  0
  -17.5310  -30.2840   23.8470 C   0  0  0  0  0  3  0  0  0  0  0  0
  -16.4950  -29.4640   23.3670 C   0  0  0  0  0  3  0  0  0  0  0  0
  -16.7970  -28.2140   22.7960 C   0  0  0  0  0  3  0  0  0  0  0  0
  -25.7870  -32.5040   24.0650 C   0  0  0  0  0  3  0  0  0  0  0  0
  -25.4530  -33.9070   24.3420 N   0  0  0  0  0  0  0  0  0  0  0  0
  -25.8330  -34.9430   23.5820 C   0  0  0  0  0  0  0  0  0  0  0  0
  -26.5690  -34.8170   22.6000 O   0  0  0  0  0  0  0  0  0  0  0  0
  -24.8110  -34.0770   25.1030 H   0  0  0  0  0  0  0  0  0  0  0  0
  -24.1380  -36.7240   23.0610 C   0  0  0  0  0  1  0  0  0  0  0  0
  -25.3130  -36.3390   23.9720 C   0  0  0  0  0  3  0  0  0  0  0  0
  -27.3760  -37.2450   24.9480 C   0  0  0  0  0  1  0  0  0  0  0  0
  -26.3510  -37.3900   23.9160 N   0  0  0  0  0  0  0  0  0  0  0  0
  -25.9360  -38.3120   24.0120 H   0  0  0  0  0  0  0  0  0  0  0  0
  -26.2360  -31.7660   25.3860 C   0  0  1  0  0  0  0  0  0  0  0  0
  -25.0830  -31.5320   26.3920 C   0  0  0  0  0  1  0  0  0  0  0  0
  -26.8620  -30.3920   25.0560 C   0  0  0  0  0  1  0  0  0  0  0  0
  -27.3330  -32.5920   26.0990 C   0  0  0  0  0  1  0  0  0  0  0  0
  3  2  1  0
  3  1  1  0
  4  3  1  0
  5  7  1  0
  6  5  1  0
  8 10  1  0
  8  6  1  0
  8  9  1  0
  9  4  1  0
  9  7  1  0
 11 10  1  0
 12 17  1  0
 13 14  1  0
 13 12  1  0
 15 14  1  0
 15 22  1  0
 15 16  1  0
 17 11  1  0
 17 16  1  0
 18 11  2  0
 19 20  2  0
 20 39  1  0
 21 20  1  0
 21 24  1  0
 22 19  1  0
 22 23  1  0
 23 21  2  0
 24 25  1  0
 25 26  2  0
 27 30  1  0
 27 26  1  0
 28 27  2  0
 29 28  1  0
 29 24  2  0
 30 31  1  0
 31 36  2  0
 31 32  1  0
 32 33  2  0
 33 34  1  0
 34 38  1  0
 35 34  2  0
 36 35  1  0
 37 36  1  0
 39 40  1  0
 40 43  1  0
 40 42  1  0
 41 39  2  0
 44 45  1  0
 44 19  1  0
 46 44  1  0
 47  1  1  0
 48 47  1  0
 48 49  1  0
 50 52  1  0
 50 49  1  0
 51 62  2  0
 52 57  1  0
 53 61  1  0
 53 63  1  0
 54 60  1  0
 54 56  1  0
 55 61  1  0
 56 57  2  0
 56 55  1  0
 58 52  2  0
 59 58  1  0
 59 54  2  0
 60 53  1  0
 61 51  1  0
 63 65  2  0
 64 63  1  0
 66 64  1  0
 67 76  2  0
 67 72  1  0
 68 64  1  0
 68 72  1  0
 69 68  1  0
 70 71  1  0
 70 69  1  0
 71 67  1  0
 72 73  2  0
 73 74  1  0
 75 74  2  0
 76 75  1  0
 77 51  1  0
 77 78  1  0
 77 87  1  0
 78 81  1  0
 79 83  1  0
 79 78  1  0
 80 79  2  0
 83 82  1  0
 85 83  1  0
 85 86  1  0
 85 84  1  0
 87 90  1  1
 87 88  1  0
 89 87  1  0
M  ISO  4  10 100  11 100  49 101  50 101
M  END
>  <TORSDO>  (62) 
F 23

>  <SCORE>  (62) 
-11.199

>  <name>  (62) 
62

>  <ligand_id>  (62) 
62

>  <original_smiles>  (62) 
[H]c1c([H])c([H])c2c(c1[H])C([H])([H])C([H])([H])C([H])([H])C2([H])N([H])C(=O)C1([H])N(C(=O)C([H])(N([H])C(=O)C([H])(N([H])C([H])([H])[H])C([H])([H])[H])C(C([H])([H])[H])(C([H])([H])[H])C([H])([H])[H])C([H])([H])c2c([H])c(OC([H])([H])C([H])([H])C([H])([H])C([H])([H])C([H])(C([H])([H])[H])C([H])([H])C3([H])C([H])([H])C([H])([H])C([H])([H])C3([H])C([H])([H])C(=O)N3C([H])([H])C([H])([H])C([H])([H])C([H])(n4nc(-c5c([H])c([H])c(Oc6c([H])c([H])c(F)c([H])c6F)c([H])c5[H])c(C(=O)N([H])[H])c4N([H])[H])C3([H])[H])c([H])c([H])c2C1([H])[H]

>  <smiles>  (62) 
[H]c1c([H])c([H])c2c(c1[H])C([H])([H])C([H])([H])C([H])([H])C2([H])N([H])C(=O)C1([H])N(C(=O)C([H])(N([H])C(=O)C([H])(N([H])C([H])([H])[H])C([H])([H])[H])C(C([H])([H])[H])(C([H])([H])[H])C([H])([H])[H])C([H])([H])c2c([H])c(OC([H])([H])C([H])([H])C([H])([H])C([H])([H])C([H])(C([H])([H])[H])C([H])([H])C3([H])C([H])([H])C([H])([H])C([H])([H])C3([H])C([H])([H])C(=O)N3C([H])([H])C([H])([H])C([H])([H])C([H])(n4nc(-c5c([H])c([H])c(Oc6c([H])c([H])c(F)c([H])c6F)c([H])c5[H])c(C(=O)N([H])[H])c4N([H])[H])C3([H])[H])c([H])c([H])c2C1([H])[H]

$$$$
63:0:0
     RDKit          3D

 92101  0  0  1  0  0  0  0  0999 V2000
  -29.6860  -21.4580   20.6620 N   0  0  0  0  0  4  0  0  0  0  0  0
  -30.5940  -21.7250   20.3180 H   0  0  0  0  0  0  0  0  0  0  0  0
  -29.7680  -21.4230   21.6650 H   0  0  0  0  0  0  0  0  0  0  0  0
  -27.3400  -22.3190   21.0050 C   0  0  0  0  0  1  0  0  0  0  0  0
  -28.6920  -22.5500   20.2800 C   0  0  0  0  0  3  0  0  0  0  0  0
  -29.1620  -24.0660   20.5230 C   0  0  0  0  0  3  0  0  0  0  0  0
  -28.2800  -25.1940   19.8230 C   0  0  0  0  0  3  0  0  0  0  0  0
  -28.3910  -26.6130   20.2290 O   0  0  0  0  0  0  0  0  0  0  0  0
  -24.5940  -31.9560   23.2370 C   0  0  0  0  0  0  0  0  0  0  0  0
  -27.2550  -27.4390   20.1570 C   0  0  0  0  0  0  0  0  0  0  0  0
  -23.4000  -30.5580   21.5840 C   0  0  0  0  0  3  0  0  0  0  0  0
  -24.8680  -29.0200   20.1620 C   0  0  0  0  0  0  0  0  0  0  0  0
  -25.9390  -30.8950   21.4150 C   0  0  0  0  0  2  0  0  0  0  0  0
  -26.0320  -29.5160   20.7680 C   0  0  0  0  0  0  0  0  0  0  0  0
  -27.2210  -28.7310   20.7650 C   0  0  0  0  0  3  0  0  0  0  0  0
  -26.0750  -27.0140   19.4960 C   0  0  0  0  0  3  0  0  0  0  0  0
  -24.8940  -27.7720   19.5240 C   0  0  0  0  0  3  0  0  0  0  0  0
  -23.6250  -29.8810   20.2060 C   0  0  0  0  0  2  0  0  0  0  0  0
  -24.6610  -31.1540   22.1360 N   0  0  0  0  0  0  0  0  0  0  0  0
  -23.5080  -32.2270   23.7710 O   0  0  0  0  0  0  0  0  0  0  0  0
  -22.7350  -29.5370   22.5410 C   0  0  0  0  0  0  0  0  0  0  0  0
  -21.4110  -29.3580   22.4090 N   0  0  0  0  0  0  0  0  0  0  0  0
  -23.4130  -28.9120   23.3590 O   0  0  0  0  0  0  0  0  0  0  0  0
  -20.9260  -29.9140   21.7180 H   0  0  0  0  0  0  0  0  0  0  0  0
  -18.0260  -28.1830   22.9110 C   0  0  0  0  0  0  0  0  0  0  0  0
  -20.5890  -28.4140   23.1670 C   0  0  0  0  0  3  0  0  0  0  0  0
  -20.6770  -26.9930   22.5680 C   0  0  0  0  0  2  0  0  0  0  0  0
  -19.5670  -26.6950   21.5550 C   0  0  0  0  0  2  0  0  0  0  0  0
  -18.1900  -26.8410   22.2120 C   0  0  0  0  0  2  0  0  0  0  0  0
  -19.1570  -28.9280   23.3450 C   0  0  0  0  0  0  0  0  0  0  0  0
  -18.9570  -30.1820   23.9580 C   0  0  0  0  0  3  0  0  0  0  0  0
  -17.6610  -30.6950   24.1460 C   0  0  0  0  0  3  0  0  0  0  0  0
  -16.5450  -29.9470   23.7330 C   0  0  0  0  0  3  0  0  0  0  0  0
  -16.7280  -28.6920   23.1240 C   0  0  0  0  0  3  0  0  0  0  0  0
  -25.8750  -32.5900   23.8640 C   0  0  0  0  0  3  0  0  0  0  0  0
  -25.5690  -33.9880   24.1860 N   0  0  0  0  0  0  0  0  0  0  0  0
  -25.9040  -35.0360   23.4220 C   0  0  0  0  0  0  0  0  0  0  0  0
  -26.5730  -34.9280   22.3920 O   0  0  0  0  0  0  0  0  0  0  0  0
  -24.9770  -34.1460   24.9870 H   0  0  0  0  0  0  0  0  0  0  0  0
  -24.1820  -36.8350   23.0570 C   0  0  0  0  0  1  0  0  0  0  0  0
  -25.4170  -36.4270   23.8750 C   0  0  0  0  0  3  0  0  0  0  0  0
  -27.5390  -37.3160   24.7310 C   0  0  0  0  0  1  0  0  0  0  0  0
  -26.4510  -37.4780   23.7710 N   0  0  0  0  0  0  0  0  0  0  0  0
  -26.0420  -38.3980   23.9120 H   0  0  0  0  0  0  0  0  0  0  0  0
  -26.3840  -31.8240   25.1470 C   0  0  1  0  0  0  0  0  0  0  0  0
  -25.2800  -31.5860   26.2020 C   0  0  0  0  0  1  0  0  0  0  0  0
  -26.9750  -30.4470   24.7630 C   0  0  0  0  0  1  0  0  0  0  0  0
  -27.5220  -32.6260   25.8210 C   0  0  0  0  0  1  0  0  0  0  0  0
  -29.4500  -20.0380   20.1690 C   0  0  0  0  0  2  0  0  0  0  0  0
  -32.1820  -18.9180   19.0560 C   0  0  0  0  0  2  0  0  0  0  0  0
  -31.2720  -17.7150   18.7930 C   0  0  0  0  0  2  0  0  0  0  0  0
  -31.9690  -17.6690   21.1760 C   0  0  0  0  0  2  0  0  0  0  0  0
  -31.8980  -19.0590   20.5400 C   0  0  0  0  0  3  0  0  0  0  0  0
  -30.3820  -18.9300   20.8200 C   0  0  0  0  0  3  0  0  0  0  0  0
  -30.7630  -17.4790   20.2250 C   0  0  1  0  0  0  0  0  0  0  0  0
  -29.9450  -16.1180   20.4150 C   0  0  0  0  0  2  0  0  0  0  0  0
  -30.6660  -14.7440   20.0830 C   0  0  0  0  0  0  0  0  0  0  0  0
  -30.3290  -12.5400   19.0030 C   0  0  0  0  0  2  0  0  0  0  0  0
  -29.3320  -12.7210   17.8370 C   0  0  0  0  0  2  0  0  0  0  0  0
  -27.8820  -12.5580   18.3310 C   0  0  0  0  0  2  0  0  0  0  0  0
  -27.5870  -13.3820   19.6130 C   0  0  0  0  0  3  0  0  0  0  0  0
  -28.7080  -13.2400   20.6680 C   0  0  0  0  0  2  0  0  0  0  0  0
  -29.9940  -13.5500   20.0260 N   0  0  0  0  0  0  0  0  0  0  0  0
  -31.8340  -14.7990   19.6950 O   0  0  0  0  0  0  0  0  0  0  0  0
  -25.2270  -13.9280   20.4730 C   0  0  0  0  0  0  0  0  0  0  0  0
  -24.1890  -13.1330   20.8700 C   0  0  0  0  0  0  0  0  0  0  0  0
  -24.6640  -11.7870   20.7820 C   0  0  0  0  0  0  0  0  0  0  0  0
  -26.2700  -13.0680   20.1650 N   0  0  0  0  0  0  0  0  0  0  0  0
  -25.9400  -11.7740   20.4130 N   0  0  0  0  0  0  0  0  0  0  0  0
  -23.9570  -10.5130   20.9720 C   0  0  0  0  0  0  0  0  0  0  0  0
  -24.4040   -9.5520   21.9060 C   0  0  0  0  0  3  0  0  0  0  0  0
  -23.6960   -8.3430   22.0860 C   0  0  0  0  0  3  0  0  0  0  0  0
  -22.5280   -8.0860   21.3300 C   0  0  0  0  0  0  0  0  0  0  0  0
  -22.1000   -9.0340   20.3840 C   0  0  0  0  0  3  0  0  0  0  0  0
  -22.8080  -10.2350   20.2040 C   0  0  0  0  0  3  0  0  0  0  0  0
  -21.7920   -6.9270   21.4150 O   0  0  0  0  0  0  0  0  0  0  0  0
  -21.7150   -6.2100   22.5810 C   0  0  0  0  0  0  0  0  0  0  0  0
  -21.1790   -6.7670   23.7640 C   0  0  0  0  0  3  0  0  0  0  0  0
  -21.0520   -5.9720   24.9210 C   0  0  0  0  0  3  0  0  0  0  0  0
  -21.4510   -4.6230   24.8970 C   0  0  0  0  0  0  0  0  0  0  0  0
  -21.9810   -4.0660   23.7200 C   0  0  0  0  0  3  0  0  0  0  0  0
  -22.1080   -4.8570   22.5640 C   0  0  0  0  0  0  0  0  0  0  0  0
  -22.5980   -4.3090   21.4250 F   0  0  0  0  0  0  0  0  0  0  0  0
  -21.3230   -3.8570   26.0070 F   0  0  0  0  0  0  0  0  0  0  0  0
  -22.8030  -13.5860   21.2230 C   0  0  0  0  0  0  0  0  0  0  0  0
  -22.1220  -12.8510   22.0950 N   0  0  0  0  0  0  0  0  0  0  0  0
  -22.3330  -14.6260   20.7590 O   0  0  0  0  0  0  0  0  0  0  0  0
  -22.5160  -12.0080   22.4860 H   0  0  0  0  0  0  0  0  0  0  0  0
  -21.1960  -13.1370   22.3790 H   0  0  0  0  0  0  0  0  0  0  0  0
  -25.3640  -15.3060   20.3290 N   0  0  0  0  0  0  0  0  0  0  0  0
  -24.5890  -15.9370   20.4990 H   0  0  0  0  0  0  0  0  0  0  0  0
  -26.1940  -15.7800   19.9970 H   0  0  0  0  0  0  0  0  0  0  0  0
  1  3  1  0
  2  1  1  0
  5  6  1  0
  5  1  1  0
  5  4  1  0
  7  8  1  0
  7  6  2  0
  9 20  2  0
 10  8  1  0
 10 15  1  0
 11 19  1  0
 11 21  1  0
 12 18  1  0
 12 14  1  0
 13 19  1  0
 14 13  1  0
 15 14  2  0
 16 17  1  0
 16 10  2  0
 17 12  2  0
 18 11  1  0
 19  9  1  0
 21 23  2  0
 22 21  1  0
 24 22  1  0
 25 34  2  0
 25 30  1  0
 26 22  1  0
 26 30  1  0
 27 26  1  0
 28 29  1  0
 28 27  1  0
 29 25  1  0
 30 31  2  0
 31 32  1  0
 33 32  2  0
 34 33  1  0
 35  9  1  0
 35 36  1  0
 35 45  1  0
 36 39  1  0
 37 41  1  0
 37 36  1  0
 38 37  2  0
 41 40  1  0
 43 41  1  0
 43 44  1  0
 43 42  1  0
 45 48  1  1
 45 46  1  0
 47 45  1  0
 49  1  1  0
 51 50  1  0
 51 55  1  0
 53 50  1  0
 53 54  1  0
 53 52  1  0
 54 49  1  0
 55 56  1  6
 55 54  1  0
 55 52  1  0
 57 56  1  0
 58 63  1  0
 59 60  1  0
 59 58  1  0
 61 60  1  0
 61 68  1  0
 61 62  1  0
 63 57  1  0
 63 62  1  0
 64 57  2  0
 65 66  2  0
 66 85  1  0
 67 66  1  0
 67 70  1  0
 68 69  1  0
 68 65  1  0
 69 67  2  0
 70 71  1  0
 71 72  2  0
 73 76  1  0
 73 72  1  0
 74 73  2  0
 75 74  1  0
 75 70  2  0
 76 77  1  0
 77 78  1  0
 78 79  2  0
 80 79  1  0
 80 84  1  0
 81 80  2  0
 82 77  2  0
 82 81  1  0
 83 82  1  0
 85 86  1  0
 86 89  1  0
 86 88  1  0
 87 85  2  0
 90 65  1  0
 90 91  1  0
 92 90  1  0
M  ISO  4   7 101   8 101  56 100  57 100
M  END
>  <TORSDO>  (63) 
F 22

>  <SCORE>  (63) 
-13.101

>  <name>  (63) 
63

>  <ligand_id>  (63) 
63

>  <original_smiles>  (63) 
[H]c1c([H])c([H])c2c(c1[H])C([H])([H])C([H])([H])C([H])([H])C2([H])N([H])C(=O)C1([H])N(C(=O)C([H])(N([H])C(=O)C([H])(N([H])C([H])([H])[H])C([H])([H])[H])C(C([H])([H])[H])(C([H])([H])[H])C([H])([H])[H])C([H])([H])c2c([H])c(OC([H])([H])C([H])([H])C([H])(C([H])([H])[H])[N+]([H])([H])C([H])([H])C3([H])C4([H])C([H])([H])C([H])([H])C3(C([H])([H])C(=O)N3C([H])([H])C([H])([H])C([H])([H])C([H])(n5nc(-c6c([H])c([H])c(Oc7c([H])c([H])c(F)c([H])c7F)c([H])c6[H])c(C(=O)N([H])[H])c5N([H])[H])C3([H])[H])C4([H])[H])c([H])c([H])c2C1([H])[H]

>  <smiles>  (63) 
[H]c1c([H])c([H])c2c(c1[H])C([H])([H])C([H])([H])C([H])([H])C2([H])N([H])C(=O)C1([H])N(C(=O)C([H])(N([H])C(=O)C([H])(N([H])C([H])([H])[H])C([H])([H])[H])C(C([H])([H])[H])(C([H])([H])[H])C([H])([H])[H])C([H])([H])c2c([H])c(OC([H])([H])C([H])([H])C([H])(C([H])([H])[H])[N+]([H])([H])C([H])([H])C3([H])C4([H])C([H])([H])C([H])([H])C3(C([H])([H])C(=O)N3C([H])([H])C([H])([H])C([H])([H])C([H])(n5nc(-c6c([H])c([H])c(Oc7c([H])c([H])c(F)c([H])c7F)c([H])c6[H])c(C(=O)N([H])[H])c5N([H])[H])C3([H])[H])C4([H])[H])c([H])c([H])c2C1([H])[H]

$$$$
64:0:0
     RDKit          3D

 97106  0  0  1  0  0  0  0  0999 V2000
  -26.3190  -22.4010   20.7540 C   0  0  0  0  0  1  0  0  0  0  0  0
  -27.7470  -22.9750   20.8020 C   0  0  0  0  0  3  0  0  0  0  0  0
  -27.7140  -24.3850   21.2550 N   0  0  0  0  0  4  0  0  0  0  0  0
  -26.8300  -24.8030   21.0110 H   0  0  0  0  0  0  0  0  0  0  0  0
  -27.7640  -24.3910   22.2620 H   0  0  0  0  0  0  0  0  0  0  0  0
  -28.8070  -25.2350   20.7320 C   0  0  0  0  0  2  0  0  0  0  0  0
  -28.2930  -26.4140   19.8850 C   0  0  0  0  0  2  0  0  0  0  0  0
  -27.6970  -26.0260   18.5130 C   0  0  0  0  0  2  0  0  0  0  0  0
  -27.3970  -27.1840   17.7350 O   0  0  0  0  0  0  0  0  0  0  0  0
  -24.6480  -31.2710   22.8300 C   0  0  0  0  0  0  0  0  0  0  0  0
  -26.2960  -27.8810   18.1660 C   0  0  0  0  0  0  0  0  0  0  0  0
  -23.0320  -30.3870   21.1750 C   0  0  0  0  0  3  0  0  0  0  0  0
  -24.0520  -29.2960   19.1080 C   0  0  0  0  0  0  0  0  0  0  0  0
  -25.4720  -30.7860   20.5320 C   0  0  0  0  0  2  0  0  0  0  0  0
  -25.3360  -29.6480   19.5450 C   0  0  0  0  0  0  0  0  0  0  0  0
  -26.4620  -28.9490   19.0690 C   0  0  0  0  0  3  0  0  0  0  0  0
  -25.0010  -27.5280   17.7330 C   0  0  0  0  0  3  0  0  0  0  0  0
  -23.8770  -28.2350   18.2010 C   0  0  0  0  0  3  0  0  0  0  0  0
  -22.9020  -30.1100   19.6530 C   0  0  0  0  0  2  0  0  0  0  0  0
  -24.4140  -30.8120   21.5680 N   0  0  0  0  0  0  0  0  0  0  0  0
  -23.7240  -31.3890   23.6500 O   0  0  0  0  0  0  0  0  0  0  0  0
  -22.5310  -29.1430   21.9460 C   0  0  0  0  0  0  0  0  0  0  0  0
  -21.2050  -28.9310   21.9360 N   0  0  0  0  0  0  0  0  0  0  0  0
  -23.3260  -28.3830   22.5040 O   0  0  0  0  0  0  0  0  0  0  0  0
  -20.6240  -29.6070   21.4610 H   0  0  0  0  0  0  0  0  0  0  0  0
  -17.9890  -27.3170   22.2570 C   0  0  0  0  0  0  0  0  0  0  0  0
  -20.5100  -27.8040   22.5560 C   0  0  0  0  0  3  0  0  0  0  0  0
  -20.7510  -26.4970   21.7680 C   0  0  0  0  0  2  0  0  0  0  0  0
  -19.6700  -26.2140   20.7200 C   0  0  0  0  0  2  0  0  0  0  0  0
  -18.2930  -26.1110   21.3840 C   0  0  0  0  0  2  0  0  0  0  0  0
  -19.0290  -28.1200   22.7930 C   0  0  0  0  0  0  0  0  0  0  0  0
  -18.6930  -29.2510   23.5710 C   0  0  0  0  0  3  0  0  0  0  0  0
  -17.3470  -29.5790   23.8180 C   0  0  0  0  0  3  0  0  0  0  0  0
  -16.3200  -28.7730   23.2960 C   0  0  0  0  0  3  0  0  0  0  0  0
  -16.6410  -27.6430   22.5210 C   0  0  0  0  0  3  0  0  0  0  0  0
  -26.0760  -31.6940   23.2990 C   0  0  0  0  0  3  0  0  0  0  0  0
  -25.9480  -32.9800   23.9980 N   0  0  0  0  0  0  0  0  0  0  0  0
  -26.2990  -34.1640   23.4810 C   0  0  0  0  0  0  0  0  0  0  0  0
  -26.8370  -34.2810   22.3760 O   0  0  0  0  0  0  0  0  0  0  0  0
  -25.4600  -32.9640   24.8820 H   0  0  0  0  0  0  0  0  0  0  0  0
  -24.7710  -36.1430   23.7580 C   0  0  0  0  0  1  0  0  0  0  0  0
  -26.0040  -35.4200   24.3230 C   0  0  0  0  0  3  0  0  0  0  0  0
  -28.2690  -35.8450   25.1680 C   0  0  0  0  0  1  0  0  0  0  0  0
  -27.1430  -36.3600   24.3940 N   0  0  0  0  0  0  0  0  0  0  0  0
  -26.8560  -37.2450   24.8040 H   0  0  0  0  0  0  0  0  0  0  0  0
  -26.7720  -30.6220   24.2230 C   0  0  1  0  0  0  0  0  0  0  0  0
  -25.9040  -30.1820   25.4270 C   0  0  0  0  0  1  0  0  0  0  0  0
  -27.1350  -29.3570   23.4110 C   0  0  0  0  0  1  0  0  0  0  0  0
  -28.1000  -31.1880   24.7760 C   0  0  0  0  0  1  0  0  0  0  0  0
  -28.6900  -22.1440   21.7050 C   0  0  0  0  0  2  0  0  0  0  0  0
  -33.4300  -18.6670   19.4790 C   0  0  0  0  0  2  0  0  0  0  0  0
  -32.6380  -19.8920   19.9720 C   0  0  0  0  0  2  0  0  0  0  0  0
  -33.6000  -17.5390   20.5100 C   0  0  0  0  0  2  0  0  0  0  0  0
  -30.3510  -21.0410   20.0530 C   0  0  0  0  0  2  0  0  0  0  0  0
  -31.4930  -17.9120   21.9090 C   0  0  0  0  0  2  0  0  0  0  0  0
  -29.8080  -19.8520   22.0480 C   0  0  0  0  0  2  0  0  0  0  0  0
  -31.1060  -19.6970   19.9810 C   0  0  0  0  0  3  0  0  0  0  0  0
  -30.5320  -18.8500   21.1440 C   0  0  0  0  0  3  0  0  0  0  0  0
  -32.2920  -16.9110   21.0400 C   0  0  0  0  0  3  0  0  0  0  0  0
  -29.2060  -20.8430   21.0560 C   0  0  0  0  0  3  0  0  0  0  0  0
  -31.4100  -16.2330   19.9610 C   0  0  0  0  0  2  0  0  0  0  0  0
  -31.9930  -14.9690   19.3080 C   0  0  0  0  0  0  0  0  0  0  0  0
  -31.4840  -12.7650   18.3300 C   0  0  0  0  0  2  0  0  0  0  0  0
  -30.3910  -12.9310   17.2540 C   0  0  0  0  0  2  0  0  0  0  0  0
  -28.9850  -12.8780   17.8840 C   0  0  0  0  0  2  0  0  0  0  0  0
  -28.8450  -13.8170   19.1130 C   0  0  0  0  0  3  0  0  0  0  0  0
  -30.0310  -13.6120   20.0850 C   0  0  0  0  0  2  0  0  0  0  0  0
  -31.2790  -13.8160   19.3340 N   0  0  0  0  0  0  0  0  0  0  0  0
  -33.0280  -15.0960   18.6460 O   0  0  0  0  0  0  0  0  0  0  0  0
  -26.6620  -14.5930   20.2400 C   0  0  0  0  0  0  0  0  0  0  0  0
  -25.5840  -13.8970   20.7190 C   0  0  0  0  0  0  0  0  0  0  0  0
  -25.8840  -12.5150   20.5140 C   0  0  0  0  0  0  0  0  0  0  0  0
  -27.5580  -13.6380   19.7820 N   0  0  0  0  0  0  0  0  0  0  0  0
  -27.0990  -12.3790   20.0000 N   0  0  0  0  0  0  0  0  0  0  0  0
  -25.0630  -11.3170   20.7260 C   0  0  0  0  0  0  0  0  0  0  0  0
  -25.4230  -10.3330   21.6730 C   0  0  0  0  0  3  0  0  0  0  0  0
  -24.6070   -9.1980   21.8710 C   0  0  0  0  0  3  0  0  0  0  0  0
  -23.4190   -9.0390   21.1210 C   0  0  0  0  0  0  0  0  0  0  0  0
  -23.0770  -10.0100   20.1630 C   0  0  0  0  0  3  0  0  0  0  0  0
  -23.8920  -11.1370   19.9640 C   0  0  0  0  0  3  0  0  0  0  0  0
  -22.5790   -7.9570   21.2270 O   0  0  0  0  0  0  0  0  0  0  0  0
  -22.2540   -7.4140   22.4450 C   0  0  0  0  0  0  0  0  0  0  0  0
  -21.7210   -8.1990   23.4910 C   0  0  0  0  0  3  0  0  0  0  0  0
  -21.3360   -7.5900   24.7020 C   0  0  0  0  0  3  0  0  0  0  0  0
  -21.4740   -6.1990   24.8660 C   0  0  0  0  0  0  0  0  0  0  0  0
  -21.9990   -5.4150   23.8230 C   0  0  0  0  0  3  0  0  0  0  0  0
  -22.3850   -6.0220   22.6140 C   0  0  0  0  0  0  0  0  0  0  0  0
  -22.8710   -5.2600   21.6050 F   0  0  0  0  0  0  0  0  0  0  0  0
  -21.0950   -5.6110   26.0250 F   0  0  0  0  0  0  0  0  0  0  0  0
  -24.3050  -14.4800   21.2480 C   0  0  0  0  0  0  0  0  0  0  0  0
  -23.7220  -13.8550   22.2660 N   0  0  0  0  0  0  0  0  0  0  0  0
  -23.8400  -15.5230   20.7910 O   0  0  0  0  0  0  0  0  0  0  0  0
  -24.1150  -13.0120   22.6550 H   0  0  0  0  0  0  0  0  0  0  0  0
  -22.8710  -14.2290   22.6620 H   0  0  0  0  0  0  0  0  0  0  0  0
  -26.9450  -15.9510   20.1400 N   0  0  0  0  0  0  0  0  0  0  0  0
  -26.2800  -16.6620   20.4240 H   0  0  0  0  0  0  0  0  0  0  0  0
  -27.7870  -16.3370   19.7310 H   0  0  0  0  0  0  0  0  0  0  0  0
  2  1  1  0
  2  3  1  0
  2 50  1  0
  3  5  1  0
  4  3  1  0
  6  3  1  0
  7  6  1  0
  8  7  1  0
  9 11  1  0
  9  8  1  0
 10 21  2  0
 11 16  1  0
 12 20  1  0
 12 22  1  0
 13 15  1  0
 13 19  1  0
 14 20  1  0
 15 14  1  0
 16 15  2  0
 17 11  2  0
 17 18  1  0
 18 13  2  0
 19 12  1  0
 20 10  1  0
 22 24  2  0
 23 22  1  0
 25 23  1  0
 26 35  2  0
 26 31  1  0
 27 23  1  0
 27 31  1  0
 28 27  1  0
 29 30  1  0
 29 28  1  0
 30 26  1  0
 31 32  2  0
 32 33  1  0
 34 33  2  0
 35 34  1  0
 36 10  1  0
 36 37  1  0
 36 46  1  0
 37 40  1  0
 38 37  1  0
 38 42  1  0
 39 38  2  0
 42 41  1  0
 42 44  1  0
 44 45  1  0
 44 43  1  0
 46 49  1  1
 46 47  1  0
 48 46  1  0
 51 52  1  0
 51 53  1  0
 53 59  1  0
 54 60  1  0
 57 52  1  0
 57 54  1  0
 57 58  1  0
 58 55  1  0
 58 56  1  0
 59 61  1  0
 59 55  1  0
 60 50  1  0
 60 56  1  0
 62 68  1  0
 62 61  1  0
 63 68  1  0
 64 65  1  0
 64 63  1  0
 66 65  1  0
 66 73  1  0
 66 67  1  0
 68 67  1  0
 69 62  2  0
 70 71  2  0
 71 90  1  0
 72 71  1  0
 72 75  1  0
 73 74  1  0
 73 70  1  0
 74 72  2  0
 75 76  1  0
 76 77  2  0
 78 81  1  0
 78 77  1  0
 79 78  2  0
 80 79  1  0
 80 75  2  0
 81 82  1  0
 82 87  2  0
 82 83  1  0
 83 84  2  0
 84 85  1  0
 85 89  1  0
 86 85  2  0
 87 86  1  0
 88 87  1  0
 90 91  1  0
 91 93  1  0
 91 94  1  0
 92 90  2  0
 95 70  1  0
 95 96  1  0
 97 95  1  0
M  ISO  4   8 101   9 101  61 100  62 100
M  END
>  <TORSDO>  (64) 
F 23

>  <SCORE>  (64) 
-6.304

>  <name>  (64) 
64

>  <ligand_id>  (64) 
64

>  <original_smiles>  (64) 
[H]c1c([H])c([H])c2c(c1[H])C([H])([H])C([H])([H])C([H])([H])C2([H])N([H])C(=O)C1([H])N(C(=O)C([H])(N([H])C(=O)C([H])(N([H])C([H])([H])[H])C([H])([H])[H])C(C([H])([H])[H])(C([H])([H])[H])C([H])([H])[H])C([H])([H])c2c([H])c(OC([H])([H])C([H])([H])C([H])([H])[N+]([H])([H])C([H])(C([H])([H])[H])C([H])([H])C3([H])C([H])([H])C4([H])C([H])([H])C([H])([H])C([H])([H])C([H])(C([H])([H])C(=O)N5C([H])([H])C([H])([H])C([H])([H])C([H])(n6nc(-c7c([H])c([H])c(Oc8c([H])c([H])c(F)c([H])c8F)c([H])c7[H])c(C(=O)N([H])[H])c6N([H])[H])C5([H])[H])C([H])([H])C4([H])C3([H])[H])c([H])c([H])c2C1([H])[H]

>  <smiles>  (64) 
[H]c1c([H])c([H])c2c(c1[H])C([H])([H])C([H])([H])C([H])([H])C2([H])N([H])C(=O)C1([H])N(C(=O)C([H])(N([H])C(=O)C([H])(N([H])C([H])([H])[H])C([H])([H])[H])C(C([H])([H])[H])(C([H])([H])[H])C([H])([H])[H])C([H])([H])c2c([H])c(OC([H])([H])C([H])([H])C([H])([H])[N+]([H])([H])C([H])(C([H])([H])[H])C([H])([H])C3([H])C([H])([H])C4([H])C([H])([H])C([H])([H])C([H])([H])C([H])(C([H])([H])C(=O)N5C([H])([H])C([H])([H])C([H])([H])C([H])(n6nc(-c7c([H])c([H])c(Oc8c([H])c([H])c(F)c([H])c8F)c([H])c7[H])c(C(=O)N([H])[H])c6N([H])[H])C5([H])[H])C([H])([H])C4([H])C3([H])[H])c([H])c([H])c2C1([H])[H]

$$$$
65:0:0
     RDKit          3D

 94103  0  0  1  0  0  0  0  0999 V2000
  -29.9900  -20.8400   18.6270 N   0  0  0  0  0  4  0  0  0  0  0  0
  -29.0970  -20.5530   18.9900 H   0  0  0  0  0  0  0  0  0  0  0  0
  -29.8730  -21.0390   17.6460 H   0  0  0  0  0  0  0  0  0  0  0  0
  -29.5950  -19.0080   20.9100 C   0  0  0  0  0  2  0  0  0  0  0  0
  -29.5920  -17.6670   21.6380 C   0  0  0  0  0  2  0  0  0  0  0  0
  -31.3390  -17.3690   18.3800 C   0  0  0  0  0  2  0  0  0  0  0  0
  -30.9320  -19.0350   20.1460 C   0  0  0  0  0  3  0  0  0  0  0  0
  -31.2890  -17.5510   19.9080 C   0  0  0  0  0  3  0  0  0  0  0  0
  -30.2030  -16.7010   20.6210 C   0  0  0  0  0  3  0  0  0  0  0  0
  -30.5690  -18.5540   17.7950 C   0  0  0  0  0  3  0  0  0  0  0  0
  -30.9230  -19.7010   18.7510 C   0  0  0  0  0  3  0  0  0  0  0  0
  -30.9080  -18.8220   16.3200 C   0  0  0  0  0  1  0  0  0  0  0  0
  -30.6910  -15.3790   21.2640 C   0  0  0  0  0  2  0  0  0  0  0  0
  -31.0500  -14.2930   20.2320 C   0  0  0  0  0  0  0  0  0  0  0  0
  -30.5190  -12.2790   18.9060 C   0  0  0  0  0  2  0  0  0  0  0  0
  -29.5340  -12.6160   17.7710 C   0  0  0  0  0  2  0  0  0  0  0  0
  -28.0780  -12.5270   18.2670 C   0  0  0  0  0  2  0  0  0  0  0  0
  -27.8530  -13.3010   19.5940 C   0  0  0  0  0  3  0  0  0  0  0  0
  -28.9420  -12.9370   20.6260 C   0  0  0  0  0  2  0  0  0  0  0  0
  -30.2590  -13.2050   20.0220 N   0  0  0  0  0  0  0  0  0  0  0  0
  -32.0890  -14.4680   19.5910 O   0  0  0  0  0  0  0  0  0  0  0  0
  -25.5050  -13.9850   20.4060 C   0  0  0  0  0  0  0  0  0  0  0  0
  -24.4260  -13.2460   20.8080 C   0  0  0  0  0  0  0  0  0  0  0  0
  -24.8340  -11.8790   20.7390 C   0  0  0  0  0  0  0  0  0  0  0  0
  -26.5080  -13.0710   20.1210 N   0  0  0  0  0  0  0  0  0  0  0  0
  -26.1080  -11.7970   20.3740 N   0  0  0  0  0  0  0  0  0  0  0  0
  -24.0700  -10.6410   20.9420 C   0  0  0  0  0  0  0  0  0  0  0  0
  -24.5080   -9.6410   21.8400 C   0  0  0  0  0  3  0  0  0  0  0  0
  -23.7480   -8.4680   22.0320 C   0  0  0  0  0  3  0  0  0  0  0  0
  -22.5340   -8.2870   21.3270 C   0  0  0  0  0  0  0  0  0  0  0  0
  -22.1140   -9.2740   20.4170 C   0  0  0  0  0  3  0  0  0  0  0  0
  -22.8760  -10.4390   20.2230 C   0  0  0  0  0  3  0  0  0  0  0  0
  -21.7430   -7.1680   21.4300 O   0  0  0  0  0  0  0  0  0  0  0  0
  -21.7140   -6.4090   22.5720 C   0  0  0  0  0  0  0  0  0  0  0  0
  -21.3770   -6.9630   23.8270 C   0  0  0  0  0  3  0  0  0  0  0  0
  -21.2920   -6.1330   24.9630 C   0  0  0  0  0  3  0  0  0  0  0  0
  -21.5350   -4.7520   24.8470 C   0  0  0  0  0  0  0  0  0  0  0  0
  -21.8650   -4.1980   23.5980 C   0  0  0  0  0  3  0  0  0  0  0  0
  -21.9510   -5.0240   22.4630 C   0  0  0  0  0  0  0  0  0  0  0  0
  -22.2490   -4.4810   21.2580 F   0  0  0  0  0  0  0  0  0  0  0  0
  -21.4450   -3.9530   25.9360 F   0  0  0  0  0  0  0  0  0  0  0  0
  -23.0600  -13.7690   21.1490 C   0  0  0  0  0  0  0  0  0  0  0  0
  -22.3450  -13.0890   22.0390 N   0  0  0  0  0  0  0  0  0  0  0  0
  -22.6350  -14.8140   20.6580 O   0  0  0  0  0  0  0  0  0  0  0  0
  -22.7000  -12.2410   22.4550 H   0  0  0  0  0  0  0  0  0  0  0  0
  -21.4290  -13.4210   22.3060 H   0  0  0  0  0  0  0  0  0  0  0  0
  -25.7130  -15.3510   20.2410 N   0  0  0  0  0  0  0  0  0  0  0  0
  -24.9800  -16.0320   20.3970 H   0  0  0  0  0  0  0  0  0  0  0  0
  -26.5730  -15.7630   19.9030 H   0  0  0  0  0  0  0  0  0  0  0  0
  -30.4020  -22.0930   19.2920 C   0  0  0  0  0  2  0  0  0  0  0  0
  -29.2970  -23.1420   19.1170 C   0  0  0  0  0  2  0  0  0  0  0  0
  -29.5400  -24.5020   19.7940 C   0  0  0  0  0  2  0  0  0  0  0  0
  -28.2810  -25.3550   19.6140 C   0  0  0  0  0  2  0  0  0  0  0  0
  -28.3510  -26.6670   20.1710 O   0  0  0  0  0  0  0  0  0  0  0  0
  -24.5460  -31.8490   23.2290 C   0  0  0  0  0  0  0  0  0  0  0  0
  -27.1710  -27.3880   20.1590 C   0  0  0  0  0  0  0  0  0  0  0  0
  -23.3370  -30.4560   21.5840 C   0  0  0  0  0  3  0  0  0  0  0  0
  -24.7840  -28.9130   20.1710 C   0  0  0  0  0  0  0  0  0  0  0  0
  -25.8680  -30.7940   21.4020 C   0  0  0  0  0  2  0  0  0  0  0  0
  -25.9450  -29.4230   20.7650 C   0  0  0  0  0  0  0  0  0  0  0  0
  -27.1390  -28.6670   20.7610 C   0  0  0  0  0  3  0  0  0  0  0  0
  -25.9780  -26.8960   19.5650 C   0  0  0  0  0  3  0  0  0  0  0  0
  -24.7940  -27.6460   19.5750 C   0  0  0  0  0  3  0  0  0  0  0  0
  -23.5490  -29.7820   20.2060 C   0  0  0  0  0  2  0  0  0  0  0  0
  -24.6020  -31.0470   22.1300 N   0  0  0  0  0  0  0  0  0  0  0  0
  -23.4620  -32.1300   23.7610 O   0  0  0  0  0  0  0  0  0  0  0  0
  -22.6750  -29.4360   22.5380 C   0  0  0  0  0  0  0  0  0  0  0  0
  -21.3530  -29.2530   22.3930 N   0  0  0  0  0  0  0  0  0  0  0  0
  -23.3500  -28.8140   23.3630 O   0  0  0  0  0  0  0  0  0  0  0  0
  -20.8700  -29.8070   21.7000 H   0  0  0  0  0  0  0  0  0  0  0  0
  -17.9750  -28.0550   22.8380 C   0  0  0  0  0  0  0  0  0  0  0  0
  -20.5250  -28.3230   23.1600 C   0  0  0  0  0  3  0  0  0  0  0  0
  -20.6430  -26.8840   22.6060 C   0  0  0  0  0  2  0  0  0  0  0  0
  -19.5630  -26.5450   21.5730 C   0  0  0  0  0  2  0  0  0  0  0  0
  -18.1680  -26.6970   22.1850 C   0  0  0  0  0  2  0  0  0  0  0  0
  -19.0820  -28.8250   23.2810 C   0  0  0  0  0  0  0  0  0  0  0  0
  -18.8480  -30.0970   23.8480 C   0  0  0  0  0  3  0  0  0  0  0  0
  -17.5390  -30.5980   23.9810 C   0  0  0  0  0  3  0  0  0  0  0  0
  -16.4460  -29.8240   23.5520 C   0  0  0  0  0  3  0  0  0  0  0  0
  -16.6640  -28.5550   22.9860 C   0  0  0  0  0  3  0  0  0  0  0  0
  -25.8340  -32.4710   23.8520 C   0  0  0  0  0  3  0  0  0  0  0  0
  -25.5270  -33.8670   24.1880 N   0  0  0  0  0  0  0  0  0  0  0  0
  -25.8570  -34.9220   23.4300 C   0  0  0  0  0  0  0  0  0  0  0  0
  -26.5210  -34.8220   22.3950 O   0  0  0  0  0  0  0  0  0  0  0  0
  -24.9320  -34.0200   24.9900 H   0  0  0  0  0  0  0  0  0  0  0  0
  -24.1190  -36.7100   23.0960 C   0  0  0  0  0  1  0  0  0  0  0  0
  -25.3710  -36.3090   23.8940 C   0  0  0  0  0  3  0  0  0  0  0  0
  -27.5170  -37.1910   24.6980 C   0  0  0  0  0  1  0  0  0  0  0  0
  -26.4000  -37.3650   23.7730 N   0  0  0  0  0  0  0  0  0  0  0  0
  -25.9940  -38.2820   23.9420 H   0  0  0  0  0  0  0  0  0  0  0  0
  -26.3510  -31.6890   25.1210 C   0  0  1  0  0  0  0  0  0  0  0  0
  -25.2570  -31.4400   26.1870 C   0  0  0  0  0  1  0  0  0  0  0  0
  -26.9350  -30.3150   24.7180 C   0  0  0  0  0  1  0  0  0  0  0  0
  -27.5010  -32.4770   25.7900 C   0  0  0  0  0  1  0  0  0  0  0  0
  1  2  1  0
  1 50  1  0
  3  1  1  0
  4  5  1  0
  7  4  1  0
  8  6  1  0
  8  7  1  0
  8  9  1  0
  9 13  1  0
  9  5  1  0
 10 12  1  0
 10  6  1  0
 10 11  1  0
 11  1  1  0
 11  7  1  0
 14 13  1  0
 15 20  1  0
 16 17  1  0
 16 15  1  0
 18 17  1  0
 18 25  1  0
 18 19  1  0
 20 14  1  0
 20 19  1  0
 21 14  2  0
 22 23  2  0
 23 42  1  0
 24 23  1  0
 24 27  1  0
 25 26  1  0
 25 22  1  0
 26 24  2  0
 27 28  1  0
 28 29  2  0
 30 33  1  0
 30 29  1  0
 31 30  2  0
 32 31  1  0
 32 27  2  0
 33 34  1  0
 34 35  1  0
 35 36  2  0
 37 36  1  0
 37 41  1  0
 38 37  2  0
 39 34  2  0
 39 38  1  0
 40 39  1  0
 42 43  1  0
 43 46  1  0
 43 45  1  0
 44 42  2  0
 47 48  1  0
 47 22  1  0
 49 47  1  0
 51 50  1  0
 51 52  1  0
 53 52  1  0
 53 54  1  0
 55 66  2  0
 56 54  1  0
 56 61  1  0
 57 65  1  0
 57 67  1  0
 58 64  1  0
 58 60  1  0
 59 65  1  0
 60 59  1  0
 61 60  2  0
 62 63  1  0
 62 56  2  0
 63 58  2  0
 64 57  1  0
 65 55  1  0
 67 69  2  0
 68 67  1  0
 70 68  1  0
 71 80  2  0
 71 76  1  0
 72 68  1  0
 72 76  1  0
 73 72  1  0
 74 75  1  0
 74 73  1  0
 75 71  1  0
 76 77  2  0
 77 78  1  0
 79 78  2  0
 80 79  1  0
 81 55  1  0
 81 82  1  0
 81 91  1  0
 82 85  1  0
 83 87  1  0
 83 82  1  0
 84 83  2  0
 87 86  1  0
 89 87  1  0
 89 90  1  0
 89 88  1  0
 91 94  1  1
 91 92  1  0
 93 91  1  0
M  ISO  4  13 100  14 100  53 101  54 101
M  END
>  <TORSDO>  (65) 
F 22

>  <SCORE>  (65) 
-12.834

>  <name>  (65) 
65

>  <ligand_id>  (65) 
65

>  <original_smiles>  (65) 
[H]c1c([H])c([H])c2c(c1[H])C([H])([H])C([H])([H])C([H])([H])C2([H])N([H])C(=O)C1([H])N(C(=O)C([H])(N([H])C(=O)C([H])(N([H])C([H])([H])[H])C([H])([H])[H])C(C([H])([H])[H])(C([H])([H])[H])C([H])([H])[H])C([H])([H])c2c([H])c(OC([H])([H])C([H])([H])C([H])([H])C([H])([H])[N+]([H])([H])C3([H])C([H])(C([H])([H])[H])C([H])([H])C4([H])C([H])(C([H])([H])C(=O)N5C([H])([H])C([H])([H])C([H])([H])C([H])(n6nc(-c7c([H])c([H])c(Oc8c([H])c([H])c(F)c([H])c8F)c([H])c7[H])c(C(=O)N([H])[H])c6N([H])[H])C5([H])[H])C([H])([H])C([H])([H])C43[H])c([H])c([H])c2C1([H])[H]

>  <smiles>  (65) 
[H]c1c([H])c([H])c2c(c1[H])C([H])([H])C([H])([H])C([H])([H])C2([H])N([H])C(=O)C1([H])N(C(=O)C([H])(N([H])C(=O)C([H])(N([H])C([H])([H])[H])C([H])([H])[H])C(C([H])([H])[H])(C([H])([H])[H])C([H])([H])[H])C([H])([H])c2c([H])c(OC([H])([H])C([H])([H])C([H])([H])C([H])([H])[N+]([H])([H])C3([H])C([H])(C([H])([H])[H])C([H])([H])C4([H])C([H])(C([H])([H])C(=O)N5C([H])([H])C([H])([H])C([H])([H])C([H])(n6nc(-c7c([H])c([H])c(Oc8c([H])c([H])c(F)c([H])c8F)c([H])c7[H])c(C(=O)N([H])[H])c6N([H])[H])C5([H])[H])C([H])([H])C([H])([H])C43[H])c([H])c([H])c2C1([H])[H]

$$$$
66:0:0
     RDKit          3D

 94102  0  0  1  0  0  0  0  0999 V2000
  -29.3010  -22.6110   20.3080 C   0  0  0  0  0  3  0  0  0  0  0  0
  -30.9060  -24.1020   22.9510 C   0  0  0  0  0  2  0  0  0  0  0  0
  -29.5600  -24.3640   22.2810 C   0  0  0  0  0  2  0  0  0  0  0  0
  -30.8180  -22.6290   22.5400 C   0  0  0  0  0  3  0  0  0  0  0  0
  -29.4640  -22.8940   21.8200 C   0  0  0  0  0  3  0  0  0  0  0  0
  -29.8130  -21.0330   24.2700 C   0  0  0  0  0  2  0  0  0  0  0  0
  -30.8710  -21.6700   23.7350 C   0  0  0  0  0  0  0  0  0  0  0  0
  -32.2590  -21.4720   24.3220 C   0  0  0  0  0  1  0  0  0  0  0  0
  -28.7650  -21.2000   20.0580 N   0  0  0  0  0  4  0  0  0  0  0  0
  -28.1460  -20.9750   20.8210 H   0  0  0  0  0  0  0  0  0  0  0  0
  -28.2010  -21.2180   19.2230 H   0  0  0  0  0  0  0  0  0  0  0  0
  -29.7600  -20.0520   19.8800 C   0  0  0  0  0  3  0  0  0  0  0  0
  -29.3100  -18.5870   20.3350 C   0  0  0  0  0  3  0  0  0  0  0  0
  -30.3150  -17.3630   20.0990 C   0  0  0  0  0  3  0  0  0  0  0  0
  -29.8850  -15.9150   20.6210 C   0  0  0  0  0  3  0  0  0  0  0  0
  -30.6550  -14.6290   20.0930 C   0  0  0  0  0  0  0  0  0  0  0  0
  -30.3680  -12.4140   18.9910 C   0  0  0  0  0  2  0  0  0  0  0  0
  -29.3520  -12.5890   17.8390 C   0  0  0  0  0  2  0  0  0  0  0  0
  -27.9090  -12.4130   18.3510 C   0  0  0  0  0  2  0  0  0  0  0  0
  -27.6310  -13.2380   19.6360 C   0  0  0  0  0  3  0  0  0  0  0  0
  -28.7600  -13.0710   20.6750 C   0  0  0  0  0  2  0  0  0  0  0  0
  -30.0330  -13.4110   20.0280 N   0  0  0  0  0  0  0  0  0  0  0  0
  -31.7830  -14.7800   19.6150 O   0  0  0  0  0  0  0  0  0  0  0  0
  -25.3350  -13.8170   20.6280 C   0  0  0  0  0  0  0  0  0  0  0  0
  -24.2730  -13.0340   21.0000 C   0  0  0  0  0  0  0  0  0  0  0  0
  -24.6810  -11.6850   20.7770 C   0  0  0  0  0  0  0  0  0  0  0  0
  -26.3210  -12.9390   20.2040 N   0  0  0  0  0  0  0  0  0  0  0  0
  -25.9390  -11.6450   20.3550 N   0  0  0  0  0  0  0  0  0  0  0  0
  -23.9250  -10.4300   20.8900 C   0  0  0  0  0  0  0  0  0  0  0  0
  -24.3620   -9.3750   21.7220 C   0  0  0  0  0  3  0  0  0  0  0  0
  -23.6080   -8.1860   21.8270 C   0  0  0  0  0  3  0  0  0  0  0  0
  -22.4030   -8.0450   21.0980 C   0  0  0  0  0  0  0  0  0  0  0  0
  -21.9860   -9.0870   20.2500 C   0  0  0  0  0  3  0  0  0  0  0  0
  -22.7410  -10.2680   20.1450 C   0  0  0  0  0  3  0  0  0  0  0  0
  -21.6190   -6.9170   21.1160 O   0  0  0  0  0  0  0  0  0  0  0  0
  -21.5470   -6.1070   22.2200 C   0  0  0  0  0  0  0  0  0  0  0  0
  -21.0710   -6.5830   23.4620 C   0  0  0  0  0  3  0  0  0  0  0  0
  -20.9490   -5.7000   24.5530 C   0  0  0  0  0  3  0  0  0  0  0  0
  -21.2930   -4.3430   24.4050 C   0  0  0  0  0  0  0  0  0  0  0  0
  -21.7650   -3.8670   23.1690 C   0  0  0  0  0  3  0  0  0  0  0  0
  -21.8870   -4.7470   22.0780 C   0  0  0  0  0  0  0  0  0  0  0  0
  -22.3210   -4.2770   20.8830 F   0  0  0  0  0  0  0  0  0  0  0  0
  -21.1690   -3.4940   25.4520 F   0  0  0  0  0  0  0  0  0  0  0  0
  -22.9230  -13.5140   21.4480 C   0  0  0  0  0  0  0  0  0  0  0  0
  -22.2480  -12.7390   22.2900 N   0  0  0  0  0  0  0  0  0  0  0  0
  -22.4800  -14.6030   21.0890 O   0  0  0  0  0  0  0  0  0  0  0  0
  -22.6210  -11.8540   22.5960 H   0  0  0  0  0  0  0  0  0  0  0  0
  -21.3440  -13.0330   22.6310 H   0  0  0  0  0  0  0  0  0  0  0  0
  -25.5390  -15.1930   20.5890 N   0  0  0  0  0  0  0  0  0  0  0  0
  -24.8220  -15.8640   20.8480 H   0  0  0  0  0  0  0  0  0  0  0  0
  -26.3830  -15.6300   20.2420 H   0  0  0  0  0  0  0  0  0  0  0  0
  -28.6120  -23.8470   19.5200 C   0  0  0  0  0  2  0  0  0  0  0  0
  -27.7320  -24.9790   20.2290 C   0  0  0  0  0  2  0  0  0  0  0  0
  -27.8990  -26.3810   19.7760 O   0  0  0  0  0  0  0  0  0  0  0  0
  -24.3660  -31.7010   23.1500 C   0  0  0  0  0  0  0  0  0  0  0  0
  -26.7890  -27.2330   19.8370 C   0  0  0  0  0  0  0  0  0  0  0  0
  -23.0840  -30.4010   21.4880 C   0  0  0  0  0  3  0  0  0  0  0  0
  -24.4580  -28.8780   19.9580 C   0  0  0  0  0  0  0  0  0  0  0  0
  -25.6210  -30.6780   21.2400 C   0  0  0  0  0  2  0  0  0  0  0  0
  -25.6530  -29.3260   20.5370 C   0  0  0  0  0  0  0  0  0  0  0  0
  -26.8240  -28.5170   20.4620 C   0  0  0  0  0  3  0  0  0  0  0  0
  -25.5760  -26.8350   19.2360 C   0  0  0  0  0  3  0  0  0  0  0  0
  -24.4200  -27.6380   19.2980 C   0  0  0  0  0  3  0  0  0  0  0  0
  -23.2410  -29.7740   20.0780 C   0  0  0  0  0  2  0  0  0  0  0  0
  -24.3790  -30.9410   22.0170 N   0  0  0  0  0  0  0  0  0  0  0  0
  -23.3050  -31.9790   23.7290 O   0  0  0  0  0  0  0  0  0  0  0  0
  -22.4250  -29.3610   22.4250 C   0  0  0  0  0  0  0  0  0  0  0  0
  -21.1000  -29.1780   22.2870 N   0  0  0  0  0  0  0  0  0  0  0  0
  -23.1040  -28.7220   23.2330 O   0  0  0  0  0  0  0  0  0  0  0  0
  -20.6120  -29.7460   21.6090 H   0  0  0  0  0  0  0  0  0  0  0  0
  -17.7320  -27.9290   22.7190 C   0  0  0  0  0  0  0  0  0  0  0  0
  -20.2830  -28.2190   23.0330 C   0  0  0  0  0  3  0  0  0  0  0  0
  -20.4120  -26.7980   22.4410 C   0  0  0  0  0  2  0  0  0  0  0  0
  -19.3310  -26.4740   21.4050 C   0  0  0  0  0  2  0  0  0  0  0  0
  -17.9380  -26.5910   22.0290 C   0  0  0  0  0  2  0  0  0  0  0  0
  -18.8340  -28.7010   23.1770 C   0  0  0  0  0  0  0  0  0  0  0  0
  -18.5880  -29.9530   23.7800 C   0  0  0  0  0  3  0  0  0  0  0  0
  -17.2730  -30.4330   23.9350 C   0  0  0  0  0  3  0  0  0  0  0  0
  -16.1870  -29.6570   23.4940 C   0  0  0  0  0  3  0  0  0  0  0  0
  -16.4170  -28.4070   22.8940 C   0  0  0  0  0  3  0  0  0  0  0  0
  -25.6810  -32.2760   23.7630 C   0  0  0  0  0  3  0  0  0  0  0  0
  -26.2000  -31.4510   25.0030 C   0  0  1  0  0  0  0  0  0  0  0  0
  -25.1200  -31.1980   26.0810 C   0  0  0  0  0  1  0  0  0  0  0  0
  -26.7460  -30.0750   24.5550 C   0  0  0  0  0  1  0  0  0  0  0  0
  -27.3820  -32.1950   25.6690 C   0  0  0  0  0  1  0  0  0  0  0  0
  -25.4200  -33.6720   24.1420 N   0  0  0  0  0  0  0  0  0  0  0  0
  -25.7830  -34.7380   23.4170 C   0  0  0  0  0  0  0  0  0  0  0  0
  -26.4420  -34.6480   22.3780 O   0  0  0  0  0  0  0  0  0  0  0  0
  -24.8350  -33.8190   24.9510 H   0  0  0  0  0  0  0  0  0  0  0  0
  -24.1140  -36.6020   23.1350 C   0  0  0  0  0  1  0  0  0  0  0  0
  -25.3460  -36.1270   23.9240 C   0  0  0  0  0  3  0  0  0  0  0  0
  -27.5090  -36.9190   24.7780 C   0  0  0  0  0  1  0  0  0  0  0  0
  -26.4140  -37.1490   23.8390 N   0  0  0  0  0  0  0  0  0  0  0  0
  -26.0380  -38.0790   24.0100 H   0  0  0  0  0  0  0  0  0  0  0  0
  1 52  1  0
  3  2  1  0
  4  2  1  0
  4  7  1  0
  5  1  1  0
  5  3  1  0
  5  4  1  0
  7  6  2  0
  7  8  1  0
  9  1  1  0
  9 10  1  0
 11  9  1  0
 12  9  1  0
 12 13  2  0
 14 13  1  0
 14 15  2  0
 16 15  1  0
 17 22  1  0
 18 19  1  0
 18 17  1  0
 20 19  1  0
 20 27  1  0
 20 21  1  0
 22 16  1  0
 22 21  1  0
 23 16  2  0
 24 25  2  0
 25 44  1  0
 26 29  1  0
 26 25  1  0
 27 28  1  0
 27 24  1  0
 28 26  2  0
 29 30  1  0
 30 31  2  0
 32 35  1  0
 32 31  1  0
 33 32  2  0
 34 33  1  0
 34 29  2  0
 35 36  1  0
 36 37  1  0
 37 38  2  0
 39 38  1  0
 39 43  1  0
 40 39  2  0
 41 36  2  0
 41 40  1  0
 42 41  1  0
 44 45  1  0
 45 47  1  0
 45 48  1  0
 46 44  2  0
 49 24  1  0
 49 50  1  0
 51 49  1  0
 52 53  1  0
 54 56  1  0
 54 53  1  0
 55 66  2  0
 56 61  1  0
 57 65  1  0
 57 67  1  0
 58 64  1  0
 58 60  1  0
 59 65  1  0
 60 59  1  0
 61 60  2  0
 62 63  1  0
 62 56  2  0
 63 58  2  0
 64 57  1  0
 65 55  1  0
 67 69  2  0
 68 67  1  0
 70 68  1  0
 71 80  2  0
 71 76  1  0
 72 68  1  0
 72 76  1  0
 73 72  1  0
 74 75  1  0
 74 73  1  0
 75 71  1  0
 76 77  2  0
 77 78  1  0
 79 78  2  0
 80 79  1  0
 81 55  1  0
 81 86  1  0
 81 82  1  0
 82 85  1  1
 82 83  1  0
 84 82  1  0
 86 89  1  0
 87 91  1  0
 87 86  1  0
 88 87  2  0
 91 90  1  0
 93 91  1  0
 93 94  1  0
 93 92  1  0
M  ISO  4  15 100  16 100  53 101  54 101
M  END
>  <TORSDO>  (66) 
F 25

>  <SCORE>  (66) 
-10.026

>  <name>  (66) 
66

>  <ligand_id>  (66) 
66

>  <original_smiles>  (66) 
[H]C([H])=C(C([H])([H])[H])C1([H])C([H])([H])C([H])([H])C1([H])C([H])(C([H])([H])C([H])([H])Oc1c([H])c([H])c2c(c1[H])C([H])([H])N(C(=O)C([H])(N([H])C(=O)C([H])(N([H])C([H])([H])[H])C([H])([H])[H])C(C([H])([H])[H])(C([H])([H])[H])C([H])([H])[H])C([H])(C(=O)N([H])C1([H])c3c([H])c([H])c([H])c([H])c3C([H])([H])C([H])([H])C1([H])[H])C2([H])[H])[N+]([H])([H])C([H])([H])C([H])([H])C([H])([H])C([H])([H])C(=O)N1C([H])([H])C([H])([H])C([H])([H])C([H])(n2nc(-c3c([H])c([H])c(Oc4c([H])c([H])c(F)c([H])c4F)c([H])c3[H])c(C(=O)N([H])[H])c2N([H])[H])C1([H])[H]

>  <smiles>  (66) 
[H]C([H])=C(C([H])([H])[H])C1([H])C([H])([H])C([H])([H])C1([H])C([H])(C([H])([H])C([H])([H])Oc1c([H])c([H])c2c(c1[H])C([H])([H])N(C(=O)C([H])(N([H])C(=O)C([H])(N([H])C([H])([H])[H])C([H])([H])[H])C(C([H])([H])[H])(C([H])([H])[H])C([H])([H])[H])C([H])(C(=O)N([H])C1([H])c3c([H])c([H])c([H])c([H])c3C([H])([H])C([H])([H])C1([H])[H])C2([H])[H])[N+]([H])([H])C([H])([H])C([H])([H])C([H])([H])C([H])([H])C(=O)N1C([H])([H])C([H])([H])C([H])([H])C([H])(n2nc(-c3c([H])c([H])c(Oc4c([H])c([H])c(F)c([H])c4F)c([H])c3[H])c(C(=O)N([H])[H])c2N([H])[H])C1([H])[H]

$$$$
67:0:0
     RDKit          3D

 94103  0  0  1  0  0  0  0  0999 V2000
  -26.1550  -22.6490   21.2630 C   0  0  0  0  0  2  0  0  0  0  0  0
  -25.7640  -23.8480   20.3890 C   0  0  0  0  0  2  0  0  0  0  0  0
  -26.9240  -22.3140   19.0370 C   0  0  0  0  0  2  0  0  0  0  0  0
  -27.3090  -22.0010   20.4720 C   0  0  0  0  0  3  0  0  0  0  0  0
  -26.8470  -23.8120   19.2920 C   0  0  0  0  0  3  0  0  0  0  0  0
  -28.6170  -22.8170   20.6210 C   0  0  0  0  0  3  0  0  0  0  0  0
  -28.2470  -24.1670   19.8730 C   0  0  0  0  0  3  0  0  0  0  0  0
  -29.8980  -22.0870   20.0500 C   0  0  0  0  0  2  0  0  0  0  0  0
  -30.9000  -20.2380   18.5960 C   0  0  0  0  0  1  0  0  0  0  0  0
  -29.8900  -20.5410   19.7250 C   0  0  0  0  0  3  0  0  0  0  0  0
  -30.1890  -19.5960   20.9310 C   0  0  0  0  0  2  0  0  0  0  0  0
  -29.9920  -18.1500   20.6060 N   0  0  0  0  0  4  0  0  0  0  0  0
  -29.0000  -17.9750   20.6140 H   0  0  0  0  0  0  0  0  0  0  0  0
  -30.3240  -17.9950   19.6670 H   0  0  0  0  0  0  0  0  0  0  0  0
  -30.6790  -17.1800   21.5140 C   0  0  0  0  0  2  0  0  0  0  0  0
  -30.1160  -15.7200   21.4920 C   0  0  0  0  0  2  0  0  0  0  0  0
  -30.8140  -14.6470   20.6040 C   0  0  0  0  0  0  0  0  0  0  0  0
  -30.5900  -12.5100   19.3510 C   0  0  0  0  0  2  0  0  0  0  0  0
  -29.6560  -12.7070   18.1370 C   0  0  0  0  0  2  0  0  0  0  0  0
  -28.1720  -12.5600   18.5380 C   0  0  0  0  0  2  0  0  0  0  0  0
  -27.8150  -13.3800   19.8060 C   0  0  0  0  0  3  0  0  0  0  0  0
  -28.8490  -13.1120   20.9220 C   0  0  0  0  0  2  0  0  0  0  0  0
  -30.1780  -13.4610   20.3940 N   0  0  0  0  0  0  0  0  0  0  0  0
  -31.9010  -14.9050   20.0770 O   0  0  0  0  0  0  0  0  0  0  0  0
  -25.3980  -14.0020   20.4460 C   0  0  0  0  0  0  0  0  0  0  0  0
  -24.3220  -13.2320   20.8040 C   0  0  0  0  0  0  0  0  0  0  0  0
  -24.7840  -11.8810   20.7980 C   0  0  0  0  0  0  0  0  0  0  0  0
  -26.4480  -13.1160   20.2530 N   0  0  0  0  0  0  0  0  0  0  0  0
  -26.0800  -11.8380   20.5180 N   0  0  0  0  0  0  0  0  0  0  0  0
  -24.0550  -10.6210   20.9820 C   0  0  0  0  0  0  0  0  0  0  0  0
  -24.4760   -9.6580   21.9250 C   0  0  0  0  0  3  0  0  0  0  0  0
  -23.7490   -8.4610   22.1010 C   0  0  0  0  0  3  0  0  0  0  0  0
  -22.5860   -8.2180   21.3330 C   0  0  0  0  0  0  0  0  0  0  0  0
  -22.1820   -9.1710   20.3810 C   0  0  0  0  0  3  0  0  0  0  0  0
  -22.9100  -10.3590   20.2030 C   0  0  0  0  0  3  0  0  0  0  0  0
  -21.8300   -7.0740   21.4180 O   0  0  0  0  0  0  0  0  0  0  0  0
  -21.7740   -6.3320   22.5700 C   0  0  0  0  0  0  0  0  0  0  0  0
  -21.3560   -6.8910   23.7960 C   0  0  0  0  0  3  0  0  0  0  0  0
  -21.2500   -6.0760   24.9410 C   0  0  0  0  0  3  0  0  0  0  0  0
  -21.5480   -4.7020   24.8580 C   0  0  0  0  0  0  0  0  0  0  0  0
  -21.9570   -4.1420   23.6350 C   0  0  0  0  0  3  0  0  0  0  0  0
  -22.0680   -4.9560   22.4940 C   0  0  0  0  0  0  0  0  0  0  0  0
  -22.4440   -4.4080   21.3130 F   0  0  0  0  0  0  0  0  0  0  0  0
  -21.4360   -3.9170   25.9550 F   0  0  0  0  0  0  0  0  0  0  0  0
  -22.9190  -13.7110   21.0400 C   0  0  0  0  0  0  0  0  0  0  0  0
  -22.1760  -13.0230   21.9010 N   0  0  0  0  0  0  0  0  0  0  0  0
  -22.4890  -14.7290   20.4980 O   0  0  0  0  0  0  0  0  0  0  0  0
  -22.5350  -12.1980   22.3580 H   0  0  0  0  0  0  0  0  0  0  0  0
  -21.2340  -13.3240   22.1040 H   0  0  0  0  0  0  0  0  0  0  0  0
  -25.5690  -15.3700   20.2520 N   0  0  0  0  0  0  0  0  0  0  0  0
  -24.8040  -16.0320   20.3230 H   0  0  0  0  0  0  0  0  0  0  0  0
  -26.4200  -15.7880   19.8970 H   0  0  0  0  0  0  0  0  0  0  0  0
  -28.3490  -25.4870   20.7350 C   0  0  0  0  0  2  0  0  0  0  0  0
  -28.3380  -26.7710   20.0570 O   0  0  0  0  0  0  0  0  0  0  0  0
  -24.5650  -31.9810   23.2470 C   0  0  0  0  0  0  0  0  0  0  0  0
  -27.1820  -27.5340   20.1240 C   0  0  0  0  0  0  0  0  0  0  0  0
  -23.3480  -30.5910   21.6080 C   0  0  0  0  0  3  0  0  0  0  0  0
  -24.7920  -29.0660   20.1680 C   0  0  0  0  0  0  0  0  0  0  0  0
  -25.8790  -30.9410   21.4000 C   0  0  0  0  0  2  0  0  0  0  0  0
  -25.9600  -29.5740   20.7530 C   0  0  0  0  0  0  0  0  0  0  0  0
  -27.1610  -28.8160   20.7300 C   0  0  0  0  0  3  0  0  0  0  0  0
  -25.9980  -27.0750   19.5150 C   0  0  0  0  0  3  0  0  0  0  0  0
  -24.8060  -27.8100   19.5490 C   0  0  0  0  0  3  0  0  0  0  0  0
  -23.5500  -29.9270   20.2230 C   0  0  0  0  0  2  0  0  0  0  0  0
  -24.6170  -31.1870   22.1420 N   0  0  0  0  0  0  0  0  0  0  0  0
  -23.4870  -32.2500   23.7960 O   0  0  0  0  0  0  0  0  0  0  0  0
  -22.7050  -29.5600   22.5640 C   0  0  0  0  0  0  0  0  0  0  0  0
  -21.3820  -29.3630   22.4320 N   0  0  0  0  0  0  0  0  0  0  0  0
  -23.3930  -28.9380   23.3780 O   0  0  0  0  0  0  0  0  0  0  0  0
  -20.8890  -29.9170   21.7450 H   0  0  0  0  0  0  0  0  0  0  0  0
  -18.0210  -28.1230   22.9060 C   0  0  0  0  0  0  0  0  0  0  0  0
  -20.5720  -28.4150   23.1970 C   0  0  0  0  0  3  0  0  0  0  0  0
  -20.6990  -26.9840   22.6270 C   0  0  0  0  0  2  0  0  0  0  0  0
  -19.6100  -26.6420   21.6060 C   0  0  0  0  0  2  0  0  0  0  0  0
  -18.2210  -26.7710   22.2380 C   0  0  0  0  0  2  0  0  0  0  0  0
  -19.1250  -28.9010   23.3400 C   0  0  0  0  0  0  0  0  0  0  0  0
  -18.8850  -30.1650   23.9220 C   0  0  0  0  0  3  0  0  0  0  0  0
  -17.5720  -30.6490   24.0760 C   0  0  0  0  0  3  0  0  0  0  0  0
  -16.4820  -29.8680   23.6570 C   0  0  0  0  0  3  0  0  0  0  0  0
  -16.7070  -28.6060   23.0780 C   0  0  0  0  0  3  0  0  0  0  0  0
  -25.8550  -32.6070   23.8620 C   0  0  0  0  0  3  0  0  0  0  0  0
  -25.5490  -34.0050   24.1920 N   0  0  0  0  0  0  0  0  0  0  0  0
  -25.8810  -35.0570   23.4290 C   0  0  0  0  0  0  0  0  0  0  0  0
  -26.5500  -34.9500   22.3970 O   0  0  0  0  0  0  0  0  0  0  0  0
  -24.9630  -34.1630   24.9980 H   0  0  0  0  0  0  0  0  0  0  0  0
  -24.1550  -36.8490   23.0730 C   0  0  0  0  0  1  0  0  0  0  0  0
  -25.3970  -36.4460   23.8860 C   0  0  0  0  0  3  0  0  0  0  0  0
  -27.5350  -37.3240   24.7140 C   0  0  0  0  0  1  0  0  0  0  0  0
  -26.4310  -37.4970   23.7720 N   0  0  0  0  0  0  0  0  0  0  0  0
  -26.0280  -38.4180   23.9220 H   0  0  0  0  0  0  0  0  0  0  0  0
  -26.3780  -31.8340   25.1340 C   0  0  1  0  0  0  0  0  0  0  0  0
  -25.2910  -31.5960   26.2060 C   0  0  0  0  0  1  0  0  0  0  0  0
  -26.9570  -30.4550   24.7360 C   0  0  0  0  0  1  0  0  0  0  0  0
  -27.5340  -32.6260   25.7890 C   0  0  0  0  0  1  0  0  0  0  0  0
  2  1  1  0
  4  3  1  0
  4  6  1  0
  4  1  1  0
  5  3  1  0
  5  7  1  0
  5  2  1  0
  6  8  1  0
  7  6  1  0
  7 53  1  0
 10  9  1  0
 10  8  1  0
 10 11  1  0
 12 13  1  0
 12 11  1  0
 12 15  1  0
 14 12  1  0
 16 15  1  0
 17 16  1  0
 18 23  1  0
 19 20  1  0
 19 18  1  0
 21 20  1  0
 21 28  1  0
 21 22  1  0
 23 17  1  0
 23 22  1  0
 24 17  2  0
 25 26  2  0
 26 45  1  0
 27 26  1  0
 27 30  1  0
 28 25  1  0
 28 29  1  0
 29 27  2  0
 30 31  1  0
 31 32  2  0
 33 36  1  0
 33 32  1  0
 34 33  2  0
 35 34  1  0
 35 30  2  0
 36 37  1  0
 37 38  1  0
 38 39  2  0
 40 39  1  0
 40 44  1  0
 41 40  2  0
 42 37  2  0
 42 41  1  0
 43 42  1  0
 45 46  1  0
 46 49  1  0
 46 48  1  0
 47 45  2  0
 50 51  1  0
 50 25  1  0
 52 50  1  0
 54 56  1  0
 54 53  1  0
 55 66  2  0
 56 61  1  0
 57 65  1  0
 57 67  1  0
 58 64  1  0
 58 60  1  0
 59 65  1  0
 60 59  1  0
 61 60  2  0
 62 63  1  0
 62 56  2  0
 63 58  2  0
 64 57  1  0
 65 55  1  0
 67 69  2  0
 68 67  1  0
 70 68  1  0
 71 80  2  0
 71 76  1  0
 72 68  1  0
 72 76  1  0
 73 72  1  0
 74 75  1  0
 74 73  1  0
 75 71  1  0
 76 77  2  0
 77 78  1  0
 79 78  2  0
 80 79  1  0
 81 55  1  0
 81 82  1  0
 81 91  1  0
 82 85  1  0
 83 87  1  0
 83 82  1  0
 84 83  2  0
 87 86  1  0
 89 87  1  0
 89 90  1  0
 89 88  1  0
 91 94  1  1
 91 92  1  0
 93 91  1  0
M  ISO  4  16 100  17 100  53 101  54 101
M  END
>  <TORSDO>  (67) 
F 23

>  <SCORE>  (67) 
-12.485

>  <name>  (67) 
67

>  <ligand_id>  (67) 
67

>  <original_smiles>  (67) 
[H]c1c([H])c([H])c2c(c1[H])C([H])([H])C([H])([H])C([H])([H])C2([H])N([H])C(=O)C1([H])N(C(=O)C([H])(N([H])C(=O)C([H])(N([H])C([H])([H])[H])C([H])([H])[H])C(C([H])([H])[H])(C([H])([H])[H])C([H])([H])[H])C([H])([H])c2c([H])c(OC([H])([H])C3([H])C4([H])C([H])([H])C([H])([H])C([H])(C4([H])[H])C3([H])C([H])([H])C([H])(C([H])([H])[H])C([H])([H])[N+]([H])([H])C([H])([H])C([H])([H])C(=O)N3C([H])([H])C([H])([H])C([H])([H])C([H])(n4nc(-c5c([H])c([H])c(Oc6c([H])c([H])c(F)c([H])c6F)c([H])c5[H])c(C(=O)N([H])[H])c4N([H])[H])C3([H])[H])c([H])c([H])c2C1([H])[H]

>  <smiles>  (67) 
[H]c1c([H])c([H])c2c(c1[H])C([H])([H])C([H])([H])C([H])([H])C2([H])N([H])C(=O)C1([H])N(C(=O)C([H])(N([H])C(=O)C([H])(N([H])C([H])([H])[H])C([H])([H])[H])C(C([H])([H])[H])(C([H])([H])[H])C([H])([H])[H])C([H])([H])c2c([H])c(OC([H])([H])C3([H])C4([H])C([H])([H])C([H])([H])C([H])(C4([H])[H])C3([H])C([H])([H])C([H])(C([H])([H])[H])C([H])([H])[N+]([H])([H])C([H])([H])C([H])([H])C(=O)N3C([H])([H])C([H])([H])C([H])([H])C([H])(n4nc(-c5c([H])c([H])c(Oc6c([H])c([H])c(F)c([H])c6F)c([H])c5[H])c(C(=O)N([H])[H])c4N([H])[H])C3([H])[H])c([H])c([H])c2C1([H])[H]

$$$$
68:0:0
     RDKit          3D

100110  0  0  1  0  0  0  0  0999 V2000
  -29.2770  -17.4140   14.9010 C   0  0  0  0  0  3  0  0  0  0  0  0
  -30.6050  -17.4770   14.4600 C   0  0  0  0  0  3  0  0  0  0  0  0
  -29.0050  -17.2480   16.2690 C   0  0  0  0  0  3  0  0  0  0  0  0
  -31.6610  -17.4170   15.3840 C   0  0  0  0  0  3  0  0  0  0  0  0
  -30.0500  -17.1490   17.2080 C   0  0  0  0  0  0  0  0  0  0  0  0
  -31.4170  -17.2800   16.7650 C   0  0  0  0  0  0  0  0  0  0  0  0
  -29.5810  -16.8100   18.6400 C   0  0  0  0  0  2  0  0  0  0  0  0
  -32.6730  -17.3680   17.6690 C   0  0  0  0  0  2  0  0  0  0  0  0
  -32.7770  -18.9930   21.1370 C   0  0  0  0  0  2  0  0  0  0  0  0
  -33.5620  -18.5140   19.8760 C   0  0  0  0  0  2  0  0  0  0  0  0
  -30.6210  -16.9710   19.7610 C   0  0  0  0  0  3  0  0  0  0  0  0
  -31.2140  -18.5150   19.5230 C   0  0  0  0  0  3  0  0  0  0  0  0
  -31.4270  -19.6110   20.6650 C   0  0  0  0  0  3  0  0  0  0  0  0
  -32.5560  -18.5240   18.7040 C   0  0  2  0  0  0  0  0  0  0  0  0
  -32.7740  -19.7950   17.8180 C   0  0  0  0  0  1  0  0  0  0  0  0
  -31.2170  -15.6580   20.5370 C   0  0  0  0  0  0  0  0  0  0  0  0
  -31.1180  -13.3290   19.6820 C   0  0  0  0  0  2  0  0  0  0  0  0
  -30.2570  -13.2340   18.4090 C   0  0  0  0  0  2  0  0  0  0  0  0
  -28.7550  -13.0840   18.7590 C   0  0  0  0  0  2  0  0  0  0  0  0
  -28.2610  -13.9920   19.9260 C   0  0  0  0  0  3  0  0  0  0  0  0
  -29.2790  -14.0500   21.0790 C   0  0  0  0  0  2  0  0  0  0  0  0
  -30.5870  -14.4260   20.5190 N   0  0  0  0  0  0  0  0  0  0  0  0
  -32.4320  -15.6540   20.7490 O   0  0  0  0  0  0  0  0  0  0  0  0
  -25.8370  -14.5450   20.5290 C   0  0  0  0  0  0  0  0  0  0  0  0
  -24.7590  -13.7410   20.7990 C   0  0  0  0  0  0  0  0  0  0  0  0
  -25.2510  -12.4040   20.7620 C   0  0  0  0  0  0  0  0  0  0  0  0
  -26.9060  -13.6800   20.3440 N   0  0  0  0  0  0  0  0  0  0  0  0
  -26.5570  -12.3890   20.5420 N   0  0  0  0  0  0  0  0  0  0  0  0
  -24.5440  -11.1240   20.8650 C   0  0  0  0  0  0  0  0  0  0  0  0
  -24.8790  -10.1740   21.8530 C   0  0  0  0  0  3  0  0  0  0  0  0
  -24.1670   -8.9590   21.9370 C   0  0  0  0  0  3  0  0  0  0  0  0
  -23.1130   -8.6880   21.0340 C   0  0  0  0  0  0  0  0  0  0  0  0
  -22.8080   -9.6290   20.0360 C   0  0  0  0  0  3  0  0  0  0  0  0
  -23.5200  -10.8330   19.9460 C   0  0  0  0  0  3  0  0  0  0  0  0
  -22.3810   -7.5280   21.0290 O   0  0  0  0  0  0  0  0  0  0  0  0
  -22.0980   -6.8530   22.1890 C   0  0  0  0  0  0  0  0  0  0  0  0
  -21.4080   -7.4650   23.2590 C   0  0  0  0  0  3  0  0  0  0  0  0
  -21.0830   -6.7150   24.4090 C   0  0  0  0  0  3  0  0  0  0  0  0
  -21.4310   -5.3530   24.4830 C   0  0  0  0  0  0  0  0  0  0  0  0
  -22.1170   -4.7410   23.4190 C   0  0  0  0  0  3  0  0  0  0  0  0
  -22.4470   -5.4900   22.2750 C   0  0  0  0  0  0  0  0  0  0  0  0
  -23.0900   -4.8890   21.2420 F   0  0  0  0  0  0  0  0  0  0  0  0
  -21.1100   -4.6310   25.5810 F   0  0  0  0  0  0  0  0  0  0  0  0
  -23.3420  -14.1980   20.9870 C   0  0  0  0  0  0  0  0  0  0  0  0
  -22.5680  -13.4720   21.7890 N   0  0  0  0  0  0  0  0  0  0  0  0
  -22.9270  -15.2280   20.4620 O   0  0  0  0  0  0  0  0  0  0  0  0
  -22.9130  -12.6400   22.2410 H   0  0  0  0  0  0  0  0  0  0  0  0
  -21.6140  -13.7560   21.9520 H   0  0  0  0  0  0  0  0  0  0  0  0
  -25.9810  -15.9250   20.4110 N   0  0  0  0  0  0  0  0  0  0  0  0
  -25.1900  -16.5530   20.4980 H   0  0  0  0  0  0  0  0  0  0  0  0
  -26.8460  -16.4090   20.2130 H   0  0  0  0  0  0  0  0  0  0  0  0
  -32.8460  -21.8640   20.6960 C   0  0  0  0  0  1  0  0  0  0  0  0
  -31.5010  -21.2230   20.2400 C   0  0  0  0  0  3  0  0  0  0  0  0
  -30.3390  -22.2050   20.4810 N   0  0  0  0  0  4  0  0  0  0  0  0
  -29.5100  -21.7760   20.1070 H   0  0  0  0  0  0  0  0  0  0  0  0
  -30.2060  -22.3030   21.4700 H   0  0  0  0  0  0  0  0  0  0  0  0
  -30.4100  -23.6250   19.8690 C   0  0  0  0  0  3  0  0  0  0  0  0
  -29.2640  -24.7230   20.2170 C   0  0  0  0  0  3  0  0  0  0  0  0
  -29.3580  -26.1850   19.5320 C   0  0  0  0  0  2  0  0  0  0  0  0
  -29.1380  -27.4510   20.2810 O   0  0  0  0  0  0  0  0  0  0  0  0
  -25.0460  -32.1870   23.8750 C   0  0  0  0  0  0  0  0  0  0  0  0
  -27.9360  -28.1850   20.3050 C   0  0  0  0  0  0  0  0  0  0  0  0
  -23.9180  -30.9270   22.0700 C   0  0  0  0  0  3  0  0  0  0  0  0
  -25.4640  -29.6360   20.4810 C   0  0  0  0  0  0  0  0  0  0  0  0
  -26.4380  -31.4080   21.9520 C   0  0  0  0  0  2  0  0  0  0  0  0
  -26.6030  -30.1250   21.1370 C   0  0  0  0  0  0  0  0  0  0  0  0
  -27.8350  -29.4120   21.0370 C   0  0  0  0  0  3  0  0  0  0  0  0
  -26.7710  -27.7390   19.6410 C   0  0  0  0  0  3  0  0  0  0  0  0
  -25.5550  -28.4510   19.7270 C   0  0  0  0  0  3  0  0  0  0  0  0
  -24.1670  -30.4130   20.6260 C   0  0  0  0  0  2  0  0  0  0  0  0
  -25.1500  -31.5180   22.6900 N   0  0  0  0  0  0  0  0  0  0  0  0
  -23.9500  -32.3470   24.4310 O   0  0  0  0  0  0  0  0  0  0  0  0
  -23.3060  -29.7780   22.9060 C   0  0  0  0  0  0  0  0  0  0  0  0
  -22.0090  -29.4970   22.6910 N   0  0  0  0  0  0  0  0  0  0  0  0
  -23.9970  -29.1440   23.7050 O   0  0  0  0  0  0  0  0  0  0  0  0
  -21.5040  -30.0720   22.0330 H   0  0  0  0  0  0  0  0  0  0  0  0
  -18.7590  -27.9090   22.8400 C   0  0  0  0  0  0  0  0  0  0  0  0
  -21.2440  -28.4250   23.3310 C   0  0  0  0  0  3  0  0  0  0  0  0
  -21.5460  -27.0560   22.6790 C   0  0  0  0  0  2  0  0  0  0  0  0
  -20.5680  -26.6890   21.5570 C   0  0  0  0  0  2  0  0  0  0  0  0
  -19.1350  -26.6400   22.0940 C   0  0  0  0  0  2  0  0  0  0  0  0
  -19.7500  -28.7560   23.4060 C   0  0  0  0  0  0  0  0  0  0  0  0
  -19.3500  -29.9400   24.0640 C   0  0  0  0  0  3  0  0  0  0  0  0
  -17.9910  -30.2890   24.1500 C   0  0  0  0  0  3  0  0  0  0  0  0
  -17.0110  -29.4450   23.5970 C   0  0  0  0  0  3  0  0  0  0  0  0
  -17.3960  -28.2510   22.9570 C   0  0  0  0  0  3  0  0  0  0  0  0
  -26.2950  -32.8040   24.5810 C   0  0  0  0  0  3  0  0  0  0  0  0
  -25.9440  -34.1740   24.9840 N   0  0  0  0  0  0  0  0  0  0  0  0
  -26.3040  -35.2790   24.3170 C   0  0  0  0  0  0  0  0  0  0  0  0
  -27.0270  -35.2520   23.3180 O   0  0  0  0  0  0  0  0  0  0  0  0
  -25.3070  -34.2660   25.7610 H   0  0  0  0  0  0  0  0  0  0  0  0
  -24.5730  -37.0730   23.9790 C   0  0  0  0  0  1  0  0  0  0  0  0
  -25.7690  -36.6280   24.8350 C   0  0  0  0  0  3  0  0  0  0  0  0
  -27.8440  -37.4700   25.8430 C   0  0  0  0  0  1  0  0  0  0  0  0
  -26.7930  -37.6960   24.8540 N   0  0  0  0  0  0  0  0  0  0  0  0
  -26.3680  -38.5990   25.0470 H   0  0  0  0  0  0  0  0  0  0  0  0
  -26.7870  -31.9740   25.8300 C   0  0  1  0  0  0  0  0  0  0  0  0
  -25.6570  -31.6460   26.8340 C   0  0  0  0  0  1  0  0  0  0  0  0
  -27.4230  -30.6340   25.3870 C   0  0  0  0  0  1  0  0  0  0  0  0
  -27.8930  -32.7550   26.5790 C   0  0  0  0  0  1  0  0  0  0  0  0
  1  3  1  0
  2  1  2  0
  2  4  1  0
  3  5  2  0
  4  6  2  0
  5  7  1  0
  6  5  1  0
  6  8  1  0
  7 11  1  0
  8 14  1  0
 10  9  1  0
 11 16  1  0
 12 11  1  0
 12 13  1  0
 13  9  1  0
 14 12  1  0
 14 10  1  0
 14 15  1  6
 16 23  2  0
 17 22  1  0
 18 19  1  0
 18 17  1  0
 19 20  1  0
 20 27  1  0
 20 21  1  0
 22 16  1  0
 22 21  1  0
 24 25  2  0
 25 44  1  0
 26 25  1  0
 26 29  1  0
 27 24  1  0
 27 28  1  0
 28 26  2  0
 29 30  1  0
 30 31  2  0
 32 31  1  0
 33 32  2  0
 34 33  1  0
 34 29  2  0
 35 32  1  0
 35 36  1  0
 36 41  2  0
 36 37  1  0
 37 38  2  0
 38 39  1  0
 39 43  1  0
 40 39  2  0
 41 40  1  0
 42 41  1  0
 44 45  1  0
 45 48  1  0
 45 47  1  0
 46 44  2  0
 49 50  1  0
 49 24  1  0
 51 49  1  0
 53 54  1  0
 53 13  1  0
 53 52  1  0
 54 56  1  0
 55 54  1  0
 57 58  2  0
 57 54  1  0
 59 58  1  0
 59 60  1  0
 60 62  1  0
 61 72  2  0
 61 87  1  0
 62 67  1  0
 63 71  1  0
 63 73  1  0
 64 70  1  0
 64 66  1  0
 65 71  1  0
 66 65  1  0
 67 66  2  0
 68 69  1  0
 68 62  2  0
 69 64  2  0
 70 63  1  0
 71 61  1  0
 73 75  2  0
 74 73  1  0
 74 78  1  0
 76 74  1  0
 77 86  2  0
 77 82  1  0
 78 82  1  0
 79 78  1  0
 80 81  1  0
 80 79  1  0
 81 77  1  0
 82 83  2  0
 83 84  1  0
 85 84  2  0
 86 85  1  0
 87 88  1  0
 87 97  1  0
 88 91  1  0
 89 93  1  0
 89 88  1  0
 90 89  2  0
 92 93  1  0
 93 95  1  0
 95 96  1  0
 95 94  1  0
 97100  1  1
 97 98  1  0
 99 97  1  0
M  ISO  4  11 100  16 100  59 101  60 101
M  END
>  <TORSDO>  (68) 
F 21

>  <SCORE>  (68) 
-5.799

>  <name>  (68) 
68

>  <ligand_id>  (68) 
68

>  <original_smiles>  (68) 
[H]c1c([H])c([H])c2c(c1[H])C([H])([H])C([H])([H])C([H])([H])C2([H])N([H])C(=O)C1([H])N(C(=O)C([H])(N([H])C(=O)C([H])(N([H])C([H])([H])[H])C([H])([H])[H])C(C([H])([H])[H])(C([H])([H])[H])C([H])([H])[H])C([H])([H])c2c([H])c(OC([H])([H])C([H])([H])C([H])([H])[N+]([H])([H])C([H])(C([H])([H])[H])C3([H])C([H])([H])C([H])([H])C4(C([H])([H])[H])C([H])([H])c5c([H])c([H])c([H])c([H])c5C([H])([H])C([H])(C(=O)N5C([H])([H])C([H])([H])C([H])([H])C([H])(n6nc(-c7c([H])c([H])c(Oc8c([H])c([H])c(F)c([H])c8F)c([H])c7[H])c(C(=O)N([H])[H])c6N([H])[H])C5([H])[H])C34[H])c([H])c([H])c2C1([H])[H]

>  <smiles>  (68) 
[H]c1c([H])c([H])c2c(c1[H])C([H])([H])C([H])([H])C([H])([H])C2([H])N([H])C(=O)C1([H])N(C(=O)C([H])(N([H])C(=O)C([H])(N([H])C([H])([H])[H])C([H])([H])[H])C(C([H])([H])[H])(C([H])([H])[H])C([H])([H])[H])C([H])([H])c2c([H])c(OC([H])([H])C([H])([H])C([H])([H])[N+]([H])([H])C([H])(C([H])([H])[H])C3([H])C([H])([H])C([H])([H])C4(C([H])([H])[H])C([H])([H])c5c([H])c([H])c([H])c([H])c5C([H])([H])C([H])(C(=O)N5C([H])([H])C([H])([H])C([H])([H])C([H])(n6nc(-c7c([H])c([H])c(Oc8c([H])c([H])c(F)c([H])c8F)c([H])c7[H])c(C(=O)N([H])[H])c6N([H])[H])C5([H])[H])C34[H])c([H])c([H])c2C1([H])[H]

$$$$
69:0:0
     RDKit          3D

 90 99  0  0  1  0  0  0  0  0999 V2000
  -32.0490  -17.0450   19.4390 C   0  0  0  0  0  3  0  0  0  0  0  0
  -31.3160  -19.4280   20.5360 C   0  0  0  0  0  2  0  0  0  0  0  0
  -30.7240  -16.9350   20.3740 C   0  0  0  0  0  0  0  0  0  0  0  0
  -32.4540  -18.3240   18.6980 C   0  0  0  0  0  3  0  0  0  0  0  0
  -32.1870  -19.6460   19.3430 C   0  0  0  0  0  3  0  0  0  0  0  0
  -30.0570  -18.5980   20.0970 C   0  0  0  0  0  3  0  0  0  0  0  0
  -33.6190  -19.1940   19.1470 C   0  0  2  0  0  0  0  0  0  0  0  0
  -34.4540  -19.8790   18.0810 C   0  0  0  0  0  1  0  0  0  0  0  0
  -34.5050  -18.8540   20.3400 C   0  0  0  0  0  1  0  0  0  0  0  0
  -30.6870  -15.1640   20.3600 C   0  0  0  0  0  0  0  0  0  0  0  0
  -30.3570  -12.7990   19.4530 C   0  0  0  0  0  2  0  0  0  0  0  0
  -29.4690  -12.6160   18.2130 C   0  0  0  0  0  2  0  0  0  0  0  0
  -28.0240  -12.3750   18.6560 C   0  0  0  0  0  2  0  0  0  0  0  0
  -27.5750  -13.3720   19.7540 C   0  0  0  0  0  3  0  0  0  0  0  0
  -28.6190  -13.6020   20.8700 C   0  0  0  0  0  2  0  0  0  0  0  0
  -29.8670  -14.0200   20.2060 N   0  0  0  0  0  0  0  0  0  0  0  0
  -31.8440  -14.7320   20.4260 O   0  0  0  0  0  0  0  0  0  0  0  0
  -25.1980  -13.9190   20.4800 C   0  0  0  0  0  0  0  0  0  0  0  0
  -24.1340  -13.1380   20.8330 C   0  0  0  0  0  0  0  0  0  0  0  0
  -24.6110  -11.7910   20.8310 C   0  0  0  0  0  0  0  0  0  0  0  0
  -26.2510  -13.0510   20.2690 N   0  0  0  0  0  0  0  0  0  0  0  0
  -25.9110  -11.7640   20.5520 N   0  0  0  0  0  0  0  0  0  0  0  0
  -23.8880  -10.5250   21.0180 C   0  0  0  0  0  0  0  0  0  0  0  0
  -24.3050   -9.5670   21.9690 C   0  0  0  0  0  3  0  0  0  0  0  0
  -23.5770   -8.3700   22.1460 C   0  0  0  0  0  3  0  0  0  0  0  0
  -22.4180   -8.1220   21.3730 C   0  0  0  0  0  0  0  0  0  0  0  0
  -22.0220   -9.0680   20.4110 C   0  0  0  0  0  3  0  0  0  0  0  0
  -22.7510  -10.2560   20.2310 C   0  0  0  0  0  3  0  0  0  0  0  0
  -21.6650   -6.9770   21.4590 O   0  0  0  0  0  0  0  0  0  0  0  0
  -21.5960   -6.2440   22.6170 C   0  0  0  0  0  0  0  0  0  0  0  0
  -21.1530   -6.8100   23.8320 C   0  0  0  0  0  3  0  0  0  0  0  0
  -21.0330   -6.0040   24.9820 C   0  0  0  0  0  3  0  0  0  0  0  0
  -21.3470   -4.6340   24.9180 C   0  0  0  0  0  0  0  0  0  0  0  0
  -21.7830   -4.0670   23.7070 C   0  0  0  0  0  3  0  0  0  0  0  0
  -21.9050   -4.8700   22.5600 C   0  0  0  0  0  0  0  0  0  0  0  0
  -22.3040   -4.3140   21.3910 F   0  0  0  0  0  0  0  0  0  0  0  0
  -21.2240   -3.8580   26.0200 F   0  0  0  0  0  0  0  0  0  0  0  0
  -22.7280  -13.6090   21.0550 C   0  0  0  0  0  0  0  0  0  0  0  0
  -21.9810  -12.9230   21.9130 N   0  0  0  0  0  0  0  0  0  0  0  0
  -22.2990  -14.6220   20.5050 O   0  0  0  0  0  0  0  0  0  0  0  0
  -22.3420  -12.1050   22.3800 H   0  0  0  0  0  0  0  0  0  0  0  0
  -21.0350  -13.2200   22.1040 H   0  0  0  0  0  0  0  0  0  0  0  0
  -25.3580  -15.2880   20.2870 N   0  0  0  0  0  0  0  0  0  0  0  0
  -24.5890  -15.9430   20.3810 H   0  0  0  0  0  0  0  0  0  0  0  0
  -26.2210  -15.7300   19.9930 H   0  0  0  0  0  0  0  0  0  0  0  0
  -28.8680  -19.8170   20.4890 C   0  0  0  0  0  2  0  0  0  0  0  0
  -29.1150  -21.5740   20.4720 C   0  0  0  0  0  2  0  0  0  0  0  0
  -28.1800  -22.9880   20.0730 C   0  0  0  0  0  2  0  0  0  0  0  0
  -28.2120  -24.5940   20.7540 C   0  0  0  0  0  2  0  0  0  0  0  0
  -28.2660  -26.0990   20.2160 O   0  0  0  0  0  0  0  0  0  0  0  0
  -24.6310  -31.8920   23.2360 C   0  0  0  0  0  0  0  0  0  0  0  0
  -27.2090  -27.1000   20.2540 C   0  0  0  0  0  0  0  0  0  0  0  0
  -23.4430  -30.4840   21.6010 C   0  0  0  0  0  3  0  0  0  0  0  0
  -24.8960  -28.8910   20.1950 C   0  0  0  0  0  0  0  0  0  0  0  0
  -26.0000  -30.7380   21.4450 C   0  0  0  0  0  2  0  0  0  0  0  0
  -26.0770  -29.3330   20.8040 C   0  0  0  0  0  0  0  0  0  0  0  0
  -27.2390  -28.4580   20.8030 C   0  0  0  0  0  3  0  0  0  0  0  0
  -25.9990  -26.7720   19.6130 C   0  0  0  0  0  3  0  0  0  0  0  0
  -24.8740  -27.6280   19.5810 C   0  0  0  0  0  3  0  0  0  0  0  0
  -23.6710  -29.7970   20.2290 C   0  0  0  0  0  2  0  0  0  0  0  0
  -24.7120  -31.0630   22.1480 N   0  0  0  0  0  0  0  0  0  0  0  0
  -23.5420  -32.1760   23.7580 O   0  0  0  0  0  0  0  0  0  0  0  0
  -22.7610  -29.4830   22.5680 C   0  0  0  0  0  0  0  0  0  0  0  0
  -21.4330  -29.3080   22.4410 N   0  0  0  0  0  0  0  0  0  0  0  0
  -23.4310  -28.8630   23.3980 O   0  0  0  0  0  0  0  0  0  0  0  0
  -20.9460  -29.8590   21.7480 H   0  0  0  0  0  0  0  0  0  0  0  0
  -18.0580  -28.0850   22.9400 C   0  0  0  0  0  0  0  0  0  0  0  0
  -20.6140  -28.3700   23.2160 C   0  0  0  0  0  3  0  0  0  0  0  0
  -20.7290  -26.9350   22.6520 C   0  0  0  0  0  2  0  0  0  0  0  0
  -19.6340  -26.5960   21.6350 C   0  0  0  0  0  2  0  0  0  0  0  0
  -18.2480  -26.7330   22.2720 C   0  0  0  0  0  2  0  0  0  0  0  0
  -19.1680  -28.8600   23.3690 C   0  0  0  0  0  0  0  0  0  0  0  0
  -18.9340  -30.1230   23.9560 C   0  0  0  0  0  3  0  0  0  0  0  0
  -17.6250  -30.6110   24.1160 C   0  0  0  0  0  3  0  0  0  0  0  0
  -16.5290  -29.8340   23.7030 C   0  0  0  0  0  3  0  0  0  0  0  0
  -16.7470  -28.5730   23.1210 C   0  0  0  0  0  3  0  0  0  0  0  0
  -25.9010  -32.5400   23.8650 C   0  0  0  0  0  3  0  0  0  0  0  0
  -26.4070  -31.7850   25.1560 C   0  0  1  0  0  0  0  0  0  0  0  0
  -25.3060  -31.5610   26.2190 C   0  0  0  0  0  1  0  0  0  0  0  0
  -26.9950  -30.4030   24.7910 C   0  0  0  0  0  1  0  0  0  0  0  0
  -27.5520  -32.5880   25.8170 C   0  0  0  0  0  1  0  0  0  0  0  0
  -25.5810  -33.9410   24.1880 N   0  0  0  0  0  0  0  0  0  0  0  0
  -25.9140  -34.9960   23.4340 C   0  0  0  0  0  0  0  0  0  0  0  0
  -26.5870  -34.8940   22.4050 O   0  0  0  0  0  0  0  0  0  0  0  0
  -24.9810  -34.0930   24.9850 H   0  0  0  0  0  0  0  0  0  0  0  0
  -24.1830  -36.7910   23.0760 C   0  0  0  0  0  1  0  0  0  0  0  0
  -25.4230  -36.3850   23.8910 C   0  0  0  0  0  3  0  0  0  0  0  0
  -27.5530  -37.2760   24.7280 C   0  0  0  0  0  1  0  0  0  0  0  0
  -26.4540  -37.4410   23.7810 N   0  0  0  0  0  0  0  0  0  0  0  0
  -26.0460  -38.3600   23.9250 H   0  0  0  0  0  0  0  0  0  0  0  0
  1  3  2  0
  4  7  1  0
  4  5  1  0
  4  1  1  0
  5  2  1  0
  6  3  1  0
  6 46  1  0
  6  2  1  0
  7  5  1  0
  7  9  1  1
  8  7  1  0
 10  3  1  0
 10 17  2  0
 11 16  1  0
 12 13  1  0
 12 11  1  0
 14 13  1  0
 14 21  1  0
 14 15  1  0
 16 10  1  0
 16 15  1  0
 18 19  2  0
 19 38  1  0
 20 19  1  0
 20 23  1  0
 21 18  1  0
 21 22  1  0
 22 20  2  0
 23 24  1  0
 24 25  2  0
 26 29  1  0
 26 25  1  0
 27 26  2  0
 28 27  1  0
 28 23  2  0
 29 30  1  0
 30 31  1  0
 31 32  2  0
 33 32  1  0
 33 37  1  0
 34 33  2  0
 35 30  2  0
 35 34  1  0
 36 35  1  0
 38 39  1  0
 39 42  1  0
 39 41  1  0
 40 38  2  0
 43 44  1  0
 43 18  1  0
 45 43  1  0
 47 46  1  0
 48 47  1  0
 48 49  1  0
 50 52  1  0
 50 49  1  0
 51 62  2  0
 52 57  1  0
 53 61  1  0
 53 63  1  0
 54 60  1  0
 54 56  1  0
 55 61  1  0
 56 55  1  0
 57 56  2  0
 58 52  2  0
 59 58  1  0
 59 54  2  0
 60 53  1  0
 61 51  1  0
 63 65  2  0
 64 63  1  0
 66 64  1  0
 67 76  2  0
 67 72  1  0
 68 64  1  0
 68 72  1  0
 69 68  1  0
 70 71  1  0
 70 69  1  0
 71 67  1  0
 72 73  2  0
 73 74  1  0
 75 74  2  0
 76 75  1  0
 77 51  1  0
 77 82  1  0
 77 78  1  0
 78 81  1  1
 78 79  1  0
 80 78  1  0
 82 85  1  0
 83 87  1  0
 83 82  1  0
 84 83  2  0
 87 86  1  0
 89 87  1  0
 89 90  1  0
 89 88  1  0
M  ISO  4   3 100  10 100  49 101  50 101
M  END
>  <TORSDO>  (69) 
F 20

>  <SCORE>  (69) 
-16.187

>  <name>  (69) 
69

>  <ligand_id>  (69) 
69

>  <original_smiles>  (69) 
[H]c1c([H])c([H])c2c(c1[H])C([H])([H])C([H])([H])C([H])([H])C2([H])N([H])C(=O)C1([H])N(C(=O)C([H])(N([H])C(=O)C([H])(N([H])C([H])([H])[H])C([H])([H])[H])C(C([H])([H])[H])(C([H])([H])[H])C([H])([H])[H])C([H])([H])c2c([H])c(OC([H])([H])C([H])([H])C([H])([H])C([H])([H])C3([H])C([H])([H])C4([H])C([H])(C([H])([H])C3([H])C(=O)N3C([H])([H])C([H])([H])C([H])([H])C([H])(n5nc(-c6c([H])c([H])c(Oc7c([H])c([H])c(F)c([H])c7F)c([H])c6[H])c(C(=O)N([H])[H])c5N([H])[H])C3([H])[H])C4(C([H])([H])[H])C([H])([H])[H])c([H])c([H])c2C1([H])[H]

>  <smiles>  (69) 
[H]c1c([H])c([H])c2c(c1[H])C([H])([H])C([H])([H])C([H])([H])C2([H])N([H])C(=O)C1([H])N(C(=O)C([H])(N([H])C(=O)C([H])(N([H])C([H])([H])[H])C([H])([H])[H])C(C([H])([H])[H])(C([H])([H])[H])C([H])([H])[H])C([H])([H])c2c([H])c(OC([H])([H])C([H])([H])C([H])([H])C([H])([H])C3([H])C([H])([H])C4([H])C([H])(C([H])([H])C3([H])C(=O)N3C([H])([H])C([H])([H])C([H])([H])C([H])(n5nc(-c6c([H])c([H])c(Oc7c([H])c([H])c(F)c([H])c7F)c([H])c6[H])c(C(=O)N([H])[H])c5N([H])[H])C3([H])[H])C4(C([H])([H])[H])C([H])([H])[H])c([H])c([H])c2C1([H])[H]

$$$$
71:0:0
     RDKit          3D

 90 98  0  0  1  0  0  0  0  0999 V2000
  -29.4140  -21.3650   19.9920 N   0  0  0  0  0  4  0  0  0  0  0  0
  -30.3900  -21.5620   19.8350 H   0  0  0  0  0  0  0  0  0  0  0  0
  -28.9830  -21.3050   19.0840 H   0  0  0  0  0  0  0  0  0  0  0  0
  -27.9040  -19.5810   20.9790 C   0  0  0  0  0  1  0  0  0  0  0  0
  -29.3510  -19.9900   20.6500 C   0  0  0  0  0  3  0  0  0  0  0  0
  -31.7870  -17.6390   19.4250 C   0  0  0  0  0  2  0  0  0  0  0  0
  -31.5200  -19.1350   19.4330 C   0  0  0  0  0  2  0  0  0  0  0  0
  -30.5700  -17.4220   20.3470 C   0  0  0  0  0  3  0  0  0  0  0  0
  -30.0590  -18.8510   19.8100 C   0  0  0  0  0  3  0  0  0  0  0  0
  -29.7960  -16.0300   20.2440 C   0  0  0  0  0  2  0  0  0  0  0  0
  -30.5960  -14.6830   19.9550 C   0  0  0  0  0  0  0  0  0  0  0  0
  -30.3080  -12.4330   18.9440 C   0  0  0  0  0  2  0  0  0  0  0  0
  -29.3020  -12.5650   17.7800 C   0  0  0  0  0  2  0  0  0  0  0  0
  -27.8530  -12.4140   18.2860 C   0  0  0  0  0  2  0  0  0  0  0  0
  -27.5650  -13.2840   19.5390 C   0  0  0  0  0  3  0  0  0  0  0  0
  -28.6870  -13.1520   20.5910 C   0  0  0  0  0  2  0  0  0  0  0  0
  -29.9650  -13.4660   19.9410 N   0  0  0  0  0  0  0  0  0  0  0  0
  -31.7590  -14.7640   19.5510 O   0  0  0  0  0  0  0  0  0  0  0  0
  -25.2360  -13.8850   20.4380 C   0  0  0  0  0  0  0  0  0  0  0  0
  -24.1860  -13.1140   20.8530 C   0  0  0  0  0  0  0  0  0  0  0  0
  -24.6250  -11.7590   20.7500 C   0  0  0  0  0  0  0  0  0  0  0  0
  -26.2500  -13.0000   20.1070 N   0  0  0  0  0  0  0  0  0  0  0  0
  -25.8920  -11.7140   20.3560 N   0  0  0  0  0  0  0  0  0  0  0  0
  -23.8950  -10.5000   20.9470 C   0  0  0  0  0  0  0  0  0  0  0  0
  -24.3390   -9.5250   21.8670 C   0  0  0  0  0  3  0  0  0  0  0  0
  -23.6080   -8.3320   22.0540 C   0  0  0  0  0  3  0  0  0  0  0  0
  -22.4190   -8.1050   21.3210 C   0  0  0  0  0  0  0  0  0  0  0  0
  -21.9950   -9.0690   20.3880 C   0  0  0  0  0  3  0  0  0  0  0  0
  -22.7270  -10.2530   20.2000 C   0  0  0  0  0  3  0  0  0  0  0  0
  -21.6600   -6.9640   21.4160 O   0  0  0  0  0  0  0  0  0  0  0  0
  -21.5860   -6.2440   22.5810 C   0  0  0  0  0  0  0  0  0  0  0  0
  -21.0990   -6.8130   23.7790 C   0  0  0  0  0  3  0  0  0  0  0  0
  -20.9740   -6.0180   24.9360 C   0  0  0  0  0  3  0  0  0  0  0  0
  -21.3270   -4.6570   24.8980 C   0  0  0  0  0  0  0  0  0  0  0  0
  -21.8070   -4.0880   23.7050 C   0  0  0  0  0  3  0  0  0  0  0  0
  -21.9330   -4.8790   22.5500 C   0  0  0  0  0  0  0  0  0  0  0  0
  -22.3770   -4.3210   21.3980 F   0  0  0  0  0  0  0  0  0  0  0  0
  -21.2000   -3.8900   26.0060 F   0  0  0  0  0  0  0  0  0  0  0  0
  -22.8160  -13.5990   21.2300 C   0  0  0  0  0  0  0  0  0  0  0  0
  -22.1350  -12.8820   22.1170 N   0  0  0  0  0  0  0  0  0  0  0  0
  -22.3600  -14.6480   20.7750 O   0  0  0  0  0  0  0  0  0  0  0  0
  -22.5170  -12.0330   22.5080 H   0  0  0  0  0  0  0  0  0  0  0  0
  -21.2180  -13.1890   22.4110 H   0  0  0  0  0  0  0  0  0  0  0  0
  -25.4080  -15.2590   20.2950 N   0  0  0  0  0  0  0  0  0  0  0  0
  -24.6580  -15.9160   20.4840 H   0  0  0  0  0  0  0  0  0  0  0  0
  -26.2420  -15.7030   19.9340 H   0  0  0  0  0  0  0  0  0  0  0  0
  -28.8320  -22.5660   20.7170 C   0  0  0  0  0  2  0  0  0  0  0  0
  -29.0440  -24.0000   20.0490 C   0  0  0  0  0  3  0  0  0  0  0  0
  -28.2940  -25.2180   20.7360 C   0  0  0  0  0  3  0  0  0  0  0  0
  -28.4780  -26.5830   20.2020 O   0  0  0  0  0  0  0  0  0  0  0  0
  -24.6220  -31.8580   23.2380 C   0  0  0  0  0  0  0  0  0  0  0  0
  -27.3460  -27.4000   20.1760 C   0  0  0  0  0  0  0  0  0  0  0  0
  -23.4590  -30.4540   21.5720 C   0  0  0  0  0  3  0  0  0  0  0  0
  -24.9510  -28.9450   20.1480 C   0  0  0  0  0  0  0  0  0  0  0  0
  -25.9900  -30.8280   21.4160 C   0  0  0  0  0  2  0  0  0  0  0  0
  -26.1030  -29.4590   20.7600 C   0  0  0  0  0  0  0  0  0  0  0  0
  -27.3060  -28.6970   20.7630 C   0  0  0  0  0  3  0  0  0  0  0  0
  -26.1790  -26.9320   19.5360 C   0  0  0  0  0  3  0  0  0  0  0  0
  -24.9900  -27.6860   19.5270 C   0  0  0  0  0  3  0  0  0  0  0  0
  -23.6990  -29.7950   20.1880 C   0  0  0  0  0  2  0  0  0  0  0  0
  -24.7080  -31.0630   22.1340 N   0  0  0  0  0  0  0  0  0  0  0  0
  -23.5290  -32.1100   23.7640 O   0  0  0  0  0  0  0  0  0  0  0  0
  -22.8050  -29.4170   22.5150 C   0  0  0  0  0  0  0  0  0  0  0  0
  -21.4870  -29.2080   22.3620 N   0  0  0  0  0  0  0  0  0  0  0  0
  -23.4830  -28.8020   23.3420 O   0  0  0  0  0  0  0  0  0  0  0  0
  -20.9980  -29.7570   21.6670 H   0  0  0  0  0  0  0  0  0  0  0  0
  -18.1290  -27.9400   22.7960 C   0  0  0  0  0  0  0  0  0  0  0  0
  -20.6760  -28.2500   23.1130 C   0  0  0  0  0  3  0  0  0  0  0  0
  -20.8180  -26.8240   22.5310 C   0  0  0  0  0  2  0  0  0  0  0  0
  -19.7400  -26.4850   21.4960 C   0  0  0  0  0  2  0  0  0  0  0  0
  -18.3450  -26.5970   22.1160 C   0  0  0  0  0  2  0  0  0  0  0  0
  -19.2230  -28.7210   23.2490 C   0  0  0  0  0  0  0  0  0  0  0  0
  -18.9680  -29.9760   23.8430 C   0  0  0  0  0  3  0  0  0  0  0  0
  -17.6510  -30.4500   23.9890 C   0  0  0  0  0  3  0  0  0  0  0  0
  -16.5690  -29.6640   23.5500 C   0  0  0  0  0  3  0  0  0  0  0  0
  -16.8100  -28.4110   22.9600 C   0  0  0  0  0  3  0  0  0  0  0  0
  -25.8870  -32.5040   23.8810 C   0  0  0  0  0  3  0  0  0  0  0  0
  -25.5550  -33.8960   24.2100 N   0  0  0  0  0  0  0  0  0  0  0  0
  -25.8850  -34.9570   23.4580 C   0  0  0  0  0  0  0  0  0  0  0  0
  -26.5690  -34.8630   22.4360 O   0  0  0  0  0  0  0  0  0  0  0  0
  -24.9470  -34.0420   25.0030 H   0  0  0  0  0  0  0  0  0  0  0  0
  -24.1440  -36.7330   23.0790 C   0  0  0  0  0  1  0  0  0  0  0  0
  -25.3730  -36.3370   23.9130 C   0  0  0  0  0  3  0  0  0  0  0  0
  -27.4760  -37.2440   24.7980 C   0  0  0  0  0  1  0  0  0  0  0  0
  -26.3960  -37.4010   23.8270 N   0  0  0  0  0  0  0  0  0  0  0  0
  -25.9770  -38.3170   23.9660 H   0  0  0  0  0  0  0  0  0  0  0  0
  -26.3960  -31.7350   25.1620 C   0  0  1  0  0  0  0  0  0  0  0  0
  -25.2900  -31.4760   26.2110 C   0  0  0  0  0  1  0  0  0  0  0  0
  -27.0070  -30.3690   24.7740 C   0  0  0  0  0  1  0  0  0  0  0  0
  -27.5230  -32.5450   25.8460 C   0  0  0  0  0  1  0  0  0  0  0  0
  1  5  1  0
  1 47  1  0
  2  1  1  0
  3  1  1  0
  5  4  1  0
  6  7  1  0
  6  8  1  0
  7  9  1  0
  8 10  1  0
  9  8  1  0
  9  5  1  0
 11 10  1  0
 12 17  1  0
 13 14  1  0
 13 12  1  0
 15 14  1  0
 15 22  1  0
 15 16  1  0
 17 11  1  0
 17 16  1  0
 18 11  2  0
 19 20  2  0
 20 39  1  0
 21 20  1  0
 21 24  1  0
 22 23  1  0
 22 19  1  0
 23 21  2  0
 24 25  1  0
 25 26  2  0
 27 30  1  0
 27 26  1  0
 28 27  2  0
 29 28  1  0
 29 24  2  0
 30 31  1  0
 31 32  1  0
 32 33  2  0
 34 33  1  0
 34 38  1  0
 35 34  2  0
 36 31  2  0
 36 35  1  0
 37 36  1  0
 39 40  1  0
 40 43  1  0
 40 42  1  0
 41 39  2  0
 44 19  1  0
 44 45  1  0
 46 44  1  0
 48 47  1  0
 48 49  2  0
 50 49  1  0
 51 62  2  0
 52 50  1  0
 52 57  1  0
 53 61  1  0
 53 63  1  0
 54 60  1  0
 54 56  1  0
 55 61  1  0
 56 57  2  0
 56 55  1  0
 58 52  2  0
 59 58  1  0
 59 54  2  0
 60 53  1  0
 61 51  1  0
 63 65  2  0
 64 63  1  0
 66 64  1  0
 67 76  2  0
 67 72  1  0
 68 64  1  0
 68 72  1  0
 69 68  1  0
 70 71  1  0
 70 69  1  0
 71 67  1  0
 72 73  2  0
 73 74  1  0
 75 74  2  0
 76 75  1  0
 77 51  1  0
 77 78  1  0
 77 87  1  0
 78 81  1  0
 79 83  1  0
 79 78  1  0
 80 79  2  0
 83 82  1  0
 85 83  1  0
 85 86  1  0
 85 84  1  0
 87 90  1  1
 87 88  1  0
 89 87  1  0
M  ISO  4  10 100  11 100  49 101  50 101
M  END
>  <TORSDO>  (70) 
F 22

>  <SCORE>  (70) 
-12.357

>  <name>  (70) 
71

>  <ligand_id>  (70) 
71

>  <original_smiles>  (70) 
[H]c1c([H])c([H])c2c(c1[H])C([H])([H])C([H])([H])C([H])([H])C2([H])N([H])C(=O)C1([H])N(C(=O)C([H])(N([H])C(=O)C([H])(N([H])C([H])([H])[H])C([H])([H])[H])C(C([H])([H])[H])(C([H])([H])[H])C([H])([H])[H])C([H])([H])c2c([H])c(OC([H])([H])C([H])([H])C([H])([H])[N+]([H])([H])C([H])(C([H])([H])[H])C3([H])C([H])([H])C([H])([H])C3([H])C([H])([H])C(=O)N3C([H])([H])C([H])([H])C([H])([H])C([H])(n4nc(-c5c([H])c([H])c(Oc6c([H])c([H])c(F)c([H])c6F)c([H])c5[H])c(C(=O)N([H])[H])c4N([H])[H])C3([H])[H])c([H])c([H])c2C1([H])[H]

>  <smiles>  (70) 
[H]c1c([H])c([H])c2c(c1[H])C([H])([H])C([H])([H])C([H])([H])C2([H])N([H])C(=O)C1([H])N(C(=O)C([H])(N([H])C(=O)C([H])(N([H])C([H])([H])[H])C([H])([H])[H])C(C([H])([H])[H])(C([H])([H])[H])C([H])([H])[H])C([H])([H])c2c([H])c(OC([H])([H])C([H])([H])C([H])([H])[N+]([H])([H])C([H])(C([H])([H])[H])C3([H])C([H])([H])C([H])([H])C3([H])C([H])([H])C(=O)N3C([H])([H])C([H])([H])C([H])([H])C([H])(n4nc(-c5c([H])c([H])c(Oc6c([H])c([H])c(F)c([H])c6F)c([H])c5[H])c(C(=O)N([H])[H])c4N([H])[H])C3([H])[H])c([H])c([H])c2C1([H])[H]

$$$$
72:0:0
     RDKit          3D

 92100  0  0  1  0  0  0  0  0999 V2000
  -30.1820  -18.1620   19.4140 C   0  0  0  0  0  0  0  0  0  0  0  0
  -29.7790  -19.5040   19.4040 N   0  0  0  0  0  0  0  0  0  0  0  0
  -30.5030  -17.6900   18.3240 O   0  0  0  0  0  0  0  0  0  0  0  0
  -29.7310  -19.8070   18.4410 H   0  0  0  0  0  0  0  0  0  0  0  0
  -28.6490  -15.6540   21.9260 C   0  0  0  0  0  2  0  0  0  0  0  0
  -30.0390  -14.9930   21.8700 C   0  0  0  0  0  2  0  0  0  0  0  0
  -28.6700  -16.8050   20.9100 C   0  0  0  0  0  2  0  0  0  0  0  0
  -30.7580  -15.5670   20.6210 C   0  0  1  0  0  0  0  0  0  0  0  0
  -30.1500  -17.1290   20.6380 C   0  0  1  0  0  0  0  0  0  0  0  0
  -32.2820  -15.5880   20.9690 C   0  0  0  0  0  1  0  0  0  0  0  0
  -30.6840  -17.9190   21.8660 C   0  0  0  0  0  1  0  0  0  0  0  0
  -30.6930  -14.5160   19.3660 C   0  0  0  0  0  0  0  0  0  0  0  0
  -30.0890  -12.4630   18.0240 C   0  0  0  0  0  2  0  0  0  0  0  0
  -28.9430  -12.7480   17.0190 C   0  0  0  0  0  2  0  0  0  0  0  0
  -27.5500  -12.6220   17.6730 C   0  0  0  0  0  2  0  0  0  0  0  0
  -27.4950  -13.3060   19.0630 C   0  0  0  0  0  3  0  0  0  0  0  0
  -28.7120  -12.8850   19.9040 C   0  0  0  0  0  2  0  0  0  0  0  0
  -29.9340  -13.3520   19.2140 N   0  0  0  0  0  0  0  0  0  0  0  0
  -31.5540  -14.7140   18.5010 O   0  0  0  0  0  0  0  0  0  0  0  0
  -25.3010  -13.9350   20.2570 C   0  0  0  0  0  0  0  0  0  0  0  0
  -24.2820  -13.1740   20.7600 C   0  0  0  0  0  0  0  0  0  0  0  0
  -24.6550  -11.8150   20.5320 C   0  0  0  0  0  0  0  0  0  0  0  0
  -26.2390  -13.0390   19.7600 N   0  0  0  0  0  0  0  0  0  0  0  0
  -25.8600  -11.7530   19.9810 N   0  0  0  0  0  0  0  0  0  0  0  0
  -23.9060  -10.5710   20.7470 C   0  0  0  0  0  0  0  0  0  0  0  0
  -24.3860   -9.5570   21.6070 C   0  0  0  0  0  3  0  0  0  0  0  0
  -23.6370   -8.3780   21.8110 C   0  0  0  0  0  3  0  0  0  0  0  0
  -22.3940   -8.2050   21.1560 C   0  0  0  0  0  0  0  0  0  0  0  0
  -21.9340   -9.2050   20.2830 C   0  0  0  0  0  3  0  0  0  0  0  0
  -22.6830  -10.3750   20.0760 C   0  0  0  0  0  3  0  0  0  0  0  0
  -21.6080   -7.0830   21.2750 O   0  0  0  0  0  0  0  0  0  0  0  0
  -21.5560   -6.3620   22.4420 C   0  0  0  0  0  0  0  0  0  0  0  0
  -21.1600   -6.9470   23.6650 C   0  0  0  0  0  3  0  0  0  0  0  0
  -21.0550   -6.1500   24.8230 C   0  0  0  0  0  3  0  0  0  0  0  0
  -21.3330   -4.7730   24.7600 C   0  0  0  0  0  0  0  0  0  0  0  0
  -21.7250   -4.1890   23.5420 C   0  0  0  0  0  3  0  0  0  0  0  0
  -21.8330   -4.9810   22.3860 C   0  0  0  0  0  0  0  0  0  0  0  0
  -22.1880   -4.4090   21.2100 F   0  0  0  0  0  0  0  0  0  0  0  0
  -21.2280   -4.0070   25.8710 F   0  0  0  0  0  0  0  0  0  0  0  0
  -22.9870  -13.6780   21.3280 C   0  0  0  0  0  0  0  0  0  0  0  0
  -22.4060  -12.9510   22.2780 N   0  0  0  0  0  0  0  0  0  0  0  0
  -22.5030  -14.7480   20.9620 O   0  0  0  0  0  0  0  0  0  0  0  0
  -22.8150  -12.0870   22.5980 H   0  0  0  0  0  0  0  0  0  0  0  0
  -21.5420  -13.2690   22.6930 H   0  0  0  0  0  0  0  0  0  0  0  0
  -25.4920  -15.3110   20.1670 N   0  0  0  0  0  0  0  0  0  0  0  0
  -24.8030  -15.9710   20.5060 H   0  0  0  0  0  0  0  0  0  0  0  0
  -26.2990  -15.7610   19.7590 H   0  0  0  0  0  0  0  0  0  0  0  0
  -29.6620  -20.7220   20.3300 C   0  0  0  0  0  2  0  0  0  0  0  0
  -28.7650  -21.9810   19.8400 C   0  0  0  0  0  2  0  0  0  0  0  0
  -28.9860  -23.4810   20.4280 C   0  0  0  0  0  3  0  0  0  0  0  0
  -27.9700  -24.6580   19.9770 C   0  0  0  0  0  3  0  0  0  0  0  0
  -28.2160  -26.1280   20.1920 O   0  0  0  0  0  0  0  0  0  0  0  0
  -24.6870  -31.7630   23.0840 C   0  0  0  0  0  0  0  0  0  0  0  0
  -27.1260  -27.0300   20.1120 C   0  0  0  0  0  0  0  0  0  0  0  0
  -23.4060  -30.3270   21.5350 C   0  0  0  0  0  3  0  0  0  0  0  0
  -24.7860  -28.7050   20.1150 C   0  0  0  0  0  0  0  0  0  0  0  0
  -25.9480  -30.5910   21.2570 C   0  0  0  0  0  2  0  0  0  0  0  0
  -25.9830  -29.1880   20.6540 C   0  0  0  0  0  0  0  0  0  0  0  0
  -27.1550  -28.3640   20.6410 C   0  0  0  0  0  3  0  0  0  0  0  0
  -25.9050  -26.6190   19.5290 C   0  0  0  0  0  3  0  0  0  0  0  0
  -24.7500  -27.4270   19.5360 C   0  0  0  0  0  3  0  0  0  0  0  0
  -23.5650  -29.5990   20.1720 C   0  0  0  0  0  2  0  0  0  0  0  0
  -24.7020  -30.9160   22.0110 N   0  0  0  0  0  0  0  0  0  0  0  0
  -23.6270  -32.0760   23.6450 O   0  0  0  0  0  0  0  0  0  0  0  0
  -22.7620  -29.3590   22.5570 C   0  0  0  0  0  0  0  0  0  0  0  0
  -21.4350  -29.1720   22.4640 N   0  0  0  0  0  0  0  0  0  0  0  0
  -23.4570  -28.7770   23.3930 O   0  0  0  0  0  0  0  0  0  0  0  0
  -20.9320  -29.6910   21.7570 H   0  0  0  0  0  0  0  0  0  0  0  0
  -18.0720  -27.9790   23.0760 C   0  0  0  0  0  0  0  0  0  0  0  0
  -20.6340  -28.2700   23.2940 C   0  0  0  0  0  3  0  0  0  0  0  0
  -20.7390  -26.8100   22.7930 C   0  0  0  0  0  2  0  0  0  0  0  0
  -19.6240  -26.4280   21.8140 C   0  0  0  0  0  2  0  0  0  0  0  0
  -18.2500  -26.5980   22.4690 C   0  0  0  0  0  2  0  0  0  0  0  0
  -19.1910  -28.7700   23.4510 C   0  0  0  0  0  0  0  0  0  0  0  0
  -18.9700  -30.0600   23.9800 C   0  0  0  0  0  3  0  0  0  0  0  0
  -17.6620  -30.5580   24.1430 C   0  0  0  0  0  3  0  0  0  0  0  0
  -16.5600  -29.7640   23.7840 C   0  0  0  0  0  3  0  0  0  0  0  0
  -16.7640  -28.4770   23.2560 C   0  0  0  0  0  3  0  0  0  0  0  0
  -26.0010  -32.3980   23.6380 C   0  0  0  0  0  3  0  0  0  0  0  0
  -25.6930  -33.7750   24.0500 N   0  0  0  0  0  0  0  0  0  0  0  0
  -25.9220  -34.8640   23.3060 C   0  0  0  0  0  0  0  0  0  0  0  0
  -26.4880  -34.8160   22.2090 O   0  0  0  0  0  0  0  0  0  0  0  0
  -25.1840  -33.8860   24.9140 H   0  0  0  0  0  0  0  0  0  0  0  0
  -24.1220  -36.6160   23.2080 C   0  0  0  0  0  1  0  0  0  0  0  0
  -25.4550  -36.2210   23.8640 C   0  0  0  0  0  3  0  0  0  0  0  0
  -27.6400  -37.1420   24.5030 C   0  0  0  0  0  1  0  0  0  0  0  0
  -26.4430  -37.3070   23.6820 N   0  0  0  0  0  0  0  0  0  0  0  0
  -26.0310  -38.2110   23.9010 H   0  0  0  0  0  0  0  0  0  0  0  0
  -26.6260  -31.5870   24.8380 C   0  0  1  0  0  0  0  0  0  0  0  0
  -25.6100  -31.2570   25.9570 C   0  0  0  0  0  1  0  0  0  0  0  0
  -27.2300  -30.2520   24.3460 C   0  0  0  0  0  1  0  0  0  0  0  0
  -27.7890  -32.3910   25.4650 C   0  0  0  0  0  1  0  0  0  0  0  0
  1  9  1  0
  2  1  1  0
  2 48  1  0
  3  1  2  0
  4  2  1  0
  6  5  1  0
  7  5  1  0
  8  9  1  0
  8 10  1  1
  8  6  1  0
  9  7  1  0
  9 11  1  1
 12  8  1  0
 13 18  1  0
 14 15  1  0
 14 13  1  0
 16 15  1  0
 16 23  1  0
 16 17  1  0
 18 12  1  0
 18 17  1  0
 19 12  2  0
 20 21  2  0
 21 40  1  0
 22 25  1  0
 22 21  1  0
 23 24  1  0
 23 20  1  0
 24 22  2  0
 25 26  1  0
 26 27  2  0
 28 31  1  0
 28 27  1  0
 29 28  2  0
 30 29  1  0
 30 25  2  0
 31 32  1  0
 32 33  1  0
 33 34  2  0
 35 34  1  0
 35 39  1  0
 36 35  2  0
 37 32  2  0
 37 36  1  0
 38 37  1  0
 40 41  1  0
 41 43  1  0
 41 44  1  0
 42 40  2  0
 45 20  1  0
 45 46  1  0
 47 45  1  0
 49 48  1  0
 49 50  1  0
 51 52  1  0
 51 50  2  0
 53 64  2  0
 54 52  1  0
 54 59  1  0
 55 63  1  0
 55 65  1  0
 56 62  1  0
 56 58  1  0
 57 63  1  0
 58 57  1  0
 59 58  2  0
 60 61  1  0
 60 54  2  0
 61 56  2  0
 62 55  1  0
 63 53  1  0
 65 67  2  0
 66 65  1  0
 68 66  1  0
 69 78  2  0
 69 74  1  0
 70 66  1  0
 70 74  1  0
 71 70  1  0
 72 73  1  0
 72 71  1  0
 73 69  1  0
 74 75  2  0
 75 76  1  0
 77 76  2  0
 78 77  1  0
 79 53  1  0
 79 80  1  0
 79 89  1  0
 80 83  1  0
 81 85  1  0
 81 80  1  0
 82 81  2  0
 85 84  1  0
 87 85  1  0
 87 88  1  0
 87 86  1  0
 89 92  1  1
 89 90  1  0
 91 89  1  0
M  ISO  4   8 100  12 100  51 101  52 101
M  END
>  <TORSDO>  (71) 
F 21

>  <SCORE>  (71) 
-8.932

>  <name>  (71) 
72

>  <ligand_id>  (71) 
72

>  <original_smiles>  (71) 
[H]c1c([H])c([H])c2c(c1[H])C([H])([H])C([H])([H])C([H])([H])C2([H])N([H])C(=O)C1([H])N(C(=O)C([H])(N([H])C(=O)C([H])(N([H])C([H])([H])[H])C([H])([H])[H])C(C([H])([H])[H])(C([H])([H])[H])C([H])([H])[H])C([H])([H])c2c([H])c(OC([H])([H])C([H])([H])C([H])([H])C([H])([H])N([H])C(=O)C3(C([H])([H])[H])C([H])([H])C([H])([H])C([H])([H])C3(C(=O)N3C([H])([H])C([H])([H])C([H])([H])C([H])(n4nc(-c5c([H])c([H])c(Oc6c([H])c([H])c(F)c([H])c6F)c([H])c5[H])c(C(=O)N([H])[H])c4N([H])[H])C3([H])[H])C([H])([H])[H])c([H])c([H])c2C1([H])[H]

>  <smiles>  (71) 
[H]c1c([H])c([H])c2c(c1[H])C([H])([H])C([H])([H])C([H])([H])C2([H])N([H])C(=O)C1([H])N(C(=O)C([H])(N([H])C(=O)C([H])(N([H])C([H])([H])[H])C([H])([H])[H])C(C([H])([H])[H])(C([H])([H])[H])C([H])([H])[H])C([H])([H])c2c([H])c(OC([H])([H])C([H])([H])C([H])([H])C([H])([H])N([H])C(=O)C3(C([H])([H])[H])C([H])([H])C([H])([H])C([H])([H])C3(C(=O)N3C([H])([H])C([H])([H])C([H])([H])C([H])(n4nc(-c5c([H])c([H])c(Oc6c([H])c([H])c(F)c([H])c6F)c([H])c5[H])c(C(=O)N([H])[H])c4N([H])[H])C3([H])[H])C([H])([H])[H])c([H])c([H])c2C1([H])[H]

$$$$
73:0:0
     RDKit          3D

 91100  0  0  1  0  0  0  0  0999 V2000
  -29.4790  -20.6710   20.7730 C   0  0  0  0  0  0  0  0  0  0  0  0
  -29.8670  -19.2970   20.8320 C   0  0  0  0  0  3  0  0  0  0  0  0
  -29.9380  -21.5920   21.9000 C   0  0  0  0  0  2  0  0  0  0  0  0
  -29.2490  -22.9860   21.7970 C   0  0  0  0  0  2  0  0  0  0  0  0
  -26.7830  -21.6970   17.4520 C   0  0  0  0  0  2  0  0  0  0  0  0
  -28.2420  -22.1440   17.3050 C   0  0  0  0  0  2  0  0  0  0  0  0
  -26.2640  -21.9490   18.8740 C   0  0  0  0  0  2  0  0  0  0  0  0
  -29.1430  -21.4690   18.3570 C   0  0  0  0  0  2  0  0  0  0  0  0
  -27.1840  -21.3120   19.9340 C   0  0  0  0  0  2  0  0  0  0  0  0
  -28.9600  -23.2860   20.3190 C   0  0  0  0  0  3  0  0  0  0  0  0
  -28.6840  -21.6990   19.8180 C   0  0  1  0  0  0  0  0  0  0  0  0
  -29.8380  -17.8710   20.0310 C   0  0  0  0  0  2  0  0  0  0  0  0
  -29.8970  -16.3860   20.8340 C   0  0  0  0  0  2  0  0  0  0  0  0
  -30.5800  -14.9650   20.3160 C   0  0  0  0  0  0  0  0  0  0  0  0
  -30.4090  -12.6330   19.3380 C   0  0  0  0  0  2  0  0  0  0  0  0
  -29.4720  -12.6680   18.1080 C   0  0  0  0  0  2  0  0  0  0  0  0
  -28.0030  -12.4840   18.5360 C   0  0  0  0  0  2  0  0  0  0  0  0
  -27.6280  -13.3770   19.7490 C   0  0  0  0  0  3  0  0  0  0  0  0
  -28.6910  -13.3220   20.8680 C   0  0  0  0  0  2  0  0  0  0  0  0
  -29.9760  -13.7110   20.2740 N   0  0  0  0  0  0  0  0  0  0  0  0
  -31.7460  -15.0220   19.9090 O   0  0  0  0  0  0  0  0  0  0  0  0
  -25.2530  -13.9720   20.4930 C   0  0  0  0  0  0  0  0  0  0  0  0
  -24.1810  -13.2070   20.8570 C   0  0  0  0  0  0  0  0  0  0  0  0
  -24.6300  -11.8500   20.8170 C   0  0  0  0  0  0  0  0  0  0  0  0
  -26.2860  -13.0860   20.2460 N   0  0  0  0  0  0  0  0  0  0  0  0
  -25.9200  -11.8030   20.5040 N   0  0  0  0  0  0  0  0  0  0  0  0
  -23.8870  -10.5960   21.0000 C   0  0  0  0  0  0  0  0  0  0  0  0
  -24.3060   -9.6180   21.9300 C   0  0  0  0  0  3  0  0  0  0  0  0
  -23.5610   -8.4300   22.1060 C   0  0  0  0  0  3  0  0  0  0  0  0
  -22.3850   -8.2110   21.3470 C   0  0  0  0  0  0  0  0  0  0  0  0
  -21.9870   -9.1790   20.4070 C   0  0  0  0  0  3  0  0  0  0  0  0
  -22.7310  -10.3570   20.2310 C   0  0  0  0  0  3  0  0  0  0  0  0
  -21.6160   -7.0760   21.4290 O   0  0  0  0  0  0  0  0  0  0  0  0
  -21.5590   -6.3270   22.5770 C   0  0  0  0  0  0  0  0  0  0  0  0
  -21.1290   -6.8800   23.8040 C   0  0  0  0  0  3  0  0  0  0  0  0
  -21.0160   -6.0590   24.9440 C   0  0  0  0  0  3  0  0  0  0  0  0
  -21.3220   -4.6880   24.8570 C   0  0  0  0  0  0  0  0  0  0  0  0
  -21.7450   -4.1340   23.6360 C   0  0  0  0  0  3  0  0  0  0  0  0
  -21.8580   -4.9530   22.4990 C   0  0  0  0  0  0  0  0  0  0  0  0
  -22.2450   -4.4110   21.3190 F   0  0  0  0  0  0  0  0  0  0  0  0
  -21.2060   -3.8980   25.9490 F   0  0  0  0  0  0  0  0  0  0  0  0
  -22.7880  -13.6980   21.1270 C   0  0  0  0  0  0  0  0  0  0  0  0
  -22.0540  -13.0080   21.9900 N   0  0  0  0  0  0  0  0  0  0  0  0
  -22.3610  -14.7300   20.6100 O   0  0  0  0  0  0  0  0  0  0  0  0
  -22.4130  -12.1730   22.4290 H   0  0  0  0  0  0  0  0  0  0  0  0
  -21.1180  -13.3170   22.2130 H   0  0  0  0  0  0  0  0  0  0  0  0
  -25.4280  -15.3440   20.3280 N   0  0  0  0  0  0  0  0  0  0  0  0
  -24.6660  -16.0020   20.4460 H   0  0  0  0  0  0  0  0  0  0  0  0
  -26.2830  -15.7830   20.0120 H   0  0  0  0  0  0  0  0  0  0  0  0
  -27.9980  -24.6640   20.0690 C   0  0  0  0  0  2  0  0  0  0  0  0
  -28.2850  -26.1780   20.3320 O   0  0  0  0  0  0  0  0  0  0  0  0
  -24.6580  -31.9160   23.2610 C   0  0  0  0  0  0  0  0  0  0  0  0
  -27.2380  -27.1740   20.2570 C   0  0  0  0  0  0  0  0  0  0  0  0
  -23.4690  -30.5170   21.6210 C   0  0  0  0  0  3  0  0  0  0  0  0
  -24.9200  -28.9350   20.2100 C   0  0  0  0  0  0  0  0  0  0  0  0
  -26.0280  -30.7670   21.4790 C   0  0  0  0  0  2  0  0  0  0  0  0
  -26.1000  -29.3740   20.8260 C   0  0  0  0  0  0  0  0  0  0  0  0
  -27.2610  -28.5110   20.8290 C   0  0  0  0  0  3  0  0  0  0  0  0
  -26.0310  -26.8390   19.6060 C   0  0  0  0  0  3  0  0  0  0  0  0
  -24.9000  -27.6820   19.5850 C   0  0  0  0  0  3  0  0  0  0  0  0
  -23.6980  -29.8380   20.2470 C   0  0  0  0  0  2  0  0  0  0  0  0
  -24.7380  -31.0900   22.1740 N   0  0  0  0  0  0  0  0  0  0  0  0
  -23.5670  -32.2060   23.7780 O   0  0  0  0  0  0  0  0  0  0  0  0
  -22.7790  -29.5140   22.5800 C   0  0  0  0  0  0  0  0  0  0  0  0
  -21.4500  -29.3520   22.4470 N   0  0  0  0  0  0  0  0  0  0  0  0
  -23.4420  -28.8850   23.4090 O   0  0  0  0  0  0  0  0  0  0  0  0
  -20.9710  -29.9050   21.7500 H   0  0  0  0  0  0  0  0  0  0  0  0
  -18.0560  -28.1860   22.9510 C   0  0  0  0  0  0  0  0  0  0  0  0
  -20.6180  -28.4230   23.2180 C   0  0  0  0  0  3  0  0  0  0  0  0
  -20.7070  -26.9910   22.6420 C   0  0  0  0  0  2  0  0  0  0  0  0
  -19.6010  -26.6790   21.6290 C   0  0  0  0  0  2  0  0  0  0  0  0
  -18.2200  -26.8370   22.2720 C   0  0  0  0  0  2  0  0  0  0  0  0
  -19.1830  -28.9370   23.3800 C   0  0  0  0  0  0  0  0  0  0  0  0
  -18.9730  -30.2000   23.9770 C   0  0  0  0  0  3  0  0  0  0  0  0
  -17.6720  -30.7110   24.1470 C   0  0  0  0  0  3  0  0  0  0  0  0
  -16.5610  -29.9560   23.7340 C   0  0  0  0  0  3  0  0  0  0  0  0
  -16.7550  -28.6950   23.1410 C   0  0  0  0  0  3  0  0  0  0  0  0
  -25.9330  -32.5530   23.8950 C   0  0  0  0  0  3  0  0  0  0  0  0
  -26.4300  -31.7910   25.1860 C   0  0  1  0  0  0  0  0  0  0  0  0
  -25.3220  -31.5610   26.2410 C   0  0  0  0  0  1  0  0  0  0  0  0
  -27.0230  -30.4120   24.8200 C   0  0  0  0  0  1  0  0  0  0  0  0
  -27.5720  -32.5930   25.8580 C   0  0  0  0  0  1  0  0  0  0  0  0
  -25.6190  -33.9550   24.2170 N   0  0  0  0  0  0  0  0  0  0  0  0
  -25.9430  -35.0060   23.4530 C   0  0  0  0  0  0  0  0  0  0  0  0
  -26.6050  -34.9010   22.4180 O   0  0  0  0  0  0  0  0  0  0  0  0
  -25.0320  -34.1110   25.0240 H   0  0  0  0  0  0  0  0  0  0  0  0
  -24.2040  -36.7950   23.1210 C   0  0  0  0  0  1  0  0  0  0  0  0
  -25.4610  -36.3980   23.9120 C   0  0  0  0  0  3  0  0  0  0  0  0
  -27.6040  -37.2940   24.7070 C   0  0  0  0  0  1  0  0  0  0  0  0
  -26.4890  -37.4520   23.7780 N   0  0  0  0  0  0  0  0  0  0  0  0
  -26.0820  -38.3720   23.9270 H   0  0  0  0  0  0  0  0  0  0  0  0
  1  2  2  0
  1  3  1  0
  4  3  1  0
  5  7  1  0
  6  5  1  0
  6  8  1  0
  7  9  1  0
 11  8  1  6
 10 50  1  0
 10  4  1  0
 11  9  1  0
 11 10  1  0
 11  1  1  0
 12  2  1  0
 12 13  1  0
 14 13  1  0
 15 20  1  0
 16 17  1  0
 16 15  1  0
 18 17  1  0
 18 25  1  0
 18 19  1  0
 20 14  1  0
 20 19  1  0
 21 14  2  0
 22 23  2  0
 23 42  1  0
 24 23  1  0
 24 27  1  0
 25 22  1  0
 25 26  1  0
 26 24  2  0
 27 28  1  0
 28 29  2  0
 30 33  1  0
 30 29  1  0
 31 30  2  0
 32 31  1  0
 32 27  2  0
 33 34  1  0
 34 35  1  0
 35 36  2  0
 37 36  1  0
 37 41  1  0
 38 37  2  0
 39 34  2  0
 39 38  1  0
 40 39  1  0
 42 43  1  0
 43 46  1  0
 43 45  1  0
 44 42  2  0
 47 48  1  0
 47 22  1  0
 49 47  1  0
 50 51  1  0
 52 63  2  0
 53 51  1  0
 53 58  1  0
 54 62  1  0
 54 64  1  0
 55 61  1  0
 55 57  1  0
 56 62  1  0
 57 58  2  0
 57 56  1  0
 59 53  2  0
 60 59  1  0
 60 55  2  0
 61 54  1  0
 62 52  1  0
 64 66  2  0
 65 64  1  0
 67 65  1  0
 68 77  2  0
 68 73  1  0
 69 65  1  0
 69 73  1  0
 70 69  1  0
 71 72  1  0
 71 70  1  0
 72 68  1  0
 73 74  2  0
 74 75  1  0
 76 75  2  0
 77 76  1  0
 78 52  1  0
 78 83  1  0
 78 79  1  0
 79 82  1  1
 79 80  1  0
 81 79  1  0
 83 86  1  0
 84 88  1  0
 84 83  1  0
 85 84  2  0
 88 87  1  0
 90 88  1  0
 90 91  1  0
 90 89  1  0
M  ISO  4  13 100  14 100  50 101  51 101
M  END
>  <TORSDO>  (72) 
F 19

>  <SCORE>  (72) 
-14.309

>  <name>  (72) 
73

>  <ligand_id>  (72) 
73

>  <original_smiles>  (72) 
[H]C(=C1C([H])([H])C([H])([H])C([H])(C([H])([H])Oc2c([H])c([H])c3c(c2[H])C([H])([H])N(C(=O)C([H])(N([H])C(=O)C([H])(N([H])C([H])([H])[H])C([H])([H])[H])C(C([H])([H])[H])(C([H])([H])[H])C([H])([H])[H])C([H])(C(=O)N([H])C2([H])c4c([H])c([H])c([H])c([H])c4C([H])([H])C([H])([H])C2([H])[H])C3([H])[H])C12C([H])([H])C([H])([H])C([H])([H])C([H])([H])C2([H])[H])C([H])([H])C([H])([H])C(=O)N1C([H])([H])C([H])([H])C([H])([H])C([H])(n2nc(-c3c([H])c([H])c(Oc4c([H])c([H])c(F)c([H])c4F)c([H])c3[H])c(C(=O)N([H])[H])c2N([H])[H])C1([H])[H]

>  <smiles>  (72) 
[H]C(=C1C([H])([H])C([H])([H])C([H])(C([H])([H])Oc2c([H])c([H])c3c(c2[H])C([H])([H])N(C(=O)C([H])(N([H])C(=O)C([H])(N([H])C([H])([H])[H])C([H])([H])[H])C(C([H])([H])[H])(C([H])([H])[H])C([H])([H])[H])C([H])(C(=O)N([H])C2([H])c4c([H])c([H])c([H])c([H])c4C([H])([H])C([H])([H])C2([H])[H])C3([H])[H])C12C([H])([H])C([H])([H])C([H])([H])C([H])([H])C2([H])[H])C([H])([H])C([H])([H])C(=O)N1C([H])([H])C([H])([H])C([H])([H])C([H])(n2nc(-c3c([H])c([H])c(Oc4c([H])c([H])c(F)c([H])c4F)c([H])c3[H])c(C(=O)N([H])[H])c2N([H])[H])C1([H])[H]

$$$$
74:0:0
     RDKit          3D

 96105  0  0  1  0  0  0  0  0999 V2000
  -25.7350  -15.0280   19.7030 C   0  0  0  0  0  0  0  0  0  0  0  0
  -26.4400  -16.3720   19.9910 N   0  0  0  0  0  0  0  0  0  0  0  0
  -24.7220  -15.2010   19.0250 O   0  0  0  0  0  0  0  0  0  0  0  0
  -27.1710  -16.1320   20.6680 H   0  0  0  0  0  0  0  0  0  0  0  0
  -26.4210   -9.9810   19.1640 C   0  0  0  0  0  3  0  0  0  0  0  0
  -25.5200  -11.6610   19.0650 C   0  0  0  0  0  3  0  0  0  0  0  0
  -27.9090   -9.3410   20.1970 C   0  0  0  0  0  2  0  0  0  0  0  0
  -30.0430  -11.9260   22.5680 C   0  0  0  0  0  3  0  0  0  0  0  0
  -25.9860  -13.1850   20.0430 C   0  0  2  0  0  0  0  0  0  0  0  0
  -28.7720  -10.0850   21.7120 C   0  0  0  0  0  3  0  0  0  0  0  0
  -28.4170  -11.7210   22.3790 C   0  0  0  0  0  2  0  0  0  0  0  0
  -30.2680  -10.3870   22.1370 C   0  0  0  0  0  3  0  0  0  0  0  0
  -31.4650   -9.7850   21.3820 C   0  0  0  0  0  1  0  0  0  0  0  0
  -31.9480  -13.7290   21.3040 C   0  0  0  0  0  3  0  0  0  0  0  0
  -31.1710  -13.1050   22.3320 C   0  0  0  0  0  3  0  0  0  0  0  0
  -32.1890  -13.6150   19.7790 C   0  0  0  0  0  0  0  0  0  0  0  0
  -31.4850  -12.1500   17.8080 C   0  0  0  0  0  2  0  0  0  0  0  0
  -30.2040  -12.6120   17.0360 C   0  0  0  0  0  2  0  0  0  0  0  0
  -28.9260  -12.9190   17.8860 C   0  0  0  0  0  2  0  0  0  0  0  0
  -29.2890  -13.4820   19.3190 C   0  0  0  0  0  3  0  0  0  0  0  0
  -30.2160  -12.3240   19.6340 C   0  0  0  0  0  2  0  0  0  0  0  0
  -31.4540  -12.6840   19.1520 N   0  0  0  0  0  0  0  0  0  0  0  0
  -33.0190  -14.2290   19.0750 O   0  0  0  0  0  0  0  0  0  0  0  0
  -27.5830  -14.2620   21.5890 C   0  0  0  0  0  3  0  0  0  0  0  0
  -26.1700  -13.6630   21.8930 C   0  0  0  0  0  3  0  0  0  0  0  0
  -25.8760  -12.4940   20.8870 C   0  0  0  0  0  3  0  0  0  0  0  0
  -28.2390  -13.5250   20.2780 N   0  0  0  0  0  0  0  0  0  0  0  0
  -27.2320  -12.5160   19.8610 N   0  0  0  0  0  2  0  0  0  0  0  0
  -24.8450  -11.3320   21.1500 C   0  0  0  0  0  0  0  0  0  0  0  0
  -25.0490  -10.2010   22.0140 C   0  0  0  0  0  3  0  0  0  0  0  0
  -24.2210   -9.0560   22.0720 C   0  0  0  0  0  3  0  0  0  0  0  0
  -22.9530   -9.1160   21.4740 C   0  0  0  0  0  0  0  0  0  0  0  0
  -22.6240  -10.2970   20.7770 C   0  0  0  0  0  3  0  0  0  0  0  0
  -23.5480  -11.3600   20.6010 C   0  0  0  0  0  3  0  0  0  0  0  0
  -21.9940   -8.1260   21.5510 O   0  0  0  0  0  0  0  0  0  0  0  0
  -21.9410   -7.2010   22.5720 C   0  0  0  0  0  0  0  0  0  0  0  0
  -21.7600   -7.5740   23.9250 C   0  0  0  0  0  3  0  0  0  0  0  0
  -21.6310   -6.5850   24.9230 C   0  0  0  0  0  3  0  0  0  0  0  0
  -21.6670   -5.2220   24.5770 C   0  0  0  0  0  0  0  0  0  0  0  0
  -21.8340   -4.8450   23.2340 C   0  0  0  0  0  3  0  0  0  0  0  0
  -21.9660   -5.8290   22.2380 C   0  0  0  0  0  0  0  0  0  0  0  0
  -22.0990   -5.4520   20.9430 F   0  0  0  0  0  0  0  0  0  0  0  0
  -21.5360   -4.2730   25.5340 F   0  0  0  0  0  0  0  0  0  0  0  0
  -24.9950  -14.2760   22.5730 C   0  0  0  0  0  0  0  0  0  0  0  0
  -24.2550  -13.4760   23.3310 N   0  0  0  0  0  0  0  0  0  0  0  0
  -24.6730  -15.4380   22.3380 O   0  0  0  0  0  0  0  0  0  0  0  0
  -24.5200  -12.5140   23.4780 H   0  0  0  0  0  0  0  0  0  0  0  0
  -23.4290  -13.8360   23.7880 H   0  0  0  0  0  0  0  0  0  0  0  0
  -28.2150  -15.3770   22.0280 N   0  0  0  0  0  0  0  0  0  0  0  0
  -27.9370  -15.7220   22.9400 H   0  0  0  0  0  0  0  0  0  0  0  0
  -29.2270  -15.3400   21.9500 H   0  0  0  0  0  0  0  0  0  0  0  0
  -26.4580  -18.0860   19.5970 C   0  0  0  0  0  3  0  0  0  0  0  0
  -27.1910  -19.7280   20.2510 C   0  0  0  0  0  3  0  0  0  0  0  0
  -27.3980  -21.5620   19.7220 C   0  0  0  0  0  2  0  0  0  0  0  0
  -27.7170  -23.2950   20.4720 C   0  0  0  0  0  2  0  0  0  0  0  0
  -28.3560  -24.8980   20.1860 O   0  0  0  0  0  0  0  0  0  0  0  0
  -25.1230  -31.2720   23.1170 C   0  0  0  0  0  0  0  0  0  0  0  0
  -27.6320  -26.2200   20.1900 C   0  0  0  0  0  0  0  0  0  0  0  0
  -24.0450  -29.8620   21.4400 C   0  0  0  0  0  3  0  0  0  0  0  0
  -25.5410  -28.2900   20.0590 C   0  0  0  0  0  0  0  0  0  0  0  0
  -26.6270  -30.0270   21.4500 C   0  0  0  0  0  2  0  0  0  0  0  0
  -26.7050  -28.6100   20.7690 C   0  0  0  0  0  0  0  0  0  0  0  0
  -27.7770  -27.5850   20.8140 C   0  0  0  0  0  3  0  0  0  0  0  0
  -26.4940  -26.1300   19.4050 C   0  0  0  0  0  3  0  0  0  0  0  0
  -25.4750  -27.0890   19.3560 C   0  0  0  0  0  3  0  0  0  0  0  0
  -24.3480  -29.2320   20.0620 C   0  0  0  0  0  2  0  0  0  0  0  0
  -25.2910  -30.4210   22.0520 N   0  0  0  0  0  0  0  0  0  0  0  0
  -23.9980  -31.5460   23.5670 O   0  0  0  0  0  0  0  0  0  0  0  0
  -23.3320  -28.8310   22.3550 C   0  0  0  0  0  0  0  0  0  0  0  0
  -22.0070  -28.6600   22.1900 N   0  0  0  0  0  0  0  0  0  0  0  0
  -23.9780  -28.1950   23.1930 O   0  0  0  0  0  0  0  0  0  0  0  0
  -21.5380  -29.2270   21.4970 H   0  0  0  0  0  0  0  0  0  0  0  0
  -18.6090  -27.4690   22.6310 C   0  0  0  0  0  0  0  0  0  0  0  0
  -21.1690  -27.7090   22.9270 C   0  0  0  0  0  3  0  0  0  0  0  0
  -21.2650  -26.2920   22.3160 C   0  0  0  0  0  2  0  0  0  0  0  0
  -20.1720  -26.0050   21.2820 C   0  0  0  0  0  2  0  0  0  0  0  0
  -18.7840  -26.1400   21.9170 C   0  0  0  0  0  2  0  0  0  0  0  0
  -19.7280  -28.2130   23.0920 C   0  0  0  0  0  0  0  0  0  0  0  0
  -19.5090  -29.4570   23.7240 C   0  0  0  0  0  3  0  0  0  0  0  0
  -18.2040  -29.9560   23.8970 C   0  0  0  0  0  3  0  0  0  0  0  0
  -17.1000  -29.2110   23.4500 C   0  0  0  0  0  3  0  0  0  0  0  0
  -17.3030  -27.9680   22.8230 C   0  0  0  0  0  3  0  0  0  0  0  0
  -26.3340  -31.9580   23.8120 C   0  0  0  0  0  3  0  0  0  0  0  0
  -25.9390  -33.3400   24.1460 N   0  0  0  0  0  0  0  0  0  0  0  0
  -26.2740  -34.4310   23.4440 C   0  0  0  0  0  0  0  0  0  0  0  0
  -27.0110  -34.3840   22.4570 O   0  0  0  0  0  0  0  0  0  0  0  0
  -25.2830  -33.4480   24.9070 H   0  0  0  0  0  0  0  0  0  0  0  0
  -24.4880  -36.1670   23.0520 C   0  0  0  0  0  1  0  0  0  0  0  0
  -25.7060  -35.7900   23.9100 C   0  0  0  0  0  3  0  0  0  0  0  0
  -27.7470  -36.7590   24.8770 C   0  0  0  0  0  1  0  0  0  0  0  0
  -26.6960  -36.8890   23.8700 N   0  0  0  0  0  0  0  0  0  0  0  0
  -26.2410  -37.7890   24.0020 H   0  0  0  0  0  0  0  0  0  0  0  0
  -26.8000  -31.2050   25.1200 C   0  0  1  0  0  0  0  0  0  0  0  0
  -25.6590  -30.9440   26.1320 C   0  0  0  0  0  1  0  0  0  0  0  0
  -27.4370  -29.8390   24.7810 C   0  0  0  0  0  1  0  0  0  0  0  0
  -27.8950  -32.0320   25.8350 C   0  0  0  0  0  1  0  0  0  0  0  0
  1  2  1  0
  2  4  1  0
  3  1  2  0
  5  7  1  0
  6  5  2  0
  6  9  1  0
  8 15  1  0
  9  1  1  1
  9 26  1  0
 10  7  1  0
 10 12  1  0
 10 11  1  0
 11  8  1  0
 12 13  1  0
 12  8  1  0
 14 15  2  0
 16 14  1  0
 17 22  1  0
 18 17  1  0
 18 19  1  0
 20 19  1  0
 20 21  1  0
 20 27  1  0
 22 21  1  0
 22 16  1  0
 23 16  2  0
 24 25  1  0
 24 49  1  0
 25 44  1  0
 26 29  1  0
 26 25  1  0
 27 28  1  0
 27 24  1  0
 28  9  1  0
 29 30  1  0
 30 31  2  0
 32 35  1  0
 32 31  1  0
 33 32  2  0
 34 33  1  0
 34 29  2  0
 35 36  1  0
 36 37  1  0
 37 38  2  0
 39 38  1  0
 39 43  1  0
 40 39  2  0
 41 36  2  0
 41 40  1  0
 42 41  1  0
 44 45  1  0
 45 47  1  0
 45 48  1  0
 46 44  2  0
 49 50  1  0
 51 49  1  0
 52  2  1  0
 52 53  2  0
 54 53  1  0
 54 55  1  0
 56 58  1  0
 56 55  1  0
 57 68  2  0
 58 63  1  0
 59 67  1  0
 59 69  1  0
 60 66  1  0
 60 62  1  0
 61 67  1  0
 62 63  2  0
 62 61  1  0
 64 58  2  0
 65 64  1  0
 65 60  2  0
 66 59  1  0
 67 57  1  0
 69 71  2  0
 70 69  1  0
 72 70  1  0
 73 82  2  0
 73 78  1  0
 74 70  1  0
 74 78  1  0
 75 74  1  0
 76 77  1  0
 76 75  1  0
 77 73  1  0
 78 79  2  0
 79 80  1  0
 81 80  2  0
 82 81  1  0
 83 57  1  0
 83 84  1  0
 83 93  1  0
 84 87  1  0
 85 89  1  0
 85 84  1  0
 86 85  2  0
 89 88  1  0
 91 89  1  0
 91 92  1  0
 91 90  1  0
 93 96  1  1
 93 94  1  0
 95 93  1  0
M  ISO  4  14 100  16 100  55 101  56 101
M  END
>  <TORSDO>  (73) 
F 22

>  <SCORE>  (73) 
1.838

>  <name>  (73) 
74

>  <ligand_id>  (73) 
74

>  <original_smiles>  (73) 
[H]C(C(=O)N1C([H])([H])C([H])([H])C([H])([H])C([H])(n2nc(-c3c([H])c([H])c(Oc4c([H])c([H])c(F)c([H])c4F)c([H])c3[H])c(C(=O)N([H])[H])c2N([H])[H])C1([H])[H])=C([H])C1([H])C([H])(C([H])([H])[H])C2([H])C([H])([H])C([H])([H])C([H])([H])C([H])(C(=O)N([H])C([H])([H])C([H])([H])C([H])([H])C([H])([H])Oc3c([H])c([H])c4c(c3[H])C([H])([H])N(C(=O)C([H])(N([H])C(=O)C([H])(N([H])C([H])([H])[H])C([H])([H])[H])C(C([H])([H])[H])(C([H])([H])[H])C([H])([H])[H])C([H])(C(=O)N([H])C3([H])c5c([H])c([H])c([H])c([H])c5C([H])([H])C([H])([H])C3([H])[H])C4([H])[H])C12[H]

>  <smiles>  (73) 
[H]C(C(=O)N1C([H])([H])C([H])([H])C([H])([H])C([H])(n2nc(-c3c([H])c([H])c(Oc4c([H])c([H])c(F)c([H])c4F)c([H])c3[H])c(C(=O)N([H])[H])c2N([H])[H])C1([H])[H])=C([H])C1([H])C([H])(C([H])([H])[H])C2([H])C([H])([H])C([H])([H])C([H])([H])C([H])(C(=O)N([H])C([H])([H])C([H])([H])C([H])([H])C([H])([H])Oc3c([H])c([H])c4c(c3[H])C([H])([H])N(C(=O)C([H])(N([H])C(=O)C([H])(N([H])C([H])([H])[H])C([H])([H])[H])C(C([H])([H])[H])(C([H])([H])[H])C([H])([H])[H])C([H])(C(=O)N([H])C3([H])c5c([H])c([H])c([H])c([H])c5C([H])([H])C([H])([H])C3([H])[H])C4([H])[H])C12[H]

$$$$
75:0:0
     RDKit          3D

 84 92  0  0  1  0  0  0  0  0999 V2000
  -30.2720  -22.8130   20.3450 C   0  0  0  0  0  2  0  0  0  0  0  0
  -28.9700  -22.4950   20.2650 C   0  0  0  0  0  0  0  0  0  0  0  0
  -29.3380  -19.8880   21.4120 C   0  0  0  0  0  2  0  0  0  0  0  0
  -28.7380  -20.6990   20.2790 C   0  0  0  0  0  3  0  0  0  0  0  0
  -29.6230  -19.0270   20.1960 C   0  0  0  0  0  3  0  0  0  0  0  0
  -29.4010  -17.1720   20.3670 C   0  0  0  0  0  2  0  0  0  0  0  0
  -30.2930  -15.5740   20.1760 C   0  0  0  0  0  0  0  0  0  0  0  0
  -30.3980  -13.0560   19.3430 C   0  0  0  0  0  2  0  0  0  0  0  0
  -29.4790  -12.7560   18.1250 C   0  0  0  0  0  2  0  0  0  0  0  0
  -28.0460  -12.4260   18.5770 C   0  0  0  0  0  2  0  0  0  0  0  0
  -27.5700  -13.3910   19.6880 C   0  0  0  0  0  3  0  0  0  0  0  0
  -28.6200  -13.6190   20.7970 C   0  0  0  0  0  2  0  0  0  0  0  0
  -29.8180  -14.2040   20.1590 N   0  0  0  0  0  0  0  0  0  0  0  0
  -31.5100  -15.5690   19.9160 O   0  0  0  0  0  0  0  0  0  0  0  0
  -25.2150  -13.9070   20.5020 C   0  0  0  0  0  0  0  0  0  0  0  0
  -24.1660  -13.1170   20.8770 C   0  0  0  0  0  0  0  0  0  0  0  0
  -24.6430  -11.7700   20.8170 C   0  0  0  0  0  0  0  0  0  0  0  0
  -26.2590  -13.0450   20.2210 N   0  0  0  0  0  0  0  0  0  0  0  0
  -25.9300  -11.7510   20.4790 N   0  0  0  0  0  0  0  0  0  0  0  0
  -23.9250  -10.5010   21.0030 C   0  0  0  0  0  0  0  0  0  0  0  0
  -24.3500   -9.5390   21.9460 C   0  0  0  0  0  3  0  0  0  0  0  0
  -23.6270   -8.3380   22.1200 C   0  0  0  0  0  3  0  0  0  0  0  0
  -22.4660   -8.0900   21.3520 C   0  0  0  0  0  0  0  0  0  0  0  0
  -22.0600   -9.0410   20.3990 C   0  0  0  0  0  3  0  0  0  0  0  0
  -22.7830  -10.2320   20.2220 C   0  0  0  0  0  3  0  0  0  0  0  0
  -21.7170   -6.9400   21.4330 O   0  0  0  0  0  0  0  0  0  0  0  0
  -21.6240   -6.2240   22.6000 C   0  0  0  0  0  0  0  0  0  0  0  0
  -21.1320   -6.8000   23.7910 C   0  0  0  0  0  3  0  0  0  0  0  0
  -20.9860   -6.0090   24.9480 C   0  0  0  0  0  3  0  0  0  0  0  0
  -21.3240   -4.6430   24.9150 C   0  0  0  0  0  0  0  0  0  0  0  0
  -21.8080   -4.0660   23.7280 C   0  0  0  0  0  3  0  0  0  0  0  0
  -21.9540   -4.8540   22.5730 C   0  0  0  0  0  0  0  0  0  0  0  0
  -22.4020   -4.2870   21.4270 F   0  0  0  0  0  0  0  0  0  0  0  0
  -21.1770   -3.8810   26.0240 F   0  0  0  0  0  0  0  0  0  0  0  0
  -22.7720  -13.5810   21.1750 C   0  0  0  0  0  0  0  0  0  0  0  0
  -22.0620  -12.8740   22.0460 N   0  0  0  0  0  0  0  0  0  0  0  0
  -22.3200  -14.6080   20.6690 O   0  0  0  0  0  0  0  0  0  0  0  0
  -22.4410  -12.0440   22.4790 H   0  0  0  0  0  0  0  0  0  0  0  0
  -21.1250  -13.1680   22.2850 H   0  0  0  0  0  0  0  0  0  0  0  0
  -25.3670  -15.2820   20.3470 N   0  0  0  0  0  0  0  0  0  0  0  0
  -24.5990  -15.9280   20.4970 H   0  0  0  0  0  0  0  0  0  0  0  0
  -26.2090  -15.7370   20.0210 H   0  0  0  0  0  0  0  0  0  0  0  0
  -27.9120  -23.9720   20.1700 C   0  0  0  0  0  2  0  0  0  0  0  0
  -28.1780  -25.6730   20.2650 O   0  0  0  0  0  0  0  0  0  0  0  0
  -24.6800  -31.8660   23.2190 C   0  0  0  0  0  0  0  0  0  0  0  0
  -27.1980  -26.8530   20.2140 C   0  0  0  0  0  0  0  0  0  0  0  0
  -23.4850  -30.4760   21.5810 C   0  0  0  0  0  3  0  0  0  0  0  0
  -24.9260  -28.8400   20.1620 C   0  0  0  0  0  0  0  0  0  0  0  0
  -26.0600  -30.6330   21.4490 C   0  0  0  0  0  2  0  0  0  0  0  0
  -26.1210  -29.2090   20.7910 C   0  0  0  0  0  0  0  0  0  0  0  0
  -27.2460  -28.2420   20.7860 C   0  0  0  0  0  3  0  0  0  0  0  0
  -25.9700  -26.6730   19.5340 C   0  0  0  0  0  3  0  0  0  0  0  0
  -24.8840  -27.5970   19.5100 C   0  0  0  0  0  3  0  0  0  0  0  0
  -23.7180  -29.7850   20.2070 C   0  0  0  0  0  2  0  0  0  0  0  0
  -24.7650  -31.0220   22.1350 N   0  0  0  0  0  0  0  0  0  0  0  0
  -23.5890  -32.1650   23.7340 O   0  0  0  0  0  0  0  0  0  0  0  0
  -22.7730  -29.4930   22.5480 C   0  0  0  0  0  0  0  0  0  0  0  0
  -21.4390  -29.3430   22.4240 N   0  0  0  0  0  0  0  0  0  0  0  0
  -23.4280  -28.8650   23.3820 O   0  0  0  0  0  0  0  0  0  0  0  0
  -20.9620  -29.8990   21.7300 H   0  0  0  0  0  0  0  0  0  0  0  0
  -18.0480  -28.1470   22.9360 C   0  0  0  0  0  0  0  0  0  0  0  0
  -20.6090  -28.4090   23.1960 C   0  0  0  0  0  3  0  0  0  0  0  0
  -20.7060  -26.9760   22.6220 C   0  0  0  0  0  2  0  0  0  0  0  0
  -19.6030  -26.6570   21.6070 C   0  0  0  0  0  2  0  0  0  0  0  0
  -18.2220  -26.8010   22.2530 C   0  0  0  0  0  2  0  0  0  0  0  0
  -19.1680  -28.9090   23.3640 C   0  0  0  0  0  0  0  0  0  0  0  0
  -18.9480  -30.1660   23.9680 C   0  0  0  0  0  3  0  0  0  0  0  0
  -17.6430  -30.6620   24.1450 C   0  0  0  0  0  3  0  0  0  0  0  0
  -16.5380  -29.8990   23.7300 C   0  0  0  0  0  3  0  0  0  0  0  0
  -16.7410  -28.6430   23.1310 C   0  0  0  0  0  3  0  0  0  0  0  0
  -25.9480  -32.5080   23.8580 C   0  0  0  0  0  3  0  0  0  0  0  0
  -26.4480  -31.7390   25.1440 C   0  0  1  0  0  0  0  0  0  0  0  0
  -25.3450  -31.5130   26.2040 C   0  0  0  0  0  1  0  0  0  0  0  0
  -27.0280  -30.3560   24.7740 C   0  0  0  0  0  1  0  0  0  0  0  0
  -27.5980  -32.5300   25.8130 C   0  0  0  0  0  1  0  0  0  0  0  0
  -25.6300  -33.9070   24.2030 N   0  0  0  0  0  0  0  0  0  0  0  0
  -25.9350  -34.9750   23.4520 C   0  0  0  0  0  0  0  0  0  0  0  0
  -26.5720  -34.8860   22.4000 O   0  0  0  0  0  0  0  0  0  0  0  0
  -25.0580  -34.0480   25.0220 H   0  0  0  0  0  0  0  0  0  0  0  0
  -24.1730  -36.7600   23.2070 C   0  0  0  0  0  1  0  0  0  0  0  0
  -25.4620  -36.3600   23.9440 C   0  0  0  0  0  3  0  0  0  0  0  0
  -27.6290  -37.2720   24.6590 C   0  0  0  0  0  1  0  0  0  0  0  0
  -26.4760  -37.4240   23.7760 N   0  0  0  0  0  0  0  0  0  0  0  0
  -26.0680  -38.3410   23.9430 H   0  0  0  0  0  0  0  0  0  0  0  0
  2  1  2  0
  4  2  1  0
  4  3  1  0
  5  4  1  0
  5  6  1  0
  5  3  1  0
  7  6  1  0
  8 13  1  0
  9 10  1  0
  9  8  1  0
 11 10  1  0
 11 18  1  0
 11 12  1  0
 13  7  1  0
 13 12  1  0
 14  7  2  0
 15 16  2  0
 16 35  1  0
 17 16  1  0
 17 20  1  0
 18 19  1  0
 18 15  1  0
 19 17  2  0
 20 21  1  0
 21 22  2  0
 23 26  1  0
 23 22  1  0
 24 23  2  0
 25 24  1  0
 25 20  2  0
 26 27  1  0
 27 28  1  0
 28 29  2  0
 30 29  1  0
 30 34  1  0
 31 30  2  0
 32 27  2  0
 32 31  1  0
 33 32  1  0
 35 36  1  0
 36 39  1  0
 36 38  1  0
 37 35  2  0
 40 41  1  0
 40 15  1  0
 42 40  1  0
 43 44  1  0
 43  2  1  0
 45 56  2  0
 46 44  1  0
 46 51  1  0
 47 55  1  0
 47 57  1  0
 48 54  1  0
 48 50  1  0
 49 55  1  0
 50 49  1  0
 51 50  2  0
 52 46  2  0
 53 52  1  0
 53 48  2  0
 54 47  1  0
 55 45  1  0
 57 59  2  0
 58 57  1  0
 60 58  1  0
 61 70  2  0
 61 66  1  0
 62 58  1  0
 62 66  1  0
 63 62  1  0
 64 65  1  0
 64 63  1  0
 65 61  1  0
 66 67  2  0
 67 68  1  0
 69 68  2  0
 70 69  1  0
 71 45  1  0
 71 76  1  0
 71 72  1  0
 72 75  1  1
 72 73  1  0
 74 72  1  0
 76 79  1  0
 77 81  1  0
 77 76  1  0
 78 77  2  0
 81 80  1  0
 83 84  1  0
 83 81  1  0
 83 82  1  0
M  ISO  4   6 100   7 100  43 101  44 101
M  END
>  <TORSDO>  (74) 
F 19

>  <SCORE>  (74) 
-16.105

>  <name>  (74) 
75

>  <ligand_id>  (74) 
75

>  <original_smiles>  (74) 
[H]C([H])=C(C([H])([H])Oc1c([H])c([H])c2c(c1[H])C([H])([H])N(C(=O)C([H])(N([H])C(=O)C([H])(N([H])C([H])([H])[H])C([H])([H])[H])C(C([H])([H])[H])(C([H])([H])[H])C([H])([H])[H])C([H])(C(=O)N([H])C1([H])c3c([H])c([H])c([H])c([H])c3C([H])([H])C([H])([H])C1([H])[H])C2([H])[H])C1([H])C([H])([H])C1([H])C([H])([H])C(=O)N1C([H])([H])C([H])([H])C([H])([H])C([H])(n2nc(-c3c([H])c([H])c(Oc4c([H])c([H])c(F)c([H])c4F)c([H])c3[H])c(C(=O)N([H])[H])c2N([H])[H])C1([H])[H]

>  <smiles>  (74) 
[H]C([H])=C(C([H])([H])Oc1c([H])c([H])c2c(c1[H])C([H])([H])N(C(=O)C([H])(N([H])C(=O)C([H])(N([H])C([H])([H])[H])C([H])([H])[H])C(C([H])([H])[H])(C([H])([H])[H])C([H])([H])[H])C([H])(C(=O)N([H])C1([H])c3c([H])c([H])c([H])c([H])c3C([H])([H])C([H])([H])C1([H])[H])C2([H])[H])C1([H])C([H])([H])C1([H])C([H])([H])C(=O)N1C([H])([H])C([H])([H])C([H])([H])C([H])(n2nc(-c3c([H])c([H])c(Oc4c([H])c([H])c(F)c([H])c4F)c([H])c3[H])c(C(=O)N([H])[H])c2N([H])[H])C1([H])[H]

$$$$
76:0:0
     RDKit          3D

 99105  0  0  1  0  0  0  0  0999 V2000
  -25.0290  -24.3780   18.8120 C   0  0  0  0  0  2  0  0  0  0  0  0
  -24.3310  -25.6870   19.3250 C   0  0  0  0  0  2  0  0  0  0  0  0
  -21.5490  -26.8340   17.7500 C   0  0  0  0  0  3  0  0  0  0  0  0
  -24.0440  -23.2770   18.5270 C   0  0  0  0  0  3  0  0  0  0  0  0
  -22.7990  -25.8810   19.5330 C   0  0  0  0  0  3  0  0  0  0  0  0
  -22.6540  -24.4530   18.7070 C   0  0  0  0  0  3  0  0  0  0  0  0
  -22.1590  -25.3260   17.4540 C   0  0  0  0  0  3  0  0  0  0  0  0
  -22.0660  -27.5430   19.0950 C   0  0  0  0  0  0  0  0  0  0  0  0
  -21.2210  -24.4850   16.5690 C   0  0  0  0  0  1  0  0  0  0  0  0
  -24.6520  -21.7130   19.1850 C   0  0  0  0  0  0  0  0  0  0  0  0
  -25.8020  -20.7940   18.8330 N   0  0  0  0  0  0  0  0  0  0  0  0
  -23.9810  -21.3080   20.1320 O   0  0  0  0  0  0  0  0  0  0  0  0
  -26.3190  -21.1580   18.0450 H   0  0  0  0  0  0  0  0  0  0  0  0
  -26.4880  -19.3310   19.4090 C   0  0  0  0  0  3  0  0  0  0  0  0
  -27.8920  -18.2030   18.9530 C   0  0  0  0  0  3  0  0  0  0  0  0
  -28.7930  -16.8150   19.7930 C   0  0  0  0  0  2  0  0  0  0  0  0
  -30.0750  -15.5590   19.5170 C   0  0  0  0  0  0  0  0  0  0  0  0
  -30.6410  -13.0530   19.0290 C   0  0  0  0  0  2  0  0  0  0  0  0
  -29.7030  -12.5980   17.8770 C   0  0  0  0  0  2  0  0  0  0  0  0
  -28.2740  -12.3140   18.3980 C   0  0  0  0  0  2  0  0  0  0  0  0
  -27.8120  -13.3870   19.4170 C   0  0  0  0  0  3  0  0  0  0  0  0
  -28.8610  -13.6140   20.5050 C   0  0  0  0  0  2  0  0  0  0  0  0
  -29.9650  -14.1780   19.7740 N   0  0  0  0  0  0  0  0  0  0  0  0
  -31.2340  -15.8070   19.1020 O   0  0  0  0  0  0  0  0  0  0  0  0
  -25.6050  -14.0360   20.4810 C   0  0  0  0  0  0  0  0  0  0  0  0
  -24.5430  -13.2880   20.8970 C   0  0  0  0  0  0  0  0  0  0  0  0
  -24.9090  -11.9240   20.6800 C   0  0  0  0  0  0  0  0  0  0  0  0
  -26.5340  -13.1220   20.0200 N   0  0  0  0  0  0  0  0  0  0  0  0
  -26.1460  -11.8420   20.2130 N   0  0  0  0  0  0  0  0  0  0  0  0
  -24.1310  -10.6930   20.8250 C   0  0  0  0  0  0  0  0  0  0  0  0
  -24.5210   -9.6760   21.7240 C   0  0  0  0  0  3  0  0  0  0  0  0
  -23.7420   -8.5080   21.8560 C   0  0  0  0  0  3  0  0  0  0  0  0
  -22.5630   -8.3530   21.0900 C   0  0  0  0  0  0  0  0  0  0  0  0
  -22.1930   -9.3590   20.1810 C   0  0  0  0  0  3  0  0  0  0  0  0
  -22.9710  -10.5190   20.0460 C   0  0  0  0  0  3  0  0  0  0  0  0
  -21.7540   -7.2450   21.1380 O   0  0  0  0  0  0  0  0  0  0  0  0
  -21.5790   -6.5320   22.2950 C   0  0  0  0  0  0  0  0  0  0  0  0
  -21.0380   -7.1220   23.4590 C   0  0  0  0  0  3  0  0  0  0  0  0
  -20.8100   -6.3360   24.6050 C   0  0  0  0  0  3  0  0  0  0  0  0
  -21.1110   -4.9600   24.5880 C   0  0  0  0  0  0  0  0  0  0  0  0
  -21.6440   -4.3700   23.4290 C   0  0  0  0  0  3  0  0  0  0  0  0
  -21.8740   -5.1540   22.2840 C   0  0  0  0  0  0  0  0  0  0  0  0
  -22.3700   -4.5790   21.1620 F   0  0  0  0  0  0  0  0  0  0  0  0
  -20.8840   -4.2030   25.6860 F   0  0  0  0  0  0  0  0  0  0  0  0
  -23.2240  -13.8170   21.3680 C   0  0  0  0  0  0  0  0  0  0  0  0
  -22.5510  -13.0820   22.2460 N   0  0  0  0  0  0  0  0  0  0  0  0
  -22.8030  -14.9090   20.9900 O   0  0  0  0  0  0  0  0  0  0  0  0
  -22.9060  -12.1940   22.5710 H   0  0  0  0  0  0  0  0  0  0  0  0
  -21.6670  -13.4130   22.6070 H   0  0  0  0  0  0  0  0  0  0  0  0
  -25.8440  -15.4070   20.4310 N   0  0  0  0  0  0  0  0  0  0  0  0
  -25.1520  -16.0820   20.7350 H   0  0  0  0  0  0  0  0  0  0  0  0
  -26.6790  -15.8370   20.0580 H   0  0  0  0  0  0  0  0  0  0  0  0
  -21.3330  -29.0770   19.9430 N   0  0  0  0  0  0  0  0  0  0  0  0
  -20.3550  -28.8360   19.9530 H   0  0  0  0  0  0  0  0  0  0  0  0
  -21.3870  -29.8040   19.2430 H   0  0  0  0  0  0  0  0  0  0  0  0
  -21.4700  -29.9780   21.6410 C   0  0  0  0  0 15  0  0  0  0  0  0
  -22.6910  -29.4650   23.3570 C   0  0  0  0  0 15  0  0  0  0  0  0
  -24.7690  -28.9810   23.4760 C   0  0  0  0  0  1  0  0  0  0  0  0
  -26.1620  -28.0400   22.6690 O   0  0  0  0  0  0  0  0  0  0  0  0
  -24.4160  -32.0210   23.0340 C   0  0  0  0  0  0  0  0  0  0  0  0
  -26.9850  -28.0150   21.4640 C   0  0  0  0  0  3  0  0  0  0  0  0
  -23.8100  -29.9670   21.1790 C   0  0  0  0  0  3  0  0  0  0  0  0
  -25.4760  -29.3410   19.8580 C   0  0  0  0  0  3  0  0  0  0  0  0
  -25.9950  -31.2570   21.3910 C   0  0  0  0  0  2  0  0  0  0  0  0
  -26.3760  -29.9810   20.7260 C   0  0  0  0  0  3  0  0  0  0  0  0
  -27.4490  -29.2750   21.2380 C   0  0  0  0  0  2  0  0  0  0  0  0
  -26.6030  -27.3390   20.2580 C   0  0  0  0  0  2  0  0  0  0  0  0
  -25.7190  -28.0510   19.4270 C   0  0  0  0  0  2  0  0  0  0  0  0
  -24.1800  -29.9440   19.7290 C   0  0  0  0  0  2  0  0  0  0  0  0
  -24.6490  -31.1390   21.9390 N   0  0  0  0  0  0  0  0  0  0  0  0
  -23.2730  -32.3990   23.3380 O   0  0  0  0  0  0  0  0  0  0  0  0
  -23.3190  -28.2480   21.7290 C   0  0  0  0  0  0  0  0  0  0  0  0
  -22.1770  -27.7060   22.5150 N   0  0  0  0  0  0  0  0  0  0  0  0
  -23.9910  -27.3570   22.0410 O   0  0  0  0  0  0  0  0  0  0  0  0
  -22.5550  -26.7940   22.7400 H   0  0  0  0  0  0  0  0  0  0  0  0
  -18.0540  -27.9820   22.7110 C   0  0  0  0  0  0  0  0  0  0  0  0
  -20.7190  -27.7560   23.2170 C   0  0  0  0  0  3  0  0  0  0  0  0
  -20.3420  -26.3470   22.8590 C   0  0  0  0  0  2  0  0  0  0  0  0
  -19.3920  -26.2210   21.6730 C   0  0  0  0  0  2  0  0  0  0  0  0
  -18.0250  -26.6030   22.1070 C   0  0  0  0  0  2  0  0  0  0  0  0
  -19.2770  -28.5930   23.1800 C   0  0  0  0  0  0  0  0  0  0  0  0
  -19.0210  -29.8310   23.8720 C   0  0  0  0  0  3  0  0  0  0  0  0
  -17.7560  -30.4720   23.9300 C   0  0  0  0  0  3  0  0  0  0  0  0
  -16.6150  -29.8290   23.4370 C   0  0  0  0  0  3  0  0  0  0  0  0
  -16.7730  -28.5660   22.8570 C   0  0  0  0  0  3  0  0  0  0  0  0
  -25.5600  -32.5900   24.0220 C   0  0  0  0  0  3  0  0  0  0  0  0
  -25.2500  -34.0120   24.2340 N   0  0  0  0  0  0  0  0  0  0  0  0
  -25.7870  -35.0070   23.5260 C   0  0  0  0  0  0  0  0  0  0  0  0
  -26.6250  -34.8130   22.6410 O   0  0  0  0  0  0  0  0  0  0  0  0
  -24.5410  -34.2320   24.9180 H   0  0  0  0  0  0  0  0  0  0  0  0
  -24.2570  -36.8480   22.7820 C   0  0  0  0  0  1  0  0  0  0  0  0
  -25.3060  -36.4370   23.8260 C   0  0  0  0  0  3  0  0  0  0  0  0
  -27.3060  -37.2510   24.9970 C   0  0  0  0  0  1  0  0  0  0  0  0
  -26.4040  -37.4270   23.8590 N   0  0  0  0  0  0  0  0  0  0  0  0
  -26.0400  -38.3750   23.8880 H   0  0  0  0  0  0  0  0  0  0  0  0
  -25.8360  -31.9360   25.4780 C   0  0  1  0  0  0  0  0  0  0  0  0
  -24.5450  -31.6660   26.2870 C   0  0  0  0  0  1  0  0  0  0  0  0
  -26.7670  -30.6760   25.4870 C   0  0  0  0  0  1  0  0  0  0  0  0
  -26.6790  -32.9190   26.3350 C   0  0  0  0  0  1  0  0  0  0  0  0
  1  2  1  0
  3  8  2  0
  4  6  1  0
  4  1  1  0
  4 10  1  0
  5  2  1  0
  6  5  1  0
  7  3  1  0
  7  6  1  0
  8  5  1  0
  8 53  1  0
  9  7  1  0
 10 12  2  0
 11 10  1  0
 11 14  1  0
 13 11  1  0
 15 14  2  0
 15 16  1  0
 17 23  1  0
 17 16  1  0
 18 23  1  0
 19 20  1  0
 19 18  1  0
 20 21  1  0
 21 28  1  0
 21 22  1  0
 23 22  1  0
 24 17  2  0
 25 26  2  0
 26 45  1  0
 27 30  1  0
 27 26  1  0
 28 29  1  0
 28 25  1  0
 29 27  2  0
 30 31  1  0
 31 32  2  0
 33 36  1  0
 33 32  1  0
 34 33  2  0
 35 34  1  0
 35 30  2  0
 36 37  1  0
 37 38  1  0
 38 39  2  0
 40 39  1  0
 40 44  1  0
 41 40  2  0
 42 37  2  0
 42 41  1  0
 43 42  1  0
 45 46  1  0
 46 48  1  0
 46 49  1  0
 47 45  2  0
 50 25  1  0
 50 51  1  0
 52 50  1  0
 53 54  1  0
 55 53  1  0
 59 58  1  0
 60 71  2  0
 60 86  1  0
 61 59  1  0
 62 72  1  0
 62 70  1  0
 63 65  1  0
 64 70  1  0
 65 66  1  0
 65 64  1  0
 66 61  1  0
 67 61  1  0
 68 63  1  0
 68 67  1  0
 69 63  1  0
 69 62  1  0
 70 60  1  0
 72 74  2  0
 72 73  1  0
 73 75  1  0
 73 77  1  0
 76 85  2  0
 76 81  1  0
 78 77  1  0
 79 80  1  0
 79 78  1  0
 80 76  1  0
 81 77  1  0
 81 82  2  0
 82 83  1  0
 84 83  2  0
 85 84  1  0
 86 87  1  0
 86 96  1  0
 87 90  1  0
 88 92  1  0
 88 87  1  0
 89 88  2  0
 91 92  1  0
 92 94  1  0
 94 95  1  0
 94 93  1  0
 96 98  1  6
 96 97  1  0
 96 99  1  0
M  ISO  4  16 100  17 100  58 101  59 101
M  END
>  <TORSDO>  (75) 
F 24

>  <SCORE>  (75) 
-11.549

>  <name>  (75) 
76

>  <ligand_id>  (75) 
76

>  <original_smiles>  (75) 
[H]c1c([H])c([H])c2c(c1[H])C([H])([H])C([H])([H])C([H])([H])C2([H])N([H])C(=O)C1([H])N(C(=O)C([H])(N([H])C(=O)C([H])(N([H])C([H])([H])[H])C([H])([H])[H])C(C([H])([H])[H])(C([H])([H])[H])C([H])([H])[H])C([H])([H])c2c([H])c(OC([H])([H])C([H])([H])C([H])([H])[N+]([H])([H])C3([H])C([H])([H])C([H])(C([H])([H])[H])C4([H])C([H])(C(=O)N([H])C([H])([H])C([H])([H])C([H])([H])C(=O)N5C([H])([H])C([H])([H])C([H])([H])C([H])(n6nc(-c7c([H])c([H])c(Oc8c([H])c([H])c(F)c([H])c8F)c([H])c7[H])c(C(=O)N([H])[H])c6N([H])[H])C5([H])[H])C([H])([H])C([H])([H])C43[H])c([H])c([H])c2C1([H])[H]

>  <smiles>  (75) 
[H]c1c([H])c([H])c2c(c1[H])C([H])([H])C([H])([H])C([H])([H])C2([H])N([H])C(=O)C1([H])N(C(=O)C([H])(N([H])C(=O)C([H])(N([H])C([H])([H])[H])C([H])([H])[H])C(C([H])([H])[H])(C([H])([H])[H])C([H])([H])[H])C([H])([H])c2c([H])c(OC([H])([H])C([H])([H])C([H])([H])[N+]([H])([H])C3([H])C([H])([H])C([H])(C([H])([H])[H])C4([H])C([H])(C(=O)N([H])C([H])([H])C([H])([H])C([H])([H])C(=O)N5C([H])([H])C([H])([H])C([H])([H])C([H])(n6nc(-c7c([H])c([H])c(Oc8c([H])c([H])c(F)c([H])c8F)c([H])c7[H])c(C(=O)N([H])[H])c6N([H])[H])C5([H])[H])C([H])([H])C([H])([H])C43[H])c([H])c([H])c2C1([H])[H]

$$$$
77:0:0
     RDKit          3D

 90 99  0  0  1  0  0  0  0  0999 V2000
  -33.5110  -19.3300   18.0450 C   0  0  0  0  0  3  0  0  0  0  0  0
  -33.7530  -18.6960   19.2110 C   0  0  0  0  0  3  0  0  0  0  0  0
  -32.1260  -19.8060   17.6250 C   0  0  0  0  0  2  0  0  0  0  0  0
  -32.6650  -18.3570   20.2270 C   0  0  0  0  0  2  0  0  0  0  0  0
  -29.7040  -20.0270   18.6040 C   0  0  0  0  0  2  0  0  0  0  0  0
  -31.1880  -19.8100   18.8410 C   0  0  0  0  0  3  0  0  0  0  0  0
  -31.2700  -18.4750   19.5790 C   0  0  0  0  0  3  0  0  0  0  0  0
  -29.1270  -19.8060   20.0070 C   0  0  0  0  0  3  0  0  0  0  0  0
  -30.0180  -18.3520   20.4850 C   0  0  0  0  0  3  0  0  0  0  0  0
  -29.5470  -16.6520   20.4580 C   0  0  0  0  0  2  0  0  0  0  0  0
  -30.4210  -15.1660   20.3840 C   0  0  0  0  0  0  0  0  0  0  0  0
  -30.3900  -12.7490   19.5040 C   0  0  0  0  0  2  0  0  0  0  0  0
  -29.4800  -12.6450   18.2520 C   0  0  0  0  0  2  0  0  0  0  0  0
  -28.0110  -12.4150   18.6560 C   0  0  0  0  0  2  0  0  0  0  0  0
  -27.5690  -13.3530   19.8080 C   0  0  0  0  0  3  0  0  0  0  0  0
  -28.6030  -13.4170   20.9490 C   0  0  0  0  0  2  0  0  0  0  0  0
  -29.8760  -13.8640   20.3670 N   0  0  0  0  0  0  0  0  0  0  0  0
  -31.6360  -15.1860   20.1520 O   0  0  0  0  0  0  0  0  0  0  0  0
  -25.1830  -13.9240   20.5160 C   0  0  0  0  0  0  0  0  0  0  0  0
  -24.1130  -13.1520   20.8720 C   0  0  0  0  0  0  0  0  0  0  0  0
  -24.5790  -11.8000   20.8590 C   0  0  0  0  0  0  0  0  0  0  0  0
  -26.2290  -13.0470   20.2940 N   0  0  0  0  0  0  0  0  0  0  0  0
  -25.8760  -11.7630   20.5690 N   0  0  0  0  0  0  0  0  0  0  0  0
  -23.8470  -10.5410   21.0470 C   0  0  0  0  0  0  0  0  0  0  0  0
  -24.2640   -9.5740   21.9880 C   0  0  0  0  0  3  0  0  0  0  0  0
  -23.5300   -8.3810   22.1640 C   0  0  0  0  0  3  0  0  0  0  0  0
  -22.3640   -8.1460   21.3980 C   0  0  0  0  0  0  0  0  0  0  0  0
  -21.9650   -9.1000   20.4460 C   0  0  0  0  0  3  0  0  0  0  0  0
  -22.7000  -10.2850   20.2680 C   0  0  0  0  0  3  0  0  0  0  0  0
  -21.6030   -7.0050   21.4810 O   0  0  0  0  0  0  0  0  0  0  0  0
  -21.5450   -6.2610   22.6330 C   0  0  0  0  0  0  0  0  0  0  0  0
  -21.1280   -6.8190   23.8600 C   0  0  0  0  0  3  0  0  0  0  0  0
  -21.0150   -6.0040   25.0030 C   0  0  0  0  0  3  0  0  0  0  0  0
  -21.3100   -4.6300   24.9200 C   0  0  0  0  0  0  0  0  0  0  0  0
  -21.7210   -4.0700   23.6970 C   0  0  0  0  0  3  0  0  0  0  0  0
  -21.8340   -4.8840   22.5560 C   0  0  0  0  0  0  0  0  0  0  0  0
  -22.2100   -4.3350   21.3760 F   0  0  0  0  0  0  0  0  0  0  0  0
  -21.1960   -3.8430   26.0160 F   0  0  0  0  0  0  0  0  0  0  0  0
  -22.7120  -13.6310   21.1130 C   0  0  0  0  0  0  0  0  0  0  0  0
  -21.9660  -12.9430   21.9700 N   0  0  0  0  0  0  0  0  0  0  0  0
  -22.2870  -14.6540   20.5770 O   0  0  0  0  0  0  0  0  0  0  0  0
  -22.3230  -12.1150   22.4240 H   0  0  0  0  0  0  0  0  0  0  0  0
  -21.0250  -13.2480   22.1740 H   0  0  0  0  0  0  0  0  0  0  0  0
  -25.3510  -15.2950   20.3360 N   0  0  0  0  0  0  0  0  0  0  0  0
  -24.5860  -15.9530   20.4390 H   0  0  0  0  0  0  0  0  0  0  0  0
  -26.2110  -15.7320   20.0320 H   0  0  0  0  0  0  0  0  0  0  0  0
  -29.0280  -21.4140   20.7150 C   0  0  0  0  0  2  0  0  0  0  0  0
  -28.7530  -22.9990   19.9960 C   0  0  0  0  0  2  0  0  0  0  0  0
  -28.1260  -24.5000   20.6550 C   0  0  0  0  0  2  0  0  0  0  0  0
  -28.2950  -26.0530   20.2710 O   0  0  0  0  0  0  0  0  0  0  0  0
  -24.6460  -31.8910   23.2280 C   0  0  0  0  0  0  0  0  0  0  0  0
  -27.2390  -27.0720   20.2680 C   0  0  0  0  0  0  0  0  0  0  0  0
  -23.4580  -30.4720   21.6030 C   0  0  0  0  0  3  0  0  0  0  0  0
  -24.9150  -28.8700   20.2020 C   0  0  0  0  0  0  0  0  0  0  0  0
  -26.0160  -30.7230   21.4450 C   0  0  0  0  0  2  0  0  0  0  0  0
  -26.0970  -29.3130   20.8100 C   0  0  0  0  0  0  0  0  0  0  0  0
  -27.2600  -28.4340   20.8150 C   0  0  0  0  0  3  0  0  0  0  0  0
  -26.0270  -26.7520   19.6210 C   0  0  0  0  0  3  0  0  0  0  0  0
  -24.9000  -27.6070   19.5880 C   0  0  0  0  0  3  0  0  0  0  0  0
  -23.6880  -29.7740   20.2340 C   0  0  0  0  0  2  0  0  0  0  0  0
  -24.7270  -31.0540   22.1450 N   0  0  0  0  0  0  0  0  0  0  0  0
  -23.5560  -32.1790   23.7480 O   0  0  0  0  0  0  0  0  0  0  0  0
  -22.7740  -29.4780   22.5770 C   0  0  0  0  0  0  0  0  0  0  0  0
  -21.4470  -29.2980   22.4460 N   0  0  0  0  0  0  0  0  0  0  0  0
  -23.4440  -28.8700   23.4160 O   0  0  0  0  0  0  0  0  0  0  0  0
  -20.9620  -29.8390   21.7450 H   0  0  0  0  0  0  0  0  0  0  0  0
  -18.0760  -28.0560   22.9370 C   0  0  0  0  0  0  0  0  0  0  0  0
  -20.6280  -28.3650   23.2260 C   0  0  0  0  0  3  0  0  0  0  0  0
  -20.7570  -26.9230   22.6810 C   0  0  0  0  0  2  0  0  0  0  0  0
  -19.6720  -26.5640   21.6610 C   0  0  0  0  0  2  0  0  0  0  0  0
  -18.2810  -26.6980   22.2870 C   0  0  0  0  0  2  0  0  0  0  0  0
  -19.1780  -28.8450   23.3640 C   0  0  0  0  0  0  0  0  0  0  0  0
  -18.9300  -30.1120   23.9340 C   0  0  0  0  0  3  0  0  0  0  0  0
  -17.6150  -30.5920   24.0800 C   0  0  0  0  0  3  0  0  0  0  0  0
  -16.5280  -29.8020   23.6690 C   0  0  0  0  0  3  0  0  0  0  0  0
  -16.7590  -28.5350   23.1030 C   0  0  0  0  0  3  0  0  0  0  0  0
  -25.9160  -32.5430   23.8520 C   0  0  0  0  0  3  0  0  0  0  0  0
  -26.4270  -31.7900   25.1430 C   0  0  1  0  0  0  0  0  0  0  0  0
  -25.3290  -31.5640   26.2100 C   0  0  0  0  0  1  0  0  0  0  0  0
  -27.0160  -30.4090   24.7790 C   0  0  0  0  0  1  0  0  0  0  0  0
  -27.5730  -32.5970   25.7990 C   0  0  0  0  0  1  0  0  0  0  0  0
  -25.5910  -33.9430   24.1750 N   0  0  0  0  0  0  0  0  0  0  0  0
  -25.9180  -34.9990   23.4180 C   0  0  0  0  0  0  0  0  0  0  0  0
  -26.5860  -34.8980   22.3860 O   0  0  0  0  0  0  0  0  0  0  0  0
  -24.9930  -34.0930   24.9740 H   0  0  0  0  0  0  0  0  0  0  0  0
  -24.1760  -36.7860   23.0730 C   0  0  0  0  0  1  0  0  0  0  0  0
  -25.4260  -36.3880   23.8750 C   0  0  0  0  0  3  0  0  0  0  0  0
  -27.5620  -37.2890   24.6860 C   0  0  0  0  0  1  0  0  0  0  0  0
  -26.4510  -37.4470   23.7520 N   0  0  0  0  0  0  0  0  0  0  0  0
  -26.0410  -38.3650   23.9000 H   0  0  0  0  0  0  0  0  0  0  0  0
  1  2  2  0
  2  4  1  0
  3  1  1  0
  5  6  1  0
  5  8  1  0
  6  3  1  0
  6  7  1  0
  7  4  1  0
  7  9  1  0
  8  9  1  0
  8 47  1  0
  9 10  1  0
 11 10  1  0
 12 17  1  0
 13 14  1  0
 13 12  1  0
 15 14  1  0
 15 22  1  0
 15 16  1  0
 17 11  1  0
 17 16  1  0
 18 11  2  0
 19 20  2  0
 20 39  1  0
 21 20  1  0
 21 24  1  0
 22 19  1  0
 22 23  1  0
 23 21  2  0
 24 25  1  0
 25 26  2  0
 27 30  1  0
 27 26  1  0
 28 27  2  0
 29 28  1  0
 29 24  2  0
 30 31  1  0
 31 32  1  0
 32 33  2  0
 34 33  1  0
 34 38  1  0
 35 34  2  0
 36 31  2  0
 36 35  1  0
 37 36  1  0
 39 40  1  0
 40 43  1  0
 40 42  1  0
 41 39  2  0
 44 45  1  0
 44 19  1  0
 46 44  1  0
 48 49  1  0
 48 47  1  0
 50 49  1  0
 51 62  2  0
 52 50  1  0
 52 57  1  0
 53 61  1  0
 53 63  1  0
 54 60  1  0
 54 56  1  0
 55 61  1  0
 56 57  2  0
 56 55  1  0
 58 52  2  0
 59 58  1  0
 59 54  2  0
 60 53  1  0
 61 51  1  0
 63 65  2  0
 64 63  1  0
 66 64  1  0
 67 76  2  0
 67 72  1  0
 68 64  1  0
 68 72  1  0
 69 68  1  0
 70 71  1  0
 70 69  1  0
 71 67  1  0
 72 73  2  0
 73 74  1  0
 75 74  2  0
 76 75  1  0
 77 51  1  0
 77 82  1  0
 77 78  1  0
 78 81  1  1
 78 79  1  0
 80 78  1  0
 82 85  1  0
 83 87  1  0
 83 82  1  0
 84 83  2  0
 87 86  1  0
 89 87  1  0
 89 90  1  0
 89 88  1  0
M  ISO  4  10 100  11 100  49 101  50 101
M  END
>  <TORSDO>  (76) 
F 20

>  <SCORE>  (76) 
-16.277

>  <name>  (76) 
77

>  <ligand_id>  (76) 
77

>  <original_smiles>  (76) 
[H]C1=C([H])C([H])([H])C2([H])C([H])(C1([H])[H])C([H])([H])C([H])(C([H])([H])C([H])([H])C([H])([H])Oc1c([H])c([H])c3c(c1[H])C([H])([H])N(C(=O)C([H])(N([H])C(=O)C([H])(N([H])C([H])([H])[H])C([H])([H])[H])C(C([H])([H])[H])(C([H])([H])[H])C([H])([H])[H])C([H])(C(=O)N([H])C1([H])c4c([H])c([H])c([H])c([H])c4C([H])([H])C([H])([H])C1([H])[H])C3([H])[H])C2([H])C([H])([H])C(=O)N1C([H])([H])C([H])([H])C([H])([H])C([H])(n2nc(-c3c([H])c([H])c(Oc4c([H])c([H])c(F)c([H])c4F)c([H])c3[H])c(C(=O)N([H])[H])c2N([H])[H])C1([H])[H]

>  <smiles>  (76) 
[H]C1=C([H])C([H])([H])C2([H])C([H])(C1([H])[H])C([H])([H])C([H])(C([H])([H])C([H])([H])C([H])([H])Oc1c([H])c([H])c3c(c1[H])C([H])([H])N(C(=O)C([H])(N([H])C(=O)C([H])(N([H])C([H])([H])[H])C([H])([H])[H])C(C([H])([H])[H])(C([H])([H])[H])C([H])([H])[H])C([H])(C(=O)N([H])C1([H])c4c([H])c([H])c([H])c([H])c4C([H])([H])C([H])([H])C1([H])[H])C3([H])[H])C2([H])C([H])([H])C(=O)N1C([H])([H])C([H])([H])C([H])([H])C([H])(n2nc(-c3c([H])c([H])c(Oc4c([H])c([H])c(F)c([H])c4F)c([H])c3[H])c(C(=O)N([H])[H])c2N([H])[H])C1([H])[H]

$$$$
78:0:0
     RDKit          3D

 93102  0  0  1  0  0  0  0  0999 V2000
  -26.6920  -21.3370   19.8070 C   0  0  0  0  0  2  0  0  0  0  0  0
  -27.0440  -22.7620   19.3310 C   0  0  0  0  0  2  0  0  0  0  0  0
  -27.4040  -20.2320   18.9940 C   0  0  0  0  0  2  0  0  0  0  0  0
  -29.3440  -21.7240   18.7930 C   0  0  0  0  0  2  0  0  0  0  0  0
  -28.5530  -23.0940   19.3740 C   0  0  0  0  0  3  0  0  0  0  0  0
  -28.8680  -20.2780   19.2160 N   0  0  2  0  0  4  0  0  0  0  0  0
  -28.9720  -20.2730   20.2190 H   0  0  0  0  0  0  0  0  0  0  0  0
  -29.6070  -18.9320   18.7750 C   0  0  0  0  0  2  0  0  0  0  0  0
  -28.7690  -17.8770   20.9140 C   0  0  0  0  0  0  0  0  0  0  0  0
  -27.4890  -17.7370   21.2910 C   0  0  0  0  0  2  0  0  0  0  0  0
  -29.8300  -18.4020   21.8730 C   0  0  0  0  0  2  0  0  0  0  0  0
  -30.9330  -17.3600   22.1210 C   0  0  0  0  0  2  0  0  0  0  0  0
  -31.4660  -16.7340   20.8160 C   0  0  0  0  0  2  0  0  0  0  0  0
  -29.2990  -17.4550   19.5380 C   0  0  0  0  0  3  0  0  0  0  0  0
  -30.3150  -16.1510   19.9660 C   0  0  0  0  0  3  0  0  0  0  0  0
  -30.8520  -14.7640   19.2290 C   0  0  0  0  0  0  0  0  0  0  0  0
  -30.6630  -12.3450   18.4600 C   0  0  0  0  0  2  0  0  0  0  0  0
  -29.5780  -12.2140   17.3640 C   0  0  0  0  0  2  0  0  0  0  0  0
  -28.1820  -12.0350   17.9880 C   0  0  0  0  0  2  0  0  0  0  0  0
  -27.9240  -13.0370   19.1430 C   0  0  0  0  0  3  0  0  0  0  0  0
  -29.1120  -13.0850   20.1270 C   0  0  0  0  0  2  0  0  0  0  0  0
  -30.2980  -13.4860   19.3510 N   0  0  0  0  0  0  0  0  0  0  0  0
  -31.9060  -14.8350   18.5850 O   0  0  0  0  0  0  0  0  0  0  0  0
  -25.7240  -13.6940   20.2770 C   0  0  0  0  0  0  0  0  0  0  0  0
  -24.6830  -12.9540   20.7650 C   0  0  0  0  0  0  0  0  0  0  0  0
  -25.0450  -11.5860   20.5700 C   0  0  0  0  0  0  0  0  0  0  0  0
  -26.6590  -12.7790   19.8200 N   0  0  0  0  0  0  0  0  0  0  0  0
  -26.2660  -11.5000   20.0540 N   0  0  0  0  0  0  0  0  0  0  0  0
  -24.2740  -10.3560   20.7900 C   0  0  0  0  0  0  0  0  0  0  0  0
  -24.7070   -9.3640   21.6970 C   0  0  0  0  0  3  0  0  0  0  0  0
  -23.9370   -8.1990   21.9060 C   0  0  0  0  0  3  0  0  0  0  0  0
  -22.7190   -8.0190   21.2080 C   0  0  0  0  0  0  0  0  0  0  0  0
  -22.3040   -8.9990   20.2890 C   0  0  0  0  0  3  0  0  0  0  0  0
  -23.0750  -10.1560   20.0790 C   0  0  0  0  0  3  0  0  0  0  0  0
  -21.9200   -6.9090   21.3280 O   0  0  0  0  0  0  0  0  0  0  0  0
  -21.8020   -6.2310   22.5150 C   0  0  0  0  0  0  0  0  0  0  0  0
  -21.3590   -6.8660   23.6950 C   0  0  0  0  0  3  0  0  0  0  0  0
  -21.1870   -6.1160   24.8760 C   0  0  0  0  0  3  0  0  0  0  0  0
  -21.4480   -4.7320   24.8760 C   0  0  0  0  0  0  0  0  0  0  0  0
  -21.8840   -4.0970   23.7000 C   0  0  0  0  0  3  0  0  0  0  0  0
  -22.0580   -4.8450   22.5220 C   0  0  0  0  0  0  0  0  0  0  0  0
  -22.4580   -4.2240   21.3860 F   0  0  0  0  0  0  0  0  0  0  0  0
  -21.2760   -4.0100   26.0080 F   0  0  0  0  0  0  0  0  0  0  0  0
  -23.3820  -13.4870   21.2890 C   0  0  0  0  0  0  0  0  0  0  0  0
  -22.7750  -12.7940   22.2460 N   0  0  0  0  0  0  0  0  0  0  0  0
  -22.9190  -14.5550   20.8860 O   0  0  0  0  0  0  0  0  0  0  0  0
  -23.1650  -11.9280   22.5910 H   0  0  0  0  0  0  0  0  0  0  0  0
  -21.9100  -13.1330   22.6400 H   0  0  0  0  0  0  0  0  0  0  0  0
  -25.9460  -15.0600   20.1620 N   0  0  0  0  0  0  0  0  0  0  0  0
  -25.2510  -15.7430   20.4360 H   0  0  0  0  0  0  0  0  0  0  0  0
  -26.7650  -15.4700   19.7330 H   0  0  0  0  0  0  0  0  0  0  0  0
  -28.7320  -24.6420   18.7250 C   0  0  0  0  0  2  0  0  0  0  0  0
  -28.6580  -26.0560   19.3480 O   0  0  0  0  0  0  0  0  0  0  0  0
  -25.1780  -31.2840   23.0790 C   0  0  0  0  0  0  0  0  0  0  0  0
  -27.5810  -27.0030   19.3680 C   0  0  0  0  0  0  0  0  0  0  0  0
  -23.9000  -30.1390   21.3050 C   0  0  0  0  0  3  0  0  0  0  0  0
  -25.2730  -28.7430   19.6310 C   0  0  0  0  0  0  0  0  0  0  0  0
  -26.4460  -30.3920   21.0920 C   0  0  0  0  0  2  0  0  0  0  0  0
  -26.4710  -29.1010   20.2600 C   0  0  0  0  0  0  0  0  0  0  0  0
  -27.6180  -28.2430   20.1180 C   0  0  0  0  0  3  0  0  0  0  0  0
  -26.3620  -26.7380   18.7110 C   0  0  0  0  0  3  0  0  0  0  0  0
  -25.2280  -27.5780   18.8440 C   0  0  0  0  0  3  0  0  0  0  0  0
  -24.0630  -29.6430   19.8400 C   0  0  0  0  0  2  0  0  0  0  0  0
  -25.1970  -30.6180   21.8830 N   0  0  0  0  0  0  0  0  0  0  0  0
  -24.1150  -31.5100   23.6780 O   0  0  0  0  0  0  0  0  0  0  0  0
  -23.2300  -29.0250   22.1480 C   0  0  0  0  0  0  0  0  0  0  0  0
  -21.8950  -28.9040   22.0520 N   0  0  0  0  0  0  0  0  0  0  0  0
  -23.9150  -28.2770   22.8510 O   0  0  0  0  0  0  0  0  0  0  0  0
  -21.3990  -29.5600   21.4650 H   0  0  0  0  0  0  0  0  0  0  0  0
  -18.5080  -27.6950   22.4800 C   0  0  0  0  0  0  0  0  0  0  0  0
  -21.0770  -27.8890   22.7200 C   0  0  0  0  0  3  0  0  0  0  0  0
  -21.1440  -26.5380   21.9690 C   0  0  0  0  0  2  0  0  0  0  0  0
  -20.0180  -26.3590   20.9490 C   0  0  0  0  0  2  0  0  0  0  0  0
  -18.6510  -26.4400   21.6350 C   0  0  0  0  0  2  0  0  0  0  0  0
  -19.6480  -28.3850   22.9760 C   0  0  0  0  0  0  0  0  0  0  0  0
  -19.4590  -29.5640   23.7270 C   0  0  0  0  0  3  0  0  0  0  0  0
  -18.1650  -30.0550   23.9850 C   0  0  0  0  0  3  0  0  0  0  0  0
  -17.0410  -29.3620   23.5030 C   0  0  0  0  0  3  0  0  0  0  0  0
  -17.2140  -28.1840   22.7560 C   0  0  0  0  0  3  0  0  0  0  0  0
  -26.4890  -31.8060   23.7440 C   0  0  0  0  0  3  0  0  0  0  0  0
  -27.0470  -30.8400   24.8600 C   0  0  1  0  0  0  0  0  0  0  0  0
  -25.9990  -30.4530   25.9300 C   0  0  0  0  0  1  0  0  0  0  0  0
  -27.5840  -29.5320   24.2340 C   0  0  0  0  0  1  0  0  0  0  0  0
  -28.2400  -31.5080   25.5830 C   0  0  0  0  0  1  0  0  0  0  0  0
  -26.2060  -33.1330   24.3130 N   0  0  0  0  0  0  0  0  0  0  0  0
  -26.5140  -34.2980   23.7290 C   0  0  0  0  0  0  0  0  0  0  0  0
  -27.1330  -34.3670   22.6630 O   0  0  0  0  0  0  0  0  0  0  0  0
  -25.6620  -33.1530   25.1630 H   0  0  0  0  0  0  0  0  0  0  0  0
  -24.7860  -36.1260   23.7660 C   0  0  0  0  0  1  0  0  0  0  0  0
  -26.0640  -35.5920   24.4350 C   0  0  0  0  0  3  0  0  0  0  0  0
  -28.2420  -36.3300   25.2930 C   0  0  0  0  0  1  0  0  0  0  0  0
  -27.0990  -36.6500   24.4430 N   0  0  0  0  0  0  0  0  0  0  0  0
  -26.7080  -37.5350   24.7540 H   0  0  0  0  0  0  0  0  0  0  0  0
  2  5  1  0
  2  1  1  0
  3  6  1  0
  3  1  1  0
  4  6  1  0
  4  5  1  0
  5 52  1  0
  6  7  1  1
  8  6  1  0
  9 10  2  0
  9 11  1  0
 11 12  1  0
 13 12  1  0
 14  8  1  0
 14 15  1  0
 14  9  1  0
 15 16  1  0
 15 13  1  0
 16 22  1  0
 17 22  1  0
 18 19  1  0
 18 17  1  0
 20 19  1  0
 20 27  1  0
 20 21  1  0
 22 21  1  0
 23 16  2  0
 24 25  2  0
 25 44  1  0
 26 25  1  0
 26 29  1  0
 27 28  1  0
 27 24  1  0
 28 26  2  0
 29 30  1  0
 30 31  2  0
 32 35  1  0
 32 31  1  0
 33 32  2  0
 34 33  1  0
 34 29  2  0
 35 36  1  0
 36 41  2  0
 36 37  1  0
 37 38  2  0
 38 39  1  0
 39 43  1  0
 40 39  2  0
 41 40  1  0
 42 41  1  0
 44 45  1  0
 45 47  1  0
 45 48  1  0
 46 44  2  0
 49 24  1  0
 49 50  1  0
 51 49  1  0
 52 53  1  0
 53 55  1  0
 54 65  2  0
 55 60  1  0
 56 64  1  0
 56 66  1  0
 57 63  1  0
 57 59  1  0
 58 64  1  0
 59 58  1  0
 60 59  2  0
 61 62  1  0
 61 55  2  0
 62 57  2  0
 63 56  1  0
 64 54  1  0
 66 68  2  0
 67 66  1  0
 69 67  1  0
 70 79  2  0
 70 75  1  0
 71 67  1  0
 71 75  1  0
 72 71  1  0
 73 74  1  0
 73 72  1  0
 74 70  1  0
 75 76  2  0
 76 77  1  0
 78 77  2  0
 79 78  1  0
 80 54  1  0
 80 85  1  0
 80 81  1  0
 81 84  1  1
 81 82  1  0
 83 81  1  0
 85 88  1  0
 86 85  1  0
 86 90  1  0
 87 86  2  0
 90 89  1  0
 90 92  1  0
 92 93  1  0
 92 91  1  0
M  ISO  4  15 100  16 100  52 101  53 101
M  END
>  <TORSDO>  (77) 
F 19

>  <SCORE>  (77) 
-8.873

>  <name>  (77) 
78

>  <ligand_id>  (77) 
78

>  <original_smiles>  (77) 
[H]C([H])=C1C([H])([H])C([H])([H])C([H])([H])C([H])(C(=O)N2C([H])([H])C([H])([H])C([H])([H])C([H])(n3nc(-c4c([H])c([H])c(Oc5c([H])c([H])c(F)c([H])c5F)c([H])c4[H])c(C(=O)N([H])[H])c3N([H])[H])C2([H])[H])C1([H])C([H])([H])[N+]1([H])C([H])([H])C([H])([H])C([H])([H])C([H])(C([H])([H])Oc2c([H])c([H])c3c(c2[H])C([H])([H])N(C(=O)C([H])(N([H])C(=O)C([H])(N([H])C([H])([H])[H])C([H])([H])[H])C(C([H])([H])[H])(C([H])([H])[H])C([H])([H])[H])C([H])(C(=O)N([H])C2([H])c4c([H])c([H])c([H])c([H])c4C([H])([H])C([H])([H])C2([H])[H])C3([H])[H])C1([H])[H]

>  <smiles>  (77) 
[H]C([H])=C1C([H])([H])C([H])([H])C([H])([H])C([H])(C(=O)N2C([H])([H])C([H])([H])C([H])([H])C([H])(n3nc(-c4c([H])c([H])c(Oc5c([H])c([H])c(F)c([H])c5F)c([H])c4[H])c(C(=O)N([H])[H])c3N([H])[H])C2([H])[H])C1([H])C([H])([H])[N+]1([H])C([H])([H])C([H])([H])C([H])([H])C([H])(C([H])([H])Oc2c([H])c([H])c3c(c2[H])C([H])([H])N(C(=O)C([H])(N([H])C(=O)C([H])(N([H])C([H])([H])[H])C([H])([H])[H])C(C([H])([H])[H])(C([H])([H])[H])C([H])([H])[H])C([H])(C(=O)N([H])C2([H])c4c([H])c([H])c([H])c([H])c4C([H])([H])C([H])([H])C2([H])[H])C3([H])[H])C1([H])[H]

$$$$
79:0:0
     RDKit          3D

 82 87  0  0  1  0  0  0  0  0999 V2000
  -28.2040  -24.6860   20.2370 O   0  0  0  0  0  1  0  0  0  0  0  0
  -24.7440  -31.7450   23.1270 C   0  0  0  0  0  0  0  0  0  0  0  0
  -27.2910  -26.1680   20.1880 C   0  0  0  0  0  0  0  0  0  0  0  0
  -23.5990  -30.3320   21.4820 C   0  0  0  0  0  3  0  0  0  0  0  0
  -25.0680  -28.5720   20.1120 C   0  0  0  0  0  0  0  0  0  0  0  0
  -26.1990  -30.3080   21.4540 C   0  0  0  0  0  2  0  0  0  0  0  0
  -26.2660  -28.8140   20.7920 C   0  0  0  0  0  0  0  0  0  0  0  0
  -27.3270  -27.6620   20.7830 C   0  0  0  0  0  3  0  0  0  0  0  0
  -26.0530  -26.2970   19.4440 C   0  0  0  0  0  3  0  0  0  0  0  0
  -25.0380  -27.3450   19.4130 C   0  0  0  0  0  3  0  0  0  0  0  0
  -23.8820  -29.5890   20.1330 C   0  0  0  0  0  2  0  0  0  0  0  0
  -24.8790  -30.8440   22.0730 N   0  0  0  0  0  0  0  0  0  0  0  0
  -23.6330  -32.0650   23.5960 O   0  0  0  0  0  0  0  0  0  0  0  0
  -22.8190  -29.4060   22.4600 C   0  0  0  0  0  0  0  0  0  0  0  0
  -21.4830  -29.2730   22.3180 N   0  0  0  0  0  0  0  0  0  0  0  0
  -23.4420  -28.7960   23.3310 O   0  0  0  0  0  0  0  0  0  0  0  0
  -21.0220  -29.8130   21.5990 H   0  0  0  0  0  0  0  0  0  0  0  0
  -18.0860  -28.0300   22.7970 C   0  0  0  0  0  0  0  0  0  0  0  0
  -20.6420  -28.3380   23.0840 C   0  0  0  0  0  3  0  0  0  0  0  0
  -20.7640  -26.9010   22.5230 C   0  0  0  0  0  2  0  0  0  0  0  0
  -19.6820  -26.5630   21.4930 C   0  0  0  0  0  2  0  0  0  0  0  0
  -18.2890  -26.6870   22.1160 C   0  0  0  0  0  2  0  0  0  0  0  0
  -19.1890  -28.8120   23.2360 C   0  0  0  0  0  0  0  0  0  0  0  0
  -18.9380  -30.0630   23.8410 C   0  0  0  0  0  3  0  0  0  0  0  0
  -17.6210  -30.5340   24.0050 C   0  0  0  0  0  3  0  0  0  0  0  0
  -16.5350  -29.7510   23.5770 C   0  0  0  0  0  3  0  0  0  0  0  0
  -16.7680  -28.5000   22.9790 C   0  0  0  0  0  3  0  0  0  0  0  0
  -25.9710  -32.4300   23.8070 C   0  0  0  0  0  3  0  0  0  0  0  0
  -25.6210  -33.8330   24.1390 N   0  0  0  0  0  0  0  0  0  0  0  0
  -25.9480  -34.9160   23.4190 C   0  0  0  0  0  0  0  0  0  0  0  0
  -26.6170  -34.8410   22.3860 O   0  0  0  0  0  0  0  0  0  0  0  0
  -25.0210  -33.9620   24.9410 H   0  0  0  0  0  0  0  0  0  0  0  0
  -24.1950  -36.7130   23.1510 C   0  0  0  0  0  1  0  0  0  0  0  0
  -25.4650  -36.3000   23.9140 C   0  0  0  0  0  3  0  0  0  0  0  0
  -27.6090  -37.2170   24.6960 C   0  0  0  0  0  1  0  0  0  0  0  0
  -26.4820  -37.3690   23.7790 N   0  0  0  0  0  0  0  0  0  0  0  0
  -26.0670  -38.2830   23.9360 H   0  0  0  0  0  0  0  0  0  0  0  0
  -26.4320  -31.6930   25.1270 C   0  0  1  0  0  0  0  0  0  0  0  0
  -25.2950  -31.4830   26.1560 C   0  0  0  0  0  1  0  0  0  0  0  0
  -27.0290  -30.3060   24.8140 C   0  0  0  0  0  1  0  0  0  0  0  0
  -27.5580  -32.5020   25.8140 C   0  0  0  0  0  1  0  0  0  0  0  0
  -27.9980  -19.4840   20.7380 C   0  0  0  0  0  2  0  0  0  0  0  0
  -29.3370  -18.7430   20.1480 C   0  0  0  0  0  1  0  0  0  0  0  0
  -28.2890  -21.1590   20.8670 C   0  0  0  0  0  3  0  0  0  0  0  0
  -29.3920  -20.8200   19.9100 C   0  0  0  0  0  1  0  0  0  0  0  0
  -28.3010  -22.6180   19.9360 C   0  0  0  0  0  1  0  0  0  0  0  0
  -30.0550  -16.6510   19.9590 C   0  0  0  0  0  2  0  0  0  0  0  0
  -30.4490  -13.8730   19.2380 C   0  0  0  0  0  2  0  0  0  0  0  0
  -29.6580  -13.0590   18.1320 C   0  0  0  0  0  2  0  0  0  0  0  0
  -28.3420  -12.4820   18.6590 C   0  0  0  0  0  2  0  0  0  0  0  0
  -27.7070  -13.5090   19.6060 C   0  0  0  0  0  3  0  0  0  0  0  0
  -28.6780  -14.2030   20.6290 C   0  0  0  0  0  2  0  0  0  0  0  0
  -29.6860  -15.1070   19.9220 N   0  0  0  0  0  0  0  0  0  0  0  0
  -31.2920  -16.4340   19.7680 O   0  0  0  0  0  1  0  0  0  0  0  0
  -25.3820  -13.8970   20.4910 C   0  0  0  0  0  0  0  0  0  0  0  0
  -24.3580  -13.0800   20.8730 C   0  0  0  0  0  0  0  0  0  0  0  0
  -24.8580  -11.7430   20.7810 C   0  0  0  0  0  0  0  0  0  0  0  0
  -26.4420  -13.0690   20.1860 N   0  0  0  0  0  0  0  0  0  0  0  0
  -26.1420  -11.7560   20.4130 N   0  0  0  0  0  0  0  0  0  0  0  0
  -24.1520  -10.4620   20.9660 C   0  0  0  0  0  0  0  0  0  0  0  0
  -24.5810   -9.5050   21.9120 C   0  0  0  0  0  3  0  0  0  0  0  0
  -23.8660   -8.3000   22.0920 C   0  0  0  0  0  3  0  0  0  0  0  0
  -22.7060   -8.0400   21.3250 C   0  0  0  0  0  0  0  0  0  0  0  0
  -22.2930   -8.9860   20.3700 C   0  0  0  0  0  3  0  0  0  0  0  0
  -23.0080  -10.1810   20.1880 C   0  0  0  0  0  3  0  0  0  0  0  0
  -21.9650   -6.8860   21.4110 O   0  0  0  0  0  0  0  0  0  0  0  0
  -21.8520   -6.1850   22.5860 C   0  0  0  0  0  0  0  0  0  0  0  0
  -21.3260   -6.7750   23.7570 C   0  0  0  0  0  3  0  0  0  0  0  0
  -21.1640   -6.0010   24.9230 C   0  0  0  0  0  3  0  0  0  0  0  0
  -21.5160   -4.6380   24.9200 C   0  0  0  0  0  0  0  0  0  0  0  0
  -22.0330   -4.0470   23.7530 C   0  0  0  0  0  3  0  0  0  0  0  0
  -22.1970   -4.8180   22.5890 C   0  0  0  0  0  0  0  0  0  0  0  0
  -22.6750   -4.2380   21.4620 F   0  0  0  0  0  0  0  0  0  0  0  0
  -21.3530   -3.8930   26.0380 F   0  0  0  0  0  0  0  0  0  0  0  0
  -22.9640  -13.5230   21.2020 C   0  0  0  0  0  0  0  0  0  0  0  0
  -22.2810  -12.8040   22.0830 N   0  0  0  0  0  0  0  0  0  0  0  0
  -22.4930  -14.5510   20.7130 O   0  0  0  0  0  0  0  0  0  0  0  0
  -22.6780  -11.9760   22.5020 H   0  0  0  0  0  0  0  0  0  0  0  0
  -21.3470  -13.0880   22.3450 H   0  0  0  0  0  0  0  0  0  0  0  0
  -25.5010  -15.2750   20.3400 N   0  0  0  0  0  0  0  0  0  0  0  0
  -24.7240  -15.9090   20.4930 H   0  0  0  0  0  0  0  0  0  0  0  0
  -26.3310  -15.7410   19.9980 H   0  0  0  0  0  0  0  0  0  0  0  0
  2 13  2  0
  3  1  1  0
  3  8  1  0
  4 12  1  0
  4 14  1  0
  5 11  1  0
  5  7  1  0
  6 12  1  0
  7  6  1  0
  8  7  2  0
  9  3  2  0
 10  9  1  0
 10  5  2  0
 11  4  1  0
 12  2  1  0
 14 16  2  0
 15 14  1  0
 17 15  1  0
 18 27  2  0
 18 23  1  0
 19 15  1  0
 19 23  1  0
 20 19  1  0
 21 22  1  0
 21 20  1  0
 22 18  1  0
 23 24  2  0
 24 25  1  0
 26 25  2  0
 27 26  1  0
 28  2  1  0
 28 29  1  0
 28 38  1  0
 29 32  1  0
 30 34  1  0
 30 29  1  0
 31 30  2  0
 34 33  1  0
 36 34  1  0
 36 37  1  0
 36 35  1  0
 38 41  1  1
 38 39  1  0
 40 38  1  0
 42 44  1  0
 43 42  1  0
 45 44  1  0
 46 44  1  0
 48 53  1  0
 49 50  1  0
 49 48  1  0
 51 50  1  0
 51 58  1  0
 51 52  1  0
 53 47  1  0
 53 52  1  0
 54 47  1  0
 55 56  2  0
 56 75  1  0
 57 56  1  0
 57 60  1  0
 58 59  1  0
 58 55  1  0
 59 57  2  0
 60 61  1  0
 61 62  2  0
 63 66  1  0
 63 62  1  0
 64 63  2  0
 65 64  1  0
 65 60  2  0
 66 67  1  0
 67 72  2  0
 67 68  1  0
 68 69  2  0
 70 69  1  0
 70 74  1  0
 71 70  2  0
 72 71  1  0
 73 72  1  0
 75 76  1  0
 76 79  1  0
 76 78  1  0
 77 75  2  0
 80 55  1  0
 80 81  1  0
 82 80  1  0
M  ISO  4   1 101  43 100  46 101  47 100
M  END
>  <TORSDO>  (78) 
F 16

>  <SCORE>  (78) 
-15.805

>  <name>  (78) 
79

>  <ligand_id>  (78) 
79

>  <original_smiles>  (78) 
[H]c1c([H])c([H])c2c(c1[H])C([H])([H])C([H])([H])C([H])([H])C2([H])N([H])C(=O)C1([H])N(C(=O)C([H])(N([H])C(=O)C([H])(N([H])C([H])([H])[H])C([H])([H])[H])C(C([H])([H])[H])(C([H])([H])[H])C([H])([H])[H])C([H])([H])c2c([H])c(OC3([H])C4([H])C([H])([H])C([H])(C(=O)N5C([H])([H])C([H])([H])C([H])([H])C([H])(n6nc(-c7c([H])c([H])c(Oc8c([H])c([H])c(F)c([H])c8F)c([H])c7[H])c(C(=O)N([H])[H])c6N([H])[H])C5([H])[H])C34[H])c([H])c([H])c2C1([H])[H]

>  <smiles>  (78) 
[H]c1c([H])c([H])c2c(c1[H])C([H])([H])C([H])([H])C([H])([H])C2([H])N([H])C(=O)C1([H])N(C(=O)C([H])(N([H])C(=O)C([H])(N([H])C([H])([H])[H])C([H])([H])[H])C(C([H])([H])[H])(C([H])([H])[H])C([H])([H])[H])C([H])([H])c2c([H])c(OC3([H])C4([H])C([H])([H])C([H])(C(=O)N5C([H])([H])C([H])([H])C([H])([H])C([H])(n6nc(-c7c([H])c([H])c(Oc8c([H])c([H])c(F)c([H])c8F)c([H])c7[H])c(C(=O)N([H])[H])c6N([H])[H])C5([H])[H])C34[H])c([H])c([H])c2C1([H])[H]

$$$$
80:0:0
     RDKit          3D

 91 99  0  0  1  0  0  0  0  0999 V2000
  -29.2930  -20.8300   20.3840 C   0  0  0  0  0  0  0  0  0  0  0  0
  -29.5810  -22.1510   20.4050 N   0  0  0  0  0  0  0  0  0  0  0  0
  -28.1490  -20.4250   20.1680 O   0  0  0  0  0  0  0  0  0  0  0  0
  -30.5440  -22.3860   20.6080 H   0  0  0  0  0  0  0  0  0  0  0  0
  -31.4430  -19.3130   22.7990 C   0  0  0  0  0  2  0  0  0  0  0  0
  -31.5090  -20.2900   21.6160 C   0  0  0  0  0  2  0  0  0  0  0  0
  -30.1910  -18.4710   22.5620 C   0  0  0  0  0  2  0  0  0  0  0  0
  -30.4730  -19.8130   20.5630 C   0  0  0  0  0  3  0  0  0  0  0  0
  -30.0820  -18.3660   21.0340 C   0  0  0  0  0  3  0  0  0  0  0  0
  -30.9800  -17.2200   20.4460 C   0  0  0  0  0  3  0  0  0  0  0  0
  -30.6730  -15.7800   20.9830 C   0  0  0  0  0  3  0  0  0  0  0  0
  -31.3110  -14.5930   20.2070 C   0  0  0  0  0  0  0  0  0  0  0  0
  -30.9210  -12.4880   18.9570 C   0  0  0  0  0  2  0  0  0  0  0  0
  -29.9580  -12.7680   17.7840 C   0  0  0  0  0  2  0  0  0  0  0  0
  -28.4870  -12.6780   18.2410 C   0  0  0  0  0  2  0  0  0  0  0  0
  -28.2150  -13.4820   19.5390 C   0  0  0  0  0  3  0  0  0  0  0  0
  -29.2820  -13.1660   20.6130 C   0  0  0  0  0  2  0  0  0  0  0  0
  -30.6050  -13.4410   20.0320 N   0  0  0  0  0  0  0  0  0  0  0  0
  -32.4210  -14.7580   19.6900 O   0  0  0  0  0  0  0  0  0  0  0  0
  -25.8450  -14.1750   20.2650 C   0  0  0  0  0  0  0  0  0  0  0  0
  -24.7550  -13.4410   20.6500 C   0  0  0  0  0  0  0  0  0  0  0  0
  -25.1720  -12.0750   20.6260 C   0  0  0  0  0  0  0  0  0  0  0  0
  -26.8600  -13.2570   20.0340 N   0  0  0  0  0  0  0  0  0  0  0  0
  -26.4570  -11.9910   20.3080 N   0  0  0  0  0  0  0  0  0  0  0  0
  -24.4070  -10.8380   20.8340 C   0  0  0  0  0  0  0  0  0  0  0  0
  -24.7760   -9.8990   21.8210 C   0  0  0  0  0  3  0  0  0  0  0  0
  -24.0140   -8.7270   22.0150 C   0  0  0  0  0  3  0  0  0  0  0  0
  -22.8680   -8.4860   21.2190 C   0  0  0  0  0  0  0  0  0  0  0  0
  -22.5190   -9.4140   20.2220 C   0  0  0  0  0  3  0  0  0  0  0  0
  -23.2820  -10.5770   20.0270 C   0  0  0  0  0  3  0  0  0  0  0  0
  -22.0840   -7.3620   21.3180 O   0  0  0  0  0  0  0  0  0  0  0  0
  -21.9010   -6.7160   22.5140 C   0  0  0  0  0  0  0  0  0  0  0  0
  -21.3700   -7.3760   23.6440 C   0  0  0  0  0  3  0  0  0  0  0  0
  -21.1320   -6.6550   24.8310 C   0  0  0  0  0  3  0  0  0  0  0  0
  -21.4160   -5.2770   24.8890 C   0  0  0  0  0  0  0  0  0  0  0  0
  -21.9380   -4.6170   23.7620 C   0  0  0  0  0  3  0  0  0  0  0  0
  -22.1760   -5.3350   22.5770 C   0  0  0  0  0  0  0  0  0  0  0  0
  -22.6600   -4.6910   21.4880 F   0  0  0  0  0  0  0  0  0  0  0  0
  -21.1810   -4.5830   26.0270 F   0  0  0  0  0  0  0  0  0  0  0  0
  -23.3770  -13.9670   20.9330 C   0  0  0  0  0  0  0  0  0  0  0  0
  -22.6420  -13.3080   21.8220 N   0  0  0  0  0  0  0  0  0  0  0  0
  -22.9610  -14.9950   20.4010 O   0  0  0  0  0  0  0  0  0  0  0  0
  -22.9900  -12.4760   22.2730 H   0  0  0  0  0  0  0  0  0  0  0  0
  -21.7180  -13.6420   22.0570 H   0  0  0  0  0  0  0  0  0  0  0  0
  -26.0530  -15.5380   20.0740 N   0  0  0  0  0  0  0  0  0  0  0  0
  -25.3100  -16.2190   20.1870 H   0  0  0  0  0  0  0  0  0  0  0  0
  -26.9200  -15.9480   19.7530 H   0  0  0  0  0  0  0  0  0  0  0  0
  -28.7120  -23.2850   20.0050 C   0  0  0  0  0  2  0  0  0  0  0  0
  -28.1410  -24.1400   21.1770 C   0  0  0  0  0  2  0  0  0  0  0  0
  -28.6890  -25.5920   21.3420 C   0  0  0  0  0  2  0  0  0  0  0  0
  -28.5180  -26.4980   20.2330 O   0  0  0  0  0  0  0  0  0  0  0  0
  -24.6530  -31.7260   23.2330 C   0  0  0  0  0  0  0  0  0  0  0  0
  -27.3650  -27.2570   20.2440 C   0  0  0  0  0  0  0  0  0  0  0  0
  -23.4820  -30.3000   21.5860 C   0  0  0  0  0  3  0  0  0  0  0  0
  -24.9670  -28.7610   20.1950 C   0  0  0  0  0  0  0  0  0  0  0  0
  -26.0070  -30.6740   21.4200 C   0  0  0  0  0  2  0  0  0  0  0  0
  -26.1150  -29.2950   20.7980 C   0  0  0  0  0  0  0  0  0  0  0  0
  -27.3190  -28.5500   20.8210 C   0  0  0  0  0  3  0  0  0  0  0  0
  -26.2080  -26.7420   19.6270 C   0  0  0  0  0  3  0  0  0  0  0  0
  -25.0090  -27.4850   19.6040 C   0  0  0  0  0  3  0  0  0  0  0  0
  -23.7160  -29.6130   20.2160 C   0  0  0  0  0  2  0  0  0  0  0  0
  -24.7320  -30.9170   22.1400 N   0  0  0  0  0  0  0  0  0  0  0  0
  -23.5630  -31.9920   23.7590 O   0  0  0  0  0  0  0  0  0  0  0  0
  -22.8270  -29.2820   22.5480 C   0  0  0  0  0  0  0  0  0  0  0  0
  -21.5110  -29.0650   22.3880 N   0  0  0  0  0  0  0  0  0  0  0  0
  -23.5010  -28.6880   23.3940 O   0  0  0  0  0  0  0  0  0  0  0  0
  -21.0260  -29.5970   21.6800 H   0  0  0  0  0  0  0  0  0  0  0  0
  -18.1640  -27.7600   22.7790 C   0  0  0  0  0  0  0  0  0  0  0  0
  -20.6960  -28.1200   23.1540 C   0  0  0  0  0  3  0  0  0  0  0  0
  -20.8770  -26.6770   22.6280 C   0  0  0  0  0  2  0  0  0  0  0  0
  -19.8330  -26.2830   21.5780 C   0  0  0  0  0  2  0  0  0  0  0  0
  -18.4190  -26.3990   22.1550 C   0  0  0  0  0  2  0  0  0  0  0  0
  -19.2340  -28.5750   23.2340 C   0  0  0  0  0  0  0  0  0  0  0  0
  -18.9450  -29.8470   23.7710 C   0  0  0  0  0  3  0  0  0  0  0  0
  -17.6170  -30.3060   23.8630 C   0  0  0  0  0  3  0  0  0  0  0  0
  -16.5600  -29.4890   23.4270 C   0  0  0  0  0  3  0  0  0  0  0  0
  -16.8340  -28.2180   22.8900 C   0  0  0  0  0  3  0  0  0  0  0  0
  -25.9250  -32.3730   23.8640 C   0  0  0  0  0  3  0  0  0  0  0  0
  -25.6000  -33.7700   24.1890 N   0  0  0  0  0  0  0  0  0  0  0  0
  -25.9250  -34.8220   23.4280 C   0  0  0  0  0  0  0  0  0  0  0  0
  -26.6020  -34.7240   22.3990 O   0  0  0  0  0  0  0  0  0  0  0  0
  -25.0050  -33.9210   24.9890 H   0  0  0  0  0  0  0  0  0  0  0  0
  -24.1730  -36.5840   23.0580 C   0  0  0  0  0  1  0  0  0  0  0  0
  -25.4190  -36.2050   23.8760 C   0  0  0  0  0  3  0  0  0  0  0  0
  -27.5400  -37.1250   24.7060 C   0  0  0  0  0  1  0  0  0  0  0  0
  -26.4380  -37.2720   23.7590 N   0  0  0  0  0  0  0  0  0  0  0  0
  -26.0170  -38.1870   23.9010 H   0  0  0  0  0  0  0  0  0  0  0  0
  -26.4440  -31.6110   25.1430 C   0  0  1  0  0  0  0  0  0  0  0  0
  -25.3460  -31.3600   26.2030 C   0  0  0  0  0  1  0  0  0  0  0  0
  -27.0460  -30.2410   24.7520 C   0  0  0  0  0  1  0  0  0  0  0  0
  -27.5790  -32.4190   25.8130 C   0  0  0  0  0  1  0  0  0  0  0  0
  1  2  1  0
  2  4  1  0
  3  1  2  0
  6  5  1  0
  7  5  1  0
  8  1  1  0
  8  9  1  0
  8  6  1  0
  9 10  1  0
  9  7  1  0
 10 11  2  0
 12 11  1  0
 13 18  1  0
 14 15  1  0
 14 13  1  0
 16 15  1  0
 16 23  1  0
 16 17  1  0
 18 12  1  0
 18 17  1  0
 19 12  2  0
 20 21  2  0
 21 40  1  0
 22 21  1  0
 22 25  1  0
 23 20  1  0
 23 24  1  0
 24 22  2  0
 25 26  1  0
 26 27  2  0
 28 31  1  0
 28 27  1  0
 29 28  2  0
 30 29  1  0
 30 25  2  0
 31 32  1  0
 32 37  2  0
 32 33  1  0
 33 34  2  0
 34 35  1  0
 35 39  1  0
 36 35  2  0
 37 36  1  0
 38 37  1  0
 40 41  1  0
 41 44  1  0
 41 43  1  0
 42 40  2  0
 45 46  1  0
 45 20  1  0
 47 45  1  0
 48  2  1  0
 48 49  1  0
 49 50  1  0
 51 53  1  0
 51 50  1  0
 52 63  2  0
 53 58  1  0
 54 62  1  0
 54 64  1  0
 55 61  1  0
 55 57  1  0
 56 62  1  0
 57 58  2  0
 57 56  1  0
 59 53  2  0
 60 59  1  0
 60 55  2  0
 61 54  1  0
 62 52  1  0
 64 66  2  0
 65 64  1  0
 67 65  1  0
 68 77  2  0
 68 73  1  0
 69 65  1  0
 69 73  1  0
 70 69  1  0
 71 72  1  0
 71 70  1  0
 72 68  1  0
 73 74  2  0
 74 75  1  0
 76 75  2  0
 77 76  1  0
 78 52  1  0
 78 79  1  0
 78 88  1  0
 79 82  1  0
 80 84  1  0
 80 79  1  0
 81 80  2  0
 84 83  1  0
 86 84  1  0
 86 87  1  0
 86 85  1  0
 88 91  1  1
 88 89  1  0
 90 88  1  0
M  ISO  4  11 100  12 100  50 101  51 101
M  END
>  <TORSDO>  (79) 
F 22

>  <SCORE>  (79) 
-11.932

>  <name>  (79) 
80

>  <ligand_id>  (79) 
80

>  <original_smiles>  (79) 
[H]c1c([H])c([H])c2c(c1[H])C([H])([H])C([H])([H])C([H])([H])C2([H])N([H])C(=O)C1([H])N(C(=O)C([H])(N([H])C(=O)C([H])(N([H])C([H])([H])[H])C([H])([H])[H])C(C([H])([H])[H])(C([H])([H])[H])C([H])([H])[H])C([H])([H])c2c([H])c(OC([H])([H])C([H])([H])C([H])([H])N([H])C(=O)C3([H])C([H])([H])C([H])([H])C([H])([H])C3([H])C([H])([H])C([H])([H])C(=O)N3C([H])([H])C([H])([H])C([H])([H])C([H])(n4nc(-c5c([H])c([H])c(Oc6c([H])c([H])c(F)c([H])c6F)c([H])c5[H])c(C(=O)N([H])[H])c4N([H])[H])C3([H])[H])c([H])c([H])c2C1([H])[H]

>  <smiles>  (79) 
[H]c1c([H])c([H])c2c(c1[H])C([H])([H])C([H])([H])C([H])([H])C2([H])N([H])C(=O)C1([H])N(C(=O)C([H])(N([H])C(=O)C([H])(N([H])C([H])([H])[H])C([H])([H])[H])C(C([H])([H])[H])(C([H])([H])[H])C([H])([H])[H])C([H])([H])c2c([H])c(OC([H])([H])C([H])([H])C([H])([H])N([H])C(=O)C3([H])C([H])([H])C([H])([H])C([H])([H])C3([H])C([H])([H])C([H])([H])C(=O)N3C([H])([H])C([H])([H])C([H])([H])C([H])(n4nc(-c5c([H])c([H])c(Oc6c([H])c([H])c(F)c([H])c6F)c([H])c5[H])c(C(=O)N([H])[H])c4N([H])[H])C3([H])[H])c([H])c([H])c2C1([H])[H]

$$$$
81:0:0
     RDKit          3D

 84 92  0  0  1  0  0  0  0  0999 V2000
  -30.1340  -20.0670   21.3740 C   0  0  0  0  0  3  0  0  0  0  0  0
  -29.6680  -21.6500   21.4630 C   0  0  0  0  0  3  0  0  0  0  0  0
  -28.4430  -20.5530   19.8990 C   0  0  0  0  0  2  0  0  0  0  0  0
  -29.5240  -19.1620   20.2150 C   0  0  0  0  0  3  0  0  0  0  0  0
  -28.8650  -22.2570   20.2370 C   0  0  0  0  0  3  0  0  0  0  0  0
  -29.3450  -17.2540   20.3700 C   0  0  0  0  0  2  0  0  0  0  0  0
  -30.2370  -15.6430   20.1640 C   0  0  0  0  0  0  0  0  0  0  0  0
  -30.3380  -13.1260   19.2970 C   0  0  0  0  0  2  0  0  0  0  0  0
  -29.4040  -12.8140   18.0910 C   0  0  0  0  0  2  0  0  0  0  0  0
  -27.9810  -12.4690   18.5640 C   0  0  0  0  0  2  0  0  0  0  0  0
  -27.5140  -13.4320   19.6800 C   0  0  0  0  0  3  0  0  0  0  0  0
  -28.5760  -13.6640   20.7770 C   0  0  0  0  0  2  0  0  0  0  0  0
  -29.7610  -14.2670   20.1300 N   0  0  0  0  0  0  0  0  0  0  0  0
  -31.4540  -15.6290   19.9000 O   0  0  0  0  0  0  0  0  0  0  0  0
  -25.1660  -13.9370   20.5150 C   0  0  0  0  0  0  0  0  0  0  0  0
  -24.1220  -13.1430   20.8980 C   0  0  0  0  0  0  0  0  0  0  0  0
  -24.6030  -11.7980   20.8350 C   0  0  0  0  0  0  0  0  0  0  0  0
  -26.2100  -13.0780   20.2270 N   0  0  0  0  0  0  0  0  0  0  0  0
  -25.8880  -11.7830   20.4880 N   0  0  0  0  0  0  0  0  0  0  0  0
  -23.8920  -10.5270   21.0260 C   0  0  0  0  0  0  0  0  0  0  0  0
  -24.3400   -9.5570   21.9500 C   0  0  0  0  0  3  0  0  0  0  0  0
  -23.6240   -8.3540   22.1310 C   0  0  0  0  0  3  0  0  0  0  0  0
  -22.4450   -8.1110   21.3880 C   0  0  0  0  0  0  0  0  0  0  0  0
  -22.0150   -9.0680   20.4530 C   0  0  0  0  0  3  0  0  0  0  0  0
  -22.7320  -10.2630   20.2710 C   0  0  0  0  0  3  0  0  0  0  0  0
  -21.6990   -6.9600   21.4770 O   0  0  0  0  0  0  0  0  0  0  0  0
  -21.6520   -6.2210   22.6330 C   0  0  0  0  0  0  0  0  0  0  0  0
  -21.1970   -6.7710   23.8510 C   0  0  0  0  0  3  0  0  0  0  0  0
  -21.0990   -5.9580   24.9970 C   0  0  0  0  0  3  0  0  0  0  0  0
  -21.4440   -4.5950   24.9270 C   0  0  0  0  0  0  0  0  0  0  0  0
  -21.8920   -4.0440   23.7130 C   0  0  0  0  0  3  0  0  0  0  0  0
  -21.9920   -4.8550   22.5690 C   0  0  0  0  0  0  0  0  0  0  0  0
  -22.4040   -4.3130   21.3970 F   0  0  0  0  0  0  0  0  0  0  0  0
  -21.3430   -3.8120   26.0270 F   0  0  0  0  0  0  0  0  0  0  0  0
  -22.7280  -13.6030   21.2060 C   0  0  0  0  0  0  0  0  0  0  0  0
  -22.0300  -12.8950   22.0860 N   0  0  0  0  0  0  0  0  0  0  0  0
  -22.2690  -14.6260   20.7010 O   0  0  0  0  0  0  0  0  0  0  0  0
  -22.4160  -12.0680   22.5160 H   0  0  0  0  0  0  0  0  0  0  0  0
  -21.0950  -13.1860   22.3350 H   0  0  0  0  0  0  0  0  0  0  0  0
  -25.3100  -15.3120   20.3570 N   0  0  0  0  0  0  0  0  0  0  0  0
  -24.5420  -15.9580   20.5070 H   0  0  0  0  0  0  0  0  0  0  0  0
  -26.1500  -15.7680   20.0250 H   0  0  0  0  0  0  0  0  0  0  0  0
  -27.9320  -23.9400   20.3090 C   0  0  0  0  0  2  0  0  0  0  0  0
  -28.1520  -25.6650   20.3680 O   0  0  0  0  0  0  0  0  0  0  0  0
  -24.6530  -31.9180   23.2610 C   0  0  0  0  0  0  0  0  0  0  0  0
  -27.1710  -26.8510   20.3120 C   0  0  0  0  0  0  0  0  0  0  0  0
  -23.4600  -30.5140   21.6320 C   0  0  0  0  0  3  0  0  0  0  0  0
  -24.9030  -28.8570   20.2350 C   0  0  0  0  0  0  0  0  0  0  0  0
  -26.0380  -30.6600   21.5080 C   0  0  0  0  0  2  0  0  0  0  0  0
  -26.0980  -29.2260   20.8630 C   0  0  0  0  0  0  0  0  0  0  0  0
  -27.2190  -28.2510   20.8690 C   0  0  0  0  0  3  0  0  0  0  0  0
  -25.9410  -26.6770   19.6300 C   0  0  0  0  0  3  0  0  0  0  0  0
  -24.8600  -27.6070   19.5950 C   0  0  0  0  0  3  0  0  0  0  0  0
  -23.6980  -29.8070   20.2670 C   0  0  0  0  0  2  0  0  0  0  0  0
  -24.7410  -31.0620   22.1870 N   0  0  0  0  0  0  0  0  0  0  0  0
  -23.5610  -32.2250   23.7690 O   0  0  0  0  0  0  0  0  0  0  0  0
  -22.7420  -29.5440   22.6090 C   0  0  0  0  0  0  0  0  0  0  0  0
  -21.4100  -29.3890   22.4770 N   0  0  0  0  0  0  0  0  0  0  0  0
  -23.3930  -28.9290   23.4560 O   0  0  0  0  0  0  0  0  0  0  0  0
  -20.9340  -29.9350   21.7720 H   0  0  0  0  0  0  0  0  0  0  0  0
  -18.0200  -28.1820   22.9770 C   0  0  0  0  0  0  0  0  0  0  0  0
  -20.5780  -28.4610   23.2540 C   0  0  0  0  0  3  0  0  0  0  0  0
  -20.6850  -27.0200   22.7000 C   0  0  0  0  0  2  0  0  0  0  0  0
  -19.5930  -26.6820   21.6820 C   0  0  0  0  0  2  0  0  0  0  0  0
  -18.2060  -26.8280   22.3130 C   0  0  0  0  0  2  0  0  0  0  0  0
  -19.1320  -28.9550   23.4040 C   0  0  0  0  0  0  0  0  0  0  0  0
  -18.9010  -30.2200   23.9880 C   0  0  0  0  0  3  0  0  0  0  0  0
  -17.5920  -30.7110   24.1470 C   0  0  0  0  0  3  0  0  0  0  0  0
  -16.4950  -29.9370   23.7330 C   0  0  0  0  0  3  0  0  0  0  0  0
  -16.7100  -28.6740   23.1540 C   0  0  0  0  0  3  0  0  0  0  0  0
  -25.9200  -32.5640   23.8990 C   0  0  0  0  0  3  0  0  0  0  0  0
  -25.6030  -33.9680   24.2250 N   0  0  0  0  0  0  0  0  0  0  0  0
  -25.9170  -35.0270   23.4660 C   0  0  0  0  0  0  0  0  0  0  0  0
  -26.5610  -34.9250   22.4200 O   0  0  0  0  0  0  0  0  0  0  0  0
  -25.0260  -34.1200   25.0390 H   0  0  0  0  0  0  0  0  0  0  0  0
  -24.1670  -36.8190   23.1850 C   0  0  0  0  0  1  0  0  0  0  0  0
  -25.4450  -36.4190   23.9400 C   0  0  0  0  0  3  0  0  0  0  0  0
  -27.6070  -37.3280   24.6720 C   0  0  0  0  0  1  0  0  0  0  0  0
  -26.4660  -37.4770   23.7720 N   0  0  0  0  0  0  0  0  0  0  0  0
  -26.0620  -38.3970   23.9240 H   0  0  0  0  0  0  0  0  0  0  0  0
  -26.4120  -31.8110   25.1980 C   0  0  1  0  0  0  0  0  0  0  0  0
  -25.3010  -31.5980   26.2550 C   0  0  0  0  0  1  0  0  0  0  0  0
  -26.9910  -30.4220   24.8470 C   0  0  0  0  0  1  0  0  0  0  0  0
  -27.5580  -32.6080   25.8620 C   0  0  0  0  0  1  0  0  0  0  0  0
  1  2  2  0
  3  4  1  0
  3  5  1  0
  4  6  1  0
  4  1  1  0
  5 43  1  0
  5  2  1  0
  7  6  1  0
  8 13  1  0
  9 10  1  0
  9  8  1  0
 11 10  1  0
 11 18  1  0
 11 12  1  0
 13  7  1  0
 13 12  1  0
 14  7  2  0
 15 16  2  0
 16 35  1  0
 17 16  1  0
 17 20  1  0
 18 19  1  0
 18 15  1  0
 19 17  2  0
 20 21  1  0
 21 22  2  0
 23 26  1  0
 23 22  1  0
 24 23  2  0
 25 24  1  0
 25 20  2  0
 26 27  1  0
 27 28  1  0
 28 29  2  0
 30 29  1  0
 30 34  1  0
 31 30  2  0
 32 27  2  0
 32 31  1  0
 33 32  1  0
 35 36  1  0
 36 39  1  0
 36 38  1  0
 37 35  2  0
 40 41  1  0
 40 15  1  0
 42 40  1  0
 43 44  1  0
 45 56  2  0
 46 44  1  0
 46 51  1  0
 47 55  1  0
 47 57  1  0
 48 54  1  0
 48 50  1  0
 49 55  1  0
 50 51  2  0
 50 49  1  0
 52 46  2  0
 53 52  1  0
 53 48  2  0
 54 47  1  0
 55 45  1  0
 57 59  2  0
 58 57  1  0
 60 58  1  0
 61 70  2  0
 61 66  1  0
 62 58  1  0
 62 66  1  0
 63 62  1  0
 64 65  1  0
 64 63  1  0
 65 61  1  0
 66 67  2  0
 67 68  1  0
 69 68  2  0
 70 69  1  0
 71 45  1  0
 71 72  1  0
 71 81  1  0
 72 75  1  0
 73 77  1  0
 73 72  1  0
 74 73  2  0
 77 76  1  0
 79 80  1  0
 79 77  1  0
 79 78  1  0
 81 84  1  1
 81 82  1  0
 83 81  1  0
M  ISO  4   6 100   7 100  43 101  44 101
M  END
>  <TORSDO>  (80) 
F 18

>  <SCORE>  (80) 
-16.472

>  <name>  (80) 
81

>  <ligand_id>  (80) 
81

>  <original_smiles>  (80) 
[H]c1c([H])c([H])c2c(c1[H])C([H])([H])C([H])([H])C([H])([H])C2([H])N([H])C(=O)C1([H])N(C(=O)C([H])(N([H])C(=O)C([H])(N([H])C([H])([H])[H])C([H])([H])[H])C(C([H])([H])[H])(C([H])([H])[H])C([H])([H])[H])C([H])([H])c2c([H])c(OC([H])([H])C3([H])C([H])([H])C([H])([H])C([H])(C([H])([H])C(=O)N4C([H])([H])C([H])([H])C([H])([H])C([H])(n5nc(-c6c([H])c([H])c(Oc7c([H])c([H])c(F)c([H])c7F)c([H])c6[H])c(C(=O)N([H])[H])c5N([H])[H])C4([H])[H])C3([H])[H])c([H])c([H])c2C1([H])[H]

>  <smiles>  (80) 
[H]c1c([H])c([H])c2c(c1[H])C([H])([H])C([H])([H])C([H])([H])C2([H])N([H])C(=O)C1([H])N(C(=O)C([H])(N([H])C(=O)C([H])(N([H])C([H])([H])[H])C([H])([H])[H])C(C([H])([H])[H])(C([H])([H])[H])C([H])([H])[H])C([H])([H])c2c([H])c(OC([H])([H])C3([H])C([H])([H])C([H])([H])C([H])(C([H])([H])C(=O)N4C([H])([H])C([H])([H])C([H])([H])C([H])(n5nc(-c6c([H])c([H])c(Oc7c([H])c([H])c(F)c([H])c7F)c([H])c6[H])c(C(=O)N([H])[H])c5N([H])[H])C4([H])[H])C3([H])[H])c([H])c([H])c2C1([H])[H]

$$$$
82:0:0
     RDKit          3D

 88 96  0  0  1  0  0  0  0  0999 V2000
  -28.7020  -21.1670   20.2150 C   0  0  0  0  0  2  0  0  0  0  0  0
  -28.9490  -22.9470   20.2630 C   0  0  0  0  0  3  0  0  0  0  0  0
  -27.8900  -24.3860   20.1880 C   0  0  0  0  0  3  0  0  0  0  0  0
  -28.1470  -26.0030   20.2620 O   0  0  0  0  0  0  0  0  0  0  0  0
  -24.5920  -31.9350   23.2250 C   0  0  0  0  0  0  0  0  0  0  0  0
  -27.1240  -27.0780   20.2110 C   0  0  0  0  0  0  0  0  0  0  0  0
  -23.3790  -30.5290   21.6070 C   0  0  0  0  0  3  0  0  0  0  0  0
  -24.8160  -28.9290   20.1770 C   0  0  0  0  0  0  0  0  0  0  0  0
  -25.9410  -30.7630   21.4190 C   0  0  0  0  0  2  0  0  0  0  0  0
  -26.0090  -29.3500   20.7770 C   0  0  0  0  0  0  0  0  0  0  0  0
  -27.1600  -28.4470   20.7650 C   0  0  0  0  0  3  0  0  0  0  0  0
  -25.8980  -26.8000   19.5670 C   0  0  0  0  0  3  0  0  0  0  0  0
  -24.7840  -27.6750   19.5460 C   0  0  0  0  0  3  0  0  0  0  0  0
  -23.5910  -29.8390   20.2320 C   0  0  0  0  0  2  0  0  0  0  0  0
  -24.6590  -31.1030   22.1380 N   0  0  0  0  0  0  0  0  0  0  0  0
  -23.5060  -32.2220   23.7600 O   0  0  0  0  0  0  0  0  0  0  0  0
  -22.7020  -29.5340   22.5830 C   0  0  0  0  0  0  0  0  0  0  0  0
  -21.3720  -29.3530   22.4650 N   0  0  0  0  0  0  0  0  0  0  0  0
  -23.3780  -28.9210   23.4150 O   0  0  0  0  0  0  0  0  0  0  0  0
  -20.8780  -29.9040   21.7770 H   0  0  0  0  0  0  0  0  0  0  0  0
  -18.0070  -28.1000   22.9800 C   0  0  0  0  0  0  0  0  0  0  0  0
  -20.5620  -28.4150   23.2480 C   0  0  0  0  0  3  0  0  0  0  0  0
  -20.6870  -26.9740   22.7010 C   0  0  0  0  0  2  0  0  0  0  0  0
  -19.5950  -26.6130   21.6890 C   0  0  0  0  0  2  0  0  0  0  0  0
  -18.2080  -26.7450   22.3240 C   0  0  0  0  0  2  0  0  0  0  0  0
  -19.1100  -28.8920   23.3990 C   0  0  0  0  0  0  0  0  0  0  0  0
  -18.8620  -30.1580   23.9750 C   0  0  0  0  0  3  0  0  0  0  0  0
  -17.5460  -30.6340   24.1290 C   0  0  0  0  0  3  0  0  0  0  0  0
  -16.4600  -29.8430   23.7210 C   0  0  0  0  0  3  0  0  0  0  0  0
  -16.6910  -28.5760   23.1550 C   0  0  0  0  0  3  0  0  0  0  0  0
  -25.8700  -32.5820   23.8420 C   0  0  0  0  0  3  0  0  0  0  0  0
  -25.5550  -33.9830   24.1700 N   0  0  0  0  0  0  0  0  0  0  0  0
  -25.8830  -35.0390   23.4160 C   0  0  0  0  0  0  0  0  0  0  0  0
  -26.5480  -34.9390   22.3820 O   0  0  0  0  0  0  0  0  0  0  0  0
  -24.9650  -34.1360   24.9760 H   0  0  0  0  0  0  0  0  0  0  0  0
  -24.1610  -36.8450   23.0740 C   0  0  0  0  0  1  0  0  0  0  0  0
  -25.4000  -36.4300   23.8810 C   0  0  0  0  0  3  0  0  0  0  0  0
  -27.5380  -37.3060   24.7170 C   0  0  0  0  0  1  0  0  0  0  0  0
  -26.4380  -37.4790   23.7730 N   0  0  0  0  0  0  0  0  0  0  0  0
  -26.0320  -38.3980   23.9250 H   0  0  0  0  0  0  0  0  0  0  0  0
  -26.3890  -31.8230   25.1260 C   0  0  1  0  0  0  0  0  0  0  0  0
  -25.2970  -31.6000   26.1990 C   0  0  0  0  0  1  0  0  0  0  0  0
  -26.9650  -30.4380   24.7530 C   0  0  0  0  0  1  0  0  0  0  0  0
  -27.5410  -32.6220   25.7780 C   0  0  0  0  0  1  0  0  0  0  0  0
  -29.9110  -19.8530   20.3080 C   0  0  0  0  0  3  0  0  0  0  0  0
  -31.7280  -21.5050   21.5300 C   0  0  0  0  0  2  0  0  0  0  0  0
  -30.9690  -20.1890   21.3800 C   0  0  0  0  0  3  0  0  0  0  0  0
  -32.4580  -20.2960   21.0100 C   0  0  1  0  0  0  0  0  0  0  0  0
  -32.9650  -20.3640   19.5590 C   0  0  0  0  0  1  0  0  0  0  0  0
  -33.4950  -19.5960   21.8940 C   0  0  0  0  0  1  0  0  0  0  0  0
  -29.7220  -16.7730   20.4700 C   0  0  0  0  0  3  0  0  0  0  0  0
  -30.0880  -18.1240   20.0440 C   0  0  0  0  0  3  0  0  0  0  0  0
  -30.4460  -15.3500   20.1740 C   0  0  0  0  0  0  0  0  0  0  0  0
  -30.3580  -12.9100   19.3330 C   0  0  0  0  0  2  0  0  0  0  0  0
  -29.4370  -12.7910   18.0940 C   0  0  0  0  0  2  0  0  0  0  0  0
  -27.9880  -12.5100   18.5250 C   0  0  0  0  0  2  0  0  0  0  0  0
  -27.5590  -13.4470   19.6820 C   0  0  0  0  0  3  0  0  0  0  0  0
  -28.6130  -13.5770   20.8000 C   0  0  0  0  0  2  0  0  0  0  0  0
  -29.8630  -14.0520   20.1880 N   0  0  0  0  0  0  0  0  0  0  0  0
  -31.6410  -15.3080   19.8460 O   0  0  0  0  0  0  0  0  0  0  0  0
  -25.2080  -14.0050   20.4850 C   0  0  0  0  0  0  0  0  0  0  0  0
  -24.1460  -13.2330   20.8610 C   0  0  0  0  0  0  0  0  0  0  0  0
  -24.6010  -11.8810   20.8010 C   0  0  0  0  0  0  0  0  0  0  0  0
  -26.2370  -13.1270   20.2080 N   0  0  0  0  0  0  0  0  0  0  0  0
  -25.8870  -11.8390   20.4640 N   0  0  0  0  0  0  0  0  0  0  0  0
  -23.8660  -10.6220   20.9880 C   0  0  0  0  0  0  0  0  0  0  0  0
  -24.3050   -9.6350   21.8990 C   0  0  0  0  0  3  0  0  0  0  0  0
  -23.5720   -8.4410   22.0740 C   0  0  0  0  0  3  0  0  0  0  0  0
  -22.3840   -8.2260   21.3340 C   0  0  0  0  0  0  0  0  0  0  0  0
  -21.9640   -9.1960   20.4090 C   0  0  0  0  0  3  0  0  0  0  0  0
  -22.6980  -10.3810   20.2340 C   0  0  0  0  0  3  0  0  0  0  0  0
  -21.6210   -7.0850   21.4200 O   0  0  0  0  0  0  0  0  0  0  0  0
  -21.5830   -6.3270   22.5600 C   0  0  0  0  0  0  0  0  0  0  0  0
  -21.1670   -6.8610   23.8000 C   0  0  0  0  0  3  0  0  0  0  0  0
  -21.0790   -6.0260   24.9330 C   0  0  0  0  0  3  0  0  0  0  0  0
  -21.3910   -4.6580   24.8250 C   0  0  0  0  0  0  0  0  0  0  0  0
  -21.8000   -4.1230   23.5930 C   0  0  0  0  0  3  0  0  0  0  0  0
  -21.8920   -4.9530   22.4620 C   0  0  0  0  0  0  0  0  0  0  0  0
  -22.2650   -4.4280   21.2720 F   0  0  0  0  0  0  0  0  0  0  0  0
  -21.2970   -3.8570   25.9140 F   0  0  0  0  0  0  0  0  0  0  0  0
  -22.7560  -13.7140   21.1590 C   0  0  0  0  0  0  0  0  0  0  0  0
  -22.0400  -13.0130   22.0280 N   0  0  0  0  0  0  0  0  0  0  0  0
  -22.3170  -14.7480   20.6530 O   0  0  0  0  0  0  0  0  0  0  0  0
  -22.4200  -12.1850   22.4660 H   0  0  0  0  0  0  0  0  0  0  0  0
  -21.0980  -13.3010   22.2630 H   0  0  0  0  0  0  0  0  0  0  0  0
  -25.3890  -15.3790   20.3240 N   0  0  0  0  0  0  0  0  0  0  0  0
  -24.6460  -16.0550   20.4450 H   0  0  0  0  0  0  0  0  0  0  0  0
  -26.2520  -15.7960   19.9940 H   0  0  0  0  0  0  0  0  0  0  0  0
  1  2  1  0
  1 45  1  0
  3  4  1  0
  3  2  2  0
  5 16  2  0
  6  4  1  0
  6 11  1  0
  7 15  1  0
  7 17  1  0
  8 14  1  0
  8 10  1  0
  9 15  1  0
 10  9  1  0
 11 10  2  0
 12  6  2  0
 13 12  1  0
 13  8  2  0
 14  7  1  0
 15  5  1  0
 17 19  2  0
 18 17  1  0
 20 18  1  0
 21 30  2  0
 21 26  1  0
 22 18  1  0
 22 26  1  0
 23 22  1  0
 24 25  1  0
 24 23  1  0
 25 21  1  0
 26 27  2  0
 27 28  1  0
 29 28  2  0
 30 29  1  0
 31  5  1  0
 31 32  1  0
 31 41  1  0
 32 35  1  0
 33 37  1  0
 33 32  1  0
 34 33  2  0
 37 36  1  0
 39 37  1  0
 39 40  1  0
 39 38  1  0
 41 44  1  1
 41 42  1  0
 43 41  1  0
 45 52  1  0
 47 45  1  0
 47 46  1  0
 48 47  1  0
 48 46  1  0
 48 50  1  1
 49 48  1  0
 52 51  2  0
 53 59  1  0
 53 51  1  0
 54 59  1  0
 55 56  1  0
 55 54  1  0
 57 56  1  0
 57 64  1  0
 57 58  1  0
 59 58  1  0
 60 53  2  0
 61 62  2  0
 62 81  1  0
 63 62  1  0
 63 66  1  0
 64 65  1  0
 64 61  1  0
 65 63  2  0
 66 67  1  0
 67 68  2  0
 69 72  1  0
 69 68  1  0
 70 69  2  0
 71 70  1  0
 71 66  2  0
 72 73  1  0
 73 74  1  0
 74 75  2  0
 76 75  1  0
 76 80  1  0
 77 76  2  0
 78 73  2  0
 78 77  1  0
 79 78  1  0
 81 82  1  0
 82 85  1  0
 82 84  1  0
 83 81  2  0
 86 87  1  0
 86 61  1  0
 88 86  1  0
M  ISO  4   3 101   4 101  51 100  53 100
M  END
>  <TORSDO>  (81) 
F 21

>  <SCORE>  (81) 
-15.453

>  <name>  (81) 
82

>  <ligand_id>  (81) 
82

>  <original_smiles>  (81) 
[H]C(C(=O)N1C([H])([H])C([H])([H])C([H])([H])C([H])(n2nc(-c3c([H])c([H])c(Oc4c([H])c([H])c(F)c([H])c4F)c([H])c3[H])c(C(=O)N([H])[H])c2N([H])[H])C1([H])[H])=C([H])C([H])(C([H])([H])C([H])([H])C([H])([H])Oc1c([H])c([H])c2c(c1[H])C([H])([H])N(C(=O)C([H])(N([H])C(=O)C([H])(N([H])C([H])([H])[H])C([H])([H])[H])C(C([H])([H])[H])(C([H])([H])[H])C([H])([H])[H])C([H])(C(=O)N([H])C1([H])c3c([H])c([H])c([H])c([H])c3C([H])([H])C([H])([H])C1([H])[H])C2([H])[H])C1([H])C([H])([H])C1(C([H])([H])[H])C([H])([H])[H]

>  <smiles>  (81) 
[H]C(C(=O)N1C([H])([H])C([H])([H])C([H])([H])C([H])(n2nc(-c3c([H])c([H])c(Oc4c([H])c([H])c(F)c([H])c4F)c([H])c3[H])c(C(=O)N([H])[H])c2N([H])[H])C1([H])[H])=C([H])C([H])(C([H])([H])C([H])([H])C([H])([H])Oc1c([H])c([H])c2c(c1[H])C([H])([H])N(C(=O)C([H])(N([H])C(=O)C([H])(N([H])C([H])([H])[H])C([H])([H])[H])C(C([H])([H])[H])(C([H])([H])[H])C([H])([H])[H])C([H])(C(=O)N([H])C1([H])c3c([H])c([H])c([H])c([H])c3C([H])([H])C([H])([H])C1([H])[H])C2([H])[H])C1([H])C([H])([H])C1(C([H])([H])[H])C([H])([H])[H]

$$$$
83:0:0
     RDKit          3D

 95104  0  0  1  0  0  0  0  0999 V2000
  -28.6240  -20.9580   22.6190 C   0  0  0  0  0  2  0  0  0  0  0  0
  -32.2250  -20.1000   21.9310 C   0  0  0  0  0  2  0  0  0  0  0  0
  -29.8670  -21.1160   23.5050 C   0  0  0  0  0  2  0  0  0  0  0  0
  -32.4230  -21.1120   23.0460 C   0  0  0  0  0  2  0  0  0  0  0  0
  -28.9160  -19.9950   21.4520 C   0  0  0  0  0  2  0  0  0  0  0  0
  -31.2250  -21.0690   21.2630 C   0  0  0  0  0  3  0  0  0  0  0  0
  -31.0450  -21.6980   22.7030 C   0  0  1  0  0  0  0  0  0  0  0  0
  -29.9810  -20.5160   20.4540 C   0  0  2  0  0  0  0  0  0  0  0  0
  -31.0270  -23.2260   22.8860 C   0  0  0  0  0  1  0  0  0  0  0  0
  -29.2610  -21.6170   19.6430 N   0  0  0  0  0  4  0  0  0  0  0  0
  -28.2830  -21.5320   19.8740 H   0  0  0  0  0  0  0  0  0  0  0  0
  -29.3410  -21.3540   18.6720 H   0  0  0  0  0  0  0  0  0  0  0  0
  -29.5950  -23.1080   19.6880 C   0  0  0  0  0  2  0  0  0  0  0  0
  -28.4040  -24.1720   19.5350 C   0  0  0  0  0  2  0  0  0  0  0  0
  -28.7010  -25.5940   18.8760 C   0  0  0  0  0  2  0  0  0  0  0  0
  -28.4680  -26.8650   19.5810 O   0  0  0  0  0  0  0  0  0  0  0  0
  -24.5480  -31.7010   23.1260 C   0  0  0  0  0  0  0  0  0  0  0  0
  -27.2590  -27.5670   19.6020 C   0  0  0  0  0  0  0  0  0  0  0  0
  -23.3320  -30.3640   21.4330 C   0  0  0  0  0  3  0  0  0  0  0  0
  -24.7940  -29.0000   19.8250 C   0  0  0  0  0  0  0  0  0  0  0  0
  -25.8290  -30.8500   21.1510 C   0  0  0  0  0  2  0  0  0  0  0  0
  -25.9530  -29.5230   20.4110 C   0  0  0  0  0  0  0  0  0  0  0  0
  -27.1770  -28.8080   20.3030 C   0  0  0  0  0  3  0  0  0  0  0  0
  -26.0770  -27.0850   18.9980 C   0  0  0  0  0  3  0  0  0  0  0  0
  -24.8560  -27.7890   19.1120 C   0  0  0  0  0  3  0  0  0  0  0  0
  -23.5110  -29.7920   20.0000 C   0  0  0  0  0  2  0  0  0  0  0  0
  -24.5910  -30.9850   21.9630 N   0  0  0  0  0  0  0  0  0  0  0  0
  -23.4830  -31.8750   23.7350 O   0  0  0  0  0  0  0  0  0  0  0  0
  -22.7720  -29.2490   22.3440 C   0  0  0  0  0  0  0  0  0  0  0  0
  -21.4650  -28.9640   22.2170 N   0  0  0  0  0  0  0  0  0  0  0  0
  -23.5110  -28.6450   23.1250 O   0  0  0  0  0  0  0  0  0  0  0  0
  -20.9200  -29.5040   21.5590 H   0  0  0  0  0  0  0  0  0  0  0  0
  -18.2290  -27.4100   22.6350 C   0  0  0  0  0  0  0  0  0  0  0  0
  -20.7440  -27.9200   22.9460 C   0  0  0  0  0  3  0  0  0  0  0  0
  -20.9990  -26.5290   22.3210 C   0  0  0  0  0  2  0  0  0  0  0  0
  -19.9450  -26.1370   21.2790 C   0  0  0  0  0  2  0  0  0  0  0  0
  -18.5500  -26.1140   21.9090 C   0  0  0  0  0  2  0  0  0  0  0  0
  -19.2600  -28.2650   23.1070 C   0  0  0  0  0  0  0  0  0  0  0  0
  -18.9080  -29.4740   23.7470 C   0  0  0  0  0  3  0  0  0  0  0  0
  -17.5570  -29.8350   23.9150 C   0  0  0  0  0  3  0  0  0  0  0  0
  -16.5400  -28.9800   23.4560 C   0  0  0  0  0  3  0  0  0  0  0  0
  -16.8770  -27.7690   22.8230 C   0  0  0  0  0  3  0  0  0  0  0  0
  -25.8280  -32.3510   23.7340 C   0  0  0  0  0  3  0  0  0  0  0  0
  -25.4970  -33.7400   24.0910 N   0  0  0  0  0  0  0  0  0  0  0  0
  -25.8100  -34.8100   23.3460 C   0  0  0  0  0  0  0  0  0  0  0  0
  -26.4710  -34.7360   22.3080 O   0  0  0  0  0  0  0  0  0  0  0  0
  -24.8990  -33.8730   24.8920 H   0  0  0  0  0  0  0  0  0  0  0  0
  -24.0470  -36.5810   23.0410 C   0  0  0  0  0  1  0  0  0  0  0  0
  -25.3040  -36.1840   23.8330 C   0  0  0  0  0  3  0  0  0  0  0  0
  -27.4280  -37.0910   24.6590 C   0  0  0  0  0  1  0  0  0  0  0  0
  -26.3160  -37.2560   23.7270 N   0  0  0  0  0  0  0  0  0  0  0  0
  -25.8950  -38.1650   23.8980 H   0  0  0  0  0  0  0  0  0  0  0  0
  -26.3920  -31.5720   24.9850 C   0  0  1  0  0  0  0  0  0  0  0  0
  -25.3250  -31.2720   26.0640 C   0  0  0  0  0  1  0  0  0  0  0  0
  -27.0080  -30.2200   24.5530 C   0  0  0  0  0  1  0  0  0  0  0  0
  -27.5340  -32.3820   25.6400 C   0  0  0  0  0  1  0  0  0  0  0  0
  -30.3190  -19.2610   19.4740 C   0  0  0  0  0  2  0  0  0  0  0  0
  -31.0710  -17.8550   19.7920 C   0  0  0  0  0  2  0  0  0  0  0  0
  -30.3930  -16.5060   20.3560 C   0  0  0  0  0  2  0  0  0  0  0  0
  -31.1680  -15.1260   20.1010 C   0  0  0  0  0  0  0  0  0  0  0  0
  -30.9570  -12.8000   19.2170 C   0  0  0  0  0  2  0  0  0  0  0  0
  -30.0340  -12.8310   17.9750 C   0  0  0  0  0  2  0  0  0  0  0  0
  -28.5560  -12.6990   18.3920 C   0  0  0  0  0  2  0  0  0  0  0  0
  -28.1790  -13.6540   19.5540 C   0  0  0  0  0  3  0  0  0  0  0  0
  -29.2250  -13.6160   20.6880 C   0  0  0  0  0  2  0  0  0  0  0  0
  -30.5390  -13.9040   20.1060 N   0  0  0  0  0  0  0  0  0  0  0  0
  -32.3490  -15.1970   19.7430 O   0  0  0  0  0  0  0  0  0  0  0  0
  -25.8080  -14.2970   20.2940 C   0  0  0  0  0  0  0  0  0  0  0  0
  -24.7270  -13.5430   20.6680 C   0  0  0  0  0  0  0  0  0  0  0  0
  -25.1640  -12.1850   20.6430 C   0  0  0  0  0  0  0  0  0  0  0  0
  -26.8320  -13.3950   20.0550 N   0  0  0  0  0  0  0  0  0  0  0  0
  -26.4530  -12.1200   20.3280 N   0  0  0  0  0  0  0  0  0  0  0  0
  -24.4130  -10.9370   20.8400 C   0  0  0  0  0  0  0  0  0  0  0  0
  -24.7720  -10.0020   21.8370 C   0  0  0  0  0  3  0  0  0  0  0  0
  -24.0200   -8.8220   22.0170 C   0  0  0  0  0  3  0  0  0  0  0  0
  -22.8930   -8.5670   21.1990 C   0  0  0  0  0  0  0  0  0  0  0  0
  -22.5540   -9.4870   20.1920 C   0  0  0  0  0  3  0  0  0  0  0  0
  -23.3090  -10.6590   20.0110 C   0  0  0  0  0  3  0  0  0  0  0  0
  -22.1180   -7.4370   21.2850 O   0  0  0  0  0  0  0  0  0  0  0  0
  -21.9140   -6.7950   22.4800 C   0  0  0  0  0  0  0  0  0  0  0  0
  -21.3260   -7.4480   23.5850 C   0  0  0  0  0  3  0  0  0  0  0  0
  -21.0710   -6.7320   24.7730 C   0  0  0  0  0  3  0  0  0  0  0  0
  -21.3980   -5.3650   24.8520 C   0  0  0  0  0  0  0  0  0  0  0  0
  -21.9800   -4.7110   23.7520 C   0  0  0  0  0  3  0  0  0  0  0  0
  -22.2360   -5.4260   22.5670 C   0  0  0  0  0  0  0  0  0  0  0  0
  -22.7780   -4.7870   21.5030 F   0  0  0  0  0  0  0  0  0  0  0  0
  -21.1460   -4.6730   25.9870 F   0  0  0  0  0  0  0  0  0  0  0  0
  -23.3430  -14.0490   20.9440 C   0  0  0  0  0  0  0  0  0  0  0  0
  -22.6080  -13.3710   21.8210 N   0  0  0  0  0  0  0  0  0  0  0  0
  -22.9220  -15.0780   20.4220 O   0  0  0  0  0  0  0  0  0  0  0  0
  -22.9660  -12.5360   22.2610 H   0  0  0  0  0  0  0  0  0  0  0  0
  -21.6790  -13.6890   22.0530 H   0  0  0  0  0  0  0  0  0  0  0  0
  -26.0030  -15.6630   20.1130 N   0  0  0  0  0  0  0  0  0  0  0  0
  -25.2550  -16.3410   20.2140 H   0  0  0  0  0  0  0  0  0  0  0  0
  -26.8690  -16.0750   19.7890 H   0  0  0  0  0  0  0  0  0  0  0  0
  1  3  1  0
  2  4  1  0
  5  1  1  0
  6  2  1  0
  6  7  1  0
  7  9  1  6
  7  4  1  0
  7  3  1  0
  8 57  1  6
  8  6  1  0
  8  5  1  0
 10 13  1  0
 10 11  1  0
 10  8  1  0
 12 10  1  0
 14 13  1  0
 15 14  1  0
 15 16  1  0
 16 18  1  0
 17 28  2  0
 18 23  1  0
 19 27  1  0
 19 29  1  0
 20 26  1  0
 20 22  1  0
 21 27  1  0
 22 21  1  0
 23 22  2  0
 24 25  1  0
 24 18  2  0
 25 20  2  0
 26 19  1  0
 27 17  1  0
 29 31  2  0
 30 29  1  0
 32 30  1  0
 33 42  2  0
 33 38  1  0
 34 30  1  0
 34 38  1  0
 35 34  1  0
 36 37  1  0
 36 35  1  0
 37 33  1  0
 38 39  2  0
 39 40  1  0
 41 40  2  0
 42 41  1  0
 43 17  1  0
 43 44  1  0
 43 53  1  0
 44 47  1  0
 45 49  1  0
 45 44  1  0
 46 45  2  0
 49 48  1  0
 51 49  1  0
 51 52  1  0
 51 50  1  0
 53 56  1  1
 53 54  1  0
 55 53  1  0
 57 58  1  0
 58 59  1  0
 60 66  1  0
 60 59  1  0
 61 66  1  0
 62 63  1  0
 62 61  1  0
 64 63  1  0
 64 71  1  0
 64 65  1  0
 66 65  1  0
 67 60  2  0
 68 69  2  0
 69 88  1  0
 70 69  1  0
 70 73  1  0
 71 68  1  0
 71 72  1  0
 72 70  2  0
 73 74  1  0
 74 75  2  0
 76 79  1  0
 76 75  1  0
 77 76  2  0
 78 77  1  0
 78 73  2  0
 79 80  1  0
 80 85  2  0
 80 81  1  0
 81 82  2  0
 82 83  1  0
 83 87  1  0
 84 83  2  0
 85 84  1  0
 86 85  1  0
 88 89  1  0
 89 92  1  0
 89 91  1  0
 90 88  2  0
 93 94  1  0
 93 68  1  0
 95 93  1  0
M  ISO  4  15 101  16 101  59 100  60 100
M  END
>  <TORSDO>  (82) 
F 23

>  <SCORE>  (82) 
-9.307

>  <name>  (82) 
83

>  <ligand_id>  (82) 
83

>  <original_smiles>  (82) 
[H]c1c([H])c([H])c2c(c1[H])C([H])([H])C([H])([H])C([H])([H])C2([H])N([H])C(=O)C1([H])N(C(=O)C([H])(N([H])C(=O)C([H])(N([H])C([H])([H])[H])C([H])([H])[H])C(C([H])([H])[H])(C([H])([H])[H])C([H])([H])[H])C([H])([H])c2c([H])c(OC([H])([H])C([H])([H])C([H])([H])[N+]([H])([H])C3(C([H])([H])C([H])([H])C([H])([H])C(=O)N4C([H])([H])C([H])([H])C([H])([H])C([H])(n5nc(-c6c([H])c([H])c(Oc7c([H])c([H])c(F)c([H])c7F)c([H])c6[H])c(C(=O)N([H])[H])c5N([H])[H])C4([H])[H])C([H])([H])C([H])([H])C([H])([H])C4(C([H])([H])[H])C([H])([H])C([H])([H])C43[H])c([H])c([H])c2C1([H])[H]

>  <smiles>  (82) 
[H]c1c([H])c([H])c2c(c1[H])C([H])([H])C([H])([H])C([H])([H])C2([H])N([H])C(=O)C1([H])N(C(=O)C([H])(N([H])C(=O)C([H])(N([H])C([H])([H])[H])C([H])([H])[H])C(C([H])([H])[H])(C([H])([H])[H])C([H])([H])[H])C([H])([H])c2c([H])c(OC([H])([H])C([H])([H])C([H])([H])[N+]([H])([H])C3(C([H])([H])C([H])([H])C([H])([H])C(=O)N4C([H])([H])C([H])([H])C([H])([H])C([H])(n5nc(-c6c([H])c([H])c(Oc7c([H])c([H])c(F)c([H])c7F)c([H])c6[H])c(C(=O)N([H])[H])c5N([H])[H])C4([H])[H])C([H])([H])C([H])([H])C([H])([H])C4(C([H])([H])[H])C([H])([H])C([H])([H])C43[H])c([H])c([H])c2C1([H])[H]

$$$$
84:0:0
     RDKit          3D

 90 99  0  0  1  0  0  0  0  0999 V2000
  -31.3630  -23.6530   21.3060 C   0  0  0  0  0  2  0  0  0  0  0  0
  -30.3340  -23.1090   22.2840 C   0  0  0  0  0  2  0  0  0  0  0  0
  -29.1180  -21.1830   19.0680 C   0  0  0  0  0  2  0  0  0  0  0  0
  -30.5240  -24.5350   20.3920 C   0  0  0  0  0  2  0  0  0  0  0  0
  -29.4670  -22.7300   18.9540 C   0  0  0  0  0  2  0  0  0  0  0  0
  -28.6650  -21.3790   21.4030 C   0  0  0  0  0  2  0  0  0  0  0  0
  -29.0320  -22.9220   21.4760 C   0  0  0  0  0  3  0  0  0  0  0  0
  -29.4650  -20.4670   20.4090 C   0  0  0  0  0  3  0  0  0  0  0  0
  -29.1980  -23.7730   20.1400 C   0  0  1  0  0  0  0  0  0  0  0  0
  -29.1190  -18.8720   20.5460 C   0  0  0  0  0  2  0  0  0  0  0  0
  -30.1030  -17.6350   20.1480 C   0  0  0  0  0  3  0  0  0  0  0  0
  -29.7050  -16.1200   20.6050 C   0  0  0  0  0  3  0  0  0  0  0  0
  -30.5040  -14.8000   20.1300 C   0  0  0  0  0  0  0  0  0  0  0  0
  -30.3060  -12.5230   19.0930 C   0  0  0  0  0  2  0  0  0  0  0  0
  -29.3230  -12.6060   17.9020 C   0  0  0  0  0  2  0  0  0  0  0  0
  -27.8680  -12.4210   18.3770 C   0  0  0  0  0  2  0  0  0  0  0  0
  -27.5340  -13.2980   19.6110 C   0  0  0  0  0  3  0  0  0  0  0  0
  -28.6290  -13.1970   20.6960 C   0  0  0  0  0  2  0  0  0  0  0  0
  -29.9110  -13.5560   20.0770 N   0  0  0  0  0  0  0  0  0  0  0  0
  -31.6540  -14.9320   19.6980 O   0  0  0  0  0  0  0  0  0  0  0  0
  -25.1720  -13.8910   20.4240 C   0  0  0  0  0  0  0  0  0  0  0  0
  -24.1180  -13.1160   20.8230 C   0  0  0  0  0  0  0  0  0  0  0  0
  -24.5760  -11.7640   20.7660 C   0  0  0  0  0  0  0  0  0  0  0  0
  -26.2050  -13.0110   20.1450 N   0  0  0  0  0  0  0  0  0  0  0  0
  -25.8560  -11.7260   20.4130 N   0  0  0  0  0  0  0  0  0  0  0  0
  -23.8540  -10.5020   20.9700 C   0  0  0  0  0  0  0  0  0  0  0  0
  -24.3020   -9.5360   21.8980 C   0  0  0  0  0  3  0  0  0  0  0  0
  -23.5800   -8.3380   22.0890 C   0  0  0  0  0  3  0  0  0  0  0  0
  -22.3950   -8.0990   21.3540 C   0  0  0  0  0  0  0  0  0  0  0  0
  -21.9650   -9.0530   20.4150 C   0  0  0  0  0  3  0  0  0  0  0  0
  -22.6880  -10.2420   20.2210 C   0  0  0  0  0  3  0  0  0  0  0  0
  -21.6420   -6.9540   21.4560 O   0  0  0  0  0  0  0  0  0  0  0  0
  -21.5980   -6.2220   22.6150 C   0  0  0  0  0  0  0  0  0  0  0  0
  -21.1760   -6.7860   23.8380 C   0  0  0  0  0  3  0  0  0  0  0  0
  -21.0810   -5.9800   24.9900 C   0  0  0  0  0  3  0  0  0  0  0  0
  -21.3970   -4.6110   24.9190 C   0  0  0  0  0  0  0  0  0  0  0  0
  -21.8120   -4.0450   23.7010 C   0  0  0  0  0  3  0  0  0  0  0  0
  -21.9090   -4.8490   22.5510 C   0  0  0  0  0  0  0  0  0  0  0  0
  -22.2900   -4.2940   21.3750 F   0  0  0  0  0  0  0  0  0  0  0  0
  -21.2980   -3.8340   26.0240 F   0  0  0  0  0  0  0  0  0  0  0  0
  -22.7310  -13.5930   21.1450 C   0  0  0  0  0  0  0  0  0  0  0  0
  -22.0300  -12.8910   22.0280 N   0  0  0  0  0  0  0  0  0  0  0  0
  -22.2780  -14.6250   20.6480 O   0  0  0  0  0  0  0  0  0  0  0  0
  -22.4090  -12.0560   22.4500 H   0  0  0  0  0  0  0  0  0  0  0  0
  -21.1010  -13.1920   22.2850 H   0  0  0  0  0  0  0  0  0  0  0  0
  -25.3340  -15.2620   20.2540 N   0  0  0  0  0  0  0  0  0  0  0  0
  -24.5760  -15.9190   20.4020 H   0  0  0  0  0  0  0  0  0  0  0  0
  -26.1770  -15.7040   19.9100 H   0  0  0  0  0  0  0  0  0  0  0  0
  -28.0830  -24.9370   19.8270 C   0  0  0  0  0  2  0  0  0  0  0  0
  -28.2830  -26.4090   20.1100 O   0  0  0  0  0  0  0  0  0  0  0  0
  -24.6190  -31.8630   23.2200 C   0  0  0  0  0  0  0  0  0  0  0  0
  -27.1810  -27.3020   20.0690 C   0  0  0  0  0  0  0  0  0  0  0  0
  -23.3970  -30.4950   21.5690 C   0  0  0  0  0  3  0  0  0  0  0  0
  -24.8290  -28.9600   20.1020 C   0  0  0  0  0  0  0  0  0  0  0  0
  -25.9400  -30.7950   21.3710 C   0  0  0  0  0  2  0  0  0  0  0  0
  -26.0080  -29.4250   20.6970 C   0  0  0  0  0  0  0  0  0  0  0  0
  -27.1860  -28.6080   20.6680 C   0  0  0  0  0  3  0  0  0  0  0  0
  -25.9740  -26.9080   19.4440 C   0  0  0  0  0  3  0  0  0  0  0  0
  -24.8170  -27.7120   19.4650 C   0  0  0  0  0  3  0  0  0  0  0  0
  -23.5970  -29.8430   20.1770 C   0  0  0  0  0  2  0  0  0  0  0  0
  -24.6720  -31.0690   22.1100 N   0  0  0  0  0  0  0  0  0  0  0  0
  -23.5400  -32.1360   23.7680 O   0  0  0  0  0  0  0  0  0  0  0  0
  -22.7370  -29.4660   22.5200 C   0  0  0  0  0  0  0  0  0  0  0  0
  -21.4090  -29.2950   22.4020 N   0  0  0  0  0  0  0  0  0  0  0  0
  -23.4200  -28.8260   23.3240 O   0  0  0  0  0  0  0  0  0  0  0  0
  -20.9170  -29.8620   21.7260 H   0  0  0  0  0  0  0  0  0  0  0  0
  -18.0330  -28.0910   22.9100 C   0  0  0  0  0  0  0  0  0  0  0  0
  -20.5940  -28.3470   23.1650 C   0  0  0  0  0  3  0  0  0  0  0  0
  -20.6920  -26.9230   22.5710 C   0  0  0  0  0  2  0  0  0  0  0  0
  -19.5820  -26.6140   21.5590 C   0  0  0  0  0  2  0  0  0  0  0  0
  -18.2060  -26.7510   22.2140 C   0  0  0  0  0  2  0  0  0  0  0  0
  -19.1560  -28.8470   23.3430 C   0  0  0  0  0  0  0  0  0  0  0  0
  -18.9400  -30.1010   23.9550 C   0  0  0  0  0  3  0  0  0  0  0  0
  -17.6370  -30.6000   24.1370 C   0  0  0  0  0  3  0  0  0  0  0  0
  -16.5300  -29.8410   23.7200 C   0  0  0  0  0  3  0  0  0  0  0  0
  -16.7290  -28.5870   23.1130 C   0  0  0  0  0  3  0  0  0  0  0  0
  -25.9080  -32.4840   23.8410 C   0  0  0  0  0  3  0  0  0  0  0  0
  -26.4290  -31.6950   25.1060 C   0  0  1  0  0  0  0  0  0  0  0  0
  -25.3420  -31.4500   26.1780 C   0  0  0  0  0  1  0  0  0  0  0  0
  -27.0030  -30.3190   24.6960 C   0  0  0  0  0  1  0  0  0  0  0  0
  -27.5870  -32.4760   25.7690 C   0  0  0  0  0  1  0  0  0  0  0  0
  -25.6050  -33.8780   24.1930 N   0  0  0  0  0  0  0  0  0  0  0  0
  -25.9130  -34.9400   23.4360 C   0  0  0  0  0  0  0  0  0  0  0  0
  -26.5520  -34.8470   22.3840 O   0  0  0  0  0  0  0  0  0  0  0  0
  -25.0350  -34.0230   25.0130 H   0  0  0  0  0  0  0  0  0  0  0  0
  -24.1610  -36.7260   23.1680 C   0  0  0  0  0  1  0  0  0  0  0  0
  -25.4390  -36.3230   23.9230 C   0  0  0  0  0  3  0  0  0  0  0  0
  -27.6020  -37.2170   24.6670 C   0  0  0  0  0  1  0  0  0  0  0  0
  -26.4600  -37.3830   23.7720 N   0  0  0  0  0  0  0  0  0  0  0  0
  -26.0560  -38.3000   23.9410 H   0  0  0  0  0  0  0  0  0  0  0  0
  1  2  1  0
  3  8  1  0
  4  1  1  0
  5  3  1  0
  5  9  1  0
  7  6  1  0
  7  2  1  0
  8 10  1  0
  8  6  1  0
  9 49  1  6
  9  4  1  0
  9  7  1  0
 11 10  1  0
 11 12  2  0
 13 12  1  0
 14 19  1  0
 15 16  1  0
 15 14  1  0
 17 16  1  0
 17 24  1  0
 17 18  1  0
 19 13  1  0
 19 18  1  0
 20 13  2  0
 21 22  2  0
 22 41  1  0
 23 22  1  0
 23 26  1  0
 24 25  1  0
 24 21  1  0
 25 23  2  0
 26 27  1  0
 27 28  2  0
 29 32  1  0
 29 28  1  0
 30 29  2  0
 31 30  1  0
 31 26  2  0
 32 33  1  0
 33 34  1  0
 34 35  2  0
 36 35  1  0
 36 40  1  0
 37 36  2  0
 38 33  2  0
 38 37  1  0
 39 38  1  0
 41 42  1  0
 42 45  1  0
 42 44  1  0
 43 41  2  0
 46 47  1  0
 46 21  1  0
 48 46  1  0
 49 50  1  0
 51 62  2  0
 52 50  1  0
 52 57  1  0
 53 61  1  0
 53 63  1  0
 54 60  1  0
 54 56  1  0
 55 61  1  0
 56 55  1  0
 57 56  2  0
 58 59  1  0
 58 52  2  0
 59 54  2  0
 60 53  1  0
 61 51  1  0
 63 65  2  0
 64 63  1  0
 66 64  1  0
 67 76  2  0
 67 72  1  0
 68 64  1  0
 68 72  1  0
 69 68  1  0
 70 71  1  0
 70 69  1  0
 71 67  1  0
 72 73  2  0
 73 74  1  0
 75 74  2  0
 76 75  1  0
 77 51  1  0
 77 82  1  0
 77 78  1  0
 78 81  1  1
 78 79  1  0
 80 78  1  0
 82 85  1  0
 83 87  1  0
 83 82  1  0
 84 83  2  0
 87 86  1  0
 89 87  1  0
 89 90  1  0
 89 88  1  0
M  ISO  4  12 100  13 100  49 101  50 101
M  END
>  <TORSDO>  (83) 
F 20

>  <SCORE>  (83) 
-13.676

>  <name>  (83) 
84

>  <ligand_id>  (83) 
84

>  <original_smiles>  (83) 
[H]c1c([H])c([H])c2c(c1[H])C([H])([H])C([H])([H])C([H])([H])C2([H])N([H])C(=O)C1([H])N(C(=O)C([H])(N([H])C(=O)C([H])(N([H])C([H])([H])[H])C([H])([H])[H])C(C([H])([H])[H])(C([H])([H])[H])C([H])([H])[H])C([H])([H])c2c([H])c(OC([H])([H])C34C([H])([H])C([H])([H])C([H])([H])C3([H])C([H])([H])C([H])(C([H])([H])C([H])([H])C([H])([H])C(=O)N3C([H])([H])C([H])([H])C([H])([H])C([H])(n5nc(-c6c([H])c([H])c(Oc7c([H])c([H])c(F)c([H])c7F)c([H])c6[H])c(C(=O)N([H])[H])c5N([H])[H])C3([H])[H])C([H])([H])C4([H])[H])c([H])c([H])c2C1([H])[H]

>  <smiles>  (83) 
[H]c1c([H])c([H])c2c(c1[H])C([H])([H])C([H])([H])C([H])([H])C2([H])N([H])C(=O)C1([H])N(C(=O)C([H])(N([H])C(=O)C([H])(N([H])C([H])([H])[H])C([H])([H])[H])C(C([H])([H])[H])(C([H])([H])[H])C([H])([H])[H])C([H])([H])c2c([H])c(OC([H])([H])C34C([H])([H])C([H])([H])C([H])([H])C3([H])C([H])([H])C([H])(C([H])([H])C([H])([H])C([H])([H])C(=O)N3C([H])([H])C([H])([H])C([H])([H])C([H])(n5nc(-c6c([H])c([H])c(Oc7c([H])c([H])c(F)c([H])c7F)c([H])c6[H])c(C(=O)N([H])[H])c5N([H])[H])C3([H])[H])C([H])([H])C4([H])[H])c([H])c([H])c2C1([H])[H]

$$$$
85:0:0
     RDKit          3D

 83 91  0  0  1  0  0  0  0  0999 V2000
  -27.9370  -24.0660   20.2040 C   0  0  0  0  0  3  0  0  0  0  0  0
  -28.1310  -25.7680   20.2920 O   0  0  0  0  0  0  0  0  0  0  0  0
  -24.5810  -31.8970   23.2500 C   0  0  0  0  0  0  0  0  0  0  0  0
  -27.1270  -26.9190   20.2430 C   0  0  0  0  0  0  0  0  0  0  0  0
  -23.3870  -30.4940   21.6210 C   0  0  0  0  0  3  0  0  0  0  0  0
  -24.8340  -28.8690   20.1980 C   0  0  0  0  0  0  0  0  0  0  0  0
  -25.9590  -30.6790   21.4730 C   0  0  0  0  0  2  0  0  0  0  0  0
  -26.0280  -29.2560   20.8170 C   0  0  0  0  0  0  0  0  0  0  0  0
  -27.1640  -28.3070   20.8080 C   0  0  0  0  0  3  0  0  0  0  0  0
  -25.8970  -26.7130   19.5740 C   0  0  0  0  0  3  0  0  0  0  0  0
  -24.8010  -27.6210   19.5530 C   0  0  0  0  0  3  0  0  0  0  0  0
  -23.6170  -29.8020   20.2470 C   0  0  0  0  0  2  0  0  0  0  0  0
  -24.6650  -31.0540   22.1670 N   0  0  0  0  0  0  0  0  0  0  0  0
  -23.4910  -32.1890   23.7720 O   0  0  0  0  0  0  0  0  0  0  0  0
  -22.6890  -29.5070   22.5950 C   0  0  0  0  0  0  0  0  0  0  0  0
  -21.3620  -29.3220   22.4600 N   0  0  0  0  0  0  0  0  0  0  0  0
  -23.3530  -28.9040   23.4430 O   0  0  0  0  0  0  0  0  0  0  0  0
  -20.8770  -29.8600   21.7550 H   0  0  0  0  0  0  0  0  0  0  0  0
  -17.9960  -28.0500   22.9490 C   0  0  0  0  0  0  0  0  0  0  0  0
  -20.5470  -28.3800   23.2360 C   0  0  0  0  0  3  0  0  0  0  0  0
  -20.6870  -26.9410   22.6860 C   0  0  0  0  0  2  0  0  0  0  0  0
  -19.6050  -26.5780   21.6630 C   0  0  0  0  0  2  0  0  0  0  0  0
  -18.2130  -26.6980   22.2900 C   0  0  0  0  0  2  0  0  0  0  0  0
  -19.0920  -28.8460   23.3790 C   0  0  0  0  0  0  0  0  0  0  0  0
  -18.8320  -30.1060   23.9600 C   0  0  0  0  0  3  0  0  0  0  0  0
  -17.5130  -30.5730   24.1120 C   0  0  0  0  0  3  0  0  0  0  0  0
  -16.4330  -29.7750   23.6960 C   0  0  0  0  0  3  0  0  0  0  0  0
  -16.6750  -28.5150   23.1210 C   0  0  0  0  0  3  0  0  0  0  0  0
  -25.8480  -32.5510   23.8800 C   0  0  0  0  0  3  0  0  0  0  0  0
  -26.3510  -31.8000   25.1760 C   0  0  1  0  0  0  0  0  0  0  0  0
  -25.2460  -31.5760   26.2360 C   0  0  0  0  0  1  0  0  0  0  0  0
  -26.9420  -30.4170   24.8210 C   0  0  0  0  0  1  0  0  0  0  0  0
  -27.4920  -32.6070   25.8380 C   0  0  0  0  0  1  0  0  0  0  0  0
  -25.5260  -33.9530   24.2060 N   0  0  0  0  0  0  0  0  0  0  0  0
  -25.8280  -35.0100   23.4400 C   0  0  0  0  0  0  0  0  0  0  0  0
  -26.4650  -34.9090   22.3900 O   0  0  0  0  0  0  0  0  0  0  0  0
  -24.9540  -34.1030   25.0230 H   0  0  0  0  0  0  0  0  0  0  0  0
  -24.0720  -36.7960   23.1550 C   0  0  0  0  0  1  0  0  0  0  0  0
  -25.3500  -36.4010   23.9130 C   0  0  0  0  0  3  0  0  0  0  0  0
  -27.5030  -37.3210   24.6570 C   0  0  0  0  0  1  0  0  0  0  0  0
  -26.3680  -37.4630   23.7490 N   0  0  0  0  0  0  0  0  0  0  0  0
  -25.9580  -38.3810   23.8960 H   0  0  0  0  0  0  0  0  0  0  0  0
  -28.9870  -22.5040   20.3140 C   0  0  0  0  0  3  0  0  0  0  0  0
  -29.0450  -19.8010   19.1460 C   0  0  0  0  0  2  0  0  0  0  0  0
  -29.6550  -19.0240   20.3040 C   0  0  0  0  0  3  0  0  0  0  0  0
  -28.7490  -20.6590   20.3650 C   0  0  0  0  0  3  0  0  0  0  0  0
  -29.4220  -17.1830   20.4380 C   0  0  0  0  0  2  0  0  0  0  0  0
  -30.3090  -15.6040   20.1910 C   0  0  0  0  0  0  0  0  0  0  0  0
  -30.3890  -13.1130   19.2990 C   0  0  0  0  0  2  0  0  0  0  0  0
  -29.4470  -12.8480   18.0910 C   0  0  0  0  0  2  0  0  0  0  0  0
  -28.0210  -12.5150   18.5620 C   0  0  0  0  0  2  0  0  0  0  0  0
  -27.5660  -13.4610   19.6980 C   0  0  0  0  0  3  0  0  0  0  0  0
  -28.6340  -13.6560   20.7950 C   0  0  0  0  0  2  0  0  0  0  0  0
  -29.8270  -14.2410   20.1530 N   0  0  0  0  0  0  0  0  0  0  0  0
  -31.5210  -15.6100   19.9100 O   0  0  0  0  0  0  0  0  0  0  0  0
  -25.2200  -13.9620   20.5470 C   0  0  0  0  0  0  0  0  0  0  0  0
  -24.1770  -13.1650   20.9250 C   0  0  0  0  0  0  0  0  0  0  0  0
  -24.6560  -11.8200   20.8430 C   0  0  0  0  0  0  0  0  0  0  0  0
  -26.2620  -13.1060   20.2430 N   0  0  0  0  0  0  0  0  0  0  0  0
  -25.9380  -11.8090   20.4900 N   0  0  0  0  0  0  0  0  0  0  0  0
  -23.9440  -10.5470   21.0200 C   0  0  0  0  0  0  0  0  0  0  0  0
  -24.3730   -9.5830   21.9600 C   0  0  0  0  0  3  0  0  0  0  0  0
  -23.6570   -8.3770   22.1260 C   0  0  0  0  0  3  0  0  0  0  0  0
  -22.4980   -8.1270   21.3550 C   0  0  0  0  0  0  0  0  0  0  0  0
  -22.0880   -9.0790   20.4050 C   0  0  0  0  0  3  0  0  0  0  0  0
  -22.8050  -10.2760   20.2370 C   0  0  0  0  0  3  0  0  0  0  0  0
  -21.7550   -6.9730   21.4300 O   0  0  0  0  0  0  0  0  0  0  0  0
  -21.6530   -6.2570   22.5960 C   0  0  0  0  0  0  0  0  0  0  0  0
  -21.0930   -6.8140   23.7660 C   0  0  0  0  0  3  0  0  0  0  0  0
  -20.9440   -6.0210   24.9210 C   0  0  0  0  0  3  0  0  0  0  0  0
  -21.3450   -4.6720   24.9070 C   0  0  0  0  0  0  0  0  0  0  0  0
  -21.8980   -4.1140   23.7410 C   0  0  0  0  0  3  0  0  0  0  0  0
  -22.0480   -4.9040   22.5880 C   0  0  0  0  0  0  0  0  0  0  0  0
  -22.5620   -4.3550   21.4610 F   0  0  0  0  0  0  0  0  0  0  0  0
  -21.1960   -3.9080   26.0150 F   0  0  0  0  0  0  0  0  0  0  0  0
  -22.7840  -13.6220   21.2450 C   0  0  0  0  0  0  0  0  0  0  0  0
  -22.0850  -12.8990   22.1120 N   0  0  0  0  0  0  0  0  0  0  0  0
  -22.3250  -14.6560   20.7600 O   0  0  0  0  0  0  0  0  0  0  0  0
  -22.4710  -12.0620   22.5240 H   0  0  0  0  0  0  0  0  0  0  0  0
  -21.1510  -13.1870   22.3690 H   0  0  0  0  0  0  0  0  0  0  0  0
  -25.3650  -15.3390   20.4040 N   0  0  0  0  0  0  0  0  0  0  0  0
  -24.5970  -15.9830   20.5660 H   0  0  0  0  0  0  0  0  0  0  0  0
  -26.2030  -15.7980   20.0730 H   0  0  0  0  0  0  0  0  0  0  0  0
  1  2  1  0
  1 43  2  0
  3 14  2  0
  4  2  1  0
  4  9  1  0
  5 13  1  0
  5 15  1  0
  6 12  1  0
  6  8  1  0
  7 13  1  0
  8  7  1  0
  9  8  2  0
 10  4  2  0
 11 10  1  0
 11  6  2  0
 12  5  1  0
 13  3  1  0
 15 17  2  0
 16 15  1  0
 18 16  1  0
 19 28  2  0
 19 24  1  0
 20 16  1  0
 20 24  1  0
 21 20  1  0
 22 23  1  0
 22 21  1  0
 23 19  1  0
 24 25  2  0
 25 26  1  0
 27 26  2  0
 28 27  1  0
 29  3  1  0
 29 34  1  0
 29 30  1  0
 30 33  1  1
 30 31  1  0
 32 30  1  0
 34 37  1  0
 35 39  1  0
 35 34  1  0
 36 35  2  0
 39 38  1  0
 41 42  1  0
 41 39  1  0
 41 40  1  0
 44 45  1  0
 44 46  1  0
 45 46  1  0
 45 47  1  0
 46 43  1  0
 48 47  1  0
 49 54  1  0
 50 51  1  0
 50 49  1  0
 52 51  1  0
 52 59  1  0
 52 53  1  0
 54 48  1  0
 54 53  1  0
 55 48  2  0
 56 57  2  0
 57 76  1  0
 58 57  1  0
 58 61  1  0
 59 60  1  0
 59 56  1  0
 60 58  2  0
 61 62  1  0
 62 63  2  0
 64 67  1  0
 64 63  1  0
 65 64  2  0
 66 65  1  0
 66 61  2  0
 67 68  1  0
 68 69  1  0
 69 70  2  0
 71 70  1  0
 71 75  1  0
 72 71  2  0
 73 68  2  0
 73 72  1  0
 74 73  1  0
 76 77  1  0
 77 80  1  0
 77 79  1  0
 78 76  2  0
 81 56  1  0
 81 82  1  0
 83 81  1  0
M  ISO  4   1 101   2 101  47 100  48 100
M  END
>  <TORSDO>  (84) 
F 19

>  <SCORE>  (84) 
-16.346

>  <name>  (84) 
85

>  <ligand_id>  (84) 
85

>  <original_smiles>  (84) 
[H]c1c([H])c([H])c2c(c1[H])C([H])([H])C([H])([H])C([H])([H])C2([H])N([H])C(=O)C1([H])N(C(=O)C([H])(N([H])C(=O)C([H])(N([H])C([H])([H])[H])C([H])([H])[H])C(C([H])([H])[H])(C([H])([H])[H])C([H])([H])[H])C([H])([H])c2c([H])c(OC([H])([H])C([H])([H])C3([H])C([H])([H])C3([H])C([H])([H])C(=O)N3C([H])([H])C([H])([H])C([H])([H])C([H])(n4nc(-c5c([H])c([H])c(Oc6c([H])c([H])c(F)c([H])c6F)c([H])c5[H])c(C(=O)N([H])[H])c4N([H])[H])C3([H])[H])c([H])c([H])c2C1([H])[H]

>  <smiles>  (84) 
[H]c1c([H])c([H])c2c(c1[H])C([H])([H])C([H])([H])C([H])([H])C2([H])N([H])C(=O)C1([H])N(C(=O)C([H])(N([H])C(=O)C([H])(N([H])C([H])([H])[H])C([H])([H])[H])C(C([H])([H])[H])(C([H])([H])[H])C([H])([H])[H])C([H])([H])c2c([H])c(OC([H])([H])C([H])([H])C3([H])C([H])([H])C3([H])C([H])([H])C(=O)N3C([H])([H])C([H])([H])C([H])([H])C([H])(n4nc(-c5c([H])c([H])c(Oc6c([H])c([H])c(F)c([H])c6F)c([H])c5[H])c(C(=O)N([H])[H])c4N([H])[H])C3([H])[H])c([H])c([H])c2C1([H])[H]

$$$$
86:0:0
     RDKit          3D

 87 96  0  0  1  0  0  0  0  0999 V2000
  -29.5610  -20.6080   18.4390 C   0  0  0  0  0  2  0  0  0  0  0  0
  -28.9570  -22.0890   18.5080 C   0  0  0  0  0  2  0  0  0  0  0  0
  -28.8250  -21.0590   20.6110 C   0  0  0  0  0  2  0  0  0  0  0  0
  -29.0350  -19.6970   19.5950 C   0  0  0  0  0  3  0  0  0  0  0  0
  -28.9160  -22.6470   19.9670 C   0  0  0  0  0  3  0  0  0  0  0  0
  -29.5880  -16.4850   19.5600 C   0  0  0  0  0  3  0  0  0  0  0  0
  -29.2800  -17.0520   20.6850 C   0  0  0  0  0  3  0  0  0  0  0  0
  -29.8920  -18.1700   19.8500 C   0  0  0  0  0  3  0  0  0  0  0  0
  -27.8630  -17.2550   21.1740 C   0  0  0  0  0  1  0  0  0  0  0  0
  -30.4450  -15.1140   19.4690 C   0  0  0  0  0  0  0  0  0  0  0  0
  -30.3430  -12.6570   18.6680 C   0  0  0  0  0  2  0  0  0  0  0  0
  -29.3010  -12.4560   17.5410 C   0  0  0  0  0  2  0  0  0  0  0  0
  -27.9040  -12.1920   18.1320 C   0  0  0  0  0  2  0  0  0  0  0  0
  -27.5670  -13.1650   19.2900 C   0  0  0  0  0  3  0  0  0  0  0  0
  -28.7270  -13.3320   20.2890 C   0  0  0  0  0  2  0  0  0  0  0  0
  -29.8920  -13.8060   19.5290 N   0  0  0  0  0  0  0  0  0  0  0  0
  -31.6420  -15.0990   19.1450 O   0  0  0  0  0  0  0  0  0  0  0  0
  -25.3120  -13.7090   20.3520 C   0  0  0  0  0  0  0  0  0  0  0  0
  -24.2950  -12.9280   20.8210 C   0  0  0  0  0  0  0  0  0  0  0  0
  -24.7420  -11.5750   20.6930 C   0  0  0  0  0  0  0  0  0  0  0  0
  -26.3080  -12.8370   19.9510 N   0  0  0  0  0  0  0  0  0  0  0  0
  -25.9860  -11.5450   20.2240 N   0  0  0  0  0  0  0  0  0  0  0  0
  -24.0300  -10.3130   20.9340 C   0  0  0  0  0  0  0  0  0  0  0  0
  -24.4900   -9.3710   21.8780 C   0  0  0  0  0  3  0  0  0  0  0  0
  -23.7750   -8.1730   22.1020 C   0  0  0  0  0  3  0  0  0  0  0  0
  -22.5860   -7.9100   21.3810 C   0  0  0  0  0  0  0  0  0  0  0  0
  -22.1470   -8.8390   20.4210 C   0  0  0  0  0  3  0  0  0  0  0  0
  -22.8620  -10.0270   20.1970 C   0  0  0  0  0  3  0  0  0  0  0  0
  -21.8400   -6.7650   21.5150 O   0  0  0  0  0  0  0  0  0  0  0  0
  -21.7140   -6.1220   22.7200 C   0  0  0  0  0  0  0  0  0  0  0  0
  -21.1710   -6.7650   23.8530 C   0  0  0  0  0  3  0  0  0  0  0  0
  -20.9980   -6.0500   25.0540 C   0  0  0  0  0  3  0  0  0  0  0  0
  -21.3540   -4.6900   25.1210 C   0  0  0  0  0  0  0  0  0  0  0  0
  -21.8920   -4.0460   23.9920 C   0  0  0  0  0  3  0  0  0  0  0  0
  -22.0690   -4.7600   22.7950 C   0  0  0  0  0  0  0  0  0  0  0  0
  -22.5670   -4.1310   21.7040 F   0  0  0  0  0  0  0  0  0  0  0  0
  -21.1810   -3.9980   26.2710 F   0  0  0  0  0  0  0  0  0  0  0  0
  -22.9440  -13.4050   21.2680 C   0  0  0  0  0  0  0  0  0  0  0  0
  -22.3190  -12.6970   22.2000 N   0  0  0  0  0  0  0  0  0  0  0  0
  -22.4580  -14.4460   20.8280 O   0  0  0  0  0  0  0  0  0  0  0  0
  -22.7250  -11.8540   22.5820 H   0  0  0  0  0  0  0  0  0  0  0  0
  -21.4190  -13.0030   22.5400 H   0  0  0  0  0  0  0  0  0  0  0  0
  -25.4700  -15.0830   20.2000 N   0  0  0  0  0  0  0  0  0  0  0  0
  -24.7440  -15.7450   20.4450 H   0  0  0  0  0  0  0  0  0  0  0  0
  -26.2940  -15.5240   19.8140 H   0  0  0  0  0  0  0  0  0  0  0  0
  -27.9560  -24.1300   20.2750 C   0  0  0  0  0  2  0  0  0  0  0  0
  -28.2160  -25.7490   20.2750 O   0  0  0  0  0  0  0  0  0  0  0  0
  -24.5290  -31.6690   23.1760 C   0  0  0  0  0  0  0  0  0  0  0  0
  -27.1850  -26.8170   20.2310 C   0  0  0  0  0  0  0  0  0  0  0  0
  -23.3810  -30.2580   21.5190 C   0  0  0  0  0  3  0  0  0  0  0  0
  -24.8700  -28.6580   20.1410 C   0  0  0  0  0  0  0  0  0  0  0  0
  -25.9480  -30.4910   21.4280 C   0  0  0  0  0  2  0  0  0  0  0  0
  -26.0420  -29.0810   20.7800 C   0  0  0  0  0  0  0  0  0  0  0  0
  -27.1970  -28.1810   20.7990 C   0  0  0  0  0  3  0  0  0  0  0  0
  -25.9800  -26.5390   19.5490 C   0  0  0  0  0  3  0  0  0  0  0  0
  -24.8620  -27.4050   19.5090 C   0  0  0  0  0  3  0  0  0  0  0  0
  -23.6450  -29.5690   20.1530 C   0  0  0  0  0  2  0  0  0  0  0  0
  -24.6390  -30.8330   22.0940 N   0  0  0  0  0  0  0  0  0  0  0  0
  -23.4260  -31.9530   23.6690 O   0  0  0  0  0  0  0  0  0  0  0  0
  -22.6720  -29.2600   22.4720 C   0  0  0  0  0  0  0  0  0  0  0  0
  -21.3490  -29.0770   22.3080 N   0  0  0  0  0  0  0  0  0  0  0  0
  -23.3210  -28.6520   23.3270 O   0  0  0  0  0  0  0  0  0  0  0  0
  -20.8800  -29.6210   21.5970 H   0  0  0  0  0  0  0  0  0  0  0  0
  -17.9640  -27.8410   22.7400 C   0  0  0  0  0  0  0  0  0  0  0  0
  -20.5150  -28.1360   23.0640 C   0  0  0  0  0  3  0  0  0  0  0  0
  -20.6450  -26.7020   22.5020 C   0  0  0  0  0  2  0  0  0  0  0  0
  -19.5700  -26.3600   21.4630 C   0  0  0  0  0  2  0  0  0  0  0  0
  -18.1710  -26.4920   22.0730 C   0  0  0  0  0  2  0  0  0  0  0  0
  -19.0640  -28.6190   23.1900 C   0  0  0  0  0  0  0  0  0  0  0  0
  -18.8150  -29.8790   23.7770 C   0  0  0  0  0  3  0  0  0  0  0  0
  -17.5000  -30.3640   23.9140 C   0  0  0  0  0  3  0  0  0  0  0  0
  -16.4160  -29.5840   23.4770 C   0  0  0  0  0  3  0  0  0  0  0  0
  -16.6480  -28.3250   22.8950 C   0  0  0  0  0  3  0  0  0  0  0  0
  -25.7790  -32.3220   23.8360 C   0  0  0  0  0  3  0  0  0  0  0  0
  -25.4500  -33.7250   24.1420 N   0  0  0  0  0  0  0  0  0  0  0  0
  -25.7760  -34.7750   23.3770 C   0  0  0  0  0  0  0  0  0  0  0  0
  -26.4490  -34.6650   22.3490 O   0  0  0  0  0  0  0  0  0  0  0  0
  -24.8500  -33.8830   24.9380 H   0  0  0  0  0  0  0  0  0  0  0  0
  -24.0240  -36.5490   23.0210 C   0  0  0  0  0  1  0  0  0  0  0  0
  -25.2820  -36.1670   23.8190 C   0  0  0  0  0  3  0  0  0  0  0  0
  -27.4120  -37.1030   24.6080 C   0  0  0  0  0  1  0  0  0  0  0  0
  -26.3010  -37.2300   23.6680 N   0  0  0  0  0  0  0  0  0  0  0  0
  -25.8870  -38.1500   23.7880 H   0  0  0  0  0  0  0  0  0  0  0  0
  -26.2480  -31.5760   25.1470 C   0  0  1  0  0  0  0  0  0  0  0  0
  -25.1170  -31.3560   26.1810 C   0  0  0  0  0  1  0  0  0  0  0  0
  -26.8480  -30.1910   24.8120 C   0  0  0  0  0  1  0  0  0  0  0  0
  -27.3730  -32.3860   25.8360 C   0  0  0  0  0  1  0  0  0  0  0  0
  1  2  1  0
  2  5  1  0
  4  1  1  0
  4  3  1  0
  5 46  1  0
  5  3  1  0
  6 10  1  0
  6  8  1  0
  6  7  1  0
  7  9  1  0
  8  4  1  0
  8  7  1  0
 10 16  1  0
 11 16  1  0
 12 13  1  0
 12 11  1  0
 14 13  1  0
 14 21  1  0
 14 15  1  0
 16 15  1  0
 17 10  2  0
 18 19  2  0
 19 38  1  0
 20 19  1  0
 20 23  1  0
 21 22  1  0
 21 18  1  0
 22 20  2  0
 23 24  1  0
 24 25  2  0
 26 29  1  0
 26 25  1  0
 27 26  2  0
 28 27  1  0
 28 23  2  0
 29 30  1  0
 30 35  2  0
 30 31  1  0
 31 32  2  0
 32 33  1  0
 33 37  1  0
 34 33  2  0
 35 34  1  0
 36 35  1  0
 38 39  1  0
 39 42  1  0
 39 41  1  0
 40 38  2  0
 43 18  1  0
 43 44  1  0
 45 43  1  0
 47 46  1  0
 48 59  2  0
 49 47  1  0
 49 54  1  0
 50 58  1  0
 50 60  1  0
 51 57  1  0
 51 53  1  0
 52 58  1  0
 53 54  2  0
 53 52  1  0
 55 49  2  0
 56 55  1  0
 56 51  2  0
 57 50  1  0
 58 48  1  0
 60 62  2  0
 61 60  1  0
 63 61  1  0
 64 73  2  0
 64 69  1  0
 65 61  1  0
 65 69  1  0
 66 65  1  0
 67 68  1  0
 67 66  1  0
 68 64  1  0
 69 70  2  0
 70 71  1  0
 72 71  2  0
 73 72  1  0
 74 48  1  0
 74 75  1  0
 74 84  1  0
 75 78  1  0
 76 80  1  0
 76 75  1  0
 77 76  2  0
 80 79  1  0
 82 83  1  0
 82 80  1  0
 82 81  1  0
 84 87  1  1
 84 85  1  0
 86 84  1  0
M  ISO  4   6 100  10 100  46 101  47 101
M  END
>  <TORSDO>  (85) 
F 18

>  <SCORE>  (85) 
-13.719

>  <name>  (85) 
86

>  <ligand_id>  (85) 
86

>  <original_smiles>  (85) 
[H]c1c([H])c([H])c2c(c1[H])C([H])([H])C([H])([H])C([H])([H])C2([H])N([H])C(=O)C1([H])N(C(=O)C([H])(N([H])C(=O)C([H])(N([H])C([H])([H])[H])C([H])([H])[H])C(C([H])([H])[H])(C([H])([H])[H])C([H])([H])[H])C([H])([H])c2c([H])c(OC([H])([H])C3([H])C([H])([H])C([H])([H])C([H])(C4([H])C(C(=O)N5C([H])([H])C([H])([H])C([H])([H])C([H])(n6nc(-c7c([H])c([H])c(Oc8c([H])c([H])c(F)c([H])c8F)c([H])c7[H])c(C(=O)N([H])[H])c6N([H])[H])C5([H])[H])=C4C([H])([H])[H])C3([H])[H])c([H])c([H])c2C1([H])[H]

>  <smiles>  (85) 
[H]c1c([H])c([H])c2c(c1[H])C([H])([H])C([H])([H])C([H])([H])C2([H])N([H])C(=O)C1([H])N(C(=O)C([H])(N([H])C(=O)C([H])(N([H])C([H])([H])[H])C([H])([H])[H])C(C([H])([H])[H])(C([H])([H])[H])C([H])([H])[H])C([H])([H])c2c([H])c(OC([H])([H])C3([H])C([H])([H])C([H])([H])C([H])(C4([H])C(C(=O)N5C([H])([H])C([H])([H])C([H])([H])C([H])(n6nc(-c7c([H])c([H])c(Oc8c([H])c([H])c(F)c([H])c8F)c([H])c7[H])c(C(=O)N([H])[H])c6N([H])[H])C5([H])[H])=C4C([H])([H])[H])C3([H])[H])c([H])c([H])c2C1([H])[H]

$$$$
87:0:0
     RDKit          3D

 90 99  0  0  1  0  0  0  0  0999 V2000
  -29.7390  -21.1010   20.4980 N   0  0  0  0  0  4  0  0  0  0  0  0
  -30.5120  -21.2400   19.8680 H   0  0  0  0  0  0  0  0  0  0  0  0
  -30.0990  -21.2600   21.4240 H   0  0  0  0  0  0  0  0  0  0  0  0
  -29.0350  -16.5020   19.0690 C   0  0  0  0  0  2  0  0  0  0  0  0
  -29.6790  -17.7850   18.4770 C   0  0  0  0  0  2  0  0  0  0  0  0
  -29.6040  -18.7060   21.6500 C   0  0  0  0  0  2  0  0  0  0  0  0
  -29.6750  -16.1670   20.4490 C   0  0  0  0  0  3  0  0  0  0  0  0
  -30.2380  -18.5910   19.6370 C   0  0  0  0  0  3  0  0  0  0  0  0
  -30.3200  -17.5840   20.8180 C   0  0  0  0  0  3  0  0  0  0  0  0
  -29.3160  -19.6140   20.4110 C   0  0  0  0  0  3  0  0  0  0  0  0
  -30.5490  -14.8050   20.3410 C   0  0  0  0  0  0  0  0  0  0  0  0
  -30.3790  -12.5110   19.3660 C   0  0  0  0  0  2  0  0  0  0  0  0
  -29.4320  -12.5860   18.1440 C   0  0  0  0  0  2  0  0  0  0  0  0
  -27.9610  -12.4150   18.5780 C   0  0  0  0  0  2  0  0  0  0  0  0
  -27.5920  -13.2960   19.8000 C   0  0  0  0  0  3  0  0  0  0  0  0
  -28.6590  -13.2030   20.9120 C   0  0  0  0  0  2  0  0  0  0  0  0
  -29.9610  -13.5580   20.3270 N   0  0  0  0  0  0  0  0  0  0  0  0
  -31.7440  -14.9040   20.0440 O   0  0  0  0  0  0  0  0  0  0  0  0
  -25.2110  -13.8900   20.5520 C   0  0  0  0  0  0  0  0  0  0  0  0
  -24.1460  -13.1170   20.9190 C   0  0  0  0  0  0  0  0  0  0  0  0
  -24.6030  -11.7640   20.8720 C   0  0  0  0  0  0  0  0  0  0  0  0
  -26.2510  -13.0090   20.2990 N   0  0  0  0  0  0  0  0  0  0  0  0
  -25.8920  -11.7260   20.5550 N   0  0  0  0  0  0  0  0  0  0  0  0
  -23.8750  -10.5030   21.0530 C   0  0  0  0  0  0  0  0  0  0  0  0
  -24.3020   -9.5320   21.9870 C   0  0  0  0  0  3  0  0  0  0  0  0
  -23.5740   -8.3350   22.1570 C   0  0  0  0  0  3  0  0  0  0  0  0
  -22.4070   -8.1000   21.3920 C   0  0  0  0  0  0  0  0  0  0  0  0
  -21.9990   -9.0590   20.4490 C   0  0  0  0  0  3  0  0  0  0  0  0
  -22.7270  -10.2480   20.2770 C   0  0  0  0  0  3  0  0  0  0  0  0
  -21.6520   -6.9540   21.4710 O   0  0  0  0  0  0  0  0  0  0  0  0
  -21.5760   -6.2200   22.6280 C   0  0  0  0  0  0  0  0  0  0  0  0
  -21.1050   -6.7810   23.8350 C   0  0  0  0  0  3  0  0  0  0  0  0
  -20.9790   -5.9730   24.9830 C   0  0  0  0  0  3  0  0  0  0  0  0
  -21.3110   -4.6060   24.9230 C   0  0  0  0  0  0  0  0  0  0  0  0
  -21.7750   -4.0460   23.7200 C   0  0  0  0  0  3  0  0  0  0  0  0
  -21.9040   -4.8500   22.5740 C   0  0  0  0  0  0  0  0  0  0  0  0
  -22.3310   -4.3010   21.4120 F   0  0  0  0  0  0  0  0  0  0  0  0
  -21.1830   -3.8280   26.0230 F   0  0  0  0  0  0  0  0  0  0  0  0
  -22.7510  -13.5940   21.2040 C   0  0  0  0  0  0  0  0  0  0  0  0
  -22.0290  -12.8960   22.0730 N   0  0  0  0  0  0  0  0  0  0  0  0
  -22.3100  -14.6230   20.6910 O   0  0  0  0  0  0  0  0  0  0  0  0
  -22.3990  -12.0640   22.5090 H   0  0  0  0  0  0  0  0  0  0  0  0
  -21.0950  -13.1980   22.3080 H   0  0  0  0  0  0  0  0  0  0  0  0
  -25.3780  -15.2630   20.3910 N   0  0  0  0  0  0  0  0  0  0  0  0
  -24.6140  -15.9160   20.5170 H   0  0  0  0  0  0  0  0  0  0  0  0
  -26.2320  -15.7060   20.0790 H   0  0  0  0  0  0  0  0  0  0  0  0
  -28.7170  -22.2170   20.2060 C   0  0  0  0  0  2  0  0  0  0  0  0
  -29.1320  -23.7830   20.4010 C   0  0  0  0  0  3  0  0  0  0  0  0
  -28.0550  -24.9470   20.0580 C   0  0  0  0  0  3  0  0  0  0  0  0
  -28.3030  -26.4180   20.2700 O   0  0  0  0  0  0  0  0  0  0  0  0
  -24.6180  -31.9130   23.2690 C   0  0  0  0  0  0  0  0  0  0  0  0
  -27.2050  -27.3130   20.2060 C   0  0  0  0  0  0  0  0  0  0  0  0
  -23.4100  -30.5230   21.6270 C   0  0  0  0  0  3  0  0  0  0  0  0
  -24.8540  -28.9720   20.1930 C   0  0  0  0  0  0  0  0  0  0  0  0
  -25.9540  -30.8240   21.4470 C   0  0  0  0  0  2  0  0  0  0  0  0
  -26.0280  -29.4440   20.7920 C   0  0  0  0  0  0  0  0  0  0  0  0
  -27.2070  -28.6280   20.7840 C   0  0  0  0  0  3  0  0  0  0  0  0
  -26.0020  -26.9130   19.5760 C   0  0  0  0  0  3  0  0  0  0  0  0
  -24.8450  -27.7150   19.5740 C   0  0  0  0  0  3  0  0  0  0  0  0
  -23.6210  -29.8540   20.2440 C   0  0  0  0  0  2  0  0  0  0  0  0
  -24.6800  -31.1040   22.1700 N   0  0  0  0  0  0  0  0  0  0  0  0
  -23.5350  -32.1950   23.8040 O   0  0  0  0  0  0  0  0  0  0  0  0
  -22.7420  -29.5080   22.5860 C   0  0  0  0  0  0  0  0  0  0  0  0
  -21.4150  -29.3340   22.4580 N   0  0  0  0  0  0  0  0  0  0  0  0
  -23.4170  -28.8790   23.4060 O   0  0  0  0  0  0  0  0  0  0  0  0
  -20.9290  -29.8950   21.7710 H   0  0  0  0  0  0  0  0  0  0  0  0
  -18.0320  -28.1470   22.9530 C   0  0  0  0  0  0  0  0  0  0  0  0
  -20.5910  -28.3990   23.2260 C   0  0  0  0  0  3  0  0  0  0  0  0
  -20.6900  -26.9680   22.6490 C   0  0  0  0  0  2  0  0  0  0  0  0
  -19.5870  -26.6490   21.6340 C   0  0  0  0  0  2  0  0  0  0  0  0
  -18.2050  -26.7970   22.2770 C   0  0  0  0  0  2  0  0  0  0  0  0
  -19.1520  -28.9050   23.3840 C   0  0  0  0  0  0  0  0  0  0  0  0
  -18.9360  -30.1680   23.9780 C   0  0  0  0  0  3  0  0  0  0  0  0
  -17.6330  -30.6700   24.1480 C   0  0  0  0  0  3  0  0  0  0  0  0
  -16.5260  -29.9090   23.7320 C   0  0  0  0  0  3  0  0  0  0  0  0
  -16.7280  -28.6490   23.1380 C   0  0  0  0  0  3  0  0  0  0  0  0
  -25.9010  -32.5400   23.8930 C   0  0  0  0  0  3  0  0  0  0  0  0
  -26.4040  -31.7760   25.1790 C   0  0  1  0  0  0  0  0  0  0  0  0
  -25.3030  -31.5560   26.2410 C   0  0  0  0  0  1  0  0  0  0  0  0
  -26.9790  -30.3900   24.8030 C   0  0  0  0  0  1  0  0  0  0  0  0
  -27.5580  -32.5670   25.8390 C   0  0  0  0  0  1  0  0  0  0  0  0
  -25.6010  -33.9440   24.2120 N   0  0  0  0  0  0  0  0  0  0  0  0
  -25.9130  -34.9860   23.4310 C   0  0  0  0  0  0  0  0  0  0  0  0
  -26.5510  -34.8680   22.3820 O   0  0  0  0  0  0  0  0  0  0  0  0
  -25.0300  -34.1090   25.0270 H   0  0  0  0  0  0  0  0  0  0  0  0
  -24.1590  -36.7670   23.1280 C   0  0  0  0  0  1  0  0  0  0  0  0
  -25.4400  -36.3810   23.8860 C   0  0  0  0  0  3  0  0  0  0  0  0
  -27.6050  -37.2950   24.5980 C   0  0  0  0  0  1  0  0  0  0  0  0
  -26.4590  -37.4370   23.7040 N   0  0  0  0  0  0  0  0  0  0  0  0
  -26.0540  -38.3570   23.8500 H   0  0  0  0  0  0  0  0  0  0  0  0
  1  3  1  0
  2  1  1  0
  4  7  1  0
  5  4  1  0
  7 11  1  0
  7  9  1  0
  8  5  1  0
  8 10  1  0
  8  9  1  0
  9  6  1  0
 10  1  1  0
 10  6  1  0
 12 17  1  0
 13 14  1  0
 13 12  1  0
 15 14  1  0
 15 22  1  0
 15 16  1  0
 17 11  1  0
 17 16  1  0
 18 11  2  0
 19 20  2  0
 20 39  1  0
 21 20  1  0
 21 24  1  0
 22 19  1  0
 22 23  1  0
 23 21  2  0
 24 25  1  0
 25 26  2  0
 27 30  1  0
 27 26  1  0
 28 27  2  0
 29 28  1  0
 29 24  2  0
 30 31  1  0
 31 32  1  0
 32 33  2  0
 34 33  1  0
 34 38  1  0
 35 34  2  0
 36 31  2  0
 36 35  1  0
 37 36  1  0
 39 40  1  0
 40 43  1  0
 40 42  1  0
 41 39  2  0
 44 45  1  0
 44 19  1  0
 46 44  1  0
 47 48  1  0
 47  1  1  0
 49 50  1  0
 49 48  2  0
 51 62  2  0
 52 50  1  0
 52 57  1  0
 53 61  1  0
 53 63  1  0
 54 60  1  0
 54 56  1  0
 55 61  1  0
 56 55  1  0
 57 56  2  0
 58 52  2  0
 59 58  1  0
 59 54  2  0
 60 53  1  0
 61 51  1  0
 63 65  2  0
 64 63  1  0
 66 64  1  0
 67 76  2  0
 67 72  1  0
 68 64  1  0
 68 72  1  0
 69 68  1  0
 70 71  1  0
 70 69  1  0
 71 67  1  0
 72 73  2  0
 73 74  1  0
 75 74  2  0
 76 75  1  0
 77 51  1  0
 77 82  1  0
 77 78  1  0
 78 81  1  1
 78 79  1  0
 80 78  1  0
 82 85  1  0
 83 87  1  0
 83 82  1  0
 84 83  2  0
 87 86  1  0
 89 90  1  0
 89 87  1  0
 89 88  1  0
M  ISO  4   7 100  11 100  49 101  50 101
M  END
>  <TORSDO>  (86) 
F 20

>  <SCORE>  (86) 
-13.259

>  <name>  (86) 
87

>  <ligand_id>  (86) 
87

>  <original_smiles>  (86) 
[H]c1c([H])c([H])c2c(c1[H])C([H])([H])C([H])([H])C([H])([H])C2([H])N([H])C(=O)C1([H])N(C(=O)C([H])(N([H])C(=O)C([H])(N([H])C([H])([H])[H])C([H])([H])[H])C(C([H])([H])[H])(C([H])([H])[H])C([H])([H])[H])C([H])([H])c2c([H])c(OC([H])([H])C([H])([H])C([H])([H])[N+]([H])([H])C3([H])C([H])([H])C4([H])C([H])(C(=O)N5C([H])([H])C([H])([H])C([H])([H])C([H])(n6nc(-c7c([H])c([H])c(Oc8c([H])c([H])c(F)c([H])c8F)c([H])c7[H])c(C(=O)N([H])[H])c6N([H])[H])C5([H])[H])C([H])([H])C([H])([H])C43[H])c([H])c([H])c2C1([H])[H]

>  <smiles>  (86) 
[H]c1c([H])c([H])c2c(c1[H])C([H])([H])C([H])([H])C([H])([H])C2([H])N([H])C(=O)C1([H])N(C(=O)C([H])(N([H])C(=O)C([H])(N([H])C([H])([H])[H])C([H])([H])[H])C(C([H])([H])[H])(C([H])([H])[H])C([H])([H])[H])C([H])([H])c2c([H])c(OC([H])([H])C([H])([H])C([H])([H])[N+]([H])([H])C3([H])C([H])([H])C4([H])C([H])(C(=O)N5C([H])([H])C([H])([H])C([H])([H])C([H])(n6nc(-c7c([H])c([H])c(Oc8c([H])c([H])c(F)c([H])c8F)c([H])c7[H])c(C(=O)N([H])[H])c6N([H])[H])C5([H])[H])C([H])([H])C([H])([H])C43[H])c([H])c([H])c2C1([H])[H]

$$$$
88:0:0
     RDKit          3D

 89 97  0  0  1  0  0  0  0  0999 V2000
  -28.6570  -21.9930   20.3410 N   0  0  0  0  0  4  0  0  0  0  0  0
  -28.1420  -21.8820   21.2000 H   0  0  0  0  0  0  0  0  0  0  0  0
  -27.9880  -21.8520   19.6010 H   0  0  0  0  0  0  0  0  0  0  0  0
  -31.3690  -19.5270   18.7900 C   0  0  0  0  0  2  0  0  0  0  0  0
  -30.7450  -18.1200   18.9680 C   0  0  0  0  0  2  0  0  0  0  0  0
  -30.3630  -20.7020   18.9080 C   0  0  0  0  0  2  0  0  0  0  0  0
  -29.1520  -19.2230   20.6050 C   0  0  0  0  0  2  0  0  0  0  0  0
  -30.1500  -17.9110   20.3750 C   0  0  0  0  0  3  0  0  0  0  0  0
  -29.6580  -20.7740   20.2810 C   0  0  0  0  0  3  0  0  0  0  0  0
  -29.6520  -16.3310   20.6310 C   0  0  0  0  0  2  0  0  0  0  0  0
  -30.5070  -14.9460   20.3570 C   0  0  0  0  0  0  0  0  0  0  0  0
  -30.3780  -12.6210   19.3720 C   0  0  0  0  0  2  0  0  0  0  0  0
  -29.4340  -12.6460   18.1440 C   0  0  0  0  0  2  0  0  0  0  0  0
  -27.9680  -12.4420   18.5750 C   0  0  0  0  0  2  0  0  0  0  0  0
  -27.5790  -13.3360   19.7810 C   0  0  0  0  0  3  0  0  0  0  0  0
  -28.6410  -13.2930   20.9000 C   0  0  0  0  0  2  0  0  0  0  0  0
  -29.9290  -13.6820   20.3110 N   0  0  0  0  0  0  0  0  0  0  0  0
  -31.6970  -15.0330   20.0380 O   0  0  0  0  0  0  0  0  0  0  0  0
  -25.1980  -13.9120   20.5330 C   0  0  0  0  0  0  0  0  0  0  0  0
  -24.1350  -13.1330   20.9000 C   0  0  0  0  0  0  0  0  0  0  0  0
  -24.6000  -11.7820   20.8580 C   0  0  0  0  0  0  0  0  0  0  0  0
  -26.2410  -13.0360   20.2830 N   0  0  0  0  0  0  0  0  0  0  0  0
  -25.8900  -11.7500   20.5440 N   0  0  0  0  0  0  0  0  0  0  0  0
  -23.8740  -10.5190   21.0420 C   0  0  0  0  0  0  0  0  0  0  0  0
  -24.2990   -9.5530   21.9810 C   0  0  0  0  0  3  0  0  0  0  0  0
  -23.5730   -8.3540   22.1500 C   0  0  0  0  0  3  0  0  0  0  0  0
  -22.4090   -8.1140   21.3830 C   0  0  0  0  0  0  0  0  0  0  0  0
  -22.0050   -9.0680   20.4330 C   0  0  0  0  0  3  0  0  0  0  0  0
  -22.7300  -10.2590   20.2610 C   0  0  0  0  0  3  0  0  0  0  0  0
  -21.6550   -6.9670   21.4640 O   0  0  0  0  0  0  0  0  0  0  0  0
  -21.5790   -6.2360   22.6210 C   0  0  0  0  0  0  0  0  0  0  0  0
  -21.1020   -6.7950   23.8270 C   0  0  0  0  0  3  0  0  0  0  0  0
  -20.9750   -5.9890   24.9750 C   0  0  0  0  0  3  0  0  0  0  0  0
  -21.3140   -4.6230   24.9180 C   0  0  0  0  0  0  0  0  0  0  0  0
  -21.7830   -4.0640   23.7180 C   0  0  0  0  0  3  0  0  0  0  0  0
  -21.9120   -4.8660   22.5710 C   0  0  0  0  0  0  0  0  0  0  0  0
  -22.3450   -4.3170   21.4110 F   0  0  0  0  0  0  0  0  0  0  0  0
  -21.1840   -3.8460   26.0200 F   0  0  0  0  0  0  0  0  0  0  0  0
  -22.7370  -13.6080   21.1780 C   0  0  0  0  0  0  0  0  0  0  0  0
  -22.0130  -12.9080   22.0430 N   0  0  0  0  0  0  0  0  0  0  0  0
  -22.2960  -14.6340   20.6610 O   0  0  0  0  0  0  0  0  0  0  0  0
  -22.3830  -12.0770   22.4820 H   0  0  0  0  0  0  0  0  0  0  0  0
  -21.0750  -13.2060   22.2710 H   0  0  0  0  0  0  0  0  0  0  0  0
  -25.3610  -15.2840   20.3670 N   0  0  0  0  0  0  0  0  0  0  0  0
  -24.5950  -15.9390   20.4890 H   0  0  0  0  0  0  0  0  0  0  0  0
  -26.2160  -15.7270   20.0550 H   0  0  0  0  0  0  0  0  0  0  0  0
  -29.0980  -23.5110   20.2930 C   0  0  0  0  0  3  0  0  0  0  0  0
  -27.9880  -24.7500   20.1350 C   0  0  0  0  0  3  0  0  0  0  0  0
  -28.2540  -26.2720   20.2340 O   0  0  0  0  0  0  0  0  0  0  0  0
  -24.6300  -31.8940   23.2800 C   0  0  0  0  0  0  0  0  0  0  0  0
  -27.1790  -27.2250   20.1920 C   0  0  0  0  0  0  0  0  0  0  0  0
  -23.4110  -30.5110   21.6430 C   0  0  0  0  0  3  0  0  0  0  0  0
  -24.8440  -28.9490   20.1950 C   0  0  0  0  0  0  0  0  0  0  0  0
  -25.9610  -30.7820   21.4540 C   0  0  0  0  0  2  0  0  0  0  0  0
  -26.0280  -29.3970   20.7940 C   0  0  0  0  0  0  0  0  0  0  0  0
  -27.1970  -28.5510   20.7760 C   0  0  0  0  0  3  0  0  0  0  0  0
  -25.9640  -26.8690   19.5620 C   0  0  0  0  0  3  0  0  0  0  0  0
  -24.8220  -27.6960   19.5670 C   0  0  0  0  0  3  0  0  0  0  0  0
  -23.6180  -29.8450   20.2580 C   0  0  0  0  0  2  0  0  0  0  0  0
  -24.6870  -31.0820   22.1810 N   0  0  0  0  0  0  0  0  0  0  0  0
  -23.5500  -32.1790   23.8170 O   0  0  0  0  0  0  0  0  0  0  0  0
  -22.7400  -29.4980   22.6040 C   0  0  0  0  0  0  0  0  0  0  0  0
  -21.4160  -29.3100   22.4680 N   0  0  0  0  0  0  0  0  0  0  0  0
  -23.4140  -28.8850   23.4350 O   0  0  0  0  0  0  0  0  0  0  0  0
  -20.9300  -29.8560   21.7700 H   0  0  0  0  0  0  0  0  0  0  0  0
  -18.0480  -28.0590   22.9320 C   0  0  0  0  0  0  0  0  0  0  0  0
  -20.5990  -28.3670   23.2360 C   0  0  0  0  0  3  0  0  0  0  0  0
  -20.7330  -26.9310   22.6790 C   0  0  0  0  0  2  0  0  0  0  0  0
  -19.6520  -26.5790   21.6530 C   0  0  0  0  0  2  0  0  0  0  0  0
  -18.2570  -26.7050   22.2730 C   0  0  0  0  0  2  0  0  0  0  0  0
  -19.1470  -28.8460   23.3690 C   0  0  0  0  0  0  0  0  0  0  0  0
  -18.8970  -30.1090   23.9450 C   0  0  0  0  0  3  0  0  0  0  0  0
  -17.5820  -30.5880   24.0900 C   0  0  0  0  0  3  0  0  0  0  0  0
  -16.4970  -29.8000   23.6690 C   0  0  0  0  0  3  0  0  0  0  0  0
  -16.7310  -28.5380   23.0940 C   0  0  0  0  0  3  0  0  0  0  0  0
  -25.9150  -32.5210   23.8990 C   0  0  0  0  0  3  0  0  0  0  0  0
  -26.4300  -31.7450   25.1740 C   0  0  1  0  0  0  0  0  0  0  0  0
  -25.3390  -31.5140   26.2450 C   0  0  0  0  0  1  0  0  0  0  0  0
  -27.0040  -30.3640   24.7820 C   0  0  0  0  0  1  0  0  0  0  0  0
  -27.5870  -32.5320   25.8330 C   0  0  0  0  0  1  0  0  0  0  0  0
  -25.6120  -33.9200   24.2370 N   0  0  0  0  0  0  0  0  0  0  0  0
  -25.9180  -34.9740   23.4700 C   0  0  0  0  0  0  0  0  0  0  0  0
  -26.5490  -34.8720   22.4160 O   0  0  0  0  0  0  0  0  0  0  0  0
  -25.0470  -34.0750   25.0600 H   0  0  0  0  0  0  0  0  0  0  0  0
  -24.1620  -36.7570   23.1980 C   0  0  0  0  0  1  0  0  0  0  0  0
  -25.4460  -36.3640   23.9470 C   0  0  0  0  0  3  0  0  0  0  0  0
  -27.6120  -37.2680   24.6650 C   0  0  0  0  0  1  0  0  0  0  0  0
  -26.4630  -37.4220   23.7750 N   0  0  0  0  0  0  0  0  0  0  0  0
  -26.0590  -38.3410   23.9360 H   0  0  0  0  0  0  0  0  0  0  0  0
  1  2  1  0
  3  1  1  0
  4  6  1  0
  4  5  1  0
  5  8  1  0
  6  9  1  0
  8  7  1  0
  8 10  1  0
  9  1  1  0
  9  7  1  0
 11 10  1  0
 12 17  1  0
 13 14  1  0
 13 12  1  0
 15 14  1  0
 15 22  1  0
 15 16  1  0
 17 11  1  0
 17 16  1  0
 18 11  2  0
 19 20  2  0
 20 39  1  0
 21 20  1  0
 21 24  1  0
 22 19  1  0
 22 23  1  0
 23 21  2  0
 24 25  1  0
 25 26  2  0
 27 30  1  0
 27 26  1  0
 28 27  2  0
 29 28  1  0
 29 24  2  0
 30 31  1  0
 31 32  1  0
 32 33  2  0
 34 33  1  0
 34 38  1  0
 35 34  2  0
 36 31  2  0
 36 35  1  0
 37 36  1  0
 39 40  1  0
 40 43  1  0
 40 42  1  0
 41 39  2  0
 44 45  1  0
 44 19  1  0
 46 44  1  0
 47  1  1  0
 48 49  1  0
 48 47  2  0
 50 61  2  0
 51 49  1  0
 51 56  1  0
 52 60  1  0
 52 62  1  0
 53 59  1  0
 53 55  1  0
 54 60  1  0
 55 54  1  0
 56 55  2  0
 57 58  1  0
 57 51  2  0
 58 53  2  0
 59 52  1  0
 60 50  1  0
 62 64  2  0
 63 62  1  0
 65 63  1  0
 66 75  2  0
 66 71  1  0
 67 63  1  0
 67 71  1  0
 68 67  1  0
 69 70  1  0
 69 68  1  0
 70 66  1  0
 71 72  2  0
 72 73  1  0
 74 73  2  0
 75 74  1  0
 76 50  1  0
 76 81  1  0
 76 77  1  0
 77 80  1  1
 77 78  1  0
 79 77  1  0
 81 84  1  0
 82 86  1  0
 82 81  1  0
 83 82  2  0
 86 85  1  0
 88 89  1  0
 88 86  1  0
 88 87  1  0
M  ISO  4  10 100  11 100  48 101  49 101
M  END
>  <TORSDO>  (87) 
F 20

>  <SCORE>  (87) 
-13.684

>  <name>  (87) 
88

>  <ligand_id>  (87) 
88

>  <original_smiles>  (87) 
[H]c1c([H])c([H])c2c(c1[H])C([H])([H])C([H])([H])C([H])([H])C2([H])N([H])C(=O)C1([H])N(C(=O)C([H])(N([H])C(=O)C([H])(N([H])C([H])([H])[H])C([H])([H])[H])C(C([H])([H])[H])(C([H])([H])[H])C([H])([H])[H])C([H])([H])c2c([H])c(OC([H])([H])C([H])([H])[N+]([H])([H])C3([H])C([H])([H])C([H])([H])C([H])([H])C([H])(C([H])([H])C(=O)N4C([H])([H])C([H])([H])C([H])([H])C([H])(n5nc(-c6c([H])c([H])c(Oc7c([H])c([H])c(F)c([H])c7F)c([H])c6[H])c(C(=O)N([H])[H])c5N([H])[H])C4([H])[H])C3([H])[H])c([H])c([H])c2C1([H])[H]

>  <smiles>  (87) 
[H]c1c([H])c([H])c2c(c1[H])C([H])([H])C([H])([H])C([H])([H])C2([H])N([H])C(=O)C1([H])N(C(=O)C([H])(N([H])C(=O)C([H])(N([H])C([H])([H])[H])C([H])([H])[H])C(C([H])([H])[H])(C([H])([H])[H])C([H])([H])[H])C([H])([H])c2c([H])c(OC([H])([H])C([H])([H])[N+]([H])([H])C3([H])C([H])([H])C([H])([H])C([H])([H])C([H])(C([H])([H])C(=O)N4C([H])([H])C([H])([H])C([H])([H])C([H])(n5nc(-c6c([H])c([H])c(Oc7c([H])c([H])c(F)c([H])c7F)c([H])c6[H])c(C(=O)N([H])[H])c5N([H])[H])C4([H])[H])C3([H])[H])c([H])c([H])c2C1([H])[H]

$$$$
89:0:0
     RDKit          3D

 92 99  0  0  1  0  0  0  0  0999 V2000
  -27.5640  -18.2970   20.5170 N   0  0  0  0  0  4  0  0  0  0  0  0
  -26.5530  -18.3110   20.5320 H   0  0  0  0  0  0  0  0  0  0  0  0
  -27.7870  -18.2440   19.5320 H   0  0  0  0  0  0  0  0  0  0  0  0
  -27.7830  -16.6980   21.1470 C   0  0  0  0  0  2  0  0  0  0  0  0
  -26.5480  -10.6610   20.7920 C   0  0  0  0  0  3  0  0  0  0  0  0
  -26.3870  -11.9420   22.0520 C   0  0  0  0  0  3  0  0  0  0  0  0
  -27.8770  -11.3840   21.3830 C   0  0  1  0  0  0  0  0  0  0  0  0
  -27.8440  -14.2230   18.7480 C   0  0  0  0  0  1  0  0  0  0  0  0
  -27.2520  -11.1920   19.5680 C   0  0  0  0  0  2  0  0  0  0  0  0
  -27.8560  -14.8230   20.6290 C   0  0  0  0  0  1  0  0  0  0  0  0
  -27.6450  -13.1230   21.8810 C   0  0  0  0  0  3  0  0  0  0  0  0
  -28.3990  -13.3450   23.2130 C   0  0  0  0  0  1  0  0  0  0  0  0
  -29.6130  -14.6500   18.6450 C   0  0  0  0  0  0  0  0  0  0  0  0
  -31.0900  -12.9490   18.0010 C   0  0  0  0  0  2  0  0  0  0  0  0
  -30.0670  -12.1150   17.2400 C   0  0  0  0  0  2  0  0  0  0  0  0
  -29.4330  -11.5660   18.5360 C   0  0  0  0  0  2  0  0  0  0  0  0
  -28.8520  -12.6230   19.7570 C   0  0  0  0  0  2  0  0  0  0  0  0
  -30.0450  -13.1720   20.3200 C   0  0  0  0  0  2  0  0  0  0  0  0
  -30.4630  -13.7420   19.0990 N   0  0  0  0  0  0  0  0  0  0  0  0
  -30.3290  -15.5640   18.2690 O   0  0  0  0  0  0  0  0  0  0  0  0
  -25.2040  -14.1090   20.0820 C   0  0  0  0  0  3  0  0  0  0  0  0
  -24.0430  -13.4180   20.4410 C   0  0  0  0  0  3  0  0  0  0  0  0
  -24.2940  -12.0970   20.1370 C   0  0  0  0  0  3  0  0  0  0  0  0
  -26.2540  -13.1570   19.8830 N   0  0  0  0  0  2  0  0  0  0  0  0
  -25.2340  -12.3680   19.2440 N   0  0  0  0  0  2  0  0  0  0  0  0
  -23.6220  -10.7770   20.4520 C   0  0  0  0  0  0  0  0  0  0  0  0
  -24.0330   -9.7960   21.4420 C   0  0  0  0  0  3  0  0  0  0  0  0
  -23.4620   -8.5410   21.5960 C   0  0  0  0  0  3  0  0  0  0  0  0
  -22.2850   -8.2550   20.9020 C   0  0  0  0  0  0  0  0  0  0  0  0
  -21.8740   -9.1850   19.9280 C   0  0  0  0  0  3  0  0  0  0  0  0
  -22.5070  -10.4140   19.7030 C   0  0  0  0  0  3  0  0  0  0  0  0
  -21.5810   -7.0850   20.9930 O   0  0  0  0  0  0  0  0  0  0  0  0
  -21.5810   -6.3220   22.1240 C   0  0  0  0  0  0  0  0  0  0  0  0
  -21.2910   -6.8450   23.4080 C   0  0  0  0  0  3  0  0  0  0  0  0
  -21.2470   -5.9820   24.5190 C   0  0  0  0  0  3  0  0  0  0  0  0
  -21.4720   -4.6050   24.3590 C   0  0  0  0  0  0  0  0  0  0  0  0
  -21.7240   -4.0790   23.0810 C   0  0  0  0  0  3  0  0  0  0  0  0
  -21.7730   -4.9360   21.9650 C   0  0  0  0  0  0  0  0  0  0  0  0
  -21.9840   -4.4170   20.7370 F   0  0  0  0  0  0  0  0  0  0  0  0
  -21.4440   -3.7780   25.4360 F   0  0  0  0  0  0  0  0  0  0  0  0
  -22.7260  -13.9020   20.8650 C   0  0  0  0  0  0  0  0  0  0  0  0
  -22.0440  -13.1680   21.7450 N   0  0  0  0  0  0  0  0  0  0  0  0
  -22.2640  -14.9420   20.3880 O   0  0  0  0  0  0  0  0  0  0  0  0
  -22.4480  -12.3830   22.2280 H   0  0  0  0  0  0  0  0  0  0  0  0
  -21.0680  -13.3660   21.9220 H   0  0  0  0  0  0  0  0  0  0  0  0
  -25.3120  -15.4580   19.8010 N   0  0  0  0  0  0  0  0  0  0  0  0
  -24.4230  -15.8700   19.5350 H   0  0  0  0  0  0  0  0  0  0  0  0
  -26.0190  -15.5700   19.0960 H   0  0  0  0  0  0  0  0  0  0  0  0
  -27.9740  -19.9280   21.0590 C   0  0  0  0  0  3  0  0  0  0  0  0
  -27.8200  -21.7420   20.3650 C   0  0  0  0  0  3  0  0  0  0  0  0
  -27.8260  -23.5650   20.9960 C   0  0  0  0  0  2  0  0  0  0  0  0
  -28.1180  -25.2630   20.5330 O   0  0  0  0  0  0  0  0  0  0  0  0
  -24.5640  -31.5870   23.0190 C   0  0  0  0  0  0  0  0  0  0  0  0
  -27.2570  -26.5170   20.3740 C   0  0  0  0  0  0  0  0  0  0  0  0
  -23.5030  -30.1270   21.3550 C   0  0  0  0  0  3  0  0  0  0  0  0
  -25.0550  -28.5210   20.0410 C   0  0  0  0  0  0  0  0  0  0  0  0
  -26.0720  -30.3630   21.3500 C   0  0  0  0  0  2  0  0  0  0  0  0
  -26.1990  -28.9140   20.7540 C   0  0  0  0  0  0  0  0  0  0  0  0
  -27.3140  -27.9440   20.8860 C   0  0  0  0  0  3  0  0  0  0  0  0
  -26.1460  -26.3520   19.5340 C   0  0  0  0  0  3  0  0  0  0  0  0
  -25.0740  -27.2790   19.3930 C   0  0  0  0  0  3  0  0  0  0  0  0
  -23.8280  -29.4440   19.9990 C   0  0  0  0  0  2  0  0  0  0  0  0
  -24.7370  -30.7320   21.9720 N   0  0  0  0  0  0  0  0  0  0  0  0
  -23.4430  -31.8650   23.4820 O   0  0  0  0  0  0  0  0  0  0  0  0
  -22.7850  -29.1330   22.3050 C   0  0  0  0  0  0  0  0  0  0  0  0
  -21.4600  -28.9440   22.1440 N   0  0  0  0  0  0  0  0  0  0  0  0
  -23.4370  -28.5180   23.1590 O   0  0  0  0  0  0  0  0  0  0  0  0
  -20.9860  -29.5020   21.4500 H   0  0  0  0  0  0  0  0  0  0  0  0
  -18.0800  -27.6900   22.5940 C   0  0  0  0  0  0  0  0  0  0  0  0
  -20.6360  -27.9870   22.8920 C   0  0  0  0  0  3  0  0  0  0  0  0
  -20.7610  -26.5630   22.3030 C   0  0  0  0  0  2  0  0  0  0  0  0
  -19.6770  -26.2370   21.2690 C   0  0  0  0  0  2  0  0  0  0  0  0
  -18.2850  -26.3510   21.8950 C   0  0  0  0  0  2  0  0  0  0  0  0
  -19.1840  -28.4650   23.0450 C   0  0  0  0  0  0  0  0  0  0  0  0
  -18.9360  -29.7120   23.6630 C   0  0  0  0  0  3  0  0  0  0  0  0
  -17.6220  -30.1890   23.8190 C   0  0  0  0  0  3  0  0  0  0  0  0
  -16.5360  -29.4180   23.3790 C   0  0  0  0  0  3  0  0  0  0  0  0
  -16.7640  -28.1690   22.7750 C   0  0  0  0  0  3  0  0  0  0  0  0
  -25.7740  -32.2970   23.7190 C   0  0  0  0  0  3  0  0  0  0  0  0
  -25.3800  -33.6860   24.0250 N   0  0  0  0  0  0  0  0  0  0  0  0
  -25.7000  -34.7610   23.2740 C   0  0  0  0  0  0  0  0  0  0  0  0
  -26.4050  -34.6810   22.2730 O   0  0  0  0  0  0  0  0  0  0  0  0
  -24.7540  -33.8310   24.8010 H   0  0  0  0  0  0  0  0  0  0  0  0
  -23.9080  -36.4860   22.8710 C   0  0  0  0  0  1  0  0  0  0  0  0
  -25.1430  -36.1330   23.7180 C   0  0  0  0  0  3  0  0  0  0  0  0
  -27.2320  -37.1040   24.5730 C   0  0  0  0  0  1  0  0  0  0  0  0
  -26.1350  -37.2280   23.6150 N   0  0  0  0  0  0  0  0  0  0  0  0
  -25.6910  -38.1320   23.7550 H   0  0  0  0  0  0  0  0  0  0  0  0
  -26.2350  -31.5580   25.0320 C   0  0  1  0  0  0  0  0  0  0  0  0
  -25.1020  -31.2890   26.0450 C   0  0  0  0  0  1  0  0  0  0  0  0
  -26.8940  -30.1990   24.7030 C   0  0  0  0  0  1  0  0  0  0  0  0
  -27.3200  -32.4070   25.7410 C   0  0  0  0  0  1  0  0  0  0  0  0
  1  2  1  0
  1 49  1  0
  1  4  1  0
  3  1  1  0
  5  9  1  0
  5  7  1  0
  5  6  1  0
  7 11  1  0
  7  6  1  0
  7  9  1  1
 10  4  1  0
 11  6  1  0
 11 12  1  0
 13  8  1  0
 13 19  1  0
 14 19  1  0
 15 14  1  0
 15 16  1  0
 16 17  1  0
 17 18  1  0
 19 18  1  0
 20 13  2  0
 21 22  1  0
 22 41  1  0
 23 22  1  0
 23 26  1  0
 24 21  1  0
 25 24  1  0
 25 23  1  0
 26 27  1  0
 27 28  2  0
 29 32  1  0
 29 28  1  0
 30 29  2  0
 31 30  1  0
 31 26  2  0
 32 33  1  0
 33 34  1  0
 34 35  2  0
 36 35  1  0
 36 40  1  0
 37 36  2  0
 38 33  2  0
 38 37  1  0
 39 38  1  0
 41 42  1  0
 42 45  1  0
 42 44  1  0
 43 41  2  0
 46 21  1  0
 47 46  1  0
 48 46  1  0
 50 51  1  0
 50 49  2  0
 52 51  1  0
 53 64  2  0
 53 79  1  0
 54 52  1  0
 54 59  1  0
 55 63  1  0
 55 65  1  0
 56 58  1  0
 57 63  1  0
 58 59  2  0
 58 57  1  0
 60 54  2  0
 61 60  1  0
 61 56  2  0
 62 56  1  0
 62 55  1  0
 63 53  1  0
 65 67  2  0
 66 65  1  0
 66 70  1  0
 68 66  1  0
 69 78  2  0
 69 74  1  0
 70 74  1  0
 71 70  1  0
 72 73  1  0
 72 71  1  0
 73 69  1  0
 74 75  2  0
 75 76  1  0
 77 76  2  0
 78 77  1  0
 79 80  1  0
 79 89  1  0
 80 83  1  0
 81 85  1  0
 81 80  1  0
 82 81  2  0
 84 85  1  0
 87 85  1  0
 87 88  1  0
 87 86  1  0
 89 92  1  1
 89 90  1  0
 91 89  1  0
M  ISO  4   8 100  13 100  51 101  52 101
M  END
>  <TORSDO>  (88) 
F 21

>  <SCORE>  (88) 
-7.429

>  <name>  (88) 
89

>  <ligand_id>  (88) 
89

>  <original_smiles>  (88) 
[H]c1c([H])c([H])c2c(c1[H])C([H])([H])C([H])([H])C([H])([H])C2([H])N([H])C(=O)C1([H])N(C(=O)C([H])(N([H])C(=O)C([H])(N([H])C([H])([H])[H])C([H])([H])[H])C(C([H])([H])[H])(C([H])([H])[H])C([H])([H])[H])C([H])([H])c2c([H])c(OC([H])([H])C([H])([H])C([H])([H])[N+]([H])([H])C([H])([H])C3([H])C([H])(C(=O)N4C([H])([H])C([H])([H])C([H])([H])C([H])(n5nc(-c6c([H])c([H])c(Oc7c([H])c([H])c(F)c([H])c7F)c([H])c6[H])c(C(=O)N([H])[H])c5N([H])[H])C4([H])[H])C4([H])C([H])([H])C([H])([H])C3(C([H])([H])[H])C4([H])[H])c([H])c([H])c2C1([H])[H]

>  <smiles>  (88) 
[H]c1c([H])c([H])c2c(c1[H])C([H])([H])C([H])([H])C([H])([H])C2([H])N([H])C(=O)C1([H])N(C(=O)C([H])(N([H])C(=O)C([H])(N([H])C([H])([H])[H])C([H])([H])[H])C(C([H])([H])[H])(C([H])([H])[H])C([H])([H])[H])C([H])([H])c2c([H])c(OC([H])([H])C([H])([H])C([H])([H])[N+]([H])([H])C([H])([H])C3([H])C([H])(C(=O)N4C([H])([H])C([H])([H])C([H])([H])C([H])(n5nc(-c6c([H])c([H])c(Oc7c([H])c([H])c(F)c([H])c7F)c([H])c6[H])c(C(=O)N([H])[H])c5N([H])[H])C4([H])[H])C4([H])C([H])([H])C([H])([H])C3(C([H])([H])[H])C4([H])[H])c([H])c([H])c2C1([H])[H]

$$$$
90:0:0
     RDKit          3D

 93102  0  0  1  0  0  0  0  0999 V2000
  -26.4830  -22.4430   20.8480 C   0  0  0  0  0  2  0  0  0  0  0  0
  -26.8620  -23.6960   20.0350 C   0  0  0  0  0  2  0  0  0  0  0  0
  -27.5260  -21.3190   20.7140 C   0  0  0  0  0  2  0  0  0  0  0  0
  -29.3000  -23.0800   20.2190 C   0  0  0  0  0  2  0  0  0  0  0  0
  -28.2670  -24.2430   20.3880 C   0  0  0  0  0  3  0  0  0  0  0  0
  -28.9370  -21.8280   21.0750 C   0  0  0  0  0  3  0  0  0  0  0  0
  -29.9890  -20.7610   21.0920 N   0  0  0  0  0  4  0  0  0  0  0  0
  -30.8780  -21.2340   21.0720 H   0  0  0  0  0  0  0  0  0  0  0  0
  -29.9510  -20.2940   21.9840 H   0  0  0  0  0  0  0  0  0  0  0  0
  -31.4990  -17.8630   19.8270 C   0  0  0  0  0  2  0  0  0  0  0  0
  -31.4130  -19.1950   19.8150 C   0  0  0  0  0  2  0  0  0  0  0  0
  -29.2430  -18.3970   20.3930 C   0  0  0  0  0  2  0  0  0  0  0  0
  -30.1660  -17.1800   20.0350 C   0  0  0  0  0  3  0  0  0  0  0  0
  -30.0110  -19.7130   20.0290 C   0  0  0  0  0  3  0  0  0  0  0  0
  -30.1640  -15.9780   21.0460 C   0  0  0  0  0  2  0  0  0  0  0  0
  -30.9000  -14.6860   20.5650 C   0  0  0  0  0  0  0  0  0  0  0  0
  -30.6560  -12.4980   19.4510 C   0  0  0  0  0  2  0  0  0  0  0  0
  -29.7540  -12.7050   18.2150 C   0  0  0  0  0  2  0  0  0  0  0  0
  -28.2660  -12.5750   18.5970 C   0  0  0  0  0  2  0  0  0  0  0  0
  -27.8910  -13.4110   19.8510 C   0  0  0  0  0  3  0  0  0  0  0  0
  -28.9130  -13.1810   20.9860 C   0  0  0  0  0  2  0  0  0  0  0  0
  -30.2490  -13.4910   20.4580 N   0  0  0  0  0  0  0  0  0  0  0  0
  -32.0600  -14.8120   20.1660 O   0  0  0  0  0  0  0  0  0  0  0  0
  -25.4680  -14.0250   20.4570 C   0  0  0  0  0  0  0  0  0  0  0  0
  -24.3900  -13.2570   20.8000 C   0  0  0  0  0  0  0  0  0  0  0  0
  -24.8530  -11.9050   20.8150 C   0  0  0  0  0  0  0  0  0  0  0  0
  -26.5240  -13.1420   20.2840 N   0  0  0  0  0  0  0  0  0  0  0  0
  -26.1540  -11.8630   20.5560 N   0  0  0  0  0  0  0  0  0  0  0  0
  -24.1230  -10.6450   21.0050 C   0  0  0  0  0  0  0  0  0  0  0  0
  -24.5140   -9.7050   21.9850 C   0  0  0  0  0  3  0  0  0  0  0  0
  -23.7860   -8.5100   22.1590 C   0  0  0  0  0  3  0  0  0  0  0  0
  -22.6520   -8.2440   21.3560 C   0  0  0  0  0  0  0  0  0  0  0  0
  -22.2800   -9.1720   20.3660 C   0  0  0  0  0  3  0  0  0  0  0  0
  -23.0090  -10.3610   20.1900 C   0  0  0  0  0  3  0  0  0  0  0  0
  -21.9000   -7.0980   21.4370 O   0  0  0  0  0  0  0  0  0  0  0  0
  -21.7850   -6.3940   22.6100 C   0  0  0  0  0  0  0  0  0  0  0  0
  -21.2670   -6.9830   23.7840 C   0  0  0  0  0  3  0  0  0  0  0  0
  -21.1030   -6.2060   24.9480 C   0  0  0  0  0  3  0  0  0  0  0  0
  -21.4440   -4.8390   24.9360 C   0  0  0  0  0  0  0  0  0  0  0  0
  -21.9560   -4.2490   23.7670 C   0  0  0  0  0  3  0  0  0  0  0  0
  -22.1220   -5.0260   22.6050 C   0  0  0  0  0  0  0  0  0  0  0  0
  -22.5950   -4.4480   21.4760 F   0  0  0  0  0  0  0  0  0  0  0  0
  -21.2790   -4.0890   26.0510 F   0  0  0  0  0  0  0  0  0  0  0  0
  -22.9810  -13.7350   21.0130 C   0  0  0  0  0  0  0  0  0  0  0  0
  -22.2270  -13.0540   21.8670 N   0  0  0  0  0  0  0  0  0  0  0  0
  -22.5600  -14.7500   20.4580 O   0  0  0  0  0  0  0  0  0  0  0  0
  -22.5790  -12.2320   22.3340 H   0  0  0  0  0  0  0  0  0  0  0  0
  -21.2820  -13.3550   22.0560 H   0  0  0  0  0  0  0  0  0  0  0  0
  -25.6370  -15.3920   20.2580 N   0  0  0  0  0  0  0  0  0  0  0  0
  -24.8680  -16.0490   20.3330 H   0  0  0  0  0  0  0  0  0  0  0  0
  -26.5020  -15.8240   19.9560 H   0  0  0  0  0  0  0  0  0  0  0  0
  -28.6460  -25.5270   19.5660 C   0  0  0  0  0  2  0  0  0  0  0  0
  -28.4950  -26.8070   20.2300 O   0  0  0  0  0  0  0  0  0  0  0  0
  -24.5770  -31.9460   23.2780 C   0  0  0  0  0  0  0  0  0  0  0  0
  -27.3100  -27.5250   20.1880 C   0  0  0  0  0  0  0  0  0  0  0  0
  -23.4130  -30.5430   21.6100 C   0  0  0  0  0  3  0  0  0  0  0  0
  -24.9020  -29.0270   20.1970 C   0  0  0  0  0  0  0  0  0  0  0  0
  -25.9400  -30.9180   21.4560 C   0  0  0  0  0  2  0  0  0  0  0  0
  -26.0460  -29.5480   20.8100 C   0  0  0  0  0  0  0  0  0  0  0  0
  -27.2480  -28.7970   20.8140 C   0  0  0  0  0  3  0  0  0  0  0  0
  -26.1460  -27.0420   19.5470 C   0  0  0  0  0  3  0  0  0  0  0  0
  -24.9450  -27.7710   19.5720 C   0  0  0  0  0  3  0  0  0  0  0  0
  -23.6520  -29.8740   20.2310 C   0  0  0  0  0  2  0  0  0  0  0  0
  -24.6610  -31.1510   22.1730 N   0  0  0  0  0  0  0  0  0  0  0  0
  -23.4850  -32.2030   23.8020 O   0  0  0  0  0  0  0  0  0  0  0  0
  -22.7570  -29.5080   22.5550 C   0  0  0  0  0  0  0  0  0  0  0  0
  -21.4380  -29.3070   22.4020 N   0  0  0  0  0  0  0  0  0  0  0  0
  -23.4320  -28.8890   23.3810 O   0  0  0  0  0  0  0  0  0  0  0  0
  -20.9530  -29.8590   21.7080 H   0  0  0  0  0  0  0  0  0  0  0  0
  -18.0710  -28.0690   22.8450 C   0  0  0  0  0  0  0  0  0  0  0  0
  -20.6200  -28.3530   23.1530 C   0  0  0  0  0  3  0  0  0  0  0  0
  -20.7470  -26.9300   22.5630 C   0  0  0  0  0  2  0  0  0  0  0  0
  -19.6630  -26.6030   21.5310 C   0  0  0  0  0  2  0  0  0  0  0  0
  -18.2710  -26.7280   22.1590 C   0  0  0  0  0  2  0  0  0  0  0  0
  -19.1750  -28.8390   23.2970 C   0  0  0  0  0  0  0  0  0  0  0  0
  -18.9340  -30.0930   23.8990 C   0  0  0  0  0  3  0  0  0  0  0  0
  -17.6210  -30.5790   24.0530 C   0  0  0  0  0  3  0  0  0  0  0  0
  -16.5320  -29.8060   23.6140 C   0  0  0  0  0  3  0  0  0  0  0  0
  -16.7570  -28.5520   23.0170 C   0  0  0  0  0  3  0  0  0  0  0  0
  -25.8450  -32.5860   23.9230 C   0  0  0  0  0  3  0  0  0  0  0  0
  -26.3330  -31.8330   25.2220 C   0  0  1  0  0  0  0  0  0  0  0  0
  -25.2130  -31.5970   26.2610 C   0  0  0  0  0  1  0  0  0  0  0  0
  -26.9320  -30.4540   24.8600 C   0  0  0  0  0  1  0  0  0  0  0  0
  -27.4690  -32.6360   25.8970 C   0  0  0  0  0  1  0  0  0  0  0  0
  -25.5280  -33.9880   24.2240 N   0  0  0  0  0  0  0  0  0  0  0  0
  -25.8880  -35.0290   23.4610 C   0  0  0  0  0  0  0  0  0  0  0  0
  -26.5910  -34.9080   22.4540 O   0  0  0  0  0  0  0  0  0  0  0  0
  -24.9020  -34.1520   24.9990 H   0  0  0  0  0  0  0  0  0  0  0  0
  -24.1840  -36.8240   23.0130 C   0  0  0  0  0  1  0  0  0  0  0  0
  -25.3880  -36.4240   23.8820 C   0  0  0  0  0  3  0  0  0  0  0  0
  -27.4880  -37.3110   24.7940 C   0  0  0  0  0  1  0  0  0  0  0  0
  -26.4290  -37.4720   23.8000 N   0  0  0  0  0  0  0  0  0  0  0  0
  -26.0220  -38.3960   23.9190 H   0  0  0  0  0  0  0  0  0  0  0  0
  2  5  1  0
  2  1  1  0
  3  1  1  0
  3  6  1  0
  4  5  1  0
  4  6  1  0
  5 52  1  0
  6  7  1  0
  7  9  1  0
  8  7  1  0
 10 13  1  0
 11 10  1  0
 11 14  1  0
 13 12  1  0
 13 15  1  0
 14 12  1  0
 14  7  1  0
 16 15  1  0
 17 22  1  0
 18 19  1  0
 18 17  1  0
 20 19  1  0
 20 27  1  0
 20 21  1  0
 22 16  1  0
 22 21  1  0
 23 16  2  0
 24 25  2  0
 25 26  1  0
 25 44  1  0
 26 29  1  0
 27 24  1  0
 27 28  1  0
 28 26  2  0
 29 30  1  0
 30 31  2  0
 32 35  1  0
 32 31  1  0
 33 32  2  0
 34 33  1  0
 34 29  2  0
 35 36  1  0
 36 37  1  0
 37 38  2  0
 39 38  1  0
 39 43  1  0
 40 39  2  0
 41 36  2  0
 41 40  1  0
 42 41  1  0
 44 45  1  0
 45 48  1  0
 45 47  1  0
 46 44  2  0
 49 50  1  0
 49 24  1  0
 51 49  1  0
 52 53  1  0
 54 65  2  0
 55 53  1  0
 55 60  1  0
 56 64  1  0
 56 66  1  0
 57 63  1  0
 57 59  1  0
 58 64  1  0
 59 60  2  0
 59 58  1  0
 61 62  1  0
 61 55  2  0
 62 57  2  0
 63 56  1  0
 64 54  1  0
 66 68  2  0
 67 66  1  0
 69 67  1  0
 70 79  2  0
 70 75  1  0
 71 67  1  0
 71 75  1  0
 72 71  1  0
 73 74  1  0
 73 72  1  0
 74 70  1  0
 75 76  2  0
 76 77  1  0
 78 77  2  0
 79 78  1  0
 80 54  1  0
 80 85  1  0
 80 81  1  0
 81 84  1  1
 81 82  1  0
 83 81  1  0
 85 88  1  0
 86 90  1  0
 86 85  1  0
 87 86  2  0
 90 89  1  0
 92 90  1  0
 92 93  1  0
 92 91  1  0
M  ISO  4  15 100  16 100  52 101  53 101
M  END
>  <TORSDO>  (89) 
F 20

>  <SCORE>  (89) 
-13.397

>  <name>  (89) 
90

>  <ligand_id>  (89) 
90

>  <original_smiles>  (89) 
[H]C1=C([H])C([H])([N+]([H])([H])C2([H])C([H])([H])C([H])([H])C([H])([H])C([H])(C([H])([H])Oc3c([H])c([H])c4c(c3[H])C([H])([H])N(C(=O)C([H])(N([H])C(=O)C([H])(N([H])C([H])([H])[H])C([H])([H])[H])C(C([H])([H])[H])(C([H])([H])[H])C([H])([H])[H])C([H])(C(=O)N([H])C3([H])c5c([H])c([H])c([H])c([H])c5C([H])([H])C([H])([H])C3([H])[H])C4([H])[H])C2([H])[H])C([H])([H])C1([H])C([H])([H])C(=O)N1C([H])([H])C([H])([H])C([H])([H])C([H])(n2nc(-c3c([H])c([H])c(Oc4c([H])c([H])c(F)c([H])c4F)c([H])c3[H])c(C(=O)N([H])[H])c2N([H])[H])C1([H])[H]

>  <smiles>  (89) 
[H]C1=C([H])C([H])([N+]([H])([H])C2([H])C([H])([H])C([H])([H])C([H])([H])C([H])(C([H])([H])Oc3c([H])c([H])c4c(c3[H])C([H])([H])N(C(=O)C([H])(N([H])C(=O)C([H])(N([H])C([H])([H])[H])C([H])([H])[H])C(C([H])([H])[H])(C([H])([H])[H])C([H])([H])[H])C([H])(C(=O)N([H])C3([H])c5c([H])c([H])c([H])c([H])c5C([H])([H])C([H])([H])C3([H])[H])C4([H])[H])C2([H])[H])C([H])([H])C1([H])C([H])([H])C(=O)N1C([H])([H])C([H])([H])C([H])([H])C([H])(n2nc(-c3c([H])c([H])c(Oc4c([H])c([H])c(F)c([H])c4F)c([H])c3[H])c(C(=O)N([H])[H])c2N([H])[H])C1([H])[H]

$$$$
91:0:0
     RDKit          3D

 92102  0  0  1  0  0  0  0  0999 V2000
  -29.1840  -18.4280   19.4650 C   0  0  0  0  0  3  0  0  0  0  0  0
  -28.9820  -19.8650   19.4020 C   0  0  0  0  0  3  0  0  0  0  0  0
  -29.9310  -18.6220   21.7090 C   0  0  0  0  0  3  0  0  0  0  0  0
  -29.7320  -20.0580   21.6900 C   0  0  0  0  0  0  0  0  0  0  0  0
  -29.9400  -21.0900   22.6540 C   0  0  0  0  0  0  0  0  0  0  0  0
  -29.6570  -17.7250   20.6250 C   0  0  0  0  0  0  0  0  0  0  0  0
  -29.2180  -20.7330   20.5150 C   0  0  0  0  0  0  0  0  0  0  0  0
  -29.5730  -22.2750   22.1250 C   0  0  0  0  0  0  0  0  0  0  0  0
  -30.4710  -21.2190   24.0350 C   0  0  0  0  0  2  0  0  0  0  0  0
  -29.8060  -23.4180   23.0400 C   0  0  0  0  0  2  0  0  0  0  0  0
  -30.5810  -22.7590   24.2130 C   0  0  0  0  0  2  0  0  0  0  0  0
  -29.0980  -22.1810   20.8180 N   0  0  0  0  0  0  0  0  0  0  0  0
  -29.5320  -16.1080   20.8510 C   0  0  0  0  0  2  0  0  0  0  0  0
  -30.4260  -14.8440   20.3060 C   0  0  0  0  0  0  0  0  0  0  0  0
  -30.3410  -12.5410   19.2560 C   0  0  0  0  0  2  0  0  0  0  0  0
  -29.3570  -12.5690   18.0610 C   0  0  0  0  0  2  0  0  0  0  0  0
  -27.9050  -12.3380   18.5270 C   0  0  0  0  0  2  0  0  0  0  0  0
  -27.5390  -13.2070   19.7560 C   0  0  0  0  0  3  0  0  0  0  0  0
  -28.6300  -13.1300   20.8460 C   0  0  0  0  0  2  0  0  0  0  0  0
  -29.8970  -13.5630   20.2380 N   0  0  0  0  0  0  0  0  0  0  0  0
  -31.5750  -15.0210   19.8820 O   0  0  0  0  0  0  0  0  0  0  0  0
  -25.1670  -13.7540   20.5670 C   0  0  0  0  0  0  0  0  0  0  0  0
  -24.1210  -12.9610   20.9540 C   0  0  0  0  0  0  0  0  0  0  0  0
  -24.6010  -11.6170   20.8840 C   0  0  0  0  0  0  0  0  0  0  0  0
  -26.2140  -12.8920   20.2820 N   0  0  0  0  0  0  0  0  0  0  0  0
  -25.8820  -11.6010   20.5360 N   0  0  0  0  0  0  0  0  0  0  0  0
  -23.8950  -10.3420   21.0720 C   0  0  0  0  0  0  0  0  0  0  0  0
  -24.3540   -9.3720   21.9900 C   0  0  0  0  0  3  0  0  0  0  0  0
  -23.6470   -8.1620   22.1670 C   0  0  0  0  0  3  0  0  0  0  0  0
  -22.4670   -7.9160   21.4250 C   0  0  0  0  0  0  0  0  0  0  0  0
  -22.0270   -8.8750   20.4950 C   0  0  0  0  0  3  0  0  0  0  0  0
  -22.7350  -10.0760   20.3180 C   0  0  0  0  0  3  0  0  0  0  0  0
  -21.7300   -6.7600   21.5110 O   0  0  0  0  0  0  0  0  0  0  0  0
  -21.6940   -6.0130   22.6620 C   0  0  0  0  0  0  0  0  0  0  0  0
  -21.2390   -6.5530   23.8850 C   0  0  0  0  0  3  0  0  0  0  0  0
  -21.1530   -5.7310   25.0280 C   0  0  0  0  0  3  0  0  0  0  0  0
  -21.5110   -4.3730   24.9480 C   0  0  0  0  0  0  0  0  0  0  0  0
  -21.9580   -3.8330   23.7290 C   0  0  0  0  0  3  0  0  0  0  0  0
  -22.0460   -4.6500   22.5880 C   0  0  0  0  0  0  0  0  0  0  0  0
  -22.4580   -4.1210   21.4110 F   0  0  0  0  0  0  0  0  0  0  0  0
  -21.4200   -3.5810   26.0420 F   0  0  0  0  0  0  0  0  0  0  0  0
  -22.7270  -13.4160   21.2740 C   0  0  0  0  0  0  0  0  0  0  0  0
  -22.0330  -12.6950   22.1490 N   0  0  0  0  0  0  0  0  0  0  0  0
  -22.2610  -14.4430   20.7840 O   0  0  0  0  0  0  0  0  0  0  0  0
  -22.4250  -11.8650   22.5680 H   0  0  0  0  0  0  0  0  0  0  0  0
  -21.0990  -12.9800   22.4060 H   0  0  0  0  0  0  0  0  0  0  0  0
  -25.3070  -15.1310   20.4120 N   0  0  0  0  0  0  0  0  0  0  0  0
  -24.5350  -15.7700   20.5650 H   0  0  0  0  0  0  0  0  0  0  0  0
  -26.1390  -15.5920   20.0680 H   0  0  0  0  0  0  0  0  0  0  0  0
  -28.7500  -23.4580   19.9890 C   0  0  0  0  0  2  0  0  0  0  0  0
  -27.9430  -24.7810   20.5990 C   0  0  0  0  0  2  0  0  0  0  0  0
  -28.1610  -26.2490   20.2030 O   0  0  0  0  0  0  0  0  0  0  0  0
  -24.5660  -31.8980   23.2090 C   0  0  0  0  0  0  0  0  0  0  0  0
  -27.0820  -27.1830   20.1990 C   0  0  0  0  0  0  0  0  0  0  0  0
  -23.3340  -30.4990   21.5920 C   0  0  0  0  0  3  0  0  0  0  0  0
  -24.7550  -28.9000   20.1740 C   0  0  0  0  0  0  0  0  0  0  0  0
  -25.8850  -30.7540   21.3960 C   0  0  0  0  0  2  0  0  0  0  0  0
  -25.9410  -29.3590   20.7610 C   0  0  0  0  0  0  0  0  0  0  0  0
  -27.1080  -28.5170   20.7540 C   0  0  0  0  0  3  0  0  0  0  0  0
  -25.8720  -26.8050   19.5800 C   0  0  0  0  0  3  0  0  0  0  0  0
  -24.7290  -27.6320   19.5710 C   0  0  0  0  0  3  0  0  0  0  0  0
  -23.5340  -29.8030   20.2190 C   0  0  0  0  0  2  0  0  0  0  0  0
  -24.6150  -31.0710   22.1210 N   0  0  0  0  0  0  0  0  0  0  0  0
  -23.4880  -32.1970   23.7450 O   0  0  0  0  0  0  0  0  0  0  0  0
  -22.6570  -29.5070   22.5690 C   0  0  0  0  0  0  0  0  0  0  0  0
  -21.3280  -29.3440   22.4490 N   0  0  0  0  0  0  0  0  0  0  0  0
  -23.3290  -28.8850   23.3960 O   0  0  0  0  0  0  0  0  0  0  0  0
  -20.8440  -29.8960   21.7550 H   0  0  0  0  0  0  0  0  0  0  0  0
  -17.9380  -28.1860   22.9810 C   0  0  0  0  0  0  0  0  0  0  0  0
  -20.5010  -28.4240   23.2350 C   0  0  0  0  0  3  0  0  0  0  0  0
  -20.5850  -26.9850   22.6750 C   0  0  0  0  0  2  0  0  0  0  0  0
  -19.4740  -26.6620   21.6690 C   0  0  0  0  0  2  0  0  0  0  0  0
  -18.0970  -26.8280   22.3190 C   0  0  0  0  0  2  0  0  0  0  0  0
  -19.0660  -28.9420   23.3970 C   0  0  0  0  0  0  0  0  0  0  0  0
  -18.8620  -30.2130   23.9770 C   0  0  0  0  0  3  0  0  0  0  0  0
  -17.5630  -30.7270   24.1470 C   0  0  0  0  0  3  0  0  0  0  0  0
  -16.4500  -29.9680   23.7470 C   0  0  0  0  0  3  0  0  0  0  0  0
  -16.6380  -28.7000   23.1700 C   0  0  0  0  0  3  0  0  0  0  0  0
  -25.8570  -32.5220   23.8190 C   0  0  0  0  0  3  0  0  0  0  0  0
  -26.3830  -31.7440   25.0880 C   0  0  1  0  0  0  0  0  0  0  0  0
  -25.3000  -31.5100   26.1670 C   0  0  0  0  0  1  0  0  0  0  0  0
  -26.9550  -30.3650   24.6890 C   0  0  0  0  0  1  0  0  0  0  0  0
  -27.5450  -32.5310   25.7390 C   0  0  0  0  0  1  0  0  0  0  0  0
  -25.5590  -33.9220   24.1610 N   0  0  0  0  0  0  0  0  0  0  0  0
  -25.8930  -34.9790   23.4090 C   0  0  0  0  0  0  0  0  0  0  0  0
  -26.5510  -34.8790   22.3700 O   0  0  0  0  0  0  0  0  0  0  0  0
  -24.9720  -34.0730   24.9680 H   0  0  0  0  0  0  0  0  0  0  0  0
  -24.1840  -36.7970   23.0800 C   0  0  0  0  0  1  0  0  0  0  0  0
  -25.4220  -36.3680   23.8830 C   0  0  0  0  0  3  0  0  0  0  0  0
  -27.5660  -37.2220   24.7220 C   0  0  0  0  0  1  0  0  0  0  0  0
  -26.4670  -37.4110   23.7800 N   0  0  0  0  0  0  0  0  0  0  0  0
  -26.0710  -38.3350   23.9370 H   0  0  0  0  0  0  0  0  0  0  0  0
  1  6  1  0
  2  1  2  0
  2  7  1  0
  4  3  1  0
  4  5  1  0
  5  9  1  0
  6 13  1  0
  6  3  2  0
  7 12  1  0
  7  4  2  0
  8  5  2  0
  8 10  1  0
  9 11  1  0
 10 11  1  0
 12  8  1  0
 14 13  1  0
 15 20  1  0
 16 17  1  0
 16 15  1  0
 18 17  1  0
 18 25  1  0
 18 19  1  0
 20 14  1  0
 20 19  1  0
 21 14  2  0
 22 23  2  0
 23 42  1  0
 24 23  1  0
 24 27  1  0
 25 26  1  0
 25 22  1  0
 26 24  2  0
 27 28  1  0
 28 29  2  0
 30 33  1  0
 30 29  1  0
 31 30  2  0
 32 31  1  0
 32 27  2  0
 33 34  1  0
 34 35  1  0
 35 36  2  0
 37 36  1  0
 37 41  1  0
 38 37  2  0
 39 34  2  0
 39 38  1  0
 40 39  1  0
 42 43  1  0
 43 46  1  0
 43 45  1  0
 44 42  2  0
 47 48  1  0
 47 22  1  0
 49 47  1  0
 50 51  1  0
 50 12  1  0
 52 51  1  0
 53 64  2  0
 54 52  1  0
 54 59  1  0
 55 63  1  0
 55 65  1  0
 56 62  1  0
 56 58  1  0
 57 63  1  0
 58 57  1  0
 59 58  2  0
 60 54  2  0
 61 60  1  0
 61 56  2  0
 62 55  1  0
 63 53  1  0
 65 67  2  0
 66 65  1  0
 68 66  1  0
 69 78  2  0
 69 74  1  0
 70 66  1  0
 70 74  1  0
 71 70  1  0
 72 73  1  0
 72 71  1  0
 73 69  1  0
 74 75  2  0
 75 76  1  0
 77 76  2  0
 78 77  1  0
 79 53  1  0
 79 84  1  0
 79 80  1  0
 80 83  1  1
 80 81  1  0
 82 80  1  0
 84 87  1  0
 85 89  1  0
 85 84  1  0
 86 85  2  0
 89 88  1  0
 91 89  1  0
 91 92  1  0
 91 90  1  0
M  ISO  4  13 100  14 100  51 101  52 101
M  END
>  <TORSDO>  (90) 
F 19

>  <SCORE>  (90) 
-13.800

>  <name>  (90) 
91

>  <ligand_id>  (90) 
91

>  <original_smiles>  (90) 
[H]c1c([H])c([H])c2c(c1[H])C([H])([H])C([H])([H])C([H])([H])C2([H])N([H])C(=O)C1([H])N(C(=O)C([H])(N([H])C(=O)C([H])(N([H])C([H])([H])[H])C([H])([H])[H])C(C([H])([H])[H])(C([H])([H])[H])C([H])([H])[H])C([H])([H])c2c([H])c(OC([H])([H])C([H])([H])n3c4c(c5c([H])c(C([H])([H])C(=O)N6C([H])([H])C([H])([H])C([H])([H])C([H])(n7nc(-c8c([H])c([H])c(Oc9c([H])c([H])c(F)c([H])c9F)c([H])c8[H])c(C(=O)N([H])[H])c7N([H])[H])C6([H])[H])c([H])c([H])c53)C([H])([H])C([H])([H])C4([H])[H])c([H])c([H])c2C1([H])[H]

>  <smiles>  (90) 
[H]c1c([H])c([H])c2c(c1[H])C([H])([H])C([H])([H])C([H])([H])C2([H])N([H])C(=O)C1([H])N(C(=O)C([H])(N([H])C(=O)C([H])(N([H])C([H])([H])[H])C([H])([H])[H])C(C([H])([H])[H])(C([H])([H])[H])C([H])([H])[H])C([H])([H])c2c([H])c(OC([H])([H])C([H])([H])n3c4c(c5c([H])c(C([H])([H])C(=O)N6C([H])([H])C([H])([H])C([H])([H])C([H])(n7nc(-c8c([H])c([H])c(Oc9c([H])c([H])c(F)c([H])c9F)c([H])c8[H])c(C(=O)N([H])[H])c7N([H])[H])C6([H])[H])c([H])c([H])c53)C([H])([H])C([H])([H])C4([H])[H])c([H])c([H])c2C1([H])[H]

$$$$
92:0:0
     RDKit          3D

 92100  0  0  1  0  0  0  0  0999 V2000
  -29.1600  -20.6600   21.0600 N   0  0  0  0  0  4  0  0  0  0  0  0
  -28.3550  -20.5960   21.6650 H   0  0  0  0  0  0  0  0  0  0  0  0
  -29.9490  -20.8680   21.6500 H   0  0  0  0  0  0  0  0  0  0  0  0
  -30.3330  -19.3300   19.2430 C   0  0  0  0  0  1  0  0  0  0  0  0
  -29.3920  -19.3020   20.4720 C   0  0  0  0  0  3  0  0  0  0  0  0
  -31.8030  -17.7890   23.0680 C   0  0  0  0  0  2  0  0  0  0  0  0
  -31.2530  -16.5060   22.4480 C   0  0  0  0  0  2  0  0  0  0  0  0
  -30.9590  -18.9350   22.5030 C   0  0  0  0  0  2  0  0  0  0  0  0
  -30.4720  -16.9330   21.1940 C   0  0  0  0  0  3  0  0  0  0  0  0
  -29.8680  -18.3150   21.5980 C   0  0  0  0  0  3  0  0  0  0  0  0
  -29.4940  -15.8070   20.7280 C   0  0  0  0  0  2  0  0  0  0  0  0
  -30.1920  -14.6010   20.0350 C   0  0  0  0  0  0  0  0  0  0  0  0
  -29.9540  -12.4090   18.9190 C   0  0  0  0  0  2  0  0  0  0  0  0
  -28.9260  -12.5440   17.7760 C   0  0  0  0  0  2  0  0  0  0  0  0
  -27.4970  -12.3070   18.3040 C   0  0  0  0  0  2  0  0  0  0  0  0
  -27.1890  -13.1320   19.5820 C   0  0  0  0  0  3  0  0  0  0  0  0
  -28.3290  -13.0060   20.6170 C   0  0  0  0  0  2  0  0  0  0  0  0
  -29.5880  -13.3820   19.9620 N   0  0  0  0  0  0  0  0  0  0  0  0
  -31.2540  -14.8190   19.4460 O   0  0  0  0  0  0  0  0  0  0  0  0
  -24.8140  -13.5730   20.4690 C   0  0  0  0  0  0  0  0  0  0  0  0
  -23.8270  -12.7290   20.9040 C   0  0  0  0  0  0  0  0  0  0  0  0
  -24.3720  -11.4110   20.8240 C   0  0  0  0  0  0  0  0  0  0  0  0
  -25.8950  -12.7640   20.1550 N   0  0  0  0  0  0  0  0  0  0  0  0
  -25.6360  -11.4580   20.4240 N   0  0  0  0  0  0  0  0  0  0  0  0
  -23.7420  -10.1020   21.0510 C   0  0  0  0  0  0  0  0  0  0  0  0
  -24.2470   -9.1980   22.0110 C   0  0  0  0  0  3  0  0  0  0  0  0
  -23.6160   -7.9540   22.2250 C   0  0  0  0  0  3  0  0  0  0  0  0
  -22.4660   -7.6050   21.4770 C   0  0  0  0  0  0  0  0  0  0  0  0
  -21.9820   -8.4990   20.5060 C   0  0  0  0  0  3  0  0  0  0  0  0
  -22.6150   -9.7340   20.2910 C   0  0  0  0  0  3  0  0  0  0  0  0
  -21.8020   -6.4070   21.5970 O   0  0  0  0  0  0  0  0  0  0  0  0
  -21.7520   -5.7290   22.7890 C   0  0  0  0  0  0  0  0  0  0  0  0
  -21.2030   -6.3080   23.9540 C   0  0  0  0  0  3  0  0  0  0  0  0
  -21.1090   -5.5510   25.1390 C   0  0  0  0  0  3  0  0  0  0  0  0
  -21.5520   -4.2150   25.1590 C   0  0  0  0  0  0  0  0  0  0  0  0
  -22.0930   -3.6350   23.9990 C   0  0  0  0  0  3  0  0  0  0  0  0
  -22.1900   -4.3890   22.8160 C   0  0  0  0  0  0  0  0  0  0  0  0
  -22.6930   -3.8190   21.6950 F   0  0  0  0  0  0  0  0  0  0  0  0
  -21.4540   -3.4850   26.2940 F   0  0  0  0  0  0  0  0  0  0  0  0
  -22.4250  -13.1130   21.2820 C   0  0  0  0  0  0  0  0  0  0  0  0
  -21.8110  -12.3620   22.1890 N   0  0  0  0  0  0  0  0  0  0  0  0
  -21.8850  -14.1100   20.8070 O   0  0  0  0  0  0  0  0  0  0  0  0
  -22.2620  -11.5540   22.5920 H   0  0  0  0  0  0  0  0  0  0  0  0
  -20.8740  -12.5990   22.4850 H   0  0  0  0  0  0  0  0  0  0  0  0
  -24.8800  -14.9530   20.2950 N   0  0  0  0  0  0  0  0  0  0  0  0
  -24.0850  -15.5610   20.4590 H   0  0  0  0  0  0  0  0  0  0  0  0
  -25.6790  -15.4400   19.9120 H   0  0  0  0  0  0  0  0  0  0  0  0
  -28.9680  -21.8240   20.1460 C   0  0  0  0  0  2  0  0  0  0  0  0
  -28.6990  -23.1470   20.9130 C   0  0  0  0  0  2  0  0  0  0  0  0
  -28.6330  -24.4210   20.0270 C   0  0  0  0  0  2  0  0  0  0  0  0
  -28.3970  -25.7140   20.8450 C   0  0  0  0  0  2  0  0  0  0  0  0
  -28.4150  -26.9050   20.0410 O   0  0  0  0  0  0  0  0  0  0  0  0
  -24.6130  -32.0120   23.2400 C   0  0  0  0  0  0  0  0  0  0  0  0
  -27.2510  -27.6370   20.0710 C   0  0  0  0  0  0  0  0  0  0  0  0
  -23.3940  -30.6200   21.5980 C   0  0  0  0  0  3  0  0  0  0  0  0
  -24.8420  -29.1110   20.1340 C   0  0  0  0  0  0  0  0  0  0  0  0
  -25.9130  -31.0080   21.3640 C   0  0  0  0  0  2  0  0  0  0  0  0
  -26.0030  -29.6460   20.7060 C   0  0  0  0  0  0  0  0  0  0  0  0
  -27.2140  -28.9170   20.6670 C   0  0  0  0  0  3  0  0  0  0  0  0
  -26.0750  -27.1100   19.4990 C   0  0  0  0  0  3  0  0  0  0  0  0
  -24.8710  -27.8430   19.5280 C   0  0  0  0  0  3  0  0  0  0  0  0
  -23.5890  -29.9560   20.2080 C   0  0  0  0  0  2  0  0  0  0  0  0
  -24.6590  -31.2280   22.1260 N   0  0  0  0  0  0  0  0  0  0  0  0
  -23.5370  -32.2660   23.8000 O   0  0  0  0  0  0  0  0  0  0  0  0
  -22.7690  -29.5810   22.5550 C   0  0  0  0  0  0  0  0  0  0  0  0
  -21.4480  -29.3680   22.4260 N   0  0  0  0  0  0  0  0  0  0  0  0
  -23.4660  -28.9700   23.3690 O   0  0  0  0  0  0  0  0  0  0  0  0
  -20.9470  -29.9140   21.7390 H   0  0  0  0  0  0  0  0  0  0  0  0
  -18.1040  -28.0860   22.9060 C   0  0  0  0  0  0  0  0  0  0  0  0
  -20.6530  -28.4090   23.1920 C   0  0  0  0  0  3  0  0  0  0  0  0
  -20.7960  -26.9820   22.6170 C   0  0  0  0  0  2  0  0  0  0  0  0
  -19.7100  -26.6300   21.5950 C   0  0  0  0  0  2  0  0  0  0  0  0
  -18.3210  -26.7410   22.2300 C   0  0  0  0  0  2  0  0  0  0  0  0
  -19.2000  -28.8760   23.3420 C   0  0  0  0  0  0  0  0  0  0  0  0
  -18.9460  -30.1340   23.9310 C   0  0  0  0  0  3  0  0  0  0  0  0
  -17.6290  -30.6030   24.0880 C   0  0  0  0  0  3  0  0  0  0  0  0
  -16.5470  -29.8080   23.6690 C   0  0  0  0  0  3  0  0  0  0  0  0
  -16.7850  -28.5510   23.0850 C   0  0  0  0  0  3  0  0  0  0  0  0
  -25.9020  -32.6470   23.8480 C   0  0  0  0  0  3  0  0  0  0  0  0
  -25.5890  -34.0400   24.1930 N   0  0  0  0  0  0  0  0  0  0  0  0
  -25.8990  -35.1000   23.4340 C   0  0  0  0  0  0  0  0  0  0  0  0
  -26.5490  -35.0080   22.3890 O   0  0  0  0  0  0  0  0  0  0  0  0
  -25.0110  -34.1830   25.0070 H   0  0  0  0  0  0  0  0  0  0  0  0
  -24.1410  -36.8730   23.1320 C   0  0  0  0  0  1  0  0  0  0  0  0
  -25.4070  -36.4800   23.9080 C   0  0  0  0  0  3  0  0  0  0  0  0
  -27.5520  -37.3870   24.6890 C   0  0  0  0  0  1  0  0  0  0  0  0
  -26.4260  -37.5440   23.7730 N   0  0  0  0  0  0  0  0  0  0  0  0
  -26.0120  -38.4590   23.9350 H   0  0  0  0  0  0  0  0  0  0  0  0
  -26.4460  -31.8670   25.1080 C   0  0  1  0  0  0  0  0  0  0  0  0
  -25.3670  -31.5910   26.1810 C   0  0  0  0  0  1  0  0  0  0  0  0
  -27.0530  -30.5070   24.6900 C   0  0  0  0  0  1  0  0  0  0  0  0
  -27.5870  -32.6740   25.7720 C   0  0  0  0  0  1  0  0  0  0  0  0
  1  3  1  0
  1  2  1  0
  5  4  1  0
  5  1  1  0
  7  6  1  0
  8  6  1  0
  9 11  1  0
  9 10  1  0
  9  7  1  0
 10  5  1  0
 10  8  1  0
 12 11  1  0
 13 18  1  0
 14 15  1  0
 14 13  1  0
 16 15  1  0
 16 23  1  0
 16 17  1  0
 18 12  1  0
 18 17  1  0
 19 12  2  0
 20 21  2  0
 21 40  1  0
 22 21  1  0
 22 25  1  0
 23 24  1  0
 23 20  1  0
 24 22  2  0
 25 26  1  0
 26 27  2  0
 28 31  1  0
 28 27  1  0
 29 28  2  0
 30 29  1  0
 30 25  2  0
 31 32  1  0
 32 37  2  0
 32 33  1  0
 33 34  2  0
 34 35  1  0
 35 39  1  0
 36 35  2  0
 37 36  1  0
 38 37  1  0
 40 41  1  0
 41 44  1  0
 41 43  1  0
 42 40  2  0
 45 46  1  0
 45 20  1  0
 47 45  1  0
 48 49  1  0
 48  1  1  0
 50 51  1  0
 50 49  1  0
 52 54  1  0
 52 51  1  0
 53 64  2  0
 54 59  1  0
 55 63  1  0
 55 65  1  0
 56 62  1  0
 56 58  1  0
 57 63  1  0
 58 57  1  0
 59 58  2  0
 60 61  1  0
 60 54  2  0
 61 56  2  0
 62 55  1  0
 63 53  1  0
 65 67  2  0
 66 65  1  0
 68 66  1  0
 69 78  2  0
 69 74  1  0
 70 66  1  0
 70 74  1  0
 71 70  1  0
 72 73  1  0
 72 71  1  0
 73 69  1  0
 74 75  2  0
 75 76  1  0
 77 76  2  0
 78 77  1  0
 79 53  1  0
 79 80  1  0
 79 89  1  0
 80 83  1  0
 81 85  1  0
 81 80  1  0
 82 81  2  0
 85 84  1  0
 87 85  1  0
 87 88  1  0
 87 86  1  0
 89 92  1  1
 89 90  1  0
 91 89  1  0
M  ISO  4  11 100  12 100  51 101  52 101
M  END
>  <TORSDO>  (91) 
F 23

>  <SCORE>  (91) 
-10.585

>  <name>  (91) 
92

>  <ligand_id>  (91) 
92

>  <original_smiles>  (91) 
[H]c1c([H])c([H])c2c(c1[H])C([H])([H])C([H])([H])C([H])([H])C2([H])N([H])C(=O)C1([H])N(C(=O)C([H])(N([H])C(=O)C([H])(N([H])C([H])([H])[H])C([H])([H])[H])C(C([H])([H])[H])(C([H])([H])[H])C([H])([H])[H])C([H])([H])c2c([H])c(OC([H])([H])C([H])([H])C([H])([H])C([H])([H])[N+]([H])([H])C([H])(C([H])([H])[H])C3([H])C([H])([H])C([H])([H])C([H])([H])C3([H])C([H])([H])C(=O)N3C([H])([H])C([H])([H])C([H])([H])C([H])(n4nc(-c5c([H])c([H])c(Oc6c([H])c([H])c(F)c([H])c6F)c([H])c5[H])c(C(=O)N([H])[H])c4N([H])[H])C3([H])[H])c([H])c([H])c2C1([H])[H]

>  <smiles>  (91) 
[H]c1c([H])c([H])c2c(c1[H])C([H])([H])C([H])([H])C([H])([H])C2([H])N([H])C(=O)C1([H])N(C(=O)C([H])(N([H])C(=O)C([H])(N([H])C([H])([H])[H])C([H])([H])[H])C(C([H])([H])[H])(C([H])([H])[H])C([H])([H])[H])C([H])([H])c2c([H])c(OC([H])([H])C([H])([H])C([H])([H])C([H])([H])[N+]([H])([H])C([H])(C([H])([H])[H])C3([H])C([H])([H])C([H])([H])C([H])([H])C3([H])C([H])([H])C(=O)N3C([H])([H])C([H])([H])C([H])([H])C([H])(n4nc(-c5c([H])c([H])c(Oc6c([H])c([H])c(F)c([H])c6F)c([H])c5[H])c(C(=O)N([H])[H])c4N([H])[H])C3([H])[H])c([H])c([H])c2C1([H])[H]

$$$$
93:0:0
     RDKit          3D

 91101  0  0  1  0  0  0  0  0999 V2000
  -29.8670  -21.8640   24.0400 C   0  0  0  0  0  2  0  0  0  0  0  0
  -31.0110  -22.5760   23.3110 C   0  0  0  0  0  2  0  0  0  0  0  0
  -29.2910  -20.8420   23.0380 C   0  0  0  0  0  2  0  0  0  0  0  0
  -29.2630  -22.7940   19.3890 C   0  0  0  0  0  2  0  0  0  0  0  0
  -30.6210  -22.4970   21.8540 C   0  0  0  0  0  3  0  0  0  0  0  0
  -28.8680  -22.1270   20.7270 C   0  0  0  0  0  3  0  0  0  0  0  0
  -29.4280  -23.3790   21.4050 C   0  0  0  0  0  3  0  0  0  0  0  0
  -29.3710  -24.1820   20.0780 C   0  0  0  0  0  3  0  0  0  0  0  0
  -29.7820  -21.2160   21.6200 C   0  0  2  0  0  0  0  0  0  0  0  0
  -28.2310  -25.2110   19.8080 C   0  0  0  0  0  2  0  0  0  0  0  0
  -28.4140  -26.6240   20.1410 O   0  0  0  0  0  0  0  0  0  0  0  0
  -24.6610  -31.9190   23.2240 C   0  0  0  0  0  0  0  0  0  0  0  0
  -27.2710  -27.4300   20.1080 C   0  0  0  0  0  0  0  0  0  0  0  0
  -23.4450  -30.5220   21.5910 C   0  0  0  0  0  3  0  0  0  0  0  0
  -24.8870  -28.9970   20.1430 C   0  0  0  0  0  0  0  0  0  0  0  0
  -25.9780  -30.8660   21.3790 C   0  0  0  0  0  2  0  0  0  0  0  0
  -26.0570  -29.4960   20.7270 C   0  0  0  0  0  0  0  0  0  0  0  0
  -27.2520  -28.7220   20.7050 C   0  0  0  0  0  3  0  0  0  0  0  0
  -26.0710  -26.9780   19.5020 C   0  0  0  0  0  3  0  0  0  0  0  0
  -24.8930  -27.7400   19.5250 C   0  0  0  0  0  3  0  0  0  0  0  0
  -23.6450  -29.8580   20.2050 C   0  0  0  0  0  2  0  0  0  0  0  0
  -24.7140  -31.1180   22.1220 N   0  0  0  0  0  0  0  0  0  0  0  0
  -23.5830  -32.1880   23.7720 O   0  0  0  0  0  0  0  0  0  0  0  0
  -22.8010  -29.4940   22.5510 C   0  0  0  0  0  0  0  0  0  0  0  0
  -21.4770  -29.3020   22.4280 N   0  0  0  0  0  0  0  0  0  0  0  0
  -23.4910  -28.8730   23.3650 O   0  0  0  0  0  0  0  0  0  0  0  0
  -20.9810  -29.8560   21.7440 H   0  0  0  0  0  0  0  0  0  0  0  0
  -18.1140  -28.0730   22.9320 C   0  0  0  0  0  0  0  0  0  0  0  0
  -20.6700  -28.3580   23.2020 C   0  0  0  0  0  3  0  0  0  0  0  0
  -20.7860  -26.9260   22.6300 C   0  0  0  0  0  2  0  0  0  0  0  0
  -19.6880  -26.5900   21.6170 C   0  0  0  0  0  2  0  0  0  0  0  0
  -18.3050  -26.7230   22.2600 C   0  0  0  0  0  2  0  0  0  0  0  0
  -19.2250  -28.8480   23.3590 C   0  0  0  0  0  0  0  0  0  0  0  0
  -18.9940  -30.1100   23.9460 C   0  0  0  0  0  3  0  0  0  0  0  0
  -17.6840  -30.5990   24.1100 C   0  0  0  0  0  3  0  0  0  0  0  0
  -16.5880  -29.8220   23.7000 C   0  0  0  0  0  3  0  0  0  0  0  0
  -16.8040  -28.5600   23.1160 C   0  0  0  0  0  3  0  0  0  0  0  0
  -25.9490  -32.5520   23.8350 C   0  0  0  0  0  3  0  0  0  0  0  0
  -25.6320  -33.9420   24.1880 N   0  0  0  0  0  0  0  0  0  0  0  0
  -25.9250  -35.0070   23.4300 C   0  0  0  0  0  0  0  0  0  0  0  0
  -26.5640  -34.9220   22.3770 O   0  0  0  0  0  0  0  0  0  0  0  0
  -25.0610  -34.0820   25.0100 H   0  0  0  0  0  0  0  0  0  0  0  0
  -24.1550  -36.7730   23.1610 C   0  0  0  0  0  1  0  0  0  0  0  0
  -25.4350  -36.3840   23.9160 C   0  0  0  0  0  3  0  0  0  0  0  0
  -27.5870  -37.3000   24.6640 C   0  0  0  0  0  1  0  0  0  0  0  0
  -26.4450  -37.4550   23.7680 N   0  0  0  0  0  0  0  0  0  0  0  0
  -26.0300  -38.3680   23.9380 H   0  0  0  0  0  0  0  0  0  0  0  0
  -26.4920  -31.7660   25.0910 C   0  0  1  0  0  0  0  0  0  0  0  0
  -25.4180  -31.5030   26.1710 C   0  0  0  0  0  1  0  0  0  0  0  0
  -27.0810  -30.4000   24.6690 C   0  0  0  0  0  1  0  0  0  0  0  0
  -27.6460  -32.5610   25.7460 C   0  0  0  0  0  1  0  0  0  0  0  0
  -30.5080  -19.9640   20.9890 C   0  0  0  0  0  3  0  0  0  0  0  0
  -29.7520  -18.5770   20.9390 C   0  0  0  0  0  3  0  0  0  0  0  0
  -30.6440  -17.3190   20.6230 C   0  0  0  0  0  3  0  0  0  0  0  0
  -30.0190  -15.9100   20.9520 C   0  0  0  0  0  3  0  0  0  0  0  0
  -30.7540  -14.6550   20.3660 C   0  0  0  0  0  0  0  0  0  0  0  0
  -30.4790  -12.4740   19.2140 C   0  0  0  0  0  2  0  0  0  0  0  0
  -29.5320  -12.6690   18.0100 C   0  0  0  0  0  2  0  0  0  0  0  0
  -28.0600  -12.5160   18.4420 C   0  0  0  0  0  2  0  0  0  0  0  0
  -27.7210  -13.3530   19.7040 C   0  0  0  0  0  3  0  0  0  0  0  0
  -28.7820  -13.1550   20.8100 C   0  0  0  0  0  2  0  0  0  0  0  0
  -30.1000  -13.4620   20.2400 N   0  0  0  0  0  0  0  0  0  0  0  0
  -31.8900  -14.8100   19.9100 O   0  0  0  0  0  0  0  0  0  0  0  0
  -25.3240  -13.9570   20.4150 C   0  0  0  0  0  0  0  0  0  0  0  0
  -24.2570  -13.1860   20.7890 C   0  0  0  0  0  0  0  0  0  0  0  0
  -24.7210  -11.8340   20.7670 C   0  0  0  0  0  0  0  0  0  0  0  0
  -26.3700  -13.0760   20.1890 N   0  0  0  0  0  0  0  0  0  0  0  0
  -26.0110  -11.7950   20.4590 N   0  0  0  0  0  0  0  0  0  0  0  0
  -23.9970  -10.5720   20.9640 C   0  0  0  0  0  0  0  0  0  0  0  0
  -24.4280   -9.6130   21.9070 C   0  0  0  0  0  3  0  0  0  0  0  0
  -23.7050   -8.4150   22.0920 C   0  0  0  0  0  3  0  0  0  0  0  0
  -22.5350   -8.1680   21.3340 C   0  0  0  0  0  0  0  0  0  0  0  0
  -22.1240   -9.1160   20.3810 C   0  0  0  0  0  3  0  0  0  0  0  0
  -22.8470  -10.3050   20.1940 C   0  0  0  0  0  3  0  0  0  0  0  0
  -21.7840   -7.0220   21.4280 O   0  0  0  0  0  0  0  0  0  0  0  0
  -21.7260   -6.2920   22.5880 C   0  0  0  0  0  0  0  0  0  0  0  0
  -21.2890   -6.8600   23.8040 C   0  0  0  0  0  3  0  0  0  0  0  0
  -21.1780   -6.0560   24.9570 C   0  0  0  0  0  3  0  0  0  0  0  0
  -21.4940   -4.6860   24.8940 C   0  0  0  0  0  0  0  0  0  0  0  0
  -21.9240   -4.1180   23.6820 C   0  0  0  0  0  3  0  0  0  0  0  0
  -22.0360   -4.9180   22.5310 C   0  0  0  0  0  0  0  0  0  0  0  0
  -22.4310   -4.3610   21.3610 F   0  0  0  0  0  0  0  0  0  0  0  0
  -21.3810   -3.9120   25.9980 F   0  0  0  0  0  0  0  0  0  0  0  0
  -22.8590  -13.6620   21.0580 C   0  0  0  0  0  0  0  0  0  0  0  0
  -22.1320  -12.9700   21.9290 N   0  0  0  0  0  0  0  0  0  0  0  0
  -22.4190  -14.6830   20.5300 O   0  0  0  0  0  0  0  0  0  0  0  0
  -22.5010  -12.1440   22.3770 H   0  0  0  0  0  0  0  0  0  0  0  0
  -21.1940  -13.2710   22.1510 H   0  0  0  0  0  0  0  0  0  0  0  0
  -25.4870  -15.3270   20.2300 N   0  0  0  0  0  0  0  0  0  0  0  0
  -24.7220  -15.9840   20.3400 H   0  0  0  0  0  0  0  0  0  0  0  0
  -26.3430  -15.7660   19.9130 H   0  0  0  0  0  0  0  0  0  0  0  0
  2  1  1  0
  3  1  1  0
  4  8  1  0
  5  2  1  0
  6  4  1  0
  6  7  1  0
  6  9  1  0
  7  5  1  0
  8  7  1  0
  9  5  1  0
  9  3  1  0
 10  8  1  0
 10 11  1  0
 12 23  2  0
 12 38  1  0
 13 11  1  0
 13 18  1  0
 14 22  1  0
 14 24  1  0
 15 21  1  0
 15 17  1  0
 16 22  1  0
 17 16  1  0
 18 17  2  0
 19 20  1  0
 19 13  2  0
 20 15  2  0
 21 14  1  0
 22 12  1  0
 24 26  2  0
 25 24  1  0
 25 29  1  0
 27 25  1  0
 28 37  2  0
 28 33  1  0
 29 33  1  0
 30 29  1  0
 31 32  1  0
 31 30  1  0
 32 28  1  0
 33 34  2  0
 34 35  1  0
 36 35  2  0
 37 36  1  0
 38 39  1  0
 38 48  1  0
 39 42  1  0
 40 44  1  0
 40 39  1  0
 41 40  2  0
 43 44  1  0
 46 44  1  0
 46 47  1  0
 46 45  1  0
 48 51  1  1
 48 49  1  0
 50 48  1  0
  9 52  1  6
 53 52  2  0
 54 53  1  0
 54 55  2  0
 56 55  1  0
 57 62  1  0
 58 59  1  0
 58 57  1  0
 59 60  1  0
 60 67  1  0
 60 61  1  0
 62 56  1  0
 62 61  1  0
 63 56  2  0
 64 65  2  0
 65 84  1  0
 66 65  1  0
 66 69  1  0
 67 64  1  0
 67 68  1  0
 68 66  2  0
 69 70  1  0
 70 71  2  0
 72 75  1  0
 72 71  1  0
 73 72  2  0
 74 73  1  0
 74 69  2  0
 75 76  1  0
 76 77  1  0
 77 78  2  0
 79 78  1  0
 79 83  1  0
 80 79  2  0
 81 76  2  0
 81 80  1  0
 82 81  1  0
 84 85  1  0
 85 88  1  0
 85 87  1  0
 86 84  2  0
 89 90  1  0
 89 64  1  0
 91 89  1  0
M  ISO  4  10 101  11 101  55 100  56 100
M  END
>  <TORSDO>  (92) 
F 21

>  <SCORE>  (92) 
-12.439

>  <name>  (92) 
93

>  <ligand_id>  (92) 
93

>  <original_smiles>  (92) 
[H]c1c([H])c([H])c2c(c1[H])C([H])([H])C([H])([H])C([H])([H])C2([H])N([H])C(=O)C1([H])N(C(=O)C([H])(N([H])C(=O)C([H])(N([H])C([H])([H])[H])C([H])([H])[H])C(C([H])([H])[H])(C([H])([H])[H])C([H])([H])[H])C([H])([H])c2c([H])c(OC([H])([H])C3([H])C([H])([H])C4([H])C3([H])C3([H])C([H])([H])C([H])([H])C([H])([H])C34C([H])([H])C([H])([H])C([H])([H])C([H])([H])C(=O)N3C([H])([H])C([H])([H])C([H])([H])C([H])(n4nc(-c5c([H])c([H])c(Oc6c([H])c([H])c(F)c([H])c6F)c([H])c5[H])c(C(=O)N([H])[H])c4N([H])[H])C3([H])[H])c([H])c([H])c2C1([H])[H]

>  <smiles>  (92) 
[H]c1c([H])c([H])c2c(c1[H])C([H])([H])C([H])([H])C([H])([H])C2([H])N([H])C(=O)C1([H])N(C(=O)C([H])(N([H])C(=O)C([H])(N([H])C([H])([H])[H])C([H])([H])[H])C(C([H])([H])[H])(C([H])([H])[H])C([H])([H])[H])C([H])([H])c2c([H])c(OC([H])([H])C3([H])C([H])([H])C4([H])C3([H])C3([H])C([H])([H])C([H])([H])C([H])([H])C34C([H])([H])C([H])([H])C([H])([H])C([H])([H])C(=O)N3C([H])([H])C([H])([H])C([H])([H])C([H])(n4nc(-c5c([H])c([H])c(Oc6c([H])c([H])c(F)c([H])c6F)c([H])c5[H])c(C(=O)N([H])[H])c4N([H])[H])C3([H])[H])c([H])c([H])c2C1([H])[H]

$$$$
94:0:0
     RDKit          3D

 90 99  0  0  1  0  0  0  0  0999 V2000
  -29.9390  -19.9430   18.4980 C   0  0  0  0  0  2  0  0  0  0  0  0
  -30.4020  -18.5050   18.9930 C   0  0  0  0  0  2  0  0  0  0  0  0
  -29.5660  -22.5850   19.0770 C   0  0  0  0  0  2  0  0  0  0  0  0
  -28.9420  -19.2220   20.9370 C   0  0  0  0  0  2  0  0  0  0  0  0
  -30.0970  -21.1400   19.4990 C   0  0  0  0  0  3  0  0  0  0  0  0
  -29.9680  -18.0330   20.4270 C   0  0  0  0  0  3  0  0  0  0  0  0
  -29.3900  -20.8120   20.8170 C   0  0  0  0  0  3  0  0  0  0  0  0
  -28.9450  -23.2910   20.3380 C   0  0  0  0  0  3  0  0  0  0  0  0
  -28.4160  -21.9980   20.9990 N   0  0  0  0  0  4  0  0  0  0  0  0
  -28.2260  -22.1470   21.9790 H   0  0  0  0  0  0  0  0  0  0  0  0
  -27.5430  -21.7520   20.5600 H   0  0  0  0  0  0  0  0  0  0  0  0
  -29.5920  -16.3840   20.6060 C   0  0  0  0  0  2  0  0  0  0  0  0
  -30.4720  -15.0070   20.2660 C   0  0  0  0  0  0  0  0  0  0  0  0
  -30.3630  -12.6710   19.2680 C   0  0  0  0  0  2  0  0  0  0  0  0
  -29.3900  -12.6760   18.0630 C   0  0  0  0  0  2  0  0  0  0  0  0
  -27.9370  -12.4560   18.5250 C   0  0  0  0  0  2  0  0  0  0  0  0
  -27.5670  -13.3450   19.7390 C   0  0  0  0  0  3  0  0  0  0  0  0
  -28.6520  -13.3080   20.8350 C   0  0  0  0  0  2  0  0  0  0  0  0
  -29.9190  -13.7270   20.2220 N   0  0  0  0  0  0  0  0  0  0  0  0
  -31.6530  -15.1100   19.9120 O   0  0  0  0  0  0  0  0  0  0  0  0
  -25.2060  -13.9150   20.5500 C   0  0  0  0  0  0  0  0  0  0  0  0
  -24.1500  -13.1340   20.9360 C   0  0  0  0  0  0  0  0  0  0  0  0
  -24.6130  -11.7850   20.8720 C   0  0  0  0  0  0  0  0  0  0  0  0
  -26.2420  -13.0400   20.2680 N   0  0  0  0  0  0  0  0  0  0  0  0
  -25.8950  -11.7520   20.5270 N   0  0  0  0  0  0  0  0  0  0  0  0
  -23.8910  -10.5190   21.0620 C   0  0  0  0  0  0  0  0  0  0  0  0
  -24.3420   -9.5400   21.9740 C   0  0  0  0  0  3  0  0  0  0  0  0
  -23.6190   -8.3410   22.1530 C   0  0  0  0  0  3  0  0  0  0  0  0
  -22.4300   -8.1130   21.4200 C   0  0  0  0  0  0  0  0  0  0  0  0
  -21.9970   -9.0820   20.4970 C   0  0  0  0  0  3  0  0  0  0  0  0
  -22.7210  -10.2720   20.3160 C   0  0  0  0  0  3  0  0  0  0  0  0
  -21.6760   -6.9670   21.5090 O   0  0  0  0  0  0  0  0  0  0  0  0
  -21.6450   -6.2140   22.6550 C   0  0  0  0  0  0  0  0  0  0  0  0
  -21.2170   -6.7510   23.8880 C   0  0  0  0  0  3  0  0  0  0  0  0
  -21.1330   -5.9230   25.0260 C   0  0  0  0  0  3  0  0  0  0  0  0
  -21.4680   -4.5600   24.9310 C   0  0  0  0  0  0  0  0  0  0  0  0
  -21.8890   -4.0220   23.7030 C   0  0  0  0  0  3  0  0  0  0  0  0
  -21.9740   -4.8460   22.5670 C   0  0  0  0  0  0  0  0  0  0  0  0
  -22.3600   -4.3180   21.3800 F   0  0  0  0  0  0  0  0  0  0  0  0
  -21.3810   -3.7620   26.0220 F   0  0  0  0  0  0  0  0  0  0  0  0
  -22.7600  -13.6080   21.2480 C   0  0  0  0  0  0  0  0  0  0  0  0
  -22.0540  -12.9010   22.1240 N   0  0  0  0  0  0  0  0  0  0  0  0
  -22.3100  -14.6400   20.7510 O   0  0  0  0  0  0  0  0  0  0  0  0
  -22.4320  -12.0660   22.5480 H   0  0  0  0  0  0  0  0  0  0  0  0
  -21.1230  -13.2000   22.3760 H   0  0  0  0  0  0  0  0  0  0  0  0
  -25.3650  -15.2880   20.3920 N   0  0  0  0  0  0  0  0  0  0  0  0
  -24.6040  -15.9420   20.5400 H   0  0  0  0  0  0  0  0  0  0  0  0
  -26.2100  -15.7340   20.0580 H   0  0  0  0  0  0  0  0  0  0  0  0
  -27.9400  -24.6510   20.1480 C   0  0  0  0  0  2  0  0  0  0  0  0
  -28.2450  -26.1860   20.2310 O   0  0  0  0  0  0  0  0  0  0  0  0
  -24.6410  -31.8780   23.2660 C   0  0  0  0  0  0  0  0  0  0  0  0
  -27.1910  -27.1750   20.1840 C   0  0  0  0  0  0  0  0  0  0  0  0
  -23.4290  -30.4980   21.6230 C   0  0  0  0  0  3  0  0  0  0  0  0
  -24.8650  -28.9330   20.1800 C   0  0  0  0  0  0  0  0  0  0  0  0
  -25.9840  -30.7580   21.4460 C   0  0  0  0  0  2  0  0  0  0  0  0
  -26.0510  -29.3700   20.7840 C   0  0  0  0  0  0  0  0  0  0  0  0
  -27.2140  -28.5090   20.7670 C   0  0  0  0  0  3  0  0  0  0  0  0
  -25.9750  -26.8450   19.5430 C   0  0  0  0  0  3  0  0  0  0  0  0
  -24.8410  -27.6840   19.5430 C   0  0  0  0  0  3  0  0  0  0  0  0
  -23.6400  -29.8330   20.2390 C   0  0  0  0  0  2  0  0  0  0  0  0
  -24.7050  -31.0660   22.1670 N   0  0  0  0  0  0  0  0  0  0  0  0
  -23.5580  -32.1620   23.8010 O   0  0  0  0  0  0  0  0  0  0  0  0
  -22.7530  -29.4850   22.5820 C   0  0  0  0  0  0  0  0  0  0  0  0
  -21.4260  -29.3090   22.4510 N   0  0  0  0  0  0  0  0  0  0  0  0
  -23.4240  -28.8600   23.4060 O   0  0  0  0  0  0  0  0  0  0  0  0
  -20.9390  -29.8650   21.7610 H   0  0  0  0  0  0  0  0  0  0  0  0
  -18.0500  -28.0830   22.9340 C   0  0  0  0  0  0  0  0  0  0  0  0
  -20.6050  -28.3680   23.2180 C   0  0  0  0  0  3  0  0  0  0  0  0
  -20.7230  -26.9340   22.6490 C   0  0  0  0  0  2  0  0  0  0  0  0
  -19.6300  -26.5990   21.6280 C   0  0  0  0  0  2  0  0  0  0  0  0
  -18.2440  -26.7340   22.2610 C   0  0  0  0  0  2  0  0  0  0  0  0
  -19.1590  -28.8560   23.3690 C   0  0  0  0  0  0  0  0  0  0  0  0
  -18.9240  -30.1170   23.9590 C   0  0  0  0  0  3  0  0  0  0  0  0
  -17.6130  -30.6040   24.1180 C   0  0  0  0  0  3  0  0  0  0  0  0
  -16.5190  -29.8290   23.6980 C   0  0  0  0  0  3  0  0  0  0  0  0
  -16.7380  -28.5690   23.1120 C   0  0  0  0  0  3  0  0  0  0  0  0
  -25.9230  -32.5070   23.8900 C   0  0  0  0  0  3  0  0  0  0  0  0
  -25.6190  -33.9080   24.2240 N   0  0  0  0  0  0  0  0  0  0  0  0
  -25.9300  -34.9620   23.4590 C   0  0  0  0  0  0  0  0  0  0  0  0
  -26.5710  -34.8580   22.4100 O   0  0  0  0  0  0  0  0  0  0  0  0
  -25.0450  -34.0620   25.0410 H   0  0  0  0  0  0  0  0  0  0  0  0
  -24.1840  -36.7510   23.1690 C   0  0  0  0  0  1  0  0  0  0  0  0
  -25.4580  -36.3520   23.9300 C   0  0  0  0  0  3  0  0  0  0  0  0
  -27.6190  -37.2520   24.6740 C   0  0  0  0  0  1  0  0  0  0  0  0
  -26.4830  -37.4070   23.7700 N   0  0  0  0  0  0  0  0  0  0  0  0
  -26.0780  -38.3280   23.9240 H   0  0  0  0  0  0  0  0  0  0  0  0
  -26.4300  -31.7350   25.1710 C   0  0  1  0  0  0  0  0  0  0  0  0
  -25.3330  -31.5070   26.2370 C   0  0  0  0  0  1  0  0  0  0  0  0
  -27.0060  -30.3530   24.7880 C   0  0  0  0  0  1  0  0  0  0  0  0
  -27.5830  -32.5230   25.8340 C   0  0  0  0  0  1  0  0  0  0  0  0
  1  2  1  0
  2  6  1  0
  3  5  1  0
  3  8  1  0
  5  1  1  0
  5  7  1  0
  6 12  1  0
  6  4  1  0
  7  4  1  0
  7  9  1  0
  8 49  1  0
  8  9  1  0
  9 10  1  0
 11  9  1  0
 13 12  1  0
 14 19  1  0
 15 16  1  0
 15 14  1  0
 17 16  1  0
 17 24  1  0
 17 18  1  0
 19 13  1  0
 19 18  1  0
 20 13  2  0
 21 22  2  0
 22 41  1  0
 23 22  1  0
 23 26  1  0
 24 25  1  0
 24 21  1  0
 25 23  2  0
 26 27  1  0
 27 28  2  0
 29 32  1  0
 29 28  1  0
 30 29  2  0
 31 30  1  0
 31 26  2  0
 32 33  1  0
 33 34  1  0
 34 35  2  0
 36 35  1  0
 36 40  1  0
 37 36  2  0
 38 33  2  0
 38 37  1  0
 39 38  1  0
 41 42  1  0
 42 45  1  0
 42 44  1  0
 43 41  2  0
 46 47  1  0
 46 21  1  0
 48 46  1  0
 49 50  1  0
 51 62  2  0
 52 50  1  0
 52 57  1  0
 53 61  1  0
 53 63  1  0
 54 60  1  0
 54 56  1  0
 55 61  1  0
 56 55  1  0
 57 56  2  0
 58 52  2  0
 59 58  1  0
 59 54  2  0
 60 53  1  0
 61 51  1  0
 63 65  2  0
 64 63  1  0
 66 64  1  0
 67 76  2  0
 67 72  1  0
 68 64  1  0
 68 72  1  0
 69 68  1  0
 70 71  1  0
 70 69  1  0
 71 67  1  0
 72 73  2  0
 73 74  1  0
 75 74  2  0
 76 75  1  0
 77 51  1  0
 77 78  1  0
 77 87  1  0
 78 81  1  0
 79 83  1  0
 79 78  1  0
 80 79  2  0
 83 82  1  0
 85 86  1  0
 85 83  1  0
 85 84  1  0
 87 90  1  1
 87 88  1  0
 89 87  1  0
M  ISO  4  12 100  13 100  49 101  50 101
M  END
>  <TORSDO>  (93) 
F 18

>  <SCORE>  (93) 
-15.816

>  <name>  (93) 
94

>  <ligand_id>  (93) 
94

>  <original_smiles>  (93) 
[H]c1c([H])c([H])c2c(c1[H])C([H])([H])C([H])([H])C([H])([H])C2([H])N([H])C(=O)C1([H])N(C(=O)C([H])(N([H])C(=O)C([H])(N([H])C([H])([H])[H])C([H])([H])[H])C(C([H])([H])[H])(C([H])([H])[H])C([H])([H])[H])C([H])([H])c2c([H])c(OC([H])([H])C3([H])C([H])([H])C4([H])C([H])([H])C([H])([H])C([H])(C([H])([H])C(=O)N5C([H])([H])C([H])([H])C([H])([H])C([H])(n6nc(-c7c([H])c([H])c(Oc8c([H])c([H])c(F)c([H])c8F)c([H])c7[H])c(C(=O)N([H])[H])c6N([H])[H])C5([H])[H])C([H])([H])C4([H])[N+]3([H])[H])c([H])c([H])c2C1([H])[H]

>  <smiles>  (93) 
[H]c1c([H])c([H])c2c(c1[H])C([H])([H])C([H])([H])C([H])([H])C2([H])N([H])C(=O)C1([H])N(C(=O)C([H])(N([H])C(=O)C([H])(N([H])C([H])([H])[H])C([H])([H])[H])C(C([H])([H])[H])(C([H])([H])[H])C([H])([H])[H])C([H])([H])c2c([H])c(OC([H])([H])C3([H])C([H])([H])C4([H])C([H])([H])C([H])([H])C([H])(C([H])([H])C(=O)N5C([H])([H])C([H])([H])C([H])([H])C([H])(n6nc(-c7c([H])c([H])c(Oc8c([H])c([H])c(F)c([H])c8F)c([H])c7[H])c(C(=O)N([H])[H])c6N([H])[H])C5([H])[H])C([H])([H])C4([H])[N+]3([H])[H])c([H])c([H])c2C1([H])[H]

$$$$
95:0:0
     RDKit          3D

 93101  0  0  1  0  0  0  0  0999 V2000
  -32.5290  -18.2760   13.1370 C   0  0  0  0  0  0  0  0  0  0  0  0
  -33.6540  -17.5060   13.2090 N   0  0  0  0  0  0  0  0  0  0  0  0
  -32.1290  -18.9380   14.0950 O   0  0  0  0  0  0  0  0  0  0  0  0
  -33.8970  -17.0080   12.3620 H   0  0  0  0  0  0  0  0  0  0  0  0
  -31.6820  -16.7500   11.3380 C   0  0  0  0  0  2  0  0  0  0  0  0
  -31.0770  -16.5630    9.9380 C   0  0  0  0  0  2  0  0  0  0  0  0
  -29.7410  -18.6620   10.2630 C   0  0  0  0  0  2  0  0  0  0  0  0
  -31.6940  -18.2290   11.8100 C   0  0  0  0  0  3  0  0  0  0  0  0
  -29.6750  -17.1820    9.8360 C   0  0  0  0  0  3  0  0  0  0  0  0
  -30.1870  -18.7690   11.7500 C   0  0  0  0  0  3  0  0  0  0  0  0
  -29.0580  -16.9860    8.4420 C   0  0  0  0  0  1  0  0  0  0  0  0
  -29.8890  -20.1770   12.3660 C   0  0  0  0  0  2  0  0  0  0  0  0
  -30.7860  -21.4570   12.1580 C   0  0  0  0  0  0  0  0  0  0  0  0
  -32.3520  -23.0190   13.2630 C   0  0  0  0  0  2  0  0  0  0  0  0
  -33.0000  -22.3160   14.4770 C   0  0  0  0  0  2  0  0  0  0  0  0
  -32.1280  -22.4890   15.7380 C   0  0  0  0  0  2  0  0  0  0  0  0
  -30.6370  -22.1620   15.4780 C   0  0  0  0  0  3  0  0  0  0  0  0
  -30.1320  -22.8440   14.1980 C   0  0  0  0  0  2  0  0  0  0  0  0
  -31.0010  -22.4410   13.0880 N   0  0  0  0  0  0  0  0  0  0  0  0
  -31.5210  -21.3830   11.1710 O   0  0  0  0  0  0  0  0  0  0  0  0
  -29.6620  -21.8160   17.8280 C   0  0  0  0  0  0  0  0  0  0  0  0
  -28.8270  -22.5840   18.5930 C   0  0  0  0  0  0  0  0  0  0  0  0
  -28.4960  -23.7270   17.8010 C   0  0  0  0  0  0  0  0  0  0  0  0
  -29.8040  -22.4960   16.6300 N   0  0  0  0  0  0  0  0  0  0  0  0
  -29.0470  -23.6230   16.5980 N   0  0  0  0  0  0  0  0  0  0  0  0
  -27.7350  -24.9370   18.1410 C   0  0  0  0  0  0  0  0  0  0  0  0
  -26.3230  -24.9570   18.0850 C   0  0  0  0  0  3  0  0  0  0  0  0
  -25.6100  -26.1250   18.4290 C   0  0  0  0  0  3  0  0  0  0  0  0
  -26.3080  -27.2860   18.8390 C   0  0  0  0  0  0  0  0  0  0  0  0
  -27.7150  -27.2670   18.8700 C   0  0  0  0  0  3  0  0  0  0  0  0
  -28.4230  -26.1050   18.5230 C   0  0  0  0  0  3  0  0  0  0  0  0
  -25.7040  -28.4740   19.1710 O   0  0  0  0  0  0  0  0  0  0  0  0
  -25.5050  -28.8390   20.4780 C   0  0  0  0  0  0  0  0  0  0  0  0
  -26.4180  -29.6660   21.1710 C   0  0  0  0  0  3  0  0  0  0  0  0
  -26.1390  -30.0700   22.4920 C   0  0  0  0  0  3  0  0  0  0  0  0
  -24.9460  -29.6580   23.1180 C   0  0  0  0  0  0  0  0  0  0  0  0
  -24.0330  -28.8430   22.4260 C   0  0  0  0  0  3  0  0  0  0  0  0
  -24.3110  -28.4370   21.1080 C   0  0  0  0  0  0  0  0  0  0  0  0
  -23.4190  -27.6680   20.4410 F   0  0  0  0  0  0  0  0  0  0  0  0
  -24.6710  -30.0570   24.3820 F   0  0  0  0  0  0  0  0  0  0  0  0
  -28.4390  -22.3250   20.0180 C   0  0  0  0  0  0  0  0  0  0  0  0
  -27.1610  -22.0730   20.2690 N   0  0  0  0  0  0  0  0  0  0  0  0
  -29.2820  -22.2970   20.9140 O   0  0  0  0  0  0  0  0  0  0  0  0
  -26.4800  -22.0650   19.5260 H   0  0  0  0  0  0  0  0  0  0  0  0
  -26.8620  -21.8800   21.2150 H   0  0  0  0  0  0  0  0  0  0  0  0
  -30.3260  -20.6150   18.0590 N   0  0  0  0  0  0  0  0  0  0  0  0
  -30.2780  -20.1410   18.9540 H   0  0  0  0  0  0  0  0  0  0  0  0
  -31.0060  -20.2110   17.4290 H   0  0  0  0  0  0  0  0  0  0  0  0
  -34.4250  -17.1290   14.4250 C   0  0  0  0  0  2  0  0  0  0  0  0
  -35.9560  -16.8150   14.2130 C   0  0  0  0  0  2  0  0  0  0  0  0
  -36.2990  -15.7860   13.0610 C   0  0  0  0  0  2  0  0  0  0  0  0
  -36.2080  -14.2350   13.3350 C   0  0  0  0  0  2  0  0  0  0  0  0
  -36.9090  -13.6460   14.4700 O   0  0  0  0  0  0  0  0  0  0  0  0
  -37.6720  -14.2690   21.5580 C   0  0  0  0  0  0  0  0  0  0  0  0
  -36.2980  -13.5060   15.7120 C   0  0  0  0  0  0  0  0  0  0  0  0
  -35.7180  -12.9710   20.7840 C   0  0  0  0  0  3  0  0  0  0  0  0
  -35.1630  -13.1630   18.2980 C   0  0  0  0  0  0  0  0  0  0  0  0
  -36.6900  -14.8460   19.3350 C   0  0  0  0  0  2  0  0  0  0  0  0
  -36.2070  -14.0790   18.1140 C   0  0  0  0  0  0  0  0  0  0  0  0
  -36.7740  -14.2560   16.8260 C   0  0  0  0  0  3  0  0  0  0  0  0
  -35.2310  -12.6070   15.9270 C   0  0  0  0  0  3  0  0  0  0  0  0
  -34.6700  -12.4300   17.2080 C   0  0  0  0  0  3  0  0  0  0  0  0
  -34.6090  -13.0090   19.6960 C   0  0  0  0  0  2  0  0  0  0  0  0
  -36.7530  -14.0350   20.5780 N   0  0  0  0  0  0  0  0  0  0  0  0
  -37.6510  -13.6370   22.6250 O   0  0  0  0  0  0  0  0  0  0  0  0
  -36.3130  -11.5460   20.8410 C   0  0  0  0  0  0  0  0  0  0  0  0
  -35.4700  -10.5520   21.1700 N   0  0  0  0  0  0  0  0  0  0  0  0
  -37.4990  -11.3460   20.5660 O   0  0  0  0  0  0  0  0  0  0  0  0
  -34.5140  -10.7940   21.3910 H   0  0  0  0  0  0  0  0  0  0  0  0
  -34.0600   -7.2310   21.3730 C   0  0  0  0  0  0  0  0  0  0  0  0
  -35.8090   -9.1300   21.2460 C   0  0  0  0  0  3  0  0  0  0  0  0
  -36.1650   -8.5690   19.8490 C   0  0  0  0  0  2  0  0  0  0  0  0
  -34.9660   -7.9520   19.1220 C   0  0  0  0  0  2  0  0  0  0  0  0
  -34.3700   -6.8080   19.9450 C   0  0  0  0  0  2  0  0  0  0  0  0
  -34.7260   -8.3310   21.9780 C   0  0  0  0  0  0  0  0  0  0  0  0
  -34.3760   -8.7030   23.2940 C   0  0  0  0  0  3  0  0  0  0  0  0
  -33.3860   -7.9960   24.0040 C   0  0  0  0  0  3  0  0  0  0  0  0
  -32.7400   -6.9010   23.4050 C   0  0  0  0  0  3  0  0  0  0  0  0
  -33.0820   -6.5170   22.0950 C   0  0  0  0  0  3  0  0  0  0  0  0
  -38.7840  -15.3500   21.3960 C   0  0  0  0  0  3  0  0  0  0  0  0
  -38.6880  -16.2620   22.5460 N   0  0  0  0  0  0  0  0  0  0  0  0
  -38.5700  -17.5920   22.4510 C   0  0  0  0  0  0  0  0  0  0  0  0
  -38.6000  -18.1930   21.3740 O   0  0  0  0  0  0  0  0  0  0  0  0
  -38.6050  -15.8380   23.4580 H   0  0  0  0  0  0  0  0  0  0  0  0
  -37.0370  -19.1150   23.7410 C   0  0  0  0  0  1  0  0  0  0  0  0
  -38.3890  -18.3830   23.7620 C   0  0  0  0  0  3  0  0  0  0  0  0
  -40.7340  -18.7280   24.4110 C   0  0  0  0  0  1  0  0  0  0  0  0
  -39.4740  -19.3560   24.0160 N   0  0  0  0  0  0  0  0  0  0  0  0
  -39.2080  -20.0120   24.7440 H   0  0  0  0  0  0  0  0  0  0  0  0
  -40.2370  -14.7400   21.2930 C   0  0  1  0  0  0  0  0  0  0  0  0
  -40.8940  -14.4730   22.6670 C   0  0  0  0  0  1  0  0  0  0  0  0
  -40.2160  -13.4060   20.5130 C   0  0  0  0  0  1  0  0  0  0  0  0
  -41.1560  -15.7010   20.5020 C   0  0  0  0  0  1  0  0  0  0  0  0
  1  2  1  0
  1  3  2  0
  2 49  1  0
  4  2  1  0
  5  8  1  0
  6  5  1  0
  7 10  1  0
  8  1  1  0
  9 11  1  0
  9  6  1  0
  9  7  1  0
 10  8  1  0
 10 12  1  0
 13 12  1  0
 13 19  1  0
 14 15  1  0
 15 16  1  0
 17 18  1  0
 17 16  1  0
 17 24  1  0
 19 14  1  0
 19 18  1  0
 20 13  2  0
 21 46  1  0
 21 22  2  0
 22 41  1  0
 23 26  1  0
 23 22  1  0
 24 21  1  0
 25 24  1  0
 25 23  2  0
 26 31  1  0
 27 26  2  0
 27 28  1  0
 28 29  2  0
 29 30  1  0
 29 32  1  0
 31 30  2  0
 32 33  1  0
 33 38  2  0
 33 34  1  0
 34 35  2  0
 35 36  1  0
 36 40  1  0
 37 36  2  0
 38 37  1  0
 39 38  1  0
 41 42  1  0
 41 43  2  0
 42 45  1  0
 44 42  1  0
 46 47  1  0
 48 46  1  0
 50 49  1  0
 51 52  1  0
 51 50  1  0
 52 53  1  0
 53 55  1  0
 54 65  2  0
 55 61  2  0
 55 60  1  0
 56 66  1  0
 57 63  1  0
 58 64  1  0
 59 57  1  0
 59 58  1  0
 60 59  2  0
 61 62  1  0
 62 57  2  0
 63 56  1  0
 64 56  1  0
 64 54  1  0
 66 67  1  0
 67 69  1  0
 68 66  2  0
 70 75  2  0
 70 79  1  0
 71 67  1  0
 71 75  1  0
 72 71  1  0
 73 72  1  0
 73 74  1  0
 74 70  1  0
 75 76  1  0
 76 77  2  0
 78 77  1  0
 79 78  2  0
 80 54  1  0
 80 81  1  0
 81 84  1  0
 82 81  1  0
 82 86  1  0
 83 82  2  0
 86 85  1  0
 86 88  1  0
 88 87  1  0
 88 89  1  0
 90 80  1  0
 90 91  1  1
 92 90  1  0
 93 90  1  0
M  ISO  4  12 100  13 100  52 101  53 101
M  END
>  <TORSDO>  (94) 
F 22

>  <SCORE>  (94) 
-5.077

>  <name>  (94) 
95

>  <ligand_id>  (94) 
95

>  <original_smiles>  (94) 
[H]c1c([H])c([H])c2c(c1[H])C([H])([H])C([H])([H])C([H])([H])C2([H])N([H])C(=O)C1([H])N(C(=O)C([H])(N([H])C(=O)C([H])(N([H])C([H])([H])[H])C([H])([H])[H])C(C([H])([H])[H])(C([H])([H])[H])C([H])([H])[H])C([H])([H])c2c([H])c(OC([H])([H])C([H])([H])C([H])([H])C([H])([H])N([H])C(=O)C3([H])C([H])([H])C([H])([H])C([H])(C([H])([H])[H])C([H])([H])C3([H])C([H])([H])C(=O)N3C([H])([H])C([H])([H])C([H])([H])C([H])(n4nc(-c5c([H])c([H])c(Oc6c([H])c([H])c(F)c([H])c6F)c([H])c5[H])c(C(=O)N([H])[H])c4N([H])[H])C3([H])[H])c([H])c([H])c2C1([H])[H]

>  <smiles>  (94) 
[H]c1c([H])c([H])c2c(c1[H])C([H])([H])C([H])([H])C([H])([H])C2([H])N([H])C(=O)C1([H])N(C(=O)C([H])(N([H])C(=O)C([H])(N([H])C([H])([H])[H])C([H])([H])[H])C(C([H])([H])[H])(C([H])([H])[H])C([H])([H])[H])C([H])([H])c2c([H])c(OC([H])([H])C([H])([H])C([H])([H])C([H])([H])N([H])C(=O)C3([H])C([H])([H])C([H])([H])C([H])(C([H])([H])[H])C([H])([H])C3([H])C([H])([H])C(=O)N3C([H])([H])C([H])([H])C([H])([H])C([H])(n4nc(-c5c([H])c([H])c(Oc6c([H])c([H])c(F)c([H])c6F)c([H])c5[H])c(C(=O)N([H])[H])c4N([H])[H])C3([H])[H])c([H])c([H])c2C1([H])[H]

$$$$
96:0:0
     RDKit          3D

 95104  0  0  1  0  0  0  0  0999 V2000
  -28.9590  -21.2040   20.5910 C   0  0  0  0  0  3  0  0  0  0  0  0
  -28.7310  -18.2190   16.9730 C   0  0  0  0  0  2  0  0  0  0  0  0
  -27.5600  -17.7560   17.8280 C   0  0  0  0  0  2  0  0  0  0  0  0
  -26.7150  -21.6650   19.2060 C   0  0  0  0  0  2  0  0  0  0  0  0
  -28.8100  -19.7410   17.1620 C   0  0  0  0  0  2  0  0  0  0  0  0
  -27.5480  -18.7660   18.9660 C   0  0  0  0  0  2  0  0  0  0  0  0
  -26.6320  -20.9200   17.8890 C   0  0  0  0  0  2  0  0  0  0  0  0
  -28.2200  -21.3480   19.2320 C   0  0  0  0  0  3  0  0  0  0  0  0
  -27.8750  -20.1210   18.3200 C   0  0  2  0  0  0  0  0  0  0  0  0
  -30.0020  -20.0810   20.5700 N   0  0  0  0  0  4  0  0  0  0  0  0
  -30.3600  -20.0120   19.6320 H   0  0  0  0  0  0  0  0  0  0  0  0
  -30.7720  -20.3850   21.1440 H   0  0  0  0  0  0  0  0  0  0  0  0
  -29.6350  -18.6810   21.0640 C   0  0  0  0  0  3  0  0  0  0  0  0
  -30.5280  -17.4410   20.5690 C   0  0  0  0  0  3  0  0  0  0  0  0
  -30.1480  -15.9730   21.0990 C   0  0  0  0  0  2  0  0  0  0  0  0
  -30.8770  -14.6890   20.4990 C   0  0  0  0  0  0  0  0  0  0  0  0
  -30.6640  -12.4610   19.3850 C   0  0  0  0  0  2  0  0  0  0  0  0
  -29.7420  -12.6010   18.1530 C   0  0  0  0  0  2  0  0  0  0  0  0
  -28.2600  -12.4540   18.5530 C   0  0  0  0  0  2  0  0  0  0  0  0
  -27.8920  -13.3140   19.7900 C   0  0  0  0  0  3  0  0  0  0  0  0
  -28.9260  -13.1360   20.9240 C   0  0  0  0  0  2  0  0  0  0  0  0
  -30.2490  -13.4730   20.3800 N   0  0  0  0  0  0  0  0  0  0  0  0
  -32.0220  -14.8300   20.0590 O   0  0  0  0  0  0  0  0  0  0  0  0
  -25.4930  -13.9420   20.4480 C   0  0  0  0  0  0  0  0  0  0  0  0
  -24.4100  -13.1890   20.8110 C   0  0  0  0  0  0  0  0  0  0  0  0
  -24.8550  -11.8320   20.7950 C   0  0  0  0  0  0  0  0  0  0  0  0
  -26.5320  -13.0490   20.2490 N   0  0  0  0  0  0  0  0  0  0  0  0
  -26.1520  -11.7740   20.5150 N   0  0  0  0  0  0  0  0  0  0  0  0
  -24.1070  -10.5830   20.9770 C   0  0  0  0  0  0  0  0  0  0  0  0
  -24.5030   -9.6160   21.9260 C   0  0  0  0  0  3  0  0  0  0  0  0
  -23.7560   -8.4300   22.0930 C   0  0  0  0  0  3  0  0  0  0  0  0
  -22.6000   -8.2040   21.3110 C   0  0  0  0  0  0  0  0  0  0  0  0
  -22.2240   -9.1570   20.3490 C   0  0  0  0  0  3  0  0  0  0  0  0
  -22.9710  -10.3350   20.1800 C   0  0  0  0  0  3  0  0  0  0  0  0
  -21.8260   -7.0700   21.3880 O   0  0  0  0  0  0  0  0  0  0  0  0
  -21.7220   -6.3480   22.5490 C   0  0  0  0  0  0  0  0  0  0  0  0
  -21.2760   -6.9340   23.7540 C   0  0  0  0  0  3  0  0  0  0  0  0
  -21.1170   -6.1390   24.9070 C   0  0  0  0  0  3  0  0  0  0  0  0
  -21.3940   -4.7600   24.8560 C   0  0  0  0  0  0  0  0  0  0  0  0
  -21.8340   -4.1740   23.6560 C   0  0  0  0  0  3  0  0  0  0  0  0
  -21.9940   -4.9660   22.5060 C   0  0  0  0  0  0  0  0  0  0  0  0
  -22.3970   -4.3920   21.3470 F   0  0  0  0  0  0  0  0  0  0  0  0
  -21.2340   -3.9950   25.9620 F   0  0  0  0  0  0  0  0  0  0  0  0
  -23.0170  -13.6870   21.0600 C   0  0  0  0  0  0  0  0  0  0  0  0
  -22.2690  -13.0070   21.9230 N   0  0  0  0  0  0  0  0  0  0  0  0
  -22.6000  -14.7120   20.5220 O   0  0  0  0  0  0  0  0  0  0  0  0
  -22.6220  -12.1800   22.3800 H   0  0  0  0  0  0  0  0  0  0  0  0
  -21.3260  -13.3120   22.1250 H   0  0  0  0  0  0  0  0  0  0  0  0
  -25.6760  -15.3010   20.2390 N   0  0  0  0  0  0  0  0  0  0  0  0
  -24.9040  -15.9540   20.2950 H   0  0  0  0  0  0  0  0  0  0  0  0
  -26.5250  -15.7160   19.8810 H   0  0  0  0  0  0  0  0  0  0  0  0
  -29.4760  -22.6010   21.2130 C   0  0  0  0  0  2  0  0  0  0  0  0
  -29.3490  -24.0640   20.5550 C   0  0  0  0  0  3  0  0  0  0  0  0
  -28.4250  -25.1890   21.2110 C   0  0  0  0  0  3  0  0  0  0  0  0
  -28.5790  -26.5860   20.7560 O   0  0  0  0  0  0  0  0  0  0  0  0
  -24.5920  -31.9900   23.3850 C   0  0  0  0  0  0  0  0  0  0  0  0
  -27.4380  -27.3850   20.6590 C   0  0  0  0  0  0  0  0  0  0  0  0
  -23.5000  -30.5200   21.7210 C   0  0  0  0  0  3  0  0  0  0  0  0
  -25.0520  -28.9390   20.4410 C   0  0  0  0  0  0  0  0  0  0  0  0
  -26.0390  -30.8750   21.6730 C   0  0  0  0  0  2  0  0  0  0  0  0
  -26.1750  -29.4780   21.0830 C   0  0  0  0  0  0  0  0  0  0  0  0
  -27.3740  -28.7130   21.1740 C   0  0  0  0  0  3  0  0  0  0  0  0
  -26.2970  -26.8850   19.9970 C   0  0  0  0  0  3  0  0  0  0  0  0
  -25.1160  -27.6490   19.8840 C   0  0  0  0  0  3  0  0  0  0  0  0
  -23.8010  -29.7920   20.3840 C   0  0  0  0  0  2  0  0  0  0  0  0
  -24.7250  -31.1480   22.3170 N   0  0  0  0  0  0  0  0  0  0  0  0
  -23.4760  -32.2690   23.8470 O   0  0  0  0  0  0  0  0  0  0  0  0
  -22.7930  -29.5310   22.6800 C   0  0  0  0  0  0  0  0  0  0  0  0
  -21.4720  -29.3630   22.5050 N   0  0  0  0  0  0  0  0  0  0  0  0
  -23.4360  -28.9150   23.5340 O   0  0  0  0  0  0  0  0  0  0  0  0
  -21.0160  -29.9080   21.7870 H   0  0  0  0  0  0  0  0  0  0  0  0
  -18.0560  -28.2610   22.9460 C   0  0  0  0  0  0  0  0  0  0  0  0
  -20.6150  -28.4490   23.2620 C   0  0  0  0  0  3  0  0  0  0  0  0
  -20.6870  -27.0150   22.6870 C   0  0  0  0  0  2  0  0  0  0  0  0
  -19.5950  -26.7220   21.6530 C   0  0  0  0  0  2  0  0  0  0  0  0
  -18.2060  -26.9080   22.2720 C   0  0  0  0  0  2  0  0  0  0  0  0
  -19.1870  -28.9920   23.3960 C   0  0  0  0  0  0  0  0  0  0  0  0
  -18.9930  -30.2610   23.9830 C   0  0  0  0  0  3  0  0  0  0  0  0
  -17.7000  -30.7990   24.1260 C   0  0  0  0  0  3  0  0  0  0  0  0
  -16.5820  -30.0630   23.6950 C   0  0  0  0  0  3  0  0  0  0  0  0
  -16.7600  -28.7980   23.1100 C   0  0  0  0  0  3  0  0  0  0  0  0
  -25.8300  -32.6560   24.0610 C   0  0  0  0  0  3  0  0  0  0  0  0
  -25.5000  -34.0670   24.3040 N   0  0  0  0  0  0  0  0  0  0  0  0
  -25.8750  -35.0840   23.5150 C   0  0  0  0  0  0  0  0  0  0  0  0
  -26.6060  -34.9320   22.5310 O   0  0  0  0  0  0  0  0  0  0  0  0
  -24.8610  -34.2610   25.0600 H   0  0  0  0  0  0  0  0  0  0  0  0
  -24.1610  -36.8440   22.9820 C   0  0  0  0  0  1  0  0  0  0  0  0
  -25.3610  -36.4910   23.8740 C   0  0  0  0  0  3  0  0  0  0  0  0
  -27.4520  -37.4280   24.7550 C   0  0  0  0  0  1  0  0  0  0  0  0
  -26.3950  -37.5430   23.7550 N   0  0  0  0  0  0  0  0  0  0  0  0
  -25.9800  -38.4670   23.8380 H   0  0  0  0  0  0  0  0  0  0  0  0
  -26.2610  -31.9480   25.4030 C   0  0  1  0  0  0  0  0  0  0  0  0
  -25.0960  -31.7450   26.4010 C   0  0  0  0  0  1  0  0  0  0  0  0
  -26.8800  -30.5610   25.1150 C   0  0  0  0  0  1  0  0  0  0  0  0
  -27.3590  -32.7820   26.1050 C   0  0  0  0  0  1  0  0  0  0  0  0
  1 52  1  0
  2  5  1  0
  2  3  1  0
  3  6  1  0
  4  8  1  0
  9  5  1  6
  7  9  1  0
  7  4  1  0
  8  1  1  0
  9  6  1  0
  9  8  1  0
 10  1  1  0
 10 13  1  0
 10 12  1  0
 11 10  1  0
 14 13  2  0
 14 15  1  0
 16 15  1  0
 17 22  1  0
 18 19  1  0
 18 17  1  0
 20 19  1  0
 20 27  1  0
 20 21  1  0
 22 16  1  0
 22 21  1  0
 23 16  2  0
 24 25  2  0
 25 44  1  0
 26 25  1  0
 26 29  1  0
 27 24  1  0
 27 28  1  0
 28 26  2  0
 29 30  1  0
 30 31  2  0
 32 35  1  0
 32 31  1  0
 33 32  2  0
 34 33  1  0
 34 29  2  0
 35 36  1  0
 36 37  1  0
 37 38  2  0
 39 38  1  0
 39 43  1  0
 40 39  2  0
 41 36  2  0
 41 40  1  0
 42 41  1  0
 44 45  1  0
 45 48  1  0
 45 47  1  0
 46 44  2  0
 49 50  1  0
 49 24  1  0
 51 49  1  0
 53 54  2  0
 53 52  1  0
 55 54  1  0
 56 67  2  0
 57 55  1  0
 57 62  1  0
 58 66  1  0
 58 68  1  0
 59 61  1  0
 60 66  1  0
 61 62  2  0
 61 60  1  0
 63 57  2  0
 64 63  1  0
 64 59  2  0
 65 59  1  0
 65 58  1  0
 66 56  1  0
 68 70  2  0
 69 68  1  0
 71 69  1  0
 72 81  2  0
 72 77  1  0
 73 69  1  0
 73 77  1  0
 74 73  1  0
 75 76  1  0
 75 74  1  0
 76 72  1  0
 77 78  2  0
 78 79  1  0
 80 79  2  0
 81 80  1  0
 82 56  1  0
 82 83  1  0
 82 92  1  0
 83 86  1  0
 84 88  1  0
 84 83  1  0
 85 84  2  0
 88 87  1  0
 90 91  1  0
 90 88  1  0
 90 89  1  0
 92 95  1  1
 92 93  1  0
 94 92  1  0
M  ISO  4  15 100  16 100  54 101  55 101
M  END
>  <TORSDO>  (95) 
F 24

>  <SCORE>  (95) 
-12.023

>  <name>  (95) 
96

>  <ligand_id>  (95) 
96

>  <original_smiles>  (95) 
[H]c1c([H])c([H])c2c(c1[H])C([H])([H])C([H])([H])C([H])([H])C2([H])N([H])C(=O)C1([H])N(C(=O)C([H])(N([H])C(=O)C([H])(N([H])C([H])([H])[H])C([H])([H])[H])C(C([H])([H])[H])(C([H])([H])[H])C([H])([H])[H])C([H])([H])c2c([H])c(OC([H])([H])C([H])([H])C([H])([H])C([H])(C3([H])C([H])([H])C([H])([H])C34C([H])([H])C([H])([H])C([H])([H])C4([H])[H])[N+]([H])([H])C([H])([H])C([H])([H])C([H])([H])C(=O)N3C([H])([H])C([H])([H])C([H])([H])C([H])(n4nc(-c5c([H])c([H])c(Oc6c([H])c([H])c(F)c([H])c6F)c([H])c5[H])c(C(=O)N([H])[H])c4N([H])[H])C3([H])[H])c([H])c([H])c2C1([H])[H]

>  <smiles>  (95) 
[H]c1c([H])c([H])c2c(c1[H])C([H])([H])C([H])([H])C([H])([H])C2([H])N([H])C(=O)C1([H])N(C(=O)C([H])(N([H])C(=O)C([H])(N([H])C([H])([H])[H])C([H])([H])[H])C(C([H])([H])[H])(C([H])([H])[H])C([H])([H])[H])C([H])([H])c2c([H])c(OC([H])([H])C([H])([H])C([H])([H])C([H])(C3([H])C([H])([H])C([H])([H])C34C([H])([H])C([H])([H])C([H])([H])C4([H])[H])[N+]([H])([H])C([H])([H])C([H])([H])C([H])([H])C(=O)N3C([H])([H])C([H])([H])C([H])([H])C([H])(n4nc(-c5c([H])c([H])c(Oc6c([H])c([H])c(F)c([H])c6F)c([H])c5[H])c(C(=O)N([H])[H])c4N([H])[H])C3([H])[H])c([H])c([H])c2C1([H])[H]

$$$$
