0:0:0
     RDKit          3D

105112  0  0  1  0  0  0  0  0999 V2000
  -31.2570  -21.4510   20.5410 C   0  0  0  0  0  3  0  0  0  0  0  0
  -30.2150  -22.5020   20.7370 N   0  0  0  0  0  4  0  0  0  0  0  0
  -29.3170  -22.0460   20.7930 H   0  0  0  0  0  0  0  0  0  0  0  0
  -30.3720  -22.9620   21.6190 H   0  0  0  0  0  0  0  0  0  0  0  0
  -30.1210  -23.5160   19.6490 C   0  0  0  0  0  2  0  0  0  0  0  0
  -29.8100  -24.9480   20.1500 C   0  0  0  0  0  2  0  0  0  0  0  0
  -28.4090  -25.4810   19.7960 C   0  0  0  0  0  2  0  0  0  0  0  0
  -28.3790  -26.8740   20.1160 O   0  0  0  0  0  0  0  0  0  0  0  0
  -24.5680  -31.9500   23.2780 C   0  0  0  0  0  0  0  0  0  0  0  0
  -27.1760  -27.5510   20.1100 C   0  0  0  0  0  0  0  0  0  0  0  0
  -23.3390  -30.5640   21.6400 C   0  0  0  0  0  3  0  0  0  0  0  0
  -24.7710  -29.0420   20.1740 C   0  0  0  0  0  0  0  0  0  0  0  0
  -25.8570  -30.9290   21.4040 C   0  0  0  0  0  2  0  0  0  0  0  0
  -25.9330  -29.5640   20.7540 C   0  0  0  0  0  0  0  0  0  0  0  0
  -27.1330  -28.8230   20.7220 C   0  0  0  0  0  3  0  0  0  0  0  0
  -25.9960  -27.0410   19.5190 C   0  0  0  0  0  3  0  0  0  0  0  0
  -24.7960  -27.7800   19.5540 C   0  0  0  0  0  3  0  0  0  0  0  0
  -23.5260  -29.8960   20.2500 C   0  0  0  0  0  2  0  0  0  0  0  0
  -24.6090  -31.1620   22.1670 N   0  0  0  0  0  0  0  0  0  0  0  0
  -23.4950  -32.2170   23.8360 O   0  0  0  0  0  0  0  0  0  0  0  0
  -22.7020  -29.5320   22.5990 C   0  0  0  0  0  0  0  0  0  0  0  0
  -21.3910  -29.2980   22.4380 N   0  0  0  0  0  0  0  0  0  0  0  0
  -23.3880  -28.9440   23.4390 O   0  0  0  0  0  0  0  0  0  0  0  0
  -20.8990  -29.8280   21.7330 H   0  0  0  0  0  0  0  0  0  0  0  0
  -18.0640  -27.9400   22.8130 C   0  0  0  0  0  0  0  0  0  0  0  0
  -20.5890  -28.3410   23.1990 C   0  0  0  0  0  3  0  0  0  0  0  0
  -20.7930  -26.9020   22.6730 C   0  0  0  0  0  2  0  0  0  0  0  0
  -19.7600  -26.4900   21.6200 C   0  0  0  0  0  2  0  0  0  0  0  0
  -18.3430  -26.5810   22.1930 C   0  0  0  0  0  2  0  0  0  0  0  0
  -19.1200  -28.7730   23.2720 C   0  0  0  0  0  0  0  0  0  0  0  0
  -18.8080  -30.0410   23.8060 C   0  0  0  0  0  3  0  0  0  0  0  0
  -17.4730  -30.4780   23.8940 C   0  0  0  0  0  3  0  0  0  0  0  0
  -16.4310  -29.6430   23.4540 C   0  0  0  0  0  3  0  0  0  0  0  0
  -16.7270  -28.3770   22.9200 C   0  0  0  0  0  3  0  0  0  0  0  0
  -25.8640  -32.5740   23.8870 C   0  0  0  0  0  3  0  0  0  0  0  0
  -25.5680  -33.9740   24.2150 N   0  0  0  0  0  0  0  0  0  0  0  0
  -25.9120  -35.0230   23.4540 C   0  0  0  0  0  0  0  0  0  0  0  0
  -26.5850  -34.9100   22.4250 O   0  0  0  0  0  0  0  0  0  0  0  0
  -24.9700  -34.1360   25.0120 H   0  0  0  0  0  0  0  0  0  0  0  0
  -24.2060  -36.8320   23.0820 C   0  0  0  0  0  1  0  0  0  0  0  0
  -25.4340  -36.4150   23.9050 C   0  0  0  0  0  3  0  0  0  0  0  0
  -27.5650  -37.2840   24.7640 C   0  0  0  0  0  1  0  0  0  0  0  0
  -26.4790  -37.4570   23.8030 N   0  0  0  0  0  0  0  0  0  0  0  0
  -26.0800  -38.3820   23.9380 H   0  0  0  0  0  0  0  0  0  0  0  0
  -26.3900  -31.8000   25.1580 C   0  0  1  0  0  0  0  0  0  0  0  0
  -25.3000  -31.5470   26.2260 C   0  0  0  0  0  1  0  0  0  0  0  0
  -26.9820  -30.4290   24.7540 C   0  0  0  0  0  1  0  0  0  0  0  0
  -27.5340  -32.5990   25.8230 C   0  0  0  0  0  1  0  0  0  0  0  0
  -31.1150  -20.2270   21.5180 C   0  0  0  0  0  3  0  0  0  0  0  0
  -30.9270  -19.5300   23.9780 C   0  0  0  0  0  1  0  0  0  0  0  0
  -30.5420  -20.5640   22.9110 C   0  0  0  0  0  2  0  0  0  0  0  0
  -30.3610  -19.1040   20.9460 N   0  0  0  0  0  0  0  0  0  0  0  0
  -29.5230  -19.4230   20.4700 H   0  0  0  0  0  0  0  0  0  0  0  0
  -31.1640  -18.2500   20.0600 C   0  0  0  0  0  3  0  0  0  0  0  0
  -29.5960  -19.0570   18.1920 C   0  0  0  0  0  1  0  0  0  0  0  0
  -30.3530  -17.8500   18.7930 C   0  0  0  0  0  3  0  0  0  0  0  0
  -31.2460  -17.2720   17.7730 N   0  0  0  0  0  4  0  0  0  0  0  0
  -32.0030  -17.8930   17.5470 H   0  0  0  0  0  0  0  0  0  0  0  0
  -30.7410  -17.0660   16.9290 H   0  0  0  0  0  0  0  0  0  0  0  0
  -31.6390  -16.4000   18.1200 H   0  0  0  0  0  0  0  0  0  0  0  0
  -31.8310  -17.0990   20.8790 C   0  0  0  0  0  2  0  0  0  0  0  0
  -31.0720  -15.7520   21.0640 C   0  0  0  0  0  2  0  0  0  0  0  0
  -31.6560  -14.5360   20.3070 C   0  0  0  0  0  0  0  0  0  0  0  0
  -31.2720  -12.3420   19.2390 C   0  0  0  0  0  2  0  0  0  0  0  0
  -30.3440  -12.5280   18.0240 C   0  0  0  0  0  2  0  0  0  0  0  0
  -28.8620  -12.4870   18.4500 C   0  0  0  0  0  2  0  0  0  0  0  0
  -28.5630  -13.4000   19.6700 C   0  0  0  0  0  3  0  0  0  0  0  0
  -29.6010  -13.1820   20.7910 C   0  0  0  0  0  2  0  0  0  0  0  0
  -30.9390  -13.3860   20.2190 N   0  0  0  0  0  0  0  0  0  0  0  0
  -32.7370  -14.6810   19.7230 O   0  0  0  0  0  0  0  0  0  0  0  0
  -26.2200  -14.1700   20.4100 C   0  0  0  0  0  0  0  0  0  0  0  0
  -25.0990  -13.4710   20.7670 C   0  0  0  0  0  0  0  0  0  0  0  0
  -25.4560  -12.0890   20.6990 C   0  0  0  0  0  0  0  0  0  0  0  0
  -27.1950  -13.2170   20.1510 N   0  0  0  0  0  0  0  0  0  0  0  0
  -26.7370  -11.9590   20.3790 N   0  0  0  0  0  0  0  0  0  0  0  0
  -24.6370  -10.8820   20.8680 C   0  0  0  0  0  0  0  0  0  0  0  0
  -24.9330   -9.9160   21.8560 C   0  0  0  0  0  3  0  0  0  0  0  0
  -24.1170   -8.7730   22.0090 C   0  0  0  0  0  3  0  0  0  0  0  0
  -22.9920   -8.5880   21.1700 C   0  0  0  0  0  0  0  0  0  0  0  0
  -22.7140   -9.5410   20.1730 C   0  0  0  0  0  3  0  0  0  0  0  0
  -23.5320  -10.6750   20.0200 C   0  0  0  0  0  3  0  0  0  0  0  0
  -22.1580   -7.4950   21.2270 O   0  0  0  0  0  0  0  0  0  0  0  0
  -21.8920   -6.8570   22.4120 C   0  0  0  0  0  0  0  0  0  0  0  0
  -21.2800   -7.5250   23.4950 C   0  0  0  0  0  3  0  0  0  0  0  0
  -20.9570   -6.8150   24.6690 C   0  0  0  0  0  3  0  0  0  0  0  0
  -21.2410   -5.4390   24.7600 C   0  0  0  0  0  0  0  0  0  0  0  0
  -21.8450   -4.7700   23.6800 C   0  0  0  0  0  3  0  0  0  0  0  0
  -22.1690   -5.4780   22.5090 C   0  0  0  0  0  0  0  0  0  0  0  0
  -22.7330   -4.8260   21.4640 F   0  0  0  0  0  0  0  0  0  0  0  0
  -20.9230   -4.7520   25.8820 F   0  0  0  0  0  0  0  0  0  0  0  0
  -23.7440  -14.0470   21.0630 C   0  0  0  0  0  0  0  0  0  0  0  0
  -22.9720  -13.3880   21.9210 N   0  0  0  0  0  0  0  0  0  0  0  0
  -23.3790  -15.1120   20.5700 O   0  0  0  0  0  0  0  0  0  0  0  0
  -23.2780  -12.5210   22.3390 H   0  0  0  0  0  0  0  0  0  0  0  0
  -22.0620  -13.7520   22.1610 H   0  0  0  0  0  0  0  0  0  0  0  0
  -26.4890  -15.5280   20.2660 N   0  0  0  0  0  0  0  0  0  0  0  0
  -25.7790  -16.2390   20.4010 H   0  0  0  0  0  0  0  0  0  0  0  0
  -27.3780  -15.9080   19.9670 H   0  0  0  0  0  0  0  0  0  0  0  0
  -32.7010  -22.0250   20.6140 C   0  0  0  0  0  2  0  0  0  0  0  0
  -33.6860  -21.2080   19.7390 C   0  0  0  0  0  2  0  0  0  0  0  0
  -34.9410  -21.9600   19.2570 C   0  0  0  0  0  2  0  0  0  0  0  0
  -35.9530  -22.1390   20.3120 N   0  0  0  0  0  4  0  0  0  0  0  0
  -35.6180  -22.7300   21.0500 H   0  0  0  0  0  0  0  0  0  0  0  0
  -36.7700  -22.5680   19.9160 H   0  0  0  0  0  0  0  0  0  0  0  0
  -36.2310  -21.2530   20.6970 H   0  0  0  0  0  0  0  0  0  0  0  0
  1 99  1  0
  1  2  1  0
  1 49  1  0
  2  3  1  0
  2  4  1  0
  5  6  1  0
  5  2  1  0
  7  8  1  0
  7  6  1  0
  9 20  2  0
 10  8  1  0
 10 15  1  0
 11 19  1  0
 11 21  1  0
 12 18  1  0
 12 14  1  0
 13 19  1  0
 14 13  1  0
 15 14  2  0
 16 17  1  0
 16 10  2  0
 17 12  2  0
 18 11  1  0
 19  9  1  0
 21 23  2  0
 22 21  1  0
 24 22  1  0
 25 34  2  0
 25 30  1  0
 26 22  1  0
 26 30  1  0
 27 26  1  0
 28 29  1  0
 28 27  1  0
 29 25  1  0
 30 31  2  0
 31 32  1  0
 33 32  2  0
 34 33  1  0
 35  9  1  0
 35 36  1  0
 35 45  1  0
 36 39  1  0
 37 41  1  0
 37 36  1  0
 38 37  2  0
 41 40  1  0
 43 41  1  0
 43 44  1  0
 43 42  1  0
 45 48  1  1
 45 46  1  0
 47 45  1  0
 49 51  1  0
 51 50  1  0
 52 49  1  0
 53 52  1  0
 54 61  1  0
 54 52  1  0
 56 55  1  0
 56 54  1  0
 57 60  1  0
 57 56  1  0
 58 57  1  0
 59 57  1  0
 61 62  1  0
 63 62  1  0
 64 69  1  0
 65 66  1  0
 65 64  1  0
 67 66  1  0
 67 74  1  0
 67 68  1  0
 69 63  1  0
 69 68  1  0
 70 63  2  0
 71 72  2  0
 72 91  1  0
 73 72  1  0
 73 76  1  0
 74 75  1  0
 74 71  1  0
 75 73  2  0
 76 77  1  0
 77 78  2  0
 79 82  1  0
 79 78  1  0
 80 79  2  0
 81 80  1  0
 81 76  2  0
 82 83  1  0
 83 88  2  0
 83 84  1  0
 84 85  2  0
 85 86  1  0
 86 90  1  0
 87 86  2  0
 88 87  1  0
 89 88  1  0
 91 92  1  0
 92 95  1  0
 92 94  1  0
 93 91  2  0
 96 97  1  0
 96 71  1  0
 98 96  1  0
100 99  1  0
101100  1  0
101102  1  0
102105  1  0
102103  1  0
104102  1  0
M  ISO  4   7 101   8 101  62 100  63 100
M  END
>  <TORSDO>  (1) 
F 32

>  <SCORE>  (1) 
-10.001

>  <name>  (1) 
0

>  <ligand_id>  (1) 
0

>  <original_smiles>  (1) 
[H]c1c([H])c([H])c2c(c1[H])C([H])([H])C([H])([H])C([H])([H])C2([H])N([H])C(=O)C1([H])N(C(=O)C([H])(N([H])C(=O)C([H])(N([H])C([H])([H])[H])C([H])([H])[H])C(C([H])([H])[H])(C([H])([H])[H])C([H])([H])[H])C([H])([H])c2c([H])c(OC([H])([H])C([H])([H])C([H])([H])[N+]([H])([H])C([H])(C([H])([H])C([H])([H])C([H])([H])[N+]([H])([H])[H])C([H])(N([H])C([H])(C([H])([H])C([H])([H])C(=O)N3C([H])([H])C([H])([H])C([H])([H])C([H])(n4nc(-c5c([H])c([H])c(Oc6c([H])c([H])c(F)c([H])c6F)c([H])c5[H])c(C(=O)N([H])[H])c4N([H])[H])C3([H])[H])C([H])(C([H])([H])[H])[N+]([H])([H])[H])C([H])([H])C([H])([H])[H])c([H])c([H])c2C1([H])[H]

>  <smiles>  (1) 
[H]c1c([H])c([H])c2c(c1[H])C([H])([H])C([H])([H])C([H])([H])C2([H])N([H])C(=O)C1([H])N(C(=O)C([H])(N([H])C(=O)C([H])(N([H])C([H])([H])[H])C([H])([H])[H])C(C([H])([H])[H])(C([H])([H])[H])C([H])([H])[H])C([H])([H])c2c([H])c(OC([H])([H])C([H])([H])C([H])([H])[N+]([H])([H])C([H])(C([H])([H])C([H])([H])C([H])([H])[N+]([H])([H])[H])C([H])(N([H])C([H])(C([H])([H])C([H])([H])C(=O)N3C([H])([H])C([H])([H])C([H])([H])C([H])(n4nc(-c5c([H])c([H])c(Oc6c([H])c([H])c(F)c([H])c6F)c([H])c5[H])c(C(=O)N([H])[H])c4N([H])[H])C3([H])[H])C([H])(C([H])([H])[H])[N+]([H])([H])[H])C([H])([H])C([H])([H])[H])c([H])c([H])c2C1([H])[H]

$$$$
1:0:0
     RDKit          3D

 93100  0  0  1  0  0  0  0  0999 V2000
  -29.4070  -23.5110   19.2630 C   0  0  0  0  0  1  0  0  0  0  0  0
  -28.5160  -23.3830   20.4430 N   0  0  2  0  0  4  0  0  0  0  0  0
  -27.6140  -23.6870   20.1020 H   0  0  0  0  0  0  0  0  0  0  0  0
  -29.9520  -23.7710   22.4420 C   0  0  0  0  0  1  0  0  0  0  0  0
  -28.7940  -24.3520   21.5790 C   0  0  0  0  0  3  0  0  0  0  0  0
  -29.0680  -26.8160   22.4720 C   0  0  0  0  0  1  0  0  0  0  0  0
  -29.0640  -25.8970   21.2240 C   0  0  0  0  0  3  0  0  0  0  0  0
  -28.3790  -26.5350   20.0980 O   0  0  0  0  0  0  0  0  0  0  0  0
  -24.6240  -31.8570   23.2460 C   0  0  0  0  0  0  0  0  0  0  0  0
  -27.2530  -27.3510   20.2090 C   0  0  0  0  0  0  0  0  0  0  0  0
  -23.4200  -30.4610   21.5970 C   0  0  0  0  0  3  0  0  0  0  0  0
  -24.8740  -28.9160   20.1750 C   0  0  0  0  0  0  0  0  0  0  0  0
  -25.9510  -30.7980   21.4160 C   0  0  0  0  0  2  0  0  0  0  0  0
  -26.0330  -29.4220   20.7800 C   0  0  0  0  0  0  0  0  0  0  0  0
  -27.2240  -28.6570   20.7800 C   0  0  0  0  0  3  0  0  0  0  0  0
  -26.0820  -26.8850   19.5790 C   0  0  0  0  0  3  0  0  0  0  0  0
  -24.8970  -27.6490   19.5690 C   0  0  0  0  0  3  0  0  0  0  0  0
  -23.6390  -29.7890   20.2160 C   0  0  0  0  0  2  0  0  0  0  0  0
  -24.6830  -31.0570   22.1430 N   0  0  0  0  0  0  0  0  0  0  0  0
  -23.5410  -32.1300   23.7810 O   0  0  0  0  0  0  0  0  0  0  0  0
  -22.7620  -29.4390   22.5530 C   0  0  0  0  0  0  0  0  0  0  0  0
  -21.4330  -29.2680   22.4280 N   0  0  0  0  0  0  0  0  0  0  0  0
  -23.4400  -28.8040   23.3640 O   0  0  0  0  0  0  0  0  0  0  0  0
  -20.9480  -29.8350   21.7480 H   0  0  0  0  0  0  0  0  0  0  0  0
  -18.0520  -28.0880   22.9250 C   0  0  0  0  0  0  0  0  0  0  0  0
  -20.6130  -28.3300   23.1930 C   0  0  0  0  0  3  0  0  0  0  0  0
  -20.7040  -26.9020   22.6080 C   0  0  0  0  0  2  0  0  0  0  0  0
  -19.5990  -26.5910   21.5930 C   0  0  0  0  0  2  0  0  0  0  0  0
  -18.2200  -26.7420   22.2410 C   0  0  0  0  0  2  0  0  0  0  0  0
  -19.1760  -28.8410   23.3570 C   0  0  0  0  0  0  0  0  0  0  0  0
  -18.9650  -30.1020   23.9560 C   0  0  0  0  0  3  0  0  0  0  0  0
  -17.6640  -30.6100   24.1280 C   0  0  0  0  0  3  0  0  0  0  0  0
  -16.5550  -29.8540   23.7140 C   0  0  0  0  0  3  0  0  0  0  0  0
  -16.7500  -28.5940   23.1200 C   0  0  0  0  0  3  0  0  0  0  0  0
  -25.9090  -32.4830   23.8720 C   0  0  0  0  0  3  0  0  0  0  0  0
  -25.5960  -33.8740   24.2290 N   0  0  0  0  0  0  0  0  0  0  0  0
  -25.9250  -34.9420   23.4890 C   0  0  0  0  0  0  0  0  0  0  0  0
  -26.5930  -34.8580   22.4540 O   0  0  0  0  0  0  0  0  0  0  0  0
  -24.9980  -34.0140   25.0310 H   0  0  0  0  0  0  0  0  0  0  0  0
  -24.1890  -36.7330   23.1670 C   0  0  0  0  0  1  0  0  0  0  0  0
  -25.4340  -36.3210   23.9710 C   0  0  0  0  0  3  0  0  0  0  0  0
  -27.5710  -37.1910   24.8100 C   0  0  0  0  0  1  0  0  0  0  0  0
  -26.4650  -37.3780   23.8760 N   0  0  0  0  0  0  0  0  0  0  0  0
  -26.0570  -38.2940   24.0400 H   0  0  0  0  0  0  0  0  0  0  0  0
  -26.4430  -31.6920   25.1290 C   0  0  1  0  0  0  0  0  0  0  0  0
  -25.3600  -31.4260   26.2000 C   0  0  0  0  0  1  0  0  0  0  0  0
  -27.0270  -30.3240   24.7070 C   0  0  0  0  0  1  0  0  0  0  0  0
  -27.5970  -32.4780   25.7960 C   0  0  0  0  0  1  0  0  0  0  0  0
  -28.2590  -21.9330   20.8240 C   0  0  0  0  0  3  0  0  0  0  0  0
  -29.4120  -20.8720   20.5800 C   0  0  0  0  0  3  0  0  0  0  0  0
  -29.0210  -19.3700   20.8180 C   0  0  0  0  0  2  0  0  0  0  0  0
  -30.1290  -18.2610   20.5820 C   0  0  0  0  0  2  0  0  0  0  0  0
  -29.6130  -16.8310   20.0990 C   0  0  0  0  0  3  0  0  0  0  0  0
  -30.8640  -14.5610   20.0860 C   0  0  0  0  0  0  0  0  0  0  0  0
  -30.4930  -12.3850   18.9370 C   0  0  0  0  0  2  0  0  0  0  0  0
  -29.4960  -12.5800   17.7780 C   0  0  0  0  0  2  0  0  0  0  0  0
  -28.0450  -12.4470   18.2790 C   0  0  0  0  0  2  0  0  0  0  0  0
  -27.7750  -13.2680   19.5710 C   0  0  0  0  0  3  0  0  0  0  0  0
  -28.8870  -13.0470   20.6230 C   0  0  0  0  0  2  0  0  0  0  0  0
  -30.1750  -13.3780   19.9830 N   0  0  0  0  0  0  0  0  0  0  0  0
  -31.9450  -14.7290   19.5070 O   0  0  0  0  0  0  0  0  0  0  0  0
  -30.3720  -15.6480   22.1850 C   0  0  0  0  0  1  0  0  0  0  0  0
  -30.2400  -15.6000   20.7230 N   0  0  0  0  0  0  0  0  0  0  0  0
  -25.4250  -13.8980   20.3880 C   0  0  0  0  0  0  0  0  0  0  0  0
  -24.3630  -13.1330   20.7920 C   0  0  0  0  0  0  0  0  0  0  0  0
  -24.8030  -11.7760   20.7210 C   0  0  0  0  0  0  0  0  0  0  0  0
  -26.4460  -13.0040   20.1090 N   0  0  0  0  0  0  0  0  0  0  0  0
  -26.0760  -11.7210   20.3560 N   0  0  0  0  0  0  0  0  0  0  0  0
  -24.0670  -10.5230   20.9310 C   0  0  0  0  0  0  0  0  0  0  0  0
  -24.5130   -9.5550   21.8590 C   0  0  0  0  0  3  0  0  0  0  0  0
  -23.7870   -8.3620   22.0580 C   0  0  0  0  0  3  0  0  0  0  0  0
  -22.5970   -8.1320   21.3260 C   0  0  0  0  0  0  0  0  0  0  0  0
  -22.1630   -9.0920   20.3930 C   0  0  0  0  0  3  0  0  0  0  0  0
  -22.8900  -10.2780   20.1950 C   0  0  0  0  0  3  0  0  0  0  0  0
  -21.8310   -6.9960   21.4350 O   0  0  0  0  0  0  0  0  0  0  0  0
  -21.7800   -6.2740   22.6000 C   0  0  0  0  0  0  0  0  0  0  0  0
  -21.3760   -6.8560   23.8210 C   0  0  0  0  0  3  0  0  0  0  0  0
  -21.2750   -6.0610   24.9800 C   0  0  0  0  0  3  0  0  0  0  0  0
  -21.5620   -4.6830   24.9150 C   0  0  0  0  0  0  0  0  0  0  0  0
  -21.9580   -4.1010   23.6980 C   0  0  0  0  0  3  0  0  0  0  0  0
  -22.0660   -4.8940   22.5440 C   0  0  0  0  0  0  0  0  0  0  0  0
  -22.4270   -4.3260   21.3670 F   0  0  0  0  0  0  0  0  0  0  0  0
  -21.4580   -3.9140   26.0240 F   0  0  0  0  0  0  0  0  0  0  0  0
  -22.9870  -13.6240   21.1380 C   0  0  0  0  0  0  0  0  0  0  0  0
  -22.3030  -12.9290   22.0430 N   0  0  0  0  0  0  0  0  0  0  0  0
  -22.5260  -14.6540   20.6540 O   0  0  0  0  0  0  0  0  0  0  0  0
  -22.6840  -12.0890   22.4520 H   0  0  0  0  0  0  0  0  0  0  0  0
  -21.3780  -13.2290   22.3140 H   0  0  0  0  0  0  0  0  0  0  0  0
  -25.5950  -15.2670   20.2210 N   0  0  0  0  0  0  0  0  0  0  0  0
  -24.8440  -15.9240   20.4020 H   0  0  0  0  0  0  0  0  0  0  0  0
  -26.4430  -15.7210   19.9090 H   0  0  0  0  0  0  0  0  0  0  0  0
  -28.7320  -17.8300   17.8400 C   0  0  0  0  0  1  0  0  0  0  0  0
  -29.5430  -16.7310   18.5420 C   0  0  0  0  0  2  0  0  0  0  0  0
  1  2  1  0
  2 49  1  0
  2  5  1  0
  2  3  1  6
  5  4  1  0
  7  5  1  0
  7  6  1  0
  8 10  1  0
  8  7  1  0
  9 20  2  0
 10 15  1  0
 11 19  1  0
 11 21  1  0
 12 18  1  0
 12 14  1  0
 13 19  1  0
 14 13  1  0
 15 14  2  0
 16 10  2  0
 17 16  1  0
 17 12  2  0
 18 11  1  0
 19  9  1  0
 21 23  2  0
 22 21  1  0
 24 22  1  0
 25 34  2  0
 25 30  1  0
 26 22  1  0
 26 30  1  0
 27 26  1  0
 28 29  1  0
 28 27  1  0
 29 25  1  0
 30 31  2  0
 31 32  1  0
 33 32  2  0
 34 33  1  0
 35  9  1  0
 35 36  1  0
 35 45  1  0
 36 39  1  0
 37 41  1  0
 37 36  1  0
 38 37  2  0
 41 40  1  0
 43 41  1  0
 43 44  1  0
 43 42  1  0
 45 48  1  1
 45 46  1  0
 47 45  1  0
 50 51  1  0
 50 49  2  0
 52 51  1  0
 53 93  1  0
 53 52  1  0
 53 63  1  0
 54 63  1  0
 55 60  1  0
 56 57  1  0
 56 55  1  0
 58 57  1  0
 58 67  1  0
 58 59  1  0
 60 54  1  0
 60 59  1  0
 61 54  2  0
 63 62  1  0
 64 65  2  0
 65 84  1  0
 66 65  1  0
 66 69  1  0
 67 68  1  0
 67 64  1  0
 68 66  2  0
 69 70  1  0
 70 71  2  0
 72 75  1  0
 72 71  1  0
 73 72  2  0
 74 73  1  0
 74 69  2  0
 75 76  1  0
 76 77  1  0
 77 78  2  0
 79 78  1  0
 79 83  1  0
 80 79  2  0
 81 76  2  0
 81 80  1  0
 82 81  1  0
 84 85  1  0
 85 88  1  0
 85 87  1  0
 86 84  2  0
 89 64  1  0
 89 90  1  0
 91 89  1  0
 92 93  1  0
M  ISO  4   7 101   8 101  54 100  63 100
M  END
>  <TORSDO>  (2) 
F 24

>  <SCORE>  (2) 
-11.830

>  <name>  (2) 
1

>  <ligand_id>  (2) 
1

>  <original_smiles>  (2) 
[H]c1c([H])c([H])c2c(c1[H])C([H])([H])C([H])([H])C([H])([H])C2([H])N([H])C(=O)C1([H])N(C(=O)C([H])(N([H])C(=O)C([H])(N([H])C([H])([H])[H])C([H])([H])[H])C(C([H])([H])[H])(C([H])([H])[H])C([H])([H])[H])C([H])([H])c2c([H])c(OC([H])(C([H])([H])[H])C([H])(C([H])([H])[H])[N+]([H])(C([H])([H])[H])C([H])([H])C([H])([H])C([H])([H])C([H])([H])C([H])(N(C(=O)N3C([H])([H])C([H])([H])C([H])([H])C([H])(n4nc(-c5c([H])c([H])c(Oc6c([H])c([H])c(F)c([H])c6F)c([H])c5[H])c(C(=O)N([H])[H])c4N([H])[H])C3([H])[H])C([H])([H])[H])C([H])([H])C([H])([H])[H])c([H])c([H])c2C1([H])[H]

>  <smiles>  (2) 
[H]c1c([H])c([H])c2c(c1[H])C([H])([H])C([H])([H])C([H])([H])C2([H])N([H])C(=O)C1([H])N(C(=O)C([H])(N([H])C(=O)C([H])(N([H])C([H])([H])[H])C([H])([H])[H])C(C([H])([H])[H])(C([H])([H])[H])C([H])([H])[H])C([H])([H])c2c([H])c(OC([H])(C([H])([H])[H])C([H])(C([H])([H])[H])[N+]([H])(C([H])([H])[H])C([H])([H])C([H])([H])C([H])([H])C([H])([H])C([H])(N(C(=O)N3C([H])([H])C([H])([H])C([H])([H])C([H])(n4nc(-c5c([H])c([H])c(Oc6c([H])c([H])c(F)c([H])c6F)c([H])c5[H])c(C(=O)N([H])[H])c4N([H])[H])C3([H])[H])C([H])([H])[H])C([H])([H])C([H])([H])[H])c([H])c([H])c2C1([H])[H]

$$$$
2:0:0
     RDKit          3D

 89 97  0  0  1  0  0  0  0  0999 V2000
  -28.2510  -19.3260   19.1100 C   0  0  0  0  0  3  0  0  0  0  0  0
  -28.2030  -18.0230   18.5690 C   0  0  0  0  0  3  0  0  0  0  0  0
  -29.6280  -18.3600   20.8600 C   0  0  0  0  0  3  0  0  0  0  0  0
  -29.6000  -16.8990   20.3460 C   0  0  0  0  0  0  0  0  0  0  0  0
  -28.9710  -19.6350   20.2750 C   0  0  0  0  0  0  0  0  0  0  0  0
  -28.8670  -16.8880   19.1110 C   0  0  0  0  0  0  0  0  0  0  0  0
  -30.4040  -15.4760   20.8050 C   0  0  0  0  0  0  0  0  0  0  0  0
  -30.5860  -12.9710   20.1470 C   0  0  0  0  0  2  0  0  0  0  0  0
  -29.8140  -12.6110   18.8520 C   0  0  0  0  0  2  0  0  0  0  0  0
  -28.3160  -12.3580   19.1270 C   0  0  0  0  0  2  0  0  0  0  0  0
  -27.7190  -13.3390   20.1690 C   0  0  0  0  0  3  0  0  0  0  0  0
  -28.6460  -13.6150   21.3630 C   0  0  0  0  0  2  0  0  0  0  0  0
  -29.9080  -14.1390   20.8130 N   0  0  0  0  0  0  0  0  0  0  0  0
  -31.6430  -15.4990   20.8740 O   0  0  0  0  0  0  0  0  0  0  0  0
  -25.2830  -13.8610   20.6920 C   0  0  0  0  0  0  0  0  0  0  0  0
  -24.2100  -13.0660   20.9800 C   0  0  0  0  0  0  0  0  0  0  0  0
  -24.7090  -11.7280   21.0210 C   0  0  0  0  0  0  0  0  0  0  0  0
  -26.3630  -13.0030   20.5700 N   0  0  0  0  0  0  0  0  0  0  0  0
  -26.0250  -11.7180   20.8370 N   0  0  0  0  0  0  0  0  0  0  0  0
  -24.0010  -10.4530   21.1680 C   0  0  0  0  0  0  0  0  0  0  0  0
  -24.3780   -9.5100   22.1500 C   0  0  0  0  0  3  0  0  0  0  0  0
  -23.6690   -8.2980   22.2860 C   0  0  0  0  0  3  0  0  0  0  0  0
  -22.5700   -8.0190   21.4400 C   0  0  0  0  0  0  0  0  0  0  0  0
  -22.2150   -8.9500   20.4480 C   0  0  0  0  0  3  0  0  0  0  0  0
  -22.9250  -10.1540   20.3100 C   0  0  0  0  0  3  0  0  0  0  0  0
  -21.8370   -6.8590   21.4840 O   0  0  0  0  0  0  0  0  0  0  0  0
  -21.7120   -6.1310   22.6390 C   0  0  0  0  0  0  0  0  0  0  0  0
  -21.1740   -6.6900   23.8200 C   0  0  0  0  0  3  0  0  0  0  0  0
  -21.0030   -5.8860   24.9640 C   0  0  0  0  0  3  0  0  0  0  0  0
  -21.3560   -4.5250   24.9290 C   0  0  0  0  0  0  0  0  0  0  0  0
  -21.8860   -3.9640   23.7530 C   0  0  0  0  0  3  0  0  0  0  0  0
  -22.0600   -4.7640   22.6110 C   0  0  0  0  0  0  0  0  0  0  0  0
  -22.5550   -4.2150   21.4760 F   0  0  0  0  0  0  0  0  0  0  0  0
  -21.1810   -3.7500   26.0260 F   0  0  0  0  0  0  0  0  0  0  0  0
  -22.7840  -13.5150   21.1030 C   0  0  0  0  0  0  0  0  0  0  0  0
  -21.9920  -12.8250   21.9150 N   0  0  0  0  0  0  0  0  0  0  0  0
  -22.3780  -14.5150   20.5100 O   0  0  0  0  0  0  0  0  0  0  0  0
  -22.3270  -12.0160   22.4170 H   0  0  0  0  0  0  0  0  0  0  0  0
  -21.0300  -13.1120   22.0430 H   0  0  0  0  0  0  0  0  0  0  0  0
  -25.4280  -15.2330   20.4930 N   0  0  0  0  0  0  0  0  0  0  0  0
  -24.6330  -15.8610   20.4730 H   0  0  0  0  0  0  0  0  0  0  0  0
  -26.2850  -15.6590   20.1600 H   0  0  0  0  0  0  0  0  0  0  0  0
  -28.8120  -15.7650   18.2860 N   0  0  0  0  0  0  0  0  0  0  0  0
  -28.2680  -15.7450   17.4310 H   0  0  0  0  0  0  0  0  0  0  0  0
  -29.2130  -14.8720   18.5560 H   0  0  0  0  0  0  0  0  0  0  0  0
  -28.7760  -21.2860   20.7910 C   0  0  0  0  0  2  0  0  0  0  0  0
  -28.6060  -22.8570   19.9430 C   0  0  0  0  0  2  0  0  0  0  0  0
  -27.7970  -24.4020   20.3510 C   0  0  0  0  0  2  0  0  0  0  0  0
  -28.0330  -25.9920   20.0260 O   0  0  0  0  0  0  0  0  0  0  0  0
  -24.5860  -31.9420   23.1380 C   0  0  0  0  0  0  0  0  0  0  0  0
  -27.0210  -27.0760   20.0500 C   0  0  0  0  0  0  0  0  0  0  0  0
  -23.3400  -30.5640   21.5240 C   0  0  0  0  0  3  0  0  0  0  0  0
  -24.7370  -28.9550   20.0680 C   0  0  0  0  0  0  0  0  0  0  0  0
  -25.9020  -30.7630   21.3130 C   0  0  0  0  0  2  0  0  0  0  0  0
  -25.9440  -29.3550   20.6550 C   0  0  0  0  0  0  0  0  0  0  0  0
  -27.0820  -28.4370   20.6210 C   0  0  0  0  0  3  0  0  0  0  0  0
  -25.7830  -26.8200   19.4220 C   0  0  0  0  0  3  0  0  0  0  0  0
  -24.6780  -27.7070   19.4310 C   0  0  0  0  0  3  0  0  0  0  0  0
  -23.5330  -29.8900   20.1380 C   0  0  0  0  0  2  0  0  0  0  0  0
  -24.6320  -31.1180   22.0440 N   0  0  0  0  0  0  0  0  0  0  0  0
  -23.5120  -32.2360   23.6900 O   0  0  0  0  0  0  0  0  0  0  0  0
  -22.6670  -29.5640   22.5020 C   0  0  0  0  0  0  0  0  0  0  0  0
  -21.3330  -29.4000   22.4010 N   0  0  0  0  0  0  0  0  0  0  0  0
  -23.3500  -28.9430   23.3190 O   0  0  0  0  0  0  0  0  0  0  0  0
  -20.8380  -29.9610   21.7210 H   0  0  0  0  0  0  0  0  0  0  0  0
  -17.9640  -28.1780   22.9600 C   0  0  0  0  0  0  0  0  0  0  0  0
  -20.5240  -28.4630   23.1900 C   0  0  0  0  0  3  0  0  0  0  0  0
  -20.6280  -27.0260   22.6260 C   0  0  0  0  0  2  0  0  0  0  0  0
  -19.5160  -26.6880   21.6290 C   0  0  0  0  0  2  0  0  0  0  0  0
  -18.1410  -26.8260   22.2910 C   0  0  0  0  0  2  0  0  0  0  0  0
  -19.0820  -28.9520   23.3690 C   0  0  0  0  0  0  0  0  0  0  0  0
  -18.8600  -30.2140   23.9620 C   0  0  0  0  0  3  0  0  0  0  0  0
  -17.5520  -30.7010   24.1480 C   0  0  0  0  0  3  0  0  0  0  0  0
  -16.4490  -29.9250   23.7520 C   0  0  0  0  0  3  0  0  0  0  0  0
  -16.6560  -28.6650   23.1650 C   0  0  0  0  0  3  0  0  0  0  0  0
  -25.8790  -32.5720   23.7400 C   0  0  0  0  0  3  0  0  0  0  0  0
  -26.4300  -31.7750   24.9860 C   0  0  1  0  0  0  0  0  0  0  0  0
  -25.3680  -31.5190   26.0830 C   0  0  0  0  0  1  0  0  0  0  0  0
  -26.9970  -30.4010   24.5610 C   0  0  0  0  0  1  0  0  0  0  0  0
  -27.6040  -32.5540   25.6260 C   0  0  0  0  0  1  0  0  0  0  0  0
  -25.5720  -33.9590   24.1230 N   0  0  0  0  0  0  0  0  0  0  0  0
  -25.8950  -35.0450   23.4070 C   0  0  0  0  0  0  0  0  0  0  0  0
  -26.5500  -34.9820   22.3630 O   0  0  0  0  0  0  0  0  0  0  0  0
  -24.9970  -34.0820   24.9450 H   0  0  0  0  0  0  0  0  0  0  0  0
  -24.1830  -36.8730   23.1370 C   0  0  0  0  0  1  0  0  0  0  0  0
  -25.4200  -36.4180   23.9290 C   0  0  0  0  0  3  0  0  0  0  0  0
  -27.5630  -37.2500   24.7950 C   0  0  0  0  0  1  0  0  0  0  0  0
  -26.4620  -37.4680   23.8620 N   0  0  0  0  0  0  0  0  0  0  0  0
  -26.0630  -38.3840   24.0450 H   0  0  0  0  0  0  0  0  0  0  0  0
  1  5  1  0
  2  1  2  0
  2  6  1  0
  4  7  1  0
  4  3  1  0
  5 46  1  0
  5  3  2  0
  6  4  2  0
  7 13  1  0
  7 14  2  0
  8 13  1  0
  9 10  1  0
  9  8  1  0
 11 10  1  0
 11 18  1  0
 11 12  1  0
 13 12  1  0
 15 16  2  0
 16 17  1  0
 16 35  1  0
 17 20  1  0
 18 15  1  0
 18 19  1  0
 19 17  2  0
 20 21  1  0
 21 22  2  0
 23 26  1  0
 23 22  1  0
 24 23  2  0
 25 24  1  0
 25 20  2  0
 26 27  1  0
 27 28  1  0
 28 29  2  0
 30 29  1  0
 30 34  1  0
 31 30  2  0
 32 27  2  0
 32 31  1  0
 33 32  1  0
 35 36  1  0
 36 39  1  0
 36 38  1  0
 37 35  2  0
 40 15  1  0
 41 40  1  0
 42 40  1  0
 43 45  1  0
 43  6  1  0
 44 43  1  0
 47 48  1  0
 47 46  1  0
 49 51  1  0
 49 48  1  0
 50 61  2  0
 51 56  1  0
 52 60  1  0
 52 62  1  0
 53 59  1  0
 53 55  1  0
 54 60  1  0
 55 54  1  0
 56 55  2  0
 57 58  1  0
 57 51  2  0
 58 53  2  0
 59 52  1  0
 60 50  1  0
 62 64  2  0
 63 62  1  0
 65 63  1  0
 66 75  2  0
 66 71  1  0
 67 63  1  0
 67 71  1  0
 68 67  1  0
 69 70  1  0
 69 68  1  0
 70 66  1  0
 71 72  2  0
 72 73  1  0
 74 73  2  0
 75 74  1  0
 76 50  1  0
 76 81  1  0
 76 77  1  0
 77 80  1  1
 77 78  1  0
 79 77  1  0
 81 84  1  0
 82 86  1  0
 82 81  1  0
 83 82  2  0
 86 85  1  0
 88 86  1  0
 88 89  1  0
 88 87  1  0
M  ISO  4   4 100   7 100  48 101  49 101
M  END
>  <TORSDO>  (3) 
F 20

>  <SCORE>  (3) 
-15.181

>  <name>  (3) 
2

>  <ligand_id>  (3) 
2

>  <original_smiles>  (3) 
[H]c1c([H])c([H])c2c(c1[H])C([H])([H])C([H])([H])C([H])([H])C2([H])N([H])C(=O)C1([H])N(C(=O)C([H])(N([H])C(=O)C([H])(N([H])C([H])([H])[H])C([H])([H])[H])C(C([H])([H])[H])(C([H])([H])[H])C([H])([H])[H])C([H])([H])c2c([H])c(OC([H])([H])C([H])([H])C([H])([H])c3c([H])c([H])c(N([H])[H])c(C(=O)N4C([H])([H])C([H])([H])C([H])([H])C([H])(n5nc(-c6c([H])c([H])c(Oc7c([H])c([H])c(F)c([H])c7F)c([H])c6[H])c(C(=O)N([H])[H])c5N([H])[H])C4([H])[H])c3[H])c([H])c([H])c2C1([H])[H]

>  <smiles>  (3) 
[H]c1c([H])c([H])c2c(c1[H])C([H])([H])C([H])([H])C([H])([H])C2([H])N([H])C(=O)C1([H])N(C(=O)C([H])(N([H])C(=O)C([H])(N([H])C([H])([H])[H])C([H])([H])[H])C(C([H])([H])[H])(C([H])([H])[H])C([H])([H])[H])C([H])([H])c2c([H])c(OC([H])([H])C([H])([H])C([H])([H])c3c([H])c([H])c(N([H])[H])c(C(=O)N4C([H])([H])C([H])([H])C([H])([H])C([H])(n5nc(-c6c([H])c([H])c(Oc7c([H])c([H])c(F)c([H])c7F)c([H])c6[H])c(C(=O)N([H])[H])c5N([H])[H])C4([H])[H])c3[H])c([H])c([H])c2C1([H])[H]

$$$$
3:0:0
     RDKit          3D

 92 99  0  0  1  0  0  0  0  0999 V2000
  -29.3430  -20.5370   20.2680 N   0  0  0  0  0  4  0  0  0  0  0  0
  -28.4030  -20.2090   20.4180 H   0  0  0  0  0  0  0  0  0  0  0  0
  -29.7460  -20.6730   21.1830 H   0  0  0  0  0  0  0  0  0  0  0  0
  -29.1620  -21.9520   19.5990 C   0  0  0  0  0  2  0  0  0  0  0  0
  -28.8850  -23.3570   20.4630 C   0  0  0  0  0  3  0  0  0  0  0  0
  -28.2800  -24.7570   19.7800 C   0  0  0  0  0  3  0  0  0  0  0  0
  -28.2740  -26.1800   20.3840 O   0  0  0  0  0  0  0  0  0  0  0  0
  -24.5930  -31.8300   23.2820 C   0  0  0  0  0  0  0  0  0  0  0  0
  -27.1900  -27.1210   20.2780 C   0  0  0  0  0  0  0  0  0  0  0  0
  -23.4080  -30.4300   21.6420 C   0  0  0  0  0  3  0  0  0  0  0  0
  -24.8560  -28.8530   20.2290 C   0  0  0  0  0  0  0  0  0  0  0  0
  -25.9610  -30.6860   21.5040 C   0  0  0  0  0  2  0  0  0  0  0  0
  -26.0280  -29.2990   20.8490 C   0  0  0  0  0  0  0  0  0  0  0  0
  -27.1910  -28.4490   20.8610 C   0  0  0  0  0  3  0  0  0  0  0  0
  -25.9880  -26.7680   19.6220 C   0  0  0  0  0  3  0  0  0  0  0  0
  -24.8480  -27.5970   19.6020 C   0  0  0  0  0  3  0  0  0  0  0  0
  -23.6310  -29.7490   20.2670 C   0  0  0  0  0  2  0  0  0  0  0  0
  -24.6740  -31.0030   22.1960 N   0  0  0  0  0  0  0  0  0  0  0  0
  -23.5020  -32.1200   23.7940 O   0  0  0  0  0  0  0  0  0  0  0  0
  -22.7150  -29.4280   22.6000 C   0  0  0  0  0  0  0  0  0  0  0  0
  -21.3890  -29.2570   22.4490 N   0  0  0  0  0  0  0  0  0  0  0  0
  -23.3680  -28.8070   23.4410 O   0  0  0  0  0  0  0  0  0  0  0  0
  -20.9200  -29.8050   21.7430 H   0  0  0  0  0  0  0  0  0  0  0  0
  -17.9920  -28.0780   22.9130 C   0  0  0  0  0  0  0  0  0  0  0  0
  -20.5480  -28.3280   23.2130 C   0  0  0  0  0  3  0  0  0  0  0  0
  -20.6520  -26.8930   22.6460 C   0  0  0  0  0  2  0  0  0  0  0  0
  -19.5590  -26.5700   21.6230 C   0  0  0  0  0  2  0  0  0  0  0  0
  -18.1710  -26.7240   22.2460 C   0  0  0  0  0  2  0  0  0  0  0  0
  -19.1080  -28.8390   23.3520 C   0  0  0  0  0  0  0  0  0  0  0  0
  -18.8840  -30.1050   23.9370 C   0  0  0  0  0  3  0  0  0  0  0  0
  -17.5780  -30.6090   24.0850 C   0  0  0  0  0  3  0  0  0  0  0  0
  -16.4780  -29.8430   23.6640 C   0  0  0  0  0  3  0  0  0  0  0  0
  -16.6860  -28.5800   23.0840 C   0  0  0  0  0  3  0  0  0  0  0  0
  -25.8650  -32.4590   23.9240 C   0  0  0  0  0  3  0  0  0  0  0  0
  -25.5650  -33.8670   24.2250 N   0  0  0  0  0  0  0  0  0  0  0  0
  -25.9160  -34.9070   23.4580 C   0  0  0  0  0  0  0  0  0  0  0  0
  -26.5990  -34.7830   22.4390 O   0  0  0  0  0  0  0  0  0  0  0  0
  -24.9640  -34.0400   25.0180 H   0  0  0  0  0  0  0  0  0  0  0  0
  -24.2040  -36.7070   23.0720 C   0  0  0  0  0  1  0  0  0  0  0  0
  -25.4400  -36.3090   23.8920 C   0  0  0  0  0  3  0  0  0  0  0  0
  -27.5850  -37.1820   24.7110 C   0  0  0  0  0  1  0  0  0  0  0  0
  -26.4810  -37.3540   23.7680 N   0  0  0  0  0  0  0  0  0  0  0  0
  -26.0840  -38.2790   23.9130 H   0  0  0  0  0  0  0  0  0  0  0  0
  -26.3400  -31.7120   25.2310 C   0  0  1  0  0  0  0  0  0  0  0  0
  -25.2140  -31.5090   26.2730 C   0  0  0  0  0  1  0  0  0  0  0  0
  -26.9240  -30.3220   24.8920 C   0  0  0  0  0  1  0  0  0  0  0  0
  -27.4830  -32.5120   25.9040 C   0  0  0  0  0  1  0  0  0  0  0  0
  -30.1240  -19.3330   19.6120 C   0  0  0  0  0  3  0  0  0  0  0  0
  -32.5230  -20.0530   18.7170 C   0  0  0  0  0  1  0  0  0  0  0  0
  -32.0880  -20.2380   21.1810 C   0  0  0  0  0  1  0  0  0  0  0  0
  -31.6800  -19.4920   19.8820 C   0  0  0  0  0  3  0  0  0  0  0  0
  -29.6090  -17.5060   21.4240 C   0  0  0  0  0  1  0  0  0  0  0  0
  -29.6250  -17.7250   19.8960 C   0  0  1  0  0  0  0  0  0  0  0  0
  -26.9520  -18.1070   19.9870 C   0  0  0  0  0  1  0  0  0  0  0  0
  -28.1910  -17.4870   19.3100 C   0  0  0  0  0  2  0  0  0  0  0  0
  -30.4610  -16.4590   19.1710 C   0  0  0  0  0  2  0  0  0  0  0  0
  -31.0510  -15.0250   19.7570 C   0  0  0  0  0  0  0  0  0  0  0  0
  -30.7830  -12.6310   19.0360 C   0  0  0  0  0  2  0  0  0  0  0  0
  -29.8300  -12.5430   17.8270 C   0  0  0  0  0  2  0  0  0  0  0  0
  -28.3560  -12.4670   18.2840 C   0  0  0  0  0  2  0  0  0  0  0  0
  -28.0020  -13.4560   19.4260 C   0  0  0  0  0  3  0  0  0  0  0  0
  -29.0970  -13.5250   20.5030 C   0  0  0  0  0  2  0  0  0  0  0  0
  -30.3710  -13.8150   19.8340 N   0  0  0  0  0  0  0  0  0  0  0  0
  -32.2820  -14.9510   19.7020 O   0  0  0  0  0  0  0  0  0  0  0  0
  -25.6750  -14.1000   20.2810 C   0  0  0  0  0  0  0  0  0  0  0  0
  -24.6040  -13.3610   20.6840 C   0  0  0  0  0  0  0  0  0  0  0  0
  -25.0160  -11.9940   20.6210 C   0  0  0  0  0  0  0  0  0  0  0  0
  -26.6820  -13.1920   19.9880 N   0  0  0  0  0  0  0  0  0  0  0  0
  -26.2930  -11.9160   20.2590 N   0  0  0  0  0  0  0  0  0  0  0  0
  -24.2410  -10.7610   20.8150 C   0  0  0  0  0  0  0  0  0  0  0  0
  -24.6470   -9.7700   21.7320 C   0  0  0  0  0  3  0  0  0  0  0  0
  -23.8700   -8.6090   21.9250 C   0  0  0  0  0  3  0  0  0  0  0  0
  -22.6760   -8.4220   21.1870 C   0  0  0  0  0  0  0  0  0  0  0  0
  -22.2870   -9.4020   20.2550 C   0  0  0  0  0  3  0  0  0  0  0  0
  -23.0650  -10.5550   20.0650 C   0  0  0  0  0  3  0  0  0  0  0  0
  -21.8780   -7.3060   21.2890 O   0  0  0  0  0  0  0  0  0  0  0  0
  -21.7940   -6.5710   22.4440 C   0  0  0  0  0  0  0  0  0  0  0  0
  -21.3890   -7.1550   23.6640 C   0  0  0  0  0  3  0  0  0  0  0  0
  -21.2560   -6.3550   24.8160 C   0  0  0  0  0  3  0  0  0  0  0  0
  -21.5110   -4.9730   24.7470 C   0  0  0  0  0  0  0  0  0  0  0  0
  -21.9070   -4.3880   23.5330 C   0  0  0  0  0  3  0  0  0  0  0  0
  -22.0450   -5.1870   22.3830 C   0  0  0  0  0  0  0  0  0  0  0  0
  -22.4090   -4.6130   21.2100 F   0  0  0  0  0  0  0  0  0  0  0  0
  -21.3720   -4.2050   25.8520 F   0  0  0  0  0  0  0  0  0  0  0  0
  -23.2370  -13.8920   21.0160 C   0  0  0  0  0  0  0  0  0  0  0  0
  -22.5230  -13.2290   21.9150 N   0  0  0  0  0  0  0  0  0  0  0  0
  -22.8160  -14.9360   20.5190 O   0  0  0  0  0  0  0  0  0  0  0  0
  -22.8860  -12.3950   22.3530 H   0  0  0  0  0  0  0  0  0  0  0  0
  -21.6040  -13.5580   22.1770 H   0  0  0  0  0  0  0  0  0  0  0  0
  -25.8630  -15.4660   20.1060 N   0  0  0  0  0  0  0  0  0  0  0  0
  -25.0920  -16.1170   20.2070 H   0  0  0  0  0  0  0  0  0  0  0  0
  -26.6680  -15.8810   19.6600 H   0  0  0  0  0  0  0  0  0  0  0  0
  1  2  1  0
  1  3  1  0
  4  1  1  0
  4  5  1  0
  6  7  1  0
  6  5  2  0
  8 19  2  0
  9  7  1  0
  9 14  1  0
 10 18  1  0
 10 20  1  0
 11 17  1  0
 11 13  1  0
 12 18  1  0
 13 14  2  0
 13 12  1  0
 15  9  2  0
 16 15  1  0
 16 11  2  0
 17 10  1  0
 18  8  1  0
 20 22  2  0
 21 20  1  0
 23 21  1  0
 24 33  2  0
 24 29  1  0
 25 21  1  0
 25 29  1  0
 26 25  1  0
 27 28  1  0
 27 26  1  0
 28 24  1  0
 29 30  2  0
 30 31  1  0
 32 31  2  0
 33 32  1  0
 34  8  1  0
 34 35  1  0
 34 44  1  0
 35 38  1  0
 36 40  1  0
 36 35  1  0
 37 36  2  0
 40 39  1  0
 42 40  1  0
 42 43  1  0
 42 41  1  0
 44 47  1  1
 44 45  1  0
 46 44  1  0
 48 51  1  0
 48 53  1  0
 48  1  1  0
 49 51  1  0
 51 50  1  0
 53 52  1  1
 55 53  1  0
 55 54  1  0
 56 57  1  0
 56 53  1  0
 57 63  1  0
 58 63  1  0
 59 60  1  0
 59 58  1  0
 61 60  1  0
 61 68  1  0
 61 62  1  0
 63 62  1  0
 64 57  2  0
 65 66  2  0
 66 85  1  0
 67 66  1  0
 67 70  1  0
 68 69  1  0
 68 65  1  0
 69 67  2  0
 70 71  1  0
 71 72  2  0
 73 76  1  0
 73 72  1  0
 74 73  2  0
 75 74  1  0
 75 70  2  0
 76 77  1  0
 77 78  1  0
 78 79  2  0
 80 79  1  0
 80 84  1  0
 81 80  2  0
 82 77  2  0
 82 81  1  0
 83 82  1  0
 85 86  1  0
 86 89  1  0
 86 88  1  0
 87 85  2  0
 90 91  1  0
 90 65  1  0
 92 90  1  0
M  ISO  4   6 101   7 101  56 100  57 100
M  END
>  <TORSDO>  (4) 
F 24

>  <SCORE>  (4) 
-12.682

>  <name>  (4) 
3

>  <ligand_id>  (4) 
3

>  <original_smiles>  (4) 
[H]c1c([H])c([H])c2c(c1[H])C([H])([H])C([H])([H])C([H])([H])C2([H])N([H])C(=O)C1([H])N(C(=O)C([H])(N([H])C(=O)C([H])(N([H])C([H])([H])[H])C([H])([H])[H])C(C([H])([H])[H])(C([H])([H])[H])C([H])([H])[H])C([H])([H])c2c([H])c(OC([H])([H])C([H])([H])C([H])([H])[N+]([H])([H])C([H])(C([H])(C([H])([H])[H])C([H])([H])[H])C(C([H])([H])[H])(C([H])([H])C(=O)N3C([H])([H])C([H])([H])C([H])([H])C([H])(n4nc(-c5c([H])c([H])c(Oc6c([H])c([H])c(F)c([H])c6F)c([H])c5[H])c(C(=O)N([H])[H])c4N([H])[H])C3([H])[H])C([H])([H])C([H])([H])[H])c([H])c([H])c2C1([H])[H]

>  <smiles>  (4) 
[H]c1c([H])c([H])c2c(c1[H])C([H])([H])C([H])([H])C([H])([H])C2([H])N([H])C(=O)C1([H])N(C(=O)C([H])(N([H])C(=O)C([H])(N([H])C([H])([H])[H])C([H])([H])[H])C(C([H])([H])[H])(C([H])([H])[H])C([H])([H])[H])C([H])([H])c2c([H])c(OC([H])([H])C([H])([H])C([H])([H])[N+]([H])([H])C([H])(C([H])(C([H])([H])[H])C([H])([H])[H])C(C([H])([H])[H])(C([H])([H])C(=O)N3C([H])([H])C([H])([H])C([H])([H])C([H])(n4nc(-c5c([H])c([H])c(Oc6c([H])c([H])c(F)c([H])c6F)c([H])c5[H])c(C(=O)N([H])[H])c4N([H])[H])C3([H])[H])C([H])([H])C([H])([H])[H])c([H])c([H])c2C1([H])[H]

$$$$
4:0:0
     RDKit          3D

 92100  0  0  1  0  0  0  0  0999 V2000
  -30.1490  -22.2070   20.9250 N   0  0  2  0  0  4  0  0  0  0  0  0
  -30.6060  -22.0980   21.8190 H   0  0  0  0  0  0  0  0  0  0  0  0
  -30.9270  -22.0160   18.5030 C   0  0  0  0  0  1  0  0  0  0  0  0
  -31.3060  -22.1170   19.9900 C   0  0  0  0  0  2  0  0  0  0  0  0
  -29.2260  -21.0180   20.9450 C   0  0  0  0  0  2  0  0  0  0  0  0
  -31.5670  -18.3960   22.5810 C   0  0  0  0  0  3  0  0  0  0  0  0
  -31.1930  -17.1970   21.9410 C   0  0  0  0  0  3  0  0  0  0  0  0
  -30.9240  -19.6080   22.2630 C   0  0  0  0  0  3  0  0  0  0  0  0
  -29.5500  -18.4380   20.6360 C   0  0  0  0  0  3  0  0  0  0  0  0
  -30.1610  -17.1920   20.9780 C   0  0  0  0  0  0  0  0  0  0  0  0
  -29.9230  -19.6620   21.2650 C   0  0  0  0  0  0  0  0  0  0  0  0
  -29.5900  -15.8560   20.4510 C   0  0  0  0  0  2  0  0  0  0  0  0
  -30.5260  -14.6400   20.0880 C   0  0  0  0  0  0  0  0  0  0  0  0
  -30.3210  -12.4470   18.9490 C   0  0  0  0  0  2  0  0  0  0  0  0
  -29.3130  -12.6220   17.7880 C   0  0  0  0  0  2  0  0  0  0  0  0
  -27.8530  -12.4600   18.2790 C   0  0  0  0  0  2  0  0  0  0  0  0
  -27.5610  -13.2690   19.5700 C   0  0  0  0  0  3  0  0  0  0  0  0
  -28.6730  -13.0260   20.6160 C   0  0  0  0  0  2  0  0  0  0  0  0
  -29.9580  -13.3990   20.0100 N   0  0  0  0  0  0  0  0  0  0  0  0
  -31.6680  -14.8510   19.6650 O   0  0  0  0  0  0  0  0  0  0  0  0
  -25.1990  -13.8710   20.3910 C   0  0  0  0  0  0  0  0  0  0  0  0
  -24.1500  -13.1000   20.8040 C   0  0  0  0  0  0  0  0  0  0  0  0
  -24.6090  -11.7480   20.7450 C   0  0  0  0  0  0  0  0  0  0  0  0
  -26.2330  -12.9900   20.1060 N   0  0  0  0  0  0  0  0  0  0  0  0
  -25.8820  -11.7090   20.3760 N   0  0  0  0  0  0  0  0  0  0  0  0
  -23.8920  -10.4880   20.9650 C   0  0  0  0  0  0  0  0  0  0  0  0
  -24.3550   -9.5320   21.8960 C   0  0  0  0  0  3  0  0  0  0  0  0
  -23.6440   -8.3320   22.1010 C   0  0  0  0  0  3  0  0  0  0  0  0
  -22.4560   -8.0790   21.3760 C   0  0  0  0  0  0  0  0  0  0  0  0
  -22.0160   -9.0210   20.4320 C   0  0  0  0  0  3  0  0  0  0  0  0
  -22.7260  -10.2150   20.2240 C   0  0  0  0  0  3  0  0  0  0  0  0
  -21.7110   -6.9300   21.4900 O   0  0  0  0  0  0  0  0  0  0  0  0
  -21.6810   -6.2060   22.6550 C   0  0  0  0  0  0  0  0  0  0  0  0
  -21.2630   -6.7740   23.8770 C   0  0  0  0  0  3  0  0  0  0  0  0
  -21.1790   -5.9740   25.0350 C   0  0  0  0  0  3  0  0  0  0  0  0
  -21.5020   -4.6060   24.9740 C   0  0  0  0  0  0  0  0  0  0  0  0
  -21.9180   -4.0380   23.7560 C   0  0  0  0  0  3  0  0  0  0  0  0
  -22.0030   -4.8360   22.6010 C   0  0  0  0  0  0  0  0  0  0  0  0
  -22.3820   -4.2780   21.4280 F   0  0  0  0  0  0  0  0  0  0  0  0
  -21.4190   -3.8350   26.0840 F   0  0  0  0  0  0  0  0  0  0  0  0
  -22.7660  -13.5730   21.1420 C   0  0  0  0  0  0  0  0  0  0  0  0
  -22.0790  -12.8680   22.0320 N   0  0  0  0  0  0  0  0  0  0  0  0
  -22.3050  -14.6040   20.6500 O   0  0  0  0  0  0  0  0  0  0  0  0
  -22.4740  -12.0450   22.4600 H   0  0  0  0  0  0  0  0  0  0  0  0
  -21.1420  -13.1560   22.2830 H   0  0  0  0  0  0  0  0  0  0  0  0
  -25.3500  -15.2440   20.2130 N   0  0  0  0  0  0  0  0  0  0  0  0
  -24.5820  -15.8880   20.3600 H   0  0  0  0  0  0  0  0  0  0  0  0
  -26.1750  -15.6960   19.8390 H   0  0  0  0  0  0  0  0  0  0  0  0
  -29.5690  -23.5980   21.0910 C   0  0  0  0  0  2  0  0  0  0  0  0
  -28.4820  -24.1100   20.0830 C   0  0  0  0  0  2  0  0  0  0  0  0
  -28.6730  -25.5360   19.4400 C   0  0  0  0  0  2  0  0  0  0  0  0
  -28.4330  -26.7300   20.2340 O   0  0  0  0  0  0  0  0  0  0  0  0
  -24.5860  -31.9280   23.2460 C   0  0  0  0  0  0  0  0  0  0  0  0
  -27.2450  -27.4570   20.1720 C   0  0  0  0  0  0  0  0  0  0  0  0
  -23.3800  -30.5260   21.6050 C   0  0  0  0  0  3  0  0  0  0  0  0
  -24.8360  -28.9830   20.1750 C   0  0  0  0  0  0  0  0  0  0  0  0
  -25.9040  -30.8820   21.4040 C   0  0  0  0  0  2  0  0  0  0  0  0
  -25.9960  -29.5070   20.7590 C   0  0  0  0  0  0  0  0  0  0  0  0
  -27.1950  -28.7520   20.7520 C   0  0  0  0  0  3  0  0  0  0  0  0
  -26.0580  -26.9500   19.5920 C   0  0  0  0  0  3  0  0  0  0  0  0
  -24.8640  -27.7050   19.5880 C   0  0  0  0  0  3  0  0  0  0  0  0
  -23.5900  -29.8450   20.2240 C   0  0  0  0  0  2  0  0  0  0  0  0
  -24.6410  -31.1270   22.1450 N   0  0  0  0  0  0  0  0  0  0  0  0
  -23.5070  -32.1990   23.7890 O   0  0  0  0  0  0  0  0  0  0  0  0
  -22.7310  -29.5050   22.5680 C   0  0  0  0  0  0  0  0  0  0  0  0
  -21.4050  -29.3210   22.4420 N   0  0  0  0  0  0  0  0  0  0  0  0
  -23.4160  -28.8800   23.3830 O   0  0  0  0  0  0  0  0  0  0  0  0
  -20.9130  -29.8700   21.7490 H   0  0  0  0  0  0  0  0  0  0  0  0
  -18.0340  -28.1260   22.9510 C   0  0  0  0  0  0  0  0  0  0  0  0
  -20.5910  -28.3830   23.2160 C   0  0  0  0  0  3  0  0  0  0  0  0
  -20.6940  -26.9530   22.6400 C   0  0  0  0  0  2  0  0  0  0  0  0
  -19.5900  -26.6300   21.6290 C   0  0  0  0  0  2  0  0  0  0  0  0
  -18.2080  -26.7780   22.2730 C   0  0  0  0  0  2  0  0  0  0  0  0
  -19.1510  -28.8880   23.3810 C   0  0  0  0  0  0  0  0  0  0  0  0
  -18.9350  -30.1520   23.9740 C   0  0  0  0  0  3  0  0  0  0  0  0
  -17.6310  -30.6510   24.1470 C   0  0  0  0  0  3  0  0  0  0  0  0
  -16.5270  -29.8850   23.7350 C   0  0  0  0  0  3  0  0  0  0  0  0
  -16.7300  -28.6250   23.1440 C   0  0  0  0  0  3  0  0  0  0  0  0
  -25.8740  -32.5610   23.8620 C   0  0  0  0  0  3  0  0  0  0  0  0
  -25.5690  -33.9580   24.1900 N   0  0  0  0  0  0  0  0  0  0  0  0
  -25.8990  -35.0090   23.4290 C   0  0  0  0  0  0  0  0  0  0  0  0
  -26.5660  -34.9050   22.3950 O   0  0  0  0  0  0  0  0  0  0  0  0
  -24.9860  -34.1170   25.0000 H   0  0  0  0  0  0  0  0  0  0  0  0
  -24.1720  -36.8000   23.0720 C   0  0  0  0  0  1  0  0  0  0  0  0
  -25.4120  -36.3970   23.8850 C   0  0  0  0  0  3  0  0  0  0  0  0
  -27.5430  -37.2820   24.7200 C   0  0  0  0  0  1  0  0  0  0  0  0
  -26.4440  -37.4510   23.7740 N   0  0  0  0  0  0  0  0  0  0  0  0
  -26.0350  -38.3690   23.9260 H   0  0  0  0  0  0  0  0  0  0  0  0
  -26.3980  -31.7930   25.1370 C   0  0  1  0  0  0  0  0  0  0  0  0
  -25.3090  -31.5510   26.2080 C   0  0  0  0  0  1  0  0  0  0  0  0
  -26.9840  -30.4160   24.7420 C   0  0  0  0  0  1  0  0  0  0  0  0
  -27.5500  -32.5910   25.7940 C   0  0  0  0  0  1  0  0  0  0  0  0
  1  5  1  0
  1 49  1  0
  1  2  1  1
  3  4  1  0
  4  1  1  0
  5 11  1  0
  7  6  2  0
  8  6  1  0
  9 10  2  0
  9 11  1  0
 10  7  1  0
 11  8  2  0
 12 10  1  0
 13 12  1  0
 14 19  1  0
 15 16  1  0
 15 14  1  0
 17 16  1  0
 17 24  1  0
 17 18  1  0
 19 13  1  0
 19 18  1  0
 20 13  2  0
 21 22  2  0
 22 41  1  0
 23 22  1  0
 23 26  1  0
 24 25  1  0
 24 21  1  0
 25 23  2  0
 26 27  1  0
 27 28  2  0
 29 32  1  0
 29 28  1  0
 30 29  2  0
 31 30  1  0
 31 26  2  0
 32 33  1  0
 33 34  1  0
 34 35  2  0
 36 35  1  0
 36 40  1  0
 37 36  2  0
 38 33  2  0
 38 37  1  0
 39 38  1  0
 41 42  1  0
 42 45  1  0
 42 44  1  0
 43 41  2  0
 46 47  1  0
 46 21  1  0
 48 46  1  0
 50 49  1  0
 51 50  1  0
 51 52  1  0
 53 64  2  0
 54 52  1  0
 54 59  1  0
 55 63  1  0
 55 65  1  0
 56 62  1  0
 56 58  1  0
 57 63  1  0
 58 57  1  0
 59 58  2  0
 60 54  2  0
 61 60  1  0
 61 56  2  0
 62 55  1  0
 63 53  1  0
 65 67  2  0
 66 65  1  0
 68 66  1  0
 69 78  2  0
 69 74  1  0
 70 66  1  0
 70 74  1  0
 71 70  1  0
 72 73  1  0
 72 71  1  0
 73 69  1  0
 74 75  2  0
 75 76  1  0
 77 76  2  0
 78 77  1  0
 79 53  1  0
 79 80  1  0
 79 89  1  0
 80 83  1  0
 81 85  1  0
 81 80  1  0
 82 81  2  0
 85 84  1  0
 87 85  1  0
 87 88  1  0
 87 86  1  0
 89 92  1  1
 89 90  1  0
 91 89  1  0
M  ISO  4  12 100  13 100  51 101  52 101
M  END
>  <TORSDO>  (5) 
F 23

>  <SCORE>  (5) 
-12.469

>  <name>  (5) 
4

>  <ligand_id>  (5) 
4

>  <original_smiles>  (5) 
[H]c1c([H])c([H])c2c(c1[H])C([H])([H])C([H])([H])C([H])([H])C2([H])N([H])C(=O)C1([H])N(C(=O)C([H])(N([H])C(=O)C([H])(N([H])C([H])([H])[H])C([H])([H])[H])C(C([H])([H])[H])(C([H])([H])[H])C([H])([H])[H])C([H])([H])c2c([H])c(OC([H])([H])C([H])([H])C([H])([H])[N+]([H])(C([H])([H])c3c([H])c([H])c([H])c(C([H])([H])C(=O)N4C([H])([H])C([H])([H])C([H])([H])C([H])(n5nc(-c6c([H])c([H])c(Oc7c([H])c([H])c(F)c([H])c7F)c([H])c6[H])c(C(=O)N([H])[H])c5N([H])[H])C4([H])[H])c3[H])C([H])([H])C([H])([H])[H])c([H])c([H])c2C1([H])[H]

>  <smiles>  (5) 
[H]c1c([H])c([H])c2c(c1[H])C([H])([H])C([H])([H])C([H])([H])C2([H])N([H])C(=O)C1([H])N(C(=O)C([H])(N([H])C(=O)C([H])(N([H])C([H])([H])[H])C([H])([H])[H])C(C([H])([H])[H])(C([H])([H])[H])C([H])([H])[H])C([H])([H])c2c([H])c(OC([H])([H])C([H])([H])C([H])([H])[N+]([H])(C([H])([H])c3c([H])c([H])c([H])c(C([H])([H])C(=O)N4C([H])([H])C([H])([H])C([H])([H])C([H])(n5nc(-c6c([H])c([H])c(Oc7c([H])c([H])c(F)c([H])c7F)c([H])c6[H])c(C(=O)N([H])[H])c5N([H])[H])C4([H])[H])c3[H])C([H])([H])C([H])([H])[H])c([H])c([H])c2C1([H])[H]

$$$$
5:0:0
     RDKit          3D

 86 93  0  0  1  0  0  0  0  0999 V2000
  -29.6860  -18.9940   19.0310 C   0  0  0  0  0  2  0  0  0  0  0  0
  -28.8900  -20.5630   18.9310 C   0  0  0  0  0  2  0  0  0  0  0  0
  -29.2170  -18.9660   21.3040 C   0  0  0  0  0  2  0  0  0  0  0  0
  -29.4480  -17.7010   20.1060 C   0  0  0  0  0  3  0  0  0  0  0  0
  -28.6050  -21.6860   20.1640 C   0  0  0  0  0  2  0  0  0  0  0  0
  -29.2450  -20.6480   21.2290 N   0  0  0  0  0  4  0  0  0  0  0  0
  -30.2260  -20.8780   21.2350 H   0  0  0  0  0  0  0  0  0  0  0  0
  -28.9150  -20.9510   22.1320 H   0  0  0  0  0  0  0  0  0  0  0  0
  -30.2610  -15.9310   20.1050 C   0  0  0  0  0  0  0  0  0  0  0  0
  -30.4500  -13.3310   19.3360 C   0  0  0  0  0  2  0  0  0  0  0  0
  -29.5630  -12.8480   18.1460 C   0  0  0  0  0  2  0  0  0  0  0  0
  -28.1610  -12.4420   18.6220 C   0  0  0  0  0  2  0  0  0  0  0  0
  -27.6270  -13.4490   19.6630 C   0  0  0  0  0  3  0  0  0  0  0  0
  -28.6560  -13.8430   20.7510 C   0  0  0  0  0  2  0  0  0  0  0  0
  -29.8000  -14.5180   20.0820 N   0  0  0  0  0  0  0  0  0  0  0  0
  -31.4950  -15.8400   19.9250 O   0  0  0  0  0  0  0  0  0  0  0  0
  -25.2810  -13.9260   20.4960 C   0  0  0  0  0  0  0  0  0  0  0  0
  -24.2420  -13.1260   20.8760 C   0  0  0  0  0  0  0  0  0  0  0  0
  -24.7310  -11.7840   20.8180 C   0  0  0  0  0  0  0  0  0  0  0  0
  -26.3320  -13.0740   20.2140 N   0  0  0  0  0  0  0  0  0  0  0  0
  -26.0190  -11.7770   20.4760 N   0  0  0  0  0  0  0  0  0  0  0  0
  -24.0230  -10.5100   21.0080 C   0  0  0  0  0  0  0  0  0  0  0  0
  -24.4460   -9.5620   21.9670 C   0  0  0  0  0  3  0  0  0  0  0  0
  -23.7310   -8.3580   22.1470 C   0  0  0  0  0  3  0  0  0  0  0  0
  -22.5800   -8.0900   21.3690 C   0  0  0  0  0  0  0  0  0  0  0  0
  -22.1760   -9.0270   20.4000 C   0  0  0  0  0  3  0  0  0  0  0  0
  -22.8910  -10.2230   20.2180 C   0  0  0  0  0  3  0  0  0  0  0  0
  -21.8400   -6.9350   21.4550 O   0  0  0  0  0  0  0  0  0  0  0  0
  -21.7210   -6.2430   22.6340 C   0  0  0  0  0  0  0  0  0  0  0  0
  -21.1380   -6.8210   23.7820 C   0  0  0  0  0  3  0  0  0  0  0  0
  -20.9720   -6.0520   24.9510 C   0  0  0  0  0  3  0  0  0  0  0  0
  -21.3800   -4.7050   24.9720 C   0  0  0  0  0  0  0  0  0  0  0  0
  -21.9570   -4.1260   23.8280 C   0  0  0  0  0  3  0  0  0  0  0  0
  -22.1230   -4.8930   22.6620 C   0  0  0  0  0  0  0  0  0  0  0  0
  -22.6600   -4.3230   21.5550 F   0  0  0  0  0  0  0  0  0  0  0  0
  -21.2160   -3.9640   26.0920 F   0  0  0  0  0  0  0  0  0  0  0  0
  -22.8440  -13.5810   21.1730 C   0  0  0  0  0  0  0  0  0  0  0  0
  -22.1440  -12.8760   22.0540 N   0  0  0  0  0  0  0  0  0  0  0  0
  -22.3820  -14.5990   20.6590 O   0  0  0  0  0  0  0  0  0  0  0  0
  -22.5330  -12.0530   22.4900 H   0  0  0  0  0  0  0  0  0  0  0  0
  -21.2070  -13.1640   22.2960 H   0  0  0  0  0  0  0  0  0  0  0  0
  -25.4180  -15.3020   20.3330 N   0  0  0  0  0  0  0  0  0  0  0  0
  -24.6420  -15.9400   20.4700 H   0  0  0  0  0  0  0  0  0  0  0  0
  -26.2500  -15.7580   19.9820 H   0  0  0  0  0  0  0  0  0  0  0  0
  -27.9600  -23.6210   20.2760 C   0  0  0  0  0  1  0  0  0  0  0  0
  -28.1530  -25.4330   20.2160 O   0  0  0  0  0  0  0  0  0  0  0  0
  -24.6550  -31.8480   23.2070 C   0  0  0  0  0  0  0  0  0  0  0  0
  -27.1850  -26.6930   20.2040 C   0  0  0  0  0  0  0  0  0  0  0  0
  -23.4720  -30.4500   21.5700 C   0  0  0  0  0  3  0  0  0  0  0  0
  -24.9200  -28.7900   20.1560 C   0  0  0  0  0  0  0  0  0  0  0  0
  -26.0550  -30.5710   21.4520 C   0  0  0  0  0  2  0  0  0  0  0  0
  -26.1200  -29.1280   20.7910 C   0  0  0  0  0  0  0  0  0  0  0  0
  -27.2330  -28.1130   20.7760 C   0  0  0  0  0  3  0  0  0  0  0  0
  -25.9450  -26.5960   19.5130 C   0  0  0  0  0  3  0  0  0  0  0  0
  -24.8780  -27.5520   19.4920 C   0  0  0  0  0  3  0  0  0  0  0  0
  -23.7150  -29.7500   20.2000 C   0  0  0  0  0  2  0  0  0  0  0  0
  -24.7520  -30.9920   22.1280 N   0  0  0  0  0  0  0  0  0  0  0  0
  -23.5610  -32.1460   23.7160 O   0  0  0  0  0  0  0  0  0  0  0  0
  -22.7520  -29.4760   22.5430 C   0  0  0  0  0  0  0  0  0  0  0  0
  -21.4200  -29.3100   22.4120 N   0  0  0  0  0  0  0  0  0  0  0  0
  -23.4060  -28.8630   23.3900 O   0  0  0  0  0  0  0  0  0  0  0  0
  -20.9400  -29.8550   21.7090 H   0  0  0  0  0  0  0  0  0  0  0  0
  -18.0390  -28.0760   22.9320 C   0  0  0  0  0  0  0  0  0  0  0  0
  -20.5990  -28.3680   23.1840 C   0  0  0  0  0  3  0  0  0  0  0  0
  -20.7080  -26.9360   22.6070 C   0  0  0  0  0  2  0  0  0  0  0  0
  -19.6060  -26.6080   21.5950 C   0  0  0  0  0  2  0  0  0  0  0  0
  -18.2260  -26.7340   22.2440 C   0  0  0  0  0  2  0  0  0  0  0  0
  -19.1520  -28.8500   23.3580 C   0  0  0  0  0  0  0  0  0  0  0  0
  -18.9180  -30.1020   23.9670 C   0  0  0  0  0  3  0  0  0  0  0  0
  -17.6070  -30.5820   24.1510 C   0  0  0  0  0  3  0  0  0  0  0  0
  -16.5110  -29.8070   23.7350 C   0  0  0  0  0  3  0  0  0  0  0  0
  -16.7270  -28.5550   23.1330 C   0  0  0  0  0  3  0  0  0  0  0  0
  -25.9140  -32.5060   23.8500 C   0  0  0  0  0  3  0  0  0  0  0  0
  -25.5890  -33.9100   24.1740 N   0  0  0  0  0  0  0  0  0  0  0  0
  -25.9050  -34.9730   23.4200 C   0  0  0  0  0  0  0  0  0  0  0  0
  -26.5550  -34.8740   22.3770 O   0  0  0  0  0  0  0  0  0  0  0  0
  -25.0060  -34.0590   24.9850 H   0  0  0  0  0  0  0  0  0  0  0  0
  -24.1650  -36.7730   23.1230 C   0  0  0  0  0  1  0  0  0  0  0  0
  -25.4300  -36.3650   23.8940 C   0  0  0  0  0  3  0  0  0  0  0  0
  -27.5790  -37.2700   24.6720 C   0  0  0  0  0  1  0  0  0  0  0  0
  -26.4570  -37.4210   23.7500 N   0  0  0  0  0  0  0  0  0  0  0  0
  -26.0490  -38.3410   23.8950 H   0  0  0  0  0  0  0  0  0  0  0  0
  -26.4000  -31.7600   25.1560 C   0  0  1  0  0  0  0  0  0  0  0  0
  -25.2840  -31.5490   26.2070 C   0  0  0  0  0  1  0  0  0  0  0  0
  -26.9870  -30.3720   24.8180 C   0  0  0  0  0  1  0  0  0  0  0  0
  -27.5400  -32.5640   25.8230 C   0  0  0  0  0  1  0  0  0  0  0  0
  1  4  1  0
  2  1  1  0
  2  5  1  0
  4  9  1  0
  4  3  1  0
  5  6  1  0
  6  7  1  0
  6  3  1  0
  6  8  1  0
 10 15  1  0
 11 12  1  0
 11 10  1  0
 13 12  1  0
 13 20  1  0
 13 14  1  0
 15  9  1  0
 15 14  1  0
 16  9  2  0
 17 18  2  0
 18 37  1  0
 19 18  1  0
 19 22  1  0
 20 21  1  0
 20 17  1  0
 21 19  2  0
 22 23  1  0
 23 24  2  0
 25 28  1  0
 25 24  1  0
 26 25  2  0
 27 26  1  0
 27 22  2  0
 28 29  1  0
 29 34  2  0
 29 30  1  0
 30 31  2  0
 31 32  1  0
 32 36  1  0
 33 32  2  0
 34 33  1  0
 35 34  1  0
 37 38  1  0
 38 41  1  0
 38 40  1  0
 39 37  2  0
 42 43  1  0
 42 17  1  0
 44 42  1  0
 46 45  1  0
 47 58  2  0
 48 46  1  0
 48 53  1  0
 49 57  1  0
 49 59  1  0
 50 56  1  0
 50 52  1  0
 51 57  1  0
 52 51  1  0
 53 52  2  0
 54 48  2  0
 55 54  1  0
 55 50  2  0
 56 49  1  0
 57 47  1  0
 59 61  2  0
 60 59  1  0
 62 60  1  0
 63 72  2  0
 63 68  1  0
 64 60  1  0
 64 68  1  0
 65 64  1  0
 66 67  1  0
 66 65  1  0
 67 63  1  0
 68 69  2  0
 69 70  1  0
 71 70  2  0
 72 71  1  0
 73 47  1  0
 73 74  1  0
 73 83  1  0
 74 77  1  0
 75 79  1  0
 75 74  1  0
 76 75  2  0
 79 78  1  0
 81 79  1  0
 81 82  1  0
 81 80  1  0
 83 86  1  1
 83 84  1  0
 85 83  1  0
M  ISO  4   4 100   9 100  45 101  46 101
M  END
>  <TORSDO>  (6) 
F 17

>  <SCORE>  (6) 
-15.968

>  <name>  (6) 
5

>  <ligand_id>  (6) 
5

>  <original_smiles>  (6) 
[H]c1c([H])c([H])c2c(c1[H])C([H])([H])C([H])([H])C([H])([H])C2([H])N([H])C(=O)C1([H])N(C(=O)C([H])(N([H])C(=O)C([H])(N([H])C([H])([H])[H])C([H])([H])[H])C(C([H])([H])[H])(C([H])([H])[H])C([H])([H])[H])C([H])([H])c2c([H])c(OC([H])([H])C3([H])C([H])([H])C([H])([H])C([H])(C(=O)N4C([H])([H])C([H])([H])C([H])([H])C([H])(n5nc(-c6c([H])c([H])c(Oc7c([H])c([H])c(F)c([H])c7F)c([H])c6[H])c(C(=O)N([H])[H])c5N([H])[H])C4([H])[H])C([H])([H])[N+]3([H])[H])c([H])c([H])c2C1([H])[H]

>  <smiles>  (6) 
[H]c1c([H])c([H])c2c(c1[H])C([H])([H])C([H])([H])C([H])([H])C2([H])N([H])C(=O)C1([H])N(C(=O)C([H])(N([H])C(=O)C([H])(N([H])C([H])([H])[H])C([H])([H])[H])C(C([H])([H])[H])(C([H])([H])[H])C([H])([H])[H])C([H])([H])c2c([H])c(OC([H])([H])C3([H])C([H])([H])C([H])([H])C([H])(C(=O)N4C([H])([H])C([H])([H])C([H])([H])C([H])(n5nc(-c6c([H])c([H])c(Oc7c([H])c([H])c(F)c([H])c7F)c([H])c6[H])c(C(=O)N([H])[H])c5N([H])[H])C4([H])[H])C([H])([H])[N+]3([H])[H])c([H])c([H])c2C1([H])[H]

$$$$
6:0:0
     RDKit          3D

 91 99  0  0  1  0  0  0  0  0999 V2000
  -29.5910  -20.4700   21.3230 N   0  0  0  0  0  0  0  0  0  0  0  0
  -29.7160  -20.3010   22.3190 H   0  0  0  0  0  0  0  0  0  0  0  0
  -29.4550  -18.2520   18.3100 C   0  0  0  0  0  3  0  0  0  0  0  0
  -29.4390  -19.4150   19.1030 C   0  0  0  0  0  3  0  0  0  0  0  0
  -29.6790  -16.9880   18.8900 C   0  0  0  0  0  3  0  0  0  0  0  0
  -29.8530  -18.0430   21.0720 C   0  0  0  0  0  3  0  0  0  0  0  0
  -29.6330  -19.3260   20.4970 C   0  0  0  0  0  0  0  0  0  0  0  0
  -29.9040  -16.8520   20.2830 C   0  0  0  0  0  0  0  0  0  0  0  0
  -30.7240  -14.5370   20.1470 C   0  0  0  0  0  0  0  0  0  0  0  0
  -30.2810  -12.4520   18.8890 C   0  0  0  0  0  2  0  0  0  0  0  0
  -29.2730  -12.7160   17.7530 C   0  0  0  0  0  2  0  0  0  0  0  0
  -27.8270  -12.5760   18.2670 C   0  0  0  0  0  2  0  0  0  0  0  0
  -27.5800  -13.3630   19.5800 C   0  0  0  0  0  3  0  0  0  0  0  0
  -28.6960  -13.0870   20.6100 C   0  0  0  0  0  2  0  0  0  0  0  0
  -29.9880  -13.3990   19.9790 N   0  0  0  0  0  0  0  0  0  0  0  0
  -31.8010  -14.7130   19.5670 O   0  0  0  0  0  0  0  0  0  0  0  0
  -30.3120  -15.4500   22.3300 C   0  0  0  0  0  1  0  0  0  0  0  0
  -30.1680  -15.5480   20.8720 N   0  0  0  0  0  0  0  0  0  0  0  0
  -25.2450  -13.9700   20.4710 C   0  0  0  0  0  0  0  0  0  0  0  0
  -24.1870  -13.1960   20.8680 C   0  0  0  0  0  0  0  0  0  0  0  0
  -24.6200  -11.8400   20.7410 C   0  0  0  0  0  0  0  0  0  0  0  0
  -26.2560  -13.0850   20.1310 N   0  0  0  0  0  0  0  0  0  0  0  0
  -25.8880  -11.7960   20.3510 N   0  0  0  0  0  0  0  0  0  0  0  0
  -23.8830  -10.5820   20.9150 C   0  0  0  0  0  0  0  0  0  0  0  0
  -24.3570   -9.5590   21.7660 C   0  0  0  0  0  3  0  0  0  0  0  0
  -23.6210   -8.3660   21.9300 C   0  0  0  0  0  3  0  0  0  0  0  0
  -22.3960   -8.1870   21.2450 C   0  0  0  0  0  0  0  0  0  0  0  0
  -21.9400   -9.1990   20.3820 C   0  0  0  0  0  3  0  0  0  0  0  0
  -22.6760  -10.3830   20.2150 C   0  0  0  0  0  3  0  0  0  0  0  0
  -21.6270   -7.0520   21.3230 O   0  0  0  0  0  0  0  0  0  0  0  0
  -21.6410   -6.2480   22.4350 C   0  0  0  0  0  0  0  0  0  0  0  0
  -21.3360   -6.7490   23.7200 C   0  0  0  0  0  3  0  0  0  0  0  0
  -21.2940   -5.8740   24.8240 C   0  0  0  0  0  3  0  0  0  0  0  0
  -21.5450   -4.5010   24.6460 C   0  0  0  0  0  0  0  0  0  0  0  0
  -21.8430   -4.0000   23.3660 C   0  0  0  0  0  3  0  0  0  0  0  0
  -21.8870   -4.8720   22.2630 C   0  0  0  0  0  0  0  0  0  0  0  0
  -22.1540   -4.3800   21.0290 F   0  0  0  0  0  0  0  0  0  0  0  0
  -21.4970   -3.6590   25.7040 F   0  0  0  0  0  0  0  0  0  0  0  0
  -22.8190  -13.6810   21.2520 C   0  0  0  0  0  0  0  0  0  0  0  0
  -22.1380  -12.9590   22.1360 N   0  0  0  0  0  0  0  0  0  0  0  0
  -22.3640  -14.7330   20.8050 O   0  0  0  0  0  0  0  0  0  0  0  0
  -22.5200  -12.1070   22.5180 H   0  0  0  0  0  0  0  0  0  0  0  0
  -21.2240  -13.2640   22.4360 H   0  0  0  0  0  0  0  0  0  0  0  0
  -25.4260  -15.3440   20.3530 N   0  0  0  0  0  0  0  0  0  0  0  0
  -24.6870  -16.0090   20.5510 H   0  0  0  0  0  0  0  0  0  0  0  0
  -26.2770  -15.7830   20.0220 H   0  0  0  0  0  0  0  0  0  0  0  0
  -30.0360  -21.7970   20.8630 C   0  0  0  0  0  2  0  0  0  0  0  0
  -28.8760  -22.8030   20.6390 C   0  0  0  0  0  2  0  0  0  0  0  0
  -29.2970  -24.3020   20.5320 C   0  0  0  0  0  2  0  0  0  0  0  0
  -28.1180  -25.2200   20.1180 C   0  0  0  0  0  2  0  0  0  0  0  0
  -28.3340  -26.6500   20.2210 O   0  0  0  0  0  0  0  0  0  0  0  0
  -24.5820  -31.9420   23.2340 C   0  0  0  0  0  0  0  0  0  0  0  0
  -27.1860  -27.4340   20.1780 C   0  0  0  0  0  0  0  0  0  0  0  0
  -23.3650  -30.5310   21.6130 C   0  0  0  0  0  3  0  0  0  0  0  0
  -24.8040  -28.9840   20.1880 C   0  0  0  0  0  0  0  0  0  0  0  0
  -25.8960  -30.8720   21.4020 C   0  0  0  0  0  2  0  0  0  0  0  0
  -25.9730  -29.4960   20.7670 C   0  0  0  0  0  0  0  0  0  0  0  0
  -27.1670  -28.7300   20.7570 C   0  0  0  0  0  3  0  0  0  0  0  0
  -25.9930  -26.9580   19.5800 C   0  0  0  0  0  3  0  0  0  0  0  0
  -24.8120  -27.7170   19.5900 C   0  0  0  0  0  3  0  0  0  0  0  0
  -23.5650  -29.8480   20.2360 C   0  0  0  0  0  2  0  0  0  0  0  0
  -24.6340  -31.1310   22.1400 N   0  0  0  0  0  0  0  0  0  0  0  0
  -23.5040  -32.2220   23.7760 O   0  0  0  0  0  0  0  0  0  0  0  0
  -22.7170  -29.5160   22.5830 C   0  0  0  0  0  0  0  0  0  0  0  0
  -21.3910  -29.3350   22.4650 N   0  0  0  0  0  0  0  0  0  0  0  0
  -23.4030  -28.8960   23.4000 O   0  0  0  0  0  0  0  0  0  0  0  0
  -20.8990  -29.8860   21.7760 H   0  0  0  0  0  0  0  0  0  0  0  0
  -18.0180  -28.1450   22.9850 C   0  0  0  0  0  0  0  0  0  0  0  0
  -20.5760  -28.4050   23.2470 C   0  0  0  0  0  3  0  0  0  0  0  0
  -20.6770  -26.9680   22.6860 C   0  0  0  0  0  2  0  0  0  0  0  0
  -19.5720  -26.6350   21.6780 C   0  0  0  0  0  2  0  0  0  0  0  0
  -18.1910  -26.7880   22.3240 C   0  0  0  0  0  2  0  0  0  0  0  0
  -19.1380  -28.9120   23.4050 C   0  0  0  0  0  0  0  0  0  0  0  0
  -18.9220  -30.1820   23.9810 C   0  0  0  0  0  3  0  0  0  0  0  0
  -17.6190  -30.6860   24.1440 C   0  0  0  0  0  3  0  0  0  0  0  0
  -16.5130  -29.9170   23.7430 C   0  0  0  0  0  3  0  0  0  0  0  0
  -16.7130  -28.6490   23.1690 C   0  0  0  0  0  3  0  0  0  0  0  0
  -25.8730  -32.5770   23.8400 C   0  0  0  0  0  3  0  0  0  0  0  0
  -25.5630  -33.9730   24.1760 N   0  0  0  0  0  0  0  0  0  0  0  0
  -25.8840  -35.0270   23.4140 C   0  0  0  0  0  0  0  0  0  0  0  0
  -26.5460  -34.9270   22.3760 O   0  0  0  0  0  0  0  0  0  0  0  0
  -24.9750  -34.1250   24.9820 H   0  0  0  0  0  0  0  0  0  0  0  0
  -24.1460  -36.8120   23.0780 C   0  0  0  0  0  1  0  0  0  0  0  0
  -25.3960  -36.4130   23.8780 C   0  0  0  0  0  3  0  0  0  0  0  0
  -27.5360  -37.3020   24.6850 C   0  0  0  0  0  1  0  0  0  0  0  0
  -26.4230  -37.4700   23.7560 N   0  0  0  0  0  0  0  0  0  0  0  0
  -26.0160  -38.3880   23.9110 H   0  0  0  0  0  0  0  0  0  0  0  0
  -26.4080  -31.8040   25.1070 C   0  0  1  0  0  0  0  0  0  0  0  0
  -25.3300  -31.5600   26.1880 C   0  0  0  0  0  1  0  0  0  0  0  0
  -26.9920  -30.4300   24.7030 C   0  0  0  0  0  1  0  0  0  0  0  0
  -27.5640  -32.6010   25.7560 C   0  0  0  0  0  1  0  0  0  0  0  0
  1  2  1  0
  3  5  2  0
  3  4  1  0
  4  7  2  0
  5  8  1  0
  7  6  1  0
  7  1  1  0
  8 18  1  0
  8  6  2  0
  9 18  1  0
 10 15  1  0
 11 12  1  0
 11 10  1  0
 13 12  1  0
 13 22  1  0
 13 14  1  0
 15  9  1  0
 15 14  1  0
 16  9  2  0
 18 17  1  0
 19 20  2  0
 20 39  1  0
 21 20  1  0
 21 24  1  0
 22 23  1  0
 22 19  1  0
 23 21  2  0
 24 25  1  0
 25 26  2  0
 27 30  1  0
 27 26  1  0
 28 27  2  0
 29 28  1  0
 29 24  2  0
 30 31  1  0
 31 32  1  0
 32 33  2  0
 34 33  1  0
 34 38  1  0
 35 34  2  0
 36 31  2  0
 36 35  1  0
 37 36  1  0
 39 40  1  0
 40 43  1  0
 40 42  1  0
 41 39  2  0
 44 19  1  0
 44 45  1  0
 46 44  1  0
 47  1  1  0
 48 47  1  0
 49 48  1  0
 50 51  1  0
 50 49  1  0
 52 63  2  0
 53 51  1  0
 53 58  1  0
 54 62  1  0
 54 64  1  0
 55 61  1  0
 55 57  1  0
 56 62  1  0
 57 56  1  0
 58 57  2  0
 59 60  1  0
 59 53  2  0
 60 55  2  0
 61 54  1  0
 62 52  1  0
 64 66  2  0
 65 64  1  0
 67 65  1  0
 68 77  2  0
 68 73  1  0
 69 65  1  0
 69 73  1  0
 70 69  1  0
 71 72  1  0
 71 70  1  0
 72 68  1  0
 73 74  2  0
 74 75  1  0
 76 75  2  0
 77 76  1  0
 78 52  1  0
 78 79  1  0
 78 88  1  0
 79 82  1  0
 80 84  1  0
 80 79  1  0
 81 80  2  0
 84 83  1  0
 86 84  1  0
 86 87  1  0
 86 85  1  0
 88 91  1  1
 88 89  1  0
 90 88  1  0
M  ISO  4   9 100  18 100  50 101  51 101
M  END
>  <TORSDO>  (7) 
F 21

>  <SCORE>  (7) 
-12.651

>  <name>  (7) 
6

>  <ligand_id>  (7) 
6

>  <original_smiles>  (7) 
[H]c1c([H])c(N(C(=O)N2C([H])([H])C([H])([H])C([H])([H])C([H])(n3nc(-c4c([H])c([H])c(Oc5c([H])c([H])c(F)c([H])c5F)c([H])c4[H])c(C(=O)N([H])[H])c3N([H])[H])C2([H])[H])C([H])([H])[H])c([H])c(N([H])C([H])([H])C([H])([H])C([H])([H])C([H])([H])Oc2c([H])c([H])c3c(c2[H])C([H])([H])N(C(=O)C([H])(N([H])C(=O)C([H])(N([H])C([H])([H])[H])C([H])([H])[H])C(C([H])([H])[H])(C([H])([H])[H])C([H])([H])[H])C([H])(C(=O)N([H])C2([H])c4c([H])c([H])c([H])c([H])c4C([H])([H])C([H])([H])C2([H])[H])C3([H])[H])c1[H]

>  <smiles>  (7) 
[H]c1c([H])c(N(C(=O)N2C([H])([H])C([H])([H])C([H])([H])C([H])(n3nc(-c4c([H])c([H])c(Oc5c([H])c([H])c(F)c([H])c5F)c([H])c4[H])c(C(=O)N([H])[H])c3N([H])[H])C2([H])[H])C([H])([H])[H])c([H])c(N([H])C([H])([H])C([H])([H])C([H])([H])C([H])([H])Oc2c([H])c([H])c3c(c2[H])C([H])([H])N(C(=O)C([H])(N([H])C(=O)C([H])(N([H])C([H])([H])[H])C([H])([H])[H])C(C([H])([H])[H])(C([H])([H])[H])C([H])([H])[H])C([H])(C(=O)N([H])C2([H])c4c([H])c([H])c([H])c([H])c4C([H])([H])C([H])([H])C2([H])[H])C3([H])[H])c1[H]

$$$$
8:0:0
     RDKit          3D

 94101  0  0  1  0  0  0  0  0999 V2000
  -28.3260  -20.6560   20.4150 C   0  0  0  0  0  0  0  0  0  0  0  0
  -28.1750  -21.8070   19.7330 N   0  0  0  0  0  0  0  0  0  0  0  0
  -28.0720  -20.5440   21.6140 O   0  0  0  0  0  0  0  0  0  0  0  0
  -28.4460  -21.7800   18.7590 H   0  0  0  0  0  0  0  0  0  0  0  0
  -26.2190  -22.8390   20.9150 C   0  0  0  0  0  1  0  0  0  0  0  0
  -27.5500  -23.0640   20.1710 C   0  0  0  0  0  3  0  0  0  0  0  0
  -28.5060  -23.9970   20.9520 C   0  0  0  0  0  2  0  0  0  0  0  0
  -29.3690  -24.9210   20.0640 C   0  0  0  0  0  2  0  0  0  0  0  0
  -29.7440  -26.2560   20.7560 C   0  0  0  0  0  2  0  0  0  0  0  0
  -29.5930  -27.3980   19.9030 O   0  0  0  0  0  0  0  0  0  0  0  0
  -24.8290  -31.4800   23.2640 C   0  0  0  0  0  0  0  0  0  0  0  0
  -28.3240  -27.9290   19.9080 C   0  0  0  0  0  0  0  0  0  0  0  0
  -23.9520  -30.0850   21.4200 C   0  0  0  0  0  3  0  0  0  0  0  0
  -25.7070  -28.9860   19.9330 C   0  0  0  0  0  0  0  0  0  0  0  0
  -26.3800  -30.8880   21.4080 C   0  0  0  0  0  2  0  0  0  0  0  0
  -26.7290  -29.6320   20.6400 C   0  0  0  0  0  0  0  0  0  0  0  0
  -28.0420  -29.1110   20.6280 C   0  0  0  0  0  3  0  0  0  0  0  0
  -27.2890  -27.2960   19.1920 C   0  0  0  0  0  3  0  0  0  0  0  0
  -25.9810  -27.8140   19.2070 C   0  0  0  0  0  3  0  0  0  0  0  0
  -24.3310  -29.6080   19.9930 C   0  0  0  0  0  2  0  0  0  0  0  0
  -25.0670  -30.8290   22.0920 N   0  0  0  0  0  0  0  0  0  0  0  0
  -23.6960  -31.5050   23.7660 O   0  0  0  0  0  0  0  0  0  0  0  0
  -23.4520  -28.8680   22.2310 C   0  0  0  0  0  0  0  0  0  0  0  0
  -22.2000  -28.4530   21.9760 N   0  0  0  0  0  0  0  0  0  0  0  0
  -24.1900  -28.3030   23.0430 O   0  0  0  0  0  0  0  0  0  0  0  0
  -21.6580  -28.9750   21.3020 H   0  0  0  0  0  0  0  0  0  0  0  0
  -19.1000  -26.6010   22.0760 C   0  0  0  0  0  0  0  0  0  0  0  0
  -21.5320  -27.3070   22.5920 C   0  0  0  0  0  3  0  0  0  0  0  0
  -21.9520  -25.9850   21.9090 C   0  0  0  0  0  2  0  0  0  0  0  0
  -21.0080  -25.5630   20.7790 C   0  0  0  0  0  2  0  0  0  0  0  0
  -19.5830  -25.3820   21.3090 C   0  0  0  0  0  2  0  0  0  0  0  0
  -20.0150  -27.5140   22.6650 C   0  0  0  0  0  0  0  0  0  0  0  0
  -19.5140  -28.6500   23.3360 C   0  0  0  0  0  3  0  0  0  0  0  0
  -18.1280  -28.8790   23.4280 C   0  0  0  0  0  3  0  0  0  0  0  0
  -17.2260  -27.9640   22.8570 C   0  0  0  0  0  3  0  0  0  0  0  0
  -17.7120  -26.8270   22.1870 C   0  0  0  0  0  3  0  0  0  0  0  0
  -25.9600  -32.2450   24.0190 C   0  0  0  0  0  3  0  0  0  0  0  0
  -26.4440  -31.5090   25.3280 C   0  0  1  0  0  0  0  0  0  0  0  0
  -25.2900  -31.1110   26.2780 C   0  0  0  0  0  1  0  0  0  0  0  0
  -27.2300  -30.2250   24.9730 C   0  0  0  0  0  1  0  0  0  0  0  0
  -27.4170  -32.4210   26.1130 C   0  0  0  0  0  1  0  0  0  0  0  0
  -25.4530  -33.5870   24.3330 N   0  0  0  0  0  0  0  0  0  0  0  0
  -25.7270  -34.6900   23.6230 C   0  0  0  0  0  0  0  0  0  0  0  0
  -26.5040  -34.6920   22.6640 O   0  0  0  0  0  0  0  0  0  0  0  0
  -24.7670  -33.6500   25.0710 H   0  0  0  0  0  0  0  0  0  0  0  0
  -23.8350  -36.2650   23.1140 C   0  0  0  0  0  1  0  0  0  0  0  0
  -25.0300  -35.9970   24.0430 C   0  0  0  0  0  3  0  0  0  0  0  0
  -26.9430  -37.1160   25.0990 C   0  0  0  0  0  1  0  0  0  0  0  0
  -25.9310  -37.1700   24.0480 N   0  0  0  0  0  0  0  0  0  0  0  0
  -25.4020  -38.0300   24.1600 H   0  0  0  0  0  0  0  0  0  0  0  0
  -28.7940  -19.4330   19.6060 C   0  0  0  0  0  2  0  0  0  0  0  0
  -28.7290  -18.0560   20.3370 C   0  0  0  0  0  3  0  0  0  0  0  0
  -27.3650  -17.4670   20.3210 N   0  0  0  0  0  4  0  0  0  0  0  0
  -27.0570  -17.1800   19.4020 H   0  0  0  0  0  0  0  0  0  0  0  0
  -26.7020  -18.1310   20.6840 H   0  0  0  0  0  0  0  0  0  0  0  0
  -27.3220  -16.6630   20.9220 H   0  0  0  0  0  0  0  0  0  0  0  0
  -29.7680  -17.0700   19.7400 C   0  0  0  0  0  2  0  0  0  0  0  0
  -30.3100  -16.0020   20.7230 C   0  0  0  0  0  2  0  0  0  0  0  0
  -30.9150  -14.7940   19.9770 C   0  0  0  0  0  0  0  0  0  0  0  0
  -30.6760  -12.5230   19.0340 C   0  0  0  0  0  2  0  0  0  0  0  0
  -29.7040  -12.5500   17.8360 C   0  0  0  0  0  2  0  0  0  0  0  0
  -28.2430  -12.4020   18.3070 C   0  0  0  0  0  2  0  0  0  0  0  0
  -27.8980  -13.3710   19.4680 C   0  0  0  0  0  3  0  0  0  0  0  0
  -28.9720  -13.2960   20.5710 C   0  0  0  0  0  2  0  0  0  0  0  0
  -30.2790  -13.5910   19.9640 N   0  0  0  0  0  0  0  0  0  0  0  0
  -31.9620  -14.9890   19.3530 O   0  0  0  0  0  0  0  0  0  0  0  0
  -25.5520  -14.0280   20.3000 C   0  0  0  0  0  0  0  0  0  0  0  0
  -24.4870  -13.2700   20.7100 C   0  0  0  0  0  0  0  0  0  0  0  0
  -24.9150  -11.9090   20.6360 C   0  0  0  0  0  0  0  0  0  0  0  0
  -26.5610  -13.1240   19.9990 N   0  0  0  0  0  0  0  0  0  0  0  0
  -26.1850  -11.8470   20.2590 N   0  0  0  0  0  0  0  0  0  0  0  0
  -24.1760  -10.6570   20.8440 C   0  0  0  0  0  0  0  0  0  0  0  0
  -24.5810   -9.7140   21.8140 C   0  0  0  0  0  3  0  0  0  0  0  0
  -23.8470   -8.5230   22.0090 C   0  0  0  0  0  3  0  0  0  0  0  0
  -22.6920   -8.2690   21.2310 C   0  0  0  0  0  0  0  0  0  0  0  0
  -22.3070   -9.2000   20.2510 C   0  0  0  0  0  3  0  0  0  0  0  0
  -23.0410  -10.3810   20.0560 C   0  0  0  0  0  3  0  0  0  0  0  0
  -21.9300   -7.1290   21.3330 O   0  0  0  0  0  0  0  0  0  0  0  0
  -21.7880   -6.4620   22.5240 C   0  0  0  0  0  0  0  0  0  0  0  0
  -21.2490   -7.0880   23.6680 C   0  0  0  0  0  3  0  0  0  0  0  0
  -21.0540   -6.3450   24.8510 C   0  0  0  0  0  3  0  0  0  0  0  0
  -21.3900   -4.9780   24.8870 C   0  0  0  0  0  0  0  0  0  0  0  0
  -21.9220   -4.3520   23.7460 C   0  0  0  0  0  3  0  0  0  0  0  0
  -22.1170   -5.0920   22.5670 C   0  0  0  0  0  0  0  0  0  0  0  0
  -22.6100   -4.4790   21.4640 F   0  0  0  0  0  0  0  0  0  0  0  0
  -21.1970   -4.2630   26.0200 F   0  0  0  0  0  0  0  0  0  0  0  0
  -23.1110  -13.7680   21.0500 C   0  0  0  0  0  0  0  0  0  0  0  0
  -22.4110  -13.0790   21.9430 N   0  0  0  0  0  0  0  0  0  0  0  0
  -22.6690  -14.8030   20.5530 O   0  0  0  0  0  0  0  0  0  0  0  0
  -22.7820  -12.2400   22.3650 H   0  0  0  0  0  0  0  0  0  0  0  0
  -21.4900  -13.3960   22.2110 H   0  0  0  0  0  0  0  0  0  0  0  0
  -25.7500  -15.4000   20.1270 N   0  0  0  0  0  0  0  0  0  0  0  0
  -24.8590  -15.8890   20.1300 H   0  0  0  0  0  0  0  0  0  0  0  0
  -26.2350  -15.5830   19.2540 H   0  0  0  0  0  0  0  0  0  0  0  0
  1  3  2  0
  2  6  1  0
  2  1  1  0
  4  2  1  0
  6  5  1  0
  6  7  1  0
  8  9  1  0
  8  7  1  0
 10 12  1  0
 10  9  1  0
 11 22  2  0
 12 17  1  0
 13 21  1  0
 13 23  1  0
 14 20  1  0
 14 16  1  0
 15 21  1  0
 16 15  1  0
 17 16  2  0
 18 19  1  0
 18 12  2  0
 19 14  2  0
 20 13  1  0
 21 11  1  0
 23 25  2  0
 24 23  1  0
 26 24  1  0
 27 36  2  0
 27 32  1  0
 28 24  1  0
 28 32  1  0
 29 28  1  0
 30 31  1  0
 30 29  1  0
 31 27  1  0
 32 33  2  0
 33 34  1  0
 35 34  2  0
 36 35  1  0
 37 11  1  0
 37 42  1  0
 37 38  1  0
 38 41  1  1
 38 39  1  0
 40 38  1  0
 42 45  1  0
 43 47  1  0
 43 42  1  0
 44 43  2  0
 47 46  1  0
 47 49  1  0
 49 50  1  0
 49 48  1  0
 51  1  1  0
 52 51  1  0
 53 52  1  0
 53 55  1  0
 53 56  1  0
 54 53  1  0
 57 52  1  0
 57 58  1  0
 59 58  1  0
 60 65  1  0
 61 62  1  0
 61 60  1  0
 63 62  1  0
 63 70  1  0
 63 64  1  0
 65 59  1  0
 65 64  1  0
 66 59  2  0
 67 68  2  0
 68 87  1  0
 69 68  1  0
 69 72  1  0
 70 71  1  0
 70 67  1  0
 71 69  2  0
 72 73  1  0
 73 74  2  0
 75 78  1  0
 75 74  1  0
 76 75  2  0
 77 76  1  0
 77 72  2  0
 78 79  1  0
 79 84  2  0
 79 80  1  0
 80 81  2  0
 81 82  1  0
 82 86  1  0
 83 82  2  0
 84 83  1  0
 85 84  1  0
 87 88  1  0
 88 91  1  0
 88 90  1  0
 89 87  2  0
 92 93  1  0
 92 67  1  0
 94 92  1  0
M  ISO  4   9 101  10 101  58 100  59 100
M  END
>  <TORSDO>  (8) 
F 25

>  <SCORE>  (8) 
-9.537

>  <name>  (8) 
8

>  <ligand_id>  (8) 
8

>  <original_smiles>  (8) 
[H]c1c([H])c([H])c2c(c1[H])C([H])([H])C([H])([H])C([H])([H])C2([H])N([H])C(=O)C1([H])N(C(=O)C([H])(N([H])C(=O)C([H])(N([H])C([H])([H])[H])C([H])([H])[H])C(C([H])([H])[H])(C([H])([H])[H])C([H])([H])[H])C([H])([H])c2c([H])c(OC([H])([H])C([H])([H])C([H])([H])C([H])(N([H])C(=O)C([H])([H])C([H])(C([H])([H])C([H])([H])C(=O)N3C([H])([H])C([H])([H])C([H])([H])C([H])(n4nc(-c5c([H])c([H])c(Oc6c([H])c([H])c(F)c([H])c6F)c([H])c5[H])c(C(=O)N([H])[H])c4N([H])[H])C3([H])[H])[N+]([H])([H])[H])C([H])([H])[H])c([H])c([H])c2C1([H])[H]

>  <smiles>  (8) 
[H]c1c([H])c([H])c2c(c1[H])C([H])([H])C([H])([H])C([H])([H])C2([H])N([H])C(=O)C1([H])N(C(=O)C([H])(N([H])C(=O)C([H])(N([H])C([H])([H])[H])C([H])([H])[H])C(C([H])([H])[H])(C([H])([H])[H])C([H])([H])[H])C([H])([H])c2c([H])c(OC([H])([H])C([H])([H])C([H])([H])C([H])(N([H])C(=O)C([H])([H])C([H])(C([H])([H])C([H])([H])C(=O)N3C([H])([H])C([H])([H])C([H])([H])C([H])(n4nc(-c5c([H])c([H])c(Oc6c([H])c([H])c(F)c([H])c6F)c([H])c5[H])c(C(=O)N([H])[H])c4N([H])[H])C3([H])[H])[N+]([H])([H])[H])C([H])([H])[H])c([H])c([H])c2C1([H])[H]

$$$$
9:0:0
     RDKit          3D

 95103  0  0  1  0  0  0  0  0999 V2000
  -29.2060  -23.0570   20.2330 C   0  0  0  0  0  2  0  0  0  0  0  0
  -29.3120  -24.5350   23.7650 C   0  0  0  0  0  3  0  0  0  0  0  0
  -28.8610  -25.8500   23.6600 C   0  0  0  0  0  3  0  0  0  0  0  0
  -29.3990  -23.7450   22.6130 C   0  0  0  0  0  3  0  0  0  0  0  0
  -28.5450  -26.3690   22.3990 C   0  0  0  0  0  3  0  0  0  0  0  0
  -29.0130  -24.1950   21.3210 C   0  0  0  0  0  0  0  0  0  0  0  0
  -28.6010  -25.6160   21.1930 C   0  0  0  0  0  0  0  0  0  0  0  0
  -28.3300  -26.4000   20.0380 O   0  0  0  0  0  0  0  0  0  0  0  0
  -24.6800  -31.8660   23.1260 C   0  0  0  0  0  0  0  0  0  0  0  0
  -27.2470  -27.3110   20.0210 C   0  0  0  0  0  0  0  0  0  0  0  0
  -23.4440  -30.4600   21.5170 C   0  0  0  0  0  3  0  0  0  0  0  0
  -24.8700  -28.9160   20.0510 C   0  0  0  0  0  0  0  0  0  0  0  0
  -25.9750  -30.8000   21.2620 C   0  0  0  0  0  2  0  0  0  0  0  0
  -26.0510  -29.4220   20.6080 C   0  0  0  0  0  0  0  0  0  0  0  0
  -27.2470  -28.6390   20.5650 C   0  0  0  0  0  3  0  0  0  0  0  0
  -26.0450  -26.8640   19.4370 C   0  0  0  0  0  3  0  0  0  0  0  0
  -24.8710  -27.6450   19.4500 C   0  0  0  0  0  3  0  0  0  0  0  0
  -23.6250  -29.7790   20.1340 C   0  0  0  0  0  2  0  0  0  0  0  0
  -24.7200  -31.0600   22.0250 N   0  0  0  0  0  0  0  0  0  0  0  0
  -23.6090  -32.1360   23.6900 O   0  0  0  0  0  0  0  0  0  0  0  0
  -22.8110  -29.4410   22.4960 C   0  0  0  0  0  0  0  0  0  0  0  0
  -21.4830  -29.2550   22.4000 N   0  0  0  0  0  0  0  0  0  0  0  0
  -23.5130  -28.8220   23.3000 O   0  0  0  0  0  0  0  0  0  0  0  0
  -20.9750  -29.8020   21.7200 H   0  0  0  0  0  0  0  0  0  0  0  0
  -18.1290  -28.0240   22.9650 C   0  0  0  0  0  0  0  0  0  0  0  0
  -20.6890  -28.3130   23.1910 C   0  0  0  0  0  3  0  0  0  0  0  0
  -20.7970  -26.8790   22.6190 C   0  0  0  0  0  2  0  0  0  0  0  0
  -19.6810  -26.5400   21.6270 C   0  0  0  0  0  2  0  0  0  0  0  0
  -18.3090  -26.6730   22.2930 C   0  0  0  0  0  2  0  0  0  0  0  0
  -19.2460  -28.8010   23.3720 C   0  0  0  0  0  0  0  0  0  0  0  0
  -19.0220  -30.0640   23.9610 C   0  0  0  0  0  3  0  0  0  0  0  0
  -17.7150  -30.5500   24.1480 C   0  0  0  0  0  3  0  0  0  0  0  0
  -16.6130  -29.7710   23.7580 C   0  0  0  0  0  3  0  0  0  0  0  0
  -16.8200  -28.5100   23.1720 C   0  0  0  0  0  3  0  0  0  0  0  0
  -25.9730  -32.5060   23.7170 C   0  0  0  0  0  3  0  0  0  0  0  0
  -25.6530  -33.8920   24.0930 N   0  0  0  0  0  0  0  0  0  0  0  0
  -25.9570  -34.9690   23.3570 C   0  0  0  0  0  0  0  0  0  0  0  0
  -26.6050  -34.9020   22.3090 O   0  0  0  0  0  0  0  0  0  0  0  0
  -25.0680  -34.0160   24.9060 H   0  0  0  0  0  0  0  0  0  0  0  0
  -24.2110  -36.7610   23.0820 C   0  0  0  0  0  1  0  0  0  0  0  0
  -25.4640  -36.3390   23.8640 C   0  0  0  0  0  3  0  0  0  0  0  0
  -27.6030  -37.2130   24.6980 C   0  0  0  0  0  1  0  0  0  0  0  0
  -26.4880  -37.4030   23.7740 N   0  0  0  0  0  0  0  0  0  0  0  0
  -26.0770  -38.3150   23.9560 H   0  0  0  0  0  0  0  0  0  0  0  0
  -26.5450  -31.7130   24.9580 C   0  0  1  0  0  0  0  0  0  0  0  0
  -25.4930  -31.4410   26.0590 C   0  0  0  0  0  1  0  0  0  0  0  0
  -27.1260  -30.3500   24.5150 C   0  0  0  0  0  1  0  0  0  0  0  0
  -27.7080  -32.5090   25.5970 C   0  0  0  0  0  1  0  0  0  0  0  0
  -28.8640  -21.4940   20.6070 C   0  0  0  0  0  2  0  0  0  0  0  0
  -29.8580  -20.2580   20.2230 C   0  0  0  0  0  3  0  0  0  0  0  0
  -29.4650  -18.8490   20.7410 N   0  0  0  0  0  4  0  0  0  0  0  0
  -29.3390  -18.9440   21.7360 H   0  0  0  0  0  0  0  0  0  0  0  0
  -28.5570  -18.6310   20.3610 H   0  0  0  0  0  0  0  0  0  0  0  0
  -30.3650  -17.6060   20.5370 C   0  0  0  0  0  3  0  0  0  0  0  0
  -29.9560  -16.1840   21.2170 C   0  0  0  0  0  3  0  0  0  0  0  0
  -30.7580  -14.8320   20.8610 C   0  0  0  0  0  0  0  0  0  0  0  0
  -30.6380  -12.5390   19.8600 C   0  0  0  0  0  2  0  0  0  0  0  0
  -29.7950  -12.6180   18.5680 C   0  0  0  0  0  2  0  0  0  0  0  0
  -28.2960  -12.4500   18.8840 C   0  0  0  0  0  2  0  0  0  0  0  0
  -27.8350  -13.3460   20.0640 C   0  0  0  0  0  3  0  0  0  0  0  0
  -28.8080  -13.2620   21.2620 C   0  0  0  0  0  2  0  0  0  0  0  0
  -30.1520  -13.5970   20.7760 N   0  0  0  0  0  0  0  0  0  0  0  0
  -31.9490  -14.9310   20.5500 O   0  0  0  0  0  0  0  0  0  0  0  0
  -25.4010  -13.9530   20.6080 C   0  0  0  0  0  0  0  0  0  0  0  0
  -24.3080  -13.1890   20.9120 C   0  0  0  0  0  0  0  0  0  0  0  0
  -24.7680  -11.8360   20.9370 C   0  0  0  0  0  0  0  0  0  0  0  0
  -26.4560  -13.0680   20.4600 N   0  0  0  0  0  0  0  0  0  0  0  0
  -26.0770  -11.7910   20.7220 N   0  0  0  0  0  0  0  0  0  0  0  0
  -24.0230  -10.5790   21.0920 C   0  0  0  0  0  0  0  0  0  0  0  0
  -24.3960   -9.6160   22.0560 C   0  0  0  0  0  3  0  0  0  0  0  0
  -23.6550   -8.4240   22.2010 C   0  0  0  0  0  3  0  0  0  0  0  0
  -22.5260   -8.1860   21.3820 C   0  0  0  0  0  0  0  0  0  0  0  0
  -22.1710   -9.1370   20.4090 C   0  0  0  0  0  3  0  0  0  0  0  0
  -22.9130  -10.3210   20.2630 C   0  0  0  0  0  3  0  0  0  0  0  0
  -21.7600   -7.0460   21.4370 O   0  0  0  0  0  0  0  0  0  0  0  0
  -21.6560   -6.3000   22.5840 C   0  0  0  0  0  0  0  0  0  0  0  0
  -21.1880   -6.8560   23.7950 C   0  0  0  0  0  3  0  0  0  0  0  0
  -21.0320   -6.0370   24.9310 C   0  0  0  0  0  3  0  0  0  0  0  0
  -21.3340   -4.6640   24.8570 C   0  0  0  0  0  0  0  0  0  0  0  0
  -21.7940   -4.1070   23.6500 C   0  0  0  0  0  3  0  0  0  0  0  0
  -21.9520   -4.9230   22.5160 C   0  0  0  0  0  0  0  0  0  0  0  0
  -22.3750   -4.3780   21.3510 F   0  0  0  0  0  0  0  0  0  0  0  0
  -21.1770   -3.8750   25.9450 F   0  0  0  0  0  0  0  0  0  0  0  0
  -22.8960  -13.6730   21.0720 C   0  0  0  0  0  0  0  0  0  0  0  0
  -22.1040  -12.9970   21.8960 N   0  0  0  0  0  0  0  0  0  0  0  0
  -22.5000  -14.6880   20.4990 O   0  0  0  0  0  0  0  0  0  0  0  0
  -22.4340  -12.1760   22.3830 H   0  0  0  0  0  0  0  0  0  0  0  0
  -21.1510  -13.3010   22.0420 H   0  0  0  0  0  0  0  0  0  0  0  0
  -25.5860  -15.3200   20.4200 N   0  0  0  0  0  0  0  0  0  0  0  0
  -24.8180  -15.9810   20.4650 H   0  0  0  0  0  0  0  0  0  0  0  0
  -26.4560  -15.7420   20.1270 H   0  0  0  0  0  0  0  0  0  0  0  0
  -31.5300  -19.8040   18.2730 C   0  0  0  0  0  1  0  0  0  0  0  0
  -30.1300  -20.3020   18.6840 C   0  0  0  0  0  3  0  0  0  0  0  0
  -29.1490  -19.9390   16.3220 C   0  0  0  0  0  1  0  0  0  0  0  0
  -29.0010  -19.6810   17.8300 C   0  0  0  0  0  2  0  0  0  0  0  0
  1 49  1  0
  1  6  1  0
  3  2  1  0
  4  2  2  0
  5  3  2  0
  6  4  1  0
  7  6  2  0
  7  5  1  0
  8  7  1  0
  9 20  2  0
 10  8  1  0
 10 15  1  0
 11 19  1  0
 11 21  1  0
 12 18  1  0
 12 14  1  0
 13 19  1  0
 14 13  1  0
 15 14  2  0
 16 17  1  0
 16 10  2  0
 17 12  2  0
 18 11  1  0
 19  9  1  0
 21 23  2  0
 22 21  1  0
 24 22  1  0
 25 34  2  0
 25 30  1  0
 26 22  1  0
 26 30  1  0
 27 26  1  0
 28 29  1  0
 28 27  1  0
 29 25  1  0
 30 31  2  0
 31 32  1  0
 33 32  2  0
 34 33  1  0
 35  9  1  0
 35 36  1  0
 35 45  1  0
 36 39  1  0
 37 41  1  0
 37 36  1  0
 38 37  2  0
 41 40  1  0
 43 41  1  0
 43 44  1  0
 43 42  1  0
 45 48  1  1
 45 46  1  0
 47 45  1  0
 50 49  1  0
 50 51  1  0
 51 52  1  0
 53 51  1  0
 54 51  1  0
 54 55  2  0
 56 55  1  0
 57 62  1  0
 58 59  1  0
 58 57  1  0
 60 59  1  0
 60 67  1  0
 60 61  1  0
 62 56  1  0
 62 61  1  0
 63 56  2  0
 64 65  2  0
 65 66  1  0
 65 84  1  0
 66 69  1  0
 67 64  1  0
 67 68  1  0
 68 66  2  0
 69 70  1  0
 70 71  2  0
 72 75  1  0
 72 71  1  0
 73 72  2  0
 74 73  1  0
 74 69  2  0
 75 76  1  0
 76 77  1  0
 77 78  2  0
 79 78  1  0
 79 83  1  0
 80 79  2  0
 81 76  2  0
 81 80  1  0
 82 81  1  0
 84 85  1  0
 85 88  1  0
 85 87  1  0
 86 84  2  0
 89 90  1  0
 89 64  1  0
 91 89  1  0
 93 92  1  0
 93 50  1  0
 94 95  1  0
 95 93  1  0
M  ISO  4   7 101   8 101  55 100  56 100
M  END
>  <TORSDO>  (9) 
F 24

>  <SCORE>  (9) 
-12.443

>  <name>  (9) 
9

>  <ligand_id>  (9) 
9

>  <original_smiles>  (9) 
[H]c1c([H])c([H])c(C([H])([H])C([H])([H])C([H])(C([H])(C([H])([H])[H])C([H])([H])C([H])([H])[H])[N+]([H])([H])C([H])([H])C([H])([H])C(=O)N2C([H])([H])C([H])([H])C([H])([H])C([H])(n3nc(-c4c([H])c([H])c(Oc5c([H])c([H])c(F)c([H])c5F)c([H])c4[H])c(C(=O)N([H])[H])c3N([H])[H])C2([H])[H])c(Oc2c([H])c([H])c3c(c2[H])C([H])([H])N(C(=O)C([H])(N([H])C(=O)C([H])(N([H])C([H])([H])[H])C([H])([H])[H])C(C([H])([H])[H])(C([H])([H])[H])C([H])([H])[H])C([H])(C(=O)N([H])C2([H])c4c([H])c([H])c([H])c([H])c4C([H])([H])C([H])([H])C2([H])[H])C3([H])[H])c1[H]

>  <smiles>  (9) 
[H]c1c([H])c([H])c(C([H])([H])C([H])([H])C([H])(C([H])(C([H])([H])[H])C([H])([H])C([H])([H])[H])[N+]([H])([H])C([H])([H])C([H])([H])C(=O)N2C([H])([H])C([H])([H])C([H])([H])C([H])(n3nc(-c4c([H])c([H])c(Oc5c([H])c([H])c(F)c([H])c5F)c([H])c4[H])c(C(=O)N([H])[H])c3N([H])[H])C2([H])[H])c(Oc2c([H])c([H])c3c(c2[H])C([H])([H])N(C(=O)C([H])(N([H])C(=O)C([H])(N([H])C([H])([H])[H])C([H])([H])[H])C(C([H])([H])[H])(C([H])([H])[H])C([H])([H])[H])C([H])(C(=O)N([H])C2([H])c4c([H])c([H])c([H])c([H])c4C([H])([H])C([H])([H])C2([H])[H])C3([H])[H])c1[H]

$$$$
10:0:0
     RDKit          3D

 88 96  0  0  1  0  0  0  0  0999 V2000
  -27.2260  -21.4900   19.3700 C   0  0  0  0  0  1  0  0  0  0  0  0
  -28.6420  -21.6750   19.7630 N   0  0  2  0  0  4  0  0  0  0  0  0
  -29.0980  -21.7570   18.8660 H   0  0  0  0  0  0  0  0  0  0  0  0
  -28.6310  -17.4610   20.1560 C   0  0  0  0  0  2  0  0  0  0  0  0
  -30.9800  -18.0400   20.0790 C   0  0  0  0  0  2  0  0  0  0  0  0
  -28.3510  -18.9940   20.7190 C   0  0  0  0  0  2  0  0  0  0  0  0
  -30.3980  -19.4820   19.5290 C   0  0  0  0  0  2  0  0  0  0  0  0
  -30.0460  -16.7560   20.4340 C   0  0  0  0  0  3  0  0  0  0  0  0
  -29.2780  -20.2850   20.3460 C   0  0  0  0  0  3  0  0  0  0  0  0
  -30.5760  -15.1810   19.9820 C   0  0  0  0  0  0  0  0  0  0  0  0
  -30.3850  -12.7830   19.0850 C   0  0  0  0  0  2  0  0  0  0  0  0
  -29.4090  -12.6980   17.8890 C   0  0  0  0  0  2  0  0  0  0  0  0
  -27.9670  -12.4800   18.3820 C   0  0  0  0  0  2  0  0  0  0  0  0
  -27.6110  -13.4050   19.5740 C   0  0  0  0  0  3  0  0  0  0  0  0
  -28.7180  -13.4810   20.6470 C   0  0  0  0  0  2  0  0  0  0  0  0
  -29.9510  -13.9140   19.9800 N   0  0  0  0  0  0  0  0  0  0  0  0
  -31.7370  -15.1320   19.5640 O   0  0  0  0  0  0  0  0  0  0  0  0
  -25.2880  -13.9640   20.4700 C   0  0  0  0  0  0  0  0  0  0  0  0
  -24.2420  -13.1870   20.8790 C   0  0  0  0  0  0  0  0  0  0  0  0
  -24.6930  -11.8340   20.7880 C   0  0  0  0  0  0  0  0  0  0  0  0
  -26.3080  -13.0880   20.1470 N   0  0  0  0  0  0  0  0  0  0  0  0
  -25.9650  -11.7980   20.4040 N   0  0  0  0  0  0  0  0  0  0  0  0
  -23.9660  -10.5730   20.9890 C   0  0  0  0  0  0  0  0  0  0  0  0
  -24.4220   -9.5910   21.8950 C   0  0  0  0  0  3  0  0  0  0  0  0
  -23.6930   -8.3970   22.0860 C   0  0  0  0  0  3  0  0  0  0  0  0
  -22.4920   -8.1770   21.3690 C   0  0  0  0  0  0  0  0  0  0  0  0
  -22.0550   -9.1470   20.4520 C   0  0  0  0  0  3  0  0  0  0  0  0
  -22.7850  -10.3320   20.2590 C   0  0  0  0  0  3  0  0  0  0  0  0
  -21.7310   -7.0370   21.4700 O   0  0  0  0  0  0  0  0  0  0  0  0
  -21.6950   -6.2970   22.6250 C   0  0  0  0  0  0  0  0  0  0  0  0
  -21.2620   -6.8470   23.8510 C   0  0  0  0  0  3  0  0  0  0  0  0
  -21.1730   -6.0290   24.9960 C   0  0  0  0  0  3  0  0  0  0  0  0
  -21.5080   -4.6650   24.9170 C   0  0  0  0  0  0  0  0  0  0  0  0
  -21.9340   -4.1140   23.6950 C   0  0  0  0  0  3  0  0  0  0  0  0
  -22.0240   -4.9270   22.5520 C   0  0  0  0  0  0  0  0  0  0  0  0
  -22.4140   -4.3870   21.3720 F   0  0  0  0  0  0  0  0  0  0  0  0
  -21.4160   -3.8790   26.0150 F   0  0  0  0  0  0  0  0  0  0  0  0
  -22.8660  -13.6660   21.2360 C   0  0  0  0  0  0  0  0  0  0  0  0
  -22.1840  -12.9590   22.1270 N   0  0  0  0  0  0  0  0  0  0  0  0
  -22.4110  -14.7080   20.7620 O   0  0  0  0  0  0  0  0  0  0  0  0
  -22.5670  -12.1170   22.5320 H   0  0  0  0  0  0  0  0  0  0  0  0
  -21.2630  -13.2620   22.4110 H   0  0  0  0  0  0  0  0  0  0  0  0
  -25.4540  -15.3370   20.3200 N   0  0  0  0  0  0  0  0  0  0  0  0
  -24.7140  -16.0000   20.5260 H   0  0  0  0  0  0  0  0  0  0  0  0
  -26.2880  -15.7760   19.9550 H   0  0  0  0  0  0  0  0  0  0  0  0
  -28.8490  -23.1680   20.3680 C   0  0  0  0  0  3  0  0  0  0  0  0
  -27.9890  -24.5910   19.8840 C   0  0  0  0  0  3  0  0  0  0  0  0
  -28.2170  -26.1300   20.2200 O   0  0  0  0  0  0  0  0  0  0  0  0
  -24.6150  -31.8690   23.2280 C   0  0  0  0  0  0  0  0  0  0  0  0
  -27.1830  -27.1540   20.1380 C   0  0  0  0  0  0  0  0  0  0  0  0
  -23.4160  -30.4910   21.5790 C   0  0  0  0  0  3  0  0  0  0  0  0
  -24.8640  -28.9350   20.1270 C   0  0  0  0  0  0  0  0  0  0  0  0
  -25.9710  -30.7560   21.4070 C   0  0  0  0  0  2  0  0  0  0  0  0
  -26.0460  -29.3650   20.7390 C   0  0  0  0  0  0  0  0  0  0  0  0
  -27.2070  -28.4920   20.7250 C   0  0  0  0  0  3  0  0  0  0  0  0
  -25.9730  -26.8450   19.4760 C   0  0  0  0  0  3  0  0  0  0  0  0
  -24.8420  -27.6920   19.4800 C   0  0  0  0  0  3  0  0  0  0  0  0
  -23.6340  -29.8320   20.1910 C   0  0  0  0  0  2  0  0  0  0  0  0
  -24.6880  -31.0600   22.1270 N   0  0  0  0  0  0  0  0  0  0  0  0
  -23.5300  -32.1450   23.7610 O   0  0  0  0  0  0  0  0  0  0  0  0
  -22.7390  -29.4700   22.5300 C   0  0  0  0  0  0  0  0  0  0  0  0
  -21.4100  -29.3010   22.4080 N   0  0  0  0  0  0  0  0  0  0  0  0
  -23.4130  -28.8320   23.3420 O   0  0  0  0  0  0  0  0  0  0  0  0
  -20.9200  -29.8670   21.7310 H   0  0  0  0  0  0  0  0  0  0  0  0
  -18.0310  -28.0960   22.9130 C   0  0  0  0  0  0  0  0  0  0  0  0
  -20.5920  -28.3540   23.1710 C   0  0  0  0  0  3  0  0  0  0  0  0
  -20.6900  -26.9300   22.5780 C   0  0  0  0  0  2  0  0  0  0  0  0
  -19.5830  -26.6210   21.5640 C   0  0  0  0  0  2  0  0  0  0  0  0
  -18.2050  -26.7560   22.2150 C   0  0  0  0  0  2  0  0  0  0  0  0
  -19.1510  -28.8530   23.3460 C   0  0  0  0  0  0  0  0  0  0  0  0
  -18.9340  -30.1060   23.9600 C   0  0  0  0  0  3  0  0  0  0  0  0
  -17.6300  -30.6020   24.1410 C   0  0  0  0  0  3  0  0  0  0  0  0
  -16.5240  -29.8420   23.7230 C   0  0  0  0  0  3  0  0  0  0  0  0
  -16.7250  -28.5900   23.1160 C   0  0  0  0  0  3  0  0  0  0  0  0
  -25.8890  -32.5050   23.8610 C   0  0  0  0  0  3  0  0  0  0  0  0
  -26.4020  -31.7290   25.1360 C   0  0  1  0  0  0  0  0  0  0  0  0
  -25.3050  -31.4850   26.1990 C   0  0  0  0  0  1  0  0  0  0  0  0
  -26.9860  -30.3530   24.7420 C   0  0  0  0  0  1  0  0  0  0  0  0
  -27.5470  -32.5220   25.8080 C   0  0  0  0  0  1  0  0  0  0  0  0
  -25.5730  -33.9020   24.2030 N   0  0  0  0  0  0  0  0  0  0  0  0
  -25.8790  -34.9640   23.4450 C   0  0  0  0  0  0  0  0  0  0  0  0
  -26.5220  -34.8710   22.3950 O   0  0  0  0  0  0  0  0  0  0  0  0
  -24.9990  -34.0480   25.0200 H   0  0  0  0  0  0  0  0  0  0  0  0
  -24.1200  -36.7430   23.1650 C   0  0  0  0  0  1  0  0  0  0  0  0
  -25.3960  -36.3480   23.9240 C   0  0  0  0  0  3  0  0  0  0  0  0
  -27.5490  -37.2590   24.6760 C   0  0  0  0  0  1  0  0  0  0  0  0
  -26.4130  -37.4120   23.7720 N   0  0  0  0  0  0  0  0  0  0  0  0
  -26.0020  -38.3280   23.9350 H   0  0  0  0  0  0  0  0  0  0  0  0
  1  2  1  0
  2 46  1  0
  2  3  1  6
  4  8  1  0
  4  6  1  0
  5  8  1  0
  7  5  1  0
  7  9  1  0
  8 10  1  0
  9  2  1  0
  9  6  1  0
 11 16  1  0
 12 13  1  0
 12 11  1  0
 14 13  1  0
 14 21  1  0
 14 15  1  0
 16 10  1  0
 16 15  1  0
 17 10  2  0
 18 19  2  0
 19 38  1  0
 20 19  1  0
 20 23  1  0
 21 22  1  0
 21 18  1  0
 22 20  2  0
 23 24  1  0
 24 25  2  0
 26 29  1  0
 26 25  1  0
 27 26  2  0
 28 27  1  0
 28 23  2  0
 29 30  1  0
 30 31  1  0
 31 32  2  0
 33 32  1  0
 33 37  1  0
 34 33  2  0
 35 30  2  0
 35 34  1  0
 36 35  1  0
 38 39  1  0
 39 42  1  0
 39 41  1  0
 40 38  2  0
 43 18  1  0
 43 44  1  0
 45 43  1  0
 47 48  1  0
 47 46  2  0
 49 60  2  0
 50 48  1  0
 50 55  1  0
 51 59  1  0
 51 61  1  0
 52 58  1  0
 52 54  1  0
 53 59  1  0
 54 53  1  0
 55 54  2  0
 56 57  1  0
 56 50  2  0
 57 52  2  0
 58 51  1  0
 59 49  1  0
 61 63  2  0
 62 61  1  0
 64 62  1  0
 65 74  2  0
 65 70  1  0
 66 62  1  0
 66 70  1  0
 67 66  1  0
 68 69  1  0
 68 67  1  0
 69 65  1  0
 70 71  2  0
 71 72  1  0
 73 72  2  0
 74 73  1  0
 75 49  1  0
 75 80  1  0
 75 76  1  0
 76 79  1  1
 76 77  1  0
 78 76  1  0
 80 83  1  0
 81 85  1  0
 81 80  1  0
 82 81  2  0
 85 84  1  0
 87 85  1  0
 87 88  1  0
 87 86  1  0
M  ISO  4   8 100  10 100  47 101  48 101
M  END
>  <TORSDO>  (10) 
F 19

>  <SCORE>  (10) 
-15.220

>  <name>  (10) 
10

>  <ligand_id>  (10) 
10

>  <original_smiles>  (10) 
[H]c1c([H])c([H])c2c(c1[H])C([H])([H])C([H])([H])C([H])([H])C2([H])N([H])C(=O)C1([H])N(C(=O)C([H])(N([H])C(=O)C([H])(N([H])C([H])([H])[H])C([H])([H])[H])C(C([H])([H])[H])(C([H])([H])[H])C([H])([H])[H])C([H])([H])c2c([H])c(OC([H])([H])C([H])([H])[N+]([H])(C([H])([H])[H])C3([H])C([H])([H])C([H])([H])C([H])(C(=O)N4C([H])([H])C([H])([H])C([H])([H])C([H])(n5nc(-c6c([H])c([H])c(Oc7c([H])c([H])c(F)c([H])c7F)c([H])c6[H])c(C(=O)N([H])[H])c5N([H])[H])C4([H])[H])C([H])([H])C3([H])[H])c([H])c([H])c2C1([H])[H]

>  <smiles>  (10) 
[H]c1c([H])c([H])c2c(c1[H])C([H])([H])C([H])([H])C([H])([H])C2([H])N([H])C(=O)C1([H])N(C(=O)C([H])(N([H])C(=O)C([H])(N([H])C([H])([H])[H])C([H])([H])[H])C(C([H])([H])[H])(C([H])([H])[H])C([H])([H])[H])C([H])([H])c2c([H])c(OC([H])([H])C([H])([H])[N+]([H])(C([H])([H])[H])C3([H])C([H])([H])C([H])([H])C([H])(C(=O)N4C([H])([H])C([H])([H])C([H])([H])C([H])(n5nc(-c6c([H])c([H])c(Oc7c([H])c([H])c(F)c([H])c7F)c([H])c6[H])c(C(=O)N([H])[H])c5N([H])[H])C4([H])[H])C([H])([H])C3([H])[H])c([H])c([H])c2C1([H])[H]

$$$$
11:0:0
     RDKit          3D

 90 97  0  0  1  0  0  0  0  0999 V2000
  -29.7640  -20.5530   20.0150 C   0  0  0  0  0  3  0  0  0  0  0  0
  -27.9260  -18.8530   20.2810 C   0  0  0  0  0  1  0  0  0  0  0  0
  -29.3710  -19.0920   20.5040 N   0  0  1  0  0  4  0  0  0  0  0  0
  -29.4500  -19.1640   21.5100 H   0  0  0  0  0  0  0  0  0  0  0  0
  -30.2460  -17.8130   20.1470 C   0  0  0  0  0  2  0  0  0  0  0  0
  -30.3800  -16.3360   22.3100 C   0  0  0  0  0  1  0  0  0  0  0  0
  -30.0290  -16.2850   20.8040 C   0  0  0  0  0  3  0  0  0  0  0  0
  -30.7430  -14.9310   20.1800 C   0  0  0  0  0  0  0  0  0  0  0  0
  -30.5480  -12.6650   19.0570 C   0  0  0  0  0  2  0  0  0  0  0  0
  -29.5630  -12.7100   17.8640 C   0  0  0  0  0  2  0  0  0  0  0  0
  -28.1130  -12.5010   18.3390 C   0  0  0  0  0  2  0  0  0  0  0  0
  -27.7680  -13.3690   19.5750 C   0  0  0  0  0  3  0  0  0  0  0  0
  -28.8590  -13.2780   20.6630 C   0  0  0  0  0  2  0  0  0  0  0  0
  -30.1300  -13.6880   20.0540 N   0  0  0  0  0  0  0  0  0  0  0  0
  -31.8900  -15.0340   19.7320 O   0  0  0  0  0  0  0  0  0  0  0  0
  -25.4010  -13.9420   20.3730 C   0  0  0  0  0  0  0  0  0  0  0  0
  -24.3470  -13.1590   20.7660 C   0  0  0  0  0  0  0  0  0  0  0  0
  -24.8150  -11.8110   20.7120 C   0  0  0  0  0  0  0  0  0  0  0  0
  -26.4400  -13.0680   20.1010 N   0  0  0  0  0  0  0  0  0  0  0  0
  -26.0980  -11.7800   20.3690 N   0  0  0  0  0  0  0  0  0  0  0  0
  -24.0980  -10.5430   20.9110 C   0  0  0  0  0  0  0  0  0  0  0  0
  -24.5110   -9.6040   21.8810 C   0  0  0  0  0  3  0  0  0  0  0  0
  -23.7930   -8.4040   22.0680 C   0  0  0  0  0  3  0  0  0  0  0  0
  -22.6460   -8.1330   21.2840 C   0  0  0  0  0  0  0  0  0  0  0  0
  -22.2520   -9.0620   20.3050 C   0  0  0  0  0  3  0  0  0  0  0  0
  -22.9710  -10.2540   20.1170 C   0  0  0  0  0  3  0  0  0  0  0  0
  -21.9000   -6.9830   21.3790 O   0  0  0  0  0  0  0  0  0  0  0  0
  -21.7650   -6.3080   22.5640 C   0  0  0  0  0  0  0  0  0  0  0  0
  -21.2220   -6.9220   23.7140 C   0  0  0  0  0  3  0  0  0  0  0  0
  -21.0370   -6.1720   24.8920 C   0  0  0  0  0  3  0  0  0  0  0  0
  -21.3860   -4.8080   24.9220 C   0  0  0  0  0  0  0  0  0  0  0  0
  -21.9240   -4.1940   23.7770 C   0  0  0  0  0  3  0  0  0  0  0  0
  -22.1100   -4.9420   22.6000 C   0  0  0  0  0  0  0  0  0  0  0  0
  -22.6090   -4.3400   21.4940 F   0  0  0  0  0  0  0  0  0  0  0  0
  -21.2030   -4.0850   26.0510 F   0  0  0  0  0  0  0  0  0  0  0  0
  -22.9570  -13.6300   21.0790 C   0  0  0  0  0  0  0  0  0  0  0  0
  -22.2550  -12.9240   21.9590 N   0  0  0  0  0  0  0  0  0  0  0  0
  -22.5030  -14.6550   20.5750 O   0  0  0  0  0  0  0  0  0  0  0  0
  -22.6360  -12.0910   22.3830 H   0  0  0  0  0  0  0  0  0  0  0  0
  -21.3230  -13.2220   22.2140 H   0  0  0  0  0  0  0  0  0  0  0  0
  -25.5570  -15.3130   20.2010 N   0  0  0  0  0  0  0  0  0  0  0  0
  -24.7930  -15.9650   20.3310 H   0  0  0  0  0  0  0  0  0  0  0  0
  -26.3880  -15.7450   19.8230 H   0  0  0  0  0  0  0  0  0  0  0  0
  -31.7210  -20.2970   18.3240 C   0  0  0  0  0  1  0  0  0  0  0  0
  -29.7480  -21.6490   17.5850 C   0  0  0  0  0  1  0  0  0  0  0  0
  -30.1980  -20.4910   18.4990 C   0  0  0  0  0  3  0  0  0  0  0  0
  -28.7490  -21.8580   20.3440 C   0  0  0  0  0  2  0  0  0  0  0  0
  -29.1460  -23.4890   20.3350 C   0  0  0  0  0  3  0  0  0  0  0  0
  -28.0230  -24.7130   20.2640 C   0  0  0  0  0  3  0  0  0  0  0  0
  -28.2960  -26.2310   20.3140 O   0  0  0  0  0  0  0  0  0  0  0  0
  -24.6120  -31.8720   23.2390 C   0  0  0  0  0  0  0  0  0  0  0  0
  -27.2180  -27.1780   20.2480 C   0  0  0  0  0  0  0  0  0  0  0  0
  -23.4160  -30.4600   21.6110 C   0  0  0  0  0  3  0  0  0  0  0  0
  -24.8720  -28.8880   20.1980 C   0  0  0  0  0  0  0  0  0  0  0  0
  -25.9660  -30.7460   21.4390 C   0  0  0  0  0  2  0  0  0  0  0  0
  -26.0500  -29.3520   20.8020 C   0  0  0  0  0  0  0  0  0  0  0  0
  -27.2230  -28.5130   20.8090 C   0  0  0  0  0  3  0  0  0  0  0  0
  -26.0120  -26.8050   19.6110 C   0  0  0  0  0  3  0  0  0  0  0  0
  -24.8660  -27.6240   19.5910 C   0  0  0  0  0  3  0  0  0  0  0  0
  -23.6370  -29.7730   20.2380 C   0  0  0  0  0  2  0  0  0  0  0  0
  -24.6850  -31.0460   22.1520 N   0  0  0  0  0  0  0  0  0  0  0  0
  -23.5260  -32.1570   23.7670 O   0  0  0  0  0  0  0  0  0  0  0  0
  -22.7470  -29.4530   22.5780 C   0  0  0  0  0  0  0  0  0  0  0  0
  -21.4210  -29.2760   22.4500 N   0  0  0  0  0  0  0  0  0  0  0  0
  -23.4230  -28.8300   23.4010 O   0  0  0  0  0  0  0  0  0  0  0  0
  -20.9350  -29.8330   21.7620 H   0  0  0  0  0  0  0  0  0  0  0  0
  -18.0410  -28.0780   22.9650 C   0  0  0  0  0  0  0  0  0  0  0  0
  -20.6010  -28.3430   23.2260 C   0  0  0  0  0  3  0  0  0  0  0  0
  -20.7010  -26.9060   22.6610 C   0  0  0  0  0  2  0  0  0  0  0  0
  -19.5980  -26.5780   21.6510 C   0  0  0  0  0  2  0  0  0  0  0  0
  -18.2170  -26.7250   22.2950 C   0  0  0  0  0  2  0  0  0  0  0  0
  -19.1610  -28.8440   23.3850 C   0  0  0  0  0  0  0  0  0  0  0  0
  -18.9430  -30.1100   23.9720 C   0  0  0  0  0  3  0  0  0  0  0  0
  -17.6410  -30.6120   24.1400 C   0  0  0  0  0  3  0  0  0  0  0  0
  -16.5350  -29.8440   23.7340 C   0  0  0  0  0  3  0  0  0  0  0  0
  -16.7360  -28.5800   23.1530 C   0  0  0  0  0  3  0  0  0  0  0  0
  -25.8880  -32.5180   23.8590 C   0  0  0  0  0  3  0  0  0  0  0  0
  -25.5660  -33.9170   24.1850 N   0  0  0  0  0  0  0  0  0  0  0  0
  -25.8960  -34.9730   23.4280 C   0  0  0  0  0  0  0  0  0  0  0  0
  -26.5710  -34.8710   22.4000 O   0  0  0  0  0  0  0  0  0  0  0  0
  -24.9620  -34.0680   24.9780 H   0  0  0  0  0  0  0  0  0  0  0  0
  -24.1660  -36.7660   23.0630 C   0  0  0  0  0  1  0  0  0  0  0  0
  -25.4010  -36.3600   23.8830 C   0  0  0  0  0  3  0  0  0  0  0  0
  -27.5260  -37.2510   24.7330 C   0  0  0  0  0  1  0  0  0  0  0  0
  -26.4320  -37.4160   23.7790 N   0  0  0  0  0  0  0  0  0  0  0  0
  -26.0220  -38.3360   23.9270 H   0  0  0  0  0  0  0  0  0  0  0  0
  -26.4050  -31.7600   25.1440 C   0  0  1  0  0  0  0  0  0  0  0  0
  -25.3100  -31.5180   26.2100 C   0  0  0  0  0  1  0  0  0  0  0  0
  -27.0020  -30.3840   24.7640 C   0  0  0  0  0  1  0  0  0  0  0  0
  -27.5440  -32.5690   25.8080 C   0  0  0  0  0  1  0  0  0  0  0  0
  1 47  1  0
  1  3  1  0
  2  3  1  0
  3  4  1  1
  5  3  1  0
  5  7  1  0
  7  6  1  0
  8  7  1  0
  9 14  1  0
 10 11  1  0
 10  9  1  0
 12 11  1  0
 12 19  1  0
 12 13  1  0
 14  8  1  0
 14 13  1  0
 15  8  2  0
 16 17  2  0
 17 36  1  0
 18 17  1  0
 18 21  1  0
 19 20  1  0
 19 16  1  0
 20 18  2  0
 21 22  1  0
 22 23  2  0
 24 27  1  0
 24 23  1  0
 25 24  2  0
 26 25  1  0
 26 21  2  0
 27 28  1  0
 28 33  2  0
 28 29  1  0
 29 30  2  0
 30 31  1  0
 31 35  1  0
 32 31  2  0
 33 32  1  0
 34 33  1  0
 36 37  1  0
 37 40  1  0
 37 39  1  0
 38 36  2  0
 41 42  1  0
 41 16  1  0
 43 41  1  0
 44 46  1  0
 45 46  1  0
 46  1  1  0
 48 47  1  0
 49 50  1  0
 49 48  2  0
 51 62  2  0
 52 50  1  0
 52 57  1  0
 53 61  1  0
 53 63  1  0
 54 60  1  0
 54 56  1  0
 55 61  1  0
 56 57  2  0
 56 55  1  0
 58 52  2  0
 59 58  1  0
 59 54  2  0
 60 53  1  0
 61 51  1  0
 63 65  2  0
 64 63  1  0
 66 64  1  0
 67 76  2  0
 67 72  1  0
 68 64  1  0
 68 72  1  0
 69 68  1  0
 70 71  1  0
 70 69  1  0
 71 67  1  0
 72 73  2  0
 73 74  1  0
 75 74  2  0
 76 75  1  0
 77 51  1  0
 77 78  1  0
 77 87  1  0
 78 81  1  0
 79 83  1  0
 79 78  1  0
 80 79  2  0
 83 82  1  0
 85 83  1  0
 85 86  1  0
 85 84  1  0
 87 90  1  1
 87 88  1  0
 89 87  1  0
M  ISO  4   7 100   8 100  49 101  50 101
M  END
>  <TORSDO>  (11) 
F 23

>  <SCORE>  (11) 
-12.630

>  <name>  (11) 
11

>  <ligand_id>  (11) 
11

>  <original_smiles>  (11) 
[H]c1c([H])c([H])c2c(c1[H])C([H])([H])C([H])([H])C([H])([H])C2([H])N([H])C(=O)C1([H])N(C(=O)C([H])(N([H])C(=O)C([H])(N([H])C([H])([H])[H])C([H])([H])[H])C(C([H])([H])[H])(C([H])([H])[H])C([H])([H])[H])C([H])([H])c2c([H])c(OC([H])([H])C([H])([H])C([H])([H])C([H])(C([H])(C([H])([H])[H])C([H])([H])[H])[N+]([H])(C([H])([H])[H])C([H])([H])C([H])(C(=O)N3C([H])([H])C([H])([H])C([H])([H])C([H])(n4nc(-c5c([H])c([H])c(Oc6c([H])c([H])c(F)c([H])c6F)c([H])c5[H])c(C(=O)N([H])[H])c4N([H])[H])C3([H])[H])C([H])([H])[H])c([H])c([H])c2C1([H])[H]

>  <smiles>  (11) 
[H]c1c([H])c([H])c2c(c1[H])C([H])([H])C([H])([H])C([H])([H])C2([H])N([H])C(=O)C1([H])N(C(=O)C([H])(N([H])C(=O)C([H])(N([H])C([H])([H])[H])C([H])([H])[H])C(C([H])([H])[H])(C([H])([H])[H])C([H])([H])[H])C([H])([H])c2c([H])c(OC([H])([H])C([H])([H])C([H])([H])C([H])(C([H])(C([H])([H])[H])C([H])([H])[H])[N+]([H])(C([H])([H])[H])C([H])([H])C([H])(C(=O)N3C([H])([H])C([H])([H])C([H])([H])C([H])(n4nc(-c5c([H])c([H])c(Oc6c([H])c([H])c(F)c([H])c6F)c([H])c5[H])c(C(=O)N([H])[H])c4N([H])[H])C3([H])[H])C([H])([H])[H])c([H])c([H])c2C1([H])[H]

$$$$
12:0:0
     RDKit          3D

 96103  0  0  1  0  0  0  0  0999 V2000
  -29.7050  -21.4600   20.0630 C   0  0  0  0  0  2  0  0  0  0  0  0
  -30.0070  -20.3010   19.0260 C   0  0  0  0  0  3  0  0  0  0  0  0
  -32.2390  -19.2970   19.4480 C   0  0  0  0  0  1  0  0  0  0  0  0
  -30.7690  -19.1050   19.5420 N   0  0  1  0  0  4  0  0  0  0  0  0
  -30.5720  -18.3890   18.8600 H   0  0  0  0  0  0  0  0  0  0  0  0
  -30.3470  -18.5100   20.8480 C   0  0  0  0  0  2  0  0  0  0  0  0
  -30.8720  -17.0630   21.1010 C   0  0  0  0  0  2  0  0  0  0  0  0
  -29.9370  -15.9090   20.6220 C   0  0  0  0  0  2  0  0  0  0  0  0
  -30.6470  -14.6420   20.0730 C   0  0  0  0  0  0  0  0  0  0  0  0
  -30.3730  -12.3880   19.0980 C   0  0  0  0  0  2  0  0  0  0  0  0
  -29.3870  -12.4710   17.9130 C   0  0  0  0  0  2  0  0  0  0  0  0
  -27.9290  -12.3280   18.3950 C   0  0  0  0  0  2  0  0  0  0  0  0
  -27.6070  -13.2610   19.5920 C   0  0  0  0  0  3  0  0  0  0  0  0
  -28.6980  -13.1530   20.6790 C   0  0  0  0  0  2  0  0  0  0  0  0
  -30.0000  -13.4420   20.0560 N   0  0  0  0  0  0  0  0  0  0  0  0
  -31.7460  -14.7880   19.5310 O   0  0  0  0  0  0  0  0  0  0  0  0
  -25.2660  -13.8860   20.4670 C   0  0  0  0  0  0  0  0  0  0  0  0
  -24.2030  -13.1210   20.8610 C   0  0  0  0  0  0  0  0  0  0  0  0
  -24.6260  -11.7610   20.7410 C   0  0  0  0  0  0  0  0  0  0  0  0
  -26.2750  -12.9940   20.1360 N   0  0  0  0  0  0  0  0  0  0  0  0
  -25.8950  -11.7090   20.3560 N   0  0  0  0  0  0  0  0  0  0  0  0
  -23.8780  -10.5080   20.9080 C   0  0  0  0  0  0  0  0  0  0  0  0
  -24.3210   -9.4940   21.7880 C   0  0  0  0  0  3  0  0  0  0  0  0
  -23.5730   -8.3070   21.9450 C   0  0  0  0  0  3  0  0  0  0  0  0
  -22.3700   -8.1260   21.2240 C   0  0  0  0  0  0  0  0  0  0  0  0
  -21.9450   -9.1280   20.3360 C   0  0  0  0  0  3  0  0  0  0  0  0
  -22.6930  -10.3060   20.1740 C   0  0  0  0  0  3  0  0  0  0  0  0
  -21.5880   -6.9970   21.2970 O   0  0  0  0  0  0  0  0  0  0  0  0
  -21.5520   -6.2210   22.4270 C   0  0  0  0  0  0  0  0  0  0  0  0
  -21.1640   -6.7460   23.6790 C   0  0  0  0  0  3  0  0  0  0  0  0
  -21.0720   -5.9000   24.8010 C   0  0  0  0  0  3  0  0  0  0  0  0
  -21.3570   -4.5260   24.6720 C   0  0  0  0  0  0  0  0  0  0  0  0
  -21.7380   -4.0000   23.4260 C   0  0  0  0  0  3  0  0  0  0  0  0
  -21.8320   -4.8450   22.3070 C   0  0  0  0  0  0  0  0  0  0  0  0
  -22.1800   -4.3280   21.1020 F   0  0  0  0  0  0  0  0  0  0  0  0
  -21.2610   -3.7100   25.7480 F   0  0  0  0  0  0  0  0  0  0  0  0
  -22.8340  -13.6150   21.2350 C   0  0  0  0  0  0  0  0  0  0  0  0
  -22.1430  -12.9050   22.1160 N   0  0  0  0  0  0  0  0  0  0  0  0
  -22.3880  -14.6700   20.7810 O   0  0  0  0  0  0  0  0  0  0  0  0
  -22.5110  -12.0510   22.5080 H   0  0  0  0  0  0  0  0  0  0  0  0
  -21.2280  -13.2180   22.4090 H   0  0  0  0  0  0  0  0  0  0  0  0
  -25.4540  -15.2620   20.3420 N   0  0  0  0  0  0  0  0  0  0  0  0
  -24.7070  -15.9260   20.5190 H   0  0  0  0  0  0  0  0  0  0  0  0
  -26.2860  -15.6950   19.9660 H   0  0  0  0  0  0  0  0  0  0  0  0
  -28.8630  -19.9350   18.0320 C   0  0  0  0  0  2  0  0  0  0  0  0
  -27.2130  -17.9690   17.9140 C   0  0  0  0  0  1  0  0  0  0  0  0
  -26.3720  -20.2860   18.4440 C   0  0  0  0  0  1  0  0  0  0  0  0
  -27.5550  -19.3150   18.5920 C   0  0  0  0  0  3  0  0  0  0  0  0
  -29.1190  -22.7820   19.4530 C   0  0  0  0  0  3  0  0  0  0  0  0
  -29.7720  -23.1060   18.1600 N   0  0  0  0  0  4  0  0  0  0  0  0
  -30.7620  -23.2620   18.2650 H   0  0  0  0  0  0  0  0  0  0  0  0
  -29.3760  -23.9440   17.7680 H   0  0  0  0  0  0  0  0  0  0  0  0
  -29.6380  -22.3870   17.4710 H   0  0  0  0  0  0  0  0  0  0  0  0
  -29.1510  -24.0450   20.3910 C   0  0  0  0  0  2  0  0  0  0  0  0
  -28.2610  -25.1920   19.8330 C   0  0  0  0  0  2  0  0  0  0  0  0
  -28.4550  -26.5650   20.2700 O   0  0  0  0  0  0  0  0  0  0  0  0
  -24.5630  -31.8140   23.1920 C   0  0  0  0  0  0  0  0  0  0  0  0
  -27.3200  -27.3680   20.1760 C   0  0  0  0  0  0  0  0  0  0  0  0
  -23.4160  -30.3890   21.5350 C   0  0  0  0  0  3  0  0  0  0  0  0
  -24.9200  -28.8930   20.1290 C   0  0  0  0  0  0  0  0  0  0  0  0
  -25.9470  -30.7800   21.3910 C   0  0  0  0  0  2  0  0  0  0  0  0
  -26.0660  -29.4110   20.7490 C   0  0  0  0  0  0  0  0  0  0  0  0
  -27.2690  -28.6550   20.7740 C   0  0  0  0  0  3  0  0  0  0  0  0
  -26.1510  -26.9060   19.5170 C   0  0  0  0  0  3  0  0  0  0  0  0
  -24.9620  -27.6410   19.5100 C   0  0  0  0  0  3  0  0  0  0  0  0
  -23.6620  -29.7250   20.1590 C   0  0  0  0  0  2  0  0  0  0  0  0
  -24.6590  -31.0110   22.0960 N   0  0  0  0  0  0  0  0  0  0  0  0
  -23.4660  -32.0670   23.7070 O   0  0  0  0  0  0  0  0  0  0  0  0
  -22.7690  -29.3490   22.4800 C   0  0  0  0  0  0  0  0  0  0  0  0
  -21.4450  -29.1640   22.3520 N   0  0  0  0  0  0  0  0  0  0  0  0
  -23.4530  -28.7160   23.2880 O   0  0  0  0  0  0  0  0  0  0  0  0
  -20.9540  -29.7190   21.6660 H   0  0  0  0  0  0  0  0  0  0  0  0
  -18.0650  -27.9980   22.8780 C   0  0  0  0  0  0  0  0  0  0  0  0
  -20.6310  -28.2170   23.1140 C   0  0  0  0  0  3  0  0  0  0  0  0
  -20.7070  -26.8000   22.4990 C   0  0  0  0  0  2  0  0  0  0  0  0
  -19.5830  -26.5160   21.4980 C   0  0  0  0  0  2  0  0  0  0  0  0
  -18.2140  -26.6640   22.1680 C   0  0  0  0  0  2  0  0  0  0  0  0
  -19.2000  -28.7360   23.3080 C   0  0  0  0  0  0  0  0  0  0  0  0
  -19.0040  -29.9890   23.9280 C   0  0  0  0  0  3  0  0  0  0  0  0
  -17.7080  -30.5010   24.1280 C   0  0  0  0  0  3  0  0  0  0  0  0
  -16.5880  -29.7570   23.7170 C   0  0  0  0  0  3  0  0  0  0  0  0
  -16.7680  -28.5090   23.0950 C   0  0  0  0  0  3  0  0  0  0  0  0
  -25.8240  -32.4730   23.8310 C   0  0  0  0  0  3  0  0  0  0  0  0
  -26.3360  -31.7120   25.1150 C   0  0  1  0  0  0  0  0  0  0  0  0
  -25.2290  -31.4380   26.1590 C   0  0  0  0  0  1  0  0  0  0  0  0
  -26.9670  -30.3540   24.7300 C   0  0  0  0  0  1  0  0  0  0  0  0
  -27.4500  -32.5380   25.8000 C   0  0  0  0  0  1  0  0  0  0  0  0
  -25.4800  -33.8650   24.1530 N   0  0  0  0  0  0  0  0  0  0  0  0
  -25.8060  -34.9230   23.3980 C   0  0  0  0  0  0  0  0  0  0  0  0
  -26.4980  -34.8320   22.3800 O   0  0  0  0  0  0  0  0  0  0  0  0
  -24.8720  -34.0090   24.9440 H   0  0  0  0  0  0  0  0  0  0  0  0
  -24.0470  -36.6770   23.0060 C   0  0  0  0  0  1  0  0  0  0  0  0
  -25.2820  -36.3010   23.8430 C   0  0  0  0  0  3  0  0  0  0  0  0
  -27.3820  -37.2320   24.7060 C   0  0  0  0  0  1  0  0  0  0  0  0
  -26.2930  -37.3740   23.7440 N   0  0  0  0  0  0  0  0  0  0  0  0
  -25.8680  -38.2860   23.8830 H   0  0  0  0  0  0  0  0  0  0  0  0
  2 45  1  0
  2  4  1  0
  2  1  1  0
  3  4  1  0
  4  6  1  0
  4  5  1  6
  6  7  1  0
  8  7  1  0
  9  8  1  0
 10 15  1  0
 11 12  1  0
 11 10  1  0
 13 12  1  0
 13 20  1  0
 13 14  1  0
 15  9  1  0
 15 14  1  0
 16  9  2  0
 17 18  2  0
 18 37  1  0
 19 18  1  0
 19 22  1  0
 20 21  1  0
 20 17  1  0
 21 19  2  0
 22 23  1  0
 23 24  2  0
 25 28  1  0
 25 24  1  0
 26 25  2  0
 27 26  1  0
 27 22  2  0
 28 29  1  0
 29 30  1  0
 30 31  2  0
 32 31  1  0
 32 36  1  0
 33 32  2  0
 34 29  2  0
 34 33  1  0
 35 34  1  0
 37 38  1  0
 38 41  1  0
 38 40  1  0
 39 37  2  0
 42 17  1  0
 42 43  1  0
 44 42  1  0
 45 48  1  0
 46 48  1  0
 47 48  1  0
 49  1  1  0
 49 54  1  0
 50 51  1  0
 50 49  1  0
 52 50  1  0
 53 50  1  0
 55 56  1  0
 55 54  1  0
 57 68  2  0
 58 56  1  0
 58 63  1  0
 59 67  1  0
 59 69  1  0
 60 66  1  0
 60 62  1  0
 61 67  1  0
 62 63  2  0
 62 61  1  0
 64 58  2  0
 65 64  1  0
 65 60  2  0
 66 59  1  0
 67 57  1  0
 69 71  2  0
 70 69  1  0
 72 70  1  0
 73 82  2  0
 73 78  1  0
 74 70  1  0
 74 78  1  0
 75 74  1  0
 76 77  1  0
 76 75  1  0
 77 73  1  0
 78 79  2  0
 79 80  1  0
 81 80  2  0
 82 81  1  0
 83 57  1  0
 83 88  1  0
 83 84  1  0
 84 87  1  1
 84 85  1  0
 86 84  1  0
 88 91  1  0
 89 93  1  0
 89 88  1  0
 90 89  2  0
 93 92  1  0
 95 93  1  0
 95 96  1  0
 95 94  1  0
M  ISO  4   8 100   9 100  55 101  56 101
M  END
>  <TORSDO>  (12) 
F 27

>  <SCORE>  (12) 
-11.370

>  <name>  (12) 
12

>  <ligand_id>  (12) 
12

>  <original_smiles>  (12) 
[H]c1c([H])c([H])c2c(c1[H])C([H])([H])C([H])([H])C([H])([H])C2([H])N([H])C(=O)C1([H])N(C(=O)C([H])(N([H])C(=O)C([H])(N([H])C([H])([H])[H])C([H])([H])[H])C(C([H])([H])[H])(C([H])([H])[H])C([H])([H])[H])C([H])([H])c2c([H])c(OC([H])([H])C([H])([H])C([H])(C([H])([H])C([H])(C([H])([H])C([H])(C([H])([H])[H])C([H])([H])[H])[N+]([H])(C([H])([H])[H])C([H])([H])C([H])([H])C([H])([H])C(=O)N3C([H])([H])C([H])([H])C([H])([H])C([H])(n4nc(-c5c([H])c([H])c(Oc6c([H])c([H])c(F)c([H])c6F)c([H])c5[H])c(C(=O)N([H])[H])c4N([H])[H])C3([H])[H])[N+]([H])([H])[H])c([H])c([H])c2C1([H])[H]

>  <smiles>  (12) 
[H]c1c([H])c([H])c2c(c1[H])C([H])([H])C([H])([H])C([H])([H])C2([H])N([H])C(=O)C1([H])N(C(=O)C([H])(N([H])C(=O)C([H])(N([H])C([H])([H])[H])C([H])([H])[H])C(C([H])([H])[H])(C([H])([H])[H])C([H])([H])[H])C([H])([H])c2c([H])c(OC([H])([H])C([H])([H])C([H])(C([H])([H])C([H])(C([H])([H])C([H])(C([H])([H])[H])C([H])([H])[H])[N+]([H])(C([H])([H])[H])C([H])([H])C([H])([H])C([H])([H])C(=O)N3C([H])([H])C([H])([H])C([H])([H])C([H])(n4nc(-c5c([H])c([H])c(Oc6c([H])c([H])c(F)c([H])c6F)c([H])c5[H])c(C(=O)N([H])[H])c4N([H])[H])C3([H])[H])[N+]([H])([H])[H])c([H])c([H])c2C1([H])[H]

$$$$
13:0:0
     RDKit          3D

 92100  0  0  1  0  0  0  0  0999 V2000
  -31.4370  -19.6700   20.4030 C   0  0  0  0  0  1  0  0  0  0  0  0
  -29.9820  -19.4240   20.2430 N   0  0  1  0  0  4  0  0  0  0  0  0
  -29.6160  -19.2590   21.1670 H   0  0  0  0  0  0  0  0  0  0  0  0
  -29.2880  -20.7640   19.7560 C   0  0  0  0  0  2  0  0  0  0  0  0
  -29.2770  -22.1880   20.6470 C   0  0  0  0  0  2  0  0  0  0  0  0
  -29.3100  -23.7620   20.0590 C   0  0  0  0  0  3  0  0  0  0  0  0
  -28.5860  -25.0860   20.7860 C   0  0  0  0  0  3  0  0  0  0  0  0
  -28.7620  -26.5870   20.4470 O   0  0  0  0  0  0  0  0  0  0  0  0
  -24.6970  -31.9810   23.4010 C   0  0  0  0  0  0  0  0  0  0  0  0
  -27.6420  -27.4780   20.4190 C   0  0  0  0  0  0  0  0  0  0  0  0
  -23.6360  -30.5370   21.7060 C   0  0  0  0  0  3  0  0  0  0  0  0
  -25.2200  -29.0590   20.3280 C   0  0  0  0  0  0  0  0  0  0  0  0
  -26.1710  -30.9550   21.6330 C   0  0  0  0  0  2  0  0  0  0  0  0
  -26.3490  -29.5740   20.9820 C   0  0  0  0  0  0  0  0  0  0  0  0
  -27.5620  -28.7960   21.0150 C   0  0  0  0  0  3  0  0  0  0  0  0
  -26.4850  -27.0540   19.7330 C   0  0  0  0  0  3  0  0  0  0  0  0
  -25.2970  -27.8090   19.6960 C   0  0  0  0  0  3  0  0  0  0  0  0
  -23.9430  -29.8790   20.3350 C   0  0  0  0  0  2  0  0  0  0  0  0
  -24.8520  -31.1780   22.3040 N   0  0  0  0  0  0  0  0  0  0  0  0
  -23.5750  -32.1980   23.8880 O   0  0  0  0  0  0  0  0  0  0  0  0
  -22.9770  -29.4850   22.6320 C   0  0  0  0  0  0  0  0  0  0  0  0
  -21.6740  -29.2240   22.4260 N   0  0  0  0  0  0  0  0  0  0  0  0
  -23.6420  -28.9080   23.4940 O   0  0  0  0  0  0  0  0  0  0  0  0
  -21.1930  -29.7520   21.7110 H   0  0  0  0  0  0  0  0  0  0  0  0
  -18.3610  -27.7890   22.7280 C   0  0  0  0  0  0  0  0  0  0  0  0
  -20.8750  -28.2310   23.1460 C   0  0  0  0  0  3  0  0  0  0  0  0
  -21.1090  -26.8110   22.5820 C   0  0  0  0  0  2  0  0  0  0  0  0
  -20.0950  -26.4090   21.5070 C   0  0  0  0  0  2  0  0  0  0  0  0
  -18.6700  -26.4580   22.0650 C   0  0  0  0  0  2  0  0  0  0  0  0
  -19.3960  -28.6310   23.2190 C   0  0  0  0  0  0  0  0  0  0  0  0
  -19.0520  -29.8740   23.7930 C   0  0  0  0  0  3  0  0  0  0  0  0
  -17.7060  -30.2770   23.8840 C   0  0  0  0  0  3  0  0  0  0  0  0
  -16.6850  -29.4360   23.4110 C   0  0  0  0  0  3  0  0  0  0  0  0
  -17.0130  -28.1940   22.8380 C   0  0  0  0  0  3  0  0  0  0  0  0
  -25.9100  -32.6780   24.0860 C   0  0  0  0  0  3  0  0  0  0  0  0
  -25.5340  -34.0760   24.3570 N   0  0  0  0  0  0  0  0  0  0  0  0
  -25.8820  -35.1230   23.5980 C   0  0  0  0  0  0  0  0  0  0  0  0
  -26.6220  -35.0180   22.6150 O   0  0  0  0  0  0  0  0  0  0  0  0
  -24.8880  -34.2280   25.1170 H   0  0  0  0  0  0  0  0  0  0  0  0
  -24.1400  -36.8630   23.0700 C   0  0  0  0  0  1  0  0  0  0  0  0
  -25.3200  -36.5050   23.9890 C   0  0  0  0  0  3  0  0  0  0  0  0
  -27.3750  -37.4420   24.9560 C   0  0  0  0  0  1  0  0  0  0  0  0
  -26.3270  -37.5900   23.9490 N   0  0  0  0  0  0  0  0  0  0  0  0
  -25.8830  -38.4930   24.0900 H   0  0  0  0  0  0  0  0  0  0  0  0
  -26.3640  -31.9660   25.4200 C   0  0  1  0  0  0  0  0  0  0  0  0
  -25.1990  -31.6540   26.3900 C   0  0  0  0  0  1  0  0  0  0  0  0
  -27.0850  -30.6340   25.1080 C   0  0  0  0  0  1  0  0  0  0  0  0
  -27.3900  -32.8520   26.1680 C   0  0  0  0  0  1  0  0  0  0  0  0
  -29.7210  -18.0470   19.5100 C   0  0  0  0  0  3  0  0  0  0  0  0
  -31.1300  -18.1400   15.3780 C   0  0  0  0  0  3  0  0  0  0  0  0
  -29.7990  -18.4880   15.6730 C   0  0  0  0  0  3  0  0  0  0  0  0
  -31.9930  -17.7440   16.4110 C   0  0  0  0  0  3  0  0  0  0  0  0
  -29.3420  -18.4640   17.0090 C   0  0  0  0  0  3  0  0  0  0  0  0
  -31.5270  -17.6810   17.7400 C   0  0  0  0  0  3  0  0  0  0  0  0
  -30.2040  -18.0600   18.0530 C   0  0  0  0  0  0  0  0  0  0  0  0
  -29.7910  -16.5350   20.2500 C   0  0  0  0  0  2  0  0  0  0  0  0
  -30.6230  -15.1640   19.8550 C   0  0  0  0  0  0  0  0  0  0  0  0
  -30.6140  -12.7450   19.1110 C   0  0  0  0  0  2  0  0  0  0  0  0
  -29.6520  -12.6450   17.9040 C   0  0  0  0  0  2  0  0  0  0  0  0
  -28.2020  -12.4250   18.3710 C   0  0  0  0  0  2  0  0  0  0  0  0
  -27.7990  -13.3980   19.5100 C   0  0  0  0  0  3  0  0  0  0  0  0
  -28.8810  -13.4510   20.6060 C   0  0  0  0  0  2  0  0  0  0  0  0
  -30.1310  -13.8670   19.9580 N   0  0  0  0  0  0  0  0  0  0  0  0
  -31.7820  -15.2810   19.4390 O   0  0  0  0  0  0  0  0  0  0  0  0
  -25.4770  -13.9730   20.4180 C   0  0  0  0  0  0  0  0  0  0  0  0
  -24.4290  -13.1920   20.8200 C   0  0  0  0  0  0  0  0  0  0  0  0
  -24.8720  -11.8400   20.7030 C   0  0  0  0  0  0  0  0  0  0  0  0
  -26.4880  -13.0930   20.0690 N   0  0  0  0  0  0  0  0  0  0  0  0
  -26.1390  -11.8040   20.3100 N   0  0  0  0  0  0  0  0  0  0  0  0
  -24.1420  -10.5770   20.8940 C   0  0  0  0  0  0  0  0  0  0  0  0
  -24.5330   -9.6440   21.8770 C   0  0  0  0  0  3  0  0  0  0  0  0
  -23.8110   -8.4460   22.0570 C   0  0  0  0  0  3  0  0  0  0  0  0
  -22.6800   -8.1710   21.2520 C   0  0  0  0  0  0  0  0  0  0  0  0
  -22.3080   -9.0920   20.2590 C   0  0  0  0  0  3  0  0  0  0  0  0
  -23.0290  -10.2850   20.0780 C   0  0  0  0  0  3  0  0  0  0  0  0
  -21.9360   -7.0170   21.3330 O   0  0  0  0  0  0  0  0  0  0  0  0
  -21.7280   -6.3780   22.5260 C   0  0  0  0  0  0  0  0  0  0  0  0
  -21.1170   -7.0240   23.6230 C   0  0  0  0  0  3  0  0  0  0  0  0
  -20.8620   -6.3070   24.8080 C   0  0  0  0  0  3  0  0  0  0  0  0
  -21.2010   -4.9440   24.8950 C   0  0  0  0  0  0  0  0  0  0  0  0
  -21.8060   -4.2980   23.8020 C   0  0  0  0  0  3  0  0  0  0  0  0
  -22.0670   -5.0120   22.6210 C   0  0  0  0  0  0  0  0  0  0  0  0
  -22.6250   -4.3780   21.5610 F   0  0  0  0  0  0  0  0  0  0  0  0
  -20.9510   -4.2520   26.0330 F   0  0  0  0  0  0  0  0  0  0  0  0
  -23.0560  -13.6720   21.1930 C   0  0  0  0  0  0  0  0  0  0  0  0
  -22.3850  -12.9480   22.0830 N   0  0  0  0  0  0  0  0  0  0  0  0
  -22.5960  -14.7140   20.7350 O   0  0  0  0  0  0  0  0  0  0  0  0
  -22.7800  -12.1000   22.4600 H   0  0  0  0  0  0  0  0  0  0  0  0
  -21.4680  -13.2460   22.3820 H   0  0  0  0  0  0  0  0  0  0  0  0
  -25.6500  -15.3450   20.2880 N   0  0  0  0  0  0  0  0  0  0  0  0
  -24.8870  -15.9970   20.4220 H   0  0  0  0  0  0  0  0  0  0  0  0
  -26.4490  -15.7530   19.8250 H   0  0  0  0  0  0  0  0  0  0  0  0
  2  1  1  0
  2  3  1  1
  4  2  1  0
  4  5  1  0
  6  5  1  0
  6  7  2  0
  8  7  1  0
  9 20  2  0
 10  8  1  0
 10 15  1  0
 11 19  1  0
 11 21  1  0
 12 18  1  0
 12 14  1  0
 13 19  1  0
 14 15  2  0
 14 13  1  0
 16 10  2  0
 17 16  1  0
 17 12  2  0
 18 11  1  0
 19  9  1  0
 21 23  2  0
 22 21  1  0
 24 22  1  0
 25 34  2  0
 25 30  1  0
 26 22  1  0
 26 30  1  0
 27 26  1  0
 28 29  1  0
 28 27  1  0
 29 25  1  0
 30 31  2  0
 31 32  1  0
 33 32  2  0
 34 33  1  0
 35  9  1  0
 35 36  1  0
 35 45  1  0
 36 39  1  0
 37 41  1  0
 37 36  1  0
 38 37  2  0
 41 40  1  0
 43 41  1  0
 43 44  1  0
 43 42  1  0
 45 48  1  1
 45 46  1  0
 47 45  1  0
 49  2  1  0
 49 56  1  0
 50 51  2  0
 50 52  1  0
 51 53  1  0
 52 54  2  0
 53 55  2  0
 54 55  1  0
 55 49  1  0
 57 63  1  0
 57 56  1  0
 58 63  1  0
 59 60  1  0
 59 58  1  0
 61 60  1  0
 61 68  1  0
 61 62  1  0
 63 62  1  0
 64 57  2  0
 65 66  2  0
 66 85  1  0
 67 66  1  0
 67 70  1  0
 68 69  1  0
 68 65  1  0
 69 67  2  0
 70 71  1  0
 71 72  2  0
 73 76  1  0
 73 72  1  0
 74 73  2  0
 75 74  1  0
 75 70  2  0
 76 77  1  0
 77 82  2  0
 77 78  1  0
 78 79  2  0
 79 80  1  0
 80 84  1  0
 81 80  2  0
 82 81  1  0
 83 82  1  0
 85 86  1  0
 86 89  1  0
 86 88  1  0
 87 85  2  0
 90 65  1  0
 90 91  1  0
 92 90  1  0
M  ISO  4   7 101   8 101  56 100  57 100
M  END
>  <TORSDO>  (13) 
F 23

>  <SCORE>  (13) 
-12.256

>  <name>  (13) 
13

>  <ligand_id>  (13) 
13

>  <original_smiles>  (13) 
[H]c1c([H])c([H])c(C([H])(C([H])([H])C(=O)N2C([H])([H])C([H])([H])C([H])([H])C([H])(n3nc(-c4c([H])c([H])c(Oc5c([H])c([H])c(F)c([H])c5F)c([H])c4[H])c(C(=O)N([H])[H])c3N([H])[H])C2([H])[H])[N+]([H])(C([H])([H])[H])C([H])([H])C([H])([H])C([H])([H])C([H])([H])Oc2c([H])c([H])c3c(c2[H])C([H])([H])N(C(=O)C([H])(N([H])C(=O)C([H])(N([H])C([H])([H])[H])C([H])([H])[H])C(C([H])([H])[H])(C([H])([H])[H])C([H])([H])[H])C([H])(C(=O)N([H])C2([H])c4c([H])c([H])c([H])c([H])c4C([H])([H])C([H])([H])C2([H])[H])C3([H])[H])c([H])c1[H]

>  <smiles>  (13) 
[H]c1c([H])c([H])c(C([H])(C([H])([H])C(=O)N2C([H])([H])C([H])([H])C([H])([H])C([H])(n3nc(-c4c([H])c([H])c(Oc5c([H])c([H])c(F)c([H])c5F)c([H])c4[H])c(C(=O)N([H])[H])c3N([H])[H])C2([H])[H])[N+]([H])(C([H])([H])[H])C([H])([H])C([H])([H])C([H])([H])C([H])([H])Oc2c([H])c([H])c3c(c2[H])C([H])([H])N(C(=O)C([H])(N([H])C(=O)C([H])(N([H])C([H])([H])[H])C([H])([H])[H])C(C([H])([H])[H])(C([H])([H])[H])C([H])([H])[H])C([H])(C(=O)N([H])C2([H])c4c([H])c([H])c([H])c([H])c4C([H])([H])C([H])([H])C2([H])[H])C3([H])[H])c([H])c1[H]

$$$$
14:0:0
     RDKit          3D

 90 98  0  0  1  0  0  0  0  0999 V2000
  -30.3930  -15.6180   20.3290 C   0  0  0  0  0  0  0  0  0  0  0  0
  -30.3600  -13.0940   19.5080 C   0  0  0  0  0  2  0  0  0  0  0  0
  -29.4860  -12.7290   18.2830 C   0  0  0  0  0  2  0  0  0  0  0  0
  -28.0590  -12.3920   18.7310 C   0  0  0  0  0  2  0  0  0  0  0  0
  -27.5550  -13.3920   19.7990 C   0  0  0  0  0  3  0  0  0  0  0  0
  -28.5800  -13.7140   20.9160 C   0  0  0  0  0  2  0  0  0  0  0  0
  -29.7630  -14.3030   20.2500 N   0  0  0  0  0  0  0  0  0  0  0  0
  -31.6110  -15.3910   20.1640 O   0  0  0  0  0  0  0  0  0  0  0  0
  -32.0370  -18.4850   20.3600 C   0  0  0  0  0  2  0  0  0  0  0  0
  -31.8990  -18.2790   18.8220 C   0  0  0  0  0  2  0  0  0  0  0  0
  -29.3150  -18.5470   18.5710 C   0  0  0  0  0  2  0  0  0  0  0  0
  -31.0220  -17.7930   21.3200 C   0  0  0  0  0  2  0  0  0  0  0  0
  -30.7260  -18.9910   18.0830 C   0  0  0  0  0  3  0  0  0  0  0  0
  -29.1240  -18.5740   20.0910 C   0  0  0  0  0  3  0  0  0  0  0  0
  -29.9350  -17.0990   20.6170 N   0  0  0  0  0  0  0  0  0  0  0  0
  -25.1900  -13.9110   20.5560 C   0  0  0  0  0  0  0  0  0  0  0  0
  -24.1330  -13.1230   20.9110 C   0  0  0  0  0  0  0  0  0  0  0  0
  -24.6090  -11.7760   20.8770 C   0  0  0  0  0  0  0  0  0  0  0  0
  -26.2380  -13.0460   20.3120 N   0  0  0  0  0  0  0  0  0  0  0  0
  -25.9050  -11.7530   20.5760 N   0  0  0  0  0  0  0  0  0  0  0  0
  -23.8850  -10.5080   21.0530 C   0  0  0  0  0  0  0  0  0  0  0  0
  -24.3040   -9.5390   21.9910 C   0  0  0  0  0  3  0  0  0  0  0  0
  -23.5760   -8.3420   22.1610 C   0  0  0  0  0  3  0  0  0  0  0  0
  -22.4130   -8.1010   21.3910 C   0  0  0  0  0  0  0  0  0  0  0  0
  -22.0120   -9.0590   20.4420 C   0  0  0  0  0  3  0  0  0  0  0  0
  -22.7420  -10.2470   20.2720 C   0  0  0  0  0  3  0  0  0  0  0  0
  -21.6580   -6.9550   21.4690 O   0  0  0  0  0  0  0  0  0  0  0  0
  -21.5810   -6.2210   22.6250 C   0  0  0  0  0  0  0  0  0  0  0  0
  -21.1140   -6.7810   23.8340 C   0  0  0  0  0  3  0  0  0  0  0  0
  -20.9830   -5.9710   24.9800 C   0  0  0  0  0  3  0  0  0  0  0  0
  -21.3120   -4.6030   24.9190 C   0  0  0  0  0  0  0  0  0  0  0  0
  -21.7730   -4.0430   23.7140 C   0  0  0  0  0  3  0  0  0  0  0  0
  -21.9030   -4.8500   22.5700 C   0  0  0  0  0  0  0  0  0  0  0  0
  -22.3250   -4.3000   21.4060 F   0  0  0  0  0  0  0  0  0  0  0  0
  -21.1800   -3.8250   26.0170 F   0  0  0  0  0  0  0  0  0  0  0  0
  -22.7320  -13.5890   21.1700 C   0  0  0  0  0  0  0  0  0  0  0  0
  -21.9980  -12.8870   22.0260 N   0  0  0  0  0  0  0  0  0  0  0  0
  -22.2950  -14.6140   20.6480 O   0  0  0  0  0  0  0  0  0  0  0  0
  -22.3660  -12.0590   22.4700 H   0  0  0  0  0  0  0  0  0  0  0  0
  -21.0550  -13.1800   22.2410 H   0  0  0  0  0  0  0  0  0  0  0  0
  -25.3530  -15.2830   20.3860 N   0  0  0  0  0  0  0  0  0  0  0  0
  -24.5910  -15.9430   20.5010 H   0  0  0  0  0  0  0  0  0  0  0  0
  -26.2160  -15.7180   20.0830 H   0  0  0  0  0  0  0  0  0  0  0  0
  -29.9190  -19.8870   15.8130 C   0  0  0  0  0  1  0  0  0  0  0  0
  -32.2260  -18.9440   15.9500 C   0  0  0  0  0  1  0  0  0  0  0  0
  -30.8020  -18.8460   16.5300 C   0  0  0  0  0  3  0  0  0  0  0  0
  -29.2260  -20.4600   20.5160 C   0  0  0  0  0  2  0  0  0  0  0  0
  -28.2360  -22.1060   20.4380 C   0  0  0  0  0  2  0  0  0  0  0  0
  -28.2940  -23.9600   19.9380 C   0  0  0  0  0  2  0  0  0  0  0  0
  -28.1470  -25.6220   20.4390 O   0  0  0  0  0  0  0  0  0  0  0  0
  -24.5840  -31.8530   23.2010 C   0  0  0  0  0  0  0  0  0  0  0  0
  -27.1740  -26.8020   20.2750 C   0  0  0  0  0  0  0  0  0  0  0  0
  -23.4230  -30.4280   21.5670 C   0  0  0  0  0  3  0  0  0  0  0  0
  -24.8950  -28.7900   20.1750 C   0  0  0  0  0  0  0  0  0  0  0  0
  -25.9980  -30.5990   21.4690 C   0  0  0  0  0  2  0  0  0  0  0  0
  -26.0760  -29.1680   20.8220 C   0  0  0  0  0  0  0  0  0  0  0  0
  -27.1980  -28.1980   20.8450 C   0  0  0  0  0  3  0  0  0  0  0  0
  -25.9640  -26.6240   19.5600 C   0  0  0  0  0  3  0  0  0  0  0  0
  -24.8750  -27.5440   19.5200 C   0  0  0  0  0  3  0  0  0  0  0  0
  -23.6810  -29.7280   20.2010 C   0  0  0  0  0  2  0  0  0  0  0  0
  -24.6900  -30.9940   22.1310 N   0  0  0  0  0  0  0  0  0  0  0  0
  -23.4840  -32.1500   23.6980 O   0  0  0  0  0  0  0  0  0  0  0  0
  -22.7090  -29.4510   22.5390 C   0  0  0  0  0  0  0  0  0  0  0  0
  -21.3760  -29.3000   22.4150 N   0  0  0  0  0  0  0  0  0  0  0  0
  -23.3640  -28.8300   23.3790 O   0  0  0  0  0  0  0  0  0  0  0  0
  -20.8970  -29.8490   21.7150 H   0  0  0  0  0  0  0  0  0  0  0  0
  -17.9800  -28.1200   22.9450 C   0  0  0  0  0  0  0  0  0  0  0  0
  -20.5440  -28.3700   23.1910 C   0  0  0  0  0  3  0  0  0  0  0  0
  -20.6300  -26.9360   22.6170 C   0  0  0  0  0  2  0  0  0  0  0  0
  -19.5200  -26.6230   21.6080 C   0  0  0  0  0  2  0  0  0  0  0  0
  -18.1440  -26.7740   22.2600 C   0  0  0  0  0  2  0  0  0  0  0  0
  -19.1060  -28.8780   23.3660 C   0  0  0  0  0  0  0  0  0  0  0  0
  -18.8930  -30.1360   23.9690 C   0  0  0  0  0  3  0  0  0  0  0  0
  -17.5900  -30.6390   24.1500 C   0  0  0  0  0  3  0  0  0  0  0  0
  -16.4800  -29.8790   23.7430 C   0  0  0  0  0  3  0  0  0  0  0  0
  -16.6760  -28.6200   23.1460 C   0  0  0  0  0  3  0  0  0  0  0  0
  -25.8380  -32.5200   23.8450 C   0  0  0  0  0  3  0  0  0  0  0  0
  -26.3260  -31.7830   25.1540 C   0  0  1  0  0  0  0  0  0  0  0  0
  -25.2140  -31.5790   26.2110 C   0  0  0  0  0  1  0  0  0  0  0  0
  -26.9090  -30.3930   24.8240 C   0  0  0  0  0  1  0  0  0  0  0  0
  -27.4670  -32.5920   25.8160 C   0  0  0  0  0  1  0  0  0  0  0  0
  -25.5050  -33.9230   24.1560 N   0  0  0  0  0  0  0  0  0  0  0  0
  -25.8450  -34.9820   23.4080 C   0  0  0  0  0  0  0  0  0  0  0  0
  -26.5290  -34.8800   22.3860 O   0  0  0  0  0  0  0  0  0  0  0  0
  -24.8970  -34.0760   24.9480 H   0  0  0  0  0  0  0  0  0  0  0  0
  -24.1180  -36.7790   23.0330 C   0  0  0  0  0  1  0  0  0  0  0  0
  -25.3490  -36.3730   23.8590 C   0  0  0  0  0  3  0  0  0  0  0  0
  -27.4680  -37.2690   24.7210 C   0  0  0  0  0  1  0  0  0  0  0  0
  -26.3810  -37.4290   23.7600 N   0  0  0  0  0  0  0  0  0  0  0  0
  -25.9700  -38.3480   23.8990 H   0  0  0  0  0  0  0  0  0  0  0  0
  1 15  1  0
  2  7  1  0
  3  4  1  0
  3  2  1  0
  5  4  1  0
  5 19  1  0
  5  6  1  0
  7  1  1  0
  7  6  1  0
  8  1  2  0
  9 12  1  0
 10  9  1  0
 11 14  1  0
 13 46  1  0
 13 11  1  0
 13 10  1  0
 14 47  1  0
 14 15  1  0
 15 12  1  0
 16 17  2  0
 17 36  1  0
 18 17  1  0
 18 21  1  0
 19 16  1  0
 19 20  1  0
 20 18  2  0
 21 22  1  0
 22 23  2  0
 24 27  1  0
 24 23  1  0
 25 24  2  0
 26 25  1  0
 26 21  2  0
 27 28  1  0
 28 29  1  0
 29 30  2  0
 31 30  1  0
 31 35  1  0
 32 31  2  0
 33 28  2  0
 33 32  1  0
 34 33  1  0
 36 37  1  0
 37 40  1  0
 37 39  1  0
 38 36  2  0
 41 42  1  0
 41 16  1  0
 43 41  1  0
 44 46  1  0
 45 46  1  0
 48 47  1  0
 49 48  1  0
 49 50  1  0
 51 62  2  0
 52 50  1  0
 52 57  1  0
 53 61  1  0
 53 63  1  0
 54 60  1  0
 54 56  1  0
 55 61  1  0
 56 57  2  0
 56 55  1  0
 58 52  2  0
 59 58  1  0
 59 54  2  0
 60 53  1  0
 61 51  1  0
 63 65  2  0
 64 63  1  0
 66 64  1  0
 67 76  2  0
 67 72  1  0
 68 64  1  0
 68 72  1  0
 69 68  1  0
 70 71  1  0
 70 69  1  0
 71 67  1  0
 72 73  2  0
 73 74  1  0
 75 74  2  0
 76 75  1  0
 77 51  1  0
 77 82  1  0
 77 78  1  0
 78 81  1  1
 78 79  1  0
 80 78  1  0
 82 85  1  0
 83 87  1  0
 83 82  1  0
 84 83  2  0
 87 86  1  0
 89 87  1  0
 89 90  1  0
 89 88  1  0
M  ISO  4   1 100  15 100  49 101  50 101
M  END
>  <TORSDO>  (14) 
F 19

>  <SCORE>  (14) 
-16.395

>  <name>  (14) 
14

>  <ligand_id>  (14) 
14

>  <original_smiles>  (14) 
[H]c1c([H])c([H])c2c(c1[H])C([H])([H])C([H])([H])C([H])([H])C2([H])N([H])C(=O)C1([H])N(C(=O)C([H])(N([H])C(=O)C([H])(N([H])C([H])([H])[H])C([H])([H])[H])C(C([H])([H])[H])(C([H])([H])[H])C([H])([H])[H])C([H])([H])c2c([H])c(OC([H])([H])C([H])([H])C([H])([H])C3([H])N(C(=O)N4C([H])([H])C([H])([H])C([H])([H])C([H])(n5nc(-c6c([H])c([H])c(Oc7c([H])c([H])c(F)c([H])c7F)c([H])c6[H])c(C(=O)N([H])[H])c5N([H])[H])C4([H])[H])C([H])([H])C([H])([H])C([H])([H])C([H])(C([H])(C([H])([H])[H])C([H])([H])[H])C3([H])[H])c([H])c([H])c2C1([H])[H]

>  <smiles>  (14) 
[H]c1c([H])c([H])c2c(c1[H])C([H])([H])C([H])([H])C([H])([H])C2([H])N([H])C(=O)C1([H])N(C(=O)C([H])(N([H])C(=O)C([H])(N([H])C([H])([H])[H])C([H])([H])[H])C(C([H])([H])[H])(C([H])([H])[H])C([H])([H])[H])C([H])([H])c2c([H])c(OC([H])([H])C([H])([H])C([H])([H])C3([H])N(C(=O)N4C([H])([H])C([H])([H])C([H])([H])C([H])(n5nc(-c6c([H])c([H])c(Oc7c([H])c([H])c(F)c([H])c7F)c([H])c6[H])c(C(=O)N([H])[H])c5N([H])[H])C4([H])[H])C([H])([H])C([H])([H])C([H])([H])C([H])(C([H])(C([H])([H])[H])C([H])([H])[H])C3([H])[H])c([H])c([H])c2C1([H])[H]

$$$$
15:0:0
     RDKit          3D

 86 94  0  0  1  0  0  0  0  0999 V2000
  -28.9460  -20.5690   19.1770 C   0  0  0  0  0  3  0  0  0  0  0  0
  -29.3940  -20.8150   21.4360 C   0  0  0  0  0  3  0  0  0  0  0  0
  -28.5410  -21.9850   19.1140 C   0  0  0  0  0  3  0  0  0  0  0  0
  -28.9800  -22.2360   21.3720 C   0  0  0  0  0  3  0  0  0  0  0  0
  -29.4030  -19.8500   20.3450 C   0  0  0  0  0  0  0  0  0  0  0  0
  -28.5310  -22.9550   20.1940 C   0  0  0  0  0  0  0  0  0  0  0  0
  -30.1270  -18.2960   20.3450 C   0  0  0  0  0  3  0  0  0  0  0  0
  -29.5740  -16.6590   20.5480 C   0  0  0  0  0  3  0  0  0  0  0  0
  -30.4210  -15.1860   20.3120 C   0  0  0  0  0  0  0  0  0  0  0  0
  -30.3610  -12.7960   19.3670 C   0  0  0  0  0  2  0  0  0  0  0  0
  -29.4150  -12.7170   18.1410 C   0  0  0  0  0  2  0  0  0  0  0  0
  -27.9600  -12.4750   18.5850 C   0  0  0  0  0  2  0  0  0  0  0  0
  -27.5520  -13.3870   19.7690 C   0  0  0  0  0  3  0  0  0  0  0  0
  -28.6190  -13.4280   20.8800 C   0  0  0  0  0  2  0  0  0  0  0  0
  -29.8740  -13.8870   20.2730 N   0  0  0  0  0  0  0  0  0  0  0  0
  -31.6220  -15.2330   20.0130 O   0  0  0  0  0  0  0  0  0  0  0  0
  -25.1840  -13.9370   20.5530 C   0  0  0  0  0  0  0  0  0  0  0  0
  -24.1280  -13.1530   20.9270 C   0  0  0  0  0  0  0  0  0  0  0  0
  -24.5980  -11.8040   20.8770 C   0  0  0  0  0  0  0  0  0  0  0  0
  -26.2260  -13.0680   20.2860 N   0  0  0  0  0  0  0  0  0  0  0  0
  -25.8860  -11.7780   20.5490 N   0  0  0  0  0  0  0  0  0  0  0  0
  -23.8770  -10.5370   21.0620 C   0  0  0  0  0  0  0  0  0  0  0  0
  -24.3190   -9.5630   21.9830 C   0  0  0  0  0  3  0  0  0  0  0  0
  -23.5960   -8.3630   22.1590 C   0  0  0  0  0  3  0  0  0  0  0  0
  -22.4170   -8.1300   21.4120 C   0  0  0  0  0  0  0  0  0  0  0  0
  -21.9940   -9.0930   20.4790 C   0  0  0  0  0  3  0  0  0  0  0  0
  -22.7180  -10.2840   20.3030 C   0  0  0  0  0  3  0  0  0  0  0  0
  -21.6640   -6.9830   21.4970 O   0  0  0  0  0  0  0  0  0  0  0  0
  -21.6180   -6.2350   22.6470 C   0  0  0  0  0  0  0  0  0  0  0  0
  -21.1770   -6.7790   23.8720 C   0  0  0  0  0  3  0  0  0  0  0  0
  -21.0790   -5.9570   25.0130 C   0  0  0  0  0  3  0  0  0  0  0  0
  -21.4130   -4.5930   24.9290 C   0  0  0  0  0  0  0  0  0  0  0  0
  -21.8480   -4.0470   23.7080 C   0  0  0  0  0  3  0  0  0  0  0  0
  -21.9480   -4.8670   22.5700 C   0  0  0  0  0  0  0  0  0  0  0  0
  -22.3460   -4.3310   21.3910 F   0  0  0  0  0  0  0  0  0  0  0  0
  -21.3130   -3.8010   26.0220 F   0  0  0  0  0  0  0  0  0  0  0  0
  -22.7320  -13.6220   21.2170 C   0  0  0  0  0  0  0  0  0  0  0  0
  -22.0170  -12.9200   22.0880 N   0  0  0  0  0  0  0  0  0  0  0  0
  -22.2840  -14.6480   20.7060 O   0  0  0  0  0  0  0  0  0  0  0  0
  -22.3940  -12.0900   22.5240 H   0  0  0  0  0  0  0  0  0  0  0  0
  -21.0820  -13.2160   22.3250 H   0  0  0  0  0  0  0  0  0  0  0  0
  -25.3400  -15.3110   20.3920 N   0  0  0  0  0  0  0  0  0  0  0  0
  -24.5730  -15.9630   20.5290 H   0  0  0  0  0  0  0  0  0  0  0  0
  -26.1880  -15.7600   20.0690 H   0  0  0  0  0  0  0  0  0  0  0  0
  -27.7530  -24.4770   20.0750 C   0  0  0  0  0  2  0  0  0  0  0  0
  -28.1700  -26.0150   20.2480 O   0  0  0  0  0  0  0  0  0  0  0  0
  -24.6350  -31.8930   23.2410 C   0  0  0  0  0  0  0  0  0  0  0  0
  -27.1660  -27.0940   20.1850 C   0  0  0  0  0  0  0  0  0  0  0  0
  -23.4260  -30.5080   21.6060 C   0  0  0  0  0  3  0  0  0  0  0  0
  -24.8630  -28.9280   20.1640 C   0  0  0  0  0  0  0  0  0  0  0  0
  -25.9880  -30.7380   21.4370 C   0  0  0  0  0  2  0  0  0  0  0  0
  -26.0530  -29.3400   20.7770 C   0  0  0  0  0  0  0  0  0  0  0  0
  -27.2040  -28.4420   20.7670 C   0  0  0  0  0  3  0  0  0  0  0  0
  -25.9470  -26.8210   19.5220 C   0  0  0  0  0  3  0  0  0  0  0  0
  -24.8300  -27.6860   19.5170 C   0  0  0  0  0  3  0  0  0  0  0  0
  -23.6420  -29.8390   20.2230 C   0  0  0  0  0  2  0  0  0  0  0  0
  -24.7040  -31.0700   22.1490 N   0  0  0  0  0  0  0  0  0  0  0  0
  -23.5510  -32.1810   23.7730 O   0  0  0  0  0  0  0  0  0  0  0  0
  -22.7440  -29.5020   22.5680 C   0  0  0  0  0  0  0  0  0  0  0  0
  -21.4150  -29.3300   22.4430 N   0  0  0  0  0  0  0  0  0  0  0  0
  -23.4140  -28.8770   23.3930 O   0  0  0  0  0  0  0  0  0  0  0  0
  -20.9290  -29.8840   21.7520 H   0  0  0  0  0  0  0  0  0  0  0  0
  -18.0370  -28.1070   22.9420 C   0  0  0  0  0  0  0  0  0  0  0  0
  -20.5940  -28.3910   23.2150 C   0  0  0  0  0  3  0  0  0  0  0  0
  -20.7080  -26.9570   22.6480 C   0  0  0  0  0  2  0  0  0  0  0  0
  -19.6110  -26.6220   21.6310 C   0  0  0  0  0  2  0  0  0  0  0  0
  -18.2260  -26.7580   22.2690 C   0  0  0  0  0  2  0  0  0  0  0  0
  -19.1480  -28.8800   23.3710 C   0  0  0  0  0  0  0  0  0  0  0  0
  -18.9160  -30.1410   23.9640 C   0  0  0  0  0  3  0  0  0  0  0  0
  -17.6060  -30.6300   24.1270 C   0  0  0  0  0  3  0  0  0  0  0  0
  -16.5100  -29.8540   23.7120 C   0  0  0  0  0  3  0  0  0  0  0  0
  -16.7260  -28.5950   23.1250 C   0  0  0  0  0  3  0  0  0  0  0  0
  -25.9150  -32.5280   23.8660 C   0  0  0  0  0  3  0  0  0  0  0  0
  -26.4240  -31.7570   25.1460 C   0  0  1  0  0  0  0  0  0  0  0  0
  -25.3290  -31.5310   26.2140 C   0  0  0  0  0  1  0  0  0  0  0  0
  -27.0000  -30.3740   24.7670 C   0  0  0  0  0  1  0  0  0  0  0  0
  -27.5810  -32.5470   25.8060 C   0  0  0  0  0  1  0  0  0  0  0  0
  -25.6050  -33.9270   24.2020 N   0  0  0  0  0  0  0  0  0  0  0  0
  -25.9180  -34.9850   23.4430 C   0  0  0  0  0  0  0  0  0  0  0  0
  -26.5620  -34.8870   22.3950 O   0  0  0  0  0  0  0  0  0  0  0  0
  -25.0290  -34.0780   25.0170 H   0  0  0  0  0  0  0  0  0  0  0  0
  -24.1720  -36.7770   23.1540 C   0  0  0  0  0  1  0  0  0  0  0  0
  -25.4430  -36.3730   23.9200 C   0  0  0  0  0  3  0  0  0  0  0  0
  -27.6020  -37.2690   24.6770 C   0  0  0  0  0  1  0  0  0  0  0  0
  -26.4680  -37.4310   23.7710 N   0  0  0  0  0  0  0  0  0  0  0  0
  -26.0630  -38.3500   23.9310 H   0  0  0  0  0  0  0  0  0  0  0  0
  1  5  1  0
  3  1  2  0
  3  6  1  0
  4  2  1  0
  5  2  2  0
  6  4  2  0
  7  5  1  0
  7  8  2  0
  9  8  1  0
 10 15  1  0
 11 12  1  0
 11 10  1  0
 13 12  1  0
 13 20  1  0
 13 14  1  0
 15  9  1  0
 15 14  1  0
 16  9  2  0
 17 18  2  0
 18 37  1  0
 19 18  1  0
 19 22  1  0
 20 21  1  0
 20 17  1  0
 21 19  2  0
 22 23  1  0
 23 24  2  0
 25 28  1  0
 25 24  1  0
 26 25  2  0
 27 26  1  0
 27 22  2  0
 28 29  1  0
 29 30  1  0
 30 31  2  0
 32 31  1  0
 32 36  1  0
 33 32  2  0
 34 29  2  0
 34 33  1  0
 35 34  1  0
 37 38  1  0
 38 41  1  0
 38 40  1  0
 39 37  2  0
 42 43  1  0
 42 17  1  0
 44 42  1  0
 45  6  1  0
 45 46  1  0
 47 58  2  0
 48 46  1  0
 48 53  1  0
 49 57  1  0
 49 59  1  0
 50 56  1  0
 50 52  1  0
 51 57  1  0
 52 51  1  0
 53 52  2  0
 54 48  2  0
 55 54  1  0
 55 50  2  0
 56 49  1  0
 57 47  1  0
 59 61  2  0
 60 59  1  0
 62 60  1  0
 63 72  2  0
 63 68  1  0
 64 60  1  0
 64 68  1  0
 65 64  1  0
 66 67  1  0
 66 65  1  0
 67 63  1  0
 68 69  2  0
 69 70  1  0
 71 70  2  0
 72 71  1  0
 73 47  1  0
 73 78  1  0
 73 74  1  0
 74 77  1  1
 74 75  1  0
 76 74  1  0
 78 81  1  0
 79 83  1  0
 79 78  1  0
 80 79  2  0
 83 82  1  0
 85 83  1  0
 85 86  1  0
 85 84  1  0
M  ISO  4   8 100   9 100  45 101  46 101
M  END
>  <TORSDO>  (15) 
F 19

>  <SCORE>  (15) 
-16.177

>  <name>  (15) 
15

>  <ligand_id>  (15) 
15

>  <original_smiles>  (15) 
[H]c1c([H])c([H])c2c(c1[H])C([H])([H])C([H])([H])C([H])([H])C2([H])N([H])C(=O)C1([H])N(C(=O)C([H])(N([H])C(=O)C([H])(N([H])C([H])([H])[H])C([H])([H])[H])C(C([H])([H])[H])(C([H])([H])[H])C([H])([H])[H])C([H])([H])c2c([H])c(OC([H])([H])c3c([H])c([H])c(C([H])([H])C([H])([H])C(=O)N4C([H])([H])C([H])([H])C([H])([H])C([H])(n5nc(-c6c([H])c([H])c(Oc7c([H])c([H])c(F)c([H])c7F)c([H])c6[H])c(C(=O)N([H])[H])c5N([H])[H])C4([H])[H])c([H])c3[H])c([H])c([H])c2C1([H])[H]

>  <smiles>  (15) 
[H]c1c([H])c([H])c2c(c1[H])C([H])([H])C([H])([H])C([H])([H])C2([H])N([H])C(=O)C1([H])N(C(=O)C([H])(N([H])C(=O)C([H])(N([H])C([H])([H])[H])C([H])([H])[H])C(C([H])([H])[H])(C([H])([H])[H])C([H])([H])[H])C([H])([H])c2c([H])c(OC([H])([H])c3c([H])c([H])c(C([H])([H])C([H])([H])C(=O)N4C([H])([H])C([H])([H])C([H])([H])C([H])(n5nc(-c6c([H])c([H])c(Oc7c([H])c([H])c(F)c([H])c7F)c([H])c6[H])c(C(=O)N([H])[H])c5N([H])[H])C4([H])[H])c([H])c3[H])c([H])c([H])c2C1([H])[H]

$$$$
16:0:0
     RDKit          3D

 97105  0  0  1  0  0  0  0  0999 V2000
  -28.7710  -20.9720   20.9940 C   0  0  0  0  0  3  0  0  0  0  0  0
  -28.8390  -21.2240   22.3890 O   0  0  0  0  0  0  0  0  0  0  0  0
  -28.4070  -20.5100   22.8490 H   0  0  0  0  0  0  0  0  0  0  0  0
  -29.1080  -22.2890   20.1560 C   0  0  0  0  0  2  0  0  0  0  0  0
  -27.3570  -25.2340   21.9900 C   0  0  0  0  0  3  0  0  0  0  0  0
  -27.8740  -23.9630   21.7010 C   0  0  0  0  0  3  0  0  0  0  0  0
  -27.3230  -26.2260   21.0020 C   0  0  0  0  0  3  0  0  0  0  0  0
  -28.2830  -24.6600   19.4060 C   0  0  0  0  0  3  0  0  0  0  0  0
  -28.3630  -23.6400   20.4140 C   0  0  0  0  0  0  0  0  0  0  0  0
  -27.7590  -25.9650   19.6800 C   0  0  0  0  0  0  0  0  0  0  0  0
  -27.6690  -26.9700   18.7060 O   0  0  0  0  0  0  0  0  0  0  0  0
  -24.4530  -31.7290   22.9070 C   0  0  0  0  0  0  0  0  0  0  0  0
  -26.6040  -27.8460   18.8370 C   0  0  0  0  0  0  0  0  0  0  0  0
  -23.0310  -30.6220   21.2160 C   0  0  0  0  0  3  0  0  0  0  0  0
  -24.2710  -29.3600   19.3750 C   0  0  0  0  0  0  0  0  0  0  0  0
  -25.5220  -31.0160   20.7670 C   0  0  0  0  0  2  0  0  0  0  0  0
  -25.5060  -29.7730   19.8950 C   0  0  0  0  0  0  0  0  0  0  0  0
  -26.6790  -29.0240   19.6240 C   0  0  0  0  0  3  0  0  0  0  0  0
  -25.3610  -27.4750   18.2870 C   0  0  0  0  0  3  0  0  0  0  0  0
  -24.1960  -28.2150   18.5640 C   0  0  0  0  0  3  0  0  0  0  0  0
  -23.0550  -30.1890   19.7260 C   0  0  0  0  0  2  0  0  0  0  0  0
  -24.3610  -31.1260   21.6870 N   0  0  0  0  0  0  0  0  0  0  0  0
  -23.4530  -31.9060   23.6150 O   0  0  0  0  0  0  0  0  0  0  0  0
  -22.4810  -29.4540   22.0650 C   0  0  0  0  0  0  0  0  0  0  0  0
  -21.1520  -29.2630   22.0300 N   0  0  0  0  0  0  0  0  0  0  0  0
  -23.2430  -28.7330   22.7150 O   0  0  0  0  0  0  0  0  0  0  0  0
  -20.5970  -29.8990   21.4750 H   0  0  0  0  0  0  0  0  0  0  0  0
  -17.8490  -27.9170   22.6170 C   0  0  0  0  0  0  0  0  0  0  0  0
  -20.4160  -28.2020   22.7190 C   0  0  0  0  0  3  0  0  0  0  0  0
  -20.4920  -26.8720   21.9330 C   0  0  0  0  0  2  0  0  0  0  0  0
  -19.3150  -26.6720   20.9720 C   0  0  0  0  0  2  0  0  0  0  0  0
  -17.9880  -26.6840   21.7400 C   0  0  0  0  0  2  0  0  0  0  0  0
  -18.9880  -28.6400   23.0630 C   0  0  0  0  0  0  0  0  0  0  0  0
  -18.8010  -29.7970   23.8480 C   0  0  0  0  0  3  0  0  0  0  0  0
  -17.5070  -30.2340   24.1900 C   0  0  0  0  0  3  0  0  0  0  0  0
  -16.3830  -29.5080   23.7580 C   0  0  0  0  0  3  0  0  0  0  0  0
  -16.5560  -28.3510   22.9760 C   0  0  0  0  0  3  0  0  0  0  0  0
  -25.8190  -32.2470   23.4580 C   0  0  0  0  0  3  0  0  0  0  0  0
  -26.4640  -31.2760   24.5230 C   0  0  1  0  0  0  0  0  0  0  0  0
  -25.5040  -30.8820   25.6680 C   0  0  0  0  0  1  0  0  0  0  0  0
  -26.9480  -29.9690   23.8500 C   0  0  0  0  0  1  0  0  0  0  0  0
  -27.7110  -31.9370   25.1550 C   0  0  0  0  0  1  0  0  0  0  0  0
  -25.5850  -33.5770   24.0360 N   0  0  0  0  0  0  0  0  0  0  0  0
  -25.8860  -34.7340   23.4280 C   0  0  0  0  0  0  0  0  0  0  0  0
  -26.4640  -34.7870   22.3380 O   0  0  0  0  0  0  0  0  0  0  0  0
  -25.0610  -33.6070   24.8990 H   0  0  0  0  0  0  0  0  0  0  0  0
  -24.1950  -36.5930   23.5130 C   0  0  0  0  0  1  0  0  0  0  0  0
  -25.4830  -36.0370   24.1420 C   0  0  0  0  0  3  0  0  0  0  0  0
  -27.7030  -36.7380   24.9270 C   0  0  0  0  0  1  0  0  0  0  0  0
  -26.5370  -37.0740   24.1120 N   0  0  0  0  0  0  0  0  0  0  0  0
  -26.1740  -37.9650   24.4360 H   0  0  0  0  0  0  0  0  0  0  0  0
  -29.6950  -19.6830   20.8190 C   0  0  0  0  0  3  0  0  0  0  0  0
  -29.3650  -18.8500   19.6190 N   0  0  0  0  0  4  0  0  0  0  0  0
  -28.3780  -18.6450   19.6420 H   0  0  0  0  0  0  0  0  0  0  0  0
  -29.5090  -19.4340   18.8100 H   0  0  0  0  0  0  0  0  0  0  0  0
  -30.1170  -17.5670   19.3570 C   0  0  0  0  0  2  0  0  0  0  0  0
  -29.7760  -16.2880   20.2070 C   0  0  0  0  0  2  0  0  0  0  0  0
  -30.5630  -15.0130   19.7490 C   0  0  0  0  0  0  0  0  0  0  0  0
  -30.4130  -12.6720   18.9460 C   0  0  0  0  0  2  0  0  0  0  0  0
  -29.3980  -12.6230   17.7860 C   0  0  0  0  0  2  0  0  0  0  0  0
  -27.9630  -12.4390   18.3190 C   0  0  0  0  0  2  0  0  0  0  0  0
  -27.6200  -13.4030   19.4880 C   0  0  0  0  0  3  0  0  0  0  0  0
  -28.7550  -13.4510   20.5370 C   0  0  0  0  0  2  0  0  0  0  0  0
  -30.0060  -13.7700   19.8410 N   0  0  0  0  0  0  0  0  0  0  0  0
  -31.6480  -15.1790   19.1880 O   0  0  0  0  0  0  0  0  0  0  0  0
  -25.3240  -13.9330   20.5180 C   0  0  0  0  0  0  0  0  0  0  0  0
  -24.3060  -13.1280   20.9550 C   0  0  0  0  0  0  0  0  0  0  0  0
  -24.7600  -11.7860   20.7700 C   0  0  0  0  0  0  0  0  0  0  0  0
  -26.3320  -13.0790   20.0990 N   0  0  0  0  0  0  0  0  0  0  0  0
  -26.0040  -11.7780   20.3100 N   0  0  0  0  0  0  0  0  0  0  0  0
  -24.0580  -10.5080   20.9510 C   0  0  0  0  0  0  0  0  0  0  0  0
  -24.5020   -9.5480   21.8860 C   0  0  0  0  0  3  0  0  0  0  0  0
  -23.8000   -8.3370   22.0570 C   0  0  0  0  0  3  0  0  0  0  0  0
  -22.6400   -8.0740   21.2900 C   0  0  0  0  0  0  0  0  0  0  0  0
  -22.2130   -9.0240   20.3450 C   0  0  0  0  0  3  0  0  0  0  0  0
  -22.9170  -10.2290   20.1730 C   0  0  0  0  0  3  0  0  0  0  0  0
  -21.9070   -6.9150   21.3710 O   0  0  0  0  0  0  0  0  0  0  0  0
  -21.7490   -6.2430   22.5550 C   0  0  0  0  0  0  0  0  0  0  0  0
  -21.1360   -6.8450   23.6770 C   0  0  0  0  0  3  0  0  0  0  0  0
  -20.9330   -6.0950   24.8530 C   0  0  0  0  0  3  0  0  0  0  0  0
  -21.3300   -4.7460   24.9070 C   0  0  0  0  0  0  0  0  0  0  0  0
  -21.9340   -4.1440   23.7890 C   0  0  0  0  0  3  0  0  0  0  0  0
  -22.1420   -4.8910   22.6170 C   0  0  0  0  0  0  0  0  0  0  0  0
  -22.7060   -4.3010   21.5360 F   0  0  0  0  0  0  0  0  0  0  0  0
  -21.1290   -4.0230   26.0340 F   0  0  0  0  0  0  0  0  0  0  0  0
  -22.9510  -13.5740   21.4230 C   0  0  0  0  0  0  0  0  0  0  0  0
  -22.3300  -12.8170   22.3220 N   0  0  0  0  0  0  0  0  0  0  0  0
  -22.4530  -14.6270   21.0260 O   0  0  0  0  0  0  0  0  0  0  0  0
  -22.7420  -11.9620   22.6650 H   0  0  0  0  0  0  0  0  0  0  0  0
  -21.4250  -13.0960   22.6750 H   0  0  0  0  0  0  0  0  0  0  0  0
  -25.4690  -15.3140   20.4210 N   0  0  0  0  0  0  0  0  0  0  0  0
  -24.7190  -15.9520   20.6650 H   0  0  0  0  0  0  0  0  0  0  0  0
  -26.2670  -15.7800   20.0110 H   0  0  0  0  0  0  0  0  0  0  0  0
  -31.2220  -19.9920   20.9880 C   0  0  0  0  0  2  0  0  0  0  0  0
  -32.3430  -19.2080   23.1450 C   0  0  0  0  0  1  0  0  0  0  0  0
  -32.5580  -21.6280   22.4490 C   0  0  0  0  0  1  0  0  0  0  0  0
  -31.6550  -20.3830   22.4300 C   0  0  0  0  0  3  0  0  0  0  0  0
  1  4  1  0
  1  2  1  0
  2  3  1  0
  4  9  1  0
  6  5  1  0
  7  5  2  0
  8 10  2  0
  8  9  1  0
  9  6  2  0
 10  7  1  0
 11 13  1  0
 11 10  1  0
 12 23  2  0
 13 18  1  0
 14 22  1  0
 14 24  1  0
 15 21  1  0
 15 17  1  0
 16 22  1  0
 17 16  1  0
 18 17  2  0
 19 20  1  0
 19 13  2  0
 20 15  2  0
 21 14  1  0
 22 12  1  0
 24 26  2  0
 25 24  1  0
 27 25  1  0
 28 37  2  0
 28 33  1  0
 29 25  1  0
 29 33  1  0
 30 29  1  0
 31 32  1  0
 31 30  1  0
 32 28  1  0
 33 34  2  0
 34 35  1  0
 36 35  2  0
 37 36  1  0
 38 12  1  0
 38 43  1  0
 38 39  1  0
 39 42  1  1
 39 40  1  0
 41 39  1  0
 43 46  1  0
 44 43  1  0
 44 48  1  0
 45 44  2  0
 48 47  1  0
 50 48  1  0
 50 51  1  0
 50 49  1  0
 52 94  1  0
 52  1  1  0
 53 54  1  0
 53 52  1  0
 55 53  1  0
 56 53  1  0
 56 57  1  0
 58 64  1  0
 58 57  1  0
 59 64  1  0
 60 61  1  0
 60 59  1  0
 62 61  1  0
 62 69  1  0
 62 63  1  0
 64 63  1  0
 65 58  2  0
 66 67  2  0
 67 86  1  0
 68 71  1  0
 68 67  1  0
 69 70  1  0
 69 66  1  0
 70 68  2  0
 71 72  1  0
 72 73  2  0
 74 77  1  0
 74 73  1  0
 75 74  2  0
 76 75  1  0
 76 71  2  0
 77 78  1  0
 78 83  2  0
 78 79  1  0
 79 80  2  0
 80 81  1  0
 81 85  1  0
 82 81  2  0
 83 82  1  0
 84 83  1  0
 86 87  1  0
 87 89  1  0
 87 90  1  0
 88 86  2  0
 91 66  1  0
 91 92  1  0
 93 91  1  0
 94 97  1  0
 97 96  1  0
 97 95  1  0
M  ISO  4  10 101  11 101  57 100  58 100
M  END
>  <TORSDO>  (16) 
F 25

>  <SCORE>  (16) 
-10.117

>  <name>  (16) 
16

>  <ligand_id>  (16) 
16

>  <original_smiles>  (16) 
[H]OC([H])(C([H])([H])c1c([H])c([H])c([H])c(Oc2c([H])c([H])c3c(c2[H])C([H])([H])N(C(=O)C([H])(N([H])C(=O)C([H])(N([H])C([H])([H])[H])C([H])([H])[H])C(C([H])([H])[H])(C([H])([H])[H])C([H])([H])[H])C([H])(C(=O)N([H])C2([H])c4c([H])c([H])c([H])c([H])c4C([H])([H])C([H])([H])C2([H])[H])C3([H])[H])c1[H])C([H])(C([H])([H])C([H])(C([H])([H])[H])C([H])([H])[H])[N+]([H])([H])C([H])([H])C([H])([H])C(=O)N1C([H])([H])C([H])([H])C([H])([H])C([H])(n2nc(-c3c([H])c([H])c(Oc4c([H])c([H])c(F)c([H])c4F)c([H])c3[H])c(C(=O)N([H])[H])c2N([H])[H])C1([H])[H]

>  <smiles>  (16) 
[H]OC([H])(C([H])([H])c1c([H])c([H])c([H])c(Oc2c([H])c([H])c3c(c2[H])C([H])([H])N(C(=O)C([H])(N([H])C(=O)C([H])(N([H])C([H])([H])[H])C([H])([H])[H])C(C([H])([H])[H])(C([H])([H])[H])C([H])([H])[H])C([H])(C(=O)N([H])C2([H])c4c([H])c([H])c([H])c([H])c4C([H])([H])C([H])([H])C2([H])[H])C3([H])[H])c1[H])C([H])(C([H])([H])C([H])(C([H])([H])[H])C([H])([H])[H])[N+]([H])([H])C([H])([H])C([H])([H])C(=O)N1C([H])([H])C([H])([H])C([H])([H])C([H])(n2nc(-c3c([H])c([H])c(Oc4c([H])c([H])c(F)c([H])c4F)c([H])c3[H])c(C(=O)N([H])[H])c2N([H])[H])C1([H])[H]

$$$$
17:0:0
     RDKit          3D

 91 99  0  0  1  0  0  0  0  0999 V2000
  -29.0160  -23.0220   19.1970 C   0  0  0  0  0  3  0  0  0  0  0  0
  -29.0540  -23.2590   21.5900 C   0  0  0  0  0  3  0  0  0  0  0  0
  -28.6400  -24.3910   19.0640 C   0  0  0  0  0  3  0  0  0  0  0  0
  -28.6860  -24.6350   21.4560 C   0  0  0  0  0  3  0  0  0  0  0  0
  -29.2670  -22.4220   20.4600 C   0  0  0  0  0  0  0  0  0  0  0  0
  -28.4980  -25.2450   20.1860 C   0  0  0  0  0  0  0  0  0  0  0  0
  -31.3640  -21.4060   20.7790 C   0  0  0  0  0  1  0  0  0  0  0  0
  -29.9470  -21.1560   20.5300 N   0  0  0  0  0  0  0  0  0  0  0  0
  -29.3930  -19.8830   21.1040 C   0  0  0  0  0  2  0  0  0  0  0  0
  -30.1900  -18.5550   20.6890 C   0  0  0  0  0  2  0  0  0  0  0  0
  -29.6930  -17.1070   21.1760 C   0  0  0  0  0  2  0  0  0  0  0  0
  -30.8120  -14.7680   20.7990 C   0  0  0  0  0  0  0  0  0  0  0  0
  -30.6600  -12.4530   19.9130 C   0  0  0  0  0  2  0  0  0  0  0  0
  -29.8200  -12.4280   18.6180 C   0  0  0  0  0  2  0  0  0  0  0  0
  -28.3100  -12.3480   18.9320 C   0  0  0  0  0  2  0  0  0  0  0  0
  -27.8460  -13.2980   20.0690 C   0  0  0  0  0  3  0  0  0  0  0  0
  -28.8200  -13.2750   21.2630 C   0  0  0  0  0  2  0  0  0  0  0  0
  -30.1590  -13.5640   20.7400 N   0  0  0  0  0  0  0  0  0  0  0  0
  -32.0440  -14.8080   20.7690 O   0  0  0  0  0  0  0  0  0  0  0  0
  -30.0970  -15.8820   20.3770 N   0  0  0  0  0  0  0  0  0  0  0  0
  -25.4150  -13.9280   20.6000 C   0  0  0  0  0  0  0  0  0  0  0  0
  -24.3170  -13.1710   20.9050 C   0  0  0  0  0  0  0  0  0  0  0  0
  -24.7700  -11.8170   20.9500 C   0  0  0  0  0  0  0  0  0  0  0  0
  -26.4680  -13.0350   20.4720 N   0  0  0  0  0  0  0  0  0  0  0  0
  -26.0810  -11.7630   20.7500 N   0  0  0  0  0  0  0  0  0  0  0  0
  -24.0220  -10.5640   21.1170 C   0  0  0  0  0  0  0  0  0  0  0  0
  -24.3970   -9.6030   22.0820 C   0  0  0  0  0  3  0  0  0  0  0  0
  -23.6510   -8.4150   22.2360 C   0  0  0  0  0  3  0  0  0  0  0  0
  -22.5150   -8.1790   21.4250 C   0  0  0  0  0  0  0  0  0  0  0  0
  -22.1610   -9.1280   20.4510 C   0  0  0  0  0  3  0  0  0  0  0  0
  -22.9080  -10.3070   20.2930 C   0  0  0  0  0  3  0  0  0  0  0  0
  -21.7480   -7.0410   21.4880 O   0  0  0  0  0  0  0  0  0  0  0  0
  -21.6550   -6.2990   22.6390 C   0  0  0  0  0  0  0  0  0  0  0  0
  -21.2210   -6.8640   23.8570 C   0  0  0  0  0  3  0  0  0  0  0  0
  -21.0680   -6.0500   24.9970 C   0  0  0  0  0  3  0  0  0  0  0  0
  -21.3450   -4.6720   24.9210 C   0  0  0  0  0  0  0  0  0  0  0  0
  -21.7770   -4.1060   23.7090 C   0  0  0  0  0  3  0  0  0  0  0  0
  -21.9280   -4.9170   22.5700 C   0  0  0  0  0  0  0  0  0  0  0  0
  -22.3210   -4.3630   21.3980 F   0  0  0  0  0  0  0  0  0  0  0  0
  -21.1920   -3.8880   26.0140 F   0  0  0  0  0  0  0  0  0  0  0  0
  -22.9040  -13.6630   21.0480 C   0  0  0  0  0  0  0  0  0  0  0  0
  -22.1070  -13.0040   21.8820 N   0  0  0  0  0  0  0  0  0  0  0  0
  -22.5140  -14.6670   20.4540 O   0  0  0  0  0  0  0  0  0  0  0  0
  -22.4350  -12.1970   22.3920 H   0  0  0  0  0  0  0  0  0  0  0  0
  -21.1560  -13.3150   22.0200 H   0  0  0  0  0  0  0  0  0  0  0  0
  -25.6050  -15.2920   20.3970 N   0  0  0  0  0  0  0  0  0  0  0  0
  -24.8430  -15.9600   20.4320 H   0  0  0  0  0  0  0  0  0  0  0  0
  -26.4880  -15.7130   20.1350 H   0  0  0  0  0  0  0  0  0  0  0  0
  -31.2820  -16.3300   18.1800 C   0  0  0  0  0  1  0  0  0  0  0  0
  -29.9500  -16.1040   18.9230 C   0  0  0  0  0  2  0  0  0  0  0  0
  -28.4070  -26.6410   20.0330 O   0  0  0  0  0  0  0  0  0  0  0  0
  -24.6100  -31.8910   23.1530 C   0  0  0  0  0  0  0  0  0  0  0  0
  -27.2220  -27.3750   20.0740 C   0  0  0  0  0  0  0  0  0  0  0  0
  -23.3910  -30.4810   21.5260 C   0  0  0  0  0  3  0  0  0  0  0  0
  -24.8300  -28.9270   20.0930 C   0  0  0  0  0  0  0  0  0  0  0  0
  -25.9170  -30.8240   21.3060 C   0  0  0  0  0  2  0  0  0  0  0  0
  -25.9960  -29.4430   20.6720 C   0  0  0  0  0  0  0  0  0  0  0  0
  -27.1910  -28.6740   20.6560 C   0  0  0  0  0  3  0  0  0  0  0  0
  -26.0370  -26.8920   19.4780 C   0  0  0  0  0  3  0  0  0  0  0  0
  -24.8500  -27.6540   19.4920 C   0  0  0  0  0  3  0  0  0  0  0  0
  -23.5890  -29.7950   20.1470 C   0  0  0  0  0  2  0  0  0  0  0  0
  -24.6580  -31.0840   22.0520 N   0  0  0  0  0  0  0  0  0  0  0  0
  -23.5360  -32.1620   23.7060 O   0  0  0  0  0  0  0  0  0  0  0  0
  -22.7480  -29.4660   22.5010 C   0  0  0  0  0  0  0  0  0  0  0  0
  -21.4200  -29.2910   22.4000 N   0  0  0  0  0  0  0  0  0  0  0  0
  -23.4430  -28.8380   23.3030 O   0  0  0  0  0  0  0  0  0  0  0  0
  -20.9180  -29.8480   21.7240 H   0  0  0  0  0  0  0  0  0  0  0  0
  -18.0540  -28.0920   22.9540 C   0  0  0  0  0  0  0  0  0  0  0  0
  -20.6160  -28.3530   23.1850 C   0  0  0  0  0  3  0  0  0  0  0  0
  -20.7110  -26.9210   22.6080 C   0  0  0  0  0  2  0  0  0  0  0  0
  -19.5920  -26.5970   21.6110 C   0  0  0  0  0  2  0  0  0  0  0  0
  -18.2220  -26.7420   22.2770 C   0  0  0  0  0  2  0  0  0  0  0  0
  -19.1800  -28.8550   23.3670 C   0  0  0  0  0  0  0  0  0  0  0  0
  -18.9690  -30.1170   23.9610 C   0  0  0  0  0  3  0  0  0  0  0  0
  -17.6670  -30.6190   24.1470 C   0  0  0  0  0  3  0  0  0  0  0  0
  -16.5570  -29.8520   23.7520 C   0  0  0  0  0  3  0  0  0  0  0  0
  -16.7510  -28.5910   23.1610 C   0  0  0  0  0  3  0  0  0  0  0  0
  -25.9010  -32.5290   23.7560 C   0  0  0  0  0  3  0  0  0  0  0  0
  -25.5820  -33.9160   24.1240 N   0  0  0  0  0  0  0  0  0  0  0  0
  -25.8910  -34.9900   23.3850 C   0  0  0  0  0  0  0  0  0  0  0  0
  -26.5450  -34.9160   22.3400 O   0  0  0  0  0  0  0  0  0  0  0  0
  -25.0010  -34.0450   24.9400 H   0  0  0  0  0  0  0  0  0  0  0  0
  -24.1420  -36.7710   23.0920 C   0  0  0  0  0  1  0  0  0  0  0  0
  -25.3970  -36.3620   23.8800 C   0  0  0  0  0  3  0  0  0  0  0  0
  -27.5370  -37.2440   24.6990 C   0  0  0  0  0  1  0  0  0  0  0  0
  -26.4180  -37.4280   23.7770 N   0  0  0  0  0  0  0  0  0  0  0  0
  -26.0080  -38.3400   23.9550 H   0  0  0  0  0  0  0  0  0  0  0  0
  -26.4620  -31.7400   25.0040 C   0  0  1  0  0  0  0  0  0  0  0  0
  -25.4010  -31.4710   26.0970 C   0  0  0  0  0  1  0  0  0  0  0  0
  -27.0520  -30.3780   24.5710 C   0  0  0  0  0  1  0  0  0  0  0  0
  -27.6210  -32.5360   25.6490 C   0  0  0  0  0  1  0  0  0  0  0  0
  1  5  1  0
  3  1  2  0
  3  6  1  0
  4  2  1  0
  5  8  1  0
  5  2  2  0
  6  4  2  0
  8  7  1  0
  8  9  1  0
 10  9  1  0
 10 11  1  0
 13 18  1  0
 14 15  1  0
 14 13  1  0
 16 15  1  0
 16 24  1  0
 16 17  1  0
 18 12  1  0
 18 17  1  0
 19 12  2  0
 20 12  1  0
 20 11  1  0
 21 22  2  0
 22 23  1  0
 22 41  1  0
 23 26  1  0
 24 21  1  0
 24 25  1  0
 25 23  2  0
 26 27  1  0
 27 28  2  0
 29 32  1  0
 29 28  1  0
 30 29  2  0
 31 30  1  0
 31 26  2  0
 32 33  1  0
 33 34  1  0
 34 35  2  0
 36 35  1  0
 36 40  1  0
 37 36  2  0
 38 33  2  0
 38 37  1  0
 39 38  1  0
 41 42  1  0
 42 45  1  0
 42 44  1  0
 43 41  2  0
 46 47  1  0
 46 21  1  0
 48 46  1  0
 49 50  1  0
 50 20  1  0
 51 53  1  0
 51  6  1  0
 52 63  2  0
 53 58  1  0
 54 62  1  0
 54 64  1  0
 55 61  1  0
 55 57  1  0
 56 62  1  0
 57 56  1  0
 58 57  2  0
 59 60  1  0
 59 53  2  0
 60 55  2  0
 61 54  1  0
 62 52  1  0
 64 66  2  0
 65 64  1  0
 67 65  1  0
 68 77  2  0
 68 73  1  0
 69 65  1  0
 69 73  1  0
 70 69  1  0
 71 72  1  0
 71 70  1  0
 72 68  1  0
 73 74  2  0
 74 75  1  0
 76 75  2  0
 77 76  1  0
 78 52  1  0
 78 79  1  0
 78 88  1  0
 79 82  1  0
 80 84  1  0
 80 79  1  0
 81 80  2  0
 84 83  1  0
 86 84  1  0
 86 87  1  0
 86 85  1  0
 88 91  1  1
 88 89  1  0
 90 88  1  0
M  ISO  4   6 101  12 100  20 100  51 101
M  END
>  <TORSDO>  (17) 
F 21

>  <SCORE>  (17) 
-13.118

>  <name>  (17) 
17

>  <ligand_id>  (17) 
17

>  <original_smiles>  (17) 
[H]c1c([H])c([H])c2c(c1[H])C([H])([H])C([H])([H])C([H])([H])C2([H])N([H])C(=O)C1([H])N(C(=O)C([H])(N([H])C(=O)C([H])(N([H])C([H])([H])[H])C([H])([H])[H])C(C([H])([H])[H])(C([H])([H])[H])C([H])([H])[H])C([H])([H])c2c([H])c(Oc3c([H])c([H])c(N(C([H])([H])[H])C([H])([H])C([H])([H])C([H])([H])N(C(=O)N4C([H])([H])C([H])([H])C([H])([H])C([H])(n5nc(-c6c([H])c([H])c(Oc7c([H])c([H])c(F)c([H])c7F)c([H])c6[H])c(C(=O)N([H])[H])c5N([H])[H])C4([H])[H])C([H])([H])C([H])([H])[H])c([H])c3[H])c([H])c([H])c2C1([H])[H]

>  <smiles>  (17) 
[H]c1c([H])c([H])c2c(c1[H])C([H])([H])C([H])([H])C([H])([H])C2([H])N([H])C(=O)C1([H])N(C(=O)C([H])(N([H])C(=O)C([H])(N([H])C([H])([H])[H])C([H])([H])[H])C(C([H])([H])[H])(C([H])([H])[H])C([H])([H])[H])C([H])([H])c2c([H])c(Oc3c([H])c([H])c(N(C([H])([H])[H])C([H])([H])C([H])([H])C([H])([H])N(C(=O)N4C([H])([H])C([H])([H])C([H])([H])C([H])(n5nc(-c6c([H])c([H])c(Oc7c([H])c([H])c(F)c([H])c7F)c([H])c6[H])c(C(=O)N([H])[H])c5N([H])[H])C4([H])[H])C([H])([H])C([H])([H])[H])c([H])c3[H])c([H])c([H])c2C1([H])[H]

$$$$
18:0:0
     RDKit          3D

 90 97  0  0  1  0  0  0  0  0999 V2000
  -28.7330  -21.2480   20.3540 N   0  0  0  0  0  4  0  0  0  0  0  0
  -27.7560  -21.1080   20.1600 H   0  0  0  0  0  0  0  0  0  0  0  0
  -28.8200  -21.1920   21.3560 H   0  0  0  0  0  0  0  0  0  0  0  0
  -29.0210  -22.8560   20.0090 C   0  0  0  0  0  3  0  0  0  0  0  0
  -27.9950  -24.3050   20.2610 C   0  0  0  0  0  3  0  0  0  0  0  0
  -28.2470  -25.9350   20.2460 O   0  0  0  0  0  0  0  0  0  0  0  0
  -24.6380  -31.9010   23.1840 C   0  0  0  0  0  0  0  0  0  0  0  0
  -27.2210  -27.0100   20.2200 C   0  0  0  0  0  0  0  0  0  0  0  0
  -23.4570  -30.4830   21.5560 C   0  0  0  0  0  3  0  0  0  0  0  0
  -24.9130  -28.8660   20.1690 C   0  0  0  0  0  0  0  0  0  0  0  0
  -26.0230  -30.7010   21.4190 C   0  0  0  0  0  2  0  0  0  0  0  0
  -26.0970  -29.2830   20.7860 C   0  0  0  0  0  0  0  0  0  0  0  0
  -27.2470  -28.3730   20.7930 C   0  0  0  0  0  3  0  0  0  0  0  0
  -26.0040  -26.7410   19.5560 C   0  0  0  0  0  3  0  0  0  0  0  0
  -24.8860  -27.6100   19.5430 C   0  0  0  0  0  3  0  0  0  0  0  0
  -23.6970  -29.7830   20.1900 C   0  0  0  0  0  2  0  0  0  0  0  0
  -24.7280  -31.0580   22.1060 N   0  0  0  0  0  0  0  0  0  0  0  0
  -23.5460  -32.1910   23.6990 O   0  0  0  0  0  0  0  0  0  0  0  0
  -22.7640  -29.4940   22.5300 C   0  0  0  0  0  0  0  0  0  0  0  0
  -21.4320  -29.3360   22.4140 N   0  0  0  0  0  0  0  0  0  0  0  0
  -23.4320  -28.8690   23.3590 O   0  0  0  0  0  0  0  0  0  0  0  0
  -20.9470  -29.8880   21.7210 H   0  0  0  0  0  0  0  0  0  0  0  0
  -18.0480  -28.1520   22.9530 C   0  0  0  0  0  0  0  0  0  0  0  0
  -20.6120  -28.4070   23.1960 C   0  0  0  0  0  3  0  0  0  0  0  0
  -20.7020  -26.9710   22.6270 C   0  0  0  0  0  2  0  0  0  0  0  0
  -19.5920  -26.6480   21.6230 C   0  0  0  0  0  2  0  0  0  0  0  0
  -18.2150  -26.8010   22.2770 C   0  0  0  0  0  2  0  0  0  0  0  0
  -19.1740  -28.9130   23.3700 C   0  0  0  0  0  0  0  0  0  0  0  0
  -18.9620  -30.1750   23.9670 C   0  0  0  0  0  3  0  0  0  0  0  0
  -17.6600  -30.6760   24.1480 C   0  0  0  0  0  3  0  0  0  0  0  0
  -16.5500  -29.9140   23.7440 C   0  0  0  0  0  3  0  0  0  0  0  0
  -16.7450  -28.6540   23.1510 C   0  0  0  0  0  3  0  0  0  0  0  0
  -25.9050  -32.5570   23.8150 C   0  0  0  0  0  3  0  0  0  0  0  0
  -26.4140  -31.8050   25.1090 C   0  0  1  0  0  0  0  0  0  0  0  0
  -25.3110  -31.5800   26.1710 C   0  0  0  0  0  1  0  0  0  0  0  0
  -27.0040  -30.4220   24.7470 C   0  0  0  0  0  1  0  0  0  0  0  0
  -27.5520  -32.6130   25.7740 C   0  0  0  0  0  1  0  0  0  0  0  0
  -25.5760  -33.9540   24.1410 N   0  0  0  0  0  0  0  0  0  0  0  0
  -25.9070  -35.0170   23.3940 C   0  0  0  0  0  0  0  0  0  0  0  0
  -26.5860  -34.9230   22.3680 O   0  0  0  0  0  0  0  0  0  0  0  0
  -24.9760  -34.1010   24.9390 H   0  0  0  0  0  0  0  0  0  0  0  0
  -24.1760  -36.8150   23.0360 C   0  0  0  0  0  1  0  0  0  0  0  0
  -25.4110  -36.4020   23.8560 C   0  0  0  0  0  3  0  0  0  0  0  0
  -27.5310  -37.2960   24.7190 C   0  0  0  0  0  1  0  0  0  0  0  0
  -26.4390  -37.4610   23.7640 N   0  0  0  0  0  0  0  0  0  0  0  0
  -26.0250  -38.3770   23.9110 H   0  0  0  0  0  0  0  0  0  0  0  0
  -29.4790  -19.8760   19.7700 C   0  0  0  0  0  3  0  0  0  0  0  0
  -30.1510  -19.1860   17.3300 C   0  0  0  0  0  1  0  0  0  0  0  0
  -29.1050  -19.8550   18.2410 C   0  0  0  0  0  3  0  0  0  0  0  0
  -27.2000  -19.2690   16.5240 C   0  0  0  0  0  1  0  0  0  0  0  0
  -27.6780  -19.2930   17.9880 C   0  0  0  0  0  2  0  0  0  0  0  0
  -29.4460  -18.1610   20.4130 C   0  0  0  0  0  2  0  0  0  0  0  0
  -30.6270  -15.3530   20.3510 C   0  0  0  0  0  0  0  0  0  0  0  0
  -30.4590  -12.9420   19.4200 C   0  0  0  0  0  2  0  0  0  0  0  0
  -29.5680  -12.6580   18.1940 C   0  0  0  0  0  2  0  0  0  0  0  0
  -28.1170  -12.3980   18.6200 C   0  0  0  0  0  2  0  0  0  0  0  0
  -27.6450  -13.3840   19.7230 C   0  0  0  0  0  3  0  0  0  0  0  0
  -28.6950  -13.6300   20.8320 C   0  0  0  0  0  2  0  0  0  0  0  0
  -29.8930  -14.1490   20.1380 N   0  0  0  0  0  0  0  0  0  0  0  0
  -31.8290  -15.0520   20.4290 O   0  0  0  0  0  0  0  0  0  0  0  0
  -31.5560  -17.3850   19.4190 C   0  0  0  0  0  1  0  0  0  0  0  0
  -30.3130  -16.7910   19.9750 N   0  0  0  0  0  0  0  0  0  0  0  0
  -25.2650  -13.9140   20.4490 C   0  0  0  0  0  0  0  0  0  0  0  0
  -24.2040  -13.1260   20.8040 C   0  0  0  0  0  0  0  0  0  0  0  0
  -24.6910  -11.7830   20.8040 C   0  0  0  0  0  0  0  0  0  0  0  0
  -26.3220  -13.0510   20.2380 N   0  0  0  0  0  0  0  0  0  0  0  0
  -25.9900  -11.7640   20.5230 N   0  0  0  0  0  0  0  0  0  0  0  0
  -23.9750  -10.5100   20.9940 C   0  0  0  0  0  0  0  0  0  0  0  0
  -24.3940   -9.5620   21.9540 C   0  0  0  0  0  3  0  0  0  0  0  0
  -23.6750   -8.3590   22.1340 C   0  0  0  0  0  3  0  0  0  0  0  0
  -22.5220   -8.0980   21.3560 C   0  0  0  0  0  0  0  0  0  0  0  0
  -22.1240   -9.0350   20.3840 C   0  0  0  0  0  3  0  0  0  0  0  0
  -22.8450  -10.2270   20.2000 C   0  0  0  0  0  3  0  0  0  0  0  0
  -21.7760   -6.9470   21.4450 O   0  0  0  0  0  0  0  0  0  0  0  0
  -21.7040   -6.2200   22.6070 C   0  0  0  0  0  0  0  0  0  0  0  0
  -21.2510   -6.7900   23.8160 C   0  0  0  0  0  3  0  0  0  0  0  0
  -21.1290   -5.9890   24.9710 C   0  0  0  0  0  3  0  0  0  0  0  0
  -21.4530   -4.6220   24.9160 C   0  0  0  0  0  0  0  0  0  0  0  0
  -21.9020   -4.0510   23.7130 C   0  0  0  0  0  3  0  0  0  0  0  0
  -22.0250   -4.8480   22.5610 C   0  0  0  0  0  0  0  0  0  0  0  0
  -22.4350   -4.2870   21.3980 F   0  0  0  0  0  0  0  0  0  0  0  0
  -21.3320   -3.8510   26.0230 F   0  0  0  0  0  0  0  0  0  0  0  0
  -22.7940  -13.5870   21.0220 C   0  0  0  0  0  0  0  0  0  0  0  0
  -22.0470  -12.8960   21.8790 N   0  0  0  0  0  0  0  0  0  0  0  0
  -22.3590  -14.5930   20.4650 O   0  0  0  0  0  0  0  0  0  0  0  0
  -22.4100  -12.0840   22.3570 H   0  0  0  0  0  0  0  0  0  0  0  0
  -21.0970  -13.1880   22.0630 H   0  0  0  0  0  0  0  0  0  0  0  0
  -25.4160  -15.2840   20.2480 N   0  0  0  0  0  0  0  0  0  0  0  0
  -24.6440  -15.9370   20.3190 H   0  0  0  0  0  0  0  0  0  0  0  0
  -26.2760  -15.7200   19.9370 H   0  0  0  0  0  0  0  0  0  0  0  0
  1  3  1  0
  2  1  1  0
  4  5  2  0
  4  1  1  0
  6  5  1  0
  7 18  2  0
  8  6  1  0
  8 13  1  0
  9 17  1  0
  9 19  1  0
 10 16  1  0
 10 12  1  0
 11 17  1  0
 12 13  2  0
 12 11  1  0
 14  8  2  0
 15 14  1  0
 15 10  2  0
 16  9  1  0
 17  7  1  0
 19 21  2  0
 20 19  1  0
 22 20  1  0
 23 32  2  0
 23 28  1  0
 24 20  1  0
 24 28  1  0
 25 24  1  0
 26 27  1  0
 26 25  1  0
 27 23  1  0
 28 29  2  0
 29 30  1  0
 31 30  2  0
 32 31  1  0
 33  7  1  0
 33 38  1  0
 33 34  1  0
 34 37  1  1
 34 35  1  0
 36 34  1  0
 38 41  1  0
 39 43  1  0
 39 38  1  0
 40 39  2  0
 43 42  1  0
 45 43  1  0
 45 46  1  0
 45 44  1  0
 47  1  1  0
 47 52  1  0
 49 48  1  0
 49 47  1  0
 50 51  1  0
 51 49  1  0
 53 60  2  0
 54 59  1  0
 55 56  1  0
 55 54  1  0
 57 56  1  0
 57 66  1  0
 57 58  1  0
 59 53  1  0
 59 58  1  0
 61 62  1  0
 62 53  1  0
 62 52  1  0
 63 64  2  0
 64 83  1  0
 65 64  1  0
 65 68  1  0
 66 63  1  0
 66 67  1  0
 67 65  2  0
 68 69  1  0
 69 70  2  0
 71 74  1  0
 71 70  1  0
 72 71  2  0
 73 72  1  0
 73 68  2  0
 74 75  1  0
 75 76  1  0
 76 77  2  0
 78 77  1  0
 78 82  1  0
 79 78  2  0
 80 75  2  0
 80 79  1  0
 81 80  1  0
 83 84  1  0
 84 87  1  0
 84 86  1  0
 85 83  2  0
 88 89  1  0
 88 63  1  0
 90 88  1  0
M  ISO  4   5 101   6 101  53 100  62 100
M  END
>  <TORSDO>  (18) 
F 22

>  <SCORE>  (18) 
-14.401

>  <name>  (18) 
18

>  <ligand_id>  (18) 
18

>  <original_smiles>  (18) 
[H]c1c([H])c([H])c2c(c1[H])C([H])([H])C([H])([H])C([H])([H])C2([H])N([H])C(=O)C1([H])N(C(=O)C([H])(N([H])C(=O)C([H])(N([H])C([H])([H])[H])C([H])([H])[H])C(C([H])([H])[H])(C([H])([H])[H])C([H])([H])[H])C([H])([H])c2c([H])c(OC([H])([H])C([H])([H])[N+]([H])([H])C([H])(C([H])([H])N(C(=O)N3C([H])([H])C([H])([H])C([H])([H])C([H])(n4nc(-c5c([H])c([H])c(Oc6c([H])c([H])c(F)c([H])c6F)c([H])c5[H])c(C(=O)N([H])[H])c4N([H])[H])C3([H])[H])C([H])([H])[H])C([H])(C([H])([H])[H])C([H])([H])C([H])([H])[H])c([H])c([H])c2C1([H])[H]

>  <smiles>  (18) 
[H]c1c([H])c([H])c2c(c1[H])C([H])([H])C([H])([H])C([H])([H])C2([H])N([H])C(=O)C1([H])N(C(=O)C([H])(N([H])C(=O)C([H])(N([H])C([H])([H])[H])C([H])([H])[H])C(C([H])([H])[H])(C([H])([H])[H])C([H])([H])[H])C([H])([H])c2c([H])c(OC([H])([H])C([H])([H])[N+]([H])([H])C([H])(C([H])([H])N(C(=O)N3C([H])([H])C([H])([H])C([H])([H])C([H])(n4nc(-c5c([H])c([H])c(Oc6c([H])c([H])c(F)c([H])c6F)c([H])c5[H])c(C(=O)N([H])[H])c4N([H])[H])C3([H])[H])C([H])([H])[H])C([H])(C([H])([H])[H])C([H])([H])C([H])([H])[H])c([H])c([H])c2C1([H])[H]

$$$$
19:0:0
     RDKit          3D

 88 95  0  0  1  0  0  0  0  0999 V2000
  -29.3130  -22.0100   20.3690 C   0  0  0  0  0  2  0  0  0  0  0  0
  -28.2900  -23.3090   20.0580 C   0  0  0  0  0  2  0  0  0  0  0  0
  -28.3360  -24.8120   20.7990 C   0  0  0  0  0  2  0  0  0  0  0  0
  -28.3270  -26.2360   20.2080 O   0  0  0  0  0  0  0  0  0  0  0  0
  -24.6090  -31.8500   23.2050 C   0  0  0  0  0  0  0  0  0  0  0  0
  -27.2200  -27.1410   20.2480 C   0  0  0  0  0  0  0  0  0  0  0  0
  -23.4210  -30.4370   21.5690 C   0  0  0  0  0  3  0  0  0  0  0  0
  -24.8800  -28.8450   20.1810 C   0  0  0  0  0  0  0  0  0  0  0  0
  -25.9720  -30.7150   21.4140 C   0  0  0  0  0  2  0  0  0  0  0  0
  -26.0530  -29.3170   20.7850 C   0  0  0  0  0  0  0  0  0  0  0  0
  -27.2270  -28.4820   20.7940 C   0  0  0  0  0  3  0  0  0  0  0  0
  -26.0210  -26.7450   19.6250 C   0  0  0  0  0  3  0  0  0  0  0  0
  -24.8740  -27.5710   19.5880 C   0  0  0  0  0  3  0  0  0  0  0  0
  -23.6510  -29.7410   20.2020 C   0  0  0  0  0  2  0  0  0  0  0  0
  -24.6870  -31.0230   22.1190 N   0  0  0  0  0  0  0  0  0  0  0  0
  -23.5190  -32.1380   23.7230 O   0  0  0  0  0  0  0  0  0  0  0  0
  -22.7380  -29.4390   22.5360 C   0  0  0  0  0  0  0  0  0  0  0  0
  -21.4090  -29.2830   22.4150 N   0  0  0  0  0  0  0  0  0  0  0  0
  -23.4070  -28.8080   23.3590 O   0  0  0  0  0  0  0  0  0  0  0  0
  -20.9270  -29.8440   21.7250 H   0  0  0  0  0  0  0  0  0  0  0  0
  -18.0130  -28.1380   22.9430 C   0  0  0  0  0  0  0  0  0  0  0  0
  -20.5790  -28.3560   23.1890 C   0  0  0  0  0  3  0  0  0  0  0  0
  -20.6520  -26.9250   22.6090 C   0  0  0  0  0  2  0  0  0  0  0  0
  -19.5360  -26.6250   21.6020 C   0  0  0  0  0  2  0  0  0  0  0  0
  -18.1620  -26.7890   22.2590 C   0  0  0  0  0  2  0  0  0  0  0  0
  -19.1480  -28.8810   23.3650 C   0  0  0  0  0  0  0  0  0  0  0  0
  -18.9530  -30.1430   23.9660 C   0  0  0  0  0  3  0  0  0  0  0  0
  -17.6580  -30.6630   24.1470 C   0  0  0  0  0  3  0  0  0  0  0  0
  -16.5380  -29.9170   23.7390 C   0  0  0  0  0  3  0  0  0  0  0  0
  -16.7170  -28.6570   23.1430 C   0  0  0  0  0  3  0  0  0  0  0  0
  -25.8830  -32.4900   23.8370 C   0  0  0  0  0  3  0  0  0  0  0  0
  -25.5650  -33.8890   24.1650 N   0  0  0  0  0  0  0  0  0  0  0  0
  -25.9080  -34.9460   23.4160 C   0  0  0  0  0  0  0  0  0  0  0  0
  -26.5900  -34.8450   22.3940 O   0  0  0  0  0  0  0  0  0  0  0  0
  -24.9580  -34.0390   24.9560 H   0  0  0  0  0  0  0  0  0  0  0  0
  -24.1920  -36.7500   23.0420 C   0  0  0  0  0  1  0  0  0  0  0  0
  -25.4170  -36.3340   23.8730 C   0  0  0  0  0  3  0  0  0  0  0  0
  -27.5360  -37.2100   24.7530 C   0  0  0  0  0  1  0  0  0  0  0  0
  -26.4550  -37.3840   23.7870 N   0  0  0  0  0  0  0  0  0  0  0  0
  -26.0480  -38.3060   23.9290 H   0  0  0  0  0  0  0  0  0  0  0  0
  -26.3900  -31.7250   25.1220 C   0  0  1  0  0  0  0  0  0  0  0  0
  -25.2890  -31.4890   26.1820 C   0  0  0  0  0  1  0  0  0  0  0  0
  -26.9800  -30.3470   24.7440 C   0  0  0  0  0  1  0  0  0  0  0  0
  -27.5340  -32.5250   25.7900 C   0  0  0  0  0  1  0  0  0  0  0  0
  -28.9380  -20.3680   20.3980 C   0  0  0  0  0  2  0  0  0  0  0  0
  -29.5510  -19.1350   18.2890 C   0  0  0  0  0  1  0  0  0  0  0  0
  -29.8660  -19.2700   19.7280 N   0  0  2  0  0  4  0  0  0  0  0  0
  -30.7410  -19.7750   19.7360 H   0  0  0  0  0  0  0  0  0  0  0  0
  -30.3940  -17.8880   20.3320 C   0  0  0  0  0  3  0  0  0  0  0  0
  -30.6360  -18.0450   21.8330 C   0  0  0  0  0  3  0  0  0  0  0  0
  -31.3710  -18.9100   22.3200 O   0  0  0  0  0  0  0  0  0  0  0  0
  -29.8190  -16.3530   19.9760 C   0  0  0  0  0  2  0  0  0  0  0  0
  -30.6950  -14.9510   19.9800 C   0  0  0  0  0  0  0  0  0  0  0  0
  -30.5350  -12.6160   19.0360 C   0  0  0  0  0  2  0  0  0  0  0  0
  -29.5480  -12.6380   17.8430 C   0  0  0  0  0  2  0  0  0  0  0  0
  -28.0950  -12.4510   18.3260 C   0  0  0  0  0  2  0  0  0  0  0  0
  -27.7570  -13.3530   19.5410 C   0  0  0  0  0  3  0  0  0  0  0  0
  -28.8560  -13.3020   20.6210 C   0  0  0  0  0  2  0  0  0  0  0  0
  -30.1220  -13.6850   19.9850 N   0  0  0  0  0  0  0  0  0  0  0  0
  -31.8990  -15.0170   19.7030 O   0  0  0  0  0  0  0  0  0  0  0  0
  -25.4190  -13.9580   20.3920 C   0  0  0  0  0  0  0  0  0  0  0  0
  -24.3590  -13.1930   20.7960 C   0  0  0  0  0  0  0  0  0  0  0  0
  -24.8020  -11.8360   20.7260 C   0  0  0  0  0  0  0  0  0  0  0  0
  -26.4360  -13.0680   20.0910 N   0  0  0  0  0  0  0  0  0  0  0  0
  -26.0760  -11.7850   20.3580 N   0  0  0  0  0  0  0  0  0  0  0  0
  -24.0640  -10.5820   20.9290 C   0  0  0  0  0  0  0  0  0  0  0  0
  -24.4800   -9.6260   21.8810 C   0  0  0  0  0  3  0  0  0  0  0  0
  -23.7440   -8.4380   22.0710 C   0  0  0  0  0  3  0  0  0  0  0  0
  -22.5770   -8.1950   21.3070 C   0  0  0  0  0  0  0  0  0  0  0  0
  -22.1810   -9.1390   20.3430 C   0  0  0  0  0  3  0  0  0  0  0  0
  -22.9180  -10.3190   20.1530 C   0  0  0  0  0  3  0  0  0  0  0  0
  -21.8130   -7.0570   21.4050 O   0  0  0  0  0  0  0  0  0  0  0  0
  -21.6970   -6.3680   22.5860 C   0  0  0  0  0  0  0  0  0  0  0  0
  -21.1940   -6.9760   23.7570 C   0  0  0  0  0  3  0  0  0  0  0  0
  -21.0260   -6.2130   24.9300 C   0  0  0  0  0  3  0  0  0  0  0  0
  -21.3500   -4.8430   24.9310 C   0  0  0  0  0  0  0  0  0  0  0  0
  -21.8440   -4.2340   23.7640 C   0  0  0  0  0  3  0  0  0  0  0  0
  -22.0140   -4.9950   22.5940 C   0  0  0  0  0  0  0  0  0  0  0  0
  -22.4730   -4.3990   21.4670 F   0  0  0  0  0  0  0  0  0  0  0  0
  -21.1800   -4.1070   26.0540 F   0  0  0  0  0  0  0  0  0  0  0  0
  -22.9830  -13.6860   21.1320 C   0  0  0  0  0  0  0  0  0  0  0  0
  -22.2830  -12.9900   22.0210 N   0  0  0  0  0  0  0  0  0  0  0  0
  -22.5380  -14.7230   20.6430 O   0  0  0  0  0  0  0  0  0  0  0  0
  -22.6570  -12.1510   22.4400 H   0  0  0  0  0  0  0  0  0  0  0  0
  -21.3590  -13.3000   22.2890 H   0  0  0  0  0  0  0  0  0  0  0  0
  -25.5950  -15.3290   20.2290 N   0  0  0  0  0  0  0  0  0  0  0  0
  -24.8390  -15.9880   20.3760 H   0  0  0  0  0  0  0  0  0  0  0  0
  -26.4240  -15.7580   19.8380 H   0  0  0  0  0  0  0  0  0  0  0  0
  1 45  1  0
  2  1  1  0
  2  3  1  0
  4  6  1  0
  4  3  1  0
  5 16  2  0
  6 11  1  0
  7 15  1  0
  7 17  1  0
  8 14  1  0
  8 10  1  0
  9 15  1  0
 10 11  2  0
 10  9  1  0
 12  6  2  0
 13 12  1  0
 13  8  2  0
 14  7  1  0
 15  5  1  0
 17 19  2  0
 18 17  1  0
 20 18  1  0
 21 30  2  0
 21 26  1  0
 22 18  1  0
 22 26  1  0
 23 22  1  0
 24 25  1  0
 24 23  1  0
 25 21  1  0
 26 27  2  0
 27 28  1  0
 29 28  2  0
 30 29  1  0
 31  5  1  0
 31 32  1  0
 31 41  1  0
 32 35  1  0
 33 37  1  0
 33 32  1  0
 34 33  2  0
 37 36  1  0
 39 37  1  0
 39 40  1  0
 39 38  1  0
 41 44  1  1
 41 42  1  0
 43 41  1  0
 46 47  1  0
 47 48  1  6
 47 49  1  0
 47 45  1  0
 49 52  1  0
 49 50  1  0
 50 51  2  0
 52 53  1  0
 53 59  1  0
 54 59  1  0
 55 56  1  0
 55 54  1  0
 57 56  1  0
 57 64  1  0
 57 58  1  0
 59 58  1  0
 60 53  2  0
 61 62  2  0
 62 81  1  0
 63 62  1  0
 63 66  1  0
 64 65  1  0
 64 61  1  0
 65 63  2  0
 66 67  1  0
 67 68  2  0
 69 72  1  0
 69 68  1  0
 70 69  2  0
 71 70  1  0
 71 66  2  0
 72 73  1  0
 73 78  2  0
 73 74  1  0
 74 75  2  0
 75 76  1  0
 76 80  1  0
 77 76  2  0
 78 77  1  0
 79 78  1  0
 81 82  1  0
 82 85  1  0
 82 84  1  0
 83 81  2  0
 86 87  1  0
 86 61  1  0
 88 86  1  0
M  ISO  4   3 101   4 101  52 100  53 100
M  END
>  <TORSDO>  (19) 
F 23

>  <SCORE>  (19) 
-12.610

>  <name>  (19) 
19

>  <ligand_id>  (19) 
19

>  <original_smiles>  (19) 
[H]C(=O)C([H])(C([H])([H])C(=O)N1C([H])([H])C([H])([H])C([H])([H])C([H])(n2nc(-c3c([H])c([H])c(Oc4c([H])c([H])c(F)c([H])c4F)c([H])c3[H])c(C(=O)N([H])[H])c2N([H])[H])C1([H])[H])[N+]([H])(C([H])([H])[H])C([H])([H])C([H])([H])C([H])([H])C([H])([H])Oc1c([H])c([H])c2c(c1[H])C([H])([H])N(C(=O)C([H])(N([H])C(=O)C([H])(N([H])C([H])([H])[H])C([H])([H])[H])C(C([H])([H])[H])(C([H])([H])[H])C([H])([H])[H])C([H])(C(=O)N([H])C1([H])c3c([H])c([H])c([H])c([H])c3C([H])([H])C([H])([H])C1([H])[H])C2([H])[H]

>  <smiles>  (19) 
[H]C(=O)C([H])(C([H])([H])C(=O)N1C([H])([H])C([H])([H])C([H])([H])C([H])(n2nc(-c3c([H])c([H])c(Oc4c([H])c([H])c(F)c([H])c4F)c([H])c3[H])c(C(=O)N([H])[H])c2N([H])[H])C1([H])[H])[N+]([H])(C([H])([H])[H])C([H])([H])C([H])([H])C([H])([H])C([H])([H])Oc1c([H])c([H])c2c(c1[H])C([H])([H])N(C(=O)C([H])(N([H])C(=O)C([H])(N([H])C([H])([H])[H])C([H])([H])[H])C(C([H])([H])[H])(C([H])([H])[H])C([H])([H])[H])C([H])(C(=O)N([H])C1([H])c3c([H])c([H])c([H])c([H])c3C([H])([H])C([H])([H])C1([H])[H])C2([H])[H]

$$$$
20:0:0
     RDKit          3D

 95102  0  0  1  0  0  0  0  0999 V2000
  -23.4000  -21.8320   17.2650 C   0  0  0  0  0  1  0  0  0  0  0  0
  -24.7800  -21.8010   17.8060 N   0  0  2  0  0  4  0  0  0  0  0  0
  -25.3790  -21.6790   17.0040 H   0  0  0  0  0  0  0  0  0  0  0  0
  -25.0050  -20.6450   18.7160 C   0  0  0  0  0  2  0  0  0  0  0  0
  -26.1040  -19.6940   18.2050 C   0  0  0  0  0  2  0  0  0  0  0  0
  -26.3950  -18.6090   19.2600 C   0  0  0  0  0  2  0  0  0  0  0  0
  -27.0750  -16.9500   17.5360 C   0  0  0  0  0  1  0  0  0  0  0  0
  -27.3660  -17.5570   18.8560 N   0  0  1  0  0  4  0  0  0  0  0  0
  -27.1690  -16.8130   19.5250 H   0  0  0  0  0  0  0  0  0  0  0  0
  -28.8080  -17.8860   19.0460 C   0  0  0  0  0  2  0  0  0  0  0  0
  -29.2920  -17.7240   20.5100 C   0  0  0  0  0  2  0  0  0  0  0  0
  -30.7220  -17.1500   20.6510 C   0  0  0  0  0  2  0  0  0  0  0  0
  -30.8300  -15.8860   21.5570 C   0  0  0  0  0  2  0  0  0  0  0  0
  -31.4790  -14.7130   20.8000 C   0  0  0  0  0  0  0  0  0  0  0  0
  -31.0260  -12.9210   19.1890 C   0  0  0  0  0  2  0  0  0  0  0  0
  -30.0770  -13.5020   18.1170 C   0  0  0  0  0  2  0  0  0  0  0  0
  -28.6030  -13.3660   18.5510 C   0  0  0  0  0  2  0  0  0  0  0  0
  -28.3520  -13.8500   20.0040 C   0  0  0  0  0  3  0  0  0  0  0  0
  -29.4160  -13.2720   20.9650 C   0  0  0  0  0  2  0  0  0  0  0  0
  -30.7460  -13.6250   20.4470 N   0  0  0  0  0  0  0  0  0  0  0  0
  -32.6220  -14.9060   20.3790 O   0  0  0  0  0  0  0  0  0  0  0  0
  -25.9490  -14.3940   20.7510 C   0  0  0  0  0  0  0  0  0  0  0  0
  -24.8700  -13.6000   21.0190 C   0  0  0  0  0  0  0  0  0  0  0  0
  -25.3260  -12.2570   20.8650 C   0  0  0  0  0  0  0  0  0  0  0  0
  -26.9940  -13.5370   20.4440 N   0  0  0  0  0  0  0  0  0  0  0  0
  -26.6190  -12.2400   20.5680 N   0  0  0  0  0  0  0  0  0  0  0  0
  -24.5910  -10.9890   20.9300 C   0  0  0  0  0  0  0  0  0  0  0  0
  -25.0140   -9.9340   21.7680 C   0  0  0  0  0  3  0  0  0  0  0  0
  -24.2810   -8.7310   21.8250 C   0  0  0  0  0  3  0  0  0  0  0  0
  -23.1110   -8.5740   21.0430 C   0  0  0  0  0  0  0  0  0  0  0  0
  -22.7090   -9.6200   20.1940 C   0  0  0  0  0  3  0  0  0  0  0  0
  -23.4440  -10.8160   20.1330 C   0  0  0  0  0  3  0  0  0  0  0  0
  -22.3530   -7.4300   21.0140 O   0  0  0  0  0  0  0  0  0  0  0  0
  -22.2400   -6.6140   22.1120 C   0  0  0  0  0  0  0  0  0  0  0  0
  -21.8050   -7.1040   23.3630 C   0  0  0  0  0  3  0  0  0  0  0  0
  -21.6350   -6.2170   24.4440 C   0  0  0  0  0  3  0  0  0  0  0  0
  -21.8920   -4.8420   24.2750 C   0  0  0  0  0  0  0  0  0  0  0  0
  -22.3210   -4.3540   23.0290 C   0  0  0  0  0  3  0  0  0  0  0  0
  -22.4910   -5.2370   21.9490 C   0  0  0  0  0  0  0  0  0  0  0  0
  -22.8830   -4.7590   20.7430 F   0  0  0  0  0  0  0  0  0  0  0  0
  -21.7230   -3.9860   25.3100 F   0  0  0  0  0  0  0  0  0  0  0  0
  -23.4760  -14.0610   21.3320 C   0  0  0  0  0  0  0  0  0  0  0  0
  -22.7510  -13.3080   22.1500 N   0  0  0  0  0  0  0  0  0  0  0  0
  -23.0450  -15.1290   20.8960 O   0  0  0  0  0  0  0  0  0  0  0  0
  -23.1130  -12.4420   22.5190 H   0  0  0  0  0  0  0  0  0  0  0  0
  -21.8190  -13.6000   22.4080 H   0  0  0  0  0  0  0  0  0  0  0  0
  -26.1260  -15.7730   20.7450 N   0  0  0  0  0  0  0  0  0  0  0  0
  -25.3220  -16.1980   21.1970 H   0  0  0  0  0  0  0  0  0  0  0  0
  -26.9540  -15.9890   21.2900 H   0  0  0  0  0  0  0  0  0  0  0  0
  -25.1760  -23.0880   18.4270 C   0  0  0  0  0  2  0  0  0  0  0  0
  -26.7100  -23.2270   18.5430 C   0  0  0  0  0  2  0  0  0  0  0  0
  -27.1370  -24.2380   19.6200 C   0  0  0  0  0  2  0  0  0  0  0  0
  -28.4580  -24.9570   19.2830 C   0  0  0  0  0  2  0  0  0  0  0  0
  -28.7890  -26.1160   20.2410 C   0  0  0  0  0  2  0  0  0  0  0  0
  -28.6300  -27.3890   19.6130 O   0  0  0  0  0  0  0  0  0  0  0  0
  -24.4870  -31.7740   23.3530 C   0  0  0  0  0  0  0  0  0  0  0  0
  -27.3940  -27.9730   19.7370 C   0  0  0  0  0  0  0  0  0  0  0  0
  -23.3450  -30.4670   21.5880 C   0  0  0  0  0  3  0  0  0  0  0  0
  -24.8770  -29.2260   19.9720 C   0  0  0  0  0  0  0  0  0  0  0  0
  -25.8220  -31.0650   21.3780 C   0  0  0  0  0  2  0  0  0  0  0  0
  -26.0000  -29.7830   20.5960 C   0  0  0  0  0  0  0  0  0  0  0  0
  -27.2600  -29.1590   20.4840 C   0  0  0  0  0  3  0  0  0  0  0  0
  -26.2620  -27.4410   19.0820 C   0  0  0  0  0  3  0  0  0  0  0  0
  -25.0010  -28.0490   19.2130 C   0  0  0  0  0  3  0  0  0  0  0  0
  -23.5660  -29.9600   20.1370 C   0  0  0  0  0  2  0  0  0  0  0  0
  -24.5690  -31.1120   22.1650 N   0  0  0  0  0  0  0  0  0  0  0  0
  -23.4050  -31.8920   23.9450 O   0  0  0  0  0  0  0  0  0  0  0  0
  -22.8100  -29.2950   22.4400 C   0  0  0  0  0  0  0  0  0  0  0  0
  -21.5230  -28.9600   22.2550 N   0  0  0  0  0  0  0  0  0  0  0  0
  -23.5510  -28.6890   23.2200 O   0  0  0  0  0  0  0  0  0  0  0  0
  -20.9800  -29.5110   21.6040 H   0  0  0  0  0  0  0  0  0  0  0  0
  -18.3460  -27.2560   22.4600 C   0  0  0  0  0  0  0  0  0  0  0  0
  -20.8150  -27.8670   22.9180 C   0  0  0  0  0  3  0  0  0  0  0  0
  -21.1650  -26.5050   22.2760 C   0  0  0  0  0  2  0  0  0  0  0  0
  -20.1860  -26.0890   21.1720 C   0  0  0  0  0  2  0  0  0  0  0  0
  -18.7630  -25.9910   21.7270 C   0  0  0  0  0  2  0  0  0  0  0  0
  -19.3100  -28.1450   23.0040 C   0  0  0  0  0  0  0  0  0  0  0  0
  -18.8690  -29.3250   23.6410 C   0  0  0  0  0  3  0  0  0  0  0  0
  -17.4970  -29.6200   23.7420 C   0  0  0  0  0  3  0  0  0  0  0  0
  -16.5470  -28.7290   23.2140 C   0  0  0  0  0  3  0  0  0  0  0  0
  -16.9710  -27.5490   22.5790 C   0  0  0  0  0  3  0  0  0  0  0  0
  -25.7380  -32.4360   24.0120 C   0  0  0  0  0  3  0  0  0  0  0  0
  -25.3670  -33.8060   24.3890 N   0  0  0  0  0  0  0  0  0  0  0  0
  -25.6660  -34.8980   23.6740 C   0  0  0  0  0  0  0  0  0  0  0  0
  -26.3570  -34.8620   22.6510 O   0  0  0  0  0  0  0  0  0  0  0  0
  -24.7570  -33.9070   25.1880 H   0  0  0  0  0  0  0  0  0  0  0  0
  -23.8680  -36.6260   23.3510 C   0  0  0  0  0  1  0  0  0  0  0  0
  -25.1120  -36.2470   24.1710 C   0  0  0  0  0  3  0  0  0  0  0  0
  -27.1950  -37.1850   25.0680 C   0  0  0  0  0  1  0  0  0  0  0  0
  -26.1000  -37.3460   24.1160 N   0  0  0  0  0  0  0  0  0  0  0  0
  -25.6530  -38.2420   24.2950 H   0  0  0  0  0  0  0  0  0  0  0  0
  -26.2780  -31.6370   25.2620 C   0  0  1  0  0  0  0  0  0  0  0  0
  -25.1850  -31.3000   26.3030 C   0  0  0  0  0  1  0  0  0  0  0  0
  -26.9320  -30.3090   24.8180 C   0  0  0  0  0  1  0  0  0  0  0  0
  -27.3800  -32.4580   25.9730 C   0  0  0  0  0  1  0  0  0  0  0  0
  1  2  1  0
  2 50  1  0
  2  4  1  0
  2  3  1  6
  5  4  1  0
  5  6  1  0
  7  8  1  0
  8 10  1  0
  8  6  1  0
  8  9  1  1
 10 11  1  0
 11 12  1  0
 12 13  1  0
 14 13  1  0
 15 20  1  0
 16 17  1  0
 16 15  1  0
 18 17  1  0
 18 25  1  0
 18 19  1  0
 20 14  1  0
 20 19  1  0
 21 14  2  0
 22 23  2  0
 23 42  1  0
 24 27  1  0
 24 23  1  0
 25 26  1  0
 25 22  1  0
 26 24  2  0
 27 28  1  0
 28 29  2  0
 30 29  1  0
 31 30  2  0
 32 31  1  0
 32 27  2  0
 33 30  1  0
 33 34  1  0
 34 35  1  0
 35 36  2  0
 37 36  1  0
 37 41  1  0
 38 37  2  0
 39 34  2  0
 39 38  1  0
 40 39  1  0
 42 43  1  0
 43 46  1  0
 43 45  1  0
 44 42  2  0
 47 22  1  0
 47 48  1  0
 47 49  1  0
 50 51  1  0
 51 52  1  0
 53 52  1  0
 53 54  1  0
 55 57  1  0
 55 54  1  0
 56 67  2  0
 57 62  1  0
 58 66  1  0
 58 68  1  0
 59 65  1  0
 59 61  1  0
 60 66  1  0
 61 60  1  0
 62 61  2  0
 63 64  1  0
 63 57  2  0
 64 59  2  0
 65 58  1  0
 66 56  1  0
 68 70  2  0
 69 68  1  0
 71 69  1  0
 72 81  2  0
 72 77  1  0
 73 69  1  0
 73 77  1  0
 74 73  1  0
 75 76  1  0
 75 74  1  0
 76 72  1  0
 77 78  2  0
 78 79  1  0
 80 79  2  0
 81 80  1  0
 82 56  1  0
 82 83  1  0
 82 92  1  0
 83 86  1  0
 84 88  1  0
 84 83  1  0
 85 84  2  0
 88 87  1  0
 90 88  1  0
 90 91  1  0
 90 89  1  0
 92 95  1  1
 92 93  1  0
 94 92  1  0
M  ISO  4  13 100  14 100  54 101  55 101
M  END
>  <TORSDO>  (20) 
F 29

>  <SCORE>  (20) 
-5.985

>  <name>  (20) 
20

>  <ligand_id>  (20) 
20

>  <original_smiles>  (20) 
[H]c1c([H])c([H])c2c(c1[H])C([H])([H])C([H])([H])C([H])([H])C2([H])N([H])C(=O)C1([H])N(C(=O)C([H])(N([H])C(=O)C([H])(N([H])C([H])([H])[H])C([H])([H])[H])C(C([H])([H])[H])(C([H])([H])[H])C([H])([H])[H])C([H])([H])c2c([H])c(OC([H])([H])C([H])([H])C([H])([H])C([H])([H])C([H])([H])[N+]([H])(C([H])([H])[H])C([H])([H])C([H])([H])C([H])([H])[N+]([H])(C([H])([H])[H])C([H])([H])C([H])([H])C([H])([H])C([H])([H])C(=O)N3C([H])([H])C([H])([H])C([H])([H])C([H])(n4nc(-c5c([H])c([H])c(Oc6c([H])c([H])c(F)c([H])c6F)c([H])c5[H])c(C(=O)N([H])[H])c4N([H])[H])C3([H])[H])c([H])c([H])c2C1([H])[H]

>  <smiles>  (20) 
[H]c1c([H])c([H])c2c(c1[H])C([H])([H])C([H])([H])C([H])([H])C2([H])N([H])C(=O)C1([H])N(C(=O)C([H])(N([H])C(=O)C([H])(N([H])C([H])([H])[H])C([H])([H])[H])C(C([H])([H])[H])(C([H])([H])[H])C([H])([H])[H])C([H])([H])c2c([H])c(OC([H])([H])C([H])([H])C([H])([H])C([H])([H])C([H])([H])[N+]([H])(C([H])([H])[H])C([H])([H])C([H])([H])C([H])([H])[N+]([H])(C([H])([H])[H])C([H])([H])C([H])([H])C([H])([H])C([H])([H])C(=O)N3C([H])([H])C([H])([H])C([H])([H])C([H])(n4nc(-c5c([H])c([H])c(Oc6c([H])c([H])c(F)c([H])c6F)c([H])c5[H])c(C(=O)N([H])[H])c4N([H])[H])C3([H])[H])c([H])c([H])c2C1([H])[H]

$$$$
21:0:0
     RDKit          3D

 90 97  0  0  1  0  0  0  0  0999 V2000
  -29.1980  -20.2690   18.6650 C   0  0  0  0  0  3  0  0  0  0  0  0
  -28.7580  -21.4530   18.1720 C   0  0  0  0  0  0  0  0  0  0  0  0
  -27.3880  -21.5460   17.5200 C   0  0  0  0  0  1  0  0  0  0  0  0
  -30.5450  -20.0140   19.2140 C   0  0  0  0  0  0  0  0  0  0  0  0
  -31.5780  -20.4370   18.6850 O   0  0  0  0  0  0  0  0  0  0  0  0
  -30.6790  -19.1530   20.4730 C   0  0  0  0  0  2  0  0  0  0  0  0
  -30.4720  -17.6430   20.2270 C   0  0  0  0  0  2  0  0  0  0  0  0
  -30.8300  -16.7920   21.4670 C   0  0  0  0  0  2  0  0  0  0  0  0
  -30.2150  -15.3730   21.4880 C   0  0  0  0  0  2  0  0  0  0  0  0
  -30.7650  -14.3580   20.4620 C   0  0  0  0  0  0  0  0  0  0  0  0
  -30.4000  -12.2980   19.1320 C   0  0  0  0  0  2  0  0  0  0  0  0
  -29.4260  -12.5640   17.9660 C   0  0  0  0  0  2  0  0  0  0  0  0
  -27.9600  -12.4370   18.4260 C   0  0  0  0  0  2  0  0  0  0  0  0
  -27.6750  -13.2250   19.7310 C   0  0  0  0  0  3  0  0  0  0  0  0
  -28.7450  -12.9040   20.8000 C   0  0  0  0  0  2  0  0  0  0  0  0
  -30.0640  -13.2180   20.2260 N   0  0  0  0  0  0  0  0  0  0  0  0
  -31.8170  -14.6170   19.8640 O   0  0  0  0  0  0  0  0  0  0  0  0
  -25.2870  -13.8680   20.4520 C   0  0  0  0  0  0  0  0  0  0  0  0
  -24.2120  -13.1100   20.8330 C   0  0  0  0  0  0  0  0  0  0  0  0
  -24.6570  -11.7540   20.8020 C   0  0  0  0  0  0  0  0  0  0  0  0
  -26.3200  -12.9750   20.2210 N   0  0  0  0  0  0  0  0  0  0  0  0
  -25.9440  -11.6980   20.4850 N   0  0  0  0  0  0  0  0  0  0  0  0
  -23.9190  -10.5000   21.0050 C   0  0  0  0  0  0  0  0  0  0  0  0
  -24.3580   -9.5310   21.9330 C   0  0  0  0  0  3  0  0  0  0  0  0
  -23.6240   -8.3400   22.1250 C   0  0  0  0  0  3  0  0  0  0  0  0
  -22.4390   -8.1110   21.3870 C   0  0  0  0  0  0  0  0  0  0  0  0
  -22.0210   -9.0680   20.4460 C   0  0  0  0  0  3  0  0  0  0  0  0
  -22.7540  -10.2510   20.2550 C   0  0  0  0  0  3  0  0  0  0  0  0
  -21.6740   -6.9730   21.4880 O   0  0  0  0  0  0  0  0  0  0  0  0
  -21.6400   -6.2290   22.6400 C   0  0  0  0  0  0  0  0  0  0  0  0
  -21.2470   -6.7880   23.8760 C   0  0  0  0  0  3  0  0  0  0  0  0
  -21.1580   -5.9710   25.0200 C   0  0  0  0  0  3  0  0  0  0  0  0
  -21.4520   -4.5970   24.9290 C   0  0  0  0  0  0  0  0  0  0  0  0
  -21.8410   -4.0380   23.6980 C   0  0  0  0  0  3  0  0  0  0  0  0
  -21.9300   -4.8520   22.5560 C   0  0  0  0  0  0  0  0  0  0  0  0
  -22.2840   -4.3050   21.3670 F   0  0  0  0  0  0  0  0  0  0  0  0
  -21.3600   -3.8100   26.0270 F   0  0  0  0  0  0  0  0  0  0  0  0
  -22.8230  -13.6030   21.1220 C   0  0  0  0  0  0  0  0  0  0  0  0
  -22.1010  -12.9140   22.0000 N   0  0  0  0  0  0  0  0  0  0  0  0
  -22.3890  -14.6320   20.6070 O   0  0  0  0  0  0  0  0  0  0  0  0
  -22.4710  -12.0790   22.4300 H   0  0  0  0  0  0  0  0  0  0  0  0
  -21.1700  -13.2210   22.2430 H   0  0  0  0  0  0  0  0  0  0  0  0
  -25.4670  -15.2340   20.2660 N   0  0  0  0  0  0  0  0  0  0  0  0
  -24.7110  -15.9020   20.3650 H   0  0  0  0  0  0  0  0  0  0  0  0
  -26.3310  -15.6550   19.9500 H   0  0  0  0  0  0  0  0  0  0  0  0
  -29.5500  -22.7640   18.1800 C   0  0  0  0  0  2  0  0  0  0  0  0
  -28.7700  -24.0030   18.6650 C   0  0  0  0  0  2  0  0  0  0  0  0
  -29.6950  -25.2310   18.7700 C   0  0  0  0  0  2  0  0  0  0  0  0
  -28.9610  -26.5750   18.8670 C   0  0  0  0  0  2  0  0  0  0  0  0
  -28.4000  -26.7580   20.1630 O   0  0  0  0  0  0  0  0  0  0  0  0
  -24.5650  -31.8990   23.2500 C   0  0  0  0  0  0  0  0  0  0  0  0
  -27.2280  -27.4710   20.1820 C   0  0  0  0  0  0  0  0  0  0  0  0
  -23.3650  -30.4910   21.6050 C   0  0  0  0  0  3  0  0  0  0  0  0
  -24.8250  -28.9460   20.1960 C   0  0  0  0  0  0  0  0  0  0  0  0
  -25.8870  -30.8550   21.4150 C   0  0  0  0  0  2  0  0  0  0  0  0
  -25.9760  -29.4790   20.7890 C   0  0  0  0  0  0  0  0  0  0  0  0
  -27.1800  -28.7420   20.7910 C   0  0  0  0  0  3  0  0  0  0  0  0
  -26.0590  -26.9350   19.6030 C   0  0  0  0  0  3  0  0  0  0  0  0
  -24.8580  -27.6680   19.6070 C   0  0  0  0  0  3  0  0  0  0  0  0
  -23.5800  -29.8040   20.2310 C   0  0  0  0  0  2  0  0  0  0  0  0
  -24.6240  -31.0970   22.1490 N   0  0  0  0  0  0  0  0  0  0  0  0
  -23.4820  -32.1730   23.7850 O   0  0  0  0  0  0  0  0  0  0  0  0
  -22.7110  -29.4740   22.5660 C   0  0  0  0  0  0  0  0  0  0  0  0
  -21.3870  -29.2910   22.4300 N   0  0  0  0  0  0  0  0  0  0  0  0
  -23.3880  -28.8540   23.3890 O   0  0  0  0  0  0  0  0  0  0  0  0
  -20.9030  -29.8410   21.7340 H   0  0  0  0  0  0  0  0  0  0  0  0
  -18.0100  -28.1040   22.9110 C   0  0  0  0  0  0  0  0  0  0  0  0
  -20.5660  -28.3580   23.2000 C   0  0  0  0  0  3  0  0  0  0  0  0
  -20.6710  -26.9250   22.6290 C   0  0  0  0  0  2  0  0  0  0  0  0
  -19.5760  -26.5990   21.6090 C   0  0  0  0  0  2  0  0  0  0  0  0
  -18.1890  -26.7510   22.2430 C   0  0  0  0  0  2  0  0  0  0  0  0
  -19.1280  -28.8650   23.3470 C   0  0  0  0  0  0  0  0  0  0  0  0
  -18.9080  -30.1320   23.9300 C   0  0  0  0  0  3  0  0  0  0  0  0
  -17.6040  -30.6370   24.0830 C   0  0  0  0  0  3  0  0  0  0  0  0
  -16.5010  -29.8730   23.6640 C   0  0  0  0  0  3  0  0  0  0  0  0
  -16.7050  -28.6090   23.0840 C   0  0  0  0  0  3  0  0  0  0  0  0
  -25.8490  -32.5300   23.8730 C   0  0  0  0  0  3  0  0  0  0  0  0
  -26.3550  -31.7690   25.1590 C   0  0  1  0  0  0  0  0  0  0  0  0
  -25.2560  -31.5440   26.2230 C   0  0  0  0  0  1  0  0  0  0  0  0
  -26.9330  -30.3860   24.7780 C   0  0  0  0  0  1  0  0  0  0  0  0
  -27.5040  -32.5650   25.8210 C   0  0  0  0  0  1  0  0  0  0  0  0
  -25.5460  -33.9330   24.1830 N   0  0  0  0  0  0  0  0  0  0  0  0
  -25.9000  -34.9740   23.4160 C   0  0  0  0  0  0  0  0  0  0  0  0
  -26.5890  -34.8540   22.3990 O   0  0  0  0  0  0  0  0  0  0  0  0
  -24.9380  -34.1020   24.9710 H   0  0  0  0  0  0  0  0  0  0  0  0
  -24.1970  -36.7770   23.0030 C   0  0  0  0  0  1  0  0  0  0  0  0
  -25.4150  -36.3700   23.8490 C   0  0  0  0  0  3  0  0  0  0  0  0
  -27.5380  -37.2430   24.7210 C   0  0  0  0  0  1  0  0  0  0  0  0
  -26.4600  -37.4140   23.7520 N   0  0  0  0  0  0  0  0  0  0  0  0
  -26.0590  -38.3390   23.8830 H   0  0  0  0  0  0  0  0  0  0  0  0
  1  4  1  0
  2 46  1  0
  2  1  2  0
  3  2  1  0
  4  6  1  0
  5  4  2  0
  7  6  1  0
  7  8  1  0
  8  9  1  0
 10  9  1  0
 11 16  1  0
 12 13  1  0
 12 11  1  0
 14 13  1  0
 14 21  1  0
 14 15  1  0
 16 10  1  0
 16 15  1  0
 17 10  2  0
 18 19  2  0
 19 38  1  0
 20 19  1  0
 20 23  1  0
 21 18  1  0
 21 22  1  0
 22 20  2  0
 23 24  1  0
 24 25  2  0
 26 29  1  0
 26 25  1  0
 27 26  2  0
 28 27  1  0
 28 23  2  0
 29 30  1  0
 30 31  1  0
 31 32  2  0
 33 32  1  0
 33 37  1  0
 34 33  2  0
 35 30  2  0
 35 34  1  0
 36 35  1  0
 38 39  1  0
 39 42  1  0
 39 41  1  0
 40 38  2  0
 43 44  1  0
 43 18  1  0
 45 43  1  0
 46 47  1  0
 47 48  1  0
 48 49  1  0
 49 50  1  0
 50 52  1  0
 51 62  2  0
 52 57  1  0
 53 61  1  0
 53 63  1  0
 54 60  1  0
 54 56  1  0
 55 61  1  0
 56 57  2  0
 56 55  1  0
 58 59  1  0
 58 52  2  0
 59 54  2  0
 60 53  1  0
 61 51  1  0
 63 65  2  0
 64 63  1  0
 66 64  1  0
 67 76  2  0
 67 72  1  0
 68 64  1  0
 68 72  1  0
 69 68  1  0
 70 71  1  0
 70 69  1  0
 71 67  1  0
 72 73  2  0
 73 74  1  0
 75 74  2  0
 76 75  1  0
 77 51  1  0
 77 82  1  0
 77 78  1  0
 78 81  1  1
 78 79  1  0
 80 78  1  0
 82 85  1  0
 83 87  1  0
 83 82  1  0
 84 83  2  0
 87 86  1  0
 89 87  1  0
 89 90  1  0
 89 88  1  0
M  ISO  4   9 100  10 100  49 101  50 101
M  END
>  <TORSDO>  (21) 
F 25

>  <SCORE>  (21) 
-12.005

>  <name>  (21) 
21

>  <ligand_id>  (21) 
21

>  <original_smiles>  (21) 
[H]C(C(=O)C([H])([H])C([H])([H])C([H])([H])C([H])([H])C(=O)N1C([H])([H])C([H])([H])C([H])([H])C([H])(n2nc(-c3c([H])c([H])c(Oc4c([H])c([H])c(F)c([H])c4F)c([H])c3[H])c(C(=O)N([H])[H])c2N([H])[H])C1([H])[H])=C(C([H])([H])[H])C([H])([H])C([H])([H])C([H])([H])C([H])([H])Oc1c([H])c([H])c2c(c1[H])C([H])([H])N(C(=O)C([H])(N([H])C(=O)C([H])(N([H])C([H])([H])[H])C([H])([H])[H])C(C([H])([H])[H])(C([H])([H])[H])C([H])([H])[H])C([H])(C(=O)N([H])C1([H])c3c([H])c([H])c([H])c([H])c3C([H])([H])C([H])([H])C1([H])[H])C2([H])[H]

>  <smiles>  (21) 
[H]C(C(=O)C([H])([H])C([H])([H])C([H])([H])C([H])([H])C(=O)N1C([H])([H])C([H])([H])C([H])([H])C([H])(n2nc(-c3c([H])c([H])c(Oc4c([H])c([H])c(F)c([H])c4F)c([H])c3[H])c(C(=O)N([H])[H])c2N([H])[H])C1([H])[H])=C(C([H])([H])[H])C([H])([H])C([H])([H])C([H])([H])C([H])([H])Oc1c([H])c([H])c2c(c1[H])C([H])([H])N(C(=O)C([H])(N([H])C(=O)C([H])(N([H])C([H])([H])[H])C([H])([H])[H])C(C([H])([H])[H])(C([H])([H])[H])C([H])([H])[H])C([H])(C(=O)N([H])C1([H])c3c([H])c([H])c([H])c([H])c3C([H])([H])C([H])([H])C1([H])[H])C2([H])[H]

$$$$
22:0:0
     RDKit          3D

 90 98  0  0  1  0  0  0  0  0999 V2000
  -30.3360  -19.8180   18.9930 C   0  0  0  0  0  2  0  0  0  0  0  0
  -28.7490  -19.7330   21.3160 C   0  0  0  0  0  2  0  0  0  0  0  0
  -29.2350  -18.3300   20.8060 C   0  0  0  0  0  3  0  0  0  0  0  0
  -30.4750  -18.2770   19.8400 C   0  0  0  0  0  3  0  0  0  0  0  0
  -29.6850  -21.3100   19.6760 C   0  0  0  0  0  3  0  0  0  0  0  0
  -29.4680  -17.4440   22.0460 C   0  0  0  0  0  1  0  0  0  0  0  0
  -27.4320  -21.7540   20.7180 C   0  0  0  0  0  1  0  0  0  0  0  0
  -28.4330  -20.7590   20.2680 N   0  0  2  0  0  4  0  0  0  0  0  0
  -27.9660  -20.2580   19.5250 H   0  0  0  0  0  0  0  0  0  0  0  0
  -31.2610  -15.4310   19.4060 C   0  0  0  0  0  0  0  0  0  0  0  0
  -31.0980  -12.9810   18.5580 C   0  0  0  0  0  2  0  0  0  0  0  0
  -30.0640  -12.7790   17.4260 C   0  0  0  0  0  2  0  0  0  0  0  0
  -28.6490  -12.5670   18.0000 C   0  0  0  0  0  2  0  0  0  0  0  0
  -28.3220  -13.5650   19.1380 C   0  0  0  0  0  3  0  0  0  0  0  0
  -29.4780  -13.7030   20.1470 C   0  0  0  0  0  2  0  0  0  0  0  0
  -30.6480  -14.1550   19.3780 N   0  0  0  0  0  0  0  0  0  0  0  0
  -32.4910  -15.4040   19.2630 O   0  0  0  0  0  0  0  0  0  0  0  0
  -30.4980  -16.6910   19.3320 N   0  0  0  0  0  0  0  0  0  0  0  0
  -29.5640  -16.4360   19.0540 H   0  0  0  0  0  0  0  0  0  0  0  0
  -26.0760  -14.2030   20.1700 C   0  0  0  0  0  0  0  0  0  0  0  0
  -25.0230  -13.4610   20.6230 C   0  0  0  0  0  0  0  0  0  0  0  0
  -25.4160  -12.0930   20.4980 C   0  0  0  0  0  0  0  0  0  0  0  0
  -27.0430  -13.2920   19.7830 N   0  0  0  0  0  0  0  0  0  0  0  0
  -26.6660  -12.0140   20.0510 N   0  0  0  0  0  0  0  0  0  0  0  0
  -24.6510  -10.8580   20.7160 C   0  0  0  0  0  0  0  0  0  0  0  0
  -25.0160   -9.9270   21.7150 C   0  0  0  0  0  3  0  0  0  0  0  0
  -24.2480   -8.7620   21.9220 C   0  0  0  0  0  3  0  0  0  0  0  0
  -23.1030   -8.5130   21.1290 C   0  0  0  0  0  0  0  0  0  0  0  0
  -22.7560   -9.4310   20.1220 C   0  0  0  0  0  3  0  0  0  0  0  0
  -23.5230  -10.5900   19.9130 C   0  0  0  0  0  3  0  0  0  0  0  0
  -22.3160   -7.3930   21.2390 O   0  0  0  0  0  0  0  0  0  0  0  0
  -22.0020   -6.8500   22.4590 C   0  0  0  0  0  0  0  0  0  0  0  0
  -21.3240   -7.5900   23.4520 C   0  0  0  0  0  3  0  0  0  0  0  0
  -20.9600   -6.9730   24.6660 C   0  0  0  0  0  3  0  0  0  0  0  0
  -21.2660   -5.6160   24.8860 C   0  0  0  0  0  0  0  0  0  0  0  0
  -21.9370   -4.8760   23.8960 C   0  0  0  0  0  3  0  0  0  0  0  0
  -22.3000   -5.4910   22.6860 C   0  0  0  0  0  0  0  0  0  0  0  0
  -22.9280   -4.7680   21.7260 F   0  0  0  0  0  0  0  0  0  0  0  0
  -20.9090   -5.0210   26.0470 F   0  0  0  0  0  0  0  0  0  0  0  0
  -23.6830  -13.9890   21.0470 C   0  0  0  0  0  0  0  0  0  0  0  0
  -23.0260  -13.3200   21.9860 N   0  0  0  0  0  0  0  0  0  0  0  0
  -23.2320  -15.0310   20.5730 O   0  0  0  0  0  0  0  0  0  0  0  0
  -23.4000  -12.4730   22.3910 H   0  0  0  0  0  0  0  0  0  0  0  0
  -22.1320  -13.6630   22.3090 H   0  0  0  0  0  0  0  0  0  0  0  0
  -26.2810  -15.5750   20.0230 N   0  0  0  0  0  0  0  0  0  0  0  0
  -25.5430  -16.2410   20.2210 H   0  0  0  0  0  0  0  0  0  0  0  0
  -27.0790  -15.9930   19.5660 H   0  0  0  0  0  0  0  0  0  0  0  0
  -29.5410  -22.9910   19.0360 C   0  0  0  0  0  3  0  0  0  0  0  0
  -28.7130  -24.4860   19.5810 C   0  0  0  0  0  3  0  0  0  0  0  0
  -28.7070  -26.0700   19.1640 O   0  0  0  0  0  0  0  0  0  0  0  0
  -24.6830  -31.3370   22.7820 C   0  0  0  0  0  0  0  0  0  0  0  0
  -27.5870  -27.0350   19.2860 C   0  0  0  0  0  0  0  0  0  0  0  0
  -23.5820  -30.0130   21.0240 C   0  0  0  0  0  3  0  0  0  0  0  0
  -25.1360  -28.6780   19.4480 C   0  0  0  0  0  0  0  0  0  0  0  0
  -26.1180  -30.4630   20.8750 C   0  0  0  0  0  2  0  0  0  0  0  0
  -26.2950  -29.1360   20.0870 C   0  0  0  0  0  0  0  0  0  0  0  0
  -27.5170  -28.3390   19.9760 C   0  0  0  0  0  3  0  0  0  0  0  0
  -26.3840  -26.7200   18.6190 C   0  0  0  0  0  3  0  0  0  0  0  0
  -25.2010  -27.4950   18.6950 C   0  0  0  0  0  3  0  0  0  0  0  0
  -23.8460  -29.4830   19.5870 C   0  0  0  0  0  2  0  0  0  0  0  0
  -24.8150  -30.6260   21.6180 N   0  0  0  0  0  0  0  0  0  0  0  0
  -23.5800  -31.4850   23.3350 O   0  0  0  0  0  0  0  0  0  0  0  0
  -22.9860  -28.8760   21.8920 C   0  0  0  0  0  0  0  0  0  0  0  0
  -21.6710  -28.6230   21.7690 N   0  0  0  0  0  0  0  0  0  0  0  0
  -23.7150  -28.2200   22.6400 O   0  0  0  0  0  0  0  0  0  0  0  0
  -21.1300  -29.2150   21.1550 H   0  0  0  0  0  0  0  0  0  0  0  0
  -18.3980  -27.1270   22.2200 C   0  0  0  0  0  0  0  0  0  0  0  0
  -20.9390  -27.5510   22.4500 C   0  0  0  0  0  3  0  0  0  0  0  0
  -21.1220  -26.1970   21.7230 C   0  0  0  0  0  2  0  0  0  0  0  0
  -20.0140  -25.9020   20.7060 C   0  0  0  0  0  2  0  0  0  0  0  0
  -18.6470  -25.8770   21.3910 C   0  0  0  0  0  2  0  0  0  0  0  0
  -19.4730  -27.9210   22.7040 C   0  0  0  0  0  0  0  0  0  0  0  0
  -19.1810  -29.0870   23.4430 C   0  0  0  0  0  3  0  0  0  0  0  0
  -17.8500  -29.4640   23.7000 C   0  0  0  0  0  3  0  0  0  0  0  0
  -16.7920  -28.6700   23.2280 C   0  0  0  0  0  3  0  0  0  0  0  0
  -17.0680  -27.5020   22.4950 C   0  0  0  0  0  3  0  0  0  0  0  0
  -25.9080  -32.0170   23.4670 C   0  0  0  0  0  3  0  0  0  0  0  0
  -25.4800  -33.3440   23.9440 N   0  0  0  0  0  0  0  0  0  0  0  0
  -25.7170  -34.5000   23.3090 C   0  0  0  0  0  0  0  0  0  0  0  0
  -26.3790  -34.5650   22.2700 O   0  0  0  0  0  0  0  0  0  0  0  0
  -24.8830  -33.3600   24.7560 H   0  0  0  0  0  0  0  0  0  0  0  0
  -23.8410  -36.1750   23.1720 C   0  0  0  0  0  1  0  0  0  0  0  0
  -25.1270  -35.7880   23.9200 C   0  0  0  0  0  3  0  0  0  0  0  0
  -27.1870  -36.7690   24.8300 C   0  0  0  0  0  1  0  0  0  0  0  0
  -26.0660  -36.9310   23.9070 N   0  0  0  0  0  0  0  0  0  0  0  0
  -25.5850  -37.7950   24.1400 H   0  0  0  0  0  0  0  0  0  0  0  0
  -26.4940  -31.1730   24.6660 C   0  0  1  0  0  0  0  0  0  0  0  0
  -25.4340  -30.7600   25.7140 C   0  0  0  0  0  1  0  0  0  0  0  0
  -27.1710  -29.8810   24.1540 C   0  0  0  0  0  1  0  0  0  0  0  0
  -27.5900  -31.9870   25.3920 C   0  0  0  0  0  1  0  0  0  0  0  0
  1  5  1  0
  1  4  1  0
  3  2  1  0
  3  6  1  0
  4 18  1  0
  4  3  1  0
  5 48  1  0
  5  8  1  0
  8  7  1  0
  8  2  1  0
  8  9  1  6
 11 16  1  0
 12 13  1  0
 12 11  1  0
 14 13  1  0
 14 23  1  0
 14 15  1  0
 16 10  1  0
 16 15  1  0
 17 10  2  0
 18 10  1  0
 19 18  1  0
 20 21  2  0
 21 40  1  0
 22 21  1  0
 22 25  1  0
 23 24  1  0
 23 20  1  0
 24 22  2  0
 25 26  1  0
 26 27  2  0
 28 31  1  0
 28 27  1  0
 29 28  2  0
 30 29  1  0
 30 25  2  0
 31 32  1  0
 32 37  2  0
 32 33  1  0
 33 34  2  0
 34 35  1  0
 35 39  1  0
 36 35  2  0
 37 36  1  0
 38 37  1  0
 40 41  1  0
 41 44  1  0
 41 43  1  0
 42 40  2  0
 45 20  1  0
 45 46  1  0
 47 45  1  0
 48 49  2  0
 50 52  1  0
 50 49  1  0
 51 62  2  0
 52 57  1  0
 53 61  1  0
 53 63  1  0
 54 60  1  0
 54 56  1  0
 55 61  1  0
 56 55  1  0
 57 56  2  0
 58 59  1  0
 58 52  2  0
 59 54  2  0
 60 53  1  0
 61 51  1  0
 63 65  2  0
 64 63  1  0
 66 64  1  0
 67 76  2  0
 67 72  1  0
 68 64  1  0
 68 72  1  0
 69 68  1  0
 70 71  1  0
 70 69  1  0
 71 67  1  0
 72 73  2  0
 73 74  1  0
 75 74  2  0
 76 75  1  0
 77 51  1  0
 77 78  1  0
 77 87  1  0
 78 81  1  0
 79 83  1  0
 79 78  1  0
 80 79  2  0
 83 82  1  0
 85 83  1  0
 85 86  1  0
 85 84  1  0
 87 90  1  1
 87 88  1  0
 89 87  1  0
M  ISO  4  10 100  18 100  49 101  50 101
M  END
>  <TORSDO>  (22) 
F 18

>  <SCORE>  (22) 
-10.499

>  <name>  (22) 
22

>  <ligand_id>  (22) 
22

>  <original_smiles>  (22) 
[H]c1c([H])c([H])c2c(c1[H])C([H])([H])C([H])([H])C([H])([H])C2([H])N([H])C(=O)C1([H])N(C(=O)C([H])(N([H])C(=O)C([H])(N([H])C([H])([H])[H])C([H])([H])[H])C(C([H])([H])[H])(C([H])([H])[H])C([H])([H])[H])C([H])([H])c2c([H])c(OC([H])([H])C([H])([H])C3([H])C([H])([H])C([H])(N([H])C(=O)N4C([H])([H])C([H])([H])C([H])([H])C([H])(n5nc(-c6c([H])c([H])c(Oc7c([H])c([H])c(F)c([H])c7F)c([H])c6[H])c(C(=O)N([H])[H])c5N([H])[H])C4([H])[H])C([H])(C([H])([H])[H])C([H])([H])[N+]3([H])C([H])([H])[H])c([H])c([H])c2C1([H])[H]

>  <smiles>  (22) 
[H]c1c([H])c([H])c2c(c1[H])C([H])([H])C([H])([H])C([H])([H])C2([H])N([H])C(=O)C1([H])N(C(=O)C([H])(N([H])C(=O)C([H])(N([H])C([H])([H])[H])C([H])([H])[H])C(C([H])([H])[H])(C([H])([H])[H])C([H])([H])[H])C([H])([H])c2c([H])c(OC([H])([H])C([H])([H])C3([H])C([H])([H])C([H])(N([H])C(=O)N4C([H])([H])C([H])([H])C([H])([H])C([H])(n5nc(-c6c([H])c([H])c(Oc7c([H])c([H])c(F)c([H])c7F)c([H])c6[H])c(C(=O)N([H])[H])c5N([H])[H])C4([H])[H])C([H])(C([H])([H])[H])C([H])([H])[N+]3([H])C([H])([H])[H])c([H])c([H])c2C1([H])[H]

$$$$
23:0:0
     RDKit          3D

 96103  0  0  1  0  0  0  0  0999 V2000
  -29.0660  -23.2350   21.1630 C   0  0  0  0  0  3  0  0  0  0  0  0
  -29.4690  -24.2050   18.8210 C   0  0  0  0  0  1  0  0  0  0  0  0
  -28.6280  -24.3140   20.1150 C   0  0  0  0  0  3  0  0  0  0  0  0
  -28.7050  -25.7560   20.6860 C   0  0  0  0  0  2  0  0  0  0  0  0
  -28.4520  -26.7820   19.7300 O   0  0  0  0  0  0  0  0  0  0  0  0
  -24.7150  -31.8100   23.1670 C   0  0  0  0  0  0  0  0  0  0  0  0
  -27.2710  -27.4670   19.8820 C   0  0  0  0  0  0  0  0  0  0  0  0
  -23.4540  -30.4350   21.5430 C   0  0  0  0  0  3  0  0  0  0  0  0
  -24.8620  -28.9330   20.0290 C   0  0  0  0  0  0  0  0  0  0  0  0
  -25.9680  -30.8100   21.2610 C   0  0  0  0  0  2  0  0  0  0  0  0
  -26.0350  -29.4550   20.5910 C   0  0  0  0  0  0  0  0  0  0  0  0
  -27.2420  -28.7270   20.5210 C   0  0  0  0  0  3  0  0  0  0  0  0
  -26.0860  -26.9450   19.3300 C   0  0  0  0  0  3  0  0  0  0  0  0
  -24.8800  -27.6740   19.4010 C   0  0  0  0  0  3  0  0  0  0  0  0
  -23.6110  -29.7810   20.1440 C   0  0  0  0  0  2  0  0  0  0  0  0
  -24.7330  -31.0330   22.0470 N   0  0  0  0  0  0  0  0  0  0  0  0
  -23.6530  -32.0700   23.7500 O   0  0  0  0  0  0  0  0  0  0  0  0
  -22.8440  -29.3920   22.5050 C   0  0  0  0  0  0  0  0  0  0  0  0
  -21.5220  -29.1890   22.3990 N   0  0  0  0  0  0  0  0  0  0  0  0
  -23.5570  -28.7690   23.2950 O   0  0  0  0  0  0  0  0  0  0  0  0
  -21.0130  -29.7410   21.7250 H   0  0  0  0  0  0  0  0  0  0  0  0
  -18.1800  -27.9220   22.9250 C   0  0  0  0  0  0  0  0  0  0  0  0
  -20.7350  -28.2270   23.1700 C   0  0  0  0  0  3  0  0  0  0  0  0
  -20.8620  -26.8060   22.5750 C   0  0  0  0  0  2  0  0  0  0  0  0
  -19.7520  -26.4700   21.5740 C   0  0  0  0  0  2  0  0  0  0  0  0
  -18.3770  -26.5820   22.2350 C   0  0  0  0  0  2  0  0  0  0  0  0
  -19.2880  -28.7030   23.3470 C   0  0  0  0  0  0  0  0  0  0  0  0
  -19.0510  -29.9580   23.9470 C   0  0  0  0  0  3  0  0  0  0  0  0
  -17.7380  -30.4310   24.1330 C   0  0  0  0  0  3  0  0  0  0  0  0
  -16.6460  -29.6460   23.7280 C   0  0  0  0  0  3  0  0  0  0  0  0
  -16.8680  -28.3940   23.1280 C   0  0  0  0  0  3  0  0  0  0  0  0
  -26.0210  -32.4290   23.7530 C   0  0  0  0  0  3  0  0  0  0  0  0
  -26.5930  -31.6230   24.9830 C   0  0  1  0  0  0  0  0  0  0  0  0
  -25.5440  -31.3460   26.0850 C   0  0  0  0  0  1  0  0  0  0  0  0
  -27.1690  -30.2600   24.5280 C   0  0  0  0  0  1  0  0  0  0  0  0
  -27.7640  -32.4050   25.6230 C   0  0  0  0  0  1  0  0  0  0  0  0
  -25.7190  -33.8130   24.1350 N   0  0  0  0  0  0  0  0  0  0  0  0
  -26.0230  -34.8900   23.3970 C   0  0  0  0  0  0  0  0  0  0  0  0
  -26.6630  -34.8210   22.3440 O   0  0  0  0  0  0  0  0  0  0  0  0
  -25.1430  -33.9400   24.9540 H   0  0  0  0  0  0  0  0  0  0  0  0
  -24.2740  -36.6820   23.1480 C   0  0  0  0  0  1  0  0  0  0  0  0
  -25.5420  -36.2610   23.9090 C   0  0  0  0  0  3  0  0  0  0  0  0
  -27.6950  -37.1360   24.7000 C   0  0  0  0  0  1  0  0  0  0  0  0
  -26.5640  -37.3240   23.7950 N   0  0  0  0  0  0  0  0  0  0  0  0
  -26.1590  -38.2370   23.9790 H   0  0  0  0  0  0  0  0  0  0  0  0
  -28.8740  -21.9060   20.5510 N   0  0  0  0  0  0  0  0  0  0  0  0
  -29.1740  -21.9610   19.5810 H   0  0  0  0  0  0  0  0  0  0  0  0
  -29.5440  -20.7560   21.1800 C   0  0  0  0  0  2  0  0  0  0  0  0
  -27.7400  -19.2450   20.2140 C   0  0  0  0  0  1  0  0  0  0  0  0
  -29.2610  -19.4180   20.4200 C   0  0  0  0  0  3  0  0  0  0  0  0
  -29.8180  -18.2410   21.1480 N   0  0  0  0  0  4  0  0  0  0  0  0
  -30.7090  -18.5040   21.5340 H   0  0  0  0  0  0  0  0  0  0  0  0
  -29.2100  -18.0350   21.9250 H   0  0  0  0  0  0  0  0  0  0  0  0
  -30.0330  -17.0090   20.3280 C   0  0  0  0  0  2  0  0  0  0  0  0
  -30.1920  -15.7040   21.1580 C   0  0  0  0  0  2  0  0  0  0  0  0
  -30.7820  -14.5260   20.3340 C   0  0  0  0  0  0  0  0  0  0  0  0
  -30.4820  -12.3890   19.1230 C   0  0  0  0  0  2  0  0  0  0  0  0
  -29.5210  -12.5980   17.9340 C   0  0  0  0  0  2  0  0  0  0  0  0
  -28.0470  -12.4780   18.3750 C   0  0  0  0  0  2  0  0  0  0  0  0
  -27.7350  -13.2880   19.6630 C   0  0  0  0  0  3  0  0  0  0  0  0
  -28.8020  -13.0090   20.7440 C   0  0  0  0  0  2  0  0  0  0  0  0
  -30.1130  -13.3490   20.1740 N   0  0  0  0  0  0  0  0  0  0  0  0
  -31.8660  -14.7270   19.7770 O   0  0  0  0  0  0  0  0  0  0  0  0
  -25.3360  -13.8940   20.3800 C   0  0  0  0  0  0  0  0  0  0  0  0
  -24.2750  -13.1220   20.7700 C   0  0  0  0  0  0  0  0  0  0  0  0
  -24.7420  -11.7720   20.7500 C   0  0  0  0  0  0  0  0  0  0  0  0
  -26.3850  -13.0150   20.1510 N   0  0  0  0  0  0  0  0  0  0  0  0
  -26.0290  -11.7350   20.4280 N   0  0  0  0  0  0  0  0  0  0  0  0
  -24.0250  -10.5100   20.9610 C   0  0  0  0  0  0  0  0  0  0  0  0
  -24.4650   -9.5550   21.9050 C   0  0  0  0  0  3  0  0  0  0  0  0
  -23.7460   -8.3560   22.1000 C   0  0  0  0  0  3  0  0  0  0  0  0
  -22.5700   -8.1070   21.3510 C   0  0  0  0  0  0  0  0  0  0  0  0
  -22.1520   -9.0470   20.3930 C   0  0  0  0  0  3  0  0  0  0  0  0
  -22.8740  -10.2350   20.1960 C   0  0  0  0  0  3  0  0  0  0  0  0
  -21.8150   -6.9640   21.4590 O   0  0  0  0  0  0  0  0  0  0  0  0
  -21.7590   -6.2460   22.6260 C   0  0  0  0  0  0  0  0  0  0  0  0
  -21.3190   -6.8220   23.8380 C   0  0  0  0  0  3  0  0  0  0  0  0
  -21.2100   -6.0290   24.9980 C   0  0  0  0  0  3  0  0  0  0  0  0
  -21.5360   -4.6600   24.9470 C   0  0  0  0  0  0  0  0  0  0  0  0
  -21.9710   -4.0830   23.7390 C   0  0  0  0  0  3  0  0  0  0  0  0
  -22.0790   -4.8740   22.5820 C   0  0  0  0  0  0  0  0  0  0  0  0
  -22.4800   -4.3070   21.4190 F   0  0  0  0  0  0  0  0  0  0  0  0
  -21.4240   -3.8950   26.0570 F   0  0  0  0  0  0  0  0  0  0  0  0
  -22.8760  -13.5940   21.0490 C   0  0  0  0  0  0  0  0  0  0  0  0
  -22.1620  -12.9100   21.9350 N   0  0  0  0  0  0  0  0  0  0  0  0
  -22.4270  -14.6090   20.5170 O   0  0  0  0  0  0  0  0  0  0  0  0
  -22.5380  -12.0890   22.3880 H   0  0  0  0  0  0  0  0  0  0  0  0
  -21.2230  -13.2070   22.1620 H   0  0  0  0  0  0  0  0  0  0  0  0
  -25.4950  -15.2640   20.1850 N   0  0  0  0  0  0  0  0  0  0  0  0
  -24.7260  -15.9190   20.2810 H   0  0  0  0  0  0  0  0  0  0  0  0
  -26.3370  -15.6910   19.8210 H   0  0  0  0  0  0  0  0  0  0  0  0
  -28.2680  -23.3500   22.5070 C   0  0  0  0  0  2  0  0  0  0  0  0
  -30.3270  -23.1180   23.9550 C   0  0  0  0  0  1  0  0  0  0  0  0
  -29.1260  -25.2550   23.9070 C   0  0  0  0  0  1  0  0  0  0  0  0
  -29.0290  -23.7900   23.7170 N   0  0  1  0  0  4  0  0  0  0  0  0
  -28.4430  -23.4920   24.4830 H   0  0  0  0  0  0  0  0  0  0  0  0
  1 92  1  0
  3  2  1  0
  3  4  1  0
  3  1  1  0
  5  7  1  0
  5  4  1  0
  6 17  2  0
  7 12  1  0
  8 16  1  0
  8 18  1  0
  9 15  1  0
  9 11  1  0
 10 16  1  0
 11 10  1  0
 12 11  2  0
 13 14  1  0
 13  7  2  0
 14  9  2  0
 15  8  1  0
 16  6  1  0
 18 20  2  0
 19 18  1  0
 21 19  1  0
 22 31  2  0
 22 27  1  0
 23 19  1  0
 23 27  1  0
 24 23  1  0
 25 26  1  0
 25 24  1  0
 26 22  1  0
 27 28  2  0
 28 29  1  0
 30 29  2  0
 31 30  1  0
 32  6  1  0
 32 37  1  0
 32 33  1  0
 33 36  1  1
 33 34  1  0
 35 33  1  0
 37 40  1  0
 38 42  1  0
 38 37  1  0
 39 38  2  0
 42 41  1  0
 44 42  1  0
 44 45  1  0
 44 43  1  0
 46  1  1  0
 46 48  1  0
 47 46  1  0
 50 49  1  0
 50 51  1  0
 50 48  1  0
 51 52  1  0
 51 53  1  0
 54 51  1  0
 54 55  1  0
 56 55  1  0
 57 62  1  0
 58 59  1  0
 58 57  1  0
 60 59  1  0
 60 67  1  0
 60 61  1  0
 62 56  1  0
 62 61  1  0
 63 56  2  0
 64 65  2  0
 65 84  1  0
 66 65  1  0
 66 69  1  0
 67 64  1  0
 67 68  1  0
 68 66  2  0
 69 70  1  0
 70 71  2  0
 72 75  1  0
 72 71  1  0
 73 72  2  0
 74 73  1  0
 74 69  2  0
 75 76  1  0
 76 77  1  0
 77 78  2  0
 79 78  1  0
 79 83  1  0
 80 79  2  0
 81 76  2  0
 81 80  1  0
 82 81  1  0
 84 85  1  0
 85 88  1  0
 85 87  1  0
 86 84  2  0
 89 90  1  0
 89 64  1  0
 91 89  1  0
 92 95  1  0
 95 94  1  0
 95 93  1  0
 95 96  1  1
M  ISO  4   4 101   5 101  55 100  56 100
M  END
>  <TORSDO>  (23) 
F 26

>  <SCORE>  (23) 
-11.099

>  <name>  (23) 
23

>  <ligand_id>  (23) 
23

>  <original_smiles>  (23) 
[H]c1c([H])c([H])c2c(c1[H])C([H])([H])C([H])([H])C([H])([H])C2([H])N([H])C(=O)C1([H])N(C(=O)C([H])(N([H])C(=O)C([H])(N([H])C([H])([H])[H])C([H])([H])[H])C(C([H])([H])[H])(C([H])([H])[H])C([H])([H])[H])C([H])([H])c2c([H])c(OC([H])([H])C([H])(C([H])([H])[H])C([H])(N([H])C([H])([H])C([H])(C([H])([H])[H])[N+]([H])([H])C([H])([H])C([H])([H])C(=O)N3C([H])([H])C([H])([H])C([H])([H])C([H])(n4nc(-c5c([H])c([H])c(Oc6c([H])c([H])c(F)c([H])c6F)c([H])c5[H])c(C(=O)N([H])[H])c4N([H])[H])C3([H])[H])C([H])([H])[N+]([H])(C([H])([H])[H])C([H])([H])[H])c([H])c([H])c2C1([H])[H]

>  <smiles>  (23) 
[H]c1c([H])c([H])c2c(c1[H])C([H])([H])C([H])([H])C([H])([H])C2([H])N([H])C(=O)C1([H])N(C(=O)C([H])(N([H])C(=O)C([H])(N([H])C([H])([H])[H])C([H])([H])[H])C(C([H])([H])[H])(C([H])([H])[H])C([H])([H])[H])C([H])([H])c2c([H])c(OC([H])([H])C([H])(C([H])([H])[H])C([H])(N([H])C([H])([H])C([H])(C([H])([H])[H])[N+]([H])([H])C([H])([H])C([H])([H])C(=O)N3C([H])([H])C([H])([H])C([H])([H])C([H])(n4nc(-c5c([H])c([H])c(Oc6c([H])c([H])c(F)c([H])c6F)c([H])c5[H])c(C(=O)N([H])[H])c4N([H])[H])C3([H])[H])C([H])([H])[N+]([H])(C([H])([H])[H])C([H])([H])[H])c([H])c([H])c2C1([H])[H]

$$$$
24:0:0
     RDKit          3D

 89 96  0  0  1  0  0  0  0  0999 V2000
  -29.2130  -21.4080   20.5330 C   0  0  0  0  0  3  0  0  0  0  0  0
  -30.3830  -21.5800   21.4130 N   0  0  0  0  0  4  0  0  0  0  0  0
  -31.2190  -21.7220   20.8740 H   0  0  0  0  0  0  0  0  0  0  0  0
  -30.5100  -20.7750   21.9990 H   0  0  0  0  0  0  0  0  0  0  0  0
  -30.2600  -22.3760   22.0150 H   0  0  0  0  0  0  0  0  0  0  0  0
  -28.8720  -23.0080   19.8850 C   0  0  0  0  0  2  0  0  0  0  0  0
  -28.2670  -24.4670   20.6560 C   0  0  0  0  0  2  0  0  0  0  0  0
  -28.4390  -26.0430   20.3830 O   0  0  0  0  0  0  0  0  0  0  0  0
  -24.6800  -31.8980   23.1560 C   0  0  0  0  0  0  0  0  0  0  0  0
  -27.3710  -27.0480   20.3420 C   0  0  0  0  0  0  0  0  0  0  0  0
  -23.5340  -30.4410   21.5350 C   0  0  0  0  0  3  0  0  0  0  0  0
  -25.0320  -28.8220   20.1960 C   0  0  0  0  0  0  0  0  0  0  0  0
  -26.0940  -30.7090   21.4210 C   0  0  0  0  0  2  0  0  0  0  0  0
  -26.1980  -29.2880   20.8170 C   0  0  0  0  0  0  0  0  0  0  0  0
  -27.3690  -28.4210   20.8610 C   0  0  0  0  0  3  0  0  0  0  0  0
  -26.1720  -26.7020   19.6830 C   0  0  0  0  0  3  0  0  0  0  0  0
  -25.0370  -27.5450   19.6110 C   0  0  0  0  0  3  0  0  0  0  0  0
  -23.7980  -29.7190   20.1840 C   0  0  0  0  0  2  0  0  0  0  0  0
  -24.7890  -31.0420   22.0910 N   0  0  0  0  0  0  0  0  0  0  0  0
  -23.5790  -32.1870   23.6510 O   0  0  0  0  0  0  0  0  0  0  0  0
  -22.8400  -29.4600   22.5140 C   0  0  0  0  0  0  0  0  0  0  0  0
  -21.5170  -29.2670   22.3610 N   0  0  0  0  0  0  0  0  0  0  0  0
  -23.4970  -28.8730   23.3780 O   0  0  0  0  0  0  0  0  0  0  0  0
  -21.0420  -29.7950   21.6430 H   0  0  0  0  0  0  0  0  0  0  0  0
  -18.1470  -28.0060   22.8030 C   0  0  0  0  0  0  0  0  0  0  0  0
  -20.6890  -28.3410   23.1410 C   0  0  0  0  0  3  0  0  0  0  0  0
  -20.8410  -26.8900   22.6270 C   0  0  0  0  0  2  0  0  0  0  0  0
  -19.7820  -26.5020   21.5910 C   0  0  0  0  0  2  0  0  0  0  0  0
  -18.3770  -26.6370   22.1840 C   0  0  0  0  0  2  0  0  0  0  0  0
  -19.2330  -28.8110   23.2370 C   0  0  0  0  0  0  0  0  0  0  0  0
  -18.9650  -30.0880   23.7780 C   0  0  0  0  0  3  0  0  0  0  0  0
  -17.6430  -30.5600   23.8870 C   0  0  0  0  0  3  0  0  0  0  0  0
  -16.5710  -29.7520   23.4680 C   0  0  0  0  0  3  0  0  0  0  0  0
  -16.8240  -28.4770   22.9320 C   0  0  0  0  0  3  0  0  0  0  0  0
  -25.9340  -32.5720   23.7950 C   0  0  0  0  0  3  0  0  0  0  0  0
  -25.5780  -33.9610   24.1300 N   0  0  0  0  0  0  0  0  0  0  0  0
  -25.8820  -35.0320   23.3850 C   0  0  0  0  0  0  0  0  0  0  0  0
  -26.5550  -34.9560   22.3540 O   0  0  0  0  0  0  0  0  0  0  0  0
  -24.9790  -34.0900   24.9330 H   0  0  0  0  0  0  0  0  0  0  0  0
  -24.1080  -36.7860   23.0480 C   0  0  0  0  0  1  0  0  0  0  0  0
  -25.3580  -36.4040   23.8570 C   0  0  0  0  0  3  0  0  0  0  0  0
  -27.4590  -37.3480   24.7090 C   0  0  0  0  0  1  0  0  0  0  0  0
  -26.3620  -37.4850   23.7550 N   0  0  0  0  0  0  0  0  0  0  0  0
  -25.9300  -38.3930   23.9000 H   0  0  0  0  0  0  0  0  0  0  0  0
  -26.4550  -31.8170   25.0800 C   0  0  1  0  0  0  0  0  0  0  0  0
  -25.3550  -31.5370   26.1310 C   0  0  0  0  0  1  0  0  0  0  0  0
  -27.0940  -30.4610   24.7000 C   0  0  0  0  0  1  0  0  0  0  0  0
  -27.5660  -32.6500   25.7610 C   0  0  0  0  0  1  0  0  0  0  0  0
  -29.4000  -19.8450   19.7270 C   0  0  0  0  0  2  0  0  0  0  0  0
  -31.7140  -18.5920   19.8940 C   0  0  0  0  0  1  0  0  0  0  0  0
  -30.0550  -18.2820   21.7340 C   0  0  0  0  0  1  0  0  0  0  0  0
  -30.2250  -18.3550   20.2070 C   0  0  1  0  0  0  0  0  0  0  0  0
  -29.9170  -16.7080   19.6670 C   0  0  0  0  0  2  0  0  0  0  0  0
  -30.7650  -15.2090   19.7850 C   0  0  0  0  0  0  0  0  0  0  0  0
  -30.6520  -12.7870   18.9430 C   0  0  0  0  0  2  0  0  0  0  0  0
  -29.6420  -12.6630   17.7730 C   0  0  0  0  0  2  0  0  0  0  0  0
  -28.2130  -12.4340   18.3030 C   0  0  0  0  0  2  0  0  0  0  0  0
  -27.8650  -13.3880   19.4730 C   0  0  0  0  0  3  0  0  0  0  0  0
  -28.9900  -13.4770   20.5220 C   0  0  0  0  0  2  0  0  0  0  0  0
  -30.2070  -13.9150   19.8270 N   0  0  0  0  0  0  0  0  0  0  0  0
  -31.9770  -15.2110   19.5320 O   0  0  0  0  0  0  0  0  0  0  0  0
  -25.5760  -13.9730   20.4450 C   0  0  0  0  0  0  0  0  0  0  0  0
  -24.5260  -13.2040   20.8610 C   0  0  0  0  0  0  0  0  0  0  0  0
  -24.9500  -11.8460   20.7300 C   0  0  0  0  0  0  0  0  0  0  0  0
  -26.5710  -13.0860   20.0740 N   0  0  0  0  0  0  0  0  0  0  0  0
  -26.2120  -11.7970   20.3140 N   0  0  0  0  0  0  0  0  0  0  0  0
  -24.2060  -10.5940   20.9190 C   0  0  0  0  0  0  0  0  0  0  0  0
  -24.6270   -9.6160   21.8480 C   0  0  0  0  0  3  0  0  0  0  0  0
  -23.8810   -8.4310   22.0260 C   0  0  0  0  0  3  0  0  0  0  0  0
  -22.7010   -8.2150   21.2760 C   0  0  0  0  0  0  0  0  0  0  0  0
  -22.3000   -9.1800   20.3350 C   0  0  0  0  0  3  0  0  0  0  0  0
  -23.0450  -10.3570   20.1560 C   0  0  0  0  0  3  0  0  0  0  0  0
  -21.9280   -7.0810   21.3630 O   0  0  0  0  0  0  0  0  0  0  0  0
  -21.8040   -6.3830   22.5370 C   0  0  0  0  0  0  0  0  0  0  0  0
  -21.2580   -6.9700   23.6990 C   0  0  0  0  0  3  0  0  0  0  0  0
  -21.0840   -6.1960   24.8640 C   0  0  0  0  0  3  0  0  0  0  0  0
  -21.4470   -4.8360   24.8670 C   0  0  0  0  0  0  0  0  0  0  0  0
  -21.9860   -4.2490   23.7090 C   0  0  0  0  0  3  0  0  0  0  0  0
  -22.1600   -5.0200   22.5470 C   0  0  0  0  0  0  0  0  0  0  0  0
  -22.6610   -4.4440   21.4270 F   0  0  0  0  0  0  0  0  0  0  0  0
  -21.2730   -4.0900   25.9830 F   0  0  0  0  0  0  0  0  0  0  0  0
  -23.1680  -13.7010   21.2630 C   0  0  0  0  0  0  0  0  0  0  0  0
  -22.4900  -12.9800   22.1490 N   0  0  0  0  0  0  0  0  0  0  0  0
  -22.7200  -14.7600   20.8260 O   0  0  0  0  0  0  0  0  0  0  0  0
  -22.8670  -12.1210   22.5200 H   0  0  0  0  0  0  0  0  0  0  0  0
  -21.5820  -13.2930   22.4630 H   0  0  0  0  0  0  0  0  0  0  0  0
  -25.7630  -15.3470   20.3220 N   0  0  0  0  0  0  0  0  0  0  0  0
  -25.0270  -16.0120   20.5340 H   0  0  0  0  0  0  0  0  0  0  0  0
  -26.5970  -15.7850   19.9550 H   0  0  0  0  0  0  0  0  0  0  0  0
  1 49  1  0
  1  2  1  0
  2  4  1  0
  2  5  1  0
  3  2  1  0
  6  1  1  0
  6  7  1  0
  8  7  1  0
  9 20  2  0
 10  8  1  0
 10 15  1  0
 11 19  1  0
 11 21  1  0
 12 14  1  0
 13 19  1  0
 14 15  2  0
 14 13  1  0
 16 10  2  0
 17 16  1  0
 17 12  2  0
 18 12  1  0
 18 11  1  0
 19  9  1  0
 21 23  2  0
 22 21  1  0
 24 22  1  0
 25 34  2  0
 25 30  1  0
 26 22  1  0
 26 30  1  0
 27 26  1  0
 28 29  1  0
 28 27  1  0
 29 25  1  0
 30 31  2  0
 31 32  1  0
 33 32  2  0
 34 33  1  0
 35  9  1  0
 35 36  1  0
 35 45  1  0
 36 39  1  0
 37 41  1  0
 37 36  1  0
 38 37  2  0
 41 40  1  0
 43 41  1  0
 43 44  1  0
 43 42  1  0
 45 48  1  1
 45 46  1  0
 47 45  1  0
 49 52  1  0
 52 50  1  1
 52 51  1  0
 53 54  1  0
 53 52  1  0
 54 60  1  0
 55 60  1  0
 56 57  1  0
 56 55  1  0
 58 57  1  0
 58 65  1  0
 58 59  1  0
 60 59  1  0
 61 54  2  0
 62 63  2  0
 63 82  1  0
 64 63  1  0
 64 67  1  0
 65 66  1  0
 65 62  1  0
 66 64  2  0
 67 68  1  0
 68 69  2  0
 70 73  1  0
 70 69  1  0
 71 70  2  0
 72 71  1  0
 72 67  2  0
 73 74  1  0
 74 79  2  0
 74 75  1  0
 75 76  2  0
 76 77  1  0
 77 81  1  0
 78 77  2  0
 79 78  1  0
 80 79  1  0
 82 83  1  0
 83 86  1  0
 83 85  1  0
 84 82  2  0
 87 62  1  0
 87 88  1  0
 89 87  1  0
M  ISO  4   7 101   8 101  53 100  54 100
M  END
>  <TORSDO>  (24) 
F 22

>  <SCORE>  (24) 
-15.478

>  <name>  (24) 
24

>  <ligand_id>  (24) 
24

>  <original_smiles>  (24) 
[H]c1c([H])c([H])c2c(c1[H])C([H])([H])C([H])([H])C([H])([H])C2([H])N([H])C(=O)C1([H])N(C(=O)C([H])(N([H])C(=O)C([H])(N([H])C([H])([H])[H])C([H])([H])[H])C(C([H])([H])[H])(C([H])([H])[H])C([H])([H])[H])C([H])([H])c2c([H])c(OC([H])([H])C([H])([H])C([H])(C([H])([H])C(C([H])([H])[H])(C([H])([H])[H])C([H])([H])C(=O)N3C([H])([H])C([H])([H])C([H])([H])C([H])(n4nc(-c5c([H])c([H])c(Oc6c([H])c([H])c(F)c([H])c6F)c([H])c5[H])c(C(=O)N([H])[H])c4N([H])[H])C3([H])[H])[N+]([H])([H])[H])c([H])c([H])c2C1([H])[H]

>  <smiles>  (24) 
[H]c1c([H])c([H])c2c(c1[H])C([H])([H])C([H])([H])C([H])([H])C2([H])N([H])C(=O)C1([H])N(C(=O)C([H])(N([H])C(=O)C([H])(N([H])C([H])([H])[H])C([H])([H])[H])C(C([H])([H])[H])(C([H])([H])[H])C([H])([H])[H])C([H])([H])c2c([H])c(OC([H])([H])C([H])([H])C([H])(C([H])([H])C(C([H])([H])[H])(C([H])([H])[H])C([H])([H])C(=O)N3C([H])([H])C([H])([H])C([H])([H])C([H])(n4nc(-c5c([H])c([H])c(Oc6c([H])c([H])c(F)c([H])c6F)c([H])c5[H])c(C(=O)N([H])[H])c4N([H])[H])C3([H])[H])[N+]([H])([H])[H])c([H])c([H])c2C1([H])[H]

$$$$
25:0:0
     RDKit          3D

 95102  0  0  1  0  0  0  0  0999 V2000
  -29.9280  -21.8040   22.0240 C   0  0  0  0  0  1  0  0  0  0  0  0
  -29.5030  -21.8490   20.5420 C   0  0  0  0  0  3  0  0  0  0  0  0
  -28.5360  -22.9580   20.2780 N   0  0  0  0  0  4  0  0  0  0  0  0
  -28.2210  -22.8430   19.3260 H   0  0  0  0  0  0  0  0  0  0  0  0
  -27.7300  -22.8140   20.8670 H   0  0  0  0  0  0  0  0  0  0  0  0
  -28.9980  -24.3760   20.4340 C   0  0  0  0  0  2  0  0  0  0  0  0
  -27.9370  -25.3620   19.8760 C   0  0  0  0  0  2  0  0  0  0  0  0
  -28.1200  -26.7700   20.1660 O   0  0  0  0  0  0  0  0  0  0  0  0
  -24.3940  -31.9840   23.3190 C   0  0  0  0  0  0  0  0  0  0  0  0
  -26.9660  -27.5440   20.1450 C   0  0  0  0  0  0  0  0  0  0  0  0
  -23.1520  -30.5860   21.7070 C   0  0  0  0  0  3  0  0  0  0  0  0
  -24.5710  -29.0730   20.2260 C   0  0  0  0  0  0  0  0  0  0  0  0
  -25.6750  -30.9510   21.4440 C   0  0  0  0  0  2  0  0  0  0  0  0
  -25.7480  -29.5850   20.7900 C   0  0  0  0  0  0  0  0  0  0  0  0
  -26.9470  -28.8290   20.7460 C   0  0  0  0  0  3  0  0  0  0  0  0
  -25.7660  -27.0730   19.5530 C   0  0  0  0  0  3  0  0  0  0  0  0
  -24.5780  -27.8180   19.6040 C   0  0  0  0  0  3  0  0  0  0  0  0
  -23.3260  -29.9240   20.3150 C   0  0  0  0  0  2  0  0  0  0  0  0
  -24.4270  -31.1880   22.2140 N   0  0  0  0  0  0  0  0  0  0  0  0
  -23.3260  -32.2480   23.8900 O   0  0  0  0  0  0  0  0  0  0  0  0
  -22.5330  -29.5520   22.6760 C   0  0  0  0  0  0  0  0  0  0  0  0
  -21.2280  -29.2760   22.5060 N   0  0  0  0  0  0  0  0  0  0  0  0
  -23.2240  -29.0020   23.5370 O   0  0  0  0  0  0  0  0  0  0  0  0
  -20.7310  -29.7770   21.7840 H   0  0  0  0  0  0  0  0  0  0  0  0
  -17.9480  -27.7990   22.8530 C   0  0  0  0  0  0  0  0  0  0  0  0
  -20.4460  -28.3120   23.2790 C   0  0  0  0  0  3  0  0  0  0  0  0
  -20.7180  -26.8650   22.8050 C   0  0  0  0  0  2  0  0  0  0  0  0
  -19.7270  -26.3820   21.7430 C   0  0  0  0  0  2  0  0  0  0  0  0
  -18.2930  -26.4340   22.2810 C   0  0  0  0  0  2  0  0  0  0  0  0
  -18.9590  -28.6870   23.3070 C   0  0  0  0  0  0  0  0  0  0  0  0
  -18.5860  -29.9570   23.7970 C   0  0  0  0  0  3  0  0  0  0  0  0
  -17.2330  -30.3440   23.8410 C   0  0  0  0  0  3  0  0  0  0  0  0
  -16.2350  -29.4550   23.4050 C   0  0  0  0  0  3  0  0  0  0  0  0
  -16.5920  -28.1860   22.9170 C   0  0  0  0  0  3  0  0  0  0  0  0
  -25.6930  -32.6210   23.9060 C   0  0  0  0  0  3  0  0  0  0  0  0
  -25.4070  -34.0350   24.1760 N   0  0  0  0  0  0  0  0  0  0  0  0
  -25.7230  -35.0450   23.3540 C   0  0  0  0  0  0  0  0  0  0  0  0
  -26.3560  -34.8830   22.3080 O   0  0  0  0  0  0  0  0  0  0  0  0
  -24.8410  -34.2340   24.9880 H   0  0  0  0  0  0  0  0  0  0  0  0
  -23.9960  -36.8330   22.9700 C   0  0  0  0  0  1  0  0  0  0  0  0
  -25.2630  -36.4590   23.7570 C   0  0  0  0  0  3  0  0  0  0  0  0
  -27.4280  -37.3700   24.4710 C   0  0  0  0  0  1  0  0  0  0  0  0
  -26.2990  -37.4950   23.5540 N   0  0  0  0  0  0  0  0  0  0  0  0
  -25.9040  -38.4250   23.6620 H   0  0  0  0  0  0  0  0  0  0  0  0
  -26.2040  -31.8950   25.2100 C   0  0  1  0  0  0  0  0  0  0  0  0
  -25.1050  -31.6810   26.2750 C   0  0  0  0  0  1  0  0  0  0  0  0
  -26.8030  -30.5110   24.8650 C   0  0  0  0  0  1  0  0  0  0  0  0
  -27.3430  -32.7200   25.8550 C   0  0  0  0  0  1  0  0  0  0  0  0
  -28.8990  -20.4840   20.0800 C   0  0  0  0  0  2  0  0  0  0  0  0
  -29.5270  -18.0680   19.8830 C   0  0  0  0  0  0  0  0  0  0  0  0
  -29.8540  -19.3650   20.0440 N   0  0  0  0  0  0  0  0  0  0  0  0
  -28.3610  -17.7010   19.7280 O   0  0  0  0  0  0  0  0  0  0  0  0
  -30.8350  -19.5870   20.1530 H   0  0  0  0  0  0  0  0  0  0  0  0
  -30.6700  -17.0230   19.9040 C   0  0  0  0  0  3  0  0  0  0  0  0
  -30.7170  -14.5930   19.2320 C   0  0  0  0  0  0  0  0  0  0  0  0
  -30.2530  -12.3490   18.3140 C   0  0  0  0  0  2  0  0  0  0  0  0
  -29.1520  -12.4480   17.2400 C   0  0  0  0  0  2  0  0  0  0  0  0
  -27.7530  -12.3600   17.8830 C   0  0  0  0  0  2  0  0  0  0  0  0
  -27.5910  -13.3140   19.0970 C   0  0  0  0  0  3  0  0  0  0  0  0
  -28.7900  -13.1870   20.0640 C   0  0  0  0  0  2  0  0  0  0  0  0
  -30.0210  -13.4250   19.2900 N   0  0  0  0  0  0  0  0  0  0  0  0
  -31.7490  -14.7210   18.5680 O   0  0  0  0  0  0  0  0  0  0  0  0
  -30.1520  -15.6430   19.8500 N   0  0  0  0  0  0  0  0  0  0  0  0
  -29.2560  -15.4950   20.2860 H   0  0  0  0  0  0  0  0  0  0  0  0
  -25.3920  -14.0240   20.2310 C   0  0  0  0  0  0  0  0  0  0  0  0
  -24.3440  -13.2980   20.7290 C   0  0  0  0  0  0  0  0  0  0  0  0
  -24.6920  -11.9250   20.5460 C   0  0  0  0  0  0  0  0  0  0  0  0
  -26.3180  -13.0950   19.7810 N   0  0  0  0  0  0  0  0  0  0  0  0
  -25.9080  -11.8230   20.0250 N   0  0  0  0  0  0  0  0  0  0  0  0
  -23.9140  -10.7020   20.7860 C   0  0  0  0  0  0  0  0  0  0  0  0
  -24.3720   -9.6960   21.6660 C   0  0  0  0  0  3  0  0  0  0  0  0
  -23.5980   -8.5380   21.8940 C   0  0  0  0  0  3  0  0  0  0  0  0
  -22.3520   -8.3770   21.2430 C   0  0  0  0  0  0  0  0  0  0  0  0
  -21.9130   -9.3700   20.3510 C   0  0  0  0  0  3  0  0  0  0  0  0
  -22.6860  -10.5200   20.1210 C   0  0  0  0  0  3  0  0  0  0  0  0
  -21.5460   -7.2740   21.3830 O   0  0  0  0  0  0  0  0  0  0  0  0
  -21.5030   -6.5580   22.5520 C   0  0  0  0  0  0  0  0  0  0  0  0
  -21.1400   -7.1540   23.7790 C   0  0  0  0  0  3  0  0  0  0  0  0
  -21.0410   -6.3660   24.9430 C   0  0  0  0  0  3  0  0  0  0  0  0
  -21.2940   -4.9840   24.8820 C   0  0  0  0  0  0  0  0  0  0  0  0
  -21.6500   -4.3860   23.6600 C   0  0  0  0  0  3  0  0  0  0  0  0
  -21.7510   -5.1710   22.4980 C   0  0  0  0  0  0  0  0  0  0  0  0
  -22.0730   -4.5870   21.3190 F   0  0  0  0  0  0  0  0  0  0  0  0
  -21.1920   -4.2250   25.9980 F   0  0  0  0  0  0  0  0  0  0  0  0
  -23.0500  -13.8450   21.2600 C   0  0  0  0  0  0  0  0  0  0  0  0
  -22.4430  -13.1570   22.2210 N   0  0  0  0  0  0  0  0  0  0  0  0
  -22.5930  -14.9140   20.8570 O   0  0  0  0  0  0  0  0  0  0  0  0
  -22.8270  -12.2910   22.5660 H   0  0  0  0  0  0  0  0  0  0  0  0
  -21.5810  -13.5030   22.6190 H   0  0  0  0  0  0  0  0  0  0  0  0
  -25.6300  -15.3900   20.1100 N   0  0  0  0  0  0  0  0  0  0  0  0
  -24.9500  -16.0850   20.3970 H   0  0  0  0  0  0  0  0  0  0  0  0
  -26.4740  -15.8010   19.7260 H   0  0  0  0  0  0  0  0  0  0  0  0
  -30.9260  -17.2180   22.4720 C   0  0  0  0  0  1  0  0  0  0  0  0
  -32.7450  -16.1090   21.1110 C   0  0  0  0  0  1  0  0  0  0  0  0
  -31.6420  -17.1820   21.1070 C   0  0  0  0  0  3  0  0  0  0  0  0
  2  1  1  0
  3  6  1  0
  3  2  1  0
  3  5  1  0
  4  3  1  0
  7  8  1  0
  7  6  1  0
  9 20  2  0
 10  8  1  0
 10 15  1  0
 11 19  1  0
 11 21  1  0
 12 18  1  0
 12 14  1  0
 13 19  1  0
 14 13  1  0
 15 14  2  0
 16 17  1  0
 16 10  2  0
 17 12  2  0
 18 11  1  0
 19  9  1  0
 21 23  2  0
 22 21  1  0
 24 22  1  0
 25 34  2  0
 25 30  1  0
 26 22  1  0
 26 30  1  0
 27 26  1  0
 28 29  1  0
 28 27  1  0
 29 25  1  0
 30 31  2  0
 31 32  1  0
 33 32  2  0
 34 33  1  0
 35  9  1  0
 35 36  1  0
 35 45  1  0
 36 39  1  0
 37 41  1  0
 37 36  1  0
 38 37  2  0
 41 40  1  0
 43 44  1  0
 43 41  1  0
 43 42  1  0
 45 48  1  1
 45 46  1  0
 47 45  1  0
 49  2  1  0
 50 51  1  0
 51 49  1  0
 51 53  1  0
 52 50  2  0
 54 50  1  0
 54 95  1  0
 55 61  1  0
 55 63  1  0
 56 61  1  0
 57 58  1  0
 57 56  1  0
 59 58  1  0
 59 68  1  0
 59 60  1  0
 61 60  1  0
 62 55  2  0
 63 54  1  0
 63 64  1  0
 65 66  2  0
 66 85  1  0
 67 66  1  0
 67 70  1  0
 68 69  1  0
 68 65  1  0
 69 67  2  0
 70 71  1  0
 71 72  2  0
 73 76  1  0
 73 72  1  0
 74 73  2  0
 75 74  1  0
 75 70  2  0
 76 77  1  0
 77 78  1  0
 78 79  2  0
 80 79  1  0
 80 84  1  0
 81 80  2  0
 82 77  2  0
 82 81  1  0
 83 82  1  0
 85 86  1  0
 86 88  1  0
 86 89  1  0
 87 85  2  0
 90 65  1  0
 90 91  1  0
 92 90  1  0
 95 94  1  0
 95 93  1  0
M  ISO  4   7 101   8 101  55 100  63 100
M  END
>  <TORSDO>  (25) 
F 23

>  <SCORE>  (25) 
-10.287

>  <name>  (25) 
25

>  <ligand_id>  (25) 
25

>  <original_smiles>  (25) 
[H]c1c([H])c([H])c2c(c1[H])C([H])([H])C([H])([H])C([H])([H])C2([H])N([H])C(=O)C1([H])N(C(=O)C([H])(N([H])C(=O)C([H])(N([H])C([H])([H])[H])C([H])([H])[H])C(C([H])([H])[H])(C([H])([H])[H])C([H])([H])[H])C([H])([H])c2c([H])c(OC([H])([H])C([H])([H])[N+]([H])([H])C([H])(C([H])([H])[H])C([H])([H])N([H])C(=O)C([H])(N([H])C(=O)N3C([H])([H])C([H])([H])C([H])([H])C([H])(n4nc(-c5c([H])c([H])c(Oc6c([H])c([H])c(F)c([H])c6F)c([H])c5[H])c(C(=O)N([H])[H])c4N([H])[H])C3([H])[H])C([H])(C([H])([H])[H])C([H])([H])[H])c([H])c([H])c2C1([H])[H]

>  <smiles>  (25) 
[H]c1c([H])c([H])c2c(c1[H])C([H])([H])C([H])([H])C([H])([H])C2([H])N([H])C(=O)C1([H])N(C(=O)C([H])(N([H])C(=O)C([H])(N([H])C([H])([H])[H])C([H])([H])[H])C(C([H])([H])[H])(C([H])([H])[H])C([H])([H])[H])C([H])([H])c2c([H])c(OC([H])([H])C([H])([H])[N+]([H])([H])C([H])(C([H])([H])[H])C([H])([H])N([H])C(=O)C([H])(N([H])C(=O)N3C([H])([H])C([H])([H])C([H])([H])C([H])(n4nc(-c5c([H])c([H])c(Oc6c([H])c([H])c(F)c([H])c6F)c([H])c5[H])c(C(=O)N([H])[H])c4N([H])[H])C3([H])[H])C([H])(C([H])([H])[H])C([H])([H])[H])c([H])c([H])c2C1([H])[H]

$$$$
26:0:0
     RDKit          3D

 90 98  0  0  1  0  0  0  0  0999 V2000
  -29.7210  -20.5360   20.3880 N   0  0  0  0  0  4  0  0  0  0  0  0
  -30.6710  -20.8500   20.2740 H   0  0  0  0  0  0  0  0  0  0  0  0
  -29.5700  -20.4230   21.3760 H   0  0  0  0  0  0  0  0  0  0  0  0
  -29.6770  -19.0710   19.7750 C   0  0  0  0  0  2  0  0  0  0  0  0
  -30.1990  -16.9900   22.8740 C   0  0  0  0  0  3  0  0  0  0  0  0
  -31.2240  -17.9220   22.6310 C   0  0  0  0  0  3  0  0  0  0  0  0
  -29.6490  -16.2650   21.7950 C   0  0  0  0  0  3  0  0  0  0  0  0
  -31.4790  -18.3270   21.3080 C   0  0  0  0  0  3  0  0  0  0  0  0
  -30.2270  -16.3960   20.5090 C   0  0  0  0  0  0  0  0  0  0  0  0
  -30.6360  -17.8270   20.2890 C   0  0  0  0  0  0  0  0  0  0  0  0
  -30.8970  -15.0490   19.8930 C   0  0  0  0  0  0  0  0  0  0  0  0
  -30.6150  -12.8310   18.6730 C   0  0  0  0  0  2  0  0  0  0  0  0
  -29.5350  -12.9670   17.5670 C   0  0  0  0  0  2  0  0  0  0  0  0
  -28.1090  -12.7890   18.1300 C   0  0  0  0  0  2  0  0  0  0  0  0
  -27.9030  -13.5540   19.4640 C   0  0  0  0  0  3  0  0  0  0  0  0
  -29.0760  -13.2560   20.4210 C   0  0  0  0  0  2  0  0  0  0  0  0
  -30.2840  -13.7900   19.7710 N   0  0  0  0  0  0  0  0  0  0  0  0
  -32.0270  -15.1370   19.3930 O   0  0  0  0  0  0  0  0  0  0  0  0
  -25.6530  -14.1840   20.5180 C   0  0  0  0  0  0  0  0  0  0  0  0
  -24.5790  -13.4340   20.9090 C   0  0  0  0  0  0  0  0  0  0  0  0
  -24.9360  -12.0730   20.6600 C   0  0  0  0  0  0  0  0  0  0  0  0
  -26.6010  -13.2820   20.0630 N   0  0  0  0  0  0  0  0  0  0  0  0
  -26.1810  -11.9980   20.2030 N   0  0  0  0  0  0  0  0  0  0  0  0
  -24.1420  -10.8430   20.7760 C   0  0  0  0  0  0  0  0  0  0  0  0
  -24.5870   -9.7470   21.5490 C   0  0  0  0  0  3  0  0  0  0  0  0
  -23.7970   -8.5820   21.6620 C   0  0  0  0  0  3  0  0  0  0  0  0
  -22.5470   -8.5070   21.0030 C   0  0  0  0  0  0  0  0  0  0  0  0
  -22.1180   -9.5920   20.2180 C   0  0  0  0  0  3  0  0  0  0  0  0
  -22.9080  -10.7480   20.1020 C   0  0  0  0  0  3  0  0  0  0  0  0
  -21.7250   -7.4060   21.0340 O   0  0  0  0  0  0  0  0  0  0  0  0
  -21.7060   -6.5520   22.1070 C   0  0  0  0  0  0  0  0  0  0  0  0
  -21.4390   -7.0060   23.4180 C   0  0  0  0  0  3  0  0  0  0  0  0
  -21.3610   -6.0850   24.4810 C   0  0  0  0  0  3  0  0  0  0  0  0
  -21.5400   -4.7100   24.2370 C   0  0  0  0  0  0  0  0  0  0  0  0
  -21.8010   -4.2550   22.9320 C   0  0  0  0  0  3  0  0  0  0  0  0
  -21.8800   -5.1730   21.8710 C   0  0  0  0  0  0  0  0  0  0  0  0
  -22.1110   -4.7260   20.6130 F   0  0  0  0  0  0  0  0  0  0  0  0
  -21.4570   -3.8240   25.2570 F   0  0  0  0  0  0  0  0  0  0  0  0
  -23.2580  -13.9550   21.3960 C   0  0  0  0  0  0  0  0  0  0  0  0
  -22.5850  -13.2080   22.2630 N   0  0  0  0  0  0  0  0  0  0  0  0
  -22.8370  -15.0560   21.0430 O   0  0  0  0  0  0  0  0  0  0  0  0
  -22.9390  -12.3150   22.5710 H   0  0  0  0  0  0  0  0  0  0  0  0
  -21.7020  -13.5350   22.6280 H   0  0  0  0  0  0  0  0  0  0  0  0
  -25.8940  -15.5540   20.4900 N   0  0  0  0  0  0  0  0  0  0  0  0
  -25.1840  -16.2280   20.7570 H   0  0  0  0  0  0  0  0  0  0  0  0
  -26.7220  -15.9860   20.1020 H   0  0  0  0  0  0  0  0  0  0  0  0
  -28.7940  -21.7390   19.9350 C   0  0  0  0  0  2  0  0  0  0  0  0
  -28.9880  -23.3370   20.4610 C   0  0  0  0  0  3  0  0  0  0  0  0
  -27.9780  -24.6300   20.0750 C   0  0  0  0  0  3  0  0  0  0  0  0
  -28.1830  -26.1440   20.3740 O   0  0  0  0  0  0  0  0  0  0  0  0
  -24.5240  -31.8680   23.2200 C   0  0  0  0  0  0  0  0  0  0  0  0
  -27.1140  -27.1070   20.2800 C   0  0  0  0  0  0  0  0  0  0  0  0
  -23.3240  -30.4310   21.6170 C   0  0  0  0  0  3  0  0  0  0  0  0
  -24.7730  -28.8320   20.2210 C   0  0  0  0  0  0  0  0  0  0  0  0
  -25.8740  -30.7040   21.4360 C   0  0  0  0  0  2  0  0  0  0  0  0
  -25.9510  -29.2990   20.8160 C   0  0  0  0  0  0  0  0  0  0  0  0
  -27.1210  -28.4520   20.8290 C   0  0  0  0  0  3  0  0  0  0  0  0
  -25.9070  -26.7380   19.6440 C   0  0  0  0  0  3  0  0  0  0  0  0
  -24.7620  -27.5640   19.6210 C   0  0  0  0  0  3  0  0  0  0  0  0
  -23.5420  -29.7250   20.2530 C   0  0  0  0  0  2  0  0  0  0  0  0
  -24.5950  -31.0240   22.1460 N   0  0  0  0  0  0  0  0  0  0  0  0
  -23.4400  -32.1610   23.7460 O   0  0  0  0  0  0  0  0  0  0  0  0
  -22.6530  -29.4440   22.6050 C   0  0  0  0  0  0  0  0  0  0  0  0
  -21.3280  -29.2500   22.4720 N   0  0  0  0  0  0  0  0  0  0  0  0
  -23.3260  -28.8540   23.4530 O   0  0  0  0  0  0  0  0  0  0  0  0
  -20.8410  -29.7770   21.7610 H   0  0  0  0  0  0  0  0  0  0  0  0
  -17.9660  -27.9900   22.9570 C   0  0  0  0  0  0  0  0  0  0  0  0
  -20.5120  -28.3270   23.2650 C   0  0  0  0  0  3  0  0  0  0  0  0
  -20.6610  -26.8740   22.7550 C   0  0  0  0  0  2  0  0  0  0  0  0
  -19.5880  -26.4820   21.7330 C   0  0  0  0  0  2  0  0  0  0  0  0
  -18.1900  -26.6190   22.3420 C   0  0  0  0  0  2  0  0  0  0  0  0
  -19.0570  -28.7970   23.3770 C   0  0  0  0  0  0  0  0  0  0  0  0
  -18.7930  -30.0770   23.9140 C   0  0  0  0  0  3  0  0  0  0  0  0
  -17.4730  -30.5490   24.0340 C   0  0  0  0  0  3  0  0  0  0  0  0
  -16.3970  -29.7410   23.6300 C   0  0  0  0  0  3  0  0  0  0  0  0
  -16.6440  -28.4630   23.0970 C   0  0  0  0  0  3  0  0  0  0  0  0
  -25.8040  -32.5210   23.8280 C   0  0  0  0  0  3  0  0  0  0  0  0
  -25.4890  -33.9270   24.1280 N   0  0  0  0  0  0  0  0  0  0  0  0
  -25.8060  -34.9660   23.3450 C   0  0  0  0  0  0  0  0  0  0  0  0
  -26.4640  -34.8420   22.3080 O   0  0  0  0  0  0  0  0  0  0  0  0
  -24.9040  -34.0960   24.9340 H   0  0  0  0  0  0  0  0  0  0  0  0
  -24.0630  -36.7450   22.9840 C   0  0  0  0  0  1  0  0  0  0  0  0
  -25.3220  -36.3630   23.7800 C   0  0  0  0  0  3  0  0  0  0  0  0
  -27.4710  -37.2780   24.5440 C   0  0  0  0  0  1  0  0  0  0  0  0
  -26.3470  -37.4180   23.6200 N   0  0  0  0  0  0  0  0  0  0  0  0
  -25.9390  -38.3400   23.7550 H   0  0  0  0  0  0  0  0  0  0  0  0
  -26.3190  -31.7840   25.1250 C   0  0  1  0  0  0  0  0  0  0  0  0
  -25.2240  -31.5710   26.1980 C   0  0  0  0  0  1  0  0  0  0  0  0
  -26.9060  -30.3980   24.7730 C   0  0  0  0  0  1  0  0  0  0  0  0
  -27.4660  -32.5980   25.7680 C   0  0  0  0  0  1  0  0  0  0  0  0
  1  3  1  0
  2  1  1  0
  4 10  1  0
  4  1  1  0
  6  5  1  0
  7  5  2  0
  8  6  2  0
  9  7  1  0
 10  9  2  3
 10  8  1  0
 11  9  1  0
 12 17  1  0
 13 14  1  0
 13 12  1  0
 15 14  1  0
 15 22  1  0
 15 16  1  0
 17 11  1  0
 17 16  1  0
 18 11  2  0
 19 20  2  0
 20 39  1  0
 21 24  1  0
 21 20  1  0
 22 23  1  0
 22 19  1  0
 23 21  2  0
 24 25  1  0
 25 26  2  0
 27 30  1  0
 27 26  1  0
 28 27  2  0
 29 28  1  0
 29 24  2  0
 30 31  1  0
 31 32  1  0
 32 33  2  0
 34 33  1  0
 34 38  1  0
 35 34  2  0
 36 31  2  0
 36 35  1  0
 37 36  1  0
 39 40  1  0
 40 42  1  0
 40 43  1  0
 41 39  2  0
 44 19  1  0
 44 45  1  0
 46 44  1  0
 47  1  1  0
 47 48  1  0
 49 50  1  0
 49 48  2  0
 51 62  2  0
 52 50  1  0
 52 57  1  0
 53 61  1  0
 53 63  1  0
 54 60  1  0
 54 56  1  0
 55 61  1  0
 56 57  2  0
 56 55  1  0
 58 52  2  0
 59 58  1  0
 59 54  2  0
 60 53  1  0
 61 51  1  0
 63 65  2  0
 64 63  1  0
 66 64  1  0
 67 76  2  0
 67 72  1  0
 68 64  1  0
 68 72  1  0
 69 68  1  0
 70 71  1  0
 70 69  1  0
 71 67  1  0
 72 73  2  0
 73 74  1  0
 75 74  2  0
 76 75  1  0
 77 51  1  0
 77 78  1  0
 77 87  1  0
 78 81  1  0
 79 83  1  0
 79 78  1  0
 80 79  2  0
 83 82  1  0
 85 86  1  0
 85 83  1  0
 85 84  1  0
 87 90  1  1
 87 88  1  0
 89 87  1  0
M  ISO  4   9 100  11 100  49 101  50 101
M  END
>  <TORSDO>  (26) 
F 21

>  <SCORE>  (26) 
-11.152

>  <name>  (26) 
26

>  <ligand_id>  (26) 
26

>  <original_smiles>  (26) 
[H]c1c([H])c([H])c(C([H])([H])[N+]([H])([H])C([H])([H])C([H])([H])C([H])([H])Oc2c([H])c([H])c3c(c2[H])C([H])([H])N(C(=O)C([H])(N([H])C(=O)C([H])(N([H])C([H])([H])[H])C([H])([H])[H])C(C([H])([H])[H])(C([H])([H])[H])C([H])([H])[H])C([H])(C(=O)N([H])C2([H])c4c([H])c([H])c([H])c([H])c4C([H])([H])C([H])([H])C2([H])[H])C3([H])[H])c(C(=O)N2C([H])([H])C([H])([H])C([H])([H])C([H])(n3nc(-c4c([H])c([H])c(Oc5c([H])c([H])c(F)c([H])c5F)c([H])c4[H])c(C(=O)N([H])[H])c3N([H])[H])C2([H])[H])c1[H]

>  <smiles>  (26) 
[H]c1c([H])c([H])c(C([H])([H])[N+]([H])([H])C([H])([H])C([H])([H])C([H])([H])Oc2c([H])c([H])c3c(c2[H])C([H])([H])N(C(=O)C([H])(N([H])C(=O)C([H])(N([H])C([H])([H])[H])C([H])([H])[H])C(C([H])([H])[H])(C([H])([H])[H])C([H])([H])[H])C([H])(C(=O)N([H])C2([H])c4c([H])c([H])c([H])c([H])c4C([H])([H])C([H])([H])C2([H])[H])C3([H])[H])c(C(=O)N2C([H])([H])C([H])([H])C([H])([H])C([H])(n3nc(-c4c([H])c([H])c(Oc5c([H])c([H])c(F)c([H])c5F)c([H])c4[H])c(C(=O)N([H])[H])c3N([H])[H])C2([H])[H])c1[H]

$$$$
27:0:0
     RDKit          3D

 95102  0  0  1  0  0  0  0  0999 V2000
  -28.8320  -21.0910   19.8750 C   0  0  0  0  0  3  0  0  0  0  0  0
  -29.4110  -19.8920   20.6210 N   0  0  0  0  0  4  0  0  0  0  0  0
  -30.0060  -20.2330   21.3590 H   0  0  0  0  0  0  0  0  0  0  0  0
  -28.6210  -19.4480   21.0610 H   0  0  0  0  0  0  0  0  0  0  0  0
  -30.1910  -18.8180   19.8730 C   0  0  0  0  0  2  0  0  0  0  0  0
  -30.5190  -17.4310   20.6360 C   0  0  0  0  0  3  0  0  0  0  0  0
  -31.2220  -18.0410   22.9150 C   0  0  0  0  0  1  0  0  0  0  0  0
  -32.8570  -18.0900   21.1480 C   0  0  0  0  0  1  0  0  0  0  0  0
  -31.6160  -17.4830   21.6210 N   0  0  0  0  0  0  0  0  0  0  0  0
  -30.6350  -16.1450   19.6810 C   0  0  0  0  0  2  0  0  0  0  0  0
  -31.3550  -14.7470   19.9550 C   0  0  0  0  0  0  0  0  0  0  0  0
  -31.0040  -12.5190   18.9350 C   0  0  0  0  0  2  0  0  0  0  0  0
  -30.0490  -12.6850   17.7330 C   0  0  0  0  0  2  0  0  0  0  0  0
  -28.5790  -12.5760   18.1850 C   0  0  0  0  0  2  0  0  0  0  0  0
  -28.2700  -13.4540   19.4250 C   0  0  0  0  0  3  0  0  0  0  0  0
  -29.3470  -13.3210   20.5220 C   0  0  0  0  0  2  0  0  0  0  0  0
  -30.6620  -13.5660   19.9190 N   0  0  0  0  0  0  0  0  0  0  0  0
  -32.5740  -14.7380   19.7550 O   0  0  0  0  0  0  0  0  0  0  0  0
  -25.9280  -14.1520   20.2020 C   0  0  0  0  0  0  0  0  0  0  0  0
  -24.8440  -13.4240   20.6050 C   0  0  0  0  0  0  0  0  0  0  0  0
  -25.2540  -12.0550   20.5770 C   0  0  0  0  0  0  0  0  0  0  0  0
  -26.9300  -13.2270   19.9500 N   0  0  0  0  0  0  0  0  0  0  0  0
  -26.5350  -11.9630   20.2410 N   0  0  0  0  0  0  0  0  0  0  0  0
  -24.4860  -10.8240   20.7930 C   0  0  0  0  0  0  0  0  0  0  0  0
  -24.8270   -9.9120   21.8160 C   0  0  0  0  0  3  0  0  0  0  0  0
  -24.0630   -8.7430   22.0160 C   0  0  0  0  0  3  0  0  0  0  0  0
  -22.9440   -8.4780   21.1920 C   0  0  0  0  0  0  0  0  0  0  0  0
  -22.6240   -9.3760   20.1590 C   0  0  0  0  0  3  0  0  0  0  0  0
  -23.3900  -10.5360   19.9570 C   0  0  0  0  0  3  0  0  0  0  0  0
  -22.1590   -7.3550   21.2940 O   0  0  0  0  0  0  0  0  0  0  0  0
  -21.9080   -6.7610   22.5050 C   0  0  0  0  0  0  0  0  0  0  0  0
  -21.3050   -7.4660   23.5690 C   0  0  0  0  0  3  0  0  0  0  0  0
  -21.0010   -6.7990   24.7720 C   0  0  0  0  0  3  0  0  0  0  0  0
  -21.2900   -5.4280   24.9120 C   0  0  0  0  0  0  0  0  0  0  0  0
  -21.8850   -4.7230   23.8500 C   0  0  0  0  0  3  0  0  0  0  0  0
  -22.1900   -5.3880   22.6490 C   0  0  0  0  0  0  0  0  0  0  0  0
  -22.7430   -4.7000   21.6220 F   0  0  0  0  0  0  0  0  0  0  0  0
  -20.9910   -4.7840   26.0630 F   0  0  0  0  0  0  0  0  0  0  0  0
  -23.4700  -13.9550   20.8940 C   0  0  0  0  0  0  0  0  0  0  0  0
  -22.7440  -13.3240   21.8100 N   0  0  0  0  0  0  0  0  0  0  0  0
  -23.0460  -14.9670   20.3370 O   0  0  0  0  0  0  0  0  0  0  0  0
  -23.0970  -12.5070   22.2880 H   0  0  0  0  0  0  0  0  0  0  0  0
  -21.8230  -13.6680   22.0420 H   0  0  0  0  0  0  0  0  0  0  0  0
  -26.1370  -15.5150   20.0000 N   0  0  0  0  0  0  0  0  0  0  0  0
  -25.3930  -16.1950   20.1200 H   0  0  0  0  0  0  0  0  0  0  0  0
  -26.9760  -15.9170   19.6040 H   0  0  0  0  0  0  0  0  0  0  0  0
  -26.6310  -19.7420   20.0000 C   0  0  0  0  0  1  0  0  0  0  0  0
  -27.8060  -19.9470   17.7740 C   0  0  0  0  0  1  0  0  0  0  0  0
  -27.5480  -20.6280   19.1300 C   0  0  0  0  0  3  0  0  0  0  0  0
  -28.5900  -22.4160   20.7720 C   0  0  0  0  0  2  0  0  0  0  0  0
  -27.7910  -23.7330   20.2530 C   0  0  0  0  0  3  0  0  0  0  0  0
  -25.2410  -23.4070   19.6660 C   0  0  0  0  0  1  0  0  0  0  0  0
  -26.3090  -23.6890   20.7340 C   0  0  0  0  0  2  0  0  0  0  0  0
  -28.3790  -25.1490   20.7290 C   0  0  0  0  0  2  0  0  0  0  0  0
  -28.2520  -26.4110   19.9640 O   0  0  0  0  0  0  0  0  0  0  0  0
  -24.5620  -31.7650   23.1300 C   0  0  0  0  0  0  0  0  0  0  0  0
  -27.1220  -27.2260   20.0400 C   0  0  0  0  0  0  0  0  0  0  0  0
  -23.3370  -30.3990   21.4750 C   0  0  0  0  0  3  0  0  0  0  0  0
  -24.7680  -28.8420   20.0370 C   0  0  0  0  0  0  0  0  0  0  0  0
  -25.8720  -30.6950   21.2880 C   0  0  0  0  0  2  0  0  0  0  0  0
  -25.9380  -29.3170   20.6460 C   0  0  0  0  0  0  0  0  0  0  0  0
  -27.1180  -28.5180   20.6440 C   0  0  0  0  0  3  0  0  0  0  0  0
  -25.9490  -26.8150   19.3790 C   0  0  0  0  0  3  0  0  0  0  0  0
  -24.7750  -27.5950   19.3910 C   0  0  0  0  0  3  0  0  0  0  0  0
  -23.5410  -29.7290   20.0890 C   0  0  0  0  0  2  0  0  0  0  0  0
  -24.6100  -30.9680   22.0230 N   0  0  0  0  0  0  0  0  0  0  0  0
  -23.4850  -32.0460   23.6750 O   0  0  0  0  0  0  0  0  0  0  0  0
  -22.6680  -29.3800   22.4270 C   0  0  0  0  0  0  0  0  0  0  0  0
  -21.3370  -29.2310   22.3120 N   0  0  0  0  0  0  0  0  0  0  0  0
  -23.3420  -28.7290   23.2290 O   0  0  0  0  0  0  0  0  0  0  0  0
  -20.8520  -29.8090   21.6400 H   0  0  0  0  0  0  0  0  0  0  0  0
  -17.9400  -28.1210   22.8520 C   0  0  0  0  0  0  0  0  0  0  0  0
  -20.5090  -28.2950   23.0720 C   0  0  0  0  0  3  0  0  0  0  0  0
  -20.5580  -26.8800   22.4500 C   0  0  0  0  0  2  0  0  0  0  0  0
  -19.4230  -26.6230   21.4530 C   0  0  0  0  0  2  0  0  0  0  0  0
  -18.0610  -26.7890   22.1310 C   0  0  0  0  0  2  0  0  0  0  0  0
  -19.0900  -28.8360   23.2800 C   0  0  0  0  0  0  0  0  0  0  0  0
  -18.9210  -30.0880   23.9120 C   0  0  0  0  0  3  0  0  0  0  0  0
  -17.6360  -30.6220   24.1190 C   0  0  0  0  0  3  0  0  0  0  0  0
  -16.5020  -29.9030   23.7070 C   0  0  0  0  0  3  0  0  0  0  0  0
  -16.6550  -28.6540   23.0780 C   0  0  0  0  0  3  0  0  0  0  0  0
  -25.8570  -32.3760   23.7500 C   0  0  0  0  0  3  0  0  0  0  0  0
  -26.3840  -31.5660   24.9990 C   0  0  1  0  0  0  0  0  0  0  0  0
  -25.3000  -31.2920   26.0660 C   0  0  0  0  0  1  0  0  0  0  0  0
  -26.9640  -30.2020   24.5570 C   0  0  0  0  0  1  0  0  0  0  0  0
  -27.5390  -32.3380   25.6780 C   0  0  0  0  0  1  0  0  0  0  0  0
  -25.5570  -33.7640   24.1270 N   0  0  0  0  0  0  0  0  0  0  0  0
  -25.8880  -34.8400   23.3980 C   0  0  0  0  0  0  0  0  0  0  0  0
  -26.5490  -34.7640   22.3590 O   0  0  0  0  0  0  0  0  0  0  0  0
  -24.9740  -33.8940   24.9400 H   0  0  0  0  0  0  0  0  0  0  0  0
  -24.1670  -36.6520   23.1080 C   0  0  0  0  0  1  0  0  0  0  0  0
  -25.4110  -36.2170   23.9010 C   0  0  0  0  0  3  0  0  0  0  0  0
  -27.5540  -37.0680   24.7480 C   0  0  0  0  0  1  0  0  0  0  0  0
  -26.4490  -37.2680   23.8130 N   0  0  0  0  0  0  0  0  0  0  0  0
  -26.0480  -38.1860   23.9880 H   0  0  0  0  0  0  0  0  0  0  0  0
  1  2  1  0
  1 50  1  0
  2  4  1  0
  2  3  1  0
  5  2  1  0
  5  6  1  0
  6 10  1  0
  6  9  1  0
  8  9  1  0
  9  7  1  0
 10 11  1  0
 12 17  1  0
 13 14  1  0
 13 12  1  0
 15 14  1  0
 15 22  1  0
 15 16  1  0
 17 11  1  0
 17 16  1  0
 18 11  2  0
 19 20  2  0
 20 39  1  0
 21 20  1  0
 21 24  1  0
 22 19  1  0
 22 23  1  0
 23 21  2  0
 24 25  1  0
 25 26  2  0
 27 30  1  0
 27 26  1  0
 28 27  2  0
 29 28  1  0
 29 24  2  0
 30 31  1  0
 31 36  2  0
 31 32  1  0
 32 33  2  0
 33 34  1  0
 34 38  1  0
 35 34  2  0
 36 35  1  0
 37 36  1  0
 39 40  1  0
 40 43  1  0
 40 42  1  0
 41 39  2  0
 44 45  1  0
 44 19  1  0
 46 44  1  0
 48 49  1  0
 49  1  1  0
 49 47  1  0
 51 54  1  0
 51 53  1  0
 51 50  1  0
 52 53  1  0
 55 57  1  0
 55 54  1  0
 56 67  2  0
 57 62  1  0
 58 66  1  0
 58 68  1  0
 59 65  1  0
 59 61  1  0
 60 66  1  0
 61 60  1  0
 62 61  2  0
 63 64  1  0
 63 57  2  0
 64 59  2  0
 65 58  1  0
 66 56  1  0
 68 70  2  0
 69 68  1  0
 71 69  1  0
 72 81  2  0
 72 77  1  0
 73 69  1  0
 73 77  1  0
 74 73  1  0
 75 76  1  0
 75 74  1  0
 76 72  1  0
 77 78  2  0
 78 79  1  0
 80 79  2  0
 81 80  1  0
 82 56  1  0
 82 87  1  0
 82 83  1  0
 83 86  1  1
 83 84  1  0
 85 83  1  0
 87 90  1  0
 88 92  1  0
 88 87  1  0
 89 88  2  0
 92 91  1  0
 94 92  1  0
 94 95  1  0
 94 93  1  0
M  ISO  4  10 100  11 100  54 101  55 101
M  END
>  <TORSDO>  (27) 
F 26

>  <SCORE>  (27) 
-9.955

>  <name>  (27) 
27

>  <ligand_id>  (27) 
27

>  <original_smiles>  (27) 
[H]c1c([H])c([H])c2c(c1[H])C([H])([H])C([H])([H])C([H])([H])C2([H])N([H])C(=O)C1([H])N(C(=O)C([H])(N([H])C(=O)C([H])(N([H])C([H])([H])[H])C([H])([H])[H])C(C([H])([H])[H])(C([H])([H])[H])C([H])([H])[H])C([H])([H])c2c([H])c(OC([H])([H])C([H])(C([H])([H])C([H])([H])[H])C([H])([H])C([H])(C([H])(C([H])([H])[H])C([H])([H])[H])[N+]([H])([H])C([H])([H])C([H])(N(C([H])([H])[H])C([H])([H])[H])C([H])([H])C(=O)N3C([H])([H])C([H])([H])C([H])([H])C([H])(n4nc(-c5c([H])c([H])c(Oc6c([H])c([H])c(F)c([H])c6F)c([H])c5[H])c(C(=O)N([H])[H])c4N([H])[H])C3([H])[H])c([H])c([H])c2C1([H])[H]

>  <smiles>  (27) 
[H]c1c([H])c([H])c2c(c1[H])C([H])([H])C([H])([H])C([H])([H])C2([H])N([H])C(=O)C1([H])N(C(=O)C([H])(N([H])C(=O)C([H])(N([H])C([H])([H])[H])C([H])([H])[H])C(C([H])([H])[H])(C([H])([H])[H])C([H])([H])[H])C([H])([H])c2c([H])c(OC([H])([H])C([H])(C([H])([H])C([H])([H])[H])C([H])([H])C([H])(C([H])(C([H])([H])[H])C([H])([H])[H])[N+]([H])([H])C([H])([H])C([H])(N(C([H])([H])[H])C([H])([H])[H])C([H])([H])C(=O)N3C([H])([H])C([H])([H])C([H])([H])C([H])(n4nc(-c5c([H])c([H])c(Oc6c([H])c([H])c(F)c([H])c6F)c([H])c5[H])c(C(=O)N([H])[H])c4N([H])[H])C3([H])[H])c([H])c([H])c2C1([H])[H]

$$$$
28:0:0
     RDKit          3D

 88 96  0  0  1  0  0  0  0  0999 V2000
  -29.8640  -20.9070   19.7810 C   0  0  0  0  0  0  0  0  0  0  0  0
  -31.1490  -20.6400   18.9950 C   0  0  0  0  0  2  0  0  0  0  0  0
  -29.3830  -19.4450   20.4260 C   0  0  0  0  0  2  0  0  0  0  0  0
  -32.0930  -19.6530   19.7060 C   0  0  0  0  0  2  0  0  0  0  0  0
  -31.5980  -18.1890   19.7930 C   0  0  0  0  0  2  0  0  0  0  0  0
  -30.0630  -17.9640   19.9010 C   0  0  2  0  0  0  0  0  0  0  0  0
  -29.5090  -17.7360   18.4730 C   0  0  0  0  0  1  0  0  0  0  0  0
  -29.5350  -22.2310   19.7570 N   0  0  0  0  0  0  0  0  0  0  0  0
  -29.8130  -16.4550   20.6620 C   0  0  0  0  0  2  0  0  0  0  0  0
  -30.5450  -14.9910   20.3130 C   0  0  0  0  0  0  0  0  0  0  0  0
  -30.3950  -12.6310   19.3890 C   0  0  0  0  0  2  0  0  0  0  0  0
  -29.4730  -12.6260   18.1490 C   0  0  0  0  0  2  0  0  0  0  0  0
  -28.0030  -12.4220   18.5640 C   0  0  0  0  0  2  0  0  0  0  0  0
  -27.5950  -13.3330   19.7520 C   0  0  0  0  0  3  0  0  0  0  0  0
  -28.6520  -13.3380   20.8790 C   0  0  0  0  0  2  0  0  0  0  0  0
  -29.9380  -13.7300   20.2890 N   0  0  0  0  0  0  0  0  0  0  0  0
  -31.7300  -15.0160   19.9730 O   0  0  0  0  0  0  0  0  0  0  0  0
  -25.2090  -13.9070   20.4760 C   0  0  0  0  0  0  0  0  0  0  0  0
  -24.1430  -13.1320   20.8440 C   0  0  0  0  0  0  0  0  0  0  0  0
  -24.6120  -11.7810   20.8250 C   0  0  0  0  0  0  0  0  0  0  0  0
  -26.2560  -13.0310   20.2480 N   0  0  0  0  0  0  0  0  0  0  0  0
  -25.9060  -11.7470   20.5240 N   0  0  0  0  0  0  0  0  0  0  0  0
  -23.8840  -10.5190   21.0200 C   0  0  0  0  0  0  0  0  0  0  0  0
  -24.3120   -9.5560   21.9620 C   0  0  0  0  0  3  0  0  0  0  0  0
  -23.5820   -8.3620   22.1460 C   0  0  0  0  0  3  0  0  0  0  0  0
  -22.4130   -8.1190   21.3880 C   0  0  0  0  0  0  0  0  0  0  0  0
  -22.0040   -9.0700   20.4360 C   0  0  0  0  0  3  0  0  0  0  0  0
  -22.7340  -10.2560   20.2490 C   0  0  0  0  0  3  0  0  0  0  0  0
  -21.6590   -6.9730   21.4770 O   0  0  0  0  0  0  0  0  0  0  0  0
  -21.6070   -6.2320   22.6310 C   0  0  0  0  0  0  0  0  0  0  0  0
  -21.1860   -6.7900   23.8590 C   0  0  0  0  0  3  0  0  0  0  0  0
  -21.0810   -5.9760   25.0050 C   0  0  0  0  0  3  0  0  0  0  0  0
  -21.3900   -4.6050   24.9260 C   0  0  0  0  0  0  0  0  0  0  0  0
  -21.8090   -4.0460   23.7050 C   0  0  0  0  0  3  0  0  0  0  0  0
  -21.9140   -4.8570   22.5600 C   0  0  0  0  0  0  0  0  0  0  0  0
  -22.2930   -4.3100   21.3800 F   0  0  0  0  0  0  0  0  0  0  0  0
  -21.2870   -3.8210   26.0230 F   0  0  0  0  0  0  0  0  0  0  0  0
  -22.7420  -13.6080   21.0980 C   0  0  0  0  0  0  0  0  0  0  0  0
  -22.0080  -12.9210   21.9640 N   0  0  0  0  0  0  0  0  0  0  0  0
  -22.3060  -14.6260   20.5620 O   0  0  0  0  0  0  0  0  0  0  0  0
  -22.3720  -12.1010   22.4270 H   0  0  0  0  0  0  0  0  0  0  0  0
  -21.0660  -13.2220   22.1710 H   0  0  0  0  0  0  0  0  0  0  0  0
  -25.3720  -15.2770   20.2900 N   0  0  0  0  0  0  0  0  0  0  0  0
  -24.6080  -15.9340   20.4060 H   0  0  0  0  0  0  0  0  0  0  0  0
  -26.2290  -15.7160   19.9770 H   0  0  0  0  0  0  0  0  0  0  0  0
  -28.5920  -23.2850   20.4290 C   0  0  0  0  0  2  0  0  0  0  0  0
  -28.4000  -24.8020   19.6930 C   0  0  0  0  0  2  0  0  0  0  0  0
  -28.2900  -26.2320   20.3030 O   0  0  0  0  0  0  0  0  0  0  0  0
  -24.6060  -31.8750   23.2420 C   0  0  0  0  0  0  0  0  0  0  0  0
  -27.1970  -27.1690   20.2000 C   0  0  0  0  0  0  0  0  0  0  0  0
  -23.4060  -30.4730   21.6070 C   0  0  0  0  0  3  0  0  0  0  0  0
  -24.8530  -28.8960   20.1790 C   0  0  0  0  0  0  0  0  0  0  0  0
  -25.9570  -30.7420   21.4390 C   0  0  0  0  0  2  0  0  0  0  0  0
  -26.0300  -29.3510   20.7870 C   0  0  0  0  0  0  0  0  0  0  0  0
  -27.1960  -28.4990   20.7870 C   0  0  0  0  0  3  0  0  0  0  0  0
  -25.9900  -26.8100   19.5620 C   0  0  0  0  0  3  0  0  0  0  0  0
  -24.8460  -27.6400   19.5530 C   0  0  0  0  0  3  0  0  0  0  0  0
  -23.6240  -29.7890   20.2290 C   0  0  0  0  0  2  0  0  0  0  0  0
  -24.6770  -31.0530   22.1500 N   0  0  0  0  0  0  0  0  0  0  0  0
  -23.5210  -32.1620   23.7680 O   0  0  0  0  0  0  0  0  0  0  0  0
  -22.7320  -29.4690   22.5750 C   0  0  0  0  0  0  0  0  0  0  0  0
  -21.4050  -29.2960   22.4490 N   0  0  0  0  0  0  0  0  0  0  0  0
  -23.4050  -28.8480   23.4020 O   0  0  0  0  0  0  0  0  0  0  0  0
  -20.9220  -29.8500   21.7550 H   0  0  0  0  0  0  0  0  0  0  0  0
  -18.0260  -28.0870   22.9450 C   0  0  0  0  0  0  0  0  0  0  0  0
  -20.5830  -28.3610   23.2210 C   0  0  0  0  0  3  0  0  0  0  0  0
  -20.6920  -26.9270   22.6540 C   0  0  0  0  0  2  0  0  0  0  0  0
  -19.5940  -26.5930   21.6390 C   0  0  0  0  0  2  0  0  0  0  0  0
  -18.2100  -26.7360   22.2760 C   0  0  0  0  0  2  0  0  0  0  0  0
  -19.1400  -28.8590   23.3740 C   0  0  0  0  0  0  0  0  0  0  0  0
  -18.9120  -30.1210   23.9610 C   0  0  0  0  0  3  0  0  0  0  0  0
  -17.6030  -30.6140   24.1230 C   0  0  0  0  0  3  0  0  0  0  0  0
  -16.5050  -29.8420   23.7080 C   0  0  0  0  0  3  0  0  0  0  0  0
  -16.7160  -28.5790   23.1260 C   0  0  0  0  0  3  0  0  0  0  0  0
  -25.8850  -32.5130   23.8680 C   0  0  0  0  0  3  0  0  0  0  0  0
  -26.3910  -31.7510   25.1550 C   0  0  1  0  0  0  0  0  0  0  0  0
  -25.2910  -31.5310   26.2210 C   0  0  0  0  0  1  0  0  0  0  0  0
  -26.9690  -30.3640   24.7850 C   0  0  0  0  0  1  0  0  0  0  0  0
  -27.5430  -32.5460   25.8150 C   0  0  0  0  0  1  0  0  0  0  0  0
  -25.5750  -33.9150   24.1910 N   0  0  0  0  0  0  0  0  0  0  0  0
  -25.9100  -34.9670   23.4330 C   0  0  0  0  0  0  0  0  0  0  0  0
  -26.5790  -34.8590   22.4020 O   0  0  0  0  0  0  0  0  0  0  0  0
  -24.9770  -34.0730   24.9900 H   0  0  0  0  0  0  0  0  0  0  0  0
  -24.1850  -36.7660   23.0800 C   0  0  0  0  0  1  0  0  0  0  0  0
  -25.4280  -36.3590   23.8880 C   0  0  0  0  0  3  0  0  0  0  0  0
  -27.5680  -37.2430   24.7080 C   0  0  0  0  0  1  0  0  0  0  0  0
  -26.4620  -37.4100   23.7680 N   0  0  0  0  0  0  0  0  0  0  0  0
  -26.0580  -38.3300   23.9130 H   0  0  0  0  0  0  0  0  0  0  0  0
  1  3  1  0
  2  4  1  0
  2  1  1  0
  4  5  1  0
  5  6  1  0
  6  7  1  6
  6  3  1  0
  6  9  1  0
  8  1  2  0
  8 46  1  0
 10  9  1  0
 11 16  1  0
 12 13  1  0
 12 11  1  0
 14 13  1  0
 14 21  1  0
 14 15  1  0
 16 10  1  0
 16 15  1  0
 17 10  2  0
 18 19  2  0
 19 38  1  0
 20 19  1  0
 20 23  1  0
 21 18  1  0
 21 22  1  0
 22 20  2  0
 23 24  1  0
 24 25  2  0
 26 29  1  0
 26 25  1  0
 27 26  2  0
 28 27  1  0
 28 23  2  0
 29 30  1  0
 30 31  1  0
 31 32  2  0
 33 32  1  0
 33 37  1  0
 34 33  2  0
 35 30  2  0
 35 34  1  0
 36 35  1  0
 38 39  1  0
 39 42  1  0
 39 41  1  0
 40 38  2  0
 43 44  1  0
 43 18  1  0
 45 43  1  0
 47 48  1  0
 47 46  1  0
 49 60  2  0
 50 48  1  0
 50 55  1  0
 51 59  1  0
 51 61  1  0
 52 58  1  0
 52 54  1  0
 53 59  1  0
 54 55  2  0
 54 53  1  0
 56 50  2  0
 57 56  1  0
 57 52  2  0
 58 51  1  0
 59 49  1  0
 61 63  2  0
 62 61  1  0
 64 62  1  0
 65 74  2  0
 65 70  1  0
 66 62  1  0
 66 70  1  0
 67 66  1  0
 68 69  1  0
 68 67  1  0
 69 65  1  0
 70 71  2  0
 71 72  1  0
 73 72  2  0
 74 73  1  0
 75 49  1  0
 75 80  1  0
 75 76  1  0
 76 79  1  1
 76 77  1  0
 78 76  1  0
 80 83  1  0
 81 85  1  0
 81 80  1  0
 82 81  2  0
 85 84  1  0
 87 85  1  0
 87 88  1  0
 87 86  1  0
M  ISO  4   9 100  10 100  47 101  48 101
M  END
>  <TORSDO>  (28) 
F 19

>  <SCORE>  (28) 
-15.646

>  <name>  (28) 
28

>  <ligand_id>  (28) 
28

>  <original_smiles>  (28) 
[H]c1c([H])c([H])c2c(c1[H])C([H])([H])C([H])([H])C([H])([H])C2([H])N([H])C(=O)C1([H])N(C(=O)C([H])(N([H])C(=O)C([H])(N([H])C([H])([H])[H])C([H])([H])[H])C(C([H])([H])[H])(C([H])([H])[H])C([H])([H])[H])C([H])([H])c2c([H])c(OC([H])([H])C([H])([H])N=C3C([H])([H])C([H])([H])C([H])([H])C(C([H])([H])[H])(C([H])([H])C(=O)N4C([H])([H])C([H])([H])C([H])([H])C([H])(n5nc(-c6c([H])c([H])c(Oc7c([H])c([H])c(F)c([H])c7F)c([H])c6[H])c(C(=O)N([H])[H])c5N([H])[H])C4([H])[H])C3([H])[H])c([H])c([H])c2C1([H])[H]

>  <smiles>  (28) 
[H]c1c([H])c([H])c2c(c1[H])C([H])([H])C([H])([H])C([H])([H])C2([H])N([H])C(=O)C1([H])N(C(=O)C([H])(N([H])C(=O)C([H])(N([H])C([H])([H])[H])C([H])([H])[H])C(C([H])([H])[H])(C([H])([H])[H])C([H])([H])[H])C([H])([H])c2c([H])c(OC([H])([H])C([H])([H])N=C3C([H])([H])C([H])([H])C([H])([H])C(C([H])([H])[H])(C([H])([H])C(=O)N4C([H])([H])C([H])([H])C([H])([H])C([H])(n5nc(-c6c([H])c([H])c(Oc7c([H])c([H])c(F)c([H])c7F)c([H])c6[H])c(C(=O)N([H])[H])c5N([H])[H])C4([H])[H])C3([H])[H])c([H])c([H])c2C1([H])[H]

$$$$
29:0:0
     RDKit          3D

 83 90  0  0  1  0  0  0  0  0999 V2000
  -30.0400  -16.4510   20.2400 C   0  0  0  0  0  0  0  0  0  0  0  0
  -30.3380  -13.7140   19.5150 C   0  0  0  0  0  2  0  0  0  0  0  0
  -29.5840  -12.9150   18.3840 C   0  0  0  0  0  2  0  0  0  0  0  0
  -28.2280  -12.3910   18.8610 C   0  0  0  0  0  2  0  0  0  0  0  0
  -27.5770  -13.4450   19.7700 C   0  0  0  0  0  3  0  0  0  0  0  0
  -28.5190  -14.1110   20.8330 C   0  0  0  0  0  2  0  0  0  0  0  0
  -29.5600  -14.9650   20.1270 N   0  0  0  0  0  0  0  0  0  0  0  0
  -31.2820  -16.1950   20.1830 O   0  0  0  0  0  0  0  0  0  0  0  0
  -29.5390  -21.4550   19.5260 C   0  0  0  0  0  2  0  0  0  0  0  0
  -28.0200  -21.1120   20.8350 C   0  0  0  0  0  2  0  0  0  0  0  0
  -30.1120  -19.6710   19.9600 C   0  0  0  0  0  2  0  0  0  0  0  0
  -28.1980  -19.2300   20.4500 C   0  0  0  0  0  2  0  0  0  0  0  0
  -28.2970  -22.7400   20.0010 C   0  0  0  0  0  2  0  0  0  0  0  0
  -29.4630  -18.1080   20.1840 N   0  0  0  0  0  0  0  0  0  0  0  0
  -25.2020  -13.8910   20.4860 C   0  0  0  0  0  0  0  0  0  0  0  0
  -24.1500  -13.0950   20.8320 C   0  0  0  0  0  0  0  0  0  0  0  0
  -24.6460  -11.7530   20.8270 C   0  0  0  0  0  0  0  0  0  0  0  0
  -26.2720  -13.0460   20.2860 N   0  0  0  0  0  0  0  0  0  0  0  0
  -25.9510  -11.7470   20.5470 N   0  0  0  0  0  0  0  0  0  0  0  0
  -23.9240  -10.4830   21.0140 C   0  0  0  0  0  0  0  0  0  0  0  0
  -24.3400   -9.5250   21.9660 C   0  0  0  0  0  3  0  0  0  0  0  0
  -23.6090   -8.3290   22.1470 C   0  0  0  0  0  3  0  0  0  0  0  0
  -22.4480   -8.0810   21.3770 C   0  0  0  0  0  0  0  0  0  0  0  0
  -22.0500   -9.0270   20.4170 C   0  0  0  0  0  3  0  0  0  0  0  0
  -22.7810  -10.2140   20.2340 C   0  0  0  0  0  3  0  0  0  0  0  0
  -21.6930   -6.9360   21.4660 O   0  0  0  0  0  0  0  0  0  0  0  0
  -21.6320   -6.1990   22.6220 C   0  0  0  0  0  0  0  0  0  0  0  0
  -21.2040   -6.7630   23.8430 C   0  0  0  0  0  3  0  0  0  0  0  0
  -21.0910   -5.9540   24.9910 C   0  0  0  0  0  3  0  0  0  0  0  0
  -21.3960   -4.5820   24.9200 C   0  0  0  0  0  0  0  0  0  0  0  0
  -21.8180   -4.0170   23.7040 C   0  0  0  0  0  3  0  0  0  0  0  0
  -21.9320   -4.8230   22.5580 C   0  0  0  0  0  0  0  0  0  0  0  0
  -22.3170   -4.2690   21.3820 F   0  0  0  0  0  0  0  0  0  0  0  0
  -21.2800   -3.8030   26.0210 F   0  0  0  0  0  0  0  0  0  0  0  0
  -22.7400  -13.5560   21.0490 C   0  0  0  0  0  0  0  0  0  0  0  0
  -21.9990  -12.8740   21.9140 N   0  0  0  0  0  0  0  0  0  0  0  0
  -22.3050  -14.5610   20.4880 O   0  0  0  0  0  0  0  0  0  0  0  0
  -22.3650  -12.0630   22.3890 H   0  0  0  0  0  0  0  0  0  0  0  0
  -21.0510  -13.1680   22.1030 H   0  0  0  0  0  0  0  0  0  0  0  0
  -25.3380  -15.2620   20.2890 N   0  0  0  0  0  0  0  0  0  0  0  0
  -24.5520  -15.9000   20.3660 H   0  0  0  0  0  0  0  0  0  0  0  0
  -26.1870  -15.7150   19.9770 H   0  0  0  0  0  0  0  0  0  0  0  0
  -28.1700  -24.7750   20.1880 O   0  0  0  0  0  1  0  0  0  0  0  0
  -24.7530  -31.7710   23.0090 C   0  0  0  0  0  0  0  0  0  0  0  0
  -27.2450  -26.2140   20.1220 C   0  0  0  0  0  0  0  0  0  0  0  0
  -23.5790  -30.3370   21.4020 C   0  0  0  0  0  3  0  0  0  0  0  0
  -25.0240  -28.5690   20.0360 C   0  0  0  0  0  0  0  0  0  0  0  0
  -26.1750  -30.3310   21.3290 C   0  0  0  0  0  2  0  0  0  0  0  0
  -26.2300  -28.8350   20.6910 C   0  0  0  0  0  0  0  0  0  0  0  0
  -27.2940  -27.7040   20.6890 C   0  0  0  0  0  3  0  0  0  0  0  0
  -26.0000  -26.2940   19.3970 C   0  0  0  0  0  3  0  0  0  0  0  0
  -24.9790  -27.3300   19.3620 C   0  0  0  0  0  3  0  0  0  0  0  0
  -23.8390  -29.5820   20.0570 C   0  0  0  0  0  2  0  0  0  0  0  0
  -24.8660  -30.8600   21.9640 N   0  0  0  0  0  0  0  0  0  0  0  0
  -23.6510  -32.0980   23.4920 O   0  0  0  0  0  0  0  0  0  0  0  0
  -22.8180  -29.4200   22.4010 C   0  0  0  0  0  0  0  0  0  0  0  0
  -21.4760  -29.3140   22.3020 N   0  0  0  0  0  0  0  0  0  0  0  0
  -23.4570  -28.7940   23.2490 O   0  0  0  0  0  0  0  0  0  0  0  0
  -21.0020  -29.8670   21.6020 H   0  0  0  0  0  0  0  0  0  0  0  0
  -18.0660  -28.1740   22.9100 C   0  0  0  0  0  0  0  0  0  0  0  0
  -20.6400  -28.3970   23.0950 C   0  0  0  0  0  3  0  0  0  0  0  0
  -20.6930  -26.9630   22.5170 C   0  0  0  0  0  2  0  0  0  0  0  0
  -19.5590  -26.6680   21.5290 C   0  0  0  0  0  2  0  0  0  0  0  0
  -18.1990  -26.8310   22.2120 C   0  0  0  0  0  2  0  0  0  0  0  0
  -19.2100  -28.9170   23.3080 C   0  0  0  0  0  0  0  0  0  0  0  0
  -19.0250  -30.1690   23.9320 C   0  0  0  0  0  3  0  0  0  0  0  0
  -17.7320  -30.6820   24.1540 C   0  0  0  0  0  3  0  0  0  0  0  0
  -16.6050  -29.9380   23.7640 C   0  0  0  0  0  3  0  0  0  0  0  0
  -16.7730  -28.6850   23.1500 C   0  0  0  0  0  3  0  0  0  0  0  0
  -25.9940  -32.4580   23.6590 C   0  0  0  0  0  3  0  0  0  0  0  0
  -25.6340  -33.8470   24.0330 N   0  0  0  0  0  0  0  0  0  0  0  0
  -25.9390  -34.9510   23.3360 C   0  0  0  0  0  0  0  0  0  0  0  0
  -26.5960  -34.9100   22.2950 O   0  0  0  0  0  0  0  0  0  0  0  0
  -25.0420  -33.9490   24.8450 H   0  0  0  0  0  0  0  0  0  0  0  0
  -24.1730  -36.7430   23.1210 C   0  0  0  0  0  1  0  0  0  0  0  0
  -25.4450  -36.3160   23.8720 C   0  0  0  0  0  3  0  0  0  0  0  0
  -27.5860  -37.2150   24.6810 C   0  0  0  0  0  1  0  0  0  0  0  0
  -26.4540  -37.3940   23.7750 N   0  0  0  0  0  0  0  0  0  0  0  0
  -26.0340  -38.3000   23.9680 H   0  0  0  0  0  0  0  0  0  0  0  0
  -26.5160  -31.6970   24.9430 C   0  0  1  0  0  0  0  0  0  0  0  0
  -25.4230  -31.4500   26.0110 C   0  0  0  0  0  1  0  0  0  0  0  0
  -27.1180  -30.3250   24.5750 C   0  0  0  0  0  1  0  0  0  0  0  0
  -27.6570  -32.5070   25.6040 C   0  0  0  0  0  1  0  0  0  0  0  0
  2  7  1  0
  3  4  1  0
  3  2  1  0
  5  4  1  0
  5 18  1  0
  5  6  1  0
  7  1  1  0
  7  6  1  0
  8  1  2  0
  9 11  1  0
  9 13  1  0
 11 14  1  0
 12 10  1  0
 13 10  1  0
 14  1  1  0
 14 12  1  0
 15 16  2  0
 16 35  1  0
 17 16  1  0
 17 20  1  0
 18 15  1  0
 18 19  1  0
 19 17  2  0
 20 21  1  0
 21 22  2  0
 23 26  1  0
 23 22  1  0
 24 23  2  0
 25 24  1  0
 25 20  2  0
 26 27  1  0
 27 28  1  0
 28 29  2  0
 30 29  1  0
 30 34  1  0
 31 30  2  0
 32 27  2  0
 32 31  1  0
 33 32  1  0
 35 36  1  0
 36 39  1  0
 36 38  1  0
 37 35  2  0
 40 41  1  0
 40 15  1  0
 42 40  1  0
 44 55  2  0
 45 43  1  0
 45 50  1  0
 46 54  1  0
 46 56  1  0
 47 53  1  0
 47 49  1  0
 48 54  1  0
 49 48  1  0
 50 49  2  0
 51 45  2  0
 52 51  1  0
 52 47  2  0
 53 46  1  0
 54 44  1  0
 56 58  2  0
 57 56  1  0
 59 57  1  0
 60 69  2  0
 60 65  1  0
 61 57  1  0
 61 65  1  0
 62 61  1  0
 63 64  1  0
 63 62  1  0
 64 60  1  0
 65 66  2  0
 66 67  1  0
 68 67  2  0
 69 68  1  0
 70 44  1  0
 70 71  1  0
 70 80  1  0
 71 74  1  0
 72 76  1  0
 72 71  1  0
 73 72  2  0
 76 75  1  0
 78 76  1  0
 78 79  1  0
 78 77  1  0
 80 83  1  1
 80 81  1  0
 82 80  1  0
M  ISO  4   1 100  13 101  14 100  43 101
M  END
>  <TORSDO>  (29) 
F 15

>  <SCORE>  (29) 
-16.160

>  <name>  (29) 
29

>  <ligand_id>  (29) 
29

>  <original_smiles>  (29) 
[H]c1c([H])c([H])c2c(c1[H])C([H])([H])C([H])([H])C([H])([H])C2([H])N([H])C(=O)C1([H])N(C(=O)C([H])(N([H])C(=O)C([H])(N([H])C([H])([H])[H])C([H])([H])[H])C(C([H])([H])[H])(C([H])([H])[H])C([H])([H])[H])C([H])([H])c2c([H])c(OC3([H])C([H])([H])C([H])([H])N(C(=O)N4C([H])([H])C([H])([H])C([H])([H])C([H])(n5nc(-c6c([H])c([H])c(Oc7c([H])c([H])c(F)c([H])c7F)c([H])c6[H])c(C(=O)N([H])[H])c5N([H])[H])C4([H])[H])C([H])([H])C3([H])[H])c([H])c([H])c2C1([H])[H]

>  <smiles>  (29) 
[H]c1c([H])c([H])c2c(c1[H])C([H])([H])C([H])([H])C([H])([H])C2([H])N([H])C(=O)C1([H])N(C(=O)C([H])(N([H])C(=O)C([H])(N([H])C([H])([H])[H])C([H])([H])[H])C(C([H])([H])[H])(C([H])([H])[H])C([H])([H])[H])C([H])([H])c2c([H])c(OC3([H])C([H])([H])C([H])([H])N(C(=O)N4C([H])([H])C([H])([H])C([H])([H])C([H])(n5nc(-c6c([H])c([H])c(Oc7c([H])c([H])c(F)c([H])c7F)c([H])c6[H])c(C(=O)N([H])[H])c5N([H])[H])C4([H])[H])C([H])([H])C3([H])[H])c([H])c([H])c2C1([H])[H]

$$$$
30:0:0
     RDKit          3D

 92 99  0  0  1  0  0  0  0  0999 V2000
  -28.7920  -21.2300   19.6850 C   0  0  0  0  0  3  0  0  0  0  0  0
  -28.8520  -19.6920   21.7160 C   0  0  0  0  0  1  0  0  0  0  0  0
  -29.4620  -19.8800   20.3770 N   0  0  1  0  0  4  0  0  0  0  0  0
  -30.3940  -20.2040   20.5870 H   0  0  0  0  0  0  0  0  0  0  0  0
  -29.7330  -18.3940   19.6730 C   0  0  0  0  0  3  0  0  0  0  0  0
  -32.0780  -18.9880   18.7460 C   0  0  0  0  0  1  0  0  0  0  0  0
  -30.6310  -18.5800   18.4320 C   0  0  0  0  0  2  0  0  0  0  0  0
  -30.1430  -16.8490   20.4840 C   0  0  0  0  0  3  0  0  0  0  0  0
  -30.7230  -15.3080   19.9010 C   0  0  0  0  0  0  0  0  0  0  0  0
  -30.5650  -12.8920   18.9910 C   0  0  0  0  0  2  0  0  0  0  0  0
  -29.5900  -12.8120   17.7910 C   0  0  0  0  0  2  0  0  0  0  0  0
  -28.1520  -12.5770   18.2800 C   0  0  0  0  0  2  0  0  0  0  0  0
  -27.7910  -13.5050   19.4680 C   0  0  0  0  0  3  0  0  0  0  0  0
  -28.8920  -13.5690   20.5490 C   0  0  0  0  0  2  0  0  0  0  0  0
  -30.1260  -14.0200   19.8910 N   0  0  0  0  0  0  0  0  0  0  0  0
  -31.8770  -15.2790   19.4500 O   0  0  0  0  0  0  0  0  0  0  0  0
  -25.4590  -14.0890   20.3230 C   0  0  0  0  0  0  0  0  0  0  0  0
  -24.4020  -13.3210   20.7270 C   0  0  0  0  0  0  0  0  0  0  0  0
  -24.8490  -11.9650   20.6610 C   0  0  0  0  0  0  0  0  0  0  0  0
  -26.4790  -13.2030   20.0260 N   0  0  0  0  0  0  0  0  0  0  0  0
  -26.1260  -11.9170   20.2980 N   0  0  0  0  0  0  0  0  0  0  0  0
  -24.1110  -10.7100   20.8660 C   0  0  0  0  0  0  0  0  0  0  0  0
  -24.5260   -9.7520   21.8200 C   0  0  0  0  0  3  0  0  0  0  0  0
  -23.7850   -8.5660   22.0140 C   0  0  0  0  0  3  0  0  0  0  0  0
  -22.6150   -8.3270   21.2530 C   0  0  0  0  0  0  0  0  0  0  0  0
  -22.2180   -9.2740   20.2910 C   0  0  0  0  0  3  0  0  0  0  0  0
  -22.9610  -10.4500   20.0960 C   0  0  0  0  0  3  0  0  0  0  0  0
  -21.8490   -7.1910   21.3540 O   0  0  0  0  0  0  0  0  0  0  0  0
  -21.7280   -6.5060   22.5370 C   0  0  0  0  0  0  0  0  0  0  0  0
  -21.2400   -7.1250   23.7080 C   0  0  0  0  0  3  0  0  0  0  0  0
  -21.0640   -6.3680   24.8830 C   0  0  0  0  0  3  0  0  0  0  0  0
  -21.3680   -4.9940   24.8900 C   0  0  0  0  0  0  0  0  0  0  0  0
  -21.8500   -4.3740   23.7240 C   0  0  0  0  0  3  0  0  0  0  0  0
  -22.0260   -5.1270   22.5500 C   0  0  0  0  0  0  0  0  0  0  0  0
  -22.4700   -4.5220   21.4220 F   0  0  0  0  0  0  0  0  0  0  0  0
  -21.1930   -4.2660   26.0170 F   0  0  0  0  0  0  0  0  0  0  0  0
  -23.0250  -13.8140   21.0570 C   0  0  0  0  0  0  0  0  0  0  0  0
  -22.3310  -13.1330   21.9610 N   0  0  0  0  0  0  0  0  0  0  0  0
  -22.5750  -14.8400   20.5490 O   0  0  0  0  0  0  0  0  0  0  0  0
  -22.7070  -12.3010   22.3890 H   0  0  0  0  0  0  0  0  0  0  0  0
  -21.4110  -13.4480   22.2310 H   0  0  0  0  0  0  0  0  0  0  0  0
  -25.6330  -15.4580   20.1560 N   0  0  0  0  0  0  0  0  0  0  0  0
  -24.8760  -16.1190   20.2960 H   0  0  0  0  0  0  0  0  0  0  0  0
  -26.4690  -15.8890   19.7860 H   0  0  0  0  0  0  0  0  0  0  0  0
  -30.9000  -16.5230   22.9400 C   0  0  0  0  0  1  0  0  0  0  0  0
  -31.1760  -17.1990   21.5890 C   0  0  0  0  0  2  0  0  0  0  0  0
  -28.8750  -22.9100   20.2690 C   0  0  0  0  0  3  0  0  0  0  0  0
  -28.0240  -24.3970   19.7860 C   0  0  0  0  0  3  0  0  0  0  0  0
  -28.1950  -25.9790   20.1200 O   0  0  0  0  0  0  0  0  0  0  0  0
  -24.5610  -31.8350   23.0790 C   0  0  0  0  0  0  0  0  0  0  0  0
  -27.1640  -27.0350   20.0310 C   0  0  0  0  0  0  0  0  0  0  0  0
  -23.3730  -30.4270   21.4440 C   0  0  0  0  0  3  0  0  0  0  0  0
  -24.8340  -28.8490   20.0070 C   0  0  0  0  0  0  0  0  0  0  0  0
  -25.9330  -30.6740   21.2890 C   0  0  0  0  0  2  0  0  0  0  0  0
  -26.0150  -29.2740   20.6250 C   0  0  0  0  0  0  0  0  0  0  0  0
  -27.1730  -28.3850   20.6200 C   0  0  0  0  0  3  0  0  0  0  0  0
  -25.9570  -26.7520   19.3550 C   0  0  0  0  0  3  0  0  0  0  0  0
  -24.8240  -27.6050   19.3570 C   0  0  0  0  0  3  0  0  0  0  0  0
  -23.6030  -29.7490   20.0650 C   0  0  0  0  0  2  0  0  0  0  0  0
  -24.6430  -31.0060   21.9910 N   0  0  0  0  0  0  0  0  0  0  0  0
  -23.4720  -32.1130   23.6060 O   0  0  0  0  0  0  0  0  0  0  0  0
  -22.7010  -29.4180   22.4110 C   0  0  0  0  0  0  0  0  0  0  0  0
  -21.3750  -29.2330   22.2850 N   0  0  0  0  0  0  0  0  0  0  0  0
  -23.3800  -28.8030   23.2370 O   0  0  0  0  0  0  0  0  0  0  0  0
  -20.8870  -29.7830   21.5910 H   0  0  0  0  0  0  0  0  0  0  0  0
  -18.0130  -27.9660   22.7880 C   0  0  0  0  0  0  0  0  0  0  0  0
  -20.5660  -28.2840   23.0590 C   0  0  0  0  0  3  0  0  0  0  0  0
  -20.6970  -26.8510   22.4930 C   0  0  0  0  0  2  0  0  0  0  0  0
  -19.6070  -26.5000   21.4760 C   0  0  0  0  0  2  0  0  0  0  0  0
  -18.2210  -26.6190   22.1160 C   0  0  0  0  0  2  0  0  0  0  0  0
  -19.1140  -28.7550   23.2160 C   0  0  0  0  0  0  0  0  0  0  0  0
  -18.8670  -30.0110   23.8110 C   0  0  0  0  0  3  0  0  0  0  0  0
  -17.5530  -30.4840   23.9750 C   0  0  0  0  0  3  0  0  0  0  0  0
  -16.4660  -29.6930   23.5630 C   0  0  0  0  0  3  0  0  0  0  0  0
  -16.6970  -28.4350   22.9790 C   0  0  0  0  0  3  0  0  0  0  0  0
  -25.8300  -32.4910   23.7040 C   0  0  0  0  0  3  0  0  0  0  0  0
  -26.3700  -31.7160   24.9700 C   0  0  1  0  0  0  0  0  0  0  0  0
  -25.2840  -31.4420   26.0390 C   0  0  0  0  0  1  0  0  0  0  0  0
  -26.9790  -30.3560   24.5650 C   0  0  0  0  0  1  0  0  0  0  0  0
  -27.5090  -32.5270   25.6340 C   0  0  0  0  0  1  0  0  0  0  0  0
  -25.4890  -33.8780   24.0660 N   0  0  0  0  0  0  0  0  0  0  0  0
  -25.7890  -34.9590   23.3340 C   0  0  0  0  0  0  0  0  0  0  0  0
  -26.4450  -34.8950   22.2920 O   0  0  0  0  0  0  0  0  0  0  0  0
  -24.9080  -34.0000   24.8820 H   0  0  0  0  0  0  0  0  0  0  0  0
  -24.0280  -36.7370   23.0430 C   0  0  0  0  0  1  0  0  0  0  0  0
  -25.2820  -36.3280   23.8330 C   0  0  0  0  0  3  0  0  0  0  0  0
  -27.4080  -37.2270   24.6720 C   0  0  0  0  0  1  0  0  0  0  0  0
  -26.2960  -37.4020   23.7440 N   0  0  0  0  0  0  0  0  0  0  0  0
  -25.8780  -38.3110   23.9220 H   0  0  0  0  0  0  0  0  0  0  0  0
  -27.3070  -20.9190   19.3770 C   0  0  0  0  0  2  0  0  0  0  0  0
  -25.3480  -21.0960   17.7590 C   0  0  0  0  0  1  0  0  0  0  0  0
  -26.8280  -21.4110   18.0000 C   0  0  0  0  0  2  0  0  0  0  0  0
  1 90  1  0
  1 47  1  0
  1  3  1  0
  3  4  1  1
  3  2  1  0
  5  7  1  0
  5  3  1  0
  5  8  1  0
  7  6  1  0
  8 46  1  0
  9  8  1  0
 10 15  1  0
 11 12  1  0
 11 10  1  0
 13 12  1  0
 13 20  1  0
 13 14  1  0
 15  9  1  0
 15 14  1  0
 16  9  2  0
 17 18  2  0
 18 37  1  0
 19 18  1  0
 19 22  1  0
 20 21  1  0
 20 17  1  0
 21 19  2  0
 22 23  1  0
 23 24  2  0
 25 28  1  0
 25 24  1  0
 26 25  2  0
 27 26  1  0
 27 22  2  0
 28 29  1  0
 29 34  2  0
 29 30  1  0
 30 31  2  0
 31 32  1  0
 32 36  1  0
 33 32  2  0
 34 33  1  0
 35 34  1  0
 37 38  1  0
 38 41  1  0
 38 40  1  0
 39 37  2  0
 42 43  1  0
 42 17  1  0
 44 42  1  0
 46 45  1  0
 48 49  1  0
 48 47  2  0
 50 61  2  0
 51 49  1  0
 51 56  1  0
 52 60  1  0
 52 62  1  0
 53 59  1  0
 53 55  1  0
 54 60  1  0
 55 54  1  0
 56 55  2  0
 57 58  1  0
 57 51  2  0
 58 53  2  0
 59 52  1  0
 60 50  1  0
 62 64  2  0
 63 62  1  0
 65 63  1  0
 66 75  2  0
 66 71  1  0
 67 63  1  0
 67 71  1  0
 68 67  1  0
 69 70  1  0
 69 68  1  0
 70 66  1  0
 71 72  2  0
 72 73  1  0
 74 73  2  0
 75 74  1  0
 76 50  1  0
 76 81  1  0
 76 77  1  0
 77 80  1  1
 77 78  1  0
 79 77  1  0
 81 84  1  0
 82 86  1  0
 82 81  1  0
 83 82  2  0
 86 85  1  0
 88 86  1  0
 88 89  1  0
 88 87  1  0
 91 92  1  0
 92 90  1  0
M  ISO  4   8 100   9 100  48 101  49 101
M  END
>  <TORSDO>  (30) 
F 25

>  <SCORE>  (30) 
-12.234

>  <name>  (30) 
30

>  <ligand_id>  (30) 
30

>  <original_smiles>  (30) 
[H]c1c([H])c([H])c2c(c1[H])C([H])([H])C([H])([H])C([H])([H])C2([H])N([H])C(=O)C1([H])N(C(=O)C([H])(N([H])C(=O)C([H])(N([H])C([H])([H])[H])C([H])([H])[H])C(C([H])([H])[H])(C([H])([H])[H])C([H])([H])[H])C([H])([H])c2c([H])c(OC([H])([H])C([H])([H])C([H])(C([H])([H])C([H])([H])C([H])([H])[H])[N+]([H])(C([H])([H])[H])C([H])(C([H])([H])C([H])([H])[H])C([H])(C(=O)N3C([H])([H])C([H])([H])C([H])([H])C([H])(n4nc(-c5c([H])c([H])c(Oc6c([H])c([H])c(F)c([H])c6F)c([H])c5[H])c(C(=O)N([H])[H])c4N([H])[H])C3([H])[H])C([H])([H])C([H])([H])[H])c([H])c([H])c2C1([H])[H]

>  <smiles>  (30) 
[H]c1c([H])c([H])c2c(c1[H])C([H])([H])C([H])([H])C([H])([H])C2([H])N([H])C(=O)C1([H])N(C(=O)C([H])(N([H])C(=O)C([H])(N([H])C([H])([H])[H])C([H])([H])[H])C(C([H])([H])[H])(C([H])([H])[H])C([H])([H])[H])C([H])([H])c2c([H])c(OC([H])([H])C([H])([H])C([H])(C([H])([H])C([H])([H])C([H])([H])[H])[N+]([H])(C([H])([H])[H])C([H])(C([H])([H])C([H])([H])[H])C([H])(C(=O)N3C([H])([H])C([H])([H])C([H])([H])C([H])(n4nc(-c5c([H])c([H])c(Oc6c([H])c([H])c(F)c([H])c6F)c([H])c5[H])c(C(=O)N([H])[H])c4N([H])[H])C3([H])[H])C([H])([H])C([H])([H])[H])c([H])c([H])c2C1([H])[H]

$$$$
31:0:0
     RDKit          3D

 85 88  0  0  1  0  0  0  0  0999 V2000
  -28.8970  -21.6050   20.3610 C   0  0  0  0  0 15  0  0  0  0  0  0
  -28.2040  -23.4920   19.9250 C   0  0  0  0  0  1  0  0  0  0  0  0
  -28.1600  -25.2870   20.3770 O   0  0  0  0  0  0  0  0  0  0  0  0
  -24.6740  -31.7920   23.2500 C   0  0  0  0  0  0  0  0  0  0  0  0
  -27.2140  -26.5780   20.2760 C   0  0  0  0  0  0  0  0  0  0  0  0
  -23.5030  -30.3940   21.6030 C   0  0  0  0  0  3  0  0  0  0  0  0
  -24.9620  -28.7170   20.2050 C   0  0  0  0  0  0  0  0  0  0  0  0
  -26.0910  -30.4840   21.5220 C   0  0  0  0  0  2  0  0  0  0  0  0
  -26.1560  -29.0380   20.8600 C   0  0  0  0  0  0  0  0  0  0  0  0
  -27.2550  -28.0010   20.8610 C   0  0  0  0  0  3  0  0  0  0  0  0
  -25.9870  -26.5130   19.5530 C   0  0  0  0  0  3  0  0  0  0  0  0
  -24.9270  -27.4840   19.5260 C   0  0  0  0  0  3  0  0  0  0  0  0
  -23.7600  -29.6860   20.2390 C   0  0  0  0  0  2  0  0  0  0  0  0
  -24.7810  -30.9290   22.1750 N   0  0  0  0  0  0  0  0  0  0  0  0
  -23.5750  -32.0980   23.7460 O   0  0  0  0  0  0  0  0  0  0  0  0
  -22.7630  -29.4300   22.5700 C   0  0  0  0  0  0  0  0  0  0  0  0
  -21.4290  -29.2870   22.4380 N   0  0  0  0  0  0  0  0  0  0  0  0
  -23.4040  -28.8050   23.4170 O   0  0  0  0  0  0  0  0  0  0  0  0
  -20.9570  -29.8380   21.7350 H   0  0  0  0  0  0  0  0  0  0  0  0
  -18.0340  -28.0810   22.9330 C   0  0  0  0  0  0  0  0  0  0  0  0
  -20.5940  -28.3530   23.2060 C   0  0  0  0  0  3  0  0  0  0  0  0
  -20.6950  -26.9190   22.6320 C   0  0  0  0  0  2  0  0  0  0  0  0
  -19.6000  -26.5980   21.6100 C   0  0  0  0  0  2  0  0  0  0  0  0
  -18.2150  -26.7380   22.2470 C   0  0  0  0  0  2  0  0  0  0  0  0
  -19.1500  -28.8480   23.3680 C   0  0  0  0  0  0  0  0  0  0  0  0
  -18.9220  -30.1020   23.9730 C   0  0  0  0  0  3  0  0  0  0  0  0
  -17.6140  -30.5930   24.1440 C   0  0  0  0  0  3  0  0  0  0  0  0
  -16.5140  -29.8260   23.7220 C   0  0  0  0  0  3  0  0  0  0  0  0
  -16.7250  -28.5720   23.1230 C   0  0  0  0  0  3  0  0  0  0  0  0
  -25.9250  -32.4490   23.9070 C   0  0  0  0  0  3  0  0  0  0  0  0
  -26.3830  -31.7160   25.2300 C   0  0  1  0  0  0  0  0  0  0  0  0
  -25.2460  -31.5250   26.2630 C   0  0  0  0  0  1  0  0  0  0  0  0
  -26.9630  -30.3180   24.9210 C   0  0  0  0  0  1  0  0  0  0  0  0
  -27.5180  -32.5180   25.9080 C   0  0  0  0  0  1  0  0  0  0  0  0
  -25.6060  -33.8610   24.2110 N   0  0  0  0  0  0  0  0  0  0  0  0
  -25.9480  -34.9130   23.4540 C   0  0  0  0  0  0  0  0  0  0  0  0
  -26.6150  -34.7970   22.4250 O   0  0  0  0  0  0  0  0  0  0  0  0
  -25.0080  -34.0220   25.0070 H   0  0  0  0  0  0  0  0  0  0  0  0
  -24.2180  -36.7180   23.1230 C   0  0  0  0  0  1  0  0  0  0  0  0
  -25.4780  -36.3130   23.9060 C   0  0  0  0  0  3  0  0  0  0  0  0
  -27.6290  -37.2140   24.6800 C   0  0  0  0  0  1  0  0  0  0  0  0
  -26.5090  -37.3640   23.7540 N   0  0  0  0  0  0  0  0  0  0  0  0
  -26.1060  -38.2870   23.8870 H   0  0  0  0  0  0  0  0  0  0  0  0
  -29.2810  -19.7010   19.6890 C   0  0  0  0  0  1  0  0  0  0  0  0
  -28.1280  -17.4470   20.8040 C   0  0  0  0  0  1  0  0  0  0  0  0
  -30.4430  -18.0190   21.4900 C   0  0  0  0  0  1  0  0  0  0  0  0
  -29.5350  -17.7510   20.2750 C   0  0  0  0  0  2  0  0  0  0  0  0
  -30.1880  -15.9440   19.7830 C   0  0  0  0  0  2  0  0  0  0  0  0
  -30.3030  -13.3360   18.9420 C   0  0  0  0  0  2  0  0  0  0  0  0
  -29.3470  -12.8750   17.7940 C   0  0  0  0  0  2  0  0  0  0  0  0
  -27.9650  -12.4760   18.3350 C   0  0  0  0  0  2  0  0  0  0  0  0
  -27.5150  -13.4570   19.4360 C   0  0  0  0  0  3  0  0  0  0  0  0
  -28.6150  -13.8000   20.4720 C   0  0  0  0  0  2  0  0  0  0  0  0
  -29.7170  -14.5170   19.7660 N   0  0  0  0  0  0  0  0  0  0  0  0
  -31.3750  -15.8290   19.4060 O   0  0  0  0  0  1  0  0  0  0  0  0
  -25.2280  -13.9500   20.4060 C   0  0  0  0  0  0  0  0  0  0  0  0
  -24.1970  -13.1640   20.8260 C   0  0  0  0  0  0  0  0  0  0  0  0
  -24.6550  -11.8150   20.7110 C   0  0  0  0  0  0  0  0  0  0  0  0
  -26.2460  -13.0890   20.0480 N   0  0  0  0  0  0  0  0  0  0  0  0
  -25.9200  -11.7910   20.2950 N   0  0  0  0  0  0  0  0  0  0  0  0
  -23.9300  -10.5510   20.9140 C   0  0  0  0  0  0  0  0  0  0  0  0
  -24.3790   -9.5760   21.8300 C   0  0  0  0  0  3  0  0  0  0  0  0
  -23.6480   -8.3830   22.0220 C   0  0  0  0  0  3  0  0  0  0  0  0
  -22.4540   -8.1560   21.2990 C   0  0  0  0  0  0  0  0  0  0  0  0
  -22.0220   -9.1210   20.3720 C   0  0  0  0  0  3  0  0  0  0  0  0
  -22.7530  -10.3050   20.1790 C   0  0  0  0  0  3  0  0  0  0  0  0
  -21.6910   -7.0180   21.4020 O   0  0  0  0  0  0  0  0  0  0  0  0
  -21.6170   -6.3040   22.5710 C   0  0  0  0  0  0  0  0  0  0  0  0
  -21.1540   -6.8850   23.7710 C   0  0  0  0  0  3  0  0  0  0  0  0
  -21.0290   -6.0970   24.9330 C   0  0  0  0  0  3  0  0  0  0  0  0
  -21.3570   -4.7280   24.8950 C   0  0  0  0  0  0  0  0  0  0  0  0
  -21.8140   -4.1470   23.6990 C   0  0  0  0  0  3  0  0  0  0  0  0
  -21.9410   -4.9330   22.5410 C   0  0  0  0  0  0  0  0  0  0  0  0
  -22.3620   -4.3620   21.3860 F   0  0  0  0  0  0  0  0  0  0  0  0
  -21.2310   -3.9700   26.0090 F   0  0  0  0  0  0  0  0  0  0  0  0
  -22.8290  -13.6400   21.2150 C   0  0  0  0  0  0  0  0  0  0  0  0
  -22.1610  -12.9250   22.1110 N   0  0  0  0  0  0  0  0  0  0  0  0
  -22.3660  -14.6860   20.7590 O   0  0  0  0  0  0  0  0  0  0  0  0
  -22.5510  -12.0820   22.5070 H   0  0  0  0  0  0  0  0  0  0  0  0
  -21.2450  -13.2300   22.4110 H   0  0  0  0  0  0  0  0  0  0  0  0
  -25.3770  -15.3260   20.2640 N   0  0  0  0  0  0  0  0  0  0  0  0
  -24.6200  -15.9720   20.4620 H   0  0  0  0  0  0  0  0  0  0  0  0
  -26.2030  -15.7780   19.8940 H   0  0  0  0  0  0  0  0  0  0  0  0
  -30.0370  -20.7720   17.4590 C   0  0  0  0  0  1  0  0  0  0  0  0
  -30.4120  -19.8920   18.6620 C   0  0  0  0  0  2  0  0  0  0  0  0
  2  3  1  0
  4 15  2  0
  5  3  1  0
  5 10  1  0
  6 14  1  0
  6 16  1  0
  7 13  1  0
  7  9  1  0
  8 14  1  0
  9 10  2  0
  9  8  1  0
 11  5  2  0
 12 11  1  0
 12  7  2  0
 13  6  1  0
 14  4  1  0
 16 18  2  0
 17 16  1  0
 19 17  1  0
 20 29  2  0
 20 25  1  0
 21 17  1  0
 21 25  1  0
 22 21  1  0
 23 24  1  0
 23 22  1  0
 24 20  1  0
 25 26  2  0
 26 27  1  0
 28 27  2  0
 29 28  1  0
 30  4  1  0
 30 35  1  0
 30 31  1  0
 31 34  1  1
 31 32  1  0
 33 31  1  0
 35 38  1  0
 36 40  1  0
 36 35  1  0
 37 36  2  0
 40 39  1  0
 42 43  1  0
 42 40  1  0
 42 41  1  0
 47 45  1  0
 47 46  1  0
 49 54  1  0
 50 51  1  0
 50 49  1  0
 52 51  1  0
 52 59  1  0
 52 53  1  0
 54 48  1  0
 54 53  1  0
 55 48  1  0
 56 57  2  0
 57 76  1  0
 58 57  1  0
 58 61  1  0
 59 60  1  0
 59 56  1  0
 60 58  2  0
 61 62  1  0
 62 63  2  0
 64 67  1  0
 64 63  1  0
 65 64  2  0
 66 65  1  0
 66 61  2  0
 67 68  1  0
 68 69  1  0
 69 70  2  0
 71 70  1  0
 71 75  1  0
 72 71  2  0
 73 68  2  0
 73 72  1  0
 74 73  1  0
 76 77  1  0
 77 80  1  0
 77 79  1  0
 78 76  2  0
 81 56  1  0
 81 82  1  0
 83 81  1  0
 84 85  1  0
 85 44  1  0
M  ISO  4   2 101   3 101  47 100  48 100
M  END
>  <TORSDO>  (31) 
F 20

>  <SCORE>  (31) 
-15.653

>  <name>  (31) 
31

>  <ligand_id>  (31) 
31

>  <original_smiles>  (31) 
[H]c1c([H])c([H])c2c(c1[H])C([H])([H])C([H])([H])C([H])([H])C2([H])N([H])C(=O)C1([H])N(C(=O)C([H])(N([H])C(=O)C([H])(N([H])C([H])([H])[H])C([H])([H])[H])C(C([H])([H])[H])(C([H])([H])[H])C([H])([H])[H])C([H])([H])c2c([H])c(OC([H])([H])C([H])([H])C([H])(C([H])([H])C([H])([H])[H])C(C(=O)N3C([H])([H])C([H])([H])C([H])([H])C([H])(n4nc(-c5c([H])c([H])c(Oc6c([H])c([H])c(F)c([H])c6F)c([H])c5[H])c(C(=O)N([H])[H])c4N([H])[H])C3([H])[H])(C([H])([H])[H])C([H])([H])[H])c([H])c([H])c2C1([H])[H]

>  <smiles>  (31) 
[H]c1c([H])c([H])c2c(c1[H])C([H])([H])C([H])([H])C([H])([H])C2([H])N([H])C(=O)C1([H])N(C(=O)C([H])(N([H])C(=O)C([H])(N([H])C([H])([H])[H])C([H])([H])[H])C(C([H])([H])[H])(C([H])([H])[H])C([H])([H])[H])C([H])([H])c2c([H])c(OC([H])([H])C([H])([H])C([H])(C([H])([H])C([H])([H])[H])C(C(=O)N3C([H])([H])C([H])([H])C([H])([H])C([H])(n4nc(-c5c([H])c([H])c(Oc6c([H])c([H])c(F)c([H])c6F)c([H])c5[H])c(C(=O)N([H])[H])c4N([H])[H])C3([H])[H])(C([H])([H])[H])C([H])([H])[H])c([H])c([H])c2C1([H])[H]

$$$$
32:0:0
     RDKit          3D

 85 89  0  0  1  0  0  0  0  0999 V2000
  -28.7660  -21.6020   20.5480 C   0  0  0  0  0 15  0  0  0  0  0  0
  -28.1790  -23.4960   20.0020 C   0  0  0  0  0  1  0  0  0  0  0  0
  -28.1130  -25.3040   20.3990 O   0  0  0  0  0  0  0  0  0  0  0  0
  -24.5750  -31.8120   23.1750 C   0  0  0  0  0  0  0  0  0  0  0  0
  -27.1620  -26.5890   20.2690 C   0  0  0  0  0  0  0  0  0  0  0  0
  -23.4230  -30.3930   21.5330 C   0  0  0  0  0  3  0  0  0  0  0  0
  -24.9000  -28.7130   20.1560 C   0  0  0  0  0  0  0  0  0  0  0  0
  -26.0080  -30.5000   21.4660 C   0  0  0  0  0  2  0  0  0  0  0  0
  -26.0860  -29.0480   20.8200 C   0  0  0  0  0  0  0  0  0  0  0  0
  -27.1890  -28.0160   20.8430 C   0  0  0  0  0  3  0  0  0  0  0  0
  -25.9440  -26.5090   19.5340 C   0  0  0  0  0  3  0  0  0  0  0  0
  -24.8790  -27.4720   19.4890 C   0  0  0  0  0  3  0  0  0  0  0  0
  -23.6930  -29.6760   20.1750 C   0  0  0  0  0  2  0  0  0  0  0  0
  -24.6940  -30.9400   22.1090 N   0  0  0  0  0  0  0  0  0  0  0  0
  -23.4710  -32.1170   23.6590 O   0  0  0  0  0  0  0  0  0  0  0  0
  -22.6820  -29.4340   22.5050 C   0  0  0  0  0  0  0  0  0  0  0  0
  -21.3470  -29.2980   22.3780 N   0  0  0  0  0  0  0  0  0  0  0  0
  -23.3240  -28.8060   23.3500 O   0  0  0  0  0  0  0  0  0  0  0  0
  -20.8760  -29.8540   21.6770 H   0  0  0  0  0  0  0  0  0  0  0  0
  -17.9440  -28.1240   22.9000 C   0  0  0  0  0  0  0  0  0  0  0  0
  -20.5090  -28.3690   23.1490 C   0  0  0  0  0  3  0  0  0  0  0  0
  -20.5910  -26.9370   22.5690 C   0  0  0  0  0  2  0  0  0  0  0  0
  -19.4830  -26.6310   21.5560 C   0  0  0  0  0  2  0  0  0  0  0  0
  -18.1060  -26.7810   22.2070 C   0  0  0  0  0  2  0  0  0  0  0  0
  -19.0710  -28.8760   23.3270 C   0  0  0  0  0  0  0  0  0  0  0  0
  -18.8610  -30.1300   23.9420 C   0  0  0  0  0  3  0  0  0  0  0  0
  -17.5590  -30.6320   24.1300 C   0  0  0  0  0  3  0  0  0  0  0  0
  -16.4480  -29.8780   23.7130 C   0  0  0  0  0  3  0  0  0  0  0  0
  -16.6410  -28.6250   23.1060 C   0  0  0  0  0  3  0  0  0  0  0  0
  -25.8190  -32.4810   23.8350 C   0  0  0  0  0  3  0  0  0  0  0  0
  -26.2890  -31.7450   25.1520 C   0  0  1  0  0  0  0  0  0  0  0  0
  -25.1590  -31.5370   26.1900 C   0  0  0  0  0  1  0  0  0  0  0  0
  -26.8840  -30.3560   24.8320 C   0  0  0  0  0  1  0  0  0  0  0  0
  -27.4180  -32.5570   25.8310 C   0  0  0  0  0  1  0  0  0  0  0  0
  -25.4820  -33.8860   24.1490 N   0  0  0  0  0  0  0  0  0  0  0  0
  -25.8300  -34.9510   23.4130 C   0  0  0  0  0  0  0  0  0  0  0  0
  -26.5220  -34.8540   22.3960 O   0  0  0  0  0  0  0  0  0  0  0  0
  -24.8680  -34.0330   24.9350 H   0  0  0  0  0  0  0  0  0  0  0  0
  -24.1120  -36.7600   23.0480 C   0  0  0  0  0  1  0  0  0  0  0  0
  -25.3390  -36.3420   23.8720 C   0  0  0  0  0  3  0  0  0  0  0  0
  -27.4590  -37.2320   24.7430 C   0  0  0  0  0  1  0  0  0  0  0  0
  -26.3750  -37.3960   23.7790 N   0  0  0  0  0  0  0  0  0  0  0  0
  -25.9660  -38.3170   23.9160 H   0  0  0  0  0  0  0  0  0  0  0  0
  -29.2370  -19.6960   19.9340 C   0  0  0  0  0  1  0  0  0  0  0  0
  -28.5070  -19.5800   18.6610 N   0  0  0  0  0  4  0  0  0  0  0  0
  -27.5310  -19.4130   18.8260 H   0  0  0  0  0  0  0  0  0  0  0  0
  -28.8740  -18.8270   18.1080 H   0  0  0  0  0  0  0  0  0  0  0  0
  -28.5980  -20.4250   18.1280 H   0  0  0  0  0  0  0  0  0  0  0  0
  -29.4570  -17.7400   20.5270 C   0  0  0  0  0  1  0  0  0  0  0  0
  -30.2030  -15.9530   20.1700 C   0  0  0  0  0  0  0  0  0  0  0  0
  -30.3940  -13.3350   19.3830 C   0  0  0  0  0  2  0  0  0  0  0  0
  -29.5280  -12.8510   18.1750 C   0  0  0  0  0  2  0  0  0  0  0  0
  -28.1190  -12.4430   18.6260 C   0  0  0  0  0  2  0  0  0  0  0  0
  -27.5760  -13.4440   19.6650 C   0  0  0  0  0  3  0  0  0  0  0  0
  -28.5880  -13.8350   20.7750 C   0  0  0  0  0  2  0  0  0  0  0  0
  -29.7450  -14.5270   20.1370 N   0  0  0  0  0  0  0  0  0  0  0  0
  -31.4230  -15.8470   19.9020 O   0  0  0  0  0  0  0  0  0  0  0  0
  -25.2140  -13.9360   20.4380 C   0  0  0  0  0  0  0  0  0  0  0  0
  -24.1630  -13.1450   20.8020 C   0  0  0  0  0  0  0  0  0  0  0  0
  -24.6470  -11.8000   20.7680 C   0  0  0  0  0  0  0  0  0  0  0  0
  -26.2670  -13.0780   20.1890 N   0  0  0  0  0  0  0  0  0  0  0  0
  -25.9410  -11.7840   20.4540 N   0  0  0  0  0  0  0  0  0  0  0  0
  -23.9280  -10.5320   20.9560 C   0  0  0  0  0  0  0  0  0  0  0  0
  -24.3530   -9.5700   21.8990 C   0  0  0  0  0  3  0  0  0  0  0  0
  -23.6280   -8.3720   22.0770 C   0  0  0  0  0  3  0  0  0  0  0  0
  -22.4620   -8.1260   21.3140 C   0  0  0  0  0  0  0  0  0  0  0  0
  -22.0540   -9.0760   20.3610 C   0  0  0  0  0  3  0  0  0  0  0  0
  -22.7810  -10.2650   20.1800 C   0  0  0  0  0  3  0  0  0  0  0  0
  -21.7100   -6.9790   21.4000 O   0  0  0  0  0  0  0  0  0  0  0  0
  -21.6440   -6.2460   22.5590 C   0  0  0  0  0  0  0  0  0  0  0  0
  -21.1800   -6.8060   23.7700 C   0  0  0  0  0  3  0  0  0  0  0  0
  -21.0640   -6.0000   24.9190 C   0  0  0  0  0  3  0  0  0  0  0  0
  -21.4010   -4.6340   24.8590 C   0  0  0  0  0  0  0  0  0  0  0  0
  -21.8580   -4.0730   23.6540 C   0  0  0  0  0  3  0  0  0  0  0  0
  -21.9760   -4.8760   22.5060 C   0  0  0  0  0  0  0  0  0  0  0  0
  -22.3960   -4.3270   21.3420 F   0  0  0  0  0  0  0  0  0  0  0  0
  -21.2820   -3.8570   25.9610 F   0  0  0  0  0  0  0  0  0  0  0  0
  -22.7620  -13.6100   21.0650 C   0  0  0  0  0  0  0  0  0  0  0  0
  -22.0350  -12.9100   21.9280 N   0  0  0  0  0  0  0  0  0  0  0  0
  -22.3220  -14.6340   20.5420 O   0  0  0  0  0  0  0  0  0  0  0  0
  -22.4060  -12.0830   22.3720 H   0  0  0  0  0  0  0  0  0  0  0  0
  -21.0940  -13.2040   22.1470 H   0  0  0  0  0  0  0  0  0  0  0  0
  -25.3620  -15.3100   20.2640 N   0  0  0  0  0  0  0  0  0  0  0  0
  -24.5870  -15.9550   20.3820 H   0  0  0  0  0  0  0  0  0  0  0  0
  -26.2090  -15.7590   19.9410 H   0  0  0  0  0  0  0  0  0  0  0  0
  2  3  1  0
  4 15  2  0
  5  3  1  0
  5 10  1  0
  6 14  1  0
  6 16  1  0
  7 13  1  0
  7  9  1  0
  8 14  1  0
  9 10  2  0
  9  8  1  0
 11  5  2  0
 12 11  1  0
 12  7  2  0
 13  6  1  0
 14  4  1  0
 16 18  2  0
 17 16  1  0
 19 17  1  0
 20 29  2  0
 20 25  1  0
 21 17  1  0
 21 25  1  0
 22 21  1  0
 23 24  1  0
 23 22  1  0
 24 20  1  0
 25 26  2  0
 26 27  1  0
 28 27  2  0
 29 28  1  0
 30  4  1  0
 30 35  1  0
 30 31  1  0
 31 34  1  1
 31 32  1  0
 33 31  1  0
 35 38  1  0
 36 40  1  0
 36 35  1  0
 37 36  2  0
 40 39  1  0
 42 40  1  0
 42 43  1  0
 42 41  1  0
 45 46  1  0
 45 44  1  0
 47 45  1  0
 48 45  1  0
 50 49  1  0
 51 56  1  0
 52 53  1  0
 52 51  1  0
 54 53  1  0
 54 61  1  0
 54 55  1  0
 56 50  1  0
 56 55  1  0
 57 50  2  0
 58 59  2  0
 59 78  1  0
 60 59  1  0
 60 63  1  0
 61 58  1  0
 61 62  1  0
 62 60  2  0
 63 64  1  0
 64 65  2  0
 66 69  1  0
 66 65  1  0
 67 66  2  0
 68 67  1  0
 68 63  2  0
 69 70  1  0
 70 71  1  0
 71 72  2  0
 73 72  1  0
 73 77  1  0
 74 73  2  0
 75 70  2  0
 75 74  1  0
 76 75  1  0
 78 79  1  0
 79 82  1  0
 79 81  1  0
 80 78  2  0
 83 84  1  0
 83 58  1  0
 85 83  1  0
M  ISO  4   2 101   3 101  49 100  50 100
M  END
>  <TORSDO>  (32) 
F 20

>  <SCORE>  (32) 
-16.205

>  <name>  (32) 
32

>  <ligand_id>  (32) 
32

>  <original_smiles>  (32) 
[H]c1c([H])c([H])c2c(c1[H])C([H])([H])C([H])([H])C([H])([H])C2([H])N([H])C(=O)C1([H])N(C(=O)C([H])(N([H])C(=O)C([H])(N([H])C([H])([H])[H])C([H])([H])[H])C(C([H])([H])[H])(C([H])([H])[H])C([H])([H])[H])C([H])([H])c2c([H])c(OC([H])([H])C([H])([H])C([H])(C([H])([H])C(=O)N3C([H])([H])C([H])([H])C([H])([H])C([H])(n4nc(-c5c([H])c([H])c(Oc6c([H])c([H])c(F)c([H])c6F)c([H])c5[H])c(C(=O)N([H])[H])c4N([H])[H])C3([H])[H])[N+]([H])([H])[H])c([H])c([H])c2C1([H])[H]

>  <smiles>  (32) 
[H]c1c([H])c([H])c2c(c1[H])C([H])([H])C([H])([H])C([H])([H])C2([H])N([H])C(=O)C1([H])N(C(=O)C([H])(N([H])C(=O)C([H])(N([H])C([H])([H])[H])C([H])([H])[H])C(C([H])([H])[H])(C([H])([H])[H])C([H])([H])[H])C([H])([H])c2c([H])c(OC([H])([H])C([H])([H])C([H])(C([H])([H])C(=O)N3C([H])([H])C([H])([H])C([H])([H])C([H])(n4nc(-c5c([H])c([H])c(Oc6c([H])c([H])c(F)c([H])c6F)c([H])c5[H])c(C(=O)N([H])[H])c4N([H])[H])C3([H])[H])[N+]([H])([H])[H])c([H])c([H])c2C1([H])[H]

$$$$
33:0:0
     RDKit          3D

 86 89  0  0  1  0  0  0  0  0999 V2000
  -28.8960  -21.6330   19.9540 C   0  0  0  0  0 15  0  0  0  0  0  0
  -29.1900  -19.6730   20.4920 C   0  0  0  0  0 15  0  0  0  0  0  0
  -29.4750  -17.7500   19.8390 C   0  0  0  0  0  1  0  0  0  0  0  0
  -30.1990  -15.9330   20.1310 C   0  0  0  0  0  2  0  0  0  0  0  0
  -30.3600  -13.3130   19.3710 C   0  0  0  0  0  2  0  0  0  0  0  0
  -29.4960  -12.7980   18.1760 C   0  0  0  0  0  2  0  0  0  0  0  0
  -28.0820  -12.4060   18.6280 C   0  0  0  0  0  2  0  0  0  0  0  0
  -27.5360  -13.4230   19.6510 C   0  0  0  0  0  3  0  0  0  0  0  0
  -28.5480  -13.8460   20.7440 C   0  0  0  0  0  2  0  0  0  0  0  0
  -29.7010  -14.5230   20.0770 N   0  0  0  0  0  0  0  0  0  0  0  0
  -31.4410  -15.7810   20.0920 O   0  0  0  0  0  1  0  0  0  0  0  0
  -25.1770  -13.9370   20.4180 C   0  0  0  0  0  0  0  0  0  0  0  0
  -24.1180  -13.1550   20.7820 C   0  0  0  0  0  0  0  0  0  0  0  0
  -24.5970  -11.8090   20.7660 C   0  0  0  0  0  0  0  0  0  0  0  0
  -26.2270  -13.0700   20.1830 N   0  0  0  0  0  0  0  0  0  0  0  0
  -25.8920  -11.7810   20.4590 N   0  0  0  0  0  0  0  0  0  0  0  0
  -23.8710  -10.5460   20.9650 C   0  0  0  0  0  0  0  0  0  0  0  0
  -24.2900   -9.5920   21.9180 C   0  0  0  0  0  3  0  0  0  0  0  0
  -23.5580   -8.4000   22.1060 C   0  0  0  0  0  3  0  0  0  0  0  0
  -22.3930   -8.1530   21.3420 C   0  0  0  0  0  0  0  0  0  0  0  0
  -21.9930   -9.0950   20.3790 C   0  0  0  0  0  3  0  0  0  0  0  0
  -22.7250  -10.2800   20.1890 C   0  0  0  0  0  3  0  0  0  0  0  0
  -21.6360   -7.0090   21.4370 O   0  0  0  0  0  0  0  0  0  0  0  0
  -21.5670   -6.2850   22.6010 C   0  0  0  0  0  0  0  0  0  0  0  0
  -21.1130   -6.8570   23.8090 C   0  0  0  0  0  3  0  0  0  0  0  0
  -20.9930   -6.0600   24.9660 C   0  0  0  0  0  3  0  0  0  0  0  0
  -21.3170   -4.6910   24.9130 C   0  0  0  0  0  0  0  0  0  0  0  0
  -21.7650   -4.1190   23.7100 C   0  0  0  0  0  3  0  0  0  0  0  0
  -21.8870   -4.9130   22.5570 C   0  0  0  0  0  0  0  0  0  0  0  0
  -22.2980   -4.3510   21.3940 F   0  0  0  0  0  0  0  0  0  0  0  0
  -21.1970   -3.9230   26.0210 F   0  0  0  0  0  0  0  0  0  0  0  0
  -22.7180  -13.6320   21.0310 C   0  0  0  0  0  0  0  0  0  0  0  0
  -21.9820  -12.9450   21.8980 N   0  0  0  0  0  0  0  0  0  0  0  0
  -22.2860  -14.6520   20.4950 O   0  0  0  0  0  0  0  0  0  0  0  0
  -22.3460  -12.1210   22.3530 H   0  0  0  0  0  0  0  0  0  0  0  0
  -21.0420  -13.2480   22.1090 H   0  0  0  0  0  0  0  0  0  0  0  0
  -25.3320  -15.3070   20.2340 N   0  0  0  0  0  0  0  0  0  0  0  0
  -24.5690  -15.9600   20.3700 H   0  0  0  0  0  0  0  0  0  0  0  0
  -26.2020  -15.7550   19.9930 H   0  0  0  0  0  0  0  0  0  0  0  0
  -28.2400  -17.5110   18.9440 C   0  0  0  0  0  2  0  0  0  0  0  0
  -28.2850  -18.2800   17.6850 N   0  0  0  0  0  4  0  0  0  0  0  0
  -29.0970  -18.0450   17.1420 H   0  0  0  0  0  0  0  0  0  0  0  0
  -28.2970  -19.2690   17.8650 H   0  0  0  0  0  0  0  0  0  0  0  0
  -27.4730  -18.0770   17.1290 H   0  0  0  0  0  0  0  0  0  0  0  0
  -28.1270  -23.4720   20.4440 C   0  0  0  0  0  1  0  0  0  0  0  0
  -28.1820  -25.3110   20.2500 O   0  0  0  0  0  0  0  0  0  0  0  0
  -24.6010  -31.8060   23.1270 C   0  0  0  0  0  0  0  0  0  0  0  0
  -27.1980  -26.5760   20.2480 C   0  0  0  0  0  0  0  0  0  0  0  0
  -23.4500  -30.3780   21.4950 C   0  0  0  0  0  3  0  0  0  0  0  0
  -24.9270  -28.6910   20.1350 C   0  0  0  0  0  0  0  0  0  0  0  0
  -26.0370  -30.4930   21.4200 C   0  0  0  0  0  2  0  0  0  0  0  0
  -26.1180  -29.0350   20.7830 C   0  0  0  0  0  0  0  0  0  0  0  0
  -27.2330  -28.0140   20.7960 C   0  0  0  0  0  3  0  0  0  0  0  0
  -25.9630  -26.4800   19.5430 C   0  0  0  0  0  3  0  0  0  0  0  0
  -24.8970  -27.4410   19.4900 C   0  0  0  0  0  3  0  0  0  0  0  0
  -23.7200  -29.6530   20.1430 C   0  0  0  0  0  2  0  0  0  0  0  0
  -24.7220  -30.9310   22.0660 N   0  0  0  0  0  0  0  0  0  0  0  0
  -23.4960  -32.1110   23.6110 O   0  0  0  0  0  0  0  0  0  0  0  0
  -22.7130  -29.4200   22.4700 C   0  0  0  0  0  0  0  0  0  0  0  0
  -21.3760  -29.2900   22.3530 N   0  0  0  0  0  0  0  0  0  0  0  0
  -23.3580  -28.7880   23.3090 O   0  0  0  0  0  0  0  0  0  0  0  0
  -20.9030  -29.8500   21.6580 H   0  0  0  0  0  0  0  0  0  0  0  0
  -17.9700  -28.1380   22.9050 C   0  0  0  0  0  0  0  0  0  0  0  0
  -20.5390  -28.3630   23.1260 C   0  0  0  0  0  3  0  0  0  0  0  0
  -20.6050  -26.9330   22.5400 C   0  0  0  0  0  2  0  0  0  0  0  0
  -19.4820  -26.6410   21.5370 C   0  0  0  0  0  2  0  0  0  0  0  0
  -18.1140  -26.7970   22.2040 C   0  0  0  0  0  2  0  0  0  0  0  0
  -19.1070  -28.8800   23.3230 C   0  0  0  0  0  0  0  0  0  0  0  0
  -18.9130  -30.1320   23.9450 C   0  0  0  0  0  3  0  0  0  0  0  0
  -17.6180  -30.6440   24.1480 C   0  0  0  0  0  3  0  0  0  0  0  0
  -16.4950  -29.9000   23.7420 C   0  0  0  0  0  3  0  0  0  0  0  0
  -16.6730  -28.6470   23.1270 C   0  0  0  0  0  3  0  0  0  0  0  0
  -25.8430  -32.4810   23.7840 C   0  0  0  0  0  3  0  0  0  0  0  0
  -25.4980  -33.8820   24.1070 N   0  0  0  0  0  0  0  0  0  0  0  0
  -25.8390  -34.9530   23.3770 C   0  0  0  0  0  0  0  0  0  0  0  0
  -26.5290  -34.8670   22.3600 O   0  0  0  0  0  0  0  0  0  0  0  0
  -24.8820  -34.0210   24.8950 H   0  0  0  0  0  0  0  0  0  0  0  0
  -24.1100  -36.7560   23.0210 C   0  0  0  0  0  1  0  0  0  0  0  0
  -25.3390  -36.3380   23.8460 C   0  0  0  0  0  3  0  0  0  0  0  0
  -27.4520  -37.2310   24.7260 C   0  0  0  0  0  1  0  0  0  0  0  0
  -26.3690  -37.3980   23.7620 N   0  0  0  0  0  0  0  0  0  0  0  0
  -25.9550  -38.3150   23.9080 H   0  0  0  0  0  0  0  0  0  0  0  0
  -26.3250  -31.7410   25.0940 C   0  0  1  0  0  0  0  0  0  0  0  0
  -25.2030  -31.5210   26.1370 C   0  0  0  0  0  1  0  0  0  0  0  0
  -26.9260  -30.3580   24.7630 C   0  0  0  0  0  1  0  0  0  0  0  0
  -27.4530  -32.5560   25.7700 C   0  0  0  0  0  1  0  0  0  0  0  0
  5 10  1  0
  6  7  1  0
  6  5  1  0
  8  7  1  0
  8 15  1  0
  8  9  1  0
 10  4  1  0
 10  9  1  0
 11  4  1  0
 12 13  2  0
 13 32  1  0
 14 13  1  0
 14 17  1  0
 15 12  1  0
 15 16  1  0
 16 14  2  0
 17 18  1  0
 18 19  2  0
 20 23  1  0
 20 19  1  0
 21 20  2  0
 22 21  1  0
 22 17  2  0
 23 24  1  0
 24 25  1  0
 25 26  2  0
 27 26  1  0
 27 31  1  0
 28 27  2  0
 29 24  2  0
 29 28  1  0
 30 29  1  0
 32 33  1  0
 33 36  1  0
 33 35  1  0
 34 32  2  0
 37 38  1  0
 37 12  1  0
 39 37  1  0
 40  3  1  0
 41 43  1  0
 41 40  1  0
 42 41  1  0
 44 41  1  0
 46 45  1  0
 47 58  2  0
 48 46  1  0
 48 53  1  0
 49 57  1  0
 49 59  1  0
 50 56  1  0
 50 52  1  0
 51 57  1  0
 52 53  2  0
 52 51  1  0
 54 48  2  0
 55 54  1  0
 55 50  2  0
 56 49  1  0
 57 47  1  0
 59 61  2  0
 60 59  1  0
 62 60  1  0
 63 72  2  0
 63 68  1  0
 64 60  1  0
 64 68  1  0
 65 64  1  0
 66 67  1  0
 66 65  1  0
 67 63  1  0
 68 69  2  0
 69 70  1  0
 71 70  2  0
 72 71  1  0
 73 47  1  0
 73 74  1  0
 73 83  1  0
 74 77  1  0
 75 79  1  0
 75 74  1  0
 76 75  2  0
 79 78  1  0
 81 79  1  0
 81 82  1  0
 81 80  1  0
 83 86  1  1
 83 84  1  0
 85 83  1  0
M  ISO  4   3 100   4 100  45 101  46 101
M  END
>  <TORSDO>  (33) 
F 21

>  <SCORE>  (33) 
-15.881

>  <name>  (33) 
33

>  <ligand_id>  (33) 
33

>  <original_smiles>  (33) 
[H]c1c([H])c([H])c2c(c1[H])C([H])([H])C([H])([H])C([H])([H])C2([H])N([H])C(=O)C1([H])N(C(=O)C([H])(N([H])C(=O)C([H])(N([H])C([H])([H])[H])C([H])([H])[H])C(C([H])([H])[H])(C([H])([H])[H])C([H])([H])[H])C([H])([H])c2c([H])c(OC([H])([H])C([H])([H])C([H])([H])C([H])(C(=O)N3C([H])([H])C([H])([H])C([H])([H])C([H])(n4nc(-c5c([H])c([H])c(Oc6c([H])c([H])c(F)c([H])c6F)c([H])c5[H])c(C(=O)N([H])[H])c4N([H])[H])C3([H])[H])C([H])([H])[N+]([H])([H])[H])c([H])c([H])c2C1([H])[H]

>  <smiles>  (33) 
[H]c1c([H])c([H])c2c(c1[H])C([H])([H])C([H])([H])C([H])([H])C2([H])N([H])C(=O)C1([H])N(C(=O)C([H])(N([H])C(=O)C([H])(N([H])C([H])([H])[H])C([H])([H])[H])C(C([H])([H])[H])(C([H])([H])[H])C([H])([H])[H])C([H])([H])c2c([H])c(OC([H])([H])C([H])([H])C([H])([H])C([H])(C(=O)N3C([H])([H])C([H])([H])C([H])([H])C([H])(n4nc(-c5c([H])c([H])c(Oc6c([H])c([H])c(F)c([H])c6F)c([H])c5[H])c(C(=O)N([H])[H])c4N([H])[H])C3([H])[H])C([H])([H])[N+]([H])([H])[H])c([H])c([H])c2C1([H])[H]

$$$$
34:0:0
     RDKit          3D

 99106  0  0  1  0  0  0  0  0999 V2000
  -30.9040  -20.7190   21.1660 C   0  0  0  0  0  3  0  0  0  0  0  0
  -30.9010  -19.8590   19.9380 N   0  0  0  0  0  4  0  0  0  0  0  0
  -31.8570  -19.6630   19.6910 H   0  0  0  0  0  0  0  0  0  0  0  0
  -30.5120  -20.4150   19.1950 H   0  0  0  0  0  0  0  0  0  0  0  0
  -30.1120  -18.5720   19.9860 C   0  0  0  0  0  3  0  0  0  0  0  0
  -30.9950  -17.2530   19.9370 C   0  0  0  0  0  2  0  0  0  0  0  0
  -30.3590  -15.8990   20.4550 C   0  0  0  0  0  2  0  0  0  0  0  0
  -31.0340  -14.5810   19.9470 C   0  0  0  0  0  0  0  0  0  0  0  0
  -30.7500  -12.2670   19.0940 C   0  0  0  0  0  2  0  0  0  0  0  0
  -29.7690  -12.2900   17.9030 C   0  0  0  0  0  2  0  0  0  0  0  0
  -28.3100  -12.1900   18.3910 C   0  0  0  0  0  2  0  0  0  0  0  0
  -27.9970  -13.1780   19.5470 C   0  0  0  0  0  3  0  0  0  0  0  0
  -29.0910  -13.1220   20.6380 C   0  0  0  0  0  2  0  0  0  0  0  0
  -30.3870  -13.3770   19.9940 N   0  0  0  0  0  0  0  0  0  0  0  0
  -32.1400  -14.6850   19.4100 O   0  0  0  0  0  0  0  0  0  0  0  0
  -25.6720  -13.8710   20.4030 C   0  0  0  0  0  0  0  0  0  0  0  0
  -24.5900  -13.1420   20.8180 C   0  0  0  0  0  0  0  0  0  0  0  0
  -24.9820  -11.7720   20.7220 C   0  0  0  0  0  0  0  0  0  0  0  0
  -26.6620  -12.9510   20.0980 N   0  0  0  0  0  0  0  0  0  0  0  0
  -26.2510  -11.6790   20.3430 N   0  0  0  0  0  0  0  0  0  0  0  0
  -24.2000  -10.5440   20.9160 C   0  0  0  0  0  0  0  0  0  0  0  0
  -24.6130   -9.5410   21.8190 C   0  0  0  0  0  3  0  0  0  0  0  0
  -23.8330   -8.3790   22.0040 C   0  0  0  0  0  3  0  0  0  0  0  0
  -22.6250   -8.2140   21.2870 C   0  0  0  0  0  0  0  0  0  0  0  0
  -22.2310   -9.2050   20.3690 C   0  0  0  0  0  3  0  0  0  0  0  0
  -23.0130  -10.3570   20.1830 C   0  0  0  0  0  3  0  0  0  0  0  0
  -21.8170   -7.1080   21.3840 O   0  0  0  0  0  0  0  0  0  0  0  0
  -21.7290   -6.3810   22.5440 C   0  0  0  0  0  0  0  0  0  0  0  0
  -21.3420   -6.9710   23.7670 C   0  0  0  0  0  3  0  0  0  0  0  0
  -21.1970   -6.1730   24.9190 C   0  0  0  0  0  3  0  0  0  0  0  0
  -21.4300   -4.7860   24.8500 C   0  0  0  0  0  0  0  0  0  0  0  0
  -21.8090   -4.1960   23.6320 C   0  0  0  0  0  3  0  0  0  0  0  0
  -21.9560   -4.9910   22.4820 C   0  0  0  0  0  0  0  0  0  0  0  0
  -22.3030   -4.4130   21.3060 F   0  0  0  0  0  0  0  0  0  0  0  0
  -21.2820   -4.0190   25.9540 F   0  0  0  0  0  0  0  0  0  0  0  0
  -23.2380  -13.6810   21.1870 C   0  0  0  0  0  0  0  0  0  0  0  0
  -22.5390  -13.0010   22.0880 N   0  0  0  0  0  0  0  0  0  0  0  0
  -22.8160  -14.7370   20.7160 O   0  0  0  0  0  0  0  0  0  0  0  0
  -22.9010  -12.1490   22.4910 H   0  0  0  0  0  0  0  0  0  0  0  0
  -21.6290  -13.3310   22.3790 H   0  0  0  0  0  0  0  0  0  0  0  0
  -25.8810  -15.2320   20.2410 N   0  0  0  0  0  0  0  0  0  0  0  0
  -25.1410  -15.9050   20.4030 H   0  0  0  0  0  0  0  0  0  0  0  0
  -26.7470  -15.6510   19.9320 H   0  0  0  0  0  0  0  0  0  0  0  0
  -28.9890  -18.6630   18.8980 C   0  0  0  0  0  3  0  0  0  0  0  0
  -27.3170  -17.4880   20.2810 C   0  0  0  0  0  1  0  0  0  0  0  0
  -26.9210  -17.7170   17.9910 C   0  0  0  0  0  1  0  0  0  0  0  0
  -27.9910  -17.5710   18.9800 N   0  0  0  0  0  0  0  0  0  0  0  0
  -29.0310  -19.9140   16.6120 C   0  0  0  0  0  1  0  0  0  0  0  0
  -29.6180  -18.7910   17.4820 C   0  0  0  0  0  2  0  0  0  0  0  0
  -33.4570  -20.3030   21.5360 C   0  0  0  0  0  1  0  0  0  0  0  0
  -32.0290  -20.1850   22.1060 C   0  0  0  0  0  2  0  0  0  0  0  0
  -31.0040  -22.2960   20.8890 C   0  0  0  0  0  3  0  0  0  0  0  0
  -29.7680  -22.9260   20.3340 N   0  0  0  0  0  0  0  0  0  0  0  0
  -29.5460  -22.5380   19.4240 H   0  0  0  0  0  0  0  0  0  0  0  0
  -29.8120  -24.4090   20.1750 C   0  0  0  0  0  2  0  0  0  0  0  0
  -28.4700  -25.1110   19.8000 C   0  0  0  0  0  2  0  0  0  0  0  0
  -28.5690  -26.5600   19.8540 O   0  0  0  0  0  0  0  0  0  0  0  0
  -24.6090  -31.6170   23.0200 C   0  0  0  0  0  0  0  0  0  0  0  0
  -27.3870  -27.2930   19.8440 C   0  0  0  0  0  0  0  0  0  0  0  0
  -23.4610  -30.2510   21.3100 C   0  0  0  0  0  3  0  0  0  0  0  0
  -24.9670  -28.7890   19.8610 C   0  0  0  0  0  0  0  0  0  0  0  0
  -25.9870  -30.6520   21.1750 C   0  0  0  0  0  2  0  0  0  0  0  0
  -26.1100  -29.3050   20.4840 C   0  0  0  0  0  0  0  0  0  0  0  0
  -27.3230  -28.5680   20.4660 C   0  0  0  0  0  3  0  0  0  0  0  0
  -26.2200  -26.8040   19.2130 C   0  0  0  0  0  3  0  0  0  0  0  0
  -25.0210  -27.5400   19.2200 C   0  0  0  0  0  3  0  0  0  0  0  0
  -23.7080  -29.6270   19.9120 C   0  0  0  0  0  2  0  0  0  0  0  0
  -24.7030  -30.8540   21.8940 N   0  0  0  0  0  0  0  0  0  0  0  0
  -23.5130  -31.8500   23.5480 O   0  0  0  0  0  0  0  0  0  0  0  0
  -22.8110  -29.1860   22.2230 C   0  0  0  0  0  0  0  0  0  0  0  0
  -21.4840  -29.0130   22.0960 N   0  0  0  0  0  0  0  0  0  0  0  0
  -23.4970  -28.5170   23.0000 O   0  0  0  0  0  0  0  0  0  0  0  0
  -20.9910  -29.6060   21.4410 H   0  0  0  0  0  0  0  0  0  0  0  0
  -18.1060  -27.8290   22.5820 C   0  0  0  0  0  0  0  0  0  0  0  0
  -20.6700  -28.0410   22.8240 C   0  0  0  0  0  3  0  0  0  0  0  0
  -20.7460  -26.6460   22.1620 C   0  0  0  0  0  2  0  0  0  0  0  0
  -19.6240  -26.3960   21.1500 C   0  0  0  0  0  2  0  0  0  0  0  0
  -18.2540  -26.5190   21.8250 C   0  0  0  0  0  2  0  0  0  0  0  0
  -19.2410  -28.5510   23.0370 C   0  0  0  0  0  0  0  0  0  0  0  0
  -19.0480  -29.7790   23.7050 C   0  0  0  0  0  3  0  0  0  0  0  0
  -17.7530  -30.2870   23.9200 C   0  0  0  0  0  3  0  0  0  0  0  0
  -16.6320  -29.5610   23.4820 C   0  0  0  0  0  3  0  0  0  0  0  0
  -16.8090  -28.3330   22.8190 C   0  0  0  0  0  3  0  0  0  0  0  0
  -25.8710  -32.2500   23.6840 C   0  0  0  0  0  3  0  0  0  0  0  0
  -25.5200  -33.6210   24.0810 N   0  0  0  0  0  0  0  0  0  0  0  0
  -25.8440  -34.7200   23.3880 C   0  0  0  0  0  0  0  0  0  0  0  0
  -26.5390  -34.6880   22.3690 O   0  0  0  0  0  0  0  0  0  0  0  0
  -24.9000  -33.7180   24.8730 H   0  0  0  0  0  0  0  0  0  0  0  0
  -24.0750  -36.4830   23.0930 C   0  0  0  0  0  1  0  0  0  0  0  0
  -25.3120  -36.0690   23.9070 C   0  0  0  0  0  3  0  0  0  0  0  0
  -27.4090  -36.9610   24.8210 C   0  0  0  0  0  1  0  0  0  0  0  0
  -26.3180  -37.1540   23.8680 N   0  0  0  0  0  0  0  0  0  0  0  0
  -25.8850  -38.0530   24.0600 H   0  0  0  0  0  0  0  0  0  0  0  0
  -26.3990  -31.4300   24.9240 C   0  0  1  0  0  0  0  0  0  0  0  0
  -25.3070  -31.1150   25.9740 C   0  0  0  0  0  1  0  0  0  0  0  0
  -27.0130  -30.0860   24.4680 C   0  0  0  0  0  1  0  0  0  0  0  0
  -27.5300  -32.2160   25.6310 C   0  0  0  0  0  1  0  0  0  0  0  0
  -30.4250  -23.0740   23.3230 C   0  0  0  0  0  1  0  0  0  0  0  0
  -31.4430  -23.0860   22.1660 C   0  0  0  0  0  2  0  0  0  0  0  0
  1 51  1  0
  2  5  1  0
  2  1  1  0
  3  2  1  0
  4  2  1  0
  5  6  1  0
  6  7  1  0
  8 14  1  0
  8  7  1  0
  9 14  1  0
 10 11  1  0
 10  9  1  0
 12 11  1  0
 12 19  1  0
 12 13  1  0
 14 13  1  0
 15  8  2  0
 16 17  2  0
 17 36  1  0
 18 17  1  0
 18 21  1  0
 19 20  1  0
 19 16  1  0
 20 18  2  0
 21 22  1  0
 22 23  2  0
 24 27  1  0
 24 23  1  0
 25 24  2  0
 26 25  1  0
 26 21  2  0
 27 28  1  0
 28 29  1  0
 29 30  2  0
 31 30  1  0
 31 35  1  0
 32 31  2  0
 33 28  2  0
 33 32  1  0
 34 33  1  0
 36 37  1  0
 37 40  1  0
 37 39  1  0
 38 36  2  0
 41 42  1  0
 41 16  1  0
 43 41  1  0
 44 49  1  0
 44 47  1  0
 44  5  1  0
 46 47  1  0
 47 45  1  0
 48 49  1  0
 50 51  1  0
 52  1  1  0
 52 99  1  0
 53 52  1  0
 54 53  1  0
 55 53  1  0
 56 57  1  0
 56 55  1  0
 58 69  2  0
 59 57  1  0
 59 64  1  0
 60 68  1  0
 60 70  1  0
 61 67  1  0
 61 63  1  0
 62 68  1  0
 63 62  1  0
 64 63  2  0
 65 66  1  0
 65 59  2  0
 66 61  2  0
 67 60  1  0
 68 58  1  0
 70 72  2  0
 71 70  1  0
 73 71  1  0
 74 83  2  0
 74 79  1  0
 75 71  1  0
 75 79  1  0
 76 75  1  0
 77 78  1  0
 77 76  1  0
 78 74  1  0
 79 80  2  0
 80 81  1  0
 82 81  2  0
 83 82  1  0
 84 58  1  0
 84 85  1  0
 84 94  1  0
 85 88  1  0
 86 90  1  0
 86 85  1  0
 87 86  2  0
 90 89  1  0
 92 90  1  0
 92 93  1  0
 92 91  1  0
 94 97  1  1
 94 95  1  0
 96 94  1  0
 99 98  1  0
M  ISO  4   7 100   8 100  56 101  57 101
M  END
>  <TORSDO>  (34) 
F 29

>  <SCORE>  (34) 
-9.481

>  <name>  (34) 
34

>  <ligand_id>  (34) 
34

>  <original_smiles>  (34) 
[H]c1c([H])c([H])c2c(c1[H])C([H])([H])C([H])([H])C([H])([H])C2([H])N([H])C(=O)C1([H])N(C(=O)C([H])(N([H])C(=O)C([H])(N([H])C([H])([H])[H])C([H])([H])[H])C(C([H])([H])[H])(C([H])([H])[H])C([H])([H])[H])C([H])([H])c2c([H])c(OC([H])([H])C([H])([H])N([H])C([H])(C([H])([H])C([H])([H])[H])C([H])(C([H])([H])C([H])([H])[H])[N+]([H])([H])C([H])(C([H])([H])C([H])([H])C(=O)N3C([H])([H])C([H])([H])C([H])([H])C([H])(n4nc(-c5c([H])c([H])c(Oc6c([H])c([H])c(F)c([H])c6F)c([H])c5[H])c(C(=O)N([H])[H])c4N([H])[H])C3([H])[H])C([H])(N(C([H])([H])[H])C([H])([H])[H])C([H])([H])C([H])([H])[H])c([H])c([H])c2C1([H])[H]

>  <smiles>  (34) 
[H]c1c([H])c([H])c2c(c1[H])C([H])([H])C([H])([H])C([H])([H])C2([H])N([H])C(=O)C1([H])N(C(=O)C([H])(N([H])C(=O)C([H])(N([H])C([H])([H])[H])C([H])([H])[H])C(C([H])([H])[H])(C([H])([H])[H])C([H])([H])[H])C([H])([H])c2c([H])c(OC([H])([H])C([H])([H])N([H])C([H])(C([H])([H])C([H])([H])[H])C([H])(C([H])([H])C([H])([H])[H])[N+]([H])([H])C([H])(C([H])([H])C([H])([H])C(=O)N3C([H])([H])C([H])([H])C([H])([H])C([H])(n4nc(-c5c([H])c([H])c(Oc6c([H])c([H])c(F)c([H])c6F)c([H])c5[H])c(C(=O)N([H])[H])c4N([H])[H])C3([H])[H])C([H])(N(C([H])([H])[H])C([H])([H])[H])C([H])([H])C([H])([H])[H])c([H])c([H])c2C1([H])[H]

$$$$
35:0:0
     RDKit          3D

 95102  0  0  1  0  0  0  0  0999 V2000
  -29.7450  -22.8800   22.2520 N   0  0  1  0  0  4  0  0  0  0  0  0
  -28.9440  -22.9310   22.8630 H   0  0  0  0  0  0  0  0  0  0  0  0
  -30.8960  -24.4350   20.6000 C   0  0  0  0  0  1  0  0  0  0  0  0
  -29.7660  -24.2500   21.6340 C   0  0  0  0  0  3  0  0  0  0  0  0
  -28.3760  -24.6690   21.0840 C   0  0  0  0  0  2  0  0  0  0  0  0
  -28.3060  -26.1310   20.5800 C   0  0  0  0  0  2  0  0  0  0  0  0
  -27.3510  -26.2330   19.5260 O   0  0  0  0  0  0  0  0  0  0  0  0
  -24.4190  -31.6360   23.1670 C   0  0  0  0  0  0  0  0  0  0  0  0
  -26.2820  -27.0650   19.7460 C   0  0  0  0  0  0  0  0  0  0  0  0
  -22.9170  -30.4120   21.6280 C   0  0  0  0  0  3  0  0  0  0  0  0
  -24.0590  -28.7790   20.0350 C   0  0  0  0  0  0  0  0  0  0  0  0
  -25.4300  -30.5280   21.1790 C   0  0  0  0  0  2  0  0  0  0  0  0
  -25.3140  -29.1730   20.5190 C   0  0  0  0  0  0  0  0  0  0  0  0
  -26.4310  -28.3180   20.3810 C   0  0  0  0  0  3  0  0  0  0  0  0
  -25.0190  -26.6820   19.2580 C   0  0  0  0  0  3  0  0  0  0  0  0
  -23.9030  -27.5290   19.4090 C   0  0  0  0  0  3  0  0  0  0  0  0
  -22.9170  -29.7530   20.2220 C   0  0  0  0  0  2  0  0  0  0  0  0
  -24.2810  -30.8700   22.0480 N   0  0  0  0  0  0  0  0  0  0  0  0
  -23.4320  -31.9960   23.8220 O   0  0  0  0  0  0  0  0  0  0  0  0
  -22.2650  -29.4320   22.6300 C   0  0  0  0  0  0  0  0  0  0  0  0
  -20.9380  -29.2580   22.5190 N   0  0  0  0  0  0  0  0  0  0  0  0
  -22.9500  -28.8290   23.4620 O   0  0  0  0  0  0  0  0  0  0  0  0
  -20.4470  -29.7950   21.8180 H   0  0  0  0  0  0  0  0  0  0  0  0
  -17.5960  -27.9520   22.9370 C   0  0  0  0  0  0  0  0  0  0  0  0
  -20.1190  -28.3560   23.3270 C   0  0  0  0  0  3  0  0  0  0  0  0
  -20.3180  -26.8860   22.8920 C   0  0  0  0  0  2  0  0  0  0  0  0
  -19.2930  -26.4190   21.8530 C   0  0  0  0  0  2  0  0  0  0  0  0
  -17.8700  -26.5550   22.4030 C   0  0  0  0  0  2  0  0  0  0  0  0
  -18.6530  -28.8020   23.3550 C   0  0  0  0  0  0  0  0  0  0  0  0
  -18.3470  -30.1030   23.8110 C   0  0  0  0  0  3  0  0  0  0  0  0
  -17.0160  -30.5560   23.8540 C   0  0  0  0  0  3  0  0  0  0  0  0
  -15.9710  -29.7050   23.4530 C   0  0  0  0  0  3  0  0  0  0  0  0
  -16.2610  -28.4050   23.0000 C   0  0  0  0  0  3  0  0  0  0  0  0
  -25.8210  -32.1130   23.6630 C   0  0  0  0  0  3  0  0  0  0  0  0
  -25.6700  -33.4900   24.1510 N   0  0  0  0  0  0  0  0  0  0  0  0
  -26.0830  -34.5810   23.4910 C   0  0  0  0  0  0  0  0  0  0  0  0
  -26.7040  -34.5230   22.4260 O   0  0  0  0  0  0  0  0  0  0  0  0
  -25.1230  -33.6160   24.9900 H   0  0  0  0  0  0  0  0  0  0  0  0
  -24.5600  -36.5780   23.3740 C   0  0  0  0  0  1  0  0  0  0  0  0
  -25.7550  -35.9520   24.1100 C   0  0  0  0  0  3  0  0  0  0  0  0
  -27.9770  -36.5030   24.9970 C   0  0  0  0  0  1  0  0  0  0  0  0
  -26.8970  -36.8930   24.0950 N   0  0  0  0  0  0  0  0  0  0  0  0
  -26.5950  -37.8300   24.3490 H   0  0  0  0  0  0  0  0  0  0  0  0
  -26.4350  -31.1860   24.7830 C   0  0  1  0  0  0  0  0  0  0  0  0
  -25.4710  -30.9130   25.9610 C   0  0  0  0  0  1  0  0  0  0  0  0
  -26.8570  -29.8210   24.1900 C   0  0  0  0  0  1  0  0  0  0  0  0
  -27.7170  -31.8340   25.3570 C   0  0  0  0  0  1  0  0  0  0  0  0
  -29.4260  -21.7270   21.3400 C   0  0  0  0  0  3  0  0  0  0  0  0
  -30.6450  -20.9350   20.7770 C   0  0  0  0  0  3  0  0  0  0  0  0
  -30.2890  -19.6900   19.9240 C   0  0  0  0  0  2  0  0  0  0  0  0
  -30.1630  -18.4320   20.7060 N   0  0  0  0  0  4  0  0  0  0  0  0
  -30.7840  -18.4780   21.4980 H   0  0  0  0  0  0  0  0  0  0  0  0
  -29.2210  -18.3440   21.0530 H   0  0  0  0  0  0  0  0  0  0  0  0
  -30.5100  -17.2140   19.9280 C   0  0  0  0  0  2  0  0  0  0  0  0
  -30.1620  -15.8820   20.6460 C   0  0  0  0  0  2  0  0  0  0  0  0
  -30.8430  -14.6600   19.9910 C   0  0  0  0  0  0  0  0  0  0  0  0
  -30.6380  -12.3780   19.0690 C   0  0  0  0  0  2  0  0  0  0  0  0
  -29.6890  -12.3900   17.8530 C   0  0  0  0  0  2  0  0  0  0  0  0
  -28.2230  -12.2350   18.3030 C   0  0  0  0  0  2  0  0  0  0  0  0
  -27.8440  -13.2090   19.4500 C   0  0  0  0  0  3  0  0  0  0  0  0
  -28.9030  -13.1690   20.5760 C   0  0  0  0  0  2  0  0  0  0  0  0
  -30.2170  -13.4530   19.9770 N   0  0  0  0  0  0  0  0  0  0  0  0
  -31.9240  -14.8360   19.4210 O   0  0  0  0  0  0  0  0  0  0  0  0
  -25.4390  -13.8090   20.1480 C   0  0  0  0  0  0  0  0  0  0  0  0
  -24.3900  -13.0380   20.5720 C   0  0  0  0  0  0  0  0  0  0  0  0
  -24.8790  -11.6960   20.6120 C   0  0  0  0  0  0  0  0  0  0  0  0
  -26.5010  -12.9380   19.9580 N   0  0  0  0  0  0  0  0  0  0  0  0
  -26.1670  -11.6660   20.2920 N   0  0  0  0  0  0  0  0  0  0  0  0
  -24.1830  -10.4320   20.8810 C   0  0  0  0  0  0  0  0  0  0  0  0
  -24.5560   -9.5970   21.9570 C   0  0  0  0  0  3  0  0  0  0  0  0
  -23.8590   -8.3950   22.2060 C   0  0  0  0  0  3  0  0  0  0  0  0
  -22.7760   -8.0190   21.3780 C   0  0  0  0  0  0  0  0  0  0  0  0
  -22.4230   -8.8410   20.2940 C   0  0  0  0  0  3  0  0  0  0  0  0
  -23.1200  -10.0350   20.0440 C   0  0  0  0  0  3  0  0  0  0  0  0
  -22.0570   -6.8570   21.5290 O   0  0  0  0  0  0  0  0  0  0  0  0
  -21.8100   -6.3200   22.7670 C   0  0  0  0  0  0  0  0  0  0  0  0
  -21.1060   -7.0330   23.7620 C   0  0  0  0  0  3  0  0  0  0  0  0
  -20.8130   -6.4170   24.9950 C   0  0  0  0  0  3  0  0  0  0  0  0
  -21.2130   -5.0890   25.2310 C   0  0  0  0  0  0  0  0  0  0  0  0
  -21.9090   -4.3750   24.2400 C   0  0  0  0  0  3  0  0  0  0  0  0
  -22.2040   -4.9890   23.0100 C   0  0  0  0  0  0  0  0  0  0  0  0
  -22.8560   -4.2890   22.0510 F   0  0  0  0  0  0  0  0  0  0  0  0
  -20.9250   -4.4940   26.4140 F   0  0  0  0  0  0  0  0  0  0  0  0
  -22.9860  -13.5000   20.8330 C   0  0  0  0  0  0  0  0  0  0  0  0
  -22.2870  -12.8470   21.7550 N   0  0  0  0  0  0  0  0  0  0  0  0
  -22.5160  -14.4780   20.2530 O   0  0  0  0  0  0  0  0  0  0  0  0
  -22.6780  -12.0560   22.2440 H   0  0  0  0  0  0  0  0  0  0  0  0
  -21.3450  -13.1400   21.9730 H   0  0  0  0  0  0  0  0  0  0  0  0
  -25.5730  -15.1700   19.8890 N   0  0  0  0  0  0  0  0  0  0  0  0
  -24.7910  -15.8120   19.9580 H   0  0  0  0  0  0  0  0  0  0  0  0
  -26.4060  -15.6010   19.5070 H   0  0  0  0  0  0  0  0  0  0  0  0
  -30.8720  -22.6530   23.2050 C   0  0  0  0  0  2  0  0  0  0  0  0
  -32.2320  -20.9030   24.4410 C   0  0  0  0  0  1  0  0  0  0  0  0
  -29.8000  -21.2220   25.0370 C   0  0  0  0  0  1  0  0  0  0  0  0
  -30.8390  -21.2700   23.9030 C   0  0  0  0  0  3  0  0  0  0  0  0
  1  2  1  1
  1 92  1  0
  4  3  1  0
  4  1  1  0
  5  4  1  0
  6  5  1  0
  7  9  1  0
  7  6  1  0
  8 19  2  0
  9 14  1  0
 10 18  1  0
 10 20  1  0
 11 17  1  0
 11 13  1  0
 12 18  1  0
 13 12  1  0
 14 13  2  0
 15 16  1  0
 15  9  2  0
 16 11  2  0
 17 10  1  0
 18  8  1  0
 20 22  2  0
 21 20  1  0
 23 21  1  0
 24 33  2  0
 24 29  1  0
 25 21  1  0
 25 29  1  0
 26 25  1  0
 27 28  1  0
 27 26  1  0
 28 24  1  0
 29 30  2  0
 30 31  1  0
 32 31  2  0
 33 32  1  0
 34  8  1  0
 34 35  1  0
 34 44  1  0
 35 38  1  0
 36 40  1  0
 36 35  1  0
 37 36  2  0
 40 39  1  0
 42 40  1  0
 42 43  1  0
 42 41  1  0
 44 47  1  1
 44 45  1  0
 46 44  1  0
 48  1  1  0
 49 48  2  0
 50 51  1  0
 50 49  1  0
 51 53  1  0
 51 52  1  0
 54 55  1  0
 54 51  1  0
 56 55  1  0
 57 62  1  0
 58 59  1  0
 58 57  1  0
 60 59  1  0
 60 67  1  0
 60 61  1  0
 62 56  1  0
 62 61  1  0
 63 56  2  0
 64 65  2  0
 65 66  1  0
 65 84  1  0
 66 69  1  0
 67 64  1  0
 67 68  1  0
 68 66  2  0
 69 70  1  0
 70 71  2  0
 72 75  1  0
 72 71  1  0
 73 72  2  0
 74 73  1  0
 74 69  2  0
 75 76  1  0
 76 81  2  0
 76 77  1  0
 77 78  2  0
 78 79  1  0
 79 83  1  0
 80 79  2  0
 81 80  1  0
 82 81  1  0
 84 85  1  0
 85 88  1  0
 85 87  1  0
 86 84  2  0
 89 90  1  0
 89 64  1  0
 91 89  1  0
 92 95  1  0
 95 93  1  0
 95 94  1  0
M  ISO  4   6 101   7 101  55 100  56 100
M  END
>  <TORSDO>  (35) 
F 27

>  <SCORE>  (35) 
-9.530

>  <name>  (35) 
35

>  <ligand_id>  (35) 
35

>  <original_smiles>  (35) 
[H]c1c([H])c([H])c2c(c1[H])C([H])([H])C([H])([H])C([H])([H])C2([H])N([H])C(=O)C1([H])N(C(=O)C([H])(N([H])C(=O)C([H])(N([H])C([H])([H])[H])C([H])([H])[H])C(C([H])([H])[H])(C([H])([H])[H])C([H])([H])[H])C([H])([H])c2c([H])c(OC([H])([H])C([H])([H])C([H])(C([H])([H])[H])[N+]([H])(C([H])([H])C([H])([H])C([H])([H])[N+]([H])([H])C([H])([H])C([H])([H])C(=O)N3C([H])([H])C([H])([H])C([H])([H])C([H])(n4nc(-c5c([H])c([H])c(Oc6c([H])c([H])c(F)c([H])c6F)c([H])c5[H])c(C(=O)N([H])[H])c4N([H])[H])C3([H])[H])C([H])([H])C([H])(C([H])([H])[H])C([H])([H])[H])c([H])c([H])c2C1([H])[H]

>  <smiles>  (35) 
[H]c1c([H])c([H])c2c(c1[H])C([H])([H])C([H])([H])C([H])([H])C2([H])N([H])C(=O)C1([H])N(C(=O)C([H])(N([H])C(=O)C([H])(N([H])C([H])([H])[H])C([H])([H])[H])C(C([H])([H])[H])(C([H])([H])[H])C([H])([H])[H])C([H])([H])c2c([H])c(OC([H])([H])C([H])([H])C([H])(C([H])([H])[H])[N+]([H])(C([H])([H])C([H])([H])C([H])([H])[N+]([H])([H])C([H])([H])C([H])([H])C(=O)N3C([H])([H])C([H])([H])C([H])([H])C([H])(n4nc(-c5c([H])c([H])c(Oc6c([H])c([H])c(F)c([H])c6F)c([H])c5[H])c(C(=O)N([H])[H])c4N([H])[H])C3([H])[H])C([H])([H])C([H])(C([H])([H])[H])C([H])([H])[H])c([H])c([H])c2C1([H])[H]

$$$$
36:0:0
     RDKit          3D

 88 95  0  0  1  0  0  0  0  0999 V2000
  -29.0080  -22.8610   20.2590 C   0  0  0  0  0  3  0  0  0  0  0  0
  -28.6390  -21.1550   20.0980 C   0  0  0  0  0  0  0  0  0  0  0  0
  -29.4220  -19.9480   20.4280 N   0  0  0  0  0  0  0  0  0  0  0  0
  -27.5540  -20.9350   19.5610 O   0  0  0  0  0  0  0  0  0  0  0  0
  -30.2440  -20.1930   20.9670 H   0  0  0  0  0  0  0  0  0  0  0  0
  -29.5000  -18.3620   19.9150 C   0  0  0  0  0  2  0  0  0  0  0  0
  -29.7160  -16.7870   20.7300 C   0  0  0  0  0  2  0  0  0  0  0  0
  -30.4230  -15.2520   20.2740 C   0  0  0  0  0  0  0  0  0  0  0  0
  -30.3940  -12.8120   19.3840 C   0  0  0  0  0  2  0  0  0  0  0  0
  -29.4750  -12.6610   18.1430 C   0  0  0  0  0  2  0  0  0  0  0  0
  -28.0170  -12.4100   18.5650 C   0  0  0  0  0  2  0  0  0  0  0  0
  -27.5770  -13.3560   19.7110 C   0  0  0  0  0  3  0  0  0  0  0  0
  -28.6190  -13.4560   20.8470 C   0  0  0  0  0  2  0  0  0  0  0  0
  -29.8740  -13.9380   20.2470 N   0  0  0  0  0  0  0  0  0  0  0  0
  -31.6100  -15.2550   19.9130 O   0  0  0  0  0  0  0  0  0  0  0  0
  -25.2010  -13.9250   20.4390 C   0  0  0  0  0  0  0  0  0  0  0  0
  -24.1350  -13.1540   20.8060 C   0  0  0  0  0  0  0  0  0  0  0  0
  -24.6000  -11.8020   20.7900 C   0  0  0  0  0  0  0  0  0  0  0  0
  -26.2430  -13.0460   20.2080 N   0  0  0  0  0  0  0  0  0  0  0  0
  -25.8920  -11.7620   20.4880 N   0  0  0  0  0  0  0  0  0  0  0  0
  -23.8680  -10.5440   20.9870 C   0  0  0  0  0  0  0  0  0  0  0  0
  -24.2960   -9.5760   21.9210 C   0  0  0  0  0  3  0  0  0  0  0  0
  -23.5620   -8.3850   22.1040 C   0  0  0  0  0  3  0  0  0  0  0  0
  -22.3850   -8.1530   21.3550 C   0  0  0  0  0  0  0  0  0  0  0  0
  -21.9770   -9.1080   20.4080 C   0  0  0  0  0  3  0  0  0  0  0  0
  -22.7100  -10.2920   20.2230 C   0  0  0  0  0  3  0  0  0  0  0  0
  -21.6210   -7.0120   21.4490 O   0  0  0  0  0  0  0  0  0  0  0  0
  -21.5790   -6.2670   22.6010 C   0  0  0  0  0  0  0  0  0  0  0  0
  -21.1760   -6.8240   23.8350 C   0  0  0  0  0  3  0  0  0  0  0  0
  -21.0800   -6.0060   24.9780 C   0  0  0  0  0  3  0  0  0  0  0  0
  -21.3780   -4.6320   24.8880 C   0  0  0  0  0  0  0  0  0  0  0  0
  -21.7730   -4.0760   23.6580 C   0  0  0  0  0  3  0  0  0  0  0  0
  -21.8710   -4.8910   22.5180 C   0  0  0  0  0  0  0  0  0  0  0  0
  -22.2320   -4.3440   21.3310 F   0  0  0  0  0  0  0  0  0  0  0  0
  -21.2780   -3.8430   25.9830 F   0  0  0  0  0  0  0  0  0  0  0  0
  -22.7380  -13.6360   21.0630 C   0  0  0  0  0  0  0  0  0  0  0  0
  -22.0030  -12.9510   21.9310 N   0  0  0  0  0  0  0  0  0  0  0  0
  -22.3080  -14.6570   20.5290 O   0  0  0  0  0  0  0  0  0  0  0  0
  -22.3650  -12.1250   22.3850 H   0  0  0  0  0  0  0  0  0  0  0  0
  -21.0640  -13.2580   22.1460 H   0  0  0  0  0  0  0  0  0  0  0  0
  -25.3690  -15.2950   20.2540 N   0  0  0  0  0  0  0  0  0  0  0  0
  -24.6000  -15.9490   20.3620 H   0  0  0  0  0  0  0  0  0  0  0  0
  -26.2210  -15.7370   19.9380 H   0  0  0  0  0  0  0  0  0  0  0  0
  -30.9780  -24.3830   19.5210 C   0  0  0  0  0  1  0  0  0  0  0  0
  -29.6940  -23.1070   17.7750 C   0  0  0  0  0  1  0  0  0  0  0  0
  -30.1630  -23.1080   19.2440 C   0  0  0  0  0  3  0  0  0  0  0  0
  -27.9500  -24.3050   20.1730 C   0  0  0  0  0  2  0  0  0  0  0  0
  -28.2030  -25.9180   20.2890 O   0  0  0  0  0  0  0  0  0  0  0  0
  -24.6420  -31.8620   23.2150 C   0  0  0  0  0  0  0  0  0  0  0  0
  -27.1860  -26.9950   20.2230 C   0  0  0  0  0  0  0  0  0  0  0  0
  -23.4410  -30.4580   21.5910 C   0  0  0  0  0  3  0  0  0  0  0  0
  -24.8850  -28.8530   20.1680 C   0  0  0  0  0  0  0  0  0  0  0  0
  -26.0050  -30.6770   21.4340 C   0  0  0  0  0  2  0  0  0  0  0  0
  -26.0740  -29.2680   20.7800 C   0  0  0  0  0  0  0  0  0  0  0  0
  -27.2210  -28.3580   20.7850 C   0  0  0  0  0  3  0  0  0  0  0  0
  -25.9680  -26.7210   19.5640 C   0  0  0  0  0  3  0  0  0  0  0  0
  -24.8540  -27.5980   19.5410 C   0  0  0  0  0  3  0  0  0  0  0  0
  -23.6640  -29.7730   20.2150 C   0  0  0  0  0  2  0  0  0  0  0  0
  -24.7180  -31.0240   22.1340 N   0  0  0  0  0  0  0  0  0  0  0  0
  -23.5560  -32.1570   23.7390 O   0  0  0  0  0  0  0  0  0  0  0  0
  -22.7500  -29.4640   22.5610 C   0  0  0  0  0  0  0  0  0  0  0  0
  -21.4200  -29.3020   22.4390 N   0  0  0  0  0  0  0  0  0  0  0  0
  -23.4190  -28.8460   23.3930 O   0  0  0  0  0  0  0  0  0  0  0  0
  -20.9350  -29.8470   21.7410 H   0  0  0  0  0  0  0  0  0  0  0  0
  -18.0380  -28.1030   22.9500 C   0  0  0  0  0  0  0  0  0  0  0  0
  -20.5970  -28.3710   23.2150 C   0  0  0  0  0  3  0  0  0  0  0  0
  -20.7020  -26.9350   22.6510 C   0  0  0  0  0  2  0  0  0  0  0  0
  -19.6010  -26.6060   21.6390 C   0  0  0  0  0  2  0  0  0  0  0  0
  -18.2180  -26.7520   22.2800 C   0  0  0  0  0  2  0  0  0  0  0  0
  -19.1550  -28.8710   23.3730 C   0  0  0  0  0  0  0  0  0  0  0  0
  -18.9320  -30.1360   23.9600 C   0  0  0  0  0  3  0  0  0  0  0  0
  -17.6250  -30.6320   24.1290 C   0  0  0  0  0  3  0  0  0  0  0  0
  -16.5230  -29.8610   23.7210 C   0  0  0  0  0  3  0  0  0  0  0  0
  -16.7310  -28.6000   23.1360 C   0  0  0  0  0  3  0  0  0  0  0  0
  -25.9200  -32.5030   23.8410 C   0  0  0  0  0  3  0  0  0  0  0  0
  -25.6030  -33.9030   24.1770 N   0  0  0  0  0  0  0  0  0  0  0  0
  -25.9250  -34.9630   23.4230 C   0  0  0  0  0  0  0  0  0  0  0  0
  -26.5830  -34.8660   22.3840 O   0  0  0  0  0  0  0  0  0  0  0  0
  -25.0150  -34.0530   24.9840 H   0  0  0  0  0  0  0  0  0  0  0  0
  -24.1840  -36.7550   23.1160 C   0  0  0  0  0  1  0  0  0  0  0  0
  -25.4440  -36.3510   23.8980 C   0  0  0  0  0  3  0  0  0  0  0  0
  -27.5920  -37.2410   24.6870 C   0  0  0  0  0  1  0  0  0  0  0  0
  -26.4700  -37.4080   23.7660 N   0  0  0  0  0  0  0  0  0  0  0  0
  -26.0630  -38.3240   23.9260 H   0  0  0  0  0  0  0  0  0  0  0  0
  -26.4310  -31.7380   25.1250 C   0  0  1  0  0  0  0  0  0  0  0  0
  -25.3330  -31.5120   26.1920 C   0  0  0  0  0  1  0  0  0  0  0  0
  -27.0130  -30.3550   24.7500 C   0  0  0  0  0  1  0  0  0  0  0  0
  -27.5810  -32.5340   25.7840 C   0  0  0  0  0  1  0  0  0  0  0  0
  1 47  1  0
  2  1  1  0
  2  3  1  0
  3  5  1  0
  4  2  2  0
  6  3  1  0
  6  7  1  0
  8  7  1  0
  9 14  1  0
 10 11  1  0
 10  9  1  0
 12 11  1  0
 12 19  1  0
 12 13  1  0
 14  8  1  0
 14 13  1  0
 15  8  2  0
 16 17  2  0
 17 36  1  0
 18 17  1  0
 18 21  1  0
 19 16  1  0
 19 20  1  0
 20 18  2  0
 21 22  1  0
 22 23  2  0
 24 27  1  0
 24 23  1  0
 25 24  2  0
 26 25  1  0
 26 21  2  0
 27 28  1  0
 28 29  1  0
 29 30  2  0
 31 30  1  0
 31 35  1  0
 32 31  2  0
 33 28  2  0
 33 32  1  0
 34 33  1  0
 36 37  1  0
 37 40  1  0
 37 39  1  0
 38 36  2  0
 41 42  1  0
 41 16  1  0
 43 41  1  0
 45 46  1  0
 46 44  1  0
 46  1  1  0
 47 48  1  0
 49 60  2  0
 50 48  1  0
 50 55  1  0
 51 59  1  0
 51 61  1  0
 52 58  1  0
 52 54  1  0
 53 59  1  0
 54 55  2  0
 54 53  1  0
 56 50  2  0
 57 56  1  0
 57 52  2  0
 58 51  1  0
 59 49  1  0
 61 63  2  0
 62 61  1  0
 64 62  1  0
 65 74  2  0
 65 70  1  0
 66 62  1  0
 66 70  1  0
 67 66  1  0
 68 69  1  0
 68 67  1  0
 69 65  1  0
 70 71  2  0
 71 72  1  0
 73 72  2  0
 74 73  1  0
 75 49  1  0
 75 76  1  0
 75 85  1  0
 76 79  1  0
 77 81  1  0
 77 76  1  0
 78 77  2  0
 81 80  1  0
 83 81  1  0
 83 84  1  0
 83 82  1  0
 85 88  1  1
 85 86  1  0
 87 85  1  0
M  ISO  4   7 100   8 100  47 101  48 101
M  END
>  <TORSDO>  (36) 
F 21

>  <SCORE>  (36) 
-15.515

>  <name>  (36) 
36

>  <ligand_id>  (36) 
36

>  <original_smiles>  (36) 
[H]c1c([H])c([H])c2c(c1[H])C([H])([H])C([H])([H])C([H])([H])C2([H])N([H])C(=O)C1([H])N(C(=O)C([H])(N([H])C(=O)C([H])(N([H])C([H])([H])[H])C([H])([H])[H])C(C([H])([H])[H])(C([H])([H])[H])C([H])([H])[H])C([H])([H])c2c([H])c(OC([H])([H])C([H])(C(=O)N([H])C([H])([H])C([H])([H])C(=O)N3C([H])([H])C([H])([H])C([H])([H])C([H])(n4nc(-c5c([H])c([H])c(Oc6c([H])c([H])c(F)c([H])c6F)c([H])c5[H])c(C(=O)N([H])[H])c4N([H])[H])C3([H])[H])C([H])(C([H])([H])[H])C([H])([H])[H])c([H])c([H])c2C1([H])[H]

>  <smiles>  (36) 
[H]c1c([H])c([H])c2c(c1[H])C([H])([H])C([H])([H])C([H])([H])C2([H])N([H])C(=O)C1([H])N(C(=O)C([H])(N([H])C(=O)C([H])(N([H])C([H])([H])[H])C([H])([H])[H])C(C([H])([H])[H])(C([H])([H])[H])C([H])([H])[H])C([H])([H])c2c([H])c(OC([H])([H])C([H])(C(=O)N([H])C([H])([H])C([H])([H])C(=O)N3C([H])([H])C([H])([H])C([H])([H])C([H])(n4nc(-c5c([H])c([H])c(Oc6c([H])c([H])c(F)c([H])c6F)c([H])c5[H])c(C(=O)N([H])[H])c4N([H])[H])C3([H])[H])C([H])(C([H])([H])[H])C([H])([H])[H])c([H])c([H])c2C1([H])[H]

$$$$
37:0:0
     RDKit          3D

101101  0  0  1  0  0  0  0  0999 V2000
  -25.9640  -22.5340   20.1700 C   0  0  0  0  0  2  0  0  0  0  0  0
  -26.6550  -20.7770   20.4080 N   0  0  0  0  0  4  0  0  0  0  0  0
  -26.7830  -20.7740   21.4080 H   0  0  0  0  0  0  0  0  0  0  0  0
  -25.8320  -20.2190   20.2660 H   0  0  0  0  0  0  0  0  0  0  0  0
  -27.9900  -19.5390   19.8750 C   0  0  0  0  0  1  0  0  0  0  0  0
  -28.7020  -17.5660   20.1650 C   0  0  0  0  0 15  0  0  0  0  0  0
  -29.9930  -16.0540   19.7430 C   0  0  0  0  0  2  0  0  0  0  0  0
  -30.6700  -13.4870   18.9230 C   0  0  0  0  0  2  0  0  0  0  0  0
  -29.7990  -12.8730   17.7730 C   0  0  0  0  0  2  0  0  0  0  0  0
  -28.4270  -12.4150   18.2900 C   0  0  0  0  0  2  0  0  0  0  0  0
  -27.9100  -13.4190   19.3400 C   0  0  0  0  0  3  0  0  0  0  0  0
  -28.9190  -13.7580   20.4330 C   0  0  0  0  0  2  0  0  0  0  0  0
  -29.8990  -14.5700   19.7380 N   0  0  0  0  0  0  0  0  0  0  0  0
  -31.2010  -16.1900   19.3860 O   0  0  0  0  0  1  0  0  0  0  0  0
  -25.6830  -13.9740   20.3420 C   0  0  0  0  0  0  0  0  0  0  0  0
  -24.6590  -13.2010   20.7930 C   0  0  0  0  0  0  0  0  0  0  0  0
  -25.0980  -11.8460   20.6570 C   0  0  0  0  0  0  0  0  0  0  0  0
  -26.6550  -13.0840   19.9400 N   0  0  0  0  0  0  0  0  0  0  0  0
  -26.3420  -11.7960   20.2040 N   0  0  0  0  0  0  0  0  0  0  0  0
  -24.3720  -10.5940   20.8610 C   0  0  0  0  0  0  0  0  0  0  0  0
  -24.8090   -9.6300   21.7950 C   0  0  0  0  0  3  0  0  0  0  0  0
  -24.0740   -8.4400   21.9820 C   0  0  0  0  0  3  0  0  0  0  0  0
  -22.8940   -8.2130   21.2350 C   0  0  0  0  0  0  0  0  0  0  0  0
  -22.4820   -9.1650   20.2880 C   0  0  0  0  0  3  0  0  0  0  0  0
  -23.2160  -10.3450   20.0980 C   0  0  0  0  0  3  0  0  0  0  0  0
  -22.1280   -7.0780   21.3350 O   0  0  0  0  0  0  0  0  0  0  0  0
  -21.9790   -6.4150   22.5250 C   0  0  0  0  0  0  0  0  0  0  0  0
  -21.4370   -7.0450   23.6680 C   0  0  0  0  0  3  0  0  0  0  0  0
  -21.2380   -6.3050   24.8500 C   0  0  0  0  0  3  0  0  0  0  0  0
  -21.5720   -4.9370   24.8900 C   0  0  0  0  0  0  0  0  0  0  0  0
  -22.1070   -4.3090   23.7520 C   0  0  0  0  0  3  0  0  0  0  0  0
  -22.3090   -5.0460   22.5730 C   0  0  0  0  0  0  0  0  0  0  0  0
  -22.8050   -4.4330   21.4720 F   0  0  0  0  0  0  0  0  0  0  0  0
  -21.3730   -4.2240   26.0230 F   0  0  0  0  0  0  0  0  0  0  0  0
  -23.3130  -13.6970   21.2150 C   0  0  0  0  0  0  0  0  0  0  0  0
  -22.6620  -12.9870   22.1270 N   0  0  0  0  0  0  0  0  0  0  0  0
  -22.8560  -14.7500   20.7720 O   0  0  0  0  0  0  0  0  0  0  0  0
  -23.0540  -12.1370   22.5020 H   0  0  0  0  0  0  0  0  0  0  0  0
  -21.7590  -13.2960   22.4570 H   0  0  0  0  0  0  0  0  0  0  0  0
  -25.8540  -15.3470   20.2060 N   0  0  0  0  0  0  0  0  0  0  0  0
  -25.0910  -15.9890   20.3950 H   0  0  0  0  0  0  0  0  0  0  0  0
  -26.6120  -15.7680   19.6890 H   0  0  0  0  0  0  0  0  0  0  0  0
  -27.1580  -23.6740   19.8880 C   0  0  0  0  0  2  0  0  0  0  0  0
  -27.4000  -25.1000   20.6690 C   0  0  0  0  0  2  0  0  0  0  0  0
  -28.1520  -26.3550   20.1960 O   0  0  0  0  0  0  0  0  0  0  0  0
  -24.5630  -31.8420   23.2060 C   0  0  0  0  0  0  0  0  0  0  0  0
  -27.3120  -27.4570   20.0090 C   0  0  0  0  0  0  0  0  0  0  0  0
  -23.5270  -30.5120   21.4390 C   0  0  0  0  0  3  0  0  0  0  0  0
  -25.0550  -29.1570   19.9270 C   0  0  0  0  0  0  0  0  0  0  0  0
  -26.0610  -30.8830   21.4250 C   0  0  0  0  0  2  0  0  0  0  0  0
  -26.1810  -29.5610   20.6640 C   0  0  0  0  0  0  0  0  0  0  0  0
  -27.3350  -28.7110   20.7050 C   0  0  0  0  0  3  0  0  0  0  0  0
  -26.2290  -27.1870   19.1630 C   0  0  0  0  0  3  0  0  0  0  0  0
  -25.0880  -27.9900   19.1570 C   0  0  0  0  0  3  0  0  0  0  0  0
  -23.8070  -30.0050   20.0020 C   0  0  0  0  0  2  0  0  0  0  0  0
  -24.7340  -31.1190   22.0630 N   0  0  0  0  0  0  0  0  0  0  0  0
  -23.4360  -32.0450   23.6820 O   0  0  0  0  0  0  0  0  0  0  0  0
  -23.0220  -29.3410   22.3030 C   0  0  0  0  0  0  0  0  0  0  0  0
  -21.7400  -29.1370   22.3520 N   0  0  0  0  0  0  0  0  0  0  0  0
  -23.7580  -28.5770   22.9050 O   0  0  0  0  0  0  0  0  0  0  0  0
  -21.1520  -29.8010   21.8650 H   0  0  0  0  0  0  0  0  0  0  0  0
  -18.2490  -28.5210   22.1940 C   0  0  0  0  0  0  0  0  0  0  0  0
  -21.0060  -28.0990   23.0810 C   0  0  0  0  0  2  0  0  0  0  0  0
  -21.0900  -26.0140   22.9530 C   0  0  0  0  0 15  0  0  0  0  0  0
  -19.2800  -25.3150   21.8540 C   0  0  0  0  0  1  0  0  0  0  0  0
  -18.0660  -26.8690   21.4650 C   0  0  0  0  0  2  0  0  0  0  0  0
  -19.5370  -29.0230   22.8840 C   0  0  0  0  0  0  0  0  0  0  0  0
  -19.4220  -30.0830   23.8570 C   0  0  0  0  0  3  0  0  0  0  0  0
  -18.2030  -30.6350   24.3080 C   0  0  0  0  0  3  0  0  0  0  0  0
  -17.0100  -30.1080   23.8010 C   0  0  0  0  0  3  0  0  0  0  0  0
  -17.0510  -29.0960   22.7950 C   0  0  0  0  0  3  0  0  0  0  0  0
  -25.7770  -32.4500   23.9610 C   0  0  0  0  0  3  0  0  0  0  0  0
  -25.4520  -33.8500   24.2500 N   0  0  0  0  0  0  0  0  0  0  0  0
  -25.8800  -34.8930   23.5290 C   0  0  0  0  0  0  0  0  0  0  0  0
  -26.6530  -34.7720   22.5760 O   0  0  0  0  0  0  0  0  0  0  0  0
  -24.7760  -34.0160   24.9800 H   0  0  0  0  0  0  0  0  0  0  0  0
  -24.2300  -36.7050   22.9920 C   0  0  0  0  0  1  0  0  0  0  0  0
  -25.3740  -36.2910   23.9290 C   0  0  0  0  0  3  0  0  0  0  0  0
  -27.4310  -37.1330   24.9690 C   0  0  0  0  0  1  0  0  0  0  0  0
  -26.4330  -37.3260   23.9210 N   0  0  0  0  0  0  0  0  0  0  0  0
  -26.0310  -38.2530   24.0270 H   0  0  0  0  0  0  0  0  0  0  0  0
  -26.1230  -31.6800   25.2930 C   0  0  1  0  0  0  0  0  0  0  0  0
  -24.9020  -31.4050   26.2020 C   0  0  0  0  0  1  0  0  0  0  0  0
  -26.7920  -30.3280   24.9730 C   0  0  0  0  0  1  0  0  0  0  0  0
  -27.1440  -32.5010   26.1130 C   0  0  0  0  0  1  0  0  0  0  0  0
  -24.1340  -23.5190   20.3720 C   0  0  0  0  0 15  0  0  0  0  0  0
  -23.1350  -25.3190   20.7250 C   0  0  0  0  0  1  0  0  0  0  0  0
  -24.0710  -25.9350   21.7570 N   0  0  0  0  0  4  0  0  0  0  0  0
  -23.5850  -26.7000   22.2110 H   0  0  0  0  0  0  0  0  0  0  0  0
  -24.8230  -26.3850   21.2560 H   0  0  0  0  0  0  0  0  0  0  0  0
  -24.6930  -25.0700   22.8530 C   0  0  0  0  0  3  0  0  0  0  0  0
  -23.8590  -23.9870   23.3630 N   0  0  0  0  0  0  0  0  0  0  0  0
  -23.3280  -24.2950   24.1720 H   0  0  0  0  0  0  0  0  0  0  0  0
  -24.4630  -23.2640   23.7330 H   0  0  0  0  0  0  0  0  0  0  0  0
  -26.3550  -26.8350   23.7750 C   0  0  0  0  0  1  0  0  0  0  0  0
  -24.1900  -26.4360   25.0480 C   0  0  0  0  0  1  0  0  0  0  0  0
  -25.2470  -25.8250   24.0980 C   0  0  0  0  0  3  0  0  0  0  0  0
  -19.0440  -26.2050   22.6170 C   0  0  0  0  0  2  0  0  0  0  0  0
  -21.2840  -26.5160   20.6400 C   0  0  0  0  0  1  0  0  0  0  0  0
  -20.6980  -27.7980   18.3390 C   0  0  0  0  0  1  0  0  0  0  0  0
  -21.1670  -26.5050   19.0470 C   0  0  0  0  0  2  0  0  0  0  0  0
  1  2  1  0
  2  3  1  0
  4  2  1  0
  5  2  1  0
  8 13  1  0
  9 10  1  0
  9  8  1  0
 11 10  1  0
 11 18  1  0
 11 12  1  0
 13  7  1  0
 13 12  1  0
 14  7  1  0
 15 16  2  0
 16 35  1  0
 17 16  1  0
 17 20  1  0
 18 19  1  0
 18 15  1  0
 19 17  2  0
 20 21  1  0
 21 22  2  0
 23 26  1  0
 23 22  1  0
 24 23  2  0
 25 24  1  0
 25 20  2  0
 26 27  1  0
 27 32  2  0
 27 28  1  0
 28 29  2  0
 29 30  1  0
 30 34  1  0
 31 30  2  0
 32 31  1  0
 33 32  1  0
 35 36  1  0
 36 39  1  0
 36 38  1  0
 37 35  2  0
 40 15  1  0
 40 41  1  0
 42 40  1  0
 43  1  1  0
 43 44  1  0
 45 44  1  0
 46 57  2  0
 47 45  1  0
 47 52  1  0
 48 56  1  0
 48 58  1  0
 49 55  1  0
 49 51  1  0
 50 56  1  0
 51 52  2  0
 51 50  1  0
 53 47  2  0
 54 53  1  0
 54 49  2  0
 55 48  1  0
 56 46  1  0
 58 59  1  0
 58 60  2  0
 59 63  1  0
 61 59  1  0
 62 71  2  0
 62 67  1  0
 65 98  1  0
 66 62  1  0
 66 98  1  0
 67 63  1  0
 67 68  2  0
 68 69  1  0
 70 69  2  0
 71 70  1  0
 72 46  1  0
 72 73  1  0
 72 82  1  0
 73 76  1  0
 74 78  1  0
 74 73  1  0
 75 74  2  0
 78 77  1  0
 80 78  1  0
 80 81  1  0
 80 79  1  0
 82 85  1  1
 82 83  1  0
 84 82  1  0
 87 88  1  0
 88 89  1  0
 88 91  1  0
 90 88  1  0
 91 92  1  0
 91 97  1  0
 92 94  1  0
 92 93  1  0
 95 97  1  0
 97 96  1  0
100101  1  0
101 99  1  0
M  ISO  4   6 100   7 100  44 101  45 101
M  END
>  <TORSDO>  (37) 
F 29

>  <SCORE>  (37) 
-12.529

>  <name>  (37) 
37

>  <ligand_id>  (37) 
37

>  <original_smiles>  (37) 
[H]c1c([H])c([H])c2c(c1[H])C([H])([H])C([H])([H])C([H])([H])C2([H])N([H])C(=O)C1([H])N(C(=O)C([H])(N([H])C(=O)C([H])(N([H])C([H])([H])[H])C([H])([H])[H])C(C([H])([H])[H])(C([H])([H])[H])C([H])([H])[H])C([H])([H])c2c([H])c(OC([H])([H])C([H])([H])C([H])(C([H])([H])C([H])(C([H])(C([H])([H])[H])C([H])([H])C([H])([H])[H])[N+]([H])([H])C([H])(N([H])[H])C([H])(C([H])([H])[H])C([H])([H])[H])[N+]([H])([H])C([H])([H])C([H])([H])C(=O)N3C([H])([H])C([H])([H])C([H])([H])C([H])(n4nc(-c5c([H])c([H])c(Oc6c([H])c([H])c(F)c([H])c6F)c([H])c5[H])c(C(=O)N([H])[H])c4N([H])[H])C3([H])[H])c([H])c([H])c2C1([H])[H]

>  <smiles>  (37) 
[H]c1c([H])c([H])c2c(c1[H])C([H])([H])C([H])([H])C([H])([H])C2([H])N([H])C(=O)C1([H])N(C(=O)C([H])(N([H])C(=O)C([H])(N([H])C([H])([H])[H])C([H])([H])[H])C(C([H])([H])[H])(C([H])([H])[H])C([H])([H])[H])C([H])([H])c2c([H])c(OC([H])([H])C([H])([H])C([H])(C([H])([H])C([H])(C([H])(C([H])([H])[H])C([H])([H])C([H])([H])[H])[N+]([H])([H])C([H])(N([H])[H])C([H])(C([H])([H])[H])C([H])([H])[H])[N+]([H])([H])C([H])([H])C([H])([H])C(=O)N3C([H])([H])C([H])([H])C([H])([H])C([H])(n4nc(-c5c([H])c([H])c(Oc6c([H])c([H])c(F)c([H])c6F)c([H])c5[H])c(C(=O)N([H])[H])c4N([H])[H])C3([H])[H])c([H])c([H])c2C1([H])[H]

$$$$
38:0:0
     RDKit          3D

 89 97  0  0  1  0  0  0  0  0999 V2000
  -28.4750  -23.5440   22.6710 C   0  0  0  0  0  2  0  0  0  0  0  0
  -29.3520  -22.4190   22.0760 C   0  0  0  0  0  2  0  0  0  0  0  0
  -28.6480  -24.9030   21.9700 C   0  0  0  0  0  2  0  0  0  0  0  0
  -29.0330  -23.5310   19.8430 C   0  0  0  0  0  2  0  0  0  0  0  0
  -28.9890  -22.0460   20.6120 C   0  0  0  0  0  3  0  0  0  0  0  0
  -28.2610  -24.8690   20.4860 C   0  0  0  0  0  3  0  0  0  0  0  0
  -28.4150  -26.3470   20.0680 O   0  0  0  0  0  0  0  0  0  0  0  0
  -24.7120  -31.8950   23.2230 C   0  0  0  0  0  0  0  0  0  0  0  0
  -27.3160  -27.2680   20.1140 C   0  0  0  0  0  0  0  0  0  0  0  0
  -23.5060  -30.4940   21.5940 C   0  0  0  0  0  3  0  0  0  0  0  0
  -24.9520  -28.9450   20.1430 C   0  0  0  0  0  0  0  0  0  0  0  0
  -26.0500  -30.8010   21.3890 C   0  0  0  0  0  2  0  0  0  0  0  0
  -26.1330  -29.4140   20.7310 C   0  0  0  0  0  0  0  0  0  0  0  0
  -27.3180  -28.5920   20.6990 C   0  0  0  0  0  3  0  0  0  0  0  0
  -26.1030  -26.8810   19.5030 C   0  0  0  0  0  3  0  0  0  0  0  0
  -24.9440  -27.6860   19.5200 C   0  0  0  0  0  3  0  0  0  0  0  0
  -23.7160  -29.8280   20.2080 C   0  0  0  0  0  2  0  0  0  0  0  0
  -24.7770  -31.0840   22.1240 N   0  0  0  0  0  0  0  0  0  0  0  0
  -23.6310  -32.1640   23.7660 O   0  0  0  0  0  0  0  0  0  0  0  0
  -22.8550  -29.4710   22.5570 C   0  0  0  0  0  0  0  0  0  0  0  0
  -21.5310  -29.2770   22.4380 N   0  0  0  0  0  0  0  0  0  0  0  0
  -23.5440  -28.8570   23.3750 O   0  0  0  0  0  0  0  0  0  0  0  0
  -21.0310  -29.8250   21.7520 H   0  0  0  0  0  0  0  0  0  0  0  0
  -18.1760  -28.0130   22.9530 C   0  0  0  0  0  0  0  0  0  0  0  0
  -20.7290  -28.3250   23.2130 C   0  0  0  0  0  3  0  0  0  0  0  0
  -20.8590  -26.8950   22.6390 C   0  0  0  0  0  2  0  0  0  0  0  0
  -19.7600  -26.5490   21.6290 C   0  0  0  0  0  2  0  0  0  0  0  0
  -18.3770  -26.6670   22.2780 C   0  0  0  0  0  2  0  0  0  0  0  0
  -19.2810  -28.7990   23.3780 C   0  0  0  0  0  0  0  0  0  0  0  0
  -19.0380  -30.0560   23.9720 C   0  0  0  0  0  3  0  0  0  0  0  0
  -17.7250  -30.5280   24.1490 C   0  0  0  0  0  3  0  0  0  0  0  0
  -16.6340  -29.7420   23.7380 C   0  0  0  0  0  3  0  0  0  0  0  0
  -16.8610  -28.4850   23.1470 C   0  0  0  0  0  3  0  0  0  0  0  0
  -25.9930  -32.5420   23.8350 C   0  0  0  0  0  3  0  0  0  0  0  0
  -26.5210  -31.7780   25.1090 C   0  0  1  0  0  0  0  0  0  0  0  0
  -25.4380  -31.5310   26.1850 C   0  0  0  0  0  1  0  0  0  0  0  0
  -27.1150  -30.4040   24.7200 C   0  0  0  0  0  1  0  0  0  0  0  0
  -27.6700  -32.5840   25.7650 C   0  0  0  0  0  1  0  0  0  0  0  0
  -25.6720  -33.9390   24.1690 N   0  0  0  0  0  0  0  0  0  0  0  0
  -25.9940  -34.9990   23.4130 C   0  0  0  0  0  0  0  0  0  0  0  0
  -26.6610  -34.9040   22.3790 O   0  0  0  0  0  0  0  0  0  0  0  0
  -25.0800  -34.0870   24.9720 H   0  0  0  0  0  0  0  0  0  0  0  0
  -24.2560  -36.7880   23.0690 C   0  0  0  0  0  1  0  0  0  0  0  0
  -25.5000  -36.3830   23.8770 C   0  0  0  0  0  3  0  0  0  0  0  0
  -27.6310  -37.2760   24.7120 C   0  0  0  0  0  1  0  0  0  0  0  0
  -26.5270  -37.4440   23.7710 N   0  0  0  0  0  0  0  0  0  0  0  0
  -26.1130  -38.3590   23.9290 H   0  0  0  0  0  0  0  0  0  0  0  0
  -29.8260  -20.6670   20.0860 C   0  0  0  0  0  2  0  0  0  0  0  0
  -29.5370  -19.1270   22.0780 C   0  0  0  0  0  1  0  0  0  0  0  0
  -29.5590  -19.1870   20.6010 N   0  0  2  0  0  4  0  0  0  0  0  0
  -28.6040  -19.0090   20.3260 H   0  0  0  0  0  0  0  0  0  0  0  0
  -30.3570  -17.9420   20.0300 C   0  0  0  0  0  3  0  0  0  0  0  0
  -29.9220  -16.3600   20.3850 C   0  0  0  0  0  3  0  0  0  0  0  0
  -30.7450  -14.9980   19.9700 C   0  0  0  0  0  0  0  0  0  0  0  0
  -30.5620  -12.6900   18.9440 C   0  0  0  0  0  2  0  0  0  0  0  0
  -29.5530  -12.7400   17.7700 C   0  0  0  0  0  2  0  0  0  0  0  0
  -28.1140  -12.5330   18.2740 C   0  0  0  0  0  2  0  0  0  0  0  0
  -27.7940  -13.4050   19.5160 C   0  0  0  0  0  3  0  0  0  0  0  0
  -28.9130  -13.3340   20.5780 C   0  0  0  0  0  2  0  0  0  0  0  0
  -30.1680  -13.7340   19.9290 N   0  0  0  0  0  0  0  0  0  0  0  0
  -31.9030  -15.1070   19.5580 O   0  0  0  0  0  0  0  0  0  0  0  0
  -25.4550  -13.9700   20.3900 C   0  0  0  0  0  0  0  0  0  0  0  0
  -24.4120  -13.1840   20.7960 C   0  0  0  0  0  0  0  0  0  0  0  0
  -24.8760  -11.8350   20.7210 C   0  0  0  0  0  0  0  0  0  0  0  0
  -26.4840  -13.0990   20.0780 N   0  0  0  0  0  0  0  0  0  0  0  0
  -26.1470  -11.8090   20.3400 N   0  0  0  0  0  0  0  0  0  0  0  0
  -24.1660  -10.5680   20.9300 C   0  0  0  0  0  0  0  0  0  0  0  0
  -24.5970   -9.6270   21.8910 C   0  0  0  0  0  3  0  0  0  0  0  0
  -23.8840   -8.4230   22.0790 C   0  0  0  0  0  3  0  0  0  0  0  0
  -22.7280   -8.1550   21.3070 C   0  0  0  0  0  0  0  0  0  0  0  0
  -22.3220   -9.0840   20.3340 C   0  0  0  0  0  3  0  0  0  0  0  0
  -23.0340  -10.2790   20.1430 C   0  0  0  0  0  3  0  0  0  0  0  0
  -21.9840   -7.0040   21.4050 O   0  0  0  0  0  0  0  0  0  0  0  0
  -21.8450   -6.3400   22.5980 C   0  0  0  0  0  0  0  0  0  0  0  0
  -21.3070   -6.9660   23.7430 C   0  0  0  0  0  3  0  0  0  0  0  0
  -21.1170   -6.2260   24.9270 C   0  0  0  0  0  3  0  0  0  0  0  0
  -21.4570   -4.8590   24.9660 C   0  0  0  0  0  0  0  0  0  0  0  0
  -21.9890   -4.2330   23.8240 C   0  0  0  0  0  3  0  0  0  0  0  0
  -22.1780   -4.9710   22.6430 C   0  0  0  0  0  0  0  0  0  0  0  0
  -22.6720   -4.3560   21.5420 F   0  0  0  0  0  0  0  0  0  0  0  0
  -21.2670   -4.1450   26.1000 F   0  0  0  0  0  0  0  0  0  0  0  0
  -23.0300  -13.6510   21.1510 C   0  0  0  0  0  0  0  0  0  0  0  0
  -22.3550  -12.9400   22.0470 N   0  0  0  0  0  0  0  0  0  0  0  0
  -22.5610  -14.6810   20.6660 O   0  0  0  0  0  0  0  0  0  0  0  0
  -22.7540  -12.1050   22.4520 H   0  0  0  0  0  0  0  0  0  0  0  0
  -21.4300  -13.2280   22.3270 H   0  0  0  0  0  0  0  0  0  0  0  0
  -25.6140  -15.3460   20.2320 N   0  0  0  0  0  0  0  0  0  0  0  0
  -24.8680  -16.0100   20.4020 H   0  0  0  0  0  0  0  0  0  0  0  0
  -26.4490  -15.7740   19.8570 H   0  0  0  0  0  0  0  0  0  0  0  0
  2  1  1  0
  3  1  1  0
  4  6  1  0
  4  5  1  0
  5 48  1  0
  5  2  1  0
  6  7  1  0
  6  3  1  0
  7  9  1  0
  8 19  2  0
  9 14  1  0
 10 18  1  0
 10 20  1  0
 11 17  1  0
 11 13  1  0
 12 18  1  0
 13 12  1  0
 14 13  2  0
 15 16  1  0
 15  9  2  0
 16 11  2  0
 17 10  1  0
 18  8  1  0
 20 22  2  0
 21 20  1  0
 23 21  1  0
 24 33  2  0
 24 29  1  0
 25 21  1  0
 25 29  1  0
 26 25  1  0
 27 28  1  0
 27 26  1  0
 28 24  1  0
 29 30  2  0
 30 31  1  0
 32 31  2  0
 33 32  1  0
 34  8  1  0
 34 39  1  0
 34 35  1  0
 35 38  1  1
 35 36  1  0
 37 35  1  0
 39 42  1  0
 40 44  1  0
 40 39  1  0
 41 40  2  0
 44 43  1  0
 46 44  1  0
 46 47  1  0
 46 45  1  0
 48 50  1  0
 50 49  1  0
 50 51  1  6
 52 53  2  0
 52 50  1  0
 54 53  1  0
 55 60  1  0
 56 57  1  0
 56 55  1  0
 58 57  1  0
 58 65  1  0
 58 59  1  0
 60 54  1  0
 60 59  1  0
 61 54  2  0
 62 63  2  0
 63 82  1  0
 64 63  1  0
 64 67  1  0
 65 66  1  0
 65 62  1  0
 66 64  2  0
 67 68  1  0
 68 69  2  0
 70 73  1  0
 70 69  1  0
 71 70  2  0
 72 71  1  0
 72 67  2  0
 73 74  1  0
 74 79  2  0
 74 75  1  0
 75 76  2  0
 76 77  1  0
 77 81  1  0
 78 77  2  0
 79 78  1  0
 80 79  1  0
 82 83  1  0
 83 86  1  0
 83 85  1  0
 84 82  2  0
 87 62  1  0
 87 88  1  0
 89 87  1  0
M  ISO  4   6 101   7 101  53 100  54 100
M  END
>  <TORSDO>  (38) 
F 20

>  <SCORE>  (38) 
-12.687

>  <name>  (38) 
38

>  <ligand_id>  (38) 
38

>  <original_smiles>  (38) 
[H]c1c([H])c([H])c2c(c1[H])C([H])([H])C([H])([H])C([H])([H])C2([H])N([H])C(=O)C1([H])N(C(=O)C([H])(N([H])C(=O)C([H])(N([H])C([H])([H])[H])C([H])([H])[H])C(C([H])([H])[H])(C([H])([H])[H])C([H])([H])[H])C([H])([H])c2c([H])c(OC3([H])C([H])([H])C([H])([H])C([H])([H])C([H])(C([H])([H])[N+]([H])(C([H])([H])[H])C([H])([H])C([H])([H])C(=O)N4C([H])([H])C([H])([H])C([H])([H])C([H])(n5nc(-c6c([H])c([H])c(Oc7c([H])c([H])c(F)c([H])c7F)c([H])c6[H])c(C(=O)N([H])[H])c5N([H])[H])C4([H])[H])C3([H])[H])c([H])c([H])c2C1([H])[H]

>  <smiles>  (38) 
[H]c1c([H])c([H])c2c(c1[H])C([H])([H])C([H])([H])C([H])([H])C2([H])N([H])C(=O)C1([H])N(C(=O)C([H])(N([H])C(=O)C([H])(N([H])C([H])([H])[H])C([H])([H])[H])C(C([H])([H])[H])(C([H])([H])[H])C([H])([H])[H])C([H])([H])c2c([H])c(OC3([H])C([H])([H])C([H])([H])C([H])([H])C([H])(C([H])([H])[N+]([H])(C([H])([H])[H])C([H])([H])C([H])([H])C(=O)N4C([H])([H])C([H])([H])C([H])([H])C([H])(n5nc(-c6c([H])c([H])c(Oc7c([H])c([H])c(F)c([H])c7F)c([H])c6[H])c(C(=O)N([H])[H])c5N([H])[H])C4([H])[H])C3([H])[H])c([H])c([H])c2C1([H])[H]

$$$$
39:0:0
     RDKit          3D

 92100  0  0  1  0  0  0  0  0999 V2000
  -29.1550  -22.0250   20.5820 C   0  0  0  0  0  3  0  0  0  0  0  0
  -30.0600  -20.7100   18.6240 C   0  0  0  0  0  1  0  0  0  0  0  0
  -29.2400  -20.6140   19.8520 N   0  0  1  0  0  4  0  0  0  0  0  0
  -28.3030  -20.4610   19.5090 H   0  0  0  0  0  0  0  0  0  0  0  0
  -29.5630  -19.2780   20.6370 C   0  0  0  0  0  3  0  0  0  0  0  0
  -30.0460  -17.8440   19.9180 C   0  0  0  0  0  3  0  0  0  0  0  0
  -29.9360  -16.3480   20.6550 C   0  0  0  0  0  2  0  0  0  0  0  0
  -30.6990  -14.9700   20.1790 C   0  0  0  0  0  0  0  0  0  0  0  0
  -30.5160  -12.6660   19.1480 C   0  0  0  0  0  2  0  0  0  0  0  0
  -29.5610  -12.7270   17.9330 C   0  0  0  0  0  2  0  0  0  0  0  0
  -28.0960  -12.5480   18.3780 C   0  0  0  0  0  2  0  0  0  0  0  0
  -27.7400  -13.4290   19.6030 C   0  0  0  0  0  3  0  0  0  0  0  0
  -28.8110  -13.3390   20.7100 C   0  0  0  0  0  2  0  0  0  0  0  0
  -30.0970  -13.7180   20.1120 N   0  0  0  0  0  0  0  0  0  0  0  0
  -31.8650  -15.0550   19.7820 O   0  0  0  0  0  0  0  0  0  0  0  0
  -25.3630  -14.0340   20.3430 C   0  0  0  0  0  0  0  0  0  0  0  0
  -24.2960  -13.2690   20.7330 C   0  0  0  0  0  0  0  0  0  0  0  0
  -24.7550  -11.9150   20.7190 C   0  0  0  0  0  0  0  0  0  0  0  0
  -26.4010  -13.1480   20.1110 N   0  0  0  0  0  0  0  0  0  0  0  0
  -26.0440  -11.8690   20.4010 N   0  0  0  0  0  0  0  0  0  0  0  0
  -24.0240  -10.6590   20.9330 C   0  0  0  0  0  0  0  0  0  0  0  0
  -24.4660   -9.6970   21.8680 C   0  0  0  0  0  3  0  0  0  0  0  0
  -23.7350   -8.5070   22.0700 C   0  0  0  0  0  3  0  0  0  0  0  0
  -22.5480   -8.2690   21.3370 C   0  0  0  0  0  0  0  0  0  0  0  0
  -22.1250   -9.2200   20.3910 C   0  0  0  0  0  3  0  0  0  0  0  0
  -22.8560  -10.4010   20.1870 C   0  0  0  0  0  3  0  0  0  0  0  0
  -21.7870   -7.1300   21.4480 O   0  0  0  0  0  0  0  0  0  0  0  0
  -21.7490   -6.4010   22.6090 C   0  0  0  0  0  0  0  0  0  0  0  0
  -21.3510   -6.9740   23.8370 C   0  0  0  0  0  3  0  0  0  0  0  0
  -21.2600   -6.1710   24.9920 C   0  0  0  0  0  3  0  0  0  0  0  0
  -21.5560   -4.7960   24.9190 C   0  0  0  0  0  0  0  0  0  0  0  0
  -21.9460   -4.2230   23.6970 C   0  0  0  0  0  3  0  0  0  0  0  0
  -22.0390   -5.0230   22.5440 C   0  0  0  0  0  0  0  0  0  0  0  0
  -22.3950   -4.4610   21.3640 F   0  0  0  0  0  0  0  0  0  0  0  0
  -21.4600   -4.0240   26.0260 F   0  0  0  0  0  0  0  0  0  0  0  0
  -22.9020  -13.7560   21.0040 C   0  0  0  0  0  0  0  0  0  0  0  0
  -22.1810  -13.0830   21.8940 N   0  0  0  0  0  0  0  0  0  0  0  0
  -22.4630  -14.7690   20.4620 O   0  0  0  0  0  0  0  0  0  0  0  0
  -22.5500  -12.2630   22.3540 H   0  0  0  0  0  0  0  0  0  0  0  0
  -21.2470  -13.3920   22.1190 H   0  0  0  0  0  0  0  0  0  0  0  0
  -25.5310  -15.4010   20.1450 N   0  0  0  0  0  0  0  0  0  0  0  0
  -24.7700  -16.0620   20.2530 H   0  0  0  0  0  0  0  0  0  0  0  0
  -26.3820  -15.8280   19.8000 H   0  0  0  0  0  0  0  0  0  0  0  0
  -28.6130  -21.8910   22.0320 C   0  0  0  0  0  2  0  0  0  0  0  0
  -31.4430  -22.4020   24.5020 C   0  0  0  0  0  3  0  0  0  0  0  0
  -30.5690  -22.7920   23.4460 C   0  0  0  0  0  3  0  0  0  0  0  0
  -31.1870  -21.1380   24.9620 C   0  0  0  0  0  3  0  0  0  0  0  0
  -29.6640  -21.8170   23.1020 C   0  0  0  0  0  0  0  0  0  0  0  0
  -29.8580  -20.4020   24.1120 S   0  0  0  0  0  0  0  0  0  0  0  0
  -28.4880  -23.3820   19.8410 C   0  0  0  0  0  2  0  0  0  0  0  0
  -28.1480  -24.8240   20.6170 C   0  0  0  0  0  2  0  0  0  0  0  0
  -28.3090  -26.2610   20.0890 O   0  0  0  0  0  0  0  0  0  0  0  0
  -24.5950  -31.7940   23.1900 C   0  0  0  0  0  0  0  0  0  0  0  0
  -27.2200  -27.1870   20.0990 C   0  0  0  0  0  0  0  0  0  0  0  0
  -23.4050  -30.4110   21.5280 C   0  0  0  0  0  3  0  0  0  0  0  0
  -24.8670  -28.8730   20.0870 C   0  0  0  0  0  0  0  0  0  0  0  0
  -25.9520  -30.7180   21.3610 C   0  0  0  0  0  2  0  0  0  0  0  0
  -26.0400  -29.3370   20.6960 C   0  0  0  0  0  0  0  0  0  0  0  0
  -27.2210  -28.5120   20.6810 C   0  0  0  0  0  3  0  0  0  0  0  0
  -26.0210  -26.8060   19.4610 C   0  0  0  0  0  3  0  0  0  0  0  0
  -24.8670  -27.6190   19.4530 C   0  0  0  0  0  3  0  0  0  0  0  0
  -23.6310  -29.7550   20.1410 C   0  0  0  0  0  2  0  0  0  0  0  0
  -24.6690  -30.9940   22.0820 N   0  0  0  0  0  0  0  0  0  0  0  0
  -23.5070  -32.0610   23.7230 O   0  0  0  0  0  0  0  0  0  0  0  0
  -22.7370  -29.3840   22.4750 C   0  0  0  0  0  0  0  0  0  0  0  0
  -21.4140  -29.1910   22.3310 N   0  0  0  0  0  0  0  0  0  0  0  0
  -23.4110  -28.7630   23.3020 O   0  0  0  0  0  0  0  0  0  0  0  0
  -20.9280  -29.7450   21.6410 H   0  0  0  0  0  0  0  0  0  0  0  0
  -18.0580  -27.8960   22.7450 C   0  0  0  0  0  0  0  0  0  0  0  0
  -20.6000  -28.2350   23.0850 C   0  0  0  0  0  3  0  0  0  0  0  0
  -20.7590  -26.8020   22.5230 C   0  0  0  0  0  2  0  0  0  0  0  0
  -19.6960  -26.4410   21.4810 C   0  0  0  0  0  2  0  0  0  0  0  0
  -18.2930  -26.5480   22.0830 C   0  0  0  0  0  2  0  0  0  0  0  0
  -19.1410  -28.6930   23.2010 C   0  0  0  0  0  0  0  0  0  0  0  0
  -18.8670  -29.9510   23.7800 C   0  0  0  0  0  3  0  0  0  0  0  0
  -17.5430  -30.4130   23.9080 C   0  0  0  0  0  3  0  0  0  0  0  0
  -16.4750  -29.6130   23.4670 C   0  0  0  0  0  3  0  0  0  0  0  0
  -16.7320  -28.3570   22.8910 C   0  0  0  0  0  3  0  0  0  0  0  0
  -25.8680  -32.4280   23.8270 C   0  0  0  0  0  3  0  0  0  0  0  0
  -25.5560  -33.8280   24.1530 N   0  0  0  0  0  0  0  0  0  0  0  0
  -25.9070  -34.8810   23.4050 C   0  0  0  0  0  0  0  0  0  0  0  0
  -26.5940  -34.7780   22.3860 O   0  0  0  0  0  0  0  0  0  0  0  0
  -24.9490  -33.9820   24.9460 H   0  0  0  0  0  0  0  0  0  0  0  0
  -24.1860  -36.6810   23.0360 C   0  0  0  0  0  1  0  0  0  0  0  0
  -25.4190  -36.2720   23.8580 C   0  0  0  0  0  3  0  0  0  0  0  0
  -27.5470  -37.1540   24.7090 C   0  0  0  0  0  1  0  0  0  0  0  0
  -26.4550  -37.3230   23.7540 N   0  0  0  0  0  0  0  0  0  0  0  0
  -26.0490  -38.2450   23.8980 H   0  0  0  0  0  0  0  0  0  0  0  0
  -26.3630  -31.6600   25.1150 C   0  0  1  0  0  0  0  0  0  0  0  0
  -25.2580  -31.4390   26.1740 C   0  0  0  0  0  1  0  0  0  0  0  0
  -26.9370  -30.2740   24.7370 C   0  0  0  0  0  1  0  0  0  0  0  0
  -27.5150  -32.4480   25.7830 C   0  0  0  0  0  1  0  0  0  0  0  0
  1 50  1  0
  1 44  1  0
  2  3  1  0
  3  1  1  0
  3  5  1  0
  3  4  1  6
  6  5  2  0
  6  7  1  0
  8  7  1  0
  9 14  1  0
 10 11  1  0
 10  9  1  0
 12 11  1  0
 12 19  1  0
 12 13  1  0
 14  8  1  0
 14 13  1  0
 15  8  2  0
 16 17  2  0
 17 36  1  0
 18 17  1  0
 18 21  1  0
 19 16  1  0
 19 20  1  0
 20 18  2  0
 21 22  1  0
 22 23  2  0
 24 27  1  0
 24 23  1  0
 25 24  2  0
 26 25  1  0
 26 21  2  0
 27 28  1  0
 28 29  1  0
 29 30  2  0
 31 30  1  0
 31 35  1  0
 32 31  2  0
 33 28  2  0
 33 32  1  0
 34 33  1  0
 36 37  1  0
 37 40  1  0
 37 39  1  0
 38 36  2  0
 41 42  1  0
 41 16  1  0
 43 41  1  0
 44 48  1  0
 45 47  2  0
 46 45  1  0
 48 46  2  0
 48 49  1  0
 49 47  1  0
 50 51  1  0
 52 54  1  0
 52 51  1  0
 53 64  2  0
 54 59  1  0
 55 63  1  0
 55 65  1  0
 56 62  1  0
 56 58  1  0
 57 63  1  0
 58 57  1  0
 59 58  2  0
 60 54  2  0
 61 60  1  0
 61 56  2  0
 62 55  1  0
 63 53  1  0
 65 67  2  0
 66 65  1  0
 68 66  1  0
 69 78  2  0
 69 74  1  0
 70 66  1  0
 70 74  1  0
 71 70  1  0
 72 73  1  0
 72 71  1  0
 73 69  1  0
 74 75  2  0
 75 76  1  0
 77 76  2  0
 78 77  1  0
 79 53  1  0
 79 80  1  0
 79 89  1  0
 80 83  1  0
 81 85  1  0
 81 80  1  0
 82 81  2  0
 85 84  1  0
 87 85  1  0
 87 88  1  0
 87 86  1  0
 89 92  1  1
 89 90  1  0
 91 89  1  0
M  ISO  4   7 100   8 100  51 101  52 101
M  END
>  <TORSDO>  (39) 
F 24

>  <SCORE>  (39) 
-10.761

>  <name>  (39) 
39

>  <ligand_id>  (39) 
39

>  <original_smiles>  (39) 
[H]c1sc(C([H])([H])C([H])(C([H])([H])C([H])([H])Oc2c([H])c([H])c3c(c2[H])C([H])([H])N(C(=O)C([H])(N([H])C(=O)C([H])(N([H])C([H])([H])[H])C([H])([H])[H])C(C([H])([H])[H])(C([H])([H])[H])C([H])([H])[H])C([H])(C(=O)N([H])C2([H])c4c([H])c([H])c([H])c([H])c4C([H])([H])C([H])([H])C2([H])[H])C3([H])[H])[N+]([H])(C([H])([H])[H])C([H])([H])C([H])([H])C([H])([H])C(=O)N2C([H])([H])C([H])([H])C([H])([H])C([H])(n3nc(-c4c([H])c([H])c(Oc5c([H])c([H])c(F)c([H])c5F)c([H])c4[H])c(C(=O)N([H])[H])c3N([H])[H])C2([H])[H])c([H])c1[H]

>  <smiles>  (39) 
[H]c1sc(C([H])([H])C([H])(C([H])([H])C([H])([H])Oc2c([H])c([H])c3c(c2[H])C([H])([H])N(C(=O)C([H])(N([H])C(=O)C([H])(N([H])C([H])([H])[H])C([H])([H])[H])C(C([H])([H])[H])(C([H])([H])[H])C([H])([H])[H])C([H])(C(=O)N([H])C2([H])c4c([H])c([H])c([H])c([H])c4C([H])([H])C([H])([H])C2([H])[H])C3([H])[H])[N+]([H])(C([H])([H])[H])C([H])([H])C([H])([H])C([H])([H])C(=O)N2C([H])([H])C([H])([H])C([H])([H])C([H])(n3nc(-c4c([H])c([H])c(Oc5c([H])c([H])c(F)c([H])c5F)c([H])c4[H])c(C(=O)N([H])[H])c3N([H])[H])C2([H])[H])c([H])c1[H]

$$$$
40:0:0
     RDKit          3D

 86 93  0  0  1  0  0  0  0  0999 V2000
  -28.0600  -21.8920   21.7430 C   0  0  0  0  0  1  0  0  0  0  0  0
  -28.8530  -22.2590   20.4800 C   0  0  0  0  0  0  0  0  0  0  0  0
  -29.3020  -20.6770   19.6560 C   0  0  0  0  0  0  0  0  0  0  0  0
  -29.6120  -19.1530   19.5490 C   0  0  0  0  0  0  0  0  0  0  0  0
  -28.8200  -18.1570   17.3390 C   0  0  0  0  0  1  0  0  0  0  0  0
  -29.9900  -18.7860   18.1120 C   0  0  0  0  0  2  0  0  0  0  0  0
  -28.4470  -17.2670   21.0650 C   0  0  0  0  0  1  0  0  0  0  0  0
  -29.7600  -17.4840   20.3060 C   0  0  0  0  0  3  0  0  0  0  0  0
  -30.4300  -15.7800   19.8750 C   0  0  0  0  0  0  0  0  0  0  0  0
  -30.4840  -13.2490   19.0070 C   0  0  0  0  0  2  0  0  0  0  0  0
  -29.5350  -12.9210   17.8160 C   0  0  0  0  0  2  0  0  0  0  0  0
  -28.1240  -12.5700   18.3130 C   0  0  0  0  0  2  0  0  0  0  0  0
  -27.6780  -13.5340   19.4350 C   0  0  0  0  0  3  0  0  0  0  0  0
  -28.7570  -13.7770   20.5140 C   0  0  0  0  0  2  0  0  0  0  0  0
  -29.9230  -14.4050   19.8480 N   0  0  0  0  0  0  0  0  0  0  0  0
  -31.6210  -15.7120   19.5140 O   0  0  0  0  0  0  0  0  0  0  0  0
  -25.3450  -14.0410   20.3070 C   0  0  0  0  0  0  0  0  0  0  0  0
  -24.3090  -13.2500   20.7130 C   0  0  0  0  0  0  0  0  0  0  0  0
  -24.7860  -11.9060   20.6390 C   0  0  0  0  0  0  0  0  0  0  0  0
  -26.3840  -13.1820   20.0030 N   0  0  0  0  0  0  0  0  0  0  0  0
  -26.0640  -11.8870   20.2690 N   0  0  0  0  0  0  0  0  0  0  0  0
  -24.0720  -10.6370   20.8410 C   0  0  0  0  0  0  0  0  0  0  0  0
  -24.4940   -9.6950   21.8060 C   0  0  0  0  0  3  0  0  0  0  0  0
  -23.7770   -8.4940   21.9960 C   0  0  0  0  0  3  0  0  0  0  0  0
  -22.6220   -8.2270   21.2230 C   0  0  0  0  0  0  0  0  0  0  0  0
  -22.2200   -9.1560   20.2500 C   0  0  0  0  0  3  0  0  0  0  0  0
  -22.9370  -10.3490   20.0570 C   0  0  0  0  0  3  0  0  0  0  0  0
  -21.8790   -7.0760   21.3210 O   0  0  0  0  0  0  0  0  0  0  0  0
  -21.7430   -6.4060   22.5100 C   0  0  0  0  0  0  0  0  0  0  0  0
  -21.1990   -7.0250   23.6570 C   0  0  0  0  0  3  0  0  0  0  0  0
  -21.0130   -6.2800   24.8380 C   0  0  0  0  0  3  0  0  0  0  0  0
  -21.3600   -4.9160   24.8730 C   0  0  0  0  0  0  0  0  0  0  0  0
  -21.8960   -4.2960   23.7300 C   0  0  0  0  0  3  0  0  0  0  0  0
  -22.0830   -5.0390   22.5520 C   0  0  0  0  0  0  0  0  0  0  0  0
  -22.5810   -4.4310   21.4480 F   0  0  0  0  0  0  0  0  0  0  0  0
  -21.1740   -4.1990   26.0060 F   0  0  0  0  0  0  0  0  0  0  0  0
  -22.9230  -13.7160   21.0470 C   0  0  0  0  0  0  0  0  0  0  0  0
  -22.2400  -13.0120   21.9410 N   0  0  0  0  0  0  0  0  0  0  0  0
  -22.4580  -14.7420   20.5520 O   0  0  0  0  0  0  0  0  0  0  0  0
  -22.6310  -12.1820   22.3610 H   0  0  0  0  0  0  0  0  0  0  0  0
  -21.3120  -13.3080   22.2090 H   0  0  0  0  0  0  0  0  0  0  0  0
  -25.4830  -15.4140   20.1370 N   0  0  0  0  0  0  0  0  0  0  0  0
  -24.7140  -16.0560   20.2890 H   0  0  0  0  0  0  0  0  0  0  0  0
  -26.3100  -15.8640   19.7690 H   0  0  0  0  0  0  0  0  0  0  0  0
  -28.1920  -23.9930   19.9280 C   0  0  0  0  0  2  0  0  0  0  0  0
  -28.2020  -25.6910   20.3560 O   0  0  0  0  0  0  0  0  0  0  0  0
  -24.6620  -31.9310   23.2140 C   0  0  0  0  0  0  0  0  0  0  0  0
  -27.2170  -26.8780   20.2440 C   0  0  0  0  0  0  0  0  0  0  0  0
  -23.4720  -30.5040   21.6050 C   0  0  0  0  0  3  0  0  0  0  0  0
  -24.9220  -28.8660   20.1850 C   0  0  0  0  0  0  0  0  0  0  0  0
  -26.0440  -30.6820   21.4530 C   0  0  0  0  0  2  0  0  0  0  0  0
  -26.1160  -29.2480   20.8060 C   0  0  0  0  0  0  0  0  0  0  0  0
  -27.2460  -28.2780   20.8060 C   0  0  0  0  0  3  0  0  0  0  0  0
  -25.9900  -26.6990   19.5570 C   0  0  0  0  0  3  0  0  0  0  0  0
  -24.8960  -27.6190   19.5350 C   0  0  0  0  0  3  0  0  0  0  0  0
  -23.7020  -29.7980   20.2360 C   0  0  0  0  0  2  0  0  0  0  0  0
  -24.7500  -31.0740   22.1400 N   0  0  0  0  0  0  0  0  0  0  0  0
  -23.5730  -32.2250   23.7340 O   0  0  0  0  0  0  0  0  0  0  0  0
  -22.7800  -29.5270   22.5940 C   0  0  0  0  0  0  0  0  0  0  0  0
  -21.4540  -29.3340   22.4660 N   0  0  0  0  0  0  0  0  0  0  0  0
  -23.4490  -28.9420   23.4490 O   0  0  0  0  0  0  0  0  0  0  0  0
  -20.9650  -29.8560   21.7520 H   0  0  0  0  0  0  0  0  0  0  0  0
  -18.1040  -28.0180   22.9630 C   0  0  0  0  0  0  0  0  0  0  0  0
  -20.6490  -28.3930   23.2540 C   0  0  0  0  0  3  0  0  0  0  0  0
  -20.8120  -26.9480   22.7290 C   0  0  0  0  0  2  0  0  0  0  0  0
  -19.7400  -26.5520   21.7090 C   0  0  0  0  0  2  0  0  0  0  0  0
  -18.3430  -26.6590   22.3260 C   0  0  0  0  0  2  0  0  0  0  0  0
  -19.1850  -28.8380   23.3840 C   0  0  0  0  0  0  0  0  0  0  0  0
  -18.9030  -30.1030   23.9440 C   0  0  0  0  0  3  0  0  0  0  0  0
  -17.5760  -30.5510   24.0830 C   0  0  0  0  0  3  0  0  0  0  0  0
  -16.5110  -29.7300   23.6740 C   0  0  0  0  0  3  0  0  0  0  0  0
  -16.7750  -28.4640   23.1220 C   0  0  0  0  0  3  0  0  0  0  0  0
  -25.9280  -32.5980   23.8360 C   0  0  0  0  0  3  0  0  0  0  0  0
  -26.4360  -31.8670   25.1400 C   0  0  1  0  0  0  0  0  0  0  0  0
  -25.3320  -31.6420   26.1990 C   0  0  0  0  0  1  0  0  0  0  0  0
  -27.0460  -30.4870   24.8040 C   0  0  0  0  0  1  0  0  0  0  0  0
  -27.5670  -32.6950   25.7980 C   0  0  0  0  0  1  0  0  0  0  0  0
  -25.5990  -34.0030   24.1470 N   0  0  0  0  0  0  0  0  0  0  0  0
  -25.9190  -35.0580   23.3850 C   0  0  0  0  0  0  0  0  0  0  0  0
  -26.5800  -34.9530   22.3500 O   0  0  0  0  0  0  0  0  0  0  0  0
  -25.0060  -34.1570   24.9490 H   0  0  0  0  0  0  0  0  0  0  0  0
  -24.1740  -36.8480   23.0540 C   0  0  0  0  0  1  0  0  0  0  0  0
  -25.4320  -36.4510   23.8430 C   0  0  0  0  0  3  0  0  0  0  0  0
  -27.5730  -37.3660   24.6300 C   0  0  0  0  0  1  0  0  0  0  0  0
  -26.4550  -37.5120   23.7020 N   0  0  0  0  0  0  0  0  0  0  0  0
  -26.0430  -38.4310   23.8420 H   0  0  0  0  0  0  0  0  0  0  0  0
  2  1  1  0
  3  2  2  0
  4  3  2  0
  4  8  1  0
  5  6  1  0
  6  4  1  0
  8  7  1  0
  9  8  1  0
 10 15  1  0
 11 12  1  0
 11 10  1  0
 13 12  1  0
 13 20  1  0
 13 14  1  0
 15  9  1  0
 15 14  1  0
 16  9  2  0
 17 18  2  0
 18 37  1  0
 19 18  1  0
 19 22  1  0
 20 21  1  0
 20 17  1  0
 21 19  2  0
 22 23  1  0
 23 24  2  0
 25 28  1  0
 25 24  1  0
 26 25  2  0
 27 26  1  0
 27 22  2  0
 28 29  1  0
 29 34  2  0
 29 30  1  0
 30 31  2  0
 31 32  1  0
 32 36  1  0
 33 32  2  0
 34 33  1  0
 35 34  1  0
 37 38  1  0
 38 41  1  0
 38 40  1  0
 39 37  2  0
 42 43  1  0
 42 17  1  0
 44 42  1  0
 45 46  1  0
 45  2  1  0
 47 58  2  0
 48 46  1  0
 48 53  1  0
 49 57  1  0
 49 59  1  0
 50 56  1  0
 50 52  1  0
 51 57  1  0
 52 53  2  0
 52 51  1  0
 54 48  2  0
 55 54  1  0
 55 50  2  0
 56 49  1  0
 57 47  1  0
 59 61  2  0
 60 59  1  0
 62 60  1  0
 63 72  2  0
 63 68  1  0
 64 60  1  0
 64 68  1  0
 65 64  1  0
 66 67  1  0
 66 65  1  0
 67 63  1  0
 68 69  2  0
 69 70  1  0
 71 70  2  0
 72 71  1  0
 73 47  1  0
 73 78  1  0
 73 74  1  0
 74 77  1  1
 74 75  1  0
 76 74  1  0
 78 81  1  0
 79 83  1  0
 79 78  1  0
 80 79  2  0
 83 82  1  0
 85 86  1  0
 85 83  1  0
 85 84  1  0
M  ISO  4   8 100   9 100  45 101  46 101
M  END
>  <TORSDO>  (40) 
F 20

>  <SCORE>  (40) 
-15.241

>  <name>  (40) 
40

>  <ligand_id>  (40) 
40

>  <original_smiles>  (40) 
[H]C(=C(C([H])([H])C([H])([H])[H])C([H])(C(=O)N1C([H])([H])C([H])([H])C([H])([H])C([H])(n2nc(-c3c([H])c([H])c(Oc4c([H])c([H])c(F)c([H])c4F)c([H])c3[H])c(C(=O)N([H])[H])c2N([H])[H])C1([H])[H])C([H])([H])[H])C([H])(C([H])([H])[H])C([H])([H])Oc1c([H])c([H])c2c(c1[H])C([H])([H])N(C(=O)C([H])(N([H])C(=O)C([H])(N([H])C([H])([H])[H])C([H])([H])[H])C(C([H])([H])[H])(C([H])([H])[H])C([H])([H])[H])C([H])(C(=O)N([H])C1([H])c3c([H])c([H])c([H])c([H])c3C([H])([H])C([H])([H])C1([H])[H])C2([H])[H]

>  <smiles>  (40) 
[H]C(=C(C([H])([H])C([H])([H])[H])C([H])(C(=O)N1C([H])([H])C([H])([H])C([H])([H])C([H])(n2nc(-c3c([H])c([H])c(Oc4c([H])c([H])c(F)c([H])c4F)c([H])c3[H])c(C(=O)N([H])[H])c2N([H])[H])C1([H])[H])C([H])([H])[H])C([H])(C([H])([H])[H])C([H])([H])Oc1c([H])c([H])c2c(c1[H])C([H])([H])N(C(=O)C([H])(N([H])C(=O)C([H])(N([H])C([H])([H])[H])C([H])([H])[H])C(C([H])([H])[H])(C([H])([H])[H])C([H])([H])[H])C([H])(C(=O)N([H])C1([H])c3c([H])c([H])c([H])c([H])c3C([H])([H])C([H])([H])C1([H])[H])C2([H])[H]

$$$$
41:0:0
     RDKit          3D

 94101  0  0  1  0  0  0  0  0999 V2000
  -28.5840  -21.4870   20.6830 C   0  0  0  0  0  0  0  0  0  0  0  0
  -28.6210  -22.8220   20.8300 N   0  0  0  0  0  0  0  0  0  0  0  0
  -27.6650  -20.9510   20.0620 O   0  0  0  0  0  0  0  0  0  0  0  0
  -29.4220  -23.2010   21.3160 H   0  0  0  0  0  0  0  0  0  0  0  0
  -27.5430  -23.7810   20.5520 C   0  0  0  0  0  2  0  0  0  0  0  0
  -27.3670  -24.1130   19.0520 C   0  0  0  0  0  2  0  0  0  0  0  0
  -27.6500  -25.5690   18.5650 C   0  0  0  0  0  2  0  0  0  0  0  0
  -27.7230  -26.6430   19.5220 O   0  0  0  0  0  0  0  0  0  0  0  0
  -24.7080  -31.9020   23.2990 C   0  0  0  0  0  0  0  0  0  0  0  0
  -26.6160  -27.4480   19.6990 C   0  0  0  0  0  0  0  0  0  0  0  0
  -23.2240  -30.6770   21.7520 C   0  0  0  0  0  3  0  0  0  0  0  0
  -24.3750  -29.1290   20.0890 C   0  0  0  0  0  0  0  0  0  0  0  0
  -25.7270  -30.8630   21.2700 C   0  0  0  0  0  2  0  0  0  0  0  0
  -25.6320  -29.5250   20.5620 C   0  0  0  0  0  0  0  0  0  0  0  0
  -26.7540  -28.6850   20.3740 C   0  0  0  0  0  3  0  0  0  0  0  0
  -25.3370  -27.0690   19.2370 C   0  0  0  0  0  3  0  0  0  0  0  0
  -24.2230  -27.9020   19.4250 C   0  0  0  0  0  3  0  0  0  0  0  0
  -23.2160  -30.0670   20.3260 C   0  0  0  0  0  2  0  0  0  0  0  0
  -24.5810  -31.1580   22.1640 N   0  0  0  0  0  0  0  0  0  0  0  0
  -23.7190  -32.2140   23.9730 O   0  0  0  0  0  0  0  0  0  0  0  0
  -22.6130  -29.6510   22.7340 C   0  0  0  0  0  0  0  0  0  0  0  0
  -21.3000  -29.3970   22.5980 N   0  0  0  0  0  0  0  0  0  0  0  0
  -23.3200  -29.0780   23.5670 O   0  0  0  0  0  0  0  0  0  0  0  0
  -20.7890  -29.8980   21.8870 H   0  0  0  0  0  0  0  0  0  0  0  0
  -18.0470  -27.8580   22.9240 C   0  0  0  0  0  0  0  0  0  0  0  0
  -20.5220  -28.4400   23.3850 C   0  0  0  0  0  3  0  0  0  0  0  0
  -20.8370  -26.9830   22.9700 C   0  0  0  0  0  2  0  0  0  0  0  0
  -19.8810  -26.4410   21.9010 C   0  0  0  0  0  2  0  0  0  0  0  0
  -18.4330  -26.4820   22.4080 C   0  0  0  0  0  2  0  0  0  0  0  0
  -19.0290  -28.7840   23.3650 C   0  0  0  0  0  0  0  0  0  0  0  0
  -18.6180  -30.0620   23.8050 C   0  0  0  0  0  3  0  0  0  0  0  0
  -17.2560  -30.4180   23.8080 C   0  0  0  0  0  3  0  0  0  0  0  0
  -16.2870  -29.4920   23.3850 C   0  0  0  0  0  3  0  0  0  0  0  0
  -16.6830  -28.2150   22.9490 C   0  0  0  0  0  3  0  0  0  0  0  0
  -26.0990  -32.4090   23.7880 C   0  0  0  0  0  3  0  0  0  0  0  0
  -26.7050  -31.5340   24.9530 C   0  0  1  0  0  0  0  0  0  0  0  0
  -25.7310  -31.3040   26.1320 C   0  0  0  0  0  1  0  0  0  0  0  0
  -27.1410  -30.1470   24.4260 C   0  0  0  0  0  1  0  0  0  0  0  0
  -27.9790  -32.2130   25.5090 C   0  0  0  0  0  1  0  0  0  0  0  0
  -25.9370  -33.8050   24.2200 N   0  0  0  0  0  0  0  0  0  0  0  0
  -26.2520  -34.8710   23.4720 C   0  0  0  0  0  0  0  0  0  0  0  0
  -26.7870  -34.7780   22.3650 O   0  0  0  0  0  0  0  0  0  0  0  0
  -25.4590  -33.9550   25.0960 H   0  0  0  0  0  0  0  0  0  0  0  0
  -24.6270  -36.7890   23.4150 C   0  0  0  0  0  1  0  0  0  0  0  0
  -25.9240  -36.2630   24.0480 C   0  0  0  0  0  3  0  0  0  0  0  0
  -28.2030  -36.9640   24.6430 C   0  0  0  0  0  1  0  0  0  0  0  0
  -27.0090  -37.2510   23.8500 N   0  0  0  0  0  0  0  0  0  0  0  0
  -26.6920  -38.1900   24.0860 H   0  0  0  0  0  0  0  0  0  0  0  0
  -29.7490  -20.6520   21.3170 C   0  0  0  0  0  3  0  0  0  0  0  0
  -30.5800  -22.5290   22.9600 C   0  0  0  0  0  1  0  0  0  0  0  0
  -31.1940  -20.1390   23.4130 C   0  0  0  0  0  1  0  0  0  0  0  0
  -30.1170  -21.0650   22.7880 C   0  0  0  0  0  3  0  0  0  0  0  0
  -28.1580  -18.6600   21.3420 C   0  0  0  0  0  1  0  0  0  0  0  0
  -29.5610  -19.1610   21.2970 N   0  0  1  0  0  4  0  0  0  0  0  0
  -29.9170  -18.9580   22.2170 H   0  0  0  0  0  0  0  0  0  0  0  0
  -30.4660  -18.3780   20.4080 C   0  0  0  0  0  2  0  0  0  0  0  0
  -30.8530  -16.9860   21.0020 C   0  0  0  0  0  2  0  0  0  0  0  0
  -30.7620  -15.8660   19.9460 C   0  0  0  0  0  2  0  0  0  0  0  0
  -31.5030  -14.5350   20.2150 C   0  0  0  0  0  0  0  0  0  0  0  0
  -31.1580  -12.2670   19.3670 C   0  0  0  0  0  2  0  0  0  0  0  0
  -30.2520  -12.3780   18.1240 C   0  0  0  0  0  2  0  0  0  0  0  0
  -28.7680  -12.2970   18.5310 C   0  0  0  0  0  2  0  0  0  0  0  0
  -28.4120  -13.2760   19.6780 C   0  0  0  0  0  3  0  0  0  0  0  0
  -29.4540  -13.2200   20.8230 C   0  0  0  0  0  2  0  0  0  0  0  0
  -30.8030  -13.3710   20.2640 N   0  0  0  0  0  0  0  0  0  0  0  0
  -32.7160  -14.5610   20.0130 O   0  0  0  0  0  0  0  0  0  0  0  0
  -26.0750  -14.0330   20.4210 C   0  0  0  0  0  0  0  0  0  0  0  0
  -24.9600  -13.3310   20.7820 C   0  0  0  0  0  0  0  0  0  0  0  0
  -25.3330  -11.9520   20.7450 C   0  0  0  0  0  0  0  0  0  0  0  0
  -27.0560  -13.0850   20.1750 N   0  0  0  0  0  0  0  0  0  0  0  0
  -26.6160  -11.8300   20.4370 N   0  0  0  0  0  0  0  0  0  0  0  0
  -24.5310  -10.7360   20.9270 C   0  0  0  0  0  0  0  0  0  0  0  0
  -24.8890   -9.7540   21.8760 C   0  0  0  0  0  3  0  0  0  0  0  0
  -24.0950   -8.6000   22.0430 C   0  0  0  0  0  3  0  0  0  0  0  0
  -22.9280   -8.4230   21.2620 C   0  0  0  0  0  0  0  0  0  0  0  0
  -22.5890   -9.3950   20.3050 C   0  0  0  0  0  3  0  0  0  0  0  0
  -23.3830  -10.5390   20.1350 C   0  0  0  0  0  3  0  0  0  0  0  0
  -22.1110   -7.3220   21.3400 O   0  0  0  0  0  0  0  0  0  0  0  0
  -21.9580   -6.6190   22.5090 C   0  0  0  0  0  0  0  0  0  0  0  0
  -21.5090   -7.2360   23.6960 C   0  0  0  0  0  3  0  0  0  0  0  0
  -21.3020   -6.4620   24.8540 C   0  0  0  0  0  3  0  0  0  0  0  0
  -21.5310   -5.0740   24.8260 C   0  0  0  0  0  0  0  0  0  0  0  0
  -21.9720   -4.4580   23.6420 C   0  0  0  0  0  3  0  0  0  0  0  0
  -22.1830   -5.2270   22.4850 C   0  0  0  0  0  0  0  0  0  0  0  0
  -22.5890   -4.6260   21.3410 F   0  0  0  0  0  0  0  0  0  0  0  0
  -21.3230   -4.3310   25.9370 F   0  0  0  0  0  0  0  0  0  0  0  0
  -23.5920  -13.8910   21.0500 C   0  0  0  0  0  0  0  0  0  0  0  0
  -22.8220  -13.2490   21.9210 N   0  0  0  0  0  0  0  0  0  0  0  0
  -23.2170  -14.9360   20.5180 O   0  0  0  0  0  0  0  0  0  0  0  0
  -23.1390  -12.4060   22.3780 H   0  0  0  0  0  0  0  0  0  0  0  0
  -21.9060  -13.6140   22.1420 H   0  0  0  0  0  0  0  0  0  0  0  0
  -26.3280  -15.3930   20.2540 N   0  0  0  0  0  0  0  0  0  0  0  0
  -25.5820  -16.0770   20.3140 H   0  0  0  0  0  0  0  0  0  0  0  0
  -27.1780  -15.7650   19.8530 H   0  0  0  0  0  0  0  0  0  0  0  0
  1  2  1  0
  2  4  1  0
  3  1  2  0
  5  2  1  0
  6  5  1  0
  7  6  1  0
  7  8  1  0
  8 10  1  0
  9 20  2  0
 10 15  1  0
 11 19  1  0
 11 21  1  0
 12 18  1  0
 12 14  1  0
 13 19  1  0
 14 13  1  0
 15 14  2  0
 16 17  1  0
 16 10  2  0
 17 12  2  0
 18 11  1  0
 19  9  1  0
 21 23  2  0
 22 21  1  0
 24 22  1  0
 25 34  2  0
 25 30  1  0
 26 22  1  0
 27 26  1  0
 28 29  1  0
 28 27  1  0
 29 25  1  0
 30 26  1  0
 30 31  2  0
 31 32  1  0
 33 32  2  0
 34 33  1  0
 35  9  1  0
 35 40  1  0
 35 36  1  0
 36 39  1  1
 36 37  1  0
 38 36  1  0
 40 43  1  0
 41 45  1  0
 41 40  1  0
 42 41  2  0
 45 44  1  0
 47 45  1  0
 47 48  1  0
 47 46  1  0
 49  1  1  0
 49 52  1  0
 52 50  1  0
 52 51  1  0
 54 49  1  0
 54 53  1  0
 54 55  1  1
 56 57  1  0
 56 54  1  0
 58 59  1  0
 58 57  1  0
 59 65  1  0
 60 65  1  0
 61 62  1  0
 61 60  1  0
 63 62  1  0
 63 70  1  0
 63 64  1  0
 65 64  1  0
 66 59  2  0
 67 68  2  0
 68 87  1  0
 69 68  1  0
 69 72  1  0
 70 67  1  0
 70 71  1  0
 71 69  2  0
 72 73  1  0
 73 74  2  0
 75 78  1  0
 75 74  1  0
 76 75  2  0
 77 76  1  0
 77 72  2  0
 78 79  1  0
 79 80  1  0
 80 81  2  0
 82 81  1  0
 82 86  1  0
 83 82  2  0
 84 79  2  0
 84 83  1  0
 85 84  1  0
 87 88  1  0
 88 91  1  0
 88 90  1  0
 89 87  2  0
 92 93  1  0
 92 67  1  0
 94 92  1  0
M  ISO  4   7 101   8 101  58 100  59 100
M  END
>  <TORSDO>  (41) 
F 25

>  <SCORE>  (41) 
-10.267

>  <name>  (41) 
41

>  <ligand_id>  (41) 
41

>  <original_smiles>  (41) 
[H]c1c([H])c([H])c2c(c1[H])C([H])([H])C([H])([H])C([H])([H])C2([H])N([H])C(=O)C1([H])N(C(=O)C([H])(N([H])C(=O)C([H])(N([H])C([H])([H])[H])C([H])([H])[H])C(C([H])([H])[H])(C([H])([H])[H])C([H])([H])[H])C([H])([H])c2c([H])c(OC([H])([H])C([H])([H])C([H])([H])N([H])C(=O)C([H])(C([H])(C([H])([H])[H])C([H])([H])[H])[N+]([H])(C([H])([H])[H])C([H])([H])C([H])([H])C([H])([H])C(=O)N3C([H])([H])C([H])([H])C([H])([H])C([H])(n4nc(-c5c([H])c([H])c(Oc6c([H])c([H])c(F)c([H])c6F)c([H])c5[H])c(C(=O)N([H])[H])c4N([H])[H])C3([H])[H])c([H])c([H])c2C1([H])[H]

>  <smiles>  (41) 
[H]c1c([H])c([H])c2c(c1[H])C([H])([H])C([H])([H])C([H])([H])C2([H])N([H])C(=O)C1([H])N(C(=O)C([H])(N([H])C(=O)C([H])(N([H])C([H])([H])[H])C([H])([H])[H])C(C([H])([H])[H])(C([H])([H])[H])C([H])([H])[H])C([H])([H])c2c([H])c(OC([H])([H])C([H])([H])C([H])([H])N([H])C(=O)C([H])(C([H])(C([H])([H])[H])C([H])([H])[H])[N+]([H])(C([H])([H])[H])C([H])([H])C([H])([H])C([H])([H])C(=O)N3C([H])([H])C([H])([H])C([H])([H])C([H])(n4nc(-c5c([H])c([H])c(Oc6c([H])c([H])c(F)c([H])c6F)c([H])c5[H])c(C(=O)N([H])[H])c4N([H])[H])C3([H])[H])c([H])c([H])c2C1([H])[H]

$$$$
42:0:0
     RDKit          3D

 92100  0  0  1  0  0  0  0  0999 V2000
  -30.6310  -22.7280   20.7220 C   0  0  0  0  0  3  0  0  0  0  0  0
  -28.4220  -21.8920   20.1620 C   0  0  0  0  0  3  0  0  0  0  0  0
  -30.2530  -24.0210   20.2950 C   0  0  0  0  0  3  0  0  0  0  0  0
  -28.0450  -23.1900   19.7300 C   0  0  0  0  0  3  0  0  0  0  0  0
  -29.7330  -21.6360   20.6360 C   0  0  0  0  0  0  0  0  0  0  0  0
  -28.9640  -24.2670   19.7720 C   0  0  0  0  0  0  0  0  0  0  0  0
  -30.1840  -20.2170   21.0700 C   0  0  0  0  0  2  0  0  0  0  0  0
  -30.3280  -19.1780   19.9900 N   0  0  1  0  0  4  0  0  0  0  0  0
  -29.3880  -18.8600   19.8120 H   0  0  0  0  0  0  0  0  0  0  0  0
  -32.2270  -20.2470   18.6440 C   0  0  0  0  0  1  0  0  0  0  0  0
  -30.7760  -19.7170   18.6700 C   0  0  0  0  0  2  0  0  0  0  0  0
  -31.1220  -17.9550   20.3700 C   0  0  0  0  0  2  0  0  0  0  0  0
  -30.5540  -17.0280   21.4880 C   0  0  0  0  0  2  0  0  0  0  0  0
  -29.8040  -15.7210   21.0780 C   0  0  0  0  0  2  0  0  0  0  0  0
  -30.6190  -14.5310   20.4790 C   0  0  0  0  0  0  0  0  0  0  0  0
  -30.3720  -12.3760   19.2740 C   0  0  0  0  0  2  0  0  0  0  0  0
  -29.4250  -12.6270   18.0770 C   0  0  0  0  0  2  0  0  0  0  0  0
  -27.9450  -12.4830   18.4980 C   0  0  0  0  0  2  0  0  0  0  0  0
  -27.6210  -13.2660   19.7960 C   0  0  0  0  0  3  0  0  0  0  0  0
  -28.6790  -12.9780   20.8840 C   0  0  0  0  0  2  0  0  0  0  0  0
  -30.0000  -13.3230   20.3370 N   0  0  0  0  0  0  0  0  0  0  0  0
  -31.7440  -14.7490   20.0130 O   0  0  0  0  0  0  0  0  0  0  0  0
  -25.2260  -13.8770   20.4970 C   0  0  0  0  0  0  0  0  0  0  0  0
  -24.1560  -13.1090   20.8680 C   0  0  0  0  0  0  0  0  0  0  0  0
  -24.6150  -11.7550   20.8440 C   0  0  0  0  0  0  0  0  0  0  0  0
  -26.2670  -12.9930   20.2700 N   0  0  0  0  0  0  0  0  0  0  0  0
  -25.9040  -11.7110   20.5300 N   0  0  0  0  0  0  0  0  0  0  0  0
  -23.8890  -10.4960   21.0430 C   0  0  0  0  0  0  0  0  0  0  0  0
  -24.3260   -9.5260   21.9710 C   0  0  0  0  0  3  0  0  0  0  0  0
  -23.6010   -8.3280   22.1510 C   0  0  0  0  0  3  0  0  0  0  0  0
  -22.4230   -8.0940   21.4040 C   0  0  0  0  0  0  0  0  0  0  0  0
  -22.0040   -9.0530   20.4660 C   0  0  0  0  0  3  0  0  0  0  0  0
  -22.7310  -10.2410   20.2830 C   0  0  0  0  0  3  0  0  0  0  0  0
  -21.6680   -6.9490   21.4910 O   0  0  0  0  0  0  0  0  0  0  0  0
  -21.6330   -6.1980   22.6380 C   0  0  0  0  0  0  0  0  0  0  0  0
  -21.2390   -6.7480   23.8780 C   0  0  0  0  0  3  0  0  0  0  0  0
  -21.1560   -5.9270   25.0180 C   0  0  0  0  0  3  0  0  0  0  0  0
  -21.4540   -4.5540   24.9240 C   0  0  0  0  0  0  0  0  0  0  0  0
  -21.8390   -4.0020   23.6890 C   0  0  0  0  0  3  0  0  0  0  0  0
  -21.9270   -4.8210   22.5490 C   0  0  0  0  0  0  0  0  0  0  0  0
  -22.2790   -4.2810   21.3570 F   0  0  0  0  0  0  0  0  0  0  0  0
  -21.3670   -3.7630   26.0180 F   0  0  0  0  0  0  0  0  0  0  0  0
  -22.7610  -13.5890   21.1440 C   0  0  0  0  0  0  0  0  0  0  0  0
  -22.0330  -12.8940   22.0100 N   0  0  0  0  0  0  0  0  0  0  0  0
  -22.3250  -14.6170   20.6270 O   0  0  0  0  0  0  0  0  0  0  0  0
  -22.3940  -12.0490   22.4310 H   0  0  0  0  0  0  0  0  0  0  0  0
  -21.1020  -13.2030   22.2500 H   0  0  0  0  0  0  0  0  0  0  0  0
  -25.4060  -15.2470   20.3140 N   0  0  0  0  0  0  0  0  0  0  0  0
  -24.6560  -15.9240   20.4000 H   0  0  0  0  0  0  0  0  0  0  0  0
  -26.2760  -15.6630   20.0080 H   0  0  0  0  0  0  0  0  0  0  0  0
  -28.6260  -25.6380   19.1700 C   0  0  0  0  0  2  0  0  0  0  0  0
  -28.3990  -26.6930   20.1310 O   0  0  0  0  0  0  0  0  0  0  0  0
  -24.5960  -31.8780   23.2380 C   0  0  0  0  0  0  0  0  0  0  0  0
  -27.2100  -27.4090   20.1260 C   0  0  0  0  0  0  0  0  0  0  0  0
  -23.3760  -30.4810   21.6030 C   0  0  0  0  0  3  0  0  0  0  0  0
  -24.8130  -28.9310   20.1760 C   0  0  0  0  0  0  0  0  0  0  0  0
  -25.9020  -30.8240   21.3900 C   0  0  0  0  0  2  0  0  0  0  0  0
  -25.9770  -29.4470   20.7550 C   0  0  0  0  0  0  0  0  0  0  0  0
  -27.1740  -28.6910   20.7320 C   0  0  0  0  0  3  0  0  0  0  0  0
  -26.0120  -26.9020   19.5710 C   0  0  0  0  0  3  0  0  0  0  0  0
  -24.8250  -27.6580   19.5830 C   0  0  0  0  0  3  0  0  0  0  0  0
  -23.5720  -29.7950   20.2250 C   0  0  0  0  0  2  0  0  0  0  0  0
  -24.6430  -31.0750   22.1350 N   0  0  0  0  0  0  0  0  0  0  0  0
  -23.5190  -32.1530   23.7840 O   0  0  0  0  0  0  0  0  0  0  0  0
  -22.7240  -29.4670   22.5710 C   0  0  0  0  0  0  0  0  0  0  0  0
  -21.3990  -29.2830   22.4450 N   0  0  0  0  0  0  0  0  0  0  0  0
  -23.4070  -28.8480   23.3910 O   0  0  0  0  0  0  0  0  0  0  0  0
  -20.9130  -29.8270   21.7470 H   0  0  0  0  0  0  0  0  0  0  0  0
  -18.0340  -28.0710   22.9490 C   0  0  0  0  0  0  0  0  0  0  0  0
  -20.5870  -28.3510   23.2260 C   0  0  0  0  0  3  0  0  0  0  0  0
  -20.7020  -26.9150   22.6660 C   0  0  0  0  0  2  0  0  0  0  0  0
  -19.6050  -26.5740   21.6530 C   0  0  0  0  0  2  0  0  0  0  0  0
  -18.2200  -26.7170   22.2880 C   0  0  0  0  0  2  0  0  0  0  0  0
  -19.1440  -28.8440   23.3760 C   0  0  0  0  0  0  0  0  0  0  0  0
  -18.9150  -30.1110   23.9570 C   0  0  0  0  0  3  0  0  0  0  0  0
  -17.6070  -30.6040   24.1130 C   0  0  0  0  0  3  0  0  0  0  0  0
  -16.5110  -29.8320   23.6960 C   0  0  0  0  0  3  0  0  0  0  0  0
  -16.7240  -28.5670   23.1220 C   0  0  0  0  0  3  0  0  0  0  0  0
  -25.8870  -32.5060   23.8470 C   0  0  0  0  0  3  0  0  0  0  0  0
  -25.5820  -33.9050   24.1750 N   0  0  0  0  0  0  0  0  0  0  0  0
  -25.9180  -34.9560   23.4150 C   0  0  0  0  0  0  0  0  0  0  0  0
  -26.5880  -34.8510   22.3840 O   0  0  0  0  0  0  0  0  0  0  0  0
  -24.9760  -34.0600   24.9680 H   0  0  0  0  0  0  0  0  0  0  0  0
  -24.1880  -36.7510   23.0570 C   0  0  0  0  0  1  0  0  0  0  0  0
  -25.4300  -36.3460   23.8690 C   0  0  0  0  0  3  0  0  0  0  0  0
  -27.5710  -37.2200   24.6950 C   0  0  0  0  0  1  0  0  0  0  0  0
  -26.4610  -37.4010   23.7610 N   0  0  0  0  0  0  0  0  0  0  0  0
  -26.0540  -38.3160   23.9320 H   0  0  0  0  0  0  0  0  0  0  0  0
  -26.4100  -31.7370   25.1230 C   0  0  1  0  0  0  0  0  0  0  0  0
  -25.3200  -31.5020   26.1950 C   0  0  0  0  0  1  0  0  0  0  0  0
  -26.9870  -30.3570   24.7320 C   0  0  0  0  0  1  0  0  0  0  0  0
  -27.5660  -32.5290   25.7780 C   0  0  0  0  0  1  0  0  0  0  0  0
  2  5  2  0
  3  1  2  0
  4  6  2  0
  4  2  1  0
  5  1  1  0
  5  7  1  0
  6  3  1  0
  8 12  1  0
  8  7  1  0
  8  9  1  6
 10 11  1  0
 11  8  1  0
 12 13  1  0
 14 13  1  0
 15 14  1  0
 16 21  1  0
 17 18  1  0
 17 16  1  0
 19 18  1  0
 19 26  1  0
 19 20  1  0
 21 15  1  0
 21 20  1  0
 22 15  2  0
 23 24  2  0
 24 43  1  0
 25 24  1  0
 25 28  1  0
 26 23  1  0
 26 27  1  0
 27 25  2  0
 28 29  1  0
 29 30  2  0
 31 34  1  0
 31 30  1  0
 32 31  2  0
 33 32  1  0
 33 28  2  0
 34 35  1  0
 35 36  1  0
 36 37  2  0
 38 37  1  0
 38 42  1  0
 39 38  2  0
 40 35  2  0
 40 39  1  0
 41 40  1  0
 43 44  1  0
 44 47  1  0
 44 46  1  0
 45 43  2  0
 48 49  1  0
 48 23  1  0
 50 48  1  0
 51  6  1  0
 51 52  1  0
 53 64  2  0
 54 52  1  0
 54 59  1  0
 55 63  1  0
 55 65  1  0
 56 62  1  0
 56 58  1  0
 57 63  1  0
 58 57  1  0
 59 58  2  0
 60 61  1  0
 60 54  2  0
 61 56  2  0
 62 55  1  0
 63 53  1  0
 65 67  2  0
 66 65  1  0
 68 66  1  0
 69 78  2  0
 69 74  1  0
 70 66  1  0
 70 74  1  0
 71 70  1  0
 72 73  1  0
 72 71  1  0
 73 69  1  0
 74 75  2  0
 75 76  1  0
 77 76  2  0
 78 77  1  0
 79 53  1  0
 79 80  1  0
 79 89  1  0
 80 83  1  0
 81 85  1  0
 81 80  1  0
 82 81  2  0
 85 84  1  0
 87 85  1  0
 87 88  1  0
 87 86  1  0
 89 92  1  1
 89 90  1  0
 91 89  1  0
M  ISO  4  14 100  15 100  51 101  52 101
M  END
>  <TORSDO>  (42) 
F 23

>  <SCORE>  (42) 
-12.959

>  <name>  (42) 
42

>  <ligand_id>  (42) 
42

>  <original_smiles>  (42) 
[H]c1c([H])c([H])c2c(c1[H])C([H])([H])C([H])([H])C([H])([H])C2([H])N([H])C(=O)C1([H])N(C(=O)C([H])(N([H])C(=O)C([H])(N([H])C([H])([H])[H])C([H])([H])[H])C(C([H])([H])[H])(C([H])([H])[H])C([H])([H])[H])C([H])([H])c2c([H])c(OC([H])([H])c3c([H])c([H])c(C([H])([H])[N+]([H])(C([H])([H])C([H])([H])[H])C([H])([H])C([H])([H])C([H])([H])C(=O)N4C([H])([H])C([H])([H])C([H])([H])C([H])(n5nc(-c6c([H])c([H])c(Oc7c([H])c([H])c(F)c([H])c7F)c([H])c6[H])c(C(=O)N([H])[H])c5N([H])[H])C4([H])[H])c([H])c3[H])c([H])c([H])c2C1([H])[H]

>  <smiles>  (42) 
[H]c1c([H])c([H])c2c(c1[H])C([H])([H])C([H])([H])C([H])([H])C2([H])N([H])C(=O)C1([H])N(C(=O)C([H])(N([H])C(=O)C([H])(N([H])C([H])([H])[H])C([H])([H])[H])C(C([H])([H])[H])(C([H])([H])[H])C([H])([H])[H])C([H])([H])c2c([H])c(OC([H])([H])c3c([H])c([H])c(C([H])([H])[N+]([H])(C([H])([H])C([H])([H])[H])C([H])([H])C([H])([H])C([H])([H])C(=O)N4C([H])([H])C([H])([H])C([H])([H])C([H])(n5nc(-c6c([H])c([H])c(Oc7c([H])c([H])c(F)c([H])c7F)c([H])c6[H])c(C(=O)N([H])[H])c5N([H])[H])C4([H])[H])c([H])c3[H])c([H])c([H])c2C1([H])[H]

$$$$
43:0:0
     RDKit          3D

101109  0  0  1  0  0  0  0  0999 V2000
  -29.9620  -21.5040   21.0110 C   0  0  0  0  0  2  0  0  0  0  0  0
  -30.7300  -21.6720   18.6410 C   0  0  0  0  0  2  0  0  0  0  0  0
  -28.9170  -22.6020   20.7270 C   0  0  0  0  0  2  0  0  0  0  0  0
  -29.6580  -22.7550   18.3910 C   0  0  0  0  0  2  0  0  0  0  0  0
  -30.3440  -20.6570   19.7560 C   0  0  2  0  0  0  0  0  0  0  0  0
  -29.3690  -23.5060   19.6360 N   0  0  1  0  0  4  0  0  0  0  0  0
  -30.2440  -23.9200   19.9290 H   0  0  0  0  0  0  0  0  0  0  0  0
  -29.1620  -19.7620   19.2820 C   0  0  0  0  0  0  0  0  0  0  0  0
  -28.2540  -18.2270   17.5760 C   0  0  0  0  0  1  0  0  0  0  0  0
  -29.2660  -19.1390   18.0990 N   0  0  0  0  0  0  0  0  0  0  0  0
  -28.1770  -19.5990   20.0020 O   0  0  0  0  0  0  0  0  0  0  0  0
  -30.0660  -19.3130   17.5030 H   0  0  0  0  0  0  0  0  0  0  0  0
  -31.5290  -19.7830   20.0270 N   0  0  0  0  0  4  0  0  0  0  0  0
  -32.3240  -20.3900   20.1520 H   0  0  0  0  0  0  0  0  0  0  0  0
  -31.7250  -19.2230   19.2130 H   0  0  0  0  0  0  0  0  0  0  0  0
  -31.5460  -18.8890   21.2190 C   0  0  0  0  0  3  0  0  0  0  0  0
  -33.5230  -20.2510   22.1730 C   0  0  0  0  0  1  0  0  0  0  0  0
  -32.9790  -18.8620   21.7970 C   0  0  0  0  0  2  0  0  0  0  0  0
  -31.0590  -17.4750   20.8300 C   0  0  0  0  0  2  0  0  0  0  0  0
  -31.0300  -16.4230   21.9580 C   0  0  0  0  0  2  0  0  0  0  0  0
  -30.8150  -14.3870   20.5330 C   0  0  0  0  0  0  0  0  0  0  0  0
  -30.4150  -12.3310   19.2440 C   0  0  0  0  0  2  0  0  0  0  0  0
  -29.4800  -12.5890   18.0480 C   0  0  0  0  0  2  0  0  0  0  0  0
  -28.0070  -12.4550   18.4750 C   0  0  0  0  0  2  0  0  0  0  0  0
  -27.6810  -13.2770   19.7480 C   0  0  0  0  0  3  0  0  0  0  0  0
  -28.7230  -13.0140   20.8580 C   0  0  0  0  0  2  0  0  0  0  0  0
  -30.0680  -13.2790   20.3120 N   0  0  0  0  0  0  0  0  0  0  0  0
  -31.8360  -14.6520   19.8920 O   0  0  0  0  0  0  0  0  0  0  0  0
  -30.3890  -15.1810   21.5230 N   0  0  0  0  0  0  0  0  0  0  0  0
  -29.5630  -14.8810   22.0210 H   0  0  0  0  0  0  0  0  0  0  0  0
  -25.2710  -13.8940   20.4210 C   0  0  0  0  0  0  0  0  0  0  0  0
  -24.2010  -13.1250   20.7910 C   0  0  0  0  0  0  0  0  0  0  0  0
  -24.6650  -11.7740   20.7830 C   0  0  0  0  0  0  0  0  0  0  0  0
  -26.3210  -13.0110   20.2150 N   0  0  0  0  0  0  0  0  0  0  0  0
  -25.9570  -11.7320   20.4870 N   0  0  0  0  0  0  0  0  0  0  0  0
  -23.9400  -10.5130   20.9850 C   0  0  0  0  0  0  0  0  0  0  0  0
  -24.3680   -9.5580   21.9330 C   0  0  0  0  0  3  0  0  0  0  0  0
  -23.6440   -8.3610   22.1210 C   0  0  0  0  0  3  0  0  0  0  0  0
  -22.4770   -8.1100   21.3610 C   0  0  0  0  0  0  0  0  0  0  0  0
  -22.0690   -9.0540   20.4010 C   0  0  0  0  0  3  0  0  0  0  0  0
  -22.7930  -10.2430   20.2120 C   0  0  0  0  0  3  0  0  0  0  0  0
  -21.7240   -6.9660   21.4570 O   0  0  0  0  0  0  0  0  0  0  0  0
  -21.6710   -6.2350   22.6170 C   0  0  0  0  0  0  0  0  0  0  0  0
  -21.2470   -6.8040   23.8380 C   0  0  0  0  0  3  0  0  0  0  0  0
  -21.1420   -6.0000   24.9900 C   0  0  0  0  0  3  0  0  0  0  0  0
  -21.4500   -4.6270   24.9220 C   0  0  0  0  0  0  0  0  0  0  0  0
  -21.8670   -4.0580   23.7060 C   0  0  0  0  0  3  0  0  0  0  0  0
  -21.9740   -4.8600   22.5560 C   0  0  0  0  0  0  0  0  0  0  0  0
  -22.3560   -4.3020   21.3810 F   0  0  0  0  0  0  0  0  0  0  0  0
  -21.3410   -3.8530   26.0270 F   0  0  0  0  0  0  0  0  0  0  0  0
  -22.8010  -13.6040   21.0470 C   0  0  0  0  0  0  0  0  0  0  0  0
  -22.0670  -12.9150   21.9160 N   0  0  0  0  0  0  0  0  0  0  0  0
  -22.3650  -14.6230   20.5140 O   0  0  0  0  0  0  0  0  0  0  0  0
  -22.4300  -12.0890   22.3680 H   0  0  0  0  0  0  0  0  0  0  0  0
  -21.1280  -13.2190   22.1320 H   0  0  0  0  0  0  0  0  0  0  0  0
  -25.4370  -15.2620   20.2260 N   0  0  0  0  0  0  0  0  0  0  0  0
  -24.6720  -15.9200   20.3240 H   0  0  0  0  0  0  0  0  0  0  0  0
  -26.3000  -15.7000   19.9290 H   0  0  0  0  0  0  0  0  0  0  0  0
  -28.4540  -24.6500   19.4080 C   0  0  0  0  0  2  0  0  0  0  0  0
  -28.4060  -25.6000   20.6150 C   0  0  0  0  0  2  0  0  0  0  0  0
  -28.3880  -26.9430   20.1710 O   0  0  0  0  0  0  0  0  0  0  0  0
  -24.5420  -31.9850   23.2900 C   0  0  0  0  0  0  0  0  0  0  0  0
  -27.1800  -27.5850   20.2030 C   0  0  0  0  0  0  0  0  0  0  0  0
  -23.3220  -30.5730   21.6610 C   0  0  0  0  0  3  0  0  0  0  0  0
  -24.7670  -29.0320   20.2370 C   0  0  0  0  0  0  0  0  0  0  0  0
  -25.8380  -30.9540   21.4340 C   0  0  0  0  0  2  0  0  0  0  0  0
  -25.9230  -29.5820   20.8030 C   0  0  0  0  0  0  0  0  0  0  0  0
  -27.1320  -28.8660   20.7800 C   0  0  0  0  0  3  0  0  0  0  0  0
  -26.0090  -27.0260   19.6420 C   0  0  0  0  0  3  0  0  0  0  0  0
  -24.8030  -27.7510   19.6560 C   0  0  0  0  0  3  0  0  0  0  0  0
  -23.5180  -29.8810   20.2840 C   0  0  0  0  0  2  0  0  0  0  0  0
  -24.5850  -31.1840   22.1870 N   0  0  0  0  0  0  0  0  0  0  0  0
  -23.4670  -32.2570   23.8400 O   0  0  0  0  0  0  0  0  0  0  0  0
  -22.6830  -29.5560   22.6310 C   0  0  0  0  0  0  0  0  0  0  0  0
  -21.3630  -29.3530   22.4970 N   0  0  0  0  0  0  0  0  0  0  0  0
  -23.3720  -28.9490   23.4570 O   0  0  0  0  0  0  0  0  0  0  0  0
  -20.8700  -29.8950   21.8010 H   0  0  0  0  0  0  0  0  0  0  0  0
  -18.0070  -28.1060   22.9610 C   0  0  0  0  0  0  0  0  0  0  0  0
  -20.5540  -28.4140   23.2710 C   0  0  0  0  0  3  0  0  0  0  0  0
  -20.6930  -26.9750   22.7220 C   0  0  0  0  0  2  0  0  0  0  0  0
  -19.6140  -26.6140   21.6960 C   0  0  0  0  0  2  0  0  0  0  0  0
  -18.2190  -26.7480   22.3130 C   0  0  0  0  0  2  0  0  0  0  0  0
  -19.1050  -28.8950   23.3950 C   0  0  0  0  0  0  0  0  0  0  0  0
  -18.8540  -30.1680   23.9550 C   0  0  0  0  0  3  0  0  0  0  0  0
  -17.5380  -30.6490   24.0880 C   0  0  0  0  0  3  0  0  0  0  0  0
  -16.4540  -29.8540   23.6720 C   0  0  0  0  0  3  0  0  0  0  0  0
  -16.6900  -28.5850   23.1140 C   0  0  0  0  0  3  0  0  0  0  0  0
  -25.8350  -32.6150   23.8980 C   0  0  0  0  0  3  0  0  0  0  0  0
  -25.5340  -34.0150   24.2220 N   0  0  0  0  0  0  0  0  0  0  0  0
  -25.8630  -35.0610   23.4530 C   0  0  0  0  0  0  0  0  0  0  0  0
  -26.5260  -34.9490   22.4180 O   0  0  0  0  0  0  0  0  0  0  0  0
  -24.9450  -34.1760   25.0260 H   0  0  0  0  0  0  0  0  0  0  0  0
  -24.1290  -36.8480   23.0960 C   0  0  0  0  0  1  0  0  0  0  0  0
  -25.3770  -36.4530   23.9020 C   0  0  0  0  0  3  0  0  0  0  0  0
  -27.5200  -37.3420   24.7050 C   0  0  0  0  0  1  0  0  0  0  0  0
  -26.4080  -37.5050   23.7720 N   0  0  0  0  0  0  0  0  0  0  0  0
  -26.0030  -38.4260   23.9190 H   0  0  0  0  0  0  0  0  0  0  0  0
  -26.3640  -31.8470   25.1700 C   0  0  1  0  0  0  0  0  0  0  0  0
  -25.2820  -31.6050   26.2470 C   0  0  0  0  0  1  0  0  0  0  0  0
  -26.9490  -30.4710   24.7720 C   0  0  0  0  0  1  0  0  0  0  0  0
  -27.5180  -32.6440   25.8230 C   0  0  0  0  0  1  0  0  0  0  0  0
  2  5  1  0
  3  1  1  0
  4  2  1  0
  4  6  1  0
  5  8  1  0
  5 13  1  1
  5  1  1  0
  6  7  1  1
  6  3  1  0
  8 11  2  0
  9 10  1  0
 10  8  1  0
 12 10  1  0
 13 14  1  0
 13 16  1  0
 15 13  1  0
 16 19  1  0
 16 18  1  0
 18 17  1  0
 19 20  1  0
 21 29  1  0
 22 27  1  0
 23 24  1  0
 23 22  1  0
 25 24  1  0
 25 34  1  0
 25 26  1  0
 27 21  1  0
 27 26  1  0
 28 21  2  0
 29 20  1  0
 29 30  1  0
 31 32  2  0
 32 51  1  0
 33 32  1  0
 33 36  1  0
 34 31  1  0
 34 35  1  0
 35 33  2  0
 36 37  1  0
 37 38  2  0
 39 42  1  0
 39 38  1  0
 40 39  2  0
 41 40  1  0
 41 36  2  0
 42 43  1  0
 43 44  1  0
 44 45  2  0
 46 45  1  0
 46 50  1  0
 47 46  2  0
 48 43  2  0
 48 47  1  0
 49 48  1  0
 51 52  1  0
 52 55  1  0
 52 54  1  0
 53 51  2  0
 56 57  1  0
 56 31  1  0
 58 56  1  0
 59  6  1  0
 59 60  1  0
 61 63  1  0
 61 60  1  0
 62 73  2  0
 63 68  1  0
 64 72  1  0
 64 74  1  0
 65 71  1  0
 65 67  1  0
 66 72  1  0
 67 66  1  0
 68 67  2  0
 69 70  1  0
 69 63  2  0
 70 65  2  0
 71 64  1  0
 72 62  1  0
 74 76  2  0
 75 74  1  0
 77 75  1  0
 78 87  2  0
 78 83  1  0
 79 75  1  0
 79 83  1  0
 80 79  1  0
 81 82  1  0
 81 80  1  0
 82 78  1  0
 83 84  2  0
 84 85  1  0
 86 85  2  0
 87 86  1  0
 88 62  1  0
 88 89  1  0
 88 98  1  0
 89 92  1  0
 90 94  1  0
 90 89  1  0
 91 90  2  0
 94 93  1  0
 96 94  1  0
 96 97  1  0
 96 95  1  0
 98101  1  1
 98 99  1  0
100 98  1  0
M  ISO  4  21 100  29 100  60 101  61 101
M  END
>  <TORSDO>  (43) 
F 24

>  <SCORE>  (43) 
-12.648

>  <name>  (43) 
43

>  <ligand_id>  (43) 
43

>  <original_smiles>  (43) 
[H]c1c([H])c([H])c2c(c1[H])C([H])([H])C([H])([H])C([H])([H])C2([H])N([H])C(=O)C1([H])N(C(=O)C([H])(N([H])C(=O)C([H])(N([H])C([H])([H])[H])C([H])([H])[H])C(C([H])([H])[H])(C([H])([H])[H])C([H])([H])[H])C([H])([H])c2c([H])c(OC([H])([H])C([H])([H])[N+]3([H])C([H])([H])C([H])([H])C(C(=O)N([H])C([H])([H])[H])([N+]([H])([H])C([H])(C([H])([H])C([H])([H])[H])C([H])([H])C([H])([H])N([H])C(=O)N4C([H])([H])C([H])([H])C([H])([H])C([H])(n5nc(-c6c([H])c([H])c(Oc7c([H])c([H])c(F)c([H])c7F)c([H])c6[H])c(C(=O)N([H])[H])c5N([H])[H])C4([H])[H])C([H])([H])C3([H])[H])c([H])c([H])c2C1([H])[H]

>  <smiles>  (43) 
[H]c1c([H])c([H])c2c(c1[H])C([H])([H])C([H])([H])C([H])([H])C2([H])N([H])C(=O)C1([H])N(C(=O)C([H])(N([H])C(=O)C([H])(N([H])C([H])([H])[H])C([H])([H])[H])C(C([H])([H])[H])(C([H])([H])[H])C([H])([H])[H])C([H])([H])c2c([H])c(OC([H])([H])C([H])([H])[N+]3([H])C([H])([H])C([H])([H])C(C(=O)N([H])C([H])([H])[H])([N+]([H])([H])C([H])(C([H])([H])C([H])([H])[H])C([H])([H])C([H])([H])N([H])C(=O)N4C([H])([H])C([H])([H])C([H])([H])C([H])(n5nc(-c6c([H])c([H])c(Oc7c([H])c([H])c(F)c([H])c7F)c([H])c6[H])c(C(=O)N([H])[H])c5N([H])[H])C4([H])[H])C([H])([H])C3([H])[H])c([H])c([H])c2C1([H])[H]

$$$$
44:0:0
     RDKit          3D

 86 93  0  0  1  0  0  0  0  0999 V2000
  -29.0630  -22.2020   20.1570 C   0  0  0  0  0  3  0  0  0  0  0  0
  -29.7180  -19.1300   19.9810 C   0  0  0  0  0  0  0  0  0  0  0  0
  -28.8840  -20.4380   20.0920 N   0  0  0  0  0  0  0  0  0  0  0  0
  -30.9250  -19.3530   19.8950 O   0  0  0  0  0  0  0  0  0  0  0  0
  -27.9020  -20.1960   20.1590 H   0  0  0  0  0  0  0  0  0  0  0  0
  -28.3030  -17.3030   18.8080 C   0  0  0  0  0  1  0  0  0  0  0  0
  -28.5900  -17.0950   21.2970 C   0  0  0  0  0  1  0  0  0  0  0  0
  -29.3310  -17.3090   19.9580 C   0  0  2  0  0  0  0  0  0  0  0  0
  -30.2980  -15.6980   19.7500 C   0  0  0  0  0  0  0  0  0  0  0  0
  -30.4570  -13.1460   18.9290 C   0  0  0  0  0  2  0  0  0  0  0  0
  -29.4850  -12.7600   17.7740 C   0  0  0  0  0  2  0  0  0  0  0  0
  -28.1040  -12.3610   18.3200 C   0  0  0  0  0  2  0  0  0  0  0  0
  -27.6510  -13.3270   19.4340 C   0  0  0  0  0  3  0  0  0  0  0  0
  -28.7520  -13.6380   20.4720 C   0  0  0  0  0  2  0  0  0  0  0  0
  -29.8740  -14.2940   19.7590 N   0  0  0  0  0  0  0  0  0  0  0  0
  -31.5080  -15.6960   19.4450 O   0  0  0  0  0  0  0  0  0  0  0  0
  -25.3560  -13.8160   20.4100 C   0  0  0  0  0  0  0  0  0  0  0  0
  -24.3370  -13.0130   20.8340 C   0  0  0  0  0  0  0  0  0  0  0  0
  -24.8140  -11.6720   20.7120 C   0  0  0  0  0  0  0  0  0  0  0  0
  -26.3830  -12.9650   20.0450 N   0  0  0  0  0  0  0  0  0  0  0  0
  -26.0770  -11.6650   20.2920 N   0  0  0  0  0  0  0  0  0  0  0  0
  -24.1150  -10.3950   20.9090 C   0  0  0  0  0  0  0  0  0  0  0  0
  -24.5610   -9.4440   21.8520 C   0  0  0  0  0  3  0  0  0  0  0  0
  -23.8560   -8.2360   22.0370 C   0  0  0  0  0  3  0  0  0  0  0  0
  -22.6910   -7.9710   21.2800 C   0  0  0  0  0  0  0  0  0  0  0  0
  -22.2630   -8.9110   20.3270 C   0  0  0  0  0  3  0  0  0  0  0  0
  -22.9700  -10.1100   20.1390 C   0  0  0  0  0  3  0  0  0  0  0  0
  -21.9570   -6.8120   21.3750 O   0  0  0  0  0  0  0  0  0  0  0  0
  -21.8270   -6.1390   22.5630 C   0  0  0  0  0  0  0  0  0  0  0  0
  -21.2820   -6.7520   23.7120 C   0  0  0  0  0  3  0  0  0  0  0  0
  -21.1030   -6.0040   24.8930 C   0  0  0  0  0  3  0  0  0  0  0  0
  -21.4590   -4.6430   24.9240 C   0  0  0  0  0  0  0  0  0  0  0  0
  -21.9970   -4.0270   23.7790 C   0  0  0  0  0  3  0  0  0  0  0  0
  -22.1760   -4.7740   22.6000 C   0  0  0  0  0  0  0  0  0  0  0  0
  -22.6760   -4.1720   21.4940 F   0  0  0  0  0  0  0  0  0  0  0  0
  -21.2790   -3.9200   26.0540 F   0  0  0  0  0  0  0  0  0  0  0  0
  -22.9620  -13.4660   21.2300 C   0  0  0  0  0  0  0  0  0  0  0  0
  -22.3140  -12.7390   22.1320 N   0  0  0  0  0  0  0  0  0  0  0  0
  -22.4740  -14.4990   20.7750 O   0  0  0  0  0  0  0  0  0  0  0  0
  -22.7240  -11.9030   22.5210 H   0  0  0  0  0  0  0  0  0  0  0  0
  -21.3960  -13.0280   22.4410 H   0  0  0  0  0  0  0  0  0  0  0  0
  -25.4830  -15.1970   20.2730 N   0  0  0  0  0  0  0  0  0  0  0  0
  -24.7120  -15.8230   20.4730 H   0  0  0  0  0  0  0  0  0  0  0  0
  -26.2790  -15.6670   19.8660 H   0  0  0  0  0  0  0  0  0  0  0  0
  -28.0150  -23.8270   20.1760 C   0  0  0  0  0  3  0  0  0  0  0  0
  -28.1980  -25.5680   20.2840 O   0  0  0  0  0  0  0  0  0  0  0  0
  -24.6920  -31.8260   23.2200 C   0  0  0  0  0  0  0  0  0  0  0  0
  -27.2190  -26.7650   20.2340 C   0  0  0  0  0  0  0  0  0  0  0  0
  -23.5070  -30.4340   21.5770 C   0  0  0  0  0  3  0  0  0  0  0  0
  -24.9550  -28.7870   20.1680 C   0  0  0  0  0  0  0  0  0  0  0  0
  -26.0850  -30.5780   21.4610 C   0  0  0  0  0  2  0  0  0  0  0  0
  -26.1490  -29.1480   20.8040 C   0  0  0  0  0  0  0  0  0  0  0  0
  -27.2700  -28.1650   20.8000 C   0  0  0  0  0  3  0  0  0  0  0  0
  -25.9890  -26.6070   19.5480 C   0  0  0  0  0  3  0  0  0  0  0  0
  -24.9120  -27.5430   19.5170 C   0  0  0  0  0  3  0  0  0  0  0  0
  -23.7490  -29.7380   20.2070 C   0  0  0  0  0  2  0  0  0  0  0  0
  -24.7860  -30.9780   22.1380 N   0  0  0  0  0  0  0  0  0  0  0  0
  -23.5980  -32.1260   23.7280 O   0  0  0  0  0  0  0  0  0  0  0  0
  -22.7850  -29.4550   22.5430 C   0  0  0  0  0  0  0  0  0  0  0  0
  -21.4540  -29.2990   22.4080 N   0  0  0  0  0  0  0  0  0  0  0  0
  -23.4360  -28.8340   23.3870 O   0  0  0  0  0  0  0  0  0  0  0  0
  -20.9800  -29.8510   21.7070 H   0  0  0  0  0  0  0  0  0  0  0  0
  -18.0630  -28.0840   22.8940 C   0  0  0  0  0  0  0  0  0  0  0  0
  -20.6200  -28.3630   23.1740 C   0  0  0  0  0  3  0  0  0  0  0  0
  -20.7290  -26.9270   22.6090 C   0  0  0  0  0  2  0  0  0  0  0  0
  -19.6390  -26.5980   21.5850 C   0  0  0  0  0  2  0  0  0  0  0  0
  -18.2500  -26.7370   22.2160 C   0  0  0  0  0  2  0  0  0  0  0  0
  -19.1750  -28.8550   23.3280 C   0  0  0  0  0  0  0  0  0  0  0  0
  -18.9430  -30.1130   23.9250 C   0  0  0  0  0  3  0  0  0  0  0  0
  -17.6320  -30.6030   24.0890 C   0  0  0  0  0  3  0  0  0  0  0  0
  -16.5360  -29.8300   23.6670 C   0  0  0  0  0  3  0  0  0  0  0  0
  -16.7520  -28.5730   23.0760 C   0  0  0  0  0  3  0  0  0  0  0  0
  -25.9540  -32.4720   23.8670 C   0  0  0  0  0  3  0  0  0  0  0  0
  -26.4420  -31.7110   25.1630 C   0  0  1  0  0  0  0  0  0  0  0  0
  -25.3290  -31.4950   26.2170 C   0  0  0  0  0  1  0  0  0  0  0  0
  -27.0180  -30.3230   24.8080 C   0  0  0  0  0  1  0  0  0  0  0  0
  -27.5890  -32.5030   25.8340 C   0  0  0  0  0  1  0  0  0  0  0  0
  -25.6350  -33.8730   24.2020 N   0  0  0  0  0  0  0  0  0  0  0  0
  -25.9500  -34.9380   23.4510 C   0  0  0  0  0  0  0  0  0  0  0  0
  -26.5990  -34.8430   22.4070 O   0  0  0  0  0  0  0  0  0  0  0  0
  -25.0530  -34.0180   25.0140 H   0  0  0  0  0  0  0  0  0  0  0  0
  -24.1980  -36.7300   23.1790 C   0  0  0  0  0  1  0  0  0  0  0  0
  -25.4750  -36.3260   23.9330 C   0  0  0  0  0  3  0  0  0  0  0  0
  -27.6340  -37.2350   24.6780 C   0  0  0  0  0  1  0  0  0  0  0  0
  -26.4960  -37.3870   23.7750 N   0  0  0  0  0  0  0  0  0  0  0  0
  -26.0880  -38.3050   23.9310 H   0  0  0  0  0  0  0  0  0  0  0  0
  1 45  2  0
  2  3  1  0
  3  1  1  0
  3  5  1  0
  4  2  2  0
  8  6  1  6
  8  2  1  0
  8  7  1  0
  9 15  1  0
  9  8  1  0
 10 15  1  0
 11 12  1  0
 11 10  1  0
 13 12  1  0
 13 20  1  0
 13 14  1  0
 15 14  1  0
 16  9  2  0
 17 18  2  0
 18 37  1  0
 19 18  1  0
 19 22  1  0
 20 21  1  0
 20 17  1  0
 21 19  2  0
 22 23  1  0
 23 24  2  0
 25 28  1  0
 25 24  1  0
 26 25  2  0
 27 26  1  0
 27 22  2  0
 28 29  1  0
 29 34  2  0
 29 30  1  0
 30 31  2  0
 31 32  1  0
 32 36  1  0
 33 32  2  0
 34 33  1  0
 35 34  1  0
 37 38  1  0
 38 41  1  0
 38 40  1  0
 39 37  2  0
 42 17  1  0
 42 43  1  0
 44 42  1  0
 45 46  1  0
 47 58  2  0
 48 46  1  0
 48 53  1  0
 49 57  1  0
 49 59  1  0
 50 56  1  0
 50 52  1  0
 51 57  1  0
 52 51  1  0
 53 52  2  0
 54 48  2  0
 55 54  1  0
 55 50  2  0
 56 49  1  0
 57 47  1  0
 59 61  2  0
 60 59  1  0
 62 60  1  0
 63 72  2  0
 63 68  1  0
 64 60  1  0
 64 68  1  0
 65 64  1  0
 66 67  1  0
 66 65  1  0
 67 63  1  0
 68 69  2  0
 69 70  1  0
 71 70  2  0
 72 71  1  0
 73 47  1  0
 73 78  1  0
 73 74  1  0
 74 77  1  1
 74 75  1  0
 76 74  1  0
 78 81  1  0
 79 83  1  0
 79 78  1  0
 80 79  2  0
 83 82  1  0
 85 86  1  0
 85 83  1  0
 85 84  1  0
M  ISO  4   8 100   9 100  45 101  46 101
M  END
>  <TORSDO>  (44) 
F 19

>  <SCORE>  (44) 
-15.642

>  <name>  (44) 
44

>  <ligand_id>  (44) 
44

>  <original_smiles>  (44) 
[H]c1c([H])c([H])c2c(c1[H])C([H])([H])C([H])([H])C([H])([H])C2([H])N([H])C(=O)C1([H])N(C(=O)C([H])(N([H])C(=O)C([H])(N([H])C([H])([H])[H])C([H])([H])[H])C(C([H])([H])[H])(C([H])([H])[H])C([H])([H])[H])C([H])([H])c2c([H])c(OC([H])([H])C([H])([H])N([H])C(=O)C(C(=O)N3C([H])([H])C([H])([H])C([H])([H])C([H])(n4nc(-c5c([H])c([H])c(Oc6c([H])c([H])c(F)c([H])c6F)c([H])c5[H])c(C(=O)N([H])[H])c4N([H])[H])C3([H])[H])(C([H])([H])[H])C([H])([H])[H])c([H])c([H])c2C1([H])[H]

>  <smiles>  (44) 
[H]c1c([H])c([H])c2c(c1[H])C([H])([H])C([H])([H])C([H])([H])C2([H])N([H])C(=O)C1([H])N(C(=O)C([H])(N([H])C(=O)C([H])(N([H])C([H])([H])[H])C([H])([H])[H])C(C([H])([H])[H])(C([H])([H])[H])C([H])([H])[H])C([H])([H])c2c([H])c(OC([H])([H])C([H])([H])N([H])C(=O)C(C(=O)N3C([H])([H])C([H])([H])C([H])([H])C([H])(n4nc(-c5c([H])c([H])c(Oc6c([H])c([H])c(F)c([H])c6F)c([H])c5[H])c(C(=O)N([H])[H])c4N([H])[H])C3([H])[H])(C([H])([H])[H])C([H])([H])[H])c([H])c([H])c2C1([H])[H]

$$$$
45:0:0
     RDKit          3D

 90 97  0  0  1  0  0  0  0  0999 V2000
  -29.8380  -21.8780   19.9090 C   0  0  0  0  0  2  0  0  0  0  0  0
  -30.1250  -20.4850   19.2270 C   0  0  0  0  0  2  0  0  0  0  0  0
  -29.3200  -19.3050   19.7020 N   0  0  1  0  0  4  0  0  0  0  0  0
  -29.3350  -19.3740   20.7080 H   0  0  0  0  0  0  0  0  0  0  0  0
  -27.0010  -18.2950   19.9660 C   0  0  0  0  0  1  0  0  0  0  0  0
  -27.6370  -19.5070   17.8020 C   0  0  0  0  0  1  0  0  0  0  0  0
  -27.8680  -19.4010   19.3270 C   0  0  0  0  0  3  0  0  0  0  0  0
  -29.9610  -17.9670   19.3860 C   0  0  0  0  0  2  0  0  0  0  0  0
  -30.7390  -17.2980   20.5700 C   0  0  0  0  0  2  0  0  0  0  0  0
  -30.3280  -15.8210   20.9230 C   0  0  0  0  0  2  0  0  0  0  0  0
  -30.9440  -14.6280   20.1220 C   0  0  0  0  0  0  0  0  0  0  0  0
  -30.6750  -12.3630   19.1190 C   0  0  0  0  0  2  0  0  0  0  0  0
  -29.7160  -12.4310   17.9140 C   0  0  0  0  0  2  0  0  0  0  0  0
  -28.2470  -12.3260   18.3700 C   0  0  0  0  0  2  0  0  0  0  0  0
  -27.9190  -13.2770   19.5530 C   0  0  0  0  0  3  0  0  0  0  0  0
  -28.9840  -13.1410   20.6640 C   0  0  0  0  0  2  0  0  0  0  0  0
  -30.2960  -13.4280   20.0630 N   0  0  0  0  0  0  0  0  0  0  0  0
  -32.0200  -14.8050   19.5420 O   0  0  0  0  0  0  0  0  0  0  0  0
  -25.5630  -13.9780   20.3110 C   0  0  0  0  0  0  0  0  0  0  0  0
  -24.4740  -13.2470   20.7080 C   0  0  0  0  0  0  0  0  0  0  0  0
  -24.8830  -11.8800   20.6740 C   0  0  0  0  0  0  0  0  0  0  0  0
  -26.5690  -13.0550   20.0640 N   0  0  0  0  0  0  0  0  0  0  0  0
  -26.1630  -11.7880   20.3380 N   0  0  0  0  0  0  0  0  0  0  0  0
  -24.1140  -10.6470   20.8870 C   0  0  0  0  0  0  0  0  0  0  0  0
  -24.5360   -9.6720   21.8170 C   0  0  0  0  0  3  0  0  0  0  0  0
  -23.7740   -8.5000   22.0170 C   0  0  0  0  0  3  0  0  0  0  0  0
  -22.5760   -8.3020   21.2920 C   0  0  0  0  0  0  0  0  0  0  0  0
  -22.1720   -9.2670   20.3540 C   0  0  0  0  0  3  0  0  0  0  0  0
  -22.9330  -10.4300   20.1510 C   0  0  0  0  0  3  0  0  0  0  0  0
  -21.7790   -7.1870   21.4070 O   0  0  0  0  0  0  0  0  0  0  0  0
  -21.7310   -6.4540   22.5640 C   0  0  0  0  0  0  0  0  0  0  0  0
  -21.3680   -7.0290   23.8020 C   0  0  0  0  0  3  0  0  0  0  0  0
  -21.2630   -6.2200   24.9500 C   0  0  0  0  0  3  0  0  0  0  0  0
  -21.5120   -4.8370   24.8660 C   0  0  0  0  0  0  0  0  0  0  0  0
  -21.8680   -4.2620   23.6340 C   0  0  0  0  0  3  0  0  0  0  0  0
  -21.9740   -5.0670   22.4870 C   0  0  0  0  0  0  0  0  0  0  0  0
  -22.2940   -4.5020   21.2980 F   0  0  0  0  0  0  0  0  0  0  0  0
  -21.4060   -4.0600   25.9680 F   0  0  0  0  0  0  0  0  0  0  0  0
  -23.1020  -13.7810   21.0070 C   0  0  0  0  0  0  0  0  0  0  0  0
  -22.3730  -13.1280   21.9060 N   0  0  0  0  0  0  0  0  0  0  0  0
  -22.6860  -14.8100   20.4800 O   0  0  0  0  0  0  0  0  0  0  0  0
  -22.7190  -12.2940   22.3550 H   0  0  0  0  0  0  0  0  0  0  0  0
  -21.4540  -13.4660   22.1510 H   0  0  0  0  0  0  0  0  0  0  0  0
  -25.7700  -15.3390   20.1190 N   0  0  0  0  0  0  0  0  0  0  0  0
  -25.0140  -16.0110   20.2100 H   0  0  0  0  0  0  0  0  0  0  0  0
  -26.6160  -15.7390   19.7350 H   0  0  0  0  0  0  0  0  0  0  0  0
  -28.7540  -22.7770   19.2350 C   0  0  0  0  0  2  0  0  0  0  0  0
  -28.9940  -24.3250   19.2260 C   0  0  0  0  0  2  0  0  0  0  0  0
  -28.2770  -25.1640   20.3200 C   0  0  0  0  0  2  0  0  0  0  0  0
  -28.4150  -26.5900   20.1060 O   0  0  0  0  0  0  0  0  0  0  0  0
  -24.5320  -31.7290   23.1740 C   0  0  0  0  0  0  0  0  0  0  0  0
  -27.2520  -27.3380   20.0720 C   0  0  0  0  0  0  0  0  0  0  0  0
  -23.3670  -30.3610   21.4770 C   0  0  0  0  0  3  0  0  0  0  0  0
  -24.8560  -28.8570   20.0480 C   0  0  0  0  0  0  0  0  0  0  0  0
  -25.8950  -30.7270   21.3410 C   0  0  0  0  0  2  0  0  0  0  0  0
  -26.0010  -29.3690   20.6730 C   0  0  0  0  0  0  0  0  0  0  0  0
  -27.2020  -28.6200   20.6760 C   0  0  0  0  0  3  0  0  0  0  0  0
  -26.0940  -26.8540   19.4250 C   0  0  0  0  0  3  0  0  0  0  0  0
  -24.9000  -27.6030   19.4160 C   0  0  0  0  0  3  0  0  0  0  0  0
  -23.6090  -29.7140   20.0850 C   0  0  0  0  0  2  0  0  0  0  0  0
  -24.6150  -30.9520   22.0570 N   0  0  0  0  0  0  0  0  0  0  0  0
  -23.4380  -31.9890   23.6940 O   0  0  0  0  0  0  0  0  0  0  0  0
  -22.6950  -29.3190   22.4000 C   0  0  0  0  0  0  0  0  0  0  0  0
  -21.3720  -29.1520   22.2520 N   0  0  0  0  0  0  0  0  0  0  0  0
  -23.3630  -28.6670   23.2060 O   0  0  0  0  0  0  0  0  0  0  0  0
  -20.8960  -29.7350   21.5780 H   0  0  0  0  0  0  0  0  0  0  0  0
  -17.9770  -27.9840   22.6810 C   0  0  0  0  0  0  0  0  0  0  0  0
  -20.5350  -28.1990   22.9820 C   0  0  0  0  0  3  0  0  0  0  0  0
  -20.6240  -26.7870   22.3550 C   0  0  0  0  0  2  0  0  0  0  0  0
  -19.5270  -26.5130   21.3220 C   0  0  0  0  0  2  0  0  0  0  0  0
  -18.1420  -26.6560   21.9580 C   0  0  0  0  0  2  0  0  0  0  0  0
  -19.1030  -28.7160   23.1460 C   0  0  0  0  0  0  0  0  0  0  0  0
  -18.8960  -29.9620   23.7760 C   0  0  0  0  0  3  0  0  0  0  0  0
  -17.5980  -30.4750   23.9470 C   0  0  0  0  0  3  0  0  0  0  0  0
  -16.4860  -29.7420   23.4970 C   0  0  0  0  0  3  0  0  0  0  0  0
  -16.6770  -28.4950   22.8730 C   0  0  0  0  0  3  0  0  0  0  0  0
  -25.8020  -32.3500   23.8380 C   0  0  0  0  0  3  0  0  0  0  0  0
  -26.2750  -31.5710   25.1260 C   0  0  1  0  0  0  0  0  0  0  0  0
  -25.1490  -31.3370   26.1600 C   0  0  0  0  0  1  0  0  0  0  0  0
  -26.8590  -30.1910   24.7430 C   0  0  0  0  0  1  0  0  0  0  0  0
  -27.4100  -32.3550   25.8280 C   0  0  0  0  0  1  0  0  0  0  0  0
  -25.4960  -33.7470   24.1620 N   0  0  0  0  0  0  0  0  0  0  0  0
  -25.8630  -34.7990   23.4160 C   0  0  0  0  0  0  0  0  0  0  0  0
  -26.5670  -34.6930   22.4080 O   0  0  0  0  0  0  0  0  0  0  0  0
  -24.8830  -33.9080   24.9470 H   0  0  0  0  0  0  0  0  0  0  0  0
  -24.1550  -36.6020   23.0110 C   0  0  0  0  0  1  0  0  0  0  0  0
  -25.3710  -36.1910   23.8580 C   0  0  0  0  0  3  0  0  0  0  0  0
  -27.4870  -37.0610   24.7480 C   0  0  0  0  0  1  0  0  0  0  0  0
  -26.4120  -37.2380   23.7760 N   0  0  0  0  0  0  0  0  0  0  0  0
  -26.0070  -38.1590   23.9170 H   0  0  0  0  0  0  0  0  0  0  0  0
  2  3  1  0
  2  1  1  0
  3  4  1  1
  6  7  1  0
  7  3  1  0
  7  5  1  0
  8  3  1  0
  8  9  1  0
  9 10  1  0
 11 10  1  0
 12 17  1  0
 13 14  1  0
 13 12  1  0
 15 14  1  0
 15 22  1  0
 15 16  1  0
 17 11  1  0
 17 16  1  0
 18 11  2  0
 19 20  2  0
 20 39  1  0
 21 20  1  0
 21 24  1  0
 22 19  1  0
 22 23  1  0
 23 21  2  0
 24 25  1  0
 25 26  2  0
 27 30  1  0
 27 26  1  0
 28 27  2  0
 29 28  1  0
 29 24  2  0
 30 31  1  0
 31 32  1  0
 32 33  2  0
 34 33  1  0
 34 38  1  0
 35 34  2  0
 36 31  2  0
 36 35  1  0
 37 36  1  0
 39 40  1  0
 40 43  1  0
 40 42  1  0
 41 39  2  0
 44 45  1  0
 44 19  1  0
 46 44  1  0
 47  1  1  0
 48 47  1  0
 48 49  1  0
 50 49  1  0
 51 62  2  0
 52 50  1  0
 52 57  1  0
 53 61  1  0
 53 63  1  0
 54 60  1  0
 54 56  1  0
 55 61  1  0
 56 57  2  0
 56 55  1  0
 58 52  2  0
 59 58  1  0
 59 54  2  0
 60 53  1  0
 61 51  1  0
 63 65  2  0
 64 63  1  0
 66 64  1  0
 67 76  2  0
 67 72  1  0
 68 64  1  0
 68 72  1  0
 69 68  1  0
 70 71  1  0
 70 69  1  0
 71 67  1  0
 72 73  2  0
 73 74  1  0
 75 74  2  0
 76 75  1  0
 77 51  1  0
 77 82  1  0
 77 78  1  0
 78 81  1  1
 78 79  1  0
 80 78  1  0
 82 85  1  0
 83 87  1  0
 83 82  1  0
 84 83  2  0
 87 86  1  0
 89 87  1  0
 89 90  1  0
 89 88  1  0
M  ISO  4  10 100  11 100  49 101  50 101
M  END
>  <TORSDO>  (45) 
F 25

>  <SCORE>  (45) 
-12.027

>  <name>  (45) 
45

>  <ligand_id>  (45) 
45

>  <original_smiles>  (45) 
[H]c1c([H])c([H])c2c(c1[H])C([H])([H])C([H])([H])C([H])([H])C2([H])N([H])C(=O)C1([H])N(C(=O)C([H])(N([H])C(=O)C([H])(N([H])C([H])([H])[H])C([H])([H])[H])C(C([H])([H])[H])(C([H])([H])[H])C([H])([H])[H])C([H])([H])c2c([H])c(OC([H])([H])C([H])([H])C([H])([H])C([H])([H])C([H])([H])[N+]([H])(C([H])([H])C([H])([H])C([H])([H])C(=O)N3C([H])([H])C([H])([H])C([H])([H])C([H])(n4nc(-c5c([H])c([H])c(Oc6c([H])c([H])c(F)c([H])c6F)c([H])c5[H])c(C(=O)N([H])[H])c4N([H])[H])C3([H])[H])C([H])(C([H])([H])[H])C([H])([H])[H])c([H])c([H])c2C1([H])[H]

>  <smiles>  (45) 
[H]c1c([H])c([H])c2c(c1[H])C([H])([H])C([H])([H])C([H])([H])C2([H])N([H])C(=O)C1([H])N(C(=O)C([H])(N([H])C(=O)C([H])(N([H])C([H])([H])[H])C([H])([H])[H])C(C([H])([H])[H])(C([H])([H])[H])C([H])([H])[H])C([H])([H])c2c([H])c(OC([H])([H])C([H])([H])C([H])([H])C([H])([H])C([H])([H])[N+]([H])(C([H])([H])C([H])([H])C([H])([H])C(=O)N3C([H])([H])C([H])([H])C([H])([H])C([H])(n4nc(-c5c([H])c([H])c(Oc6c([H])c([H])c(F)c([H])c6F)c([H])c5[H])c(C(=O)N([H])[H])c4N([H])[H])C3([H])[H])C([H])(C([H])([H])[H])C([H])([H])[H])c([H])c([H])c2C1([H])[H]

$$$$
46:0:0
     RDKit          3D

 93100  0  0  1  0  0  0  0  0999 V2000
  -29.5910  -22.0290   20.1350 C   0  0  0  0  0  3  0  0  0  0  0  0
  -29.3310  -20.5530   19.6140 N   0  0  2  0  0  4  0  0  0  0  0  0
  -30.1590  -20.4130   19.0550 H   0  0  0  0  0  0  0  0  0  0  0  0
  -28.2490  -20.5450   18.5850 C   0  0  0  0  0  2  0  0  0  0  0  0
  -27.2540  -19.6160   16.4420 C   0  0  0  0  0  1  0  0  0  0  0  0
  -29.6990  -19.3270   16.8180 C   0  0  0  0  0  1  0  0  0  0  0  0
  -28.3340  -19.4230   17.5180 C   0  0  0  0  0  3  0  0  0  0  0  0
  -29.4080  -19.2960   20.5950 C   0  0  0  0  0  3  0  0  0  0  0  0
  -30.0080  -17.7580   20.2080 C   0  0  0  0  0  3  0  0  0  0  0  0
  -29.8770  -16.3820   21.1790 C   0  0  0  0  0  2  0  0  0  0  0  0
  -30.6920  -14.9450   21.0170 C   0  0  0  0  0  0  0  0  0  0  0  0
  -30.6870  -12.5300   20.2370 C   0  0  0  0  0  2  0  0  0  0  0  0
  -29.8980  -12.4480   18.9070 C   0  0  0  0  0  2  0  0  0  0  0  0
  -28.3940  -12.2450   19.1760 C   0  0  0  0  0  2  0  0  0  0  0  0
  -27.8600  -13.2070   20.2660 C   0  0  0  0  0  3  0  0  0  0  0  0
  -28.7870  -13.2800   21.4990 C   0  0  0  0  0  2  0  0  0  0  0  0
  -30.1280  -13.6650   21.0290 N   0  0  0  0  0  0  0  0  0  0  0  0
  -31.9050  -15.0060   20.7970 O   0  0  0  0  0  0  0  0  0  0  0  0
  -25.4040  -13.7690   20.7280 C   0  0  0  0  0  0  0  0  0  0  0  0
  -24.3160  -12.9900   21.0000 C   0  0  0  0  0  0  0  0  0  0  0  0
  -24.7970  -11.6450   21.0600 C   0  0  0  0  0  0  0  0  0  0  0  0
  -26.4780  -12.9030   20.6300 N   0  0  0  0  0  0  0  0  0  0  0  0
  -26.1140  -11.6200   20.8980 N   0  0  0  0  0  0  0  0  0  0  0  0
  -24.0670  -10.3780   21.2130 C   0  0  0  0  0  0  0  0  0  0  0  0
  -24.4260   -9.4280   22.1970 C   0  0  0  0  0  3  0  0  0  0  0  0
  -23.7010   -8.2220   22.3260 C   0  0  0  0  0  3  0  0  0  0  0  0
  -22.6020   -7.9610   21.4730 C   0  0  0  0  0  0  0  0  0  0  0  0
  -22.2710   -8.8960   20.4780 C   0  0  0  0  0  3  0  0  0  0  0  0
  -22.9950  -10.0900   20.3480 C   0  0  0  0  0  3  0  0  0  0  0  0
  -21.8570   -6.8070   21.5090 O   0  0  0  0  0  0  0  0  0  0  0  0
  -21.7260   -6.0690   22.6570 C   0  0  0  0  0  0  0  0  0  0  0  0
  -21.2080   -6.6270   23.8460 C   0  0  0  0  0  3  0  0  0  0  0  0
  -21.0300   -5.8160   24.9870 C   0  0  0  0  0  3  0  0  0  0  0  0
  -21.3630   -4.4480   24.9380 C   0  0  0  0  0  0  0  0  0  0  0  0
  -21.8760   -3.8890   23.7530 C   0  0  0  0  0  3  0  0  0  0  0  0
  -22.0570   -4.6980   22.6150 C   0  0  0  0  0  0  0  0  0  0  0  0
  -22.5290   -4.1500   21.4710 F   0  0  0  0  0  0  0  0  0  0  0  0
  -21.1880   -3.6690   26.0290 F   0  0  0  0  0  0  0  0  0  0  0  0
  -22.8890  -13.4450   21.1110 C   0  0  0  0  0  0  0  0  0  0  0  0
  -22.0870  -12.7570   21.9150 N   0  0  0  0  0  0  0  0  0  0  0  0
  -22.4880  -14.4440   20.5140 O   0  0  0  0  0  0  0  0  0  0  0  0
  -22.4360  -11.9480   22.4110 H   0  0  0  0  0  0  0  0  0  0  0  0
  -21.1240  -13.0290   22.0370 H   0  0  0  0  0  0  0  0  0  0  0  0
  -25.5750  -15.1400   20.5270 N   0  0  0  0  0  0  0  0  0  0  0  0
  -24.8090  -15.8040   20.5410 H   0  0  0  0  0  0  0  0  0  0  0  0
  -26.4680  -15.5610   20.3050 H   0  0  0  0  0  0  0  0  0  0  0  0
  -31.0010  -22.4560   19.6330 C   0  0  0  0  0  2  0  0  0  0  0  0
  -31.4130  -24.7940   20.6680 C   0  0  0  0  0  1  0  0  0  0  0  0
  -33.3300  -23.3170   20.1450 C   0  0  0  0  0  1  0  0  0  0  0  0
  -31.8570  -23.3220   20.5900 C   0  0  0  0  0  3  0  0  0  0  0  0
  -28.4800  -23.3210   20.1690 C   0  0  0  0  0  2  0  0  0  0  0  0
  -28.4400  -24.7900   19.3590 C   0  0  0  0  0  2  0  0  0  0  0  0
  -28.2400  -26.2070   19.9450 O   0  0  0  0  0  0  0  0  0  0  0  0
  -24.6610  -31.7660   23.1130 C   0  0  0  0  0  0  0  0  0  0  0  0
  -27.1110  -27.0960   19.9000 C   0  0  0  0  0  0  0  0  0  0  0  0
  -23.3790  -30.3990   21.5060 C   0  0  0  0  0  3  0  0  0  0  0  0
  -24.7520  -28.8010   20.0180 C   0  0  0  0  0  0  0  0  0  0  0  0
  -25.9220  -30.6390   21.2440 C   0  0  0  0  0  2  0  0  0  0  0  0
  -25.9540  -29.2540   20.5740 C   0  0  0  0  0  0  0  0  0  0  0  0
  -27.1180  -28.4110   20.5100 C   0  0  0  0  0  3  0  0  0  0  0  0
  -25.8790  -26.7200   19.3190 C   0  0  0  0  0  3  0  0  0  0  0  0
  -24.7210  -27.5360   19.3920 C   0  0  0  0  0  3  0  0  0  0  0  0
  -23.5370  -29.7090   20.1220 C   0  0  0  0  0  2  0  0  0  0  0  0
  -24.6750  -30.9580   22.0070 N   0  0  0  0  0  0  0  0  0  0  0  0
  -23.6010  -32.0680   23.6810 O   0  0  0  0  0  0  0  0  0  0  0  0
  -22.7190  -29.4050   22.4920 C   0  0  0  0  0  0  0  0  0  0  0  0
  -21.3880  -29.2500   22.3980 N   0  0  0  0  0  0  0  0  0  0  0  0
  -23.4060  -28.7740   23.2990 O   0  0  0  0  0  0  0  0  0  0  0  0
  -20.8970  -29.8070   21.7130 H   0  0  0  0  0  0  0  0  0  0  0  0
  -18.0080  -28.0690   22.9560 C   0  0  0  0  0  0  0  0  0  0  0  0
  -20.5730  -28.3210   23.1840 C   0  0  0  0  0  3  0  0  0  0  0  0
  -20.6600  -26.8910   22.6080 C   0  0  0  0  0  2  0  0  0  0  0  0
  -19.5380  -26.5680   21.6140 C   0  0  0  0  0  2  0  0  0  0  0  0
  -18.1670  -26.7180   22.2780 C   0  0  0  0  0  2  0  0  0  0  0  0
  -19.1370  -28.8300   23.3630 C   0  0  0  0  0  0  0  0  0  0  0  0
  -18.9320  -30.0950   23.9540 C   0  0  0  0  0  3  0  0  0  0  0  0
  -17.6310  -30.5980   24.1460 C   0  0  0  0  0  3  0  0  0  0  0  0
  -16.5190  -29.8340   23.7550 C   0  0  0  0  0  3  0  0  0  0  0  0
  -16.7070  -28.5730   23.1630 C   0  0  0  0  0  3  0  0  0  0  0  0
  -25.9740  -32.3700   23.7020 C   0  0  0  0  0  3  0  0  0  0  0  0
  -26.5380  -31.5490   24.9290 C   0  0  1  0  0  0  0  0  0  0  0  0
  -25.4930  -31.2850   26.0400 C   0  0  0  0  0  1  0  0  0  0  0  0
  -27.0880  -30.1810   24.4660 C   0  0  0  0  0  1  0  0  0  0  0  0
  -27.7270  -32.3050   25.5620 C   0  0  0  0  0  1  0  0  0  0  0  0
  -25.6850  -33.7550   24.1050 N   0  0  0  0  0  0  0  0  0  0  0  0
  -26.0170  -34.8450   23.3990 C   0  0  0  0  0  0  0  0  0  0  0  0
  -26.6670  -34.7850   22.3510 O   0  0  0  0  0  0  0  0  0  0  0  0
  -25.1020  -33.8740   24.9200 H   0  0  0  0  0  0  0  0  0  0  0  0
  -24.3100  -36.6840   23.1770 C   0  0  0  0  0  1  0  0  0  0  0  0
  -25.5610  -36.2150   23.9400 C   0  0  0  0  0  3  0  0  0  0  0  0
  -27.7250  -37.0240   24.7710 C   0  0  0  0  0  1  0  0  0  0  0  0
  -26.6070  -37.2590   23.8620 N   0  0  0  0  0  0  0  0  0  0  0  0
  -26.2170  -38.1780   24.0600 H   0  0  0  0  0  0  0  0  0  0  0  0
  1 47  1  0
  1 51  1  0
  2  1  1  0
  2  8  1  0
  2  3  1  6
  4  2  1  0
  5  7  1  0
  6  7  1  0
  7  4  1  0
  9  8  2  0
  9 10  1  0
 11 17  1  0
 11 10  1  0
 12 17  1  0
 13 14  1  0
 13 12  1  0
 15 14  1  0
 15 22  1  0
 15 16  1  0
 17 16  1  0
 18 11  2  0
 19 20  2  0
 20 21  1  0
 20 39  1  0
 21 24  1  0
 22 19  1  0
 22 23  1  0
 23 21  2  0
 24 25  1  0
 25 26  2  0
 27 30  1  0
 27 26  1  0
 28 27  2  0
 29 28  1  0
 29 24  2  0
 30 31  1  0
 31 32  1  0
 32 33  2  0
 34 33  1  0
 34 38  1  0
 35 34  2  0
 36 31  2  0
 36 35  1  0
 37 36  1  0
 39 40  1  0
 40 43  1  0
 40 42  1  0
 41 39  2  0
 44 45  1  0
 44 19  1  0
 46 44  1  0
 47 50  1  0
 49 50  1  0
 50 48  1  0
 52 53  1  0
 52 51  1  0
 54 65  2  0
 55 53  1  0
 55 60  1  0
 56 64  1  0
 56 66  1  0
 57 63  1  0
 57 59  1  0
 58 64  1  0
 59 58  1  0
 60 59  2  0
 61 62  1  0
 61 55  2  0
 62 57  2  0
 63 56  1  0
 64 54  1  0
 66 68  2  0
 67 66  1  0
 69 67  1  0
 70 79  2  0
 70 75  1  0
 71 67  1  0
 71 75  1  0
 72 71  1  0
 73 74  1  0
 73 72  1  0
 74 70  1  0
 75 76  2  0
 76 77  1  0
 78 77  2  0
 79 78  1  0
 80 54  1  0
 80 85  1  0
 80 81  1  0
 81 84  1  1
 81 82  1  0
 83 81  1  0
 85 88  1  0
 86 90  1  0
 86 85  1  0
 87 86  2  0
 90 89  1  0
 92 90  1  0
 92 93  1  0
 92 91  1  0
M  ISO  4  10 100  11 100  52 101  53 101
M  END
>  <TORSDO>  (46) 
F 26

>  <SCORE>  (46) 
-12.035

>  <name>  (46) 
46

>  <ligand_id>  (46) 
46

>  <original_smiles>  (46) 
[H]c1c([H])c([H])c2c(c1[H])C([H])([H])C([H])([H])C([H])([H])C2([H])N([H])C(=O)C1([H])N(C(=O)C([H])(N([H])C(=O)C([H])(N([H])C([H])([H])[H])C([H])([H])[H])C(C([H])([H])[H])(C([H])([H])[H])C([H])([H])[H])C([H])([H])c2c([H])c(OC([H])([H])C([H])([H])C([H])(C([H])([H])C([H])(C([H])([H])[H])C([H])([H])[H])[N+]([H])(C([H])([H])C([H])([H])C([H])([H])C(=O)N3C([H])([H])C([H])([H])C([H])([H])C([H])(n4nc(-c5c([H])c([H])c(Oc6c([H])c([H])c(F)c([H])c6F)c([H])c5[H])c(C(=O)N([H])[H])c4N([H])[H])C3([H])[H])C([H])([H])C([H])(C([H])([H])[H])C([H])([H])[H])c([H])c([H])c2C1([H])[H]

>  <smiles>  (46) 
[H]c1c([H])c([H])c2c(c1[H])C([H])([H])C([H])([H])C([H])([H])C2([H])N([H])C(=O)C1([H])N(C(=O)C([H])(N([H])C(=O)C([H])(N([H])C([H])([H])[H])C([H])([H])[H])C(C([H])([H])[H])(C([H])([H])[H])C([H])([H])[H])C([H])([H])c2c([H])c(OC([H])([H])C([H])([H])C([H])(C([H])([H])C([H])(C([H])([H])[H])C([H])([H])[H])[N+]([H])(C([H])([H])C([H])([H])C([H])([H])C(=O)N3C([H])([H])C([H])([H])C([H])([H])C([H])(n4nc(-c5c([H])c([H])c(Oc6c([H])c([H])c(F)c([H])c6F)c([H])c5[H])c(C(=O)N([H])[H])c4N([H])[H])C3([H])[H])C([H])([H])C([H])(C([H])([H])[H])C([H])([H])[H])c([H])c([H])c2C1([H])[H]

$$$$
47:0:0
     RDKit          3D

 95102  0  0  1  0  0  0  0  0999 V2000
  -28.7380  -22.3140   20.1700 C   0  0  0  0  0  3  0  0  0  0  0  0
  -27.5170  -22.0470   19.3700 N   0  0  0  0  0  4  0  0  0  0  0  0
  -27.7280  -22.0580   18.3860 H   0  0  0  0  0  0  0  0  0  0  0  0
  -26.8020  -22.7290   19.5420 H   0  0  0  0  0  0  0  0  0  0  0  0
  -27.1150  -21.1520   19.5940 H   0  0  0  0  0  0  0  0  0  0  0  0
  -29.8150  -21.1740   19.8290 C   0  0  0  0  0  2  0  0  0  0  0  0
  -29.9520  -19.8550   20.7430 C   0  0  0  0  0  3  0  0  0  0  0  0
  -30.9560  -18.5020   18.8330 C   0  0  0  0  0  1  0  0  0  0  0  0
  -30.0440  -18.5000   20.0070 N   0  0  1  0  0  4  0  0  0  0  0  0
  -29.1180  -18.3630   19.6280 H   0  0  0  0  0  0  0  0  0  0  0  0
  -30.3170  -17.2590   20.8620 C   0  0  0  0  0  2  0  0  0  0  0  0
  -29.6380  -15.8740   20.4490 C   0  0  0  0  0  2  0  0  0  0  0  0
  -30.5070  -14.5760   20.1730 C   0  0  0  0  0  0  0  0  0  0  0  0
  -30.2860  -12.3430   19.0990 C   0  0  0  0  0  2  0  0  0  0  0  0
  -29.3080  -12.4940   17.9130 C   0  0  0  0  0  2  0  0  0  0  0  0
  -27.8480  -12.3240   18.3790 C   0  0  0  0  0  2  0  0  0  0  0  0
  -27.5230  -13.1690   19.6400 C   0  0  0  0  0  3  0  0  0  0  0  0
  -28.6150  -12.9900   20.7170 C   0  0  0  0  0  2  0  0  0  0  0  0
  -29.9090  -13.3420   20.1180 N   0  0  0  0  0  0  0  0  0  0  0  0
  -31.6720  -14.7260   19.7950 O   0  0  0  0  0  0  0  0  0  0  0  0
  -25.1480  -13.7570   20.4310 C   0  0  0  0  0  0  0  0  0  0  0  0
  -24.0950  -12.9800   20.8270 C   0  0  0  0  0  0  0  0  0  0  0  0
  -24.5620  -11.6300   20.7780 C   0  0  0  0  0  0  0  0  0  0  0  0
  -26.1900  -12.8820   20.1620 N   0  0  0  0  0  0  0  0  0  0  0  0
  -25.8440  -11.5970   20.4330 N   0  0  0  0  0  0  0  0  0  0  0  0
  -23.8450  -10.3650   20.9830 C   0  0  0  0  0  0  0  0  0  0  0  0
  -24.3020   -9.4040   21.9110 C   0  0  0  0  0  3  0  0  0  0  0  0
  -23.5910   -8.1990   22.1030 C   0  0  0  0  0  3  0  0  0  0  0  0
  -22.4070   -7.9510   21.3700 C   0  0  0  0  0  0  0  0  0  0  0  0
  -21.9680   -8.9020   20.4320 C   0  0  0  0  0  3  0  0  0  0  0  0
  -22.6800  -10.0970   20.2380 C   0  0  0  0  0  3  0  0  0  0  0  0
  -21.6630   -6.8010   21.4730 O   0  0  0  0  0  0  0  0  0  0  0  0
  -21.6360   -6.0610   22.6290 C   0  0  0  0  0  0  0  0  0  0  0  0
  -21.2320   -6.6150   23.8620 C   0  0  0  0  0  3  0  0  0  0  0  0
  -21.1520   -5.7990   25.0080 C   0  0  0  0  0  3  0  0  0  0  0  0
  -21.4690   -4.4300   24.9220 C   0  0  0  0  0  0  0  0  0  0  0  0
  -21.8710   -3.8760   23.6940 C   0  0  0  0  0  3  0  0  0  0  0  0
  -21.9490   -4.6890   22.5500 C   0  0  0  0  0  0  0  0  0  0  0  0
  -22.3130   -4.1430   21.3630 F   0  0  0  0  0  0  0  0  0  0  0  0
  -21.3880   -3.6450   26.0220 F   0  0  0  0  0  0  0  0  0  0  0  0
  -22.7020  -13.4490   21.1380 C   0  0  0  0  0  0  0  0  0  0  0  0
  -22.0000  -12.7480   22.0210 N   0  0  0  0  0  0  0  0  0  0  0  0
  -22.2430  -14.4720   20.6310 O   0  0  0  0  0  0  0  0  0  0  0  0
  -22.3830  -11.9230   22.4600 H   0  0  0  0  0  0  0  0  0  0  0  0
  -21.0660  -13.0430   22.2660 H   0  0  0  0  0  0  0  0  0  0  0  0
  -25.3040  -15.1310   20.2570 N   0  0  0  0  0  0  0  0  0  0  0  0
  -24.5400  -15.7820   20.3990 H   0  0  0  0  0  0  0  0  0  0  0  0
  -26.1470  -15.5730   19.9160 H   0  0  0  0  0  0  0  0  0  0  0  0
  -31.1280  -20.0180   21.7590 C   0  0  0  0  0  2  0  0  0  0  0  0
  -32.4950  -21.4630   23.3260 C   0  0  0  0  0  1  0  0  0  0  0  0
  -29.9830  -21.3450   23.6270 C   0  0  0  0  0  1  0  0  0  0  0  0
  -31.1410  -21.3080   22.6150 C   0  0  0  0  0  3  0  0  0  0  0  0
  -29.1830  -23.8520   20.0140 C   0  0  0  0  0  3  0  0  0  0  0  0
  -28.0400  -24.9510   20.1450 C   0  0  0  0  0  3  0  0  0  0  0  0
  -28.3160  -26.4130   20.1830 O   0  0  0  0  0  0  0  0  0  0  0  0
  -24.6260  -31.8520   23.2390 C   0  0  0  0  0  0  0  0  0  0  0  0
  -27.2040  -27.2780   20.1650 C   0  0  0  0  0  0  0  0  0  0  0  0
  -23.4110  -30.4610   21.6040 C   0  0  0  0  0  3  0  0  0  0  0  0
  -24.8490  -28.9140   20.1700 C   0  0  0  0  0  0  0  0  0  0  0  0
  -25.9530  -30.7650   21.4160 C   0  0  0  0  0  2  0  0  0  0  0  0
  -26.0230  -29.3860   20.7680 C   0  0  0  0  0  0  0  0  0  0  0  0
  -27.2050  -28.5840   20.7570 C   0  0  0  0  0  3  0  0  0  0  0  0
  -26.0010  -26.8740   19.5390 C   0  0  0  0  0  3  0  0  0  0  0  0
  -24.8440  -27.6650   19.5390 C   0  0  0  0  0  3  0  0  0  0  0  0
  -23.6140  -29.7900   20.2210 C   0  0  0  0  0  2  0  0  0  0  0  0
  -24.6840  -31.0410   22.1440 N   0  0  0  0  0  0  0  0  0  0  0  0
  -23.5440  -32.1360   23.7770 O   0  0  0  0  0  0  0  0  0  0  0  0
  -22.7440  -29.4460   22.5650 C   0  0  0  0  0  0  0  0  0  0  0  0
  -21.4170  -29.2740   22.4410 N   0  0  0  0  0  0  0  0  0  0  0  0
  -23.4210  -28.8150   23.3820 O   0  0  0  0  0  0  0  0  0  0  0  0
  -20.9270  -29.8340   21.7570 H   0  0  0  0  0  0  0  0  0  0  0  0
  -18.0390  -28.0930   22.9540 C   0  0  0  0  0  0  0  0  0  0  0  0
  -20.5980  -28.3420   23.2170 C   0  0  0  0  0  3  0  0  0  0  0  0
  -20.6930  -26.9070   22.6490 C   0  0  0  0  0  2  0  0  0  0  0  0
  -19.5880  -26.5830   21.6380 C   0  0  0  0  0  2  0  0  0  0  0  0
  -18.2080  -26.7390   22.2840 C   0  0  0  0  0  2  0  0  0  0  0  0
  -19.1610  -28.8510   23.3780 C   0  0  0  0  0  0  0  0  0  0  0  0
  -18.9480  -30.1170   23.9650 C   0  0  0  0  0  3  0  0  0  0  0  0
  -17.6450  -30.6250   24.1290 C   0  0  0  0  0  3  0  0  0  0  0  0
  -16.5370  -29.8630   23.7210 C   0  0  0  0  0  3  0  0  0  0  0  0
  -16.7350  -28.5990   23.1380 C   0  0  0  0  0  3  0  0  0  0  0  0
  -25.9140  -32.4820   23.8540 C   0  0  0  0  0  3  0  0  0  0  0  0
  -26.4360  -31.7040   25.1240 C   0  0  1  0  0  0  0  0  0  0  0  0
  -25.3540  -31.4640   26.2010 C   0  0  0  0  0  1  0  0  0  0  0  0
  -27.0130  -30.3280   24.7260 C   0  0  0  0  0  1  0  0  0  0  0  0
  -27.5910  -32.4970   25.7820 C   0  0  0  0  0  1  0  0  0  0  0  0
  -25.6050  -33.8780   24.1930 N   0  0  0  0  0  0  0  0  0  0  0  0
  -25.9220  -34.9340   23.4320 C   0  0  0  0  0  0  0  0  0  0  0  0
  -26.5740  -34.8350   22.3890 O   0  0  0  0  0  0  0  0  0  0  0  0
  -25.0280  -34.0300   25.0080 H   0  0  0  0  0  0  0  0  0  0  0  0
  -24.1820  -36.7220   23.1150 C   0  0  0  0  0  1  0  0  0  0  0  0
  -25.4390  -36.3180   23.9030 C   0  0  0  0  0  3  0  0  0  0  0  0
  -27.5860  -37.2080   24.6970 C   0  0  0  0  0  1  0  0  0  0  0  0
  -26.4660  -37.3750   23.7750 N   0  0  0  0  0  0  0  0  0  0  0  0
  -26.0590  -38.2920   23.9350 H   0  0  0  0  0  0  0  0  0  0  0  0
  1  6  1  0
  2  4  1  0
  2  5  1  0
  2  1  1  0
  3  2  1  0
  7  6  1  0
  7 49  1  0
  8  9  1  0
  9  7  1  0
  9 11  1  0
  9 10  1  6
 12 11  1  0
 13 12  1  0
 14 19  1  0
 15 16  1  0
 15 14  1  0
 17 16  1  0
 17 24  1  0
 17 18  1  0
 19 13  1  0
 19 18  1  0
 20 13  2  0
 21 22  2  0
 22 41  1  0
 23 22  1  0
 23 26  1  0
 24 21  1  0
 24 25  1  0
 25 23  2  0
 26 27  1  0
 27 28  2  0
 29 32  1  0
 29 28  1  0
 30 29  2  0
 31 30  1  0
 31 26  2  0
 32 33  1  0
 33 34  1  0
 34 35  2  0
 36 35  1  0
 36 40  1  0
 37 36  2  0
 38 33  2  0
 38 37  1  0
 39 38  1  0
 41 42  1  0
 42 45  1  0
 42 44  1  0
 43 41  2  0
 46 47  1  0
 46 21  1  0
 48 46  1  0
 49 52  1  0
 52 50  1  0
 52 51  1  0
 53 54  2  0
 53  1  1  0
 54 55  1  0
 56 67  2  0
 57 55  1  0
 57 62  1  0
 58 66  1  0
 58 68  1  0
 59 65  1  0
 59 61  1  0
 60 66  1  0
 61 60  1  0
 62 61  2  0
 63 57  2  0
 64 63  1  0
 64 59  2  0
 65 58  1  0
 66 56  1  0
 68 70  2  0
 69 68  1  0
 71 69  1  0
 72 81  2  0
 72 77  1  0
 73 69  1  0
 73 77  1  0
 74 73  1  0
 75 76  1  0
 75 74  1  0
 76 72  1  0
 77 78  2  0
 78 79  1  0
 80 79  2  0
 81 80  1  0
 82 56  1  0
 82 87  1  0
 82 83  1  0
 83 86  1  1
 83 84  1  0
 85 83  1  0
 87 90  1  0
 88 92  1  0
 88 87  1  0
 89 88  2  0
 92 91  1  0
 94 92  1  0
 94 95  1  0
 94 93  1  0
M  ISO  4  12 100  13 100  54 101  55 101
M  END
>  <TORSDO>  (47) 
F 26

>  <SCORE>  (47) 
-11.898

>  <name>  (47) 
47

>  <ligand_id>  (47) 
47

>  <original_smiles>  (47) 
[H]c1c([H])c([H])c2c(c1[H])C([H])([H])C([H])([H])C([H])([H])C2([H])N([H])C(=O)C1([H])N(C(=O)C([H])(N([H])C(=O)C([H])(N([H])C([H])([H])[H])C([H])([H])[H])C(C([H])([H])[H])(C([H])([H])[H])C([H])([H])[H])C([H])([H])c2c([H])c(OC([H])([H])C([H])([H])C([H])(C([H])([H])C([H])(C([H])([H])C([H])(C([H])([H])[H])C([H])([H])[H])[N+]([H])(C([H])([H])[H])C([H])([H])C([H])([H])C(=O)N3C([H])([H])C([H])([H])C([H])([H])C([H])(n4nc(-c5c([H])c([H])c(Oc6c([H])c([H])c(F)c([H])c6F)c([H])c5[H])c(C(=O)N([H])[H])c4N([H])[H])C3([H])[H])[N+]([H])([H])[H])c([H])c([H])c2C1([H])[H]

>  <smiles>  (47) 
[H]c1c([H])c([H])c2c(c1[H])C([H])([H])C([H])([H])C([H])([H])C2([H])N([H])C(=O)C1([H])N(C(=O)C([H])(N([H])C(=O)C([H])(N([H])C([H])([H])[H])C([H])([H])[H])C(C([H])([H])[H])(C([H])([H])[H])C([H])([H])[H])C([H])([H])c2c([H])c(OC([H])([H])C([H])([H])C([H])(C([H])([H])C([H])(C([H])([H])C([H])(C([H])([H])[H])C([H])([H])[H])[N+]([H])(C([H])([H])[H])C([H])([H])C([H])([H])C(=O)N3C([H])([H])C([H])([H])C([H])([H])C([H])(n4nc(-c5c([H])c([H])c(Oc6c([H])c([H])c(F)c([H])c6F)c([H])c5[H])c(C(=O)N([H])[H])c4N([H])[H])C3([H])[H])[N+]([H])([H])[H])c([H])c([H])c2C1([H])[H]

$$$$
48:0:0
     RDKit          3D

 91 99  0  0  1  0  0  0  0  0999 V2000
  -28.4100  -21.9920   18.6480 C   0  0  0  0  0  3  0  0  0  0  0  0
  -30.4480  -22.5400   19.8430 C   0  0  0  0  0  3  0  0  0  0  0  0
  -28.0740  -23.3670   18.5920 C   0  0  0  0  0  3  0  0  0  0  0  0
  -30.1090  -23.9150   19.7880 C   0  0  0  0  0  3  0  0  0  0  0  0
  -29.6180  -21.5580   19.2500 C   0  0  0  0  0  0  0  0  0  0  0  0
  -28.9290  -24.3520   19.1430 C   0  0  0  0  0  0  0  0  0  0  0  0
  -30.0850  -20.0890   19.1230 C   0  0  0  0  0  2  0  0  0  0  0  0
  -29.9330  -19.2310   20.3290 N   0  0  0  0  0  4  0  0  0  0  0  0
  -28.9780  -19.3030   20.6440 H   0  0  0  0  0  0  0  0  0  0  0  0
  -30.5230  -19.6090   21.0520 H   0  0  0  0  0  0  0  0  0  0  0  0
  -30.2530  -17.7830   20.1140 C   0  0  0  0  0  2  0  0  0  0  0  0
  -30.5410  -16.9880   21.4230 C   0  0  0  0  0  2  0  0  0  0  0  0
  -30.0500  -15.5070   21.4860 C   0  0  0  0  0  2  0  0  0  0  0  0
  -30.6740  -14.4580   20.5280 C   0  0  0  0  0  0  0  0  0  0  0  0
  -30.3700  -12.3630   19.2290 C   0  0  0  0  0  2  0  0  0  0  0  0
  -29.4140  -12.6130   18.0450 C   0  0  0  0  0  2  0  0  0  0  0  0
  -27.9400  -12.4790   18.4810 C   0  0  0  0  0  2  0  0  0  0  0  0
  -27.6290  -13.2690   19.7800 C   0  0  0  0  0  3  0  0  0  0  0  0
  -28.6850  -12.9570   20.8640 C   0  0  0  0  0  2  0  0  0  0  0  0
  -30.0060  -13.2910   20.3090 N   0  0  0  0  0  0  0  0  0  0  0  0
  -31.7410  -14.7210   19.9590 O   0  0  0  0  0  0  0  0  0  0  0  0
  -25.2320  -13.9130   20.4670 C   0  0  0  0  0  0  0  0  0  0  0  0
  -24.1540  -13.1540   20.8420 C   0  0  0  0  0  0  0  0  0  0  0  0
  -24.6010  -11.7970   20.8220 C   0  0  0  0  0  0  0  0  0  0  0  0
  -26.2680  -13.0160   20.2500 N   0  0  0  0  0  0  0  0  0  0  0  0
  -25.8910  -11.7400   20.5140 N   0  0  0  0  0  0  0  0  0  0  0  0
  -23.8610  -10.5450   21.0200 C   0  0  0  0  0  0  0  0  0  0  0  0
  -24.2900   -9.5750   21.9520 C   0  0  0  0  0  3  0  0  0  0  0  0
  -23.5510   -8.3870   22.1390 C   0  0  0  0  0  3  0  0  0  0  0  0
  -22.3710   -8.1590   21.3920 C   0  0  0  0  0  0  0  0  0  0  0  0
  -21.9620   -9.1180   20.4490 C   0  0  0  0  0  3  0  0  0  0  0  0
  -22.7000  -10.2980   20.2600 C   0  0  0  0  0  3  0  0  0  0  0  0
  -21.6040   -7.0220   21.4870 O   0  0  0  0  0  0  0  0  0  0  0  0
  -21.5640   -6.2780   22.6390 C   0  0  0  0  0  0  0  0  0  0  0  0
  -21.1700   -6.8360   23.8740 C   0  0  0  0  0  3  0  0  0  0  0  0
  -21.0750   -6.0200   25.0180 C   0  0  0  0  0  3  0  0  0  0  0  0
  -21.3630   -4.6430   24.9280 C   0  0  0  0  0  0  0  0  0  0  0  0
  -21.7510   -4.0860   23.6970 C   0  0  0  0  0  3  0  0  0  0  0  0
  -21.8470   -4.9000   22.5550 C   0  0  0  0  0  0  0  0  0  0  0  0
  -22.1990   -4.3520   21.3670 F   0  0  0  0  0  0  0  0  0  0  0  0
  -21.2670   -3.8550   26.0230 F   0  0  0  0  0  0  0  0  0  0  0  0
  -22.7620  -13.6480   21.1120 C   0  0  0  0  0  0  0  0  0  0  0  0
  -22.0290  -12.9630   21.9830 N   0  0  0  0  0  0  0  0  0  0  0  0
  -22.3330  -14.6730   20.5850 O   0  0  0  0  0  0  0  0  0  0  0  0
  -22.3850  -12.1290   22.4250 H   0  0  0  0  0  0  0  0  0  0  0  0
  -21.0950  -13.2740   22.2070 H   0  0  0  0  0  0  0  0  0  0  0  0
  -25.4120  -15.2790   20.2790 N   0  0  0  0  0  0  0  0  0  0  0  0
  -24.6580  -15.9500   20.3770 H   0  0  0  0  0  0  0  0  0  0  0  0
  -26.2770  -15.7050   19.9690 H   0  0  0  0  0  0  0  0  0  0  0  0
  -28.6550  -25.8530   18.9050 C   0  0  0  0  0  2  0  0  0  0  0  0
  -28.3740  -26.6610   20.0730 O   0  0  0  0  0  0  0  0  0  0  0  0
  -24.5800  -31.8740   23.2240 C   0  0  0  0  0  0  0  0  0  0  0  0
  -27.2010  -27.4020   20.0980 C   0  0  0  0  0  0  0  0  0  0  0  0
  -23.3660  -30.4730   21.5910 C   0  0  0  0  0  3  0  0  0  0  0  0
  -24.8070  -28.9310   20.1570 C   0  0  0  0  0  0  0  0  0  0  0  0
  -25.8990  -30.8100   21.3920 C   0  0  0  0  0  2  0  0  0  0  0  0
  -25.9730  -29.4400   20.7410 C   0  0  0  0  0  0  0  0  0  0  0  0
  -27.1690  -28.6800   20.7160 C   0  0  0  0  0  3  0  0  0  0  0  0
  -26.0000  -26.9010   19.5440 C   0  0  0  0  0  3  0  0  0  0  0  0
  -24.8150  -27.6600   19.5610 C   0  0  0  0  0  3  0  0  0  0  0  0
  -23.5650  -29.7930   20.2120 C   0  0  0  0  0  2  0  0  0  0  0  0
  -24.6340  -31.0680   22.1250 N   0  0  0  0  0  0  0  0  0  0  0  0
  -23.4990  -32.1530   23.7630 O   0  0  0  0  0  0  0  0  0  0  0  0
  -22.7140  -29.4540   22.5530 C   0  0  0  0  0  0  0  0  0  0  0  0
  -21.3890  -29.2730   22.4250 N   0  0  0  0  0  0  0  0  0  0  0  0
  -23.3950  -28.8310   23.3710 O   0  0  0  0  0  0  0  0  0  0  0  0
  -20.9000  -29.8280   21.7370 H   0  0  0  0  0  0  0  0  0  0  0  0
  -18.0120  -28.0810   22.9250 C   0  0  0  0  0  0  0  0  0  0  0  0
  -20.5710  -28.3380   23.1970 C   0  0  0  0  0  3  0  0  0  0  0  0
  -20.6700  -26.9060   22.6200 C   0  0  0  0  0  2  0  0  0  0  0  0
  -19.5680  -26.5820   21.6070 C   0  0  0  0  0  2  0  0  0  0  0  0
  -18.1860  -26.7320   22.2490 C   0  0  0  0  0  2  0  0  0  0  0  0
  -19.1310  -28.8440   23.3530 C   0  0  0  0  0  0  0  0  0  0  0  0
  -18.9110  -30.1100   23.9370 C   0  0  0  0  0  3  0  0  0  0  0  0
  -17.6070  -30.6120   24.1030 C   0  0  0  0  0  3  0  0  0  0  0  0
  -16.5020  -29.8440   23.6930 C   0  0  0  0  0  3  0  0  0  0  0  0
  -16.7060  -28.5800   23.1090 C   0  0  0  0  0  3  0  0  0  0  0  0
  -25.8680  -32.5020   23.8430 C   0  0  0  0  0  3  0  0  0  0  0  0
  -25.5650  -33.9000   24.1750 N   0  0  0  0  0  0  0  0  0  0  0  0
  -25.8960  -34.9520   23.4150 C   0  0  0  0  0  0  0  0  0  0  0  0
  -26.5600  -34.8490   22.3800 O   0  0  0  0  0  0  0  0  0  0  0  0
  -24.9800  -34.0550   24.9820 H   0  0  0  0  0  0  0  0  0  0  0  0
  -24.1680  -36.7450   23.0660 C   0  0  0  0  0  1  0  0  0  0  0  0
  -25.4120  -36.3410   23.8750 C   0  0  0  0  0  3  0  0  0  0  0  0
  -27.5480  -37.2200   24.7040 C   0  0  0  0  0  1  0  0  0  0  0  0
  -26.4470  -37.3900   23.7610 N   0  0  0  0  0  0  0  0  0  0  0  0
  -26.0430  -38.3110   23.9050 H   0  0  0  0  0  0  0  0  0  0  0  0
  -26.3900  -31.7270   25.1150 C   0  0  1  0  0  0  0  0  0  0  0  0
  -25.2980  -31.4860   26.1840 C   0  0  0  0  0  1  0  0  0  0  0  0
  -26.9740  -30.3520   24.7180 C   0  0  0  0  0  1  0  0  0  0  0  0
  -27.5450  -32.5200   25.7750 C   0  0  0  0  0  1  0  0  0  0  0  0
  1  5  1  0
  3  1  2  0
  3  6  1  0
  4  2  1  0
  5  2  2  0
  6  4  2  0
  7  5  1  0
  7  8  1  0
  8  9  1  0
  8 10  1  0
 11  8  1  0
 11 12  1  0
 12 13  1  0
 14 13  1  0
 15 20  1  0
 16 17  1  0
 16 15  1  0
 18 17  1  0
 18 25  1  0
 18 19  1  0
 20 14  1  0
 20 19  1  0
 21 14  2  0
 22 23  2  0
 23 42  1  0
 24 23  1  0
 24 27  1  0
 25 22  1  0
 25 26  1  0
 26 24  2  0
 27 28  1  0
 28 29  2  0
 30 33  1  0
 30 29  1  0
 31 30  2  0
 32 31  1  0
 32 27  2  0
 33 34  1  0
 34 35  1  0
 35 36  2  0
 37 36  1  0
 37 41  1  0
 38 37  2  0
 39 34  2  0
 39 38  1  0
 40 39  1  0
 42 43  1  0
 43 46  1  0
 43 45  1  0
 44 42  2  0
 47 48  1  0
 47 22  1  0
 49 47  1  0
 50  6  1  0
 50 51  1  0
 51 53  1  0
 52 63  2  0
 53 58  1  0
 54 62  1  0
 54 64  1  0
 55 61  1  0
 55 57  1  0
 56 62  1  0
 57 56  1  0
 58 57  2  0
 59 60  1  0
 59 53  2  0
 60 55  2  0
 61 54  1  0
 62 52  1  0
 64 66  2  0
 65 64  1  0
 67 65  1  0
 68 77  2  0
 68 73  1  0
 69 65  1  0
 69 73  1  0
 70 69  1  0
 71 72  1  0
 71 70  1  0
 72 68  1  0
 73 74  2  0
 74 75  1  0
 76 75  2  0
 77 76  1  0
 78 52  1  0
 78 79  1  0
 78 88  1  0
 79 82  1  0
 80 84  1  0
 80 79  1  0
 81 80  2  0
 84 83  1  0
 86 84  1  0
 86 87  1  0
 86 85  1  0
 88 91  1  1
 88 89  1  0
 90 88  1  0
M  ISO  4  13 100  14 100  50 101  51 101
M  END
>  <TORSDO>  (48) 
F 22

>  <SCORE>  (48) 
-13.006

>  <name>  (48) 
48

>  <ligand_id>  (48) 
48

>  <original_smiles>  (48) 
[H]c1c([H])c([H])c2c(c1[H])C([H])([H])C([H])([H])C([H])([H])C2([H])N([H])C(=O)C1([H])N(C(=O)C([H])(N([H])C(=O)C([H])(N([H])C([H])([H])[H])C([H])([H])[H])C(C([H])([H])[H])(C([H])([H])[H])C([H])([H])[H])C([H])([H])c2c([H])c(OC([H])([H])c3c([H])c([H])c(C([H])([H])[N+]([H])([H])C([H])([H])C([H])([H])C([H])([H])C(=O)N4C([H])([H])C([H])([H])C([H])([H])C([H])(n5nc(-c6c([H])c([H])c(Oc7c([H])c([H])c(F)c([H])c7F)c([H])c6[H])c(C(=O)N([H])[H])c5N([H])[H])C4([H])[H])c([H])c3[H])c([H])c([H])c2C1([H])[H]

>  <smiles>  (48) 
[H]c1c([H])c([H])c2c(c1[H])C([H])([H])C([H])([H])C([H])([H])C2([H])N([H])C(=O)C1([H])N(C(=O)C([H])(N([H])C(=O)C([H])(N([H])C([H])([H])[H])C([H])([H])[H])C(C([H])([H])[H])(C([H])([H])[H])C([H])([H])[H])C([H])([H])c2c([H])c(OC([H])([H])c3c([H])c([H])c(C([H])([H])[N+]([H])([H])C([H])([H])C([H])([H])C([H])([H])C(=O)N4C([H])([H])C([H])([H])C([H])([H])C([H])(n5nc(-c6c([H])c([H])c(Oc7c([H])c([H])c(F)c([H])c7F)c([H])c6[H])c(C(=O)N([H])[H])c5N([H])[H])C4([H])[H])c([H])c3[H])c([H])c([H])c2C1([H])[H]

$$$$
49:0:0
     RDKit          3D

 94102  0  0  1  0  0  0  0  0999 V2000
  -29.1670  -20.8590   19.5080 C   0  0  0  0  0  3  0  0  0  0  0  0
  -26.9200  -19.9950   19.1200 C   0  0  0  0  0  3  0  0  0  0  0  0
  -28.7120  -22.1600   19.2370 C   0  0  0  0  0  3  0  0  0  0  0  0
  -26.4610  -21.3050   18.8750 C   0  0  0  0  0  3  0  0  0  0  0  0
  -28.2700  -19.7700   19.4690 C   0  0  0  0  0  0  0  0  0  0  0  0
  -27.3460  -22.3950   18.9830 C   0  0  0  0  0  0  0  0  0  0  0  0
  -26.8670  -23.7060   18.8900 N   0  0  0  0  0  0  0  0  0  0  0  0
  -25.9570  -23.7590   18.4390 H   0  0  0  0  0  0  0  0  0  0  0  0
  -26.8330  -24.3990   20.1830 C   0  0  0  0  0  2  0  0  0  0  0  0
  -28.1980  -24.8930   20.7140 C   0  0  0  0  0  2  0  0  0  0  0  0
  -29.0270  -25.7810   19.7580 C   0  0  0  0  0  2  0  0  0  0  0  0
  -28.9100  -27.1660   20.0710 O   0  0  0  0  0  0  0  0  0  0  0  0
  -24.6100  -31.7580   23.3170 C   0  0  0  0  0  0  0  0  0  0  0  0
  -27.6730  -27.7690   20.0330 C   0  0  0  0  0  0  0  0  0  0  0  0
  -23.5730  -30.4490   21.4920 C   0  0  0  0  0  3  0  0  0  0  0  0
  -25.1870  -29.1070   20.0380 C   0  0  0  0  0  0  0  0  0  0  0  0
  -26.0810  -30.9520   21.4770 C   0  0  0  0  0  2  0  0  0  0  0  0
  -26.2760  -29.6480   20.7350 C   0  0  0  0  0  0  0  0  0  0  0  0
  -27.5190  -28.9830   20.7310 C   0  0  0  0  0  3  0  0  0  0  0  0
  -26.5730  -27.2450   19.3160 C   0  0  0  0  0  3  0  0  0  0  0  0
  -25.3280  -27.9010   19.3290 C   0  0  0  0  0  3  0  0  0  0  0  0
  -23.8970  -29.8910   20.0790 C   0  0  0  0  0  2  0  0  0  0  0  0
  -24.7700  -31.0610   22.1570 N   0  0  0  0  0  0  0  0  0  0  0  0
  -23.4870  -31.9300   23.8110 O   0  0  0  0  0  0  0  0  0  0  0  0
  -22.9230  -29.3220   22.3250 C   0  0  0  0  0  0  0  0  0  0  0  0
  -21.6090  -29.1240   22.1400 N   0  0  0  0  0  0  0  0  0  0  0  0
  -23.6000  -28.6290   23.0900 O   0  0  0  0  0  0  0  0  0  0  0  0
  -21.1250  -29.7210   21.4840 H   0  0  0  0  0  0  0  0  0  0  0  0
  -18.2440  -27.8690   22.5030 C   0  0  0  0  0  0  0  0  0  0  0  0
  -20.8020  -28.0950   22.7900 C   0  0  0  0  0  3  0  0  0  0  0  0
  -20.9080  -26.7530   22.0340 C   0  0  0  0  0  2  0  0  0  0  0  0
  -19.7940  -26.5520   20.9990 C   0  0  0  0  0  2  0  0  0  0  0  0
  -18.4200  -26.6130   21.6680 C   0  0  0  0  0  2  0  0  0  0  0  0
  -19.3620  -28.5720   23.0220 C   0  0  0  0  0  0  0  0  0  0  0  0
  -19.1440  -29.7470   23.7710 C   0  0  0  0  0  3  0  0  0  0  0  0
  -17.8390  -30.2190   24.0060 C   0  0  0  0  0  3  0  0  0  0  0  0
  -16.7350  -29.5130   23.4990 C   0  0  0  0  0  3  0  0  0  0  0  0
  -16.9370  -28.3430   22.7470 C   0  0  0  0  0  3  0  0  0  0  0  0
  -25.8250  -32.3970   24.0610 C   0  0  0  0  0  3  0  0  0  0  0  0
  -25.4810  -33.7970   24.3400 N   0  0  0  0  0  0  0  0  0  0  0  0
  -25.8810  -34.8380   23.6000 C   0  0  0  0  0  0  0  0  0  0  0  0
  -26.6460  -34.7230   22.6360 O   0  0  0  0  0  0  0  0  0  0  0  0
  -24.8160  -33.9600   25.0810 H   0  0  0  0  0  0  0  0  0  0  0  0
  -24.1810  -36.6130   23.0630 C   0  0  0  0  0  1  0  0  0  0  0  0
  -25.3480  -36.2300   23.9870 C   0  0  0  0  0  3  0  0  0  0  0  0
  -27.3910  -37.1500   24.9910 C   0  0  0  0  0  1  0  0  0  0  0  0
  -26.3790  -37.2870   23.9460 N   0  0  0  0  0  0  0  0  0  0  0  0
  -25.9570  -38.2080   24.0300 H   0  0  0  0  0  0  0  0  0  0  0  0
  -26.2060  -31.6400   25.3910 C   0  0  1  0  0  0  0  0  0  0  0  0
  -25.0080  -31.3960   26.3380 C   0  0  0  0  0  1  0  0  0  0  0  0
  -26.8330  -30.2650   25.0710 C   0  0  0  0  0  1  0  0  0  0  0  0
  -27.2730  -32.4460   26.1690 C   0  0  0  0  0  1  0  0  0  0  0  0
  -28.7610  -18.3720   19.8190 C   0  0  0  0  0  2  0  0  0  0  0  0
  -29.5610  -17.4320   17.6540 C   0  0  0  0  0  1  0  0  0  0  0  0
  -29.9230  -17.9860   18.9820 N   0  0  2  0  0  4  0  0  0  0  0  0
  -30.3690  -18.8660   18.7710 H   0  0  0  0  0  0  0  0  0  0  0  0
  -30.9650  -17.2150   19.7120 C   0  0  0  0  0  2  0  0  0  0  0  0
  -30.4330  -15.9490   20.4440 C   0  0  0  0  0  2  0  0  0  0  0  0
  -31.1020  -14.6570   19.9450 C   0  0  0  0  0  0  0  0  0  0  0  0
  -30.7640  -12.4020   19.0200 C   0  0  0  0  0  2  0  0  0  0  0  0
  -29.7970  -12.4940   17.8230 C   0  0  0  0  0  2  0  0  0  0  0  0
  -28.3360  -12.3980   18.3060 C   0  0  0  0  0  2  0  0  0  0  0  0
  -28.0210  -13.3730   19.4710 C   0  0  0  0  0  3  0  0  0  0  0  0
  -29.1010  -13.2720   20.5720 C   0  0  0  0  0  2  0  0  0  0  0  0
  -30.4140  -13.4870   19.9490 N   0  0  0  0  0  0  0  0  0  0  0  0
  -32.2230  -14.7580   19.4420 O   0  0  0  0  0  0  0  0  0  0  0  0
  -25.6860  -14.0900   20.2910 C   0  0  0  0  0  0  0  0  0  0  0  0
  -24.5980  -13.3610   20.6910 C   0  0  0  0  0  0  0  0  0  0  0  0
  -24.9910  -11.9930   20.6150 C   0  0  0  0  0  0  0  0  0  0  0  0
  -26.6760  -13.1630   20.0000 N   0  0  0  0  0  0  0  0  0  0  0  0
  -26.2620  -11.8950   20.2520 N   0  0  0  0  0  0  0  0  0  0  0  0
  -24.2150  -10.7620   20.8120 C   0  0  0  0  0  0  0  0  0  0  0  0
  -24.6110   -9.7840   21.7470 C   0  0  0  0  0  3  0  0  0  0  0  0
  -23.8430   -8.6150   21.9310 C   0  0  0  0  0  3  0  0  0  0  0  0
  -22.6630   -8.4170   21.1760 C   0  0  0  0  0  0  0  0  0  0  0  0
  -22.2850   -9.3840   20.2280 C   0  0  0  0  0  3  0  0  0  0  0  0
  -23.0550  -10.5450   20.0430 C   0  0  0  0  0  3  0  0  0  0  0  0
  -21.8660   -7.3010   21.2670 O   0  0  0  0  0  0  0  0  0  0  0  0
  -21.7560   -6.5870   22.4320 C   0  0  0  0  0  0  0  0  0  0  0  0
  -21.2860   -7.1770   23.6270 C   0  0  0  0  0  3  0  0  0  0  0  0
  -21.1240   -6.3880   24.7840 C   0  0  0  0  0  3  0  0  0  0  0  0
  -21.4210   -5.0130   24.7460 C   0  0  0  0  0  0  0  0  0  0  0  0
  -21.8820   -4.4240   23.5550 C   0  0  0  0  0  3  0  0  0  0  0  0
  -22.0470   -5.2090   22.4020 C   0  0  0  0  0  0  0  0  0  0  0  0
  -22.4720   -4.6320   21.2520 F   0  0  0  0  0  0  0  0  0  0  0  0
  -21.2550   -4.2560   25.8550 F   0  0  0  0  0  0  0  0  0  0  0  0
  -23.2400  -13.9050   21.0330 C   0  0  0  0  0  0  0  0  0  0  0  0
  -22.5110  -13.2240   21.9130 N   0  0  0  0  0  0  0  0  0  0  0  0
  -22.8350  -14.9630   20.5560 O   0  0  0  0  0  0  0  0  0  0  0  0
  -22.8490  -12.3670   22.3180 H   0  0  0  0  0  0  0  0  0  0  0  0
  -21.6050  -13.5750   22.1930 H   0  0  0  0  0  0  0  0  0  0  0  0
  -25.8990  -15.4540   20.1340 N   0  0  0  0  0  0  0  0  0  0  0  0
  -25.1340  -16.1120   20.2520 H   0  0  0  0  0  0  0  0  0  0  0  0
  -26.7040  -15.8570   19.6780 H   0  0  0  0  0  0  0  0  0  0  0  0
  2  5  2  0
  3  1  2  0
  4  6  2  0
  4  2  1  0
  5  1  1  0
  5 53  1  0
  6  3  1  0
  7  6  1  0
  7  9  1  0
  8  7  1  0
  9 10  1  0
 11 12  1  0
 11 10  1  0
 13 24  2  0
 14 12  1  0
 14 19  1  0
 15 23  1  0
 15 25  1  0
 16 22  1  0
 16 18  1  0
 17 23  1  0
 18 17  1  0
 19 18  2  0
 20 21  1  0
 20 14  2  0
 21 16  2  0
 22 15  1  0
 23 13  1  0
 25 27  2  0
 26 25  1  0
 28 26  1  0
 29 38  2  0
 29 34  1  0
 30 26  1  0
 30 34  1  0
 31 30  1  0
 32 33  1  0
 32 31  1  0
 33 29  1  0
 34 35  2  0
 35 36  1  0
 37 36  2  0
 38 37  1  0
 39 13  1  0
 39 40  1  0
 39 49  1  0
 40 43  1  0
 41 45  1  0
 41 40  1  0
 42 41  2  0
 45 44  1  0
 47 45  1  0
 47 48  1  0
 47 46  1  0
 49 52  1  1
 49 50  1  0
 51 49  1  0
 54 55  1  0
 55 57  1  0
 55 53  1  0
 55 56  1  6
 57 58  1  0
 59 65  1  0
 59 58  1  0
 60 65  1  0
 61 62  1  0
 61 60  1  0
 63 62  1  0
 63 70  1  0
 63 64  1  0
 65 64  1  0
 66 59  2  0
 67 68  2  0
 68 87  1  0
 69 68  1  0
 69 72  1  0
 70 71  1  0
 70 67  1  0
 71 69  2  0
 72 73  1  0
 73 74  2  0
 75 78  1  0
 75 74  1  0
 76 75  2  0
 77 76  1  0
 77 72  2  0
 78 79  1  0
 79 80  1  0
 80 81  2  0
 82 81  1  0
 82 86  1  0
 83 82  2  0
 84 79  2  0
 84 83  1  0
 85 84  1  0
 87 88  1  0
 88 91  1  0
 88 90  1  0
 89 87  2  0
 92 93  1  0
 92 67  1  0
 94 92  1  0
M  ISO  4  11 101  12 101  58 100  59 100
M  END
>  <TORSDO>  (49) 
F 24

>  <SCORE>  (49) 
-11.407

>  <name>  (49) 
49

>  <ligand_id>  (49) 
49

>  <original_smiles>  (49) 
[H]c1c([H])c([H])c2c(c1[H])C([H])([H])C([H])([H])C([H])([H])C2([H])N([H])C(=O)C1([H])N(C(=O)C([H])(N([H])C(=O)C([H])(N([H])C([H])([H])[H])C([H])([H])[H])C(C([H])([H])[H])(C([H])([H])[H])C([H])([H])[H])C([H])([H])c2c([H])c(OC([H])([H])C([H])([H])C([H])([H])N([H])c3c([H])c([H])c(C([H])([H])[N+]([H])(C([H])([H])[H])C([H])([H])C([H])([H])C(=O)N4C([H])([H])C([H])([H])C([H])([H])C([H])(n5nc(-c6c([H])c([H])c(Oc7c([H])c([H])c(F)c([H])c7F)c([H])c6[H])c(C(=O)N([H])[H])c5N([H])[H])C4([H])[H])c([H])c3[H])c([H])c([H])c2C1([H])[H]

>  <smiles>  (49) 
[H]c1c([H])c([H])c2c(c1[H])C([H])([H])C([H])([H])C([H])([H])C2([H])N([H])C(=O)C1([H])N(C(=O)C([H])(N([H])C(=O)C([H])(N([H])C([H])([H])[H])C([H])([H])[H])C(C([H])([H])[H])(C([H])([H])[H])C([H])([H])[H])C([H])([H])c2c([H])c(OC([H])([H])C([H])([H])C([H])([H])N([H])c3c([H])c([H])c(C([H])([H])[N+]([H])(C([H])([H])[H])C([H])([H])C([H])([H])C(=O)N4C([H])([H])C([H])([H])C([H])([H])C([H])(n5nc(-c6c([H])c([H])c(Oc7c([H])c([H])c(F)c([H])c7F)c([H])c6[H])c(C(=O)N([H])[H])c5N([H])[H])C4([H])[H])c([H])c3[H])c([H])c([H])c2C1([H])[H]

$$$$
50:0:0
     RDKit          3D

 94101  0  0  1  0  0  0  0  0999 V2000
  -27.3840  -20.1030   19.7250 C   0  0  0  0  0  1  0  0  0  0  0  0
  -28.8200  -20.6440   19.8810 C   0  0  0  0  0  3  0  0  0  0  0  0
  -28.8340  -22.0730   20.3070 N   0  0  0  0  0  4  0  0  0  0  0  0
  -28.2180  -22.1770   21.0960 H   0  0  0  0  0  0  0  0  0  0  0  0
  -29.7660  -22.2920   20.6210 H   0  0  0  0  0  0  0  0  0  0  0  0
  -28.4650  -23.0590   19.2500 C   0  0  0  0  0  2  0  0  0  0  0  0
  -28.2040  -24.5040   19.7570 C   0  0  0  0  0  2  0  0  0  0  0  0
  -28.0370  -25.5110   18.5890 C   0  0  0  0  0  2  0  0  0  0  0  0
  -27.9520  -26.8760   19.0210 O   0  0  0  0  0  0  0  0  0  0  0  0
  -24.3240  -31.6370   22.8450 C   0  0  0  0  0  0  0  0  0  0  0  0
  -26.7360  -27.5170   19.1760 C   0  0  0  0  0  0  0  0  0  0  0  0
  -22.9940  -30.3470   21.2110 C   0  0  0  0  0  3  0  0  0  0  0  0
  -24.3270  -28.9700   19.5290 C   0  0  0  0  0  0  0  0  0  0  0  0
  -25.4850  -30.7830   20.8090 C   0  0  0  0  0  2  0  0  0  0  0  0
  -25.5260  -29.4710   20.0480 C   0  0  0  0  0  0  0  0  0  0  0  0
  -26.7300  -28.7550   19.8620 C   0  0  0  0  0  3  0  0  0  0  0  0
  -25.5110  -27.0180   18.6780 C   0  0  0  0  0  3  0  0  0  0  0  0
  -24.3150  -27.7460   18.8390 C   0  0  0  0  0  3  0  0  0  0  0  0
  -23.0820  -29.7950   19.7630 C   0  0  0  0  0  2  0  0  0  0  0  0
  -24.2920  -30.9320   21.6790 N   0  0  0  0  0  0  0  0  0  0  0  0
  -23.2940  -31.8340   23.5070 O   0  0  0  0  0  0  0  0  0  0  0  0
  -22.4520  -29.2320   22.1370 C   0  0  0  0  0  0  0  0  0  0  0  0
  -21.1230  -29.0430   22.1330 N   0  0  0  0  0  0  0  0  0  0  0  0
  -23.2210  -28.5450   22.8160 O   0  0  0  0  0  0  0  0  0  0  0  0
  -20.5630  -29.6510   21.5510 H   0  0  0  0  0  0  0  0  0  0  0  0
  -17.8220  -27.7660   22.8710 C   0  0  0  0  0  0  0  0  0  0  0  0
  -20.3940  -28.0310   22.8960 C   0  0  0  0  0  3  0  0  0  0  0  0
  -20.4410  -26.6580   22.1870 C   0  0  0  0  0  2  0  0  0  0  0  0
  -19.2400  -26.4130   21.2680 C   0  0  0  0  0  2  0  0  0  0  0  0
  -17.9320  -26.4840   22.0620 C   0  0  0  0  0  2  0  0  0  0  0  0
  -18.9780  -28.5000   23.2510 C   0  0  0  0  0  0  0  0  0  0  0  0
  -18.8170  -29.7010   23.9720 C   0  0  0  0  0  3  0  0  0  0  0  0
  -17.5350  -30.1740   24.3100 C   0  0  0  0  0  3  0  0  0  0  0  0
  -16.3950  -29.4330   23.9450 C   0  0  0  0  0  3  0  0  0  0  0  0
  -16.5410  -28.2310   23.2320 C   0  0  0  0  0  3  0  0  0  0  0  0
  -25.6530  -32.2430   23.3950 C   0  0  0  0  0  3  0  0  0  0  0  0
  -26.3260  -31.3530   24.5100 C   0  0  1  0  0  0  0  0  0  0  0  0
  -25.3640  -30.9630   25.6580 C   0  0  0  0  0  1  0  0  0  0  0  0
  -26.8880  -30.0480   23.9010 C   0  0  0  0  0  1  0  0  0  0  0  0
  -27.5310  -32.1060   25.1260 C   0  0  0  0  0  1  0  0  0  0  0  0
  -25.3460  -33.5830   23.9150 N   0  0  0  0  0  0  0  0  0  0  0  0
  -25.5900  -34.7250   23.2580 C   0  0  0  0  0  0  0  0  0  0  0  0
  -26.1750  -34.7620   22.1700 O   0  0  0  0  0  0  0  0  0  0  0  0
  -24.8090  -33.6220   24.7690 H   0  0  0  0  0  0  0  0  0  0  0  0
  -23.8150  -36.5040   23.2360 C   0  0  0  0  0  1  0  0  0  0  0  0
  -25.1150  -36.0380   23.9100 C   0  0  0  0  0  3  0  0  0  0  0  0
  -27.2880  -36.8670   24.6990 C   0  0  0  0  0  1  0  0  0  0  0  0
  -26.1240  -37.1190   23.8530 N   0  0  0  0  0  0  0  0  0  0  0  0
  -25.7160  -38.0100   24.1310 H   0  0  0  0  0  0  0  0  0  0  0  0
  -28.9710  -19.3770   22.1460 C   0  0  0  0  0  1  0  0  0  0  0  0
  -29.6740  -19.7160   20.8140 C   0  0  0  0  0  3  0  0  0  0  0  0
  -30.0270  -18.5070   20.0550 N   0  0  0  0  0  0  0  0  0  0  0  0
  -30.6350  -18.7290   19.2750 H   0  0  0  0  0  0  0  0  0  0  0  0
  -30.4070  -17.2120   20.6640 C   0  0  0  0  0  3  0  0  0  0  0  0
  -29.2290  -16.3440   18.4860 C   0  0  0  0  0  1  0  0  0  0  0  0
  -30.4290  -16.2140   19.4550 C   0  0  0  0  0  3  0  0  0  0  0  0
  -31.0640  -14.7810   19.5900 C   0  0  0  0  0  0  0  0  0  0  0  0
  -30.6570  -12.5040   18.7790 C   0  0  0  0  0  2  0  0  0  0  0  0
  -29.6480  -12.5700   17.6170 C   0  0  0  0  0  2  0  0  0  0  0  0
  -28.2070  -12.4760   18.1560 C   0  0  0  0  0  2  0  0  0  0  0  0
  -27.9290  -13.4130   19.3600 C   0  0  0  0  0  3  0  0  0  0  0  0
  -29.0800  -13.4200   20.3930 C   0  0  0  0  0  2  0  0  0  0  0  0
  -30.3470  -13.6250   19.6840 N   0  0  0  0  0  0  0  0  0  0  0  0
  -32.2570  -14.7390   19.2910 O   0  0  0  0  0  0  0  0  0  0  0  0
  -25.6490  -14.0750   20.3280 C   0  0  0  0  0  0  0  0  0  0  0  0
  -24.5870  -13.3280   20.7520 C   0  0  0  0  0  0  0  0  0  0  0  0
  -24.9880  -11.9630   20.6220 C   0  0  0  0  0  0  0  0  0  0  0  0
  -26.6290  -13.1640   19.9650 N   0  0  0  0  0  0  0  0  0  0  0  0
  -26.2440  -11.8870   20.2030 N   0  0  0  0  0  0  0  0  0  0  0  0
  -24.2310  -10.7220   20.8180 C   0  0  0  0  0  0  0  0  0  0  0  0
  -24.6180   -9.7640   21.7820 C   0  0  0  0  0  3  0  0  0  0  0  0
  -23.8640   -8.5840   21.9590 C   0  0  0  0  0  3  0  0  0  0  0  0
  -22.7090   -8.3550   21.1750 C   0  0  0  0  0  0  0  0  0  0  0  0
  -22.3440   -9.3000   20.1990 C   0  0  0  0  0  3  0  0  0  0  0  0
  -23.1000  -10.4700   20.0190 C   0  0  0  0  0  3  0  0  0  0  0  0
  -21.9290   -7.2290   21.2630 O   0  0  0  0  0  0  0  0  0  0  0  0
  -21.7160   -6.5950   22.4620 C   0  0  0  0  0  0  0  0  0  0  0  0
  -21.1400   -7.2630   23.5650 C   0  0  0  0  0  3  0  0  0  0  0  0
  -20.8810   -6.5550   24.7580 C   0  0  0  0  0  3  0  0  0  0  0  0
  -21.1810   -5.1830   24.8420 C   0  0  0  0  0  0  0  0  0  0  0  0
  -21.7500   -4.5160   23.7410 C   0  0  0  0  0  3  0  0  0  0  0  0
  -22.0150   -5.2220   22.5550 C   0  0  0  0  0  0  0  0  0  0  0  0
  -22.5440   -4.5720   21.4920 F   0  0  0  0  0  0  0  0  0  0  0  0
  -20.9220   -4.5000   25.9830 F   0  0  0  0  0  0  0  0  0  0  0  0
  -23.2380  -13.8430   21.1690 C   0  0  0  0  0  0  0  0  0  0  0  0
  -22.5710  -13.1390   22.0760 N   0  0  0  0  0  0  0  0  0  0  0  0
  -22.7950  -14.9030   20.7300 O   0  0  0  0  0  0  0  0  0  0  0  0
  -22.9410  -12.2720   22.4410 H   0  0  0  0  0  0  0  0  0  0  0  0
  -21.6750  -13.4620   22.4130 H   0  0  0  0  0  0  0  0  0  0  0  0
  -25.8570  -15.4460   20.1980 N   0  0  0  0  0  0  0  0  0  0  0  0
  -25.1480  -16.1310   20.4300 H   0  0  0  0  0  0  0  0  0  0  0  0
  -26.7110  -15.8560   19.8440 H   0  0  0  0  0  0  0  0  0  0  0  0
  -31.8720  -18.2140   22.6070 C   0  0  0  0  0  1  0  0  0  0  0  0
  -31.7920  -17.3200   21.3580 C   0  0  0  0  0  2  0  0  0  0  0  0
  2  1  1  0
  2  3  1  0
  2 51  1  0
  3  5  1  0
  3  4  1  0
  6  7  1  0
  6  3  1  0
  8  9  1  0
  8  7  1  0
  9 11  1  0
 10 21  2  0
 11 16  1  0
 12 20  1  0
 12 22  1  0
 13 19  1  0
 13 15  1  0
 14 20  1  0
 15 14  1  0
 16 15  2  0
 17 18  1  0
 17 11  2  0
 18 13  2  0
 19 12  1  0
 20 10  1  0
 22 24  2  0
 23 22  1  0
 25 23  1  0
 26 35  2  0
 26 31  1  0
 27 23  1  0
 27 31  1  0
 28 27  1  0
 29 30  1  0
 29 28  1  0
 30 26  1  0
 31 32  2  0
 32 33  1  0
 34 33  2  0
 35 34  1  0
 36 10  1  0
 36 41  1  0
 36 37  1  0
 37 40  1  1
 37 38  1  0
 39 37  1  0
 41 44  1  0
 42 46  1  0
 42 41  1  0
 43 42  2  0
 46 45  1  0
 48 46  1  0
 48 49  1  0
 48 47  1  0
 51 50  1  0
 52 54  1  0
 52 51  1  0
 53 52  1  0
 54 94  1  0
 56 55  1  0
 56 57  1  0
 56 54  1  0
 57 63  1  0
 58 63  1  0
 59 60  1  0
 59 58  1  0
 61 60  1  0
 61 68  1  0
 61 62  1  0
 63 62  1  0
 64 57  2  0
 65 66  2  0
 66 85  1  0
 67 66  1  0
 67 70  1  0
 68 69  1  0
 68 65  1  0
 69 67  2  0
 70 71  1  0
 71 72  2  0
 73 76  1  0
 73 72  1  0
 74 73  2  0
 75 74  1  0
 75 70  2  0
 76 77  1  0
 77 82  2  0
 77 78  1  0
 78 79  2  0
 79 80  1  0
 80 84  1  0
 81 80  2  0
 82 81  1  0
 83 82  1  0
 85 86  1  0
 86 89  1  0
 86 88  1  0
 87 85  2  0
 90 65  1  0
 90 91  1  0
 92 90  1  0
 94 93  1  0
M  ISO  4   8 101   9 101  56 100  57 100
M  END
>  <TORSDO>  (50) 
F 25

>  <SCORE>  (50) 
-7.841

>  <name>  (50) 
50

>  <ligand_id>  (50) 
50

>  <original_smiles>  (50) 
[H]c1c([H])c([H])c2c(c1[H])C([H])([H])C([H])([H])C([H])([H])C2([H])N([H])C(=O)C1([H])N(C(=O)C([H])(N([H])C(=O)C([H])(N([H])C([H])([H])[H])C([H])([H])[H])C(C([H])([H])[H])(C([H])([H])[H])C([H])([H])[H])C([H])([H])c2c([H])c(OC([H])([H])C([H])([H])C([H])([H])[N+]([H])([H])C([H])(C([H])([H])[H])C([H])(N([H])C([H])(C([H])([H])C([H])([H])[H])C([H])(C(=O)N3C([H])([H])C([H])([H])C([H])([H])C([H])(n4nc(-c5c([H])c([H])c(Oc6c([H])c([H])c(F)c([H])c6F)c([H])c5[H])c(C(=O)N([H])[H])c4N([H])[H])C3([H])[H])C([H])([H])[H])C([H])([H])[H])c([H])c([H])c2C1([H])[H]

>  <smiles>  (50) 
[H]c1c([H])c([H])c2c(c1[H])C([H])([H])C([H])([H])C([H])([H])C2([H])N([H])C(=O)C1([H])N(C(=O)C([H])(N([H])C(=O)C([H])(N([H])C([H])([H])[H])C([H])([H])[H])C(C([H])([H])[H])(C([H])([H])[H])C([H])([H])[H])C([H])([H])c2c([H])c(OC([H])([H])C([H])([H])C([H])([H])[N+]([H])([H])C([H])(C([H])([H])[H])C([H])(N([H])C([H])(C([H])([H])C([H])([H])[H])C([H])(C(=O)N3C([H])([H])C([H])([H])C([H])([H])C([H])(n4nc(-c5c([H])c([H])c(Oc6c([H])c([H])c(F)c([H])c6F)c([H])c5[H])c(C(=O)N([H])[H])c4N([H])[H])C3([H])[H])C([H])([H])[H])C([H])([H])[H])c([H])c([H])c2C1([H])[H]

$$$$
51:0:0
     RDKit          3D

 94102  0  0  1  0  0  0  0  0999 V2000
  -29.1960  -23.3230   18.6870 C   0  0  0  0  0  3  0  0  0  0  0  0
  -28.3540  -23.6990   20.9390 C   0  0  0  0  0  3  0  0  0  0  0  0
  -29.1330  -21.9340   18.8890 C   0  0  0  0  0  3  0  0  0  0  0  0
  -28.3060  -22.3030   21.1450 C   0  0  0  0  0  3  0  0  0  0  0  0
  -28.7760  -24.2130   19.6910 C   0  0  0  0  0  0  0  0  0  0  0  0
  -28.6720  -21.4000   20.1140 C   0  0  0  0  0  0  0  0  0  0  0  0
  -28.8050  -25.7000   19.3850 C   0  0  0  0  0  2  0  0  0  0  0  0
  -28.3520  -26.5240   20.4440 O   0  0  0  0  0  0  0  0  0  0  0  0
  -24.5590  -31.7200   23.2660 C   0  0  0  0  0  0  0  0  0  0  0  0
  -27.1490  -27.1860   20.3480 C   0  0  0  0  0  0  0  0  0  0  0  0
  -23.3340  -30.3140   21.6340 C   0  0  0  0  0  3  0  0  0  0  0  0
  -24.7660  -28.7120   20.2580 C   0  0  0  0  0  0  0  0  0  0  0  0
  -25.8590  -30.6270   21.4440 C   0  0  0  0  0  2  0  0  0  0  0  0
  -25.9190  -29.2350   20.8580 C   0  0  0  0  0  0  0  0  0  0  0  0
  -27.1000  -28.4770   20.9080 C   0  0  0  0  0  3  0  0  0  0  0  0
  -25.9790  -26.6580   19.7480 C   0  0  0  0  0  3  0  0  0  0  0  0
  -24.7920  -27.4200   19.6970 C   0  0  0  0  0  3  0  0  0  0  0  0
  -23.5330  -29.5900   20.2710 C   0  0  0  0  0  2  0  0  0  0  0  0
  -24.6040  -30.9000   22.1780 N   0  0  0  0  0  0  0  0  0  0  0  0
  -23.4790  -32.0290   23.7900 O   0  0  0  0  0  0  0  0  0  0  0  0
  -22.6500  -29.3310   22.6080 C   0  0  0  0  0  0  0  0  0  0  0  0
  -21.3220  -29.1820   22.4680 N   0  0  0  0  0  0  0  0  0  0  0  0
  -23.3080  -28.7000   23.4400 O   0  0  0  0  0  0  0  0  0  0  0  0
  -20.8560  -29.7390   21.7640 H   0  0  0  0  0  0  0  0  0  0  0  0
  -17.9100  -28.1170   22.9520 C   0  0  0  0  0  0  0  0  0  0  0  0
  -20.4710  -28.2840   23.2450 C   0  0  0  0  0  3  0  0  0  0  0  0
  -20.5240  -26.8410   22.6850 C   0  0  0  0  0  2  0  0  0  0  0  0
  -19.4200  -26.5480   21.6640 C   0  0  0  0  0  2  0  0  0  0  0  0
  -18.0410  -26.7530   22.2960 C   0  0  0  0  0  2  0  0  0  0  0  0
  -19.0510  -28.8430   23.3830 C   0  0  0  0  0  0  0  0  0  0  0  0
  -18.8760  -30.1240   23.9490 C   0  0  0  0  0  3  0  0  0  0  0  0
  -17.5890  -30.6750   24.0980 C   0  0  0  0  0  3  0  0  0  0  0  0
  -16.4610  -29.9450   23.6890 C   0  0  0  0  0  3  0  0  0  0  0  0
  -16.6230  -28.6690   23.1210 C   0  0  0  0  0  3  0  0  0  0  0  0
  -25.8540  -32.3270   23.8910 C   0  0  0  0  0  3  0  0  0  0  0  0
  -25.5670  -33.7280   24.2220 N   0  0  0  0  0  0  0  0  0  0  0  0
  -25.9010  -34.7770   23.4570 C   0  0  0  0  0  0  0  0  0  0  0  0
  -26.5580  -34.6650   22.4190 O   0  0  0  0  0  0  0  0  0  0  0  0
  -24.9840  -33.8900   25.0290 H   0  0  0  0  0  0  0  0  0  0  0  0
  -24.1780  -36.5800   23.1350 C   0  0  0  0  0  1  0  0  0  0  0  0
  -25.4360  -36.1730   23.9170 C   0  0  0  0  0  3  0  0  0  0  0  0
  -27.6010  -37.0400   24.6840 C   0  0  0  0  0  1  0  0  0  0  0  0
  -26.4740  -37.2170   23.7720 N   0  0  0  0  0  0  0  0  0  0  0  0
  -26.0800  -38.1410   23.9330 H   0  0  0  0  0  0  0  0  0  0  0  0
  -26.3560  -31.5440   25.1650 C   0  0  1  0  0  0  0  0  0  0  0  0
  -25.2560  -31.3090   26.2280 C   0  0  0  0  0  1  0  0  0  0  0  0
  -26.9260  -30.1660   24.7550 C   0  0  0  0  0  1  0  0  0  0  0  0
  -27.5070  -32.3260   25.8450 C   0  0  0  0  0  1  0  0  0  0  0  0
  -28.4520  -20.0130   20.2710 N   0  0  0  0  0  0  0  0  0  0  0  0
  -27.1040  -19.7640   19.7430 C   0  0  0  0  0  2  0  0  0  0  0  0
  -26.5920  -18.3510   20.0200 C   0  0  0  0  0  2  0  0  0  0  0  0
  -24.6310  -16.8140   19.5010 C   0  0  0  0  0  1  0  0  0  0  0  0
  -25.0740  -18.2420   19.8050 C   0  0  0  0  0  2  0  0  0  0  0  0
  -29.5630  -19.1200   19.8560 C   0  0  0  0  0  2  0  0  0  0  0  0
  -29.9110  -17.9330   20.8180 C   0  0  0  0  0  3  0  0  0  0  0  0
  -29.8200  -16.4900   20.1970 C   0  0  0  0  0  3  0  0  0  0  0  0
  -31.0390  -14.3220   20.2960 C   0  0  0  0  0  0  0  0  0  0  0  0
  -30.7410  -12.0630   19.3160 C   0  0  0  0  0  2  0  0  0  0  0  0
  -29.7770  -12.1290   18.1160 C   0  0  0  0  0  2  0  0  0  0  0  0
  -28.3190  -11.9800   18.5930 C   0  0  0  0  0  2  0  0  0  0  0  0
  -27.9870  -12.9140   19.7870 C   0  0  0  0  0  3  0  0  0  0  0  0
  -29.0690  -12.8360   20.8880 C   0  0  0  0  0  2  0  0  0  0  0  0
  -30.3670  -13.1320   20.2590 N   0  0  0  0  0  0  0  0  0  0  0  0
  -32.1090  -14.4870   19.6990 O   0  0  0  0  0  0  0  0  0  0  0  0
  -31.0050  -15.6980   22.2760 C   0  0  0  0  0  1  0  0  0  0  0  0
  -30.4470  -15.3590   20.9580 N   0  0  0  0  0  0  0  0  0  0  0  0
  -25.6490  -13.5550   20.6320 C   0  0  0  0  0  0  0  0  0  0  0  0
  -24.5770  -12.8080   21.0290 C   0  0  0  0  0  0  0  0  0  0  0  0
  -24.9880  -11.4440   20.9200 C   0  0  0  0  0  0  0  0  0  0  0  0
  -26.6530  -12.6550   20.3200 N   0  0  0  0  0  0  0  0  0  0  0  0
  -26.2600  -11.3740   20.5480 N   0  0  0  0  0  0  0  0  0  0  0  0
  -24.2280  -10.2000   21.0940 C   0  0  0  0  0  0  0  0  0  0  0  0
  -24.6550   -9.2020   21.9960 C   0  0  0  0  0  3  0  0  0  0  0  0
  -23.9030   -8.0210   22.1630 C   0  0  0  0  0  3  0  0  0  0  0  0
  -22.7090   -7.8300   21.4240 C   0  0  0  0  0  0  0  0  0  0  0  0
  -22.3010   -8.8170   20.5110 C   0  0  0  0  0  3  0  0  0  0  0  0
  -23.0550   -9.9890   20.3420 C   0  0  0  0  0  3  0  0  0  0  0  0
  -21.9300   -6.7010   21.4950 O   0  0  0  0  0  0  0  0  0  0  0  0
  -21.8360   -5.9610   22.6470 C   0  0  0  0  0  0  0  0  0  0  0  0
  -21.4050   -6.5300   23.8650 C   0  0  0  0  0  3  0  0  0  0  0  0
  -21.2560   -5.7190   25.0070 C   0  0  0  0  0  3  0  0  0  0  0  0
  -21.5330   -4.3410   24.9340 C   0  0  0  0  0  0  0  0  0  0  0  0
  -21.9620   -3.7710   23.7220 C   0  0  0  0  0  3  0  0  0  0  0  0
  -22.1100   -4.5800   22.5820 C   0  0  0  0  0  0  0  0  0  0  0  0
  -22.5020   -4.0240   21.4090 F   0  0  0  0  0  0  0  0  0  0  0  0
  -21.3830   -3.5580   26.0280 F   0  0  0  0  0  0  0  0  0  0  0  0
  -23.2130  -13.3190   21.3940 C   0  0  0  0  0  0  0  0  0  0  0  0
  -22.5200  -12.6260   22.2890 N   0  0  0  0  0  0  0  0  0  0  0  0
  -22.7770  -14.3700   20.9230 O   0  0  0  0  0  0  0  0  0  0  0  0
  -22.8940  -11.7810   22.6960 H   0  0  0  0  0  0  0  0  0  0  0  0
  -21.6020  -12.9430   22.5650 H   0  0  0  0  0  0  0  0  0  0  0  0
  -25.8430  -14.9250   20.4850 N   0  0  0  0  0  0  0  0  0  0  0  0
  -25.1010  -15.5880   20.6850 H   0  0  0  0  0  0  0  0  0  0  0  0
  -26.7000  -15.3550   20.1680 H   0  0  0  0  0  0  0  0  0  0  0  0
  1  3  2  0
  1  5  1  0
  2  4  1  0
  3  6  1  0
  5  2  2  0
  6 49  1  0
  6  4  2  0
  7  5  1  0
  7  8  1  0
  9 20  2  0
 10  8  1  0
 10 15  1  0
 11 19  1  0
 11 21  1  0
 12 18  1  0
 12 14  1  0
 13 19  1  0
 14 15  2  0
 14 13  1  0
 16 10  2  0
 17 16  1  0
 17 12  2  0
 18 11  1  0
 19  9  1  0
 21 23  2  0
 22 21  1  0
 24 22  1  0
 25 34  2  0
 25 30  1  0
 26 22  1  0
 26 30  1  0
 27 26  1  0
 28 29  1  0
 28 27  1  0
 29 25  1  0
 30 31  2  0
 31 32  1  0
 33 32  2  0
 34 33  1  0
 35  9  1  0
 35 36  1  0
 35 45  1  0
 36 39  1  0
 37 41  1  0
 37 36  1  0
 38 37  2  0
 41 40  1  0
 43 41  1  0
 43 44  1  0
 43 42  1  0
 45 48  1  1
 45 46  1  0
 47 45  1  0
 50 51  1  0
 50 49  1  0
 52 53  1  0
 53 51  1  0
 54 49  1  0
 54 55  1  0
 56 55  2  0
 56 66  1  0
 57 66  1  0
 58 63  1  0
 59 60  1  0
 59 58  1  0
 61 60  1  0
 61 70  1  0
 61 62  1  0
 63 57  1  0
 63 62  1  0
 64 57  2  0
 66 65  1  0
 67 68  2  0
 68 87  1  0
 69 68  1  0
 69 72  1  0
 70 71  1  0
 70 67  1  0
 71 69  2  0
 72 73  1  0
 73 74  2  0
 75 78  1  0
 75 74  1  0
 76 75  2  0
 77 76  1  0
 77 72  2  0
 78 79  1  0
 79 80  1  0
 80 81  2  0
 82 81  1  0
 82 86  1  0
 83 82  2  0
 84 79  2  0
 84 83  1  0
 85 84  1  0
 87 88  1  0
 88 91  1  0
 88 90  1  0
 89 87  2  0
 92 67  1  0
 92 93  1  0
 94 92  1  0
M  ISO  4   7 101   8 101  57 100  66 100
M  END
>  <TORSDO>  (51) 
F 24

>  <SCORE>  (51) 
-10.082

>  <name>  (51) 
51

>  <ligand_id>  (51) 
51

>  <original_smiles>  (51) 
[H]c1c([H])c([H])c2c(c1[H])C([H])([H])C([H])([H])C([H])([H])C2([H])N([H])C(=O)C1([H])N(C(=O)C([H])(N([H])C(=O)C([H])(N([H])C([H])([H])[H])C([H])([H])[H])C(C([H])([H])[H])(C([H])([H])[H])C([H])([H])[H])C([H])([H])c2c([H])c(OC([H])([H])c3c([H])c([H])c(N(C([H])([H])C([H])([H])C([H])([H])N(C(=O)N4C([H])([H])C([H])([H])C([H])([H])C([H])(n5nc(-c6c([H])c([H])c(Oc7c([H])c([H])c(F)c([H])c7F)c([H])c6[H])c(C(=O)N([H])[H])c5N([H])[H])C4([H])[H])C([H])([H])[H])C([H])([H])C([H])([H])C([H])([H])C([H])([H])[H])c([H])c3[H])c([H])c([H])c2C1([H])[H]

>  <smiles>  (51) 
[H]c1c([H])c([H])c2c(c1[H])C([H])([H])C([H])([H])C([H])([H])C2([H])N([H])C(=O)C1([H])N(C(=O)C([H])(N([H])C(=O)C([H])(N([H])C([H])([H])[H])C([H])([H])[H])C(C([H])([H])[H])(C([H])([H])[H])C([H])([H])[H])C([H])([H])c2c([H])c(OC([H])([H])c3c([H])c([H])c(N(C([H])([H])C([H])([H])C([H])([H])N(C(=O)N4C([H])([H])C([H])([H])C([H])([H])C([H])(n5nc(-c6c([H])c([H])c(Oc7c([H])c([H])c(F)c([H])c7F)c([H])c6[H])c(C(=O)N([H])[H])c5N([H])[H])C4([H])[H])C([H])([H])[H])C([H])([H])C([H])([H])C([H])([H])C([H])([H])[H])c([H])c3[H])c([H])c([H])c2C1([H])[H]

$$$$
52:0:0
     RDKit          3D

 88 96  0  0  1  0  0  0  0  0999 V2000
  -28.9740  -21.2130   20.7350 N   0  0  0  0  0  0  0  0  0  0  0  0
  -29.0190  -21.3600   21.7430 H   0  0  0  0  0  0  0  0  0  0  0  0
  -29.1720  -18.2190   18.3800 C   0  0  0  0  0  3  0  0  0  0  0  0
  -29.0360  -19.4920   18.9630 C   0  0  0  0  0  3  0  0  0  0  0  0
  -29.6900  -18.4060   21.0310 C   0  0  0  0  0  3  0  0  0  0  0  0
  -29.8640  -16.9600   20.4600 C   0  0  0  0  0  0  0  0  0  0  0  0
  -29.5660  -17.0310   19.0550 C   0  0  0  0  0  0  0  0  0  0  0  0
  -29.2550  -19.7340   20.3240 C   0  0  0  0  0  0  0  0  0  0  0  0
  -29.7220  -15.8410   18.1250 C   0  0  0  0  0  1  0  0  0  0  0  0
  -30.5500  -15.4890   21.0250 C   0  0  0  0  0  0  0  0  0  0  0  0
  -30.7170  -12.9430   20.4230 C   0  0  0  0  0  2  0  0  0  0  0  0
  -29.9910  -12.5030   19.1220 C   0  0  0  0  0  2  0  0  0  0  0  0
  -28.4850  -12.2900   19.3560 C   0  0  0  0  0  2  0  0  0  0  0  0
  -27.8670  -13.3210   20.3330 C   0  0  0  0  0  3  0  0  0  0  0  0
  -28.7520  -13.6410   21.5480 C   0  0  0  0  0  2  0  0  0  0  0  0
  -30.0250  -14.1540   21.0120 N   0  0  0  0  0  0  0  0  0  0  0  0
  -31.7850  -15.4620   21.1520 O   0  0  0  0  0  0  0  0  0  0  0  0
  -25.4260  -13.8560   20.7750 C   0  0  0  0  0  0  0  0  0  0  0  0
  -24.3380  -13.0680   21.0280 C   0  0  0  0  0  0  0  0  0  0  0  0
  -24.8270  -11.7280   21.1050 C   0  0  0  0  0  0  0  0  0  0  0  0
  -26.5000  -12.9930   20.6980 N   0  0  0  0  0  0  0  0  0  0  0  0
  -26.1470  -11.7100   20.9680 N   0  0  0  0  0  0  0  0  0  0  0  0
  -24.1030  -10.4560   21.2370 C   0  0  0  0  0  0  0  0  0  0  0  0
  -24.4400   -9.5120   22.2320 C   0  0  0  0  0  3  0  0  0  0  0  0
  -23.7110   -8.3090   22.3530 C   0  0  0  0  0  3  0  0  0  0  0  0
  -22.6300   -8.0440   21.4790 C   0  0  0  0  0  0  0  0  0  0  0  0
  -22.3160   -8.9750   20.4740 C   0  0  0  0  0  3  0  0  0  0  0  0
  -23.0460  -10.1700   20.3520 C   0  0  0  0  0  3  0  0  0  0  0  0
  -21.8820   -6.8910   21.5080 O   0  0  0  0  0  0  0  0  0  0  0  0
  -21.7280   -6.1620   22.6590 C   0  0  0  0  0  0  0  0  0  0  0  0
  -21.1810   -6.7270   23.8310 C   0  0  0  0  0  3  0  0  0  0  0  0
  -20.9770   -5.9220   24.9710 C   0  0  0  0  0  3  0  0  0  0  0  0
  -21.3100   -4.5550   24.9360 C   0  0  0  0  0  0  0  0  0  0  0  0
  -21.8500   -3.9910   23.7670 C   0  0  0  0  0  3  0  0  0  0  0  0
  -22.0560   -4.7910   22.6310 C   0  0  0  0  0  0  0  0  0  0  0  0
  -22.5570   -4.2390   21.5000 F   0  0  0  0  0  0  0  0  0  0  0  0
  -21.1070   -3.7800   26.0270 F   0  0  0  0  0  0  0  0  0  0  0  0
  -22.9110  -13.5280   21.0900 C   0  0  0  0  0  0  0  0  0  0  0  0
  -22.0890  -12.8560   21.8880 N   0  0  0  0  0  0  0  0  0  0  0  0
  -22.5300  -14.5170   20.4650 O   0  0  0  0  0  0  0  0  0  0  0  0
  -22.4130  -12.0540   22.4080 H   0  0  0  0  0  0  0  0  0  0  0  0
  -21.1250  -13.1440   21.9820 H   0  0  0  0  0  0  0  0  0  0  0  0
  -25.5950  -15.2210   20.5700 N   0  0  0  0  0  0  0  0  0  0  0  0
  -24.8140  -15.8690   20.5530 H   0  0  0  0  0  0  0  0  0  0  0  0
  -26.4770  -15.6590   20.3330 H   0  0  0  0  0  0  0  0  0  0  0  0
  -28.7910  -22.6620   19.9430 C   0  0  0  0  0  2  0  0  0  0  0  0
  -27.9610  -24.2220   20.3700 C   0  0  0  0  0  2  0  0  0  0  0  0
  -28.1330  -25.8360   20.0050 O   0  0  0  0  0  0  0  0  0  0  0  0
  -24.6220  -31.8500   23.0480 C   0  0  0  0  0  0  0  0  0  0  0  0
  -27.1120  -26.9300   20.0190 C   0  0  0  0  0  0  0  0  0  0  0  0
  -23.4040  -30.4510   21.4300 C   0  0  0  0  0  3  0  0  0  0  0  0
  -24.8280  -28.8350   19.9970 C   0  0  0  0  0  0  0  0  0  0  0  0
  -25.9710  -30.6420   21.2630 C   0  0  0  0  0  2  0  0  0  0  0  0
  -26.0260  -29.2280   20.6070 C   0  0  0  0  0  0  0  0  0  0  0  0
  -27.1620  -28.2960   20.5940 C   0  0  0  0  0  3  0  0  0  0  0  0
  -25.8850  -26.6920   19.3610 C   0  0  0  0  0  3  0  0  0  0  0  0
  -24.7820  -27.5870   19.3520 C   0  0  0  0  0  3  0  0  0  0  0  0
  -23.6170  -29.7680   20.0520 C   0  0  0  0  0  2  0  0  0  0  0  0
  -24.6880  -31.0080   21.9650 N   0  0  0  0  0  0  0  0  0  0  0  0
  -23.5400  -32.1490   23.5810 O   0  0  0  0  0  0  0  0  0  0  0  0
  -22.7170  -29.4620   22.4070 C   0  0  0  0  0  0  0  0  0  0  0  0
  -21.3820  -29.3160   22.3120 N   0  0  0  0  0  0  0  0  0  0  0  0
  -23.3900  -28.8270   23.2220 O   0  0  0  0  0  0  0  0  0  0  0  0
  -20.8930  -29.8700   21.6250 H   0  0  0  0  0  0  0  0  0  0  0  0
  -17.9980  -28.1600   22.9090 C   0  0  0  0  0  0  0  0  0  0  0  0
  -20.5680  -28.3880   23.1040 C   0  0  0  0  0  3  0  0  0  0  0  0
  -20.6360  -26.9600   22.5170 C   0  0  0  0  0  2  0  0  0  0  0  0
  -19.5020  -26.6570   21.5340 C   0  0  0  0  0  2  0  0  0  0  0  0
  -18.1390  -26.8150   22.2160 C   0  0  0  0  0  2  0  0  0  0  0  0
  -19.1380  -28.9060   23.3120 C   0  0  0  0  0  0  0  0  0  0  0  0
  -18.9530  -30.1610   23.9280 C   0  0  0  0  0  3  0  0  0  0  0  0
  -17.6600  -30.6710   24.1480 C   0  0  0  0  0  3  0  0  0  0  0  0
  -16.5340  -29.9240   23.7590 C   0  0  0  0  0  3  0  0  0  0  0  0
  -16.7020  -28.6730   23.1410 C   0  0  0  0  0  3  0  0  0  0  0  0
  -25.9020  -32.4910   23.6620 C   0  0  0  0  0  3  0  0  0  0  0  0
  -26.4560  -31.6970   24.9090 C   0  0  1  0  0  0  0  0  0  0  0  0
  -25.3880  -31.4300   25.9960 C   0  0  0  0  0  1  0  0  0  0  0  0
  -27.0400  -30.3310   24.4880 C   0  0  0  0  0  1  0  0  0  0  0  0
  -27.6170  -32.4850   25.5580 C   0  0  0  0  0  1  0  0  0  0  0  0
  -25.5790  -33.8760   24.0490 N   0  0  0  0  0  0  0  0  0  0  0  0
  -25.9000  -34.9660   23.3390 C   0  0  0  0  0  0  0  0  0  0  0  0
  -26.5610  -34.9130   22.3000 O   0  0  0  0  0  0  0  0  0  0  0  0
  -24.9900  -33.9940   24.8610 H   0  0  0  0  0  0  0  0  0  0  0  0
  -24.1700  -36.7790   23.0730 C   0  0  0  0  0  1  0  0  0  0  0  0
  -25.4100  -36.3330   23.8640 C   0  0  0  0  0  3  0  0  0  0  0  0
  -27.5400  -37.1860   24.7380 C   0  0  0  0  0  1  0  0  0  0  0  0
  -26.4400  -37.3940   23.8030 N   0  0  0  0  0  0  0  0  0  0  0  0
  -26.0280  -38.3040   23.9940 H   0  0  0  0  0  0  0  0  0  0  0  0
  1  2  1  0
  3  4  2  0
  3  7  1  0
  4  8  1  0
  6 10  1  0
  6  5  1  0
  7  6  2  0
  8  1  1  0
  8  5  2  0
  9  7  1  0
 10 17  2  0
 11 16  1  0
 12 13  1  0
 12 11  1  0
 14 13  1  0
 14 21  1  0
 14 15  1  0
 16 10  1  0
 16 15  1  0
 18 19  2  0
 19 38  1  0
 19 20  1  0
 20 23  1  0
 21 18  1  0
 21 22  1  0
 22 20  2  0
 23 24  1  0
 24 25  2  0
 26 29  1  0
 26 25  1  0
 27 26  2  0
 28 27  1  0
 28 23  2  0
 29 30  1  0
 30 31  1  0
 31 32  2  0
 33 32  1  0
 33 37  1  0
 34 33  2  0
 35 30  2  0
 35 34  1  0
 36 35  1  0
 38 39  1  0
 39 42  1  0
 39 41  1  0
 40 38  2  0
 43 18  1  0
 44 43  1  0
 45 43  1  0
 46 47  1  0
 46  1  1  0
 48 50  1  0
 48 47  1  0
 49 60  2  0
 50 55  1  0
 51 59  1  0
 51 61  1  0
 52 58  1  0
 52 54  1  0
 53 59  1  0
 54 53  1  0
 55 54  2  0
 56 50  2  0
 57 56  1  0
 57 52  2  0
 58 51  1  0
 59 49  1  0
 61 63  2  0
 62 61  1  0
 64 62  1  0
 65 74  2  0
 65 70  1  0
 66 62  1  0
 66 70  1  0
 67 66  1  0
 68 69  1  0
 68 67  1  0
 69 65  1  0
 70 71  2  0
 71 72  1  0
 73 72  2  0
 74 73  1  0
 75 49  1  0
 75 80  1  0
 75 76  1  0
 76 79  1  1
 76 77  1  0
 78 76  1  0
 80 83  1  0
 81 85  1  0
 81 80  1  0
 82 81  2  0
 85 84  1  0
 87 85  1  0
 87 88  1  0
 87 86  1  0
M  ISO  4   6 100  10 100  47 101  48 101
M  END
>  <TORSDO>  (52) 
F 19

>  <SCORE>  (52) 
-14.213

>  <name>  (52) 
52

>  <ligand_id>  (52) 
52

>  <original_smiles>  (52) 
[H]c1c([H])c([H])c2c(c1[H])C([H])([H])C([H])([H])C([H])([H])C2([H])N([H])C(=O)C1([H])N(C(=O)C([H])(N([H])C(=O)C([H])(N([H])C([H])([H])[H])C([H])([H])[H])C(C([H])([H])[H])(C([H])([H])[H])C([H])([H])[H])C([H])([H])c2c([H])c(OC([H])([H])C([H])([H])N([H])c3c([H])c([H])c(C([H])([H])[H])c(C(=O)N4C([H])([H])C([H])([H])C([H])([H])C([H])(n5nc(-c6c([H])c([H])c(Oc7c([H])c([H])c(F)c([H])c7F)c([H])c6[H])c(C(=O)N([H])[H])c5N([H])[H])C4([H])[H])c3[H])c([H])c([H])c2C1([H])[H]

>  <smiles>  (52) 
[H]c1c([H])c([H])c2c(c1[H])C([H])([H])C([H])([H])C([H])([H])C2([H])N([H])C(=O)C1([H])N(C(=O)C([H])(N([H])C(=O)C([H])(N([H])C([H])([H])[H])C([H])([H])[H])C(C([H])([H])[H])(C([H])([H])[H])C([H])([H])[H])C([H])([H])c2c([H])c(OC([H])([H])C([H])([H])N([H])c3c([H])c([H])c(C([H])([H])[H])c(C(=O)N4C([H])([H])C([H])([H])C([H])([H])C([H])(n5nc(-c6c([H])c([H])c(Oc7c([H])c([H])c(F)c([H])c7F)c([H])c6[H])c(C(=O)N([H])[H])c5N([H])[H])C4([H])[H])c3[H])c([H])c([H])c2C1([H])[H]

$$$$
53:0:0
     RDKit          3D

 95103  0  0  1  0  0  0  0  0999 V2000
  -29.1060  -19.4430   19.0310 C   0  0  0  0  0  2  0  0  0  0  0  0
  -30.3750  -19.9450   21.1600 C   0  0  0  0  0  2  0  0  0  0  0  0
  -29.2730  -20.9110   18.5930 C   0  0  0  0  0  2  0  0  0  0  0  0
  -30.5560  -21.4060   20.7060 C   0  0  0  0  0  2  0  0  0  0  0  0
  -30.2470  -18.9820   19.9590 C   0  0  0  0  0  3  0  0  0  0  0  0
  -29.3930  -21.8660   19.8030 C   0  0  0  0  0  3  0  0  0  0  0  0
  -30.9300  -16.7550   20.8710 C   0  0  0  0  0  0  0  0  0  0  0  0
  -30.0040  -17.6050   20.3930 N   0  0  0  0  0  0  0  0  0  0  0  0
  -32.1000  -17.1100   21.0490 O   0  0  0  0  0  0  0  0  0  0  0  0
  -29.0580  -17.2600   20.3010 H   0  0  0  0  0  0  0  0  0  0  0  0
  -31.0850  -14.9040   22.6150 C   0  0  0  0  0  1  0  0  0  0  0  0
  -30.4730  -15.3260   21.2630 C   0  0  0  0  0  3  0  0  0  0  0  0
  -30.8770  -14.3270   20.1360 C   0  0  0  0  0  0  0  0  0  0  0  0
  -30.3800  -12.3150   18.7780 C   0  0  0  0  0  2  0  0  0  0  0  0
  -29.3690  -12.6330   17.6610 C   0  0  0  0  0  2  0  0  0  0  0  0
  -27.9240  -12.5070   18.1790 C   0  0  0  0  0  2  0  0  0  0  0  0
  -27.7030  -13.2670   19.5150 C   0  0  0  0  0  3  0  0  0  0  0  0
  -28.8150  -12.9200   20.5300 C   0  0  0  0  0  2  0  0  0  0  0  0
  -30.1120  -13.2240   19.9040 N   0  0  0  0  0  0  0  0  0  0  0  0
  -31.8960  -14.5390   19.4660 O   0  0  0  0  0  0  0  0  0  0  0  0
  -25.3530  -13.9100   20.3490 C   0  0  0  0  0  0  0  0  0  0  0  0
  -24.2920  -13.1530   20.7680 C   0  0  0  0  0  0  0  0  0  0  0  0
  -24.7270  -11.7940   20.6990 C   0  0  0  0  0  0  0  0  0  0  0  0
  -26.3700  -13.0140   20.0590 N   0  0  0  0  0  0  0  0  0  0  0  0
  -25.9980  -11.7350   20.3220 N   0  0  0  0  0  0  0  0  0  0  0  0
  -23.9880  -10.5430   20.9170 C   0  0  0  0  0  0  0  0  0  0  0  0
  -24.4490   -9.5630   21.8250 C   0  0  0  0  0  3  0  0  0  0  0  0
  -23.7130   -8.3770   22.0310 C   0  0  0  0  0  3  0  0  0  0  0  0
  -22.5040   -8.1600   21.3280 C   0  0  0  0  0  0  0  0  0  0  0  0
  -22.0620   -9.1280   20.4080 C   0  0  0  0  0  3  0  0  0  0  0  0
  -22.7990  -10.3070   20.2020 C   0  0  0  0  0  3  0  0  0  0  0  0
  -21.7370   -7.0270   21.4440 O   0  0  0  0  0  0  0  0  0  0  0  0
  -21.7170   -6.2860   22.5990 C   0  0  0  0  0  0  0  0  0  0  0  0
  -21.3670   -6.8550   23.8430 C   0  0  0  0  0  3  0  0  0  0  0  0
  -21.2920   -6.0420   24.9920 C   0  0  0  0  0  3  0  0  0  0  0  0
  -21.5560   -4.6640   24.8990 C   0  0  0  0  0  0  0  0  0  0  0  0
  -21.8990   -4.0940   23.6600 C   0  0  0  0  0  3  0  0  0  0  0  0
  -21.9760   -4.9030   22.5130 C   0  0  0  0  0  0  0  0  0  0  0  0
  -22.2870   -4.3460   21.3180 F   0  0  0  0  0  0  0  0  0  0  0  0
  -21.4760   -3.8810   26.0010 F   0  0  0  0  0  0  0  0  0  0  0  0
  -22.9200  -13.6520   21.1190 C   0  0  0  0  0  0  0  0  0  0  0  0
  -22.2320  -12.9680   22.0280 N   0  0  0  0  0  0  0  0  0  0  0  0
  -22.4680  -14.6830   20.6240 O   0  0  0  0  0  0  0  0  0  0  0  0
  -22.6110  -12.1330   22.4500 H   0  0  0  0  0  0  0  0  0  0  0  0
  -21.3130  -13.2830   22.3020 H   0  0  0  0  0  0  0  0  0  0  0  0
  -25.5320  -15.2790   20.1720 N   0  0  0  0  0  0  0  0  0  0  0  0
  -24.7760  -15.9420   20.3110 H   0  0  0  0  0  0  0  0  0  0  0  0
  -26.3630  -15.7030   19.7830 H   0  0  0  0  0  0  0  0  0  0  0  0
  -29.5650  -23.2770   19.3740 N   0  0  0  0  0  4  0  0  0  0  0  0
  -30.2200  -23.3100   18.6100 H   0  0  0  0  0  0  0  0  0  0  0  0
  -29.9670  -23.7930   20.1420 H   0  0  0  0  0  0  0  0  0  0  0  0
  -28.3020  -23.9580   18.9940 C   0  0  0  0  0  2  0  0  0  0  0  0
  -28.5010  -25.2520   18.1730 C   0  0  0  0  0  2  0  0  0  0  0  0
  -29.0290  -26.4810   18.9410 C   0  0  0  0  0  2  0  0  0  0  0  0
  -28.3840  -26.7440   20.1850 O   0  0  0  0  0  0  0  0  0  0  0  0
  -24.5790  -31.9140   23.2310 C   0  0  0  0  0  0  0  0  0  0  0  0
  -27.2200  -27.4750   20.1540 C   0  0  0  0  0  0  0  0  0  0  0  0
  -23.3680  -30.5000   21.6030 C   0  0  0  0  0  3  0  0  0  0  0  0
  -24.8170  -28.9570   20.1820 C   0  0  0  0  0  0  0  0  0  0  0  0
  -25.8910  -30.8630   21.3930 C   0  0  0  0  0  2  0  0  0  0  0  0
  -25.9750  -29.4900   20.7630 C   0  0  0  0  0  0  0  0  0  0  0  0
  -27.1780  -28.7500   20.7570 C   0  0  0  0  0  3  0  0  0  0  0  0
  -26.0410  -26.9390   19.5950 C   0  0  0  0  0  3  0  0  0  0  0  0
  -24.8430  -27.6760   19.6010 C   0  0  0  0  0  3  0  0  0  0  0  0
  -23.5720  -29.8120   20.2260 C   0  0  0  0  0  2  0  0  0  0  0  0
  -24.6310  -31.1070   22.1350 N   0  0  0  0  0  0  0  0  0  0  0  0
  -23.5000  -32.1900   23.7740 O   0  0  0  0  0  0  0  0  0  0  0  0
  -22.7210  -29.4830   22.5720 C   0  0  0  0  0  0  0  0  0  0  0  0
  -21.4000  -29.2840   22.4360 N   0  0  0  0  0  0  0  0  0  0  0  0
  -23.4060  -28.8770   23.4000 O   0  0  0  0  0  0  0  0  0  0  0  0
  -20.9080  -29.8270   21.7400 H   0  0  0  0  0  0  0  0  0  0  0  0
  -18.0400  -28.0430   22.9000 C   0  0  0  0  0  0  0  0  0  0  0  0
  -20.5880  -28.3480   23.2130 C   0  0  0  0  0  3  0  0  0  0  0  0
  -20.7230  -26.9080   22.6700 C   0  0  0  0  0  2  0  0  0  0  0  0
  -19.6470  -26.5470   21.6410 C   0  0  0  0  0  2  0  0  0  0  0  0
  -18.2510  -26.6830   22.2570 C   0  0  0  0  0  2  0  0  0  0  0  0
  -19.1390  -28.8320   23.3340 C   0  0  0  0  0  0  0  0  0  0  0  0
  -18.8880  -30.1050   23.8910 C   0  0  0  0  0  3  0  0  0  0  0  0
  -17.5740  -30.5890   24.0220 C   0  0  0  0  0  3  0  0  0  0  0  0
  -16.4900  -29.7970   23.6060 C   0  0  0  0  0  3  0  0  0  0  0  0
  -16.7240  -28.5260   23.0490 C   0  0  0  0  0  3  0  0  0  0  0  0
  -25.8690  -32.5480   23.8410 C   0  0  0  0  0  3  0  0  0  0  0  0
  -25.5560  -33.9410   24.1850 N   0  0  0  0  0  0  0  0  0  0  0  0
  -25.8790  -35.0000   23.4310 C   0  0  0  0  0  0  0  0  0  0  0  0
  -26.5430  -34.9080   22.3950 O   0  0  0  0  0  0  0  0  0  0  0  0
  -24.9680  -34.0870   24.9920 H   0  0  0  0  0  0  0  0  0  0  0  0
  -24.1400  -36.7840   23.0940 C   0  0  0  0  0  1  0  0  0  0  0  0
  -25.3860  -36.3820   23.8990 C   0  0  0  0  0  3  0  0  0  0  0  0
  -27.5200  -37.2690   24.7270 C   0  0  0  0  0  1  0  0  0  0  0  0
  -26.4120  -37.4400   23.7900 N   0  0  0  0  0  0  0  0  0  0  0  0
  -26.0020  -38.3580   23.9470 H   0  0  0  0  0  0  0  0  0  0  0  0
  -26.4080  -31.7700   25.1030 C   0  0  1  0  0  0  0  0  0  0  0  0
  -25.3290  -31.5130   26.1810 C   0  0  0  0  0  1  0  0  0  0  0  0
  -26.9980  -30.4010   24.6880 C   0  0  0  0  0  1  0  0  0  0  0  0
  -27.5590  -32.5680   25.7590 C   0  0  0  0  0  1  0  0  0  0  0  0
  1  5  1  0
  3  1  1  0
  3  6  1  0
  4  2  1  0
  5  8  1  0
  5  2  1  0
  6 49  1  0
  6  4  1  0
  7  9  2  0
  7 12  1  0
  8  7  1  0
 10  8  1  0
 12 11  1  0
 13 12  1  0
 14 19  1  0
 15 16  1  0
 15 14  1  0
 17 16  1  0
 17 24  1  0
 17 18  1  0
 19 13  1  0
 19 18  1  0
 20 13  2  0
 21 22  2  0
 22 41  1  0
 23 22  1  0
 23 26  1  0
 24 25  1  0
 24 21  1  0
 25 23  2  0
 26 27  1  0
 27 28  2  0
 29 32  1  0
 29 28  1  0
 30 29  2  0
 31 30  1  0
 31 26  2  0
 32 33  1  0
 33 34  1  0
 34 35  2  0
 36 35  1  0
 36 40  1  0
 37 36  2  0
 38 33  2  0
 38 37  1  0
 39 38  1  0
 41 42  1  0
 42 45  1  0
 42 44  1  0
 43 41  2  0
 46 47  1  0
 46 21  1  0
 48 46  1  0
 49 51  1  0
 50 49  1  0
 52 49  1  0
 53 54  1  0
 53 52  1  0
 54 55  1  0
 56 67  2  0
 57 55  1  0
 57 62  1  0
 58 66  1  0
 58 68  1  0
 59 65  1  0
 59 61  1  0
 60 66  1  0
 61 60  1  0
 62 61  2  0
 63 64  1  0
 63 57  2  0
 64 59  2  0
 65 58  1  0
 66 56  1  0
 68 70  2  0
 69 68  1  0
 71 69  1  0
 72 81  2  0
 72 77  1  0
 73 69  1  0
 73 77  1  0
 74 73  1  0
 75 76  1  0
 75 74  1  0
 76 72  1  0
 77 78  2  0
 78 79  1  0
 80 79  2  0
 81 80  1  0
 82 56  1  0
 82 83  1  0
 82 92  1  0
 83 86  1  0
 84 88  1  0
 84 83  1  0
 85 84  2  0
 88 87  1  0
 90 88  1  0
 90 91  1  0
 90 89  1  0
 92 95  1  1
 92 93  1  0
 94 92  1  0
M  ISO  4  12 100  13 100  54 101  55 101
M  END
>  <TORSDO>  (53) 
F 22

>  <SCORE>  (53) 
-12.045

>  <name>  (53) 
53

>  <ligand_id>  (53) 
53

>  <original_smiles>  (53) 
[H]c1c([H])c([H])c2c(c1[H])C([H])([H])C([H])([H])C([H])([H])C2([H])N([H])C(=O)C1([H])N(C(=O)C([H])(N([H])C(=O)C([H])(N([H])C([H])([H])[H])C([H])([H])[H])C(C([H])([H])[H])(C([H])([H])[H])C([H])([H])[H])C([H])([H])c2c([H])c(OC([H])([H])C([H])([H])C([H])([H])[N+]([H])([H])C3([H])C([H])([H])C([H])([H])C([H])(N([H])C(=O)C([H])(C(=O)N4C([H])([H])C([H])([H])C([H])([H])C([H])(n5nc(-c6c([H])c([H])c(Oc7c([H])c([H])c(F)c([H])c7F)c([H])c6[H])c(C(=O)N([H])[H])c5N([H])[H])C4([H])[H])C([H])([H])[H])C([H])([H])C3([H])[H])c([H])c([H])c2C1([H])[H]

>  <smiles>  (53) 
[H]c1c([H])c([H])c2c(c1[H])C([H])([H])C([H])([H])C([H])([H])C2([H])N([H])C(=O)C1([H])N(C(=O)C([H])(N([H])C(=O)C([H])(N([H])C([H])([H])[H])C([H])([H])[H])C(C([H])([H])[H])(C([H])([H])[H])C([H])([H])[H])C([H])([H])c2c([H])c(OC([H])([H])C([H])([H])C([H])([H])[N+]([H])([H])C3([H])C([H])([H])C([H])([H])C([H])(N([H])C(=O)C([H])(C(=O)N4C([H])([H])C([H])([H])C([H])([H])C([H])(n5nc(-c6c([H])c([H])c(Oc7c([H])c([H])c(F)c([H])c7F)c([H])c6[H])c(C(=O)N([H])[H])c5N([H])[H])C4([H])[H])C([H])([H])[H])C([H])([H])C3([H])[H])c([H])c([H])c2C1([H])[H]

$$$$
54:0:0
     RDKit          3D

 92 99  0  0  1  0  0  0  0  0999 V2000
  -29.3370  -21.7380   19.9490 C   0  0  0  0  0  3  0  0  0  0  0  0
  -30.0980  -20.4320   19.6520 N   0  0  0  0  0  4  0  0  0  0  0  0
  -30.0760  -20.2820   18.6570 H   0  0  0  0  0  0  0  0  0  0  0  0
  -31.0600  -20.6080   19.8920 H   0  0  0  0  0  0  0  0  0  0  0  0
  -29.7230  -19.1110   20.3220 C   0  0  0  0  0  3  0  0  0  0  0  0
  -30.6890  -17.8460   20.1110 C   0  0  0  0  0  3  0  0  0  0  0  0
  -30.3170  -16.4820   20.8710 C   0  0  0  0  0  2  0  0  0  0  0  0
  -31.1620  -15.1610   20.5990 C   0  0  0  0  0  0  0  0  0  0  0  0
  -31.0930  -12.8060   19.7760 C   0  0  0  0  0  2  0  0  0  0  0  0
  -30.2570  -12.7700   18.4760 C   0  0  0  0  0  2  0  0  0  0  0  0
  -28.7550  -12.6190   18.7910 C   0  0  0  0  0  2  0  0  0  0  0  0
  -28.2770  -13.6070   19.8860 C   0  0  0  0  0  3  0  0  0  0  0  0
  -29.2340  -13.6120   21.0990 C   0  0  0  0  0  2  0  0  0  0  0  0
  -30.5820  -13.9170   20.6050 N   0  0  0  0  0  0  0  0  0  0  0  0
  -32.3460  -15.2850   20.2730 O   0  0  0  0  0  0  0  0  0  0  0  0
  -25.8560  -14.2520   20.4540 C   0  0  0  0  0  0  0  0  0  0  0  0
  -24.7530  -13.4970   20.7510 C   0  0  0  0  0  0  0  0  0  0  0  0
  -25.1920  -12.1370   20.7490 C   0  0  0  0  0  0  0  0  0  0  0  0
  -26.8970  -13.3510   20.2840 N   0  0  0  0  0  0  0  0  0  0  0  0
  -26.4990  -12.0750   20.5240 N   0  0  0  0  0  0  0  0  0  0  0  0
  -24.4320  -10.8880   20.8880 C   0  0  0  0  0  0  0  0  0  0  0  0
  -24.7820   -9.9150   21.8500 C   0  0  0  0  0  3  0  0  0  0  0  0
  -24.0250   -8.7300   21.9770 C   0  0  0  0  0  3  0  0  0  0  0  0
  -22.9060   -8.5100   21.1400 C   0  0  0  0  0  0  0  0  0  0  0  0
  -22.5760   -9.4710   20.1680 C   0  0  0  0  0  3  0  0  0  0  0  0
  -23.3330  -10.6480   20.0400 C   0  0  0  0  0  3  0  0  0  0  0  0
  -22.1270   -7.3780   21.1750 O   0  0  0  0  0  0  0  0  0  0  0  0
  -21.9810   -6.6390   22.3200 C   0  0  0  0  0  0  0  0  0  0  0  0
  -21.4660   -7.2020   23.5090 C   0  0  0  0  0  3  0  0  0  0  0  0
  -21.2680   -6.3900   24.6430 C   0  0  0  0  0  3  0  0  0  0  0  0
  -21.5750   -5.0170   24.5910 C   0  0  0  0  0  0  0  0  0  0  0  0
  -22.0840   -4.4550   23.4070 C   0  0  0  0  0  3  0  0  0  0  0  0
  -22.2830   -5.2630   22.2740 C   0  0  0  0  0  0  0  0  0  0  0  0
  -22.7540   -4.7120   21.1300 F   0  0  0  0  0  0  0  0  0  0  0  0
  -21.3770   -4.2350   25.6780 F   0  0  0  0  0  0  0  0  0  0  0  0
  -23.3500  -13.9980   20.9300 C   0  0  0  0  0  0  0  0  0  0  0  0
  -22.5570  -13.3190   21.7530 N   0  0  0  0  0  0  0  0  0  0  0  0
  -22.9620  -15.0260   20.3770 O   0  0  0  0  0  0  0  0  0  0  0  0
  -22.8830  -12.4860   22.2210 H   0  0  0  0  0  0  0  0  0  0  0  0
  -21.6120  -13.6350   21.9160 H   0  0  0  0  0  0  0  0  0  0  0  0
  -26.0580  -15.6180   20.2890 N   0  0  0  0  0  0  0  0  0  0  0  0
  -25.2980  -16.2880   20.3440 H   0  0  0  0  0  0  0  0  0  0  0  0
  -26.9340  -16.0360   20.0030 H   0  0  0  0  0  0  0  0  0  0  0  0
  -27.8370  -21.7350   19.5070 C   0  0  0  0  0  3  0  0  0  0  0  0
  -26.3280  -20.9820   17.5470 C   0  0  0  0  0  1  0  0  0  0  0  0
  -27.5350  -20.6560   18.4400 C   0  0  0  0  0  2  0  0  0  0  0  0
  -26.9290  -22.9420   21.6300 C   0  0  0  0  0  1  0  0  0  0  0  0
  -26.7940  -21.7550   20.6600 C   0  0  0  0  0  2  0  0  0  0  0  0
  -30.1050  -23.0590   19.4430 C   0  0  0  0  0  2  0  0  0  0  0  0
  -29.4430  -24.4970   19.1310 C   0  0  0  0  0  2  0  0  0  0  0  0
  -29.1030  -25.5670   20.2530 C   0  0  0  0  0  2  0  0  0  0  0  0
  -29.0460  -26.9960   19.8750 O   0  0  0  0  0  0  0  0  0  0  0  0
  -24.8560  -31.7750   23.2910 C   0  0  0  0  0  0  0  0  0  0  0  0
  -27.8410  -27.7040   19.9320 C   0  0  0  0  0  0  0  0  0  0  0  0
  -23.7830  -30.4580   21.4940 C   0  0  0  0  0  3  0  0  0  0  0  0
  -25.3660  -29.1270   19.9870 C   0  0  0  0  0  0  0  0  0  0  0  0
  -26.2940  -30.9600   21.4090 C   0  0  0  0  0  2  0  0  0  0  0  0
  -26.4820  -29.6510   20.6520 C   0  0  0  0  0  0  0  0  0  0  0  0
  -27.7240  -28.9550   20.6070 C   0  0  0  0  0  3  0  0  0  0  0  0
  -26.7010  -27.2120   19.2640 C   0  0  0  0  0  3  0  0  0  0  0  0
  -25.4760  -27.9140   19.2840 C   0  0  0  0  0  3  0  0  0  0  0  0
  -24.0730  -29.9140   20.0690 C   0  0  0  0  0  2  0  0  0  0  0  0
  -24.9940  -31.0780   22.1240 N   0  0  0  0  0  0  0  0  0  0  0  0
  -23.7450  -31.9350   23.8170 O   0  0  0  0  0  0  0  0  0  0  0  0
  -23.1630  -29.3230   22.3430 C   0  0  0  0  0  0  0  0  0  0  0  0
  -21.8490  -29.0950   22.1780 N   0  0  0  0  0  0  0  0  0  0  0  0
  -23.8630  -28.6520   23.1060 O   0  0  0  0  0  0  0  0  0  0  0  0
  -21.3420  -29.6910   21.5400 H   0  0  0  0  0  0  0  0  0  0  0  0
  -18.5230  -27.7180   22.5350 C   0  0  0  0  0  0  0  0  0  0  0  0
  -21.0690  -28.0460   22.8390 C   0  0  0  0  0  3  0  0  0  0  0  0
  -21.2280  -26.6930   22.1090 C   0  0  0  0  0  2  0  0  0  0  0  0
  -20.1380  -26.4410   21.0620 C   0  0  0  0  0  2  0  0  0  0  0  0
  -18.7520  -26.4600   21.7140 C   0  0  0  0  0  2  0  0  0  0  0  0
  -19.6120  -28.4720   23.0490 C   0  0  0  0  0  0  0  0  0  0  0  0
  -19.3460  -29.6520   23.7760 C   0  0  0  0  0  3  0  0  0  0  0  0
  -18.0230  -30.0830   23.9930 C   0  0  0  0  0  3  0  0  0  0  0  0
  -16.9490  -29.3250   23.4940 C   0  0  0  0  0  3  0  0  0  0  0  0
  -17.1990  -28.1440   22.7720 C   0  0  0  0  0  3  0  0  0  0  0  0
  -26.0810  -32.4250   24.0050 C   0  0  0  0  0  3  0  0  0  0  0  0
  -26.5640  -31.6140   25.2700 C   0  0  1  0  0  0  0  0  0  0  0  0
  -25.4300  -31.2880   26.2700 C   0  0  0  0  0  1  0  0  0  0  0  0
  -27.2170  -30.2770   24.8450 C   0  0  0  0  0  1  0  0  0  0  0  0
  -27.6510  -32.4160   26.0240 C   0  0  0  0  0  1  0  0  0  0  0  0
  -25.7000  -33.7930   24.3840 N   0  0  0  0  0  0  0  0  0  0  0  0
  -26.0200  -34.8930   23.6880 C   0  0  0  0  0  0  0  0  0  0  0  0
  -26.7380  -34.8630   22.6830 O   0  0  0  0  0  0  0  0  0  0  0  0
  -25.0680  -33.8840   25.1650 H   0  0  0  0  0  0  0  0  0  0  0  0
  -24.2290  -36.6250   23.3490 C   0  0  0  0  0  1  0  0  0  0  0  0
  -25.4570  -36.2380   24.1860 C   0  0  0  0  0  3  0  0  0  0  0  0
  -27.5210  -37.1770   25.1320 C   0  0  0  0  0  1  0  0  0  0  0  0
  -26.4470  -37.3380   24.1550 N   0  0  0  0  0  0  0  0  0  0  0  0
  -25.9950  -38.2320   24.3270 H   0  0  0  0  0  0  0  0  0  0  0  0
  1 49  1  0
  2  4  1  0
  2  1  1  0
  2  5  1  0
  3  2  1  0
  6  5  2  0
  6  7  1  0
  8 14  1  0
  8  7  1  0
  9 14  1  0
 10 11  1  0
 10  9  1  0
 12 11  1  0
 12 19  1  0
 12 13  1  0
 14 13  1  0
 15  8  2  0
 16 17  2  0
 17 36  1  0
 18 17  1  0
 18 21  1  0
 19 16  1  0
 19 20  1  0
 20 18  2  0
 21 22  1  0
 22 23  2  0
 24 27  1  0
 24 23  1  0
 25 24  2  0
 26 25  1  0
 26 21  2  0
 27 28  1  0
 28 29  1  0
 29 30  2  0
 31 30  1  0
 31 35  1  0
 32 31  2  0
 33 28  2  0
 33 32  1  0
 34 33  1  0
 36 37  1  0
 37 40  1  0
 37 39  1  0
 38 36  2  0
 41 42  1  0
 41 16  1  0
 43 41  1  0
 44  1  1  0
 44 48  1  0
 45 46  1  0
 46 44  1  0
 48 47  1  0
 50 49  1  0
 50 51  1  0
 52 54  1  0
 52 51  1  0
 53 64  2  0
 54 59  1  0
 55 63  1  0
 55 65  1  0
 56 62  1  0
 56 58  1  0
 57 63  1  0
 58 57  1  0
 59 58  2  0
 60 61  1  0
 60 54  2  0
 61 56  2  0
 62 55  1  0
 63 53  1  0
 65 67  2  0
 66 65  1  0
 68 66  1  0
 69 78  2  0
 69 74  1  0
 70 66  1  0
 70 74  1  0
 71 70  1  0
 72 73  1  0
 72 71  1  0
 73 69  1  0
 74 75  2  0
 75 76  1  0
 77 76  2  0
 78 77  1  0
 79 53  1  0
 79 84  1  0
 79 80  1  0
 80 83  1  1
 80 81  1  0
 82 80  1  0
 84 87  1  0
 85 89  1  0
 85 84  1  0
 86 85  2  0
 89 88  1  0
 91 89  1  0
 91 92  1  0
 91 90  1  0
M  ISO  4   7 100   8 100  51 101  52 101
M  END
>  <TORSDO>  (54) 
F 26

>  <SCORE>  (54) 
-9.977

>  <name>  (54) 
54

>  <ligand_id>  (54) 
54

>  <original_smiles>  (54) 
[H]c1c([H])c([H])c2c(c1[H])C([H])([H])C([H])([H])C([H])([H])C2([H])N([H])C(=O)C1([H])N(C(=O)C([H])(N([H])C(=O)C([H])(N([H])C([H])([H])[H])C([H])([H])[H])C(C([H])([H])[H])(C([H])([H])[H])C([H])([H])[H])C([H])([H])c2c([H])c(OC([H])([H])C([H])([H])C([H])([H])C([H])(C([H])(C([H])([H])C([H])([H])[H])C([H])([H])C([H])([H])[H])[N+]([H])([H])C([H])([H])C([H])([H])C([H])([H])C(=O)N3C([H])([H])C([H])([H])C([H])([H])C([H])(n4nc(-c5c([H])c([H])c(Oc6c([H])c([H])c(F)c([H])c6F)c([H])c5[H])c(C(=O)N([H])[H])c4N([H])[H])C3([H])[H])c([H])c([H])c2C1([H])[H]

>  <smiles>  (54) 
[H]c1c([H])c([H])c2c(c1[H])C([H])([H])C([H])([H])C([H])([H])C2([H])N([H])C(=O)C1([H])N(C(=O)C([H])(N([H])C(=O)C([H])(N([H])C([H])([H])[H])C([H])([H])[H])C(C([H])([H])[H])(C([H])([H])[H])C([H])([H])[H])C([H])([H])c2c([H])c(OC([H])([H])C([H])([H])C([H])([H])C([H])(C([H])(C([H])([H])C([H])([H])[H])C([H])([H])C([H])([H])[H])[N+]([H])([H])C([H])([H])C([H])([H])C([H])([H])C(=O)N3C([H])([H])C([H])([H])C([H])([H])C([H])(n4nc(-c5c([H])c([H])c(Oc6c([H])c([H])c(F)c([H])c6F)c([H])c5[H])c(C(=O)N([H])[H])c4N([H])[H])C3([H])[H])c([H])c([H])c2C1([H])[H]

$$$$
55:0:0
     RDKit          3D

 98106  0  0  1  0  0  0  0  0999 V2000
  -25.2830  -18.0470   18.1610 C   0  0  0  0  0  2  0  0  0  0  0  0
  -24.4830  -20.4310   18.4690 C   0  0  0  0  0  2  0  0  0  0  0  0
  -26.7770  -19.7420   19.3020 C   0  0  0  0  0  2  0  0  0  0  0  0
  -24.4260  -19.1790   17.5690 C   0  0  0  0  0  3  0  0  0  0  0  0
  -26.7490  -18.4730   18.4120 C   0  0  0  0  0  3  0  0  0  0  0  0
  -25.9480  -20.8970   18.6710 C   0  0  0  0  0  3  0  0  0  0  0  0
  -22.9800  -18.7230   17.3260 C   0  0  0  0  0  1  0  0  0  0  0  0
  -27.5160  -17.3210   18.9600 N   0  0  0  0  0  4  0  0  0  0  0  0
  -27.6760  -16.7110   18.1770 H   0  0  0  0  0  0  0  0  0  0  0  0
  -26.9220  -16.8090   19.6020 H   0  0  0  0  0  0  0  0  0  0  0  0
  -28.8330  -17.6130   19.5830 C   0  0  0  0  0  2  0  0  0  0  0  0
  -29.8300  -16.4390   19.4800 C   0  0  0  0  0  2  0  0  0  0  0  0
  -29.7880  -15.3710   20.6030 C   0  0  0  0  0  2  0  0  0  0  0  0
  -30.5820  -14.1270   20.1510 C   0  0  0  0  0  0  0  0  0  0  0  0
  -30.2130  -12.1280   18.7890 C   0  0  0  0  0  2  0  0  0  0  0  0
  -29.2020  -12.5310   17.6900 C   0  0  0  0  0  2  0  0  0  0  0  0
  -27.7510  -12.3600   18.1880 C   0  0  0  0  0  2  0  0  0  0  0  0
  -27.5160  -13.0030   19.5810 C   0  0  0  0  0  3  0  0  0  0  0  0
  -28.6340  -12.6040   20.5700 C   0  0  0  0  0  2  0  0  0  0  0  0
  -29.9260  -12.9550   19.9680 N   0  0  0  0  0  0  0  0  0  0  0  0
  -31.7270  -14.3210   19.7360 O   0  0  0  0  0  0  0  0  0  0  0  0
  -25.1140  -13.5390   20.3230 C   0  0  0  0  0  0  0  0  0  0  0  0
  -24.0870  -12.7320   20.7350 C   0  0  0  0  0  0  0  0  0  0  0  0
  -24.6150  -11.4040   20.7630 C   0  0  0  0  0  0  0  0  0  0  0  0
  -26.1920  -12.6950   20.1080 N   0  0  0  0  0  0  0  0  0  0  0  0
  -25.8980  -11.4120   20.4300 N   0  0  0  0  0  0  0  0  0  0  0  0
  -23.9640  -10.1190   21.0390 C   0  0  0  0  0  0  0  0  0  0  0  0
  -24.3930   -9.2840   22.0950 C   0  0  0  0  0  3  0  0  0  0  0  0
  -23.7400   -8.0590   22.3470 C   0  0  0  0  0  3  0  0  0  0  0  0
  -22.6460   -7.6590   21.5450 C   0  0  0  0  0  0  0  0  0  0  0  0
  -22.2380   -8.4840   20.4810 C   0  0  0  0  0  3  0  0  0  0  0  0
  -22.8910   -9.7010   20.2270 C   0  0  0  0  0  3  0  0  0  0  0  0
  -21.9690   -6.4730   21.6980 O   0  0  0  0  0  0  0  0  0  0  0  0
  -21.8040   -5.8950   22.9310 C   0  0  0  0  0  0  0  0  0  0  0  0
  -21.1250   -6.5530   23.9790 C   0  0  0  0  0  3  0  0  0  0  0  0
  -20.9160   -5.8940   25.2060 C   0  0  0  0  0  3  0  0  0  0  0  0
  -21.3770   -4.5770   25.3860 C   0  0  0  0  0  0  0  0  0  0  0  0
  -22.0480   -3.9160   24.3410 C   0  0  0  0  0  3  0  0  0  0  0  0
  -22.2580   -4.5730   23.1160 C   0  0  0  0  0  0  0  0  0  0  0  0
  -22.8870   -3.9250   22.1060 F   0  0  0  0  0  0  0  0  0  0  0  0
  -21.1690   -3.9390   26.5620 F   0  0  0  0  0  0  0  0  0  0  0  0
  -22.6750  -13.1520   21.0240 C   0  0  0  0  0  0  0  0  0  0  0  0
  -22.0080  -12.4690   21.9480 N   0  0  0  0  0  0  0  0  0  0  0  0
  -22.1770  -14.1280   20.4650 O   0  0  0  0  0  0  0  0  0  0  0  0
  -22.4270  -11.6810   22.4190 H   0  0  0  0  0  0  0  0  0  0  0  0
  -21.0640  -12.7400   22.1880 H   0  0  0  0  0  0  0  0  0  0  0  0
  -25.2360  -14.9130   20.1180 N   0  0  0  0  0  0  0  0  0  0  0  0
  -24.3150  -15.3140   20.2720 H   0  0  0  0  0  0  0  0  0  0  0  0
  -25.8300  -15.2530   20.8670 H   0  0  0  0  0  0  0  0  0  0  0  0
  -24.8960  -23.0890   19.3620 C   0  0  0  0  0  1  0  0  0  0  0  0
  -26.1150  -22.2440   19.3180 N   0  0  1  0  0  4  0  0  0  0  0  0
  -26.6920  -22.7320   18.6490 H   0  0  0  0  0  0  0  0  0  0  0  0
  -26.9280  -22.3490   20.5610 C   0  0  0  0  0  2  0  0  0  0  0  0
  -28.2720  -23.0330   20.2450 C   0  0  0  0  0  2  0  0  0  0  0  0
  -28.9920  -23.5900   21.4810 C   0  0  0  0  0  2  0  0  0  0  0  0
  -30.0990  -24.5970   21.1080 C   0  0  0  0  0  2  0  0  0  0  0  0
  -30.3130  -25.6770   22.1850 C   0  0  0  0  0  2  0  0  0  0  0  0
  -30.2700  -26.9960   21.6370 O   0  0  0  0  0  0  0  0  0  0  0  0
  -25.1930  -31.6030   23.4710 C   0  0  0  0  0  0  0  0  0  0  0  0
  -29.0180  -27.4890   21.3510 C   0  0  0  0  0  0  0  0  0  0  0  0
  -24.5450  -29.9080   21.7910 C   0  0  0  0  0  3  0  0  0  0  0  0
  -26.4580  -28.5480   20.8000 C   0  0  0  0  0  0  0  0  0  0  0  0
  -26.9740  -30.6820   21.9940 C   0  0  0  0  0  2  0  0  0  0  0  0
  -27.3900  -29.3070   21.5200 C   0  0  0  0  0  0  0  0  0  0  0  0
  -28.6730  -28.7860   21.7890 C   0  0  0  0  0  3  0  0  0  0  0  0
  -28.0680  -26.7390   20.6220 C   0  0  0  0  0  3  0  0  0  0  0  0
  -26.7920  -27.2600   20.3480 C   0  0  0  0  0  3  0  0  0  0  0  0
  -25.1090  -29.1800   20.5420 C   0  0  0  0  0  2  0  0  0  0  0  0
  -25.5750  -30.7520   22.4780 N   0  0  0  0  0  0  0  0  0  0  0  0
  -24.0020  -31.7250   23.7870 O   0  0  0  0  0  0  0  0  0  0  0  0
  -23.8930  -28.8590   22.7200 C   0  0  0  0  0  0  0  0  0  0  0  0
  -22.7010  -28.3760   22.3340 N   0  0  0  0  0  0  0  0  0  0  0  0
  -24.4680  -28.4760   23.7440 O   0  0  0  0  0  0  0  0  0  0  0  0
  -22.2940  -28.7470   21.4860 H   0  0  0  0  0  0  0  0  0  0  0  0
  -19.5990  -26.5290   22.2460 C   0  0  0  0  0  0  0  0  0  0  0  0
  -21.9190  -27.3560   23.0290 C   0  0  0  0  0  3  0  0  0  0  0  0
  -22.4280  -25.9360   22.6890 C   0  0  0  0  0  2  0  0  0  0  0  0
  -21.6840  -25.2940   21.5140 C   0  0  0  0  0  2  0  0  0  0  0  0
  -20.1850  -25.1960   21.8160 C   0  0  0  0  0  2  0  0  0  0  0  0
  -20.4160  -27.5490   22.8010 C   0  0  0  0  0  0  0  0  0  0  0  0
  -19.8270  -28.7840   23.1500 C   0  0  0  0  0  3  0  0  0  0  0  0
  -18.4500  -29.0050   22.9570 C   0  0  0  0  0  3  0  0  0  0  0  0
  -17.6430  -27.9860   22.4230 C   0  0  0  0  0  3  0  0  0  0  0  0
  -18.2160  -26.7510   22.0730 C   0  0  0  0  0  3  0  0  0  0  0  0
  -26.2310  -32.4820   24.2380 C   0  0  0  0  0  3  0  0  0  0  0  0
  -26.6500  -31.8750   25.6340 C   0  0  1  0  0  0  0  0  0  0  0  0
  -25.4510  -31.4410   26.5080 C   0  0  0  0  0  1  0  0  0  0  0  0
  -27.5620  -30.6420   25.4370 C   0  0  0  0  0  1  0  0  0  0  0  0
  -27.4760  -32.9130   26.4300 C   0  0  0  0  0  1  0  0  0  0  0  0
  -25.6410  -33.8160   24.4080 N   0  0  0  0  0  0  0  0  0  0  0  0
  -25.8790  -34.8610   23.6030 C   0  0  0  0  0  0  0  0  0  0  0  0
  -26.6840  -34.8180   22.6690 O   0  0  0  0  0  0  0  0  0  0  0  0
  -24.9340  -33.9110   25.1230 H   0  0  0  0  0  0  0  0  0  0  0  0
  -23.9020  -36.2520   22.9110 C   0  0  0  0  0  1  0  0  0  0  0  0
  -25.0950  -36.1590   23.8750 C   0  0  0  0  0  3  0  0  0  0  0  0
  -26.9160  -37.5000   24.8290 C   0  0  0  0  0  1  0  0  0  0  0  0
  -25.9220  -37.3800   23.7660 N   0  0  0  0  0  0  0  0  0  0  0  0
  -25.3400  -38.2130   23.7820 H   0  0  0  0  0  0  0  0  0  0  0  0
  1  5  1  0
  2  6  1  0
  4  7  1  0
  4  1  1  0
  4  2  1  0
  5  8  1  0
  5  3  1  0
  6  3  1  0
  6 51  1  0
  8 11  1  0
  8 10  1  0
  9  8  1  0
 12 11  1  0
 12 13  1  0
 14 13  1  0
 15 20  1  0
 16 17  1  0
 16 15  1  0
 18 17  1  0
 18 25  1  0
 18 19  1  0
 20 14  1  0
 20 19  1  0
 21 14  2  0
 22 23  2  0
 23 24  1  0
 23 42  1  0
 24 27  1  0
 25 22  1  0
 25 26  1  0
 26 24  2  0
 27 28  1  0
 28 29  2  0
 30 33  1  0
 30 29  1  0
 31 30  2  0
 32 31  1  0
 32 27  2  0
 33 34  1  0
 34 39  2  0
 34 35  1  0
 35 36  2  0
 36 37  1  0
 37 41  1  0
 38 37  2  0
 39 38  1  0
 40 39  1  0
 42 43  1  0
 43 46  1  0
 43 45  1  0
 44 42  2  0
 47 48  1  0
 47 22  1  0
 47 49  1  0
 51 50  1  0
 51 53  1  0
 51 52  1  6
 54 53  1  0
 54 55  1  0
 56 55  1  0
 56 57  1  0
 58 57  1  0
 59 70  2  0
 60 58  1  0
 60 65  1  0
 61 69  1  0
 61 71  1  0
 62 64  1  0
 63 69  1  0
 64 65  2  0
 64 63  1  0
 66 60  2  0
 67 66  1  0
 67 62  2  0
 68 62  1  0
 68 61  1  0
 69 59  1  0
 71 73  2  0
 72 71  1  0
 74 72  1  0
 75 80  1  0
 76 72  1  0
 77 76  1  0
 78 79  1  0
 78 77  1  0
 79 75  1  0
 80 76  1  0
 80 81  2  0
 82 81  1  0
 83 82  2  0
 84 75  2  0
 84 83  1  0
 85 59  1  0
 85 90  1  0
 85 86  1  0
 86 89  1  1
 86 87  1  0
 88 86  1  0
 90 93  1  0
 91 95  1  0
 91 90  1  0
 92 91  2  0
 95 94  1  0
 97 98  1  0
 97 95  1  0
 97 96  1  0
M  ISO  4  13 100  14 100  57 101  58 101
M  END
>  <TORSDO>  (55) 
F 26

>  <SCORE>  (55) 
-2.878

>  <name>  (55) 
55

>  <ligand_id>  (55) 
55

>  <original_smiles>  (55) 
[H]c1c([H])c([H])c2c(c1[H])C([H])([H])C([H])([H])C([H])([H])C2([H])N([H])C(=O)C1([H])N(C(=O)C([H])(N([H])C(=O)C([H])(N([H])C([H])([H])[H])C([H])([H])[H])C(C([H])([H])[H])(C([H])([H])[H])C([H])([H])[H])C([H])([H])c2c([H])c(OC([H])([H])C([H])([H])C([H])([H])C([H])([H])C([H])([H])[N+]([H])(C([H])([H])[H])C3([H])C([H])([H])C([H])(C([H])([H])[H])C([H])([H])C([H])([N+]([H])([H])C([H])([H])C([H])([H])C([H])([H])C(=O)N4C([H])([H])C([H])([H])C([H])([H])C([H])(n5nc(-c6c([H])c([H])c(Oc7c([H])c([H])c(F)c([H])c7F)c([H])c6[H])c(C(=O)N([H])[H])c5N([H])[H])C4([H])[H])C3([H])[H])c([H])c([H])c2C1([H])[H]

>  <smiles>  (55) 
[H]c1c([H])c([H])c2c(c1[H])C([H])([H])C([H])([H])C([H])([H])C2([H])N([H])C(=O)C1([H])N(C(=O)C([H])(N([H])C(=O)C([H])(N([H])C([H])([H])[H])C([H])([H])[H])C(C([H])([H])[H])(C([H])([H])[H])C([H])([H])[H])C([H])([H])c2c([H])c(OC([H])([H])C([H])([H])C([H])([H])C([H])([H])C([H])([H])[N+]([H])(C([H])([H])[H])C3([H])C([H])([H])C([H])(C([H])([H])[H])C([H])([H])C([H])([N+]([H])([H])C([H])([H])C([H])([H])C([H])([H])C(=O)N4C([H])([H])C([H])([H])C([H])([H])C([H])(n5nc(-c6c([H])c([H])c(Oc7c([H])c([H])c(F)c([H])c7F)c([H])c6[H])c(C(=O)N([H])[H])c5N([H])[H])C4([H])[H])C3([H])[H])c([H])c([H])c2C1([H])[H]

$$$$
56:0:0
     RDKit          3D

 97103  0  0  1  0  0  0  0  0999 V2000
  -29.2690  -16.3800   19.6210 C   0  0  0  0  0  3  0  0  0  0  0  0
  -28.2710  -17.8220   19.5250 C   0  0  0  0  0  0  0  0  0  0  0  0
  -28.6450  -19.2690   19.5990 N   0  0  0  0  0  0  0  0  0  0  0  0
  -27.0690  -17.5850   19.4170 O   0  0  0  0  0  0  0  0  0  0  0  0
  -29.6430  -19.4080   19.6760 H   0  0  0  0  0  0  0  0  0  0  0  0
  -27.8860  -20.7700   19.5570 C   0  0  0  0  0  2  0  0  0  0  0  0
  -28.4740  -22.4830   19.6570 C   0  0  0  0  0  3  0  0  0  0  0  0
  -27.6470  -24.1040   19.6290 C   0  0  0  0  0  3  0  0  0  0  0  0
  -28.0430  -25.7100   19.8420 O   0  0  0  0  0  0  0  0  0  0  0  0
  -24.6300  -31.7480   23.0100 C   0  0  0  0  0  0  0  0  0  0  0  0
  -27.0950  -26.8640   19.8640 C   0  0  0  0  0  0  0  0  0  0  0  0
  -23.4150  -30.3660   21.3860 C   0  0  0  0  0  3  0  0  0  0  0  0
  -24.8320  -28.7780   19.9200 C   0  0  0  0  0  0  0  0  0  0  0  0
  -25.9860  -30.5610   21.2040 C   0  0  0  0  0  2  0  0  0  0  0  0
  -26.0370  -29.1570   20.5230 C   0  0  0  0  0  0  0  0  0  0  0  0
  -27.1710  -28.2200   20.4720 C   0  0  0  0  0  3  0  0  0  0  0  0
  -25.8600  -26.6500   19.2260 C   0  0  0  0  0  3  0  0  0  0  0  0
  -24.7690  -27.5480   19.2550 C   0  0  0  0  0  3  0  0  0  0  0  0
  -23.6210  -29.7070   19.9990 C   0  0  0  0  0  2  0  0  0  0  0  0
  -24.7020  -30.9190   21.9190 N   0  0  0  0  0  0  0  0  0  0  0  0
  -23.5460  -32.0270   23.5490 O   0  0  0  0  0  0  0  0  0  0  0  0
  -22.7420  -29.3540   22.3510 C   0  0  0  0  0  0  0  0  0  0  0  0
  -21.4080  -29.1970   22.2610 N   0  0  0  0  0  0  0  0  0  0  0  0
  -23.4270  -28.7110   23.1500 O   0  0  0  0  0  0  0  0  0  0  0  0
  -20.9100  -29.7620   21.5880 H   0  0  0  0  0  0  0  0  0  0  0  0
  -18.0360  -27.9900   22.8480 C   0  0  0  0  0  0  0  0  0  0  0  0
  -20.6030  -28.2520   23.0440 C   0  0  0  0  0  3  0  0  0  0  0  0
  -20.6880  -26.8250   22.4520 C   0  0  0  0  0  2  0  0  0  0  0  0
  -19.5560  -26.5140   21.4670 C   0  0  0  0  0  2  0  0  0  0  0  0
  -18.1930  -26.6510   22.1480 C   0  0  0  0  0  2  0  0  0  0  0  0
  -19.1660  -28.7470   23.2560 C   0  0  0  0  0  0  0  0  0  0  0  0
  -18.9620  -29.9980   23.8800 C   0  0  0  0  0  3  0  0  0  0  0  0
  -17.6630  -30.4930   24.0930 C   0  0  0  0  0  3  0  0  0  0  0  0
  -16.5470  -29.7350   23.6960 C   0  0  0  0  0  3  0  0  0  0  0  0
  -16.7350  -28.4850   23.0810 C   0  0  0  0  0  3  0  0  0  0  0  0
  -25.9040  -32.3990   23.6250 C   0  0  0  0  0  3  0  0  0  0  0  0
  -26.4610  -31.6030   24.8700 C   0  0  1  0  0  0  0  0  0  0  0  0
  -25.3970  -31.3190   25.9570 C   0  0  0  0  0  1  0  0  0  0  0  0
  -27.0560  -30.2450   24.4370 C   0  0  0  0  0  1  0  0  0  0  0  0
  -27.6130  -32.4000   25.5250 C   0  0  0  0  0  1  0  0  0  0  0  0
  -25.5610  -33.7770   24.0230 N   0  0  0  0  0  0  0  0  0  0  0  0
  -25.8590  -34.8770   23.3190 C   0  0  0  0  0  0  0  0  0  0  0  0
  -26.5130  -34.8400   22.2750 O   0  0  0  0  0  0  0  0  0  0  0  0
  -24.9730  -33.8750   24.8380 H   0  0  0  0  0  0  0  0  0  0  0  0
  -24.0920  -36.6600   23.0920 C   0  0  0  0  0  1  0  0  0  0  0  0
  -25.3560  -36.2340   23.8570 C   0  0  0  0  0  3  0  0  0  0  0  0
  -27.4890  -37.1210   24.6910 C   0  0  0  0  0  1  0  0  0  0  0  0
  -26.3660  -37.3130   23.7780 N   0  0  0  0  0  0  0  0  0  0  0  0
  -25.9460  -38.2170   23.9760 H   0  0  0  0  0  0  0  0  0  0  0  0
  -30.5110  -16.9000   20.2530 N   0  0  0  0  0  4  0  0  0  0  0  0
  -31.3160  -16.4290   19.8580 H   0  0  0  0  0  0  0  0  0  0  0  0
  -30.5770  -17.8660   19.9760 H   0  0  0  0  0  0  0  0  0  0  0  0
  -30.6160  -16.8490   21.7390 C   0  0  0  0  0  2  0  0  0  0  0  0
  -31.3030  -15.5670   22.2740 C   0  0  0  0  0  2  0  0  0  0  0  0
  -31.5950  -14.6120   21.1330 C   0  0  0  0  0  0  0  0  0  0  0  0
  -31.2240  -12.9100   19.2300 C   0  0  0  0  0  2  0  0  0  0  0  0
  -29.9370  -12.7010   17.7610 C   0  0  0  0  0  1  0  0  0  0  0  0
  -28.0140  -13.0920   18.0930 C   0  0  0  0  0  1  0  0  0  0  0  0
  -27.5570  -13.8300   19.8400 C   0  0  0  0  0  3  0  0  0  0  0  0
  -28.9500  -14.1030   21.2110 C   0  0  0  0  0  1  0  0  0  0  0  0
  -30.7060  -13.7150   20.7780 N   0  0  0  0  0  0  0  0  0  0  0  0
  -32.5430  -14.8760   20.4010 O   0  0  0  0  0  0  0  0  0  0  0  0
  -25.3080  -14.1910   20.5710 C   0  0  0  0  0  0  0  0  0  0  0  0
  -24.2830  -13.3700   20.8620 C   0  0  0  0  0  0  0  0  0  0  0  0
  -24.7860  -12.0310   20.8400 C   0  0  0  0  0  0  0  0  0  0  0  0
  -26.3470  -13.3520   20.3440 N   0  0  0  0  0  0  0  0  0  0  0  0
  -26.0800  -12.0380   20.5560 N   0  0  0  0  0  0  0  0  0  0  0  0
  -24.0720  -10.7640   21.0060 C   0  0  0  0  0  0  0  0  0  0  0  0
  -24.4720   -9.7970   21.9530 C   0  0  0  0  0  3  0  0  0  0  0  0
  -23.7120   -8.6200   22.1300 C   0  0  0  0  0  3  0  0  0  0  0  0
  -22.5430   -8.4100   21.3620 C   0  0  0  0  0  0  0  0  0  0  0  0
  -22.1720   -9.3610   20.3970 C   0  0  0  0  0  3  0  0  0  0  0  0
  -22.9310  -10.5270   20.2180 C   0  0  0  0  0  3  0  0  0  0  0  0
  -21.7470   -7.2930   21.4520 O   0  0  0  0  0  0  0  0  0  0  0  0
  -21.6630   -6.5590   22.6060 C   0  0  0  0  0  0  0  0  0  0  0  0
  -21.2670   -7.1360   23.8320 C   0  0  0  0  0  3  0  0  0  0  0  0
  -21.1220   -6.3260   24.9750 C   0  0  0  0  0  3  0  0  0  0  0  0
  -21.3680   -4.9410   24.8950 C   0  0  0  0  0  0  0  0  0  0  0  0
  -21.7600   -4.3660   23.6740 C   0  0  0  0  0  3  0  0  0  0  0  0
  -21.9030   -5.1730   22.5310 C   0  0  0  0  0  0  0  0  0  0  0  0
  -22.2560   -4.6080   21.3510 F   0  0  0  0  0  0  0  0  0  0  0  0
  -21.2250   -4.1620   25.9920 F   0  0  0  0  0  0  0  0  0  0  0  0
  -22.8920  -13.8500   21.0360 C   0  0  0  0  0  0  0  0  0  0  0  0
  -22.1370  -13.1930   21.9000 N   0  0  0  0  0  0  0  0  0  0  0  0
  -22.5010  -14.8610   20.4510 O   0  0  0  0  0  0  0  0  0  0  0  0
  -22.4890  -12.3890   22.3980 H   0  0  0  0  0  0  0  0  0  0  0  0
  -21.1880  -13.4940   22.0700 H   0  0  0  0  0  0  0  0  0  0  0  0
  -25.4110  -15.5790   20.4340 N   0  0  0  0  0  0  0  0  0  0  0  0
  -24.5880  -16.1640   20.5270 H   0  0  0  0  0  0  0  0  0  0  0  0
  -26.2130  -16.0860   20.0790 H   0  0  0  0  0  0  0  0  0  0  0  0
  -29.2260  -14.5140   19.2060 C   0  0  0  0  0  2  0  0  0  0  0  0
  -28.7700   -9.1120   21.4820 C   0  0  0  0  0  3  0  0  0  0  0  0
  -29.3810  -10.1510   22.1600 C   0  0  0  0  0  3  0  0  0  0  0  0
  -28.3940   -9.3940   20.1800 C   0  0  0  0  0  3  0  0  0  0  0  0
  -29.4970  -11.4240   21.5680 C   0  0  0  0  0  3  0  0  0  0  0  0
  -28.5780  -10.6860   19.6370 C   0  0  0  0  0  3  0  0  0  0  0  0
  -29.0420  -11.9740   20.2470 C   0  0  0  0  0  3  0  0  0  0  0  0
  1 91  1  0
  1 50  1  0
  2  3  1  0
  2  1  1  0
  3  5  1  0
  4  2  2  0
  6  3  1  0
  6  7  1  0
  8  7  2  0
  8  9  1  0
  9 11  1  0
 10 21  2  0
 11 16  1  0
 12 20  1  0
 12 22  1  0
 13 19  1  0
 13 15  1  0
 14 20  1  0
 15 14  1  0
 16 15  2  0
 17 18  1  0
 17 11  2  0
 18 13  2  0
 19 12  1  0
 20 10  1  0
 22 24  2  0
 23 22  1  0
 25 23  1  0
 26 35  2  0
 26 31  1  0
 27 23  1  0
 27 31  1  0
 28 27  1  0
 29 30  1  0
 29 28  1  0
 30 26  1  0
 31 32  2  0
 32 33  1  0
 34 33  2  0
 35 34  1  0
 36 10  1  0
 36 41  1  0
 36 37  1  0
 37 40  1  1
 37 38  1  0
 39 37  1  0
 41 44  1  0
 42 46  1  0
 42 41  1  0
 43 42  2  0
 46 45  1  0
 48 46  1  0
 48 49  1  0
 48 47  1  0
 50 53  1  0
 51 50  1  0
 52 50  1  0
 53 54  1  0
 55 54  1  0
 56 61  1  0
 57 56  1  0
 59 58  1  0
 59 66  1  0
 61 55  1  0
 61 60  1  0
 62 55  2  0
 63 64  2  0
 64 83  1  0
 65 64  1  0
 65 68  1  0
 66 67  1  0
 66 63  1  0
 67 65  2  0
 68 69  1  0
 69 70  2  0
 71 74  1  0
 71 70  1  0
 72 71  2  0
 73 72  1  0
 73 68  2  0
 74 75  1  0
 75 76  1  0
 76 77  2  0
 78 77  1  0
 78 82  1  0
 79 78  2  0
 80 75  2  0
 80 79  1  0
 81 80  1  0
 83 84  1  0
 84 87  1  0
 84 86  1  0
 85 83  2  0
 88 89  1  0
 88 63  1  0
 90 88  1  0
 91 59  1  0
 92 93  1  0
 94 92  2  0
 95 93  2  0
 96 94  1  0
 96 97  2  0
 97 95  1  0
M  ISO  4   8 101   9 101  54 100  55 100
M  END
>  <TORSDO>  (56) 
F 25

>  <SCORE>  (56) 
-15.658

>  <name>  (56) 
56

>  <ligand_id>  (56) 
56

>  <original_smiles>  (56) 
[H]c1c([H])c([H])c(C([H])([H])C([H])(C(=O)N([H])C([H])([H])C([H])([H])C([H])([H])Oc2c([H])c([H])c3c(c2[H])C([H])([H])N(C(=O)C([H])(N([H])C(=O)C([H])(N([H])C([H])([H])[H])C([H])([H])[H])C(C([H])([H])[H])(C([H])([H])[H])C([H])([H])[H])C([H])(C(=O)N([H])C2([H])c4c([H])c([H])c([H])c([H])c4C([H])([H])C([H])([H])C2([H])[H])C3([H])[H])[N+]([H])([H])C([H])([H])C([H])([H])C(=O)N2C([H])([H])C([H])([H])C([H])([H])C([H])(n3nc(-c4c([H])c([H])c(Oc5c([H])c([H])c(F)c([H])c5F)c([H])c4[H])c(C(=O)N([H])[H])c3N([H])[H])C2([H])[H])c([H])c1[H]

>  <smiles>  (56) 
[H]c1c([H])c([H])c(C([H])([H])C([H])(C(=O)N([H])C([H])([H])C([H])([H])C([H])([H])Oc2c([H])c([H])c3c(c2[H])C([H])([H])N(C(=O)C([H])(N([H])C(=O)C([H])(N([H])C([H])([H])[H])C([H])([H])[H])C(C([H])([H])[H])(C([H])([H])[H])C([H])([H])[H])C([H])(C(=O)N([H])C2([H])c4c([H])c([H])c([H])c([H])c4C([H])([H])C([H])([H])C2([H])[H])C3([H])[H])[N+]([H])([H])C([H])([H])C([H])([H])C(=O)N2C([H])([H])C([H])([H])C([H])([H])C([H])(n3nc(-c4c([H])c([H])c(Oc5c([H])c([H])c(F)c([H])c5F)c([H])c4[H])c(C(=O)N([H])[H])c3N([H])[H])C2([H])[H])c([H])c1[H]

$$$$
57:0:0
     RDKit          3D

 88 96  0  0  1  0  0  0  0  0999 V2000
  -28.4660  -19.8810   21.0530 C   0  0  0  0  0  3  0  0  0  0  0  0
  -28.1480  -21.3550   21.0030 C   0  0  0  0  0  3  0  0  0  0  0  0
  -29.8090  -20.0940   19.2770 C   0  0  0  0  0  3  0  0  0  0  0  0
  -29.3220  -19.0330   20.1960 C   0  0  0  0  0  0  0  0  0  0  0  0
  -28.6030  -22.4200   20.0880 C   0  0  0  0  0  0  0  0  0  0  0  0
  -29.5030  -21.5970   19.2180 C   0  0  0  0  0  0  0  0  0  0  0  0
  -29.2800  -22.8200   17.0980 C   0  0  0  0  0  1  0  0  0  0  0  0
  -31.5740  -22.2650   18.0540 C   0  0  0  0  0  1  0  0  0  0  0  0
  -30.1190  -22.2960   18.1680 N   0  0  0  0  0  0  0  0  0  0  0  0
  -29.3680  -17.1970   20.2720 C   0  0  0  0  0  2  0  0  0  0  0  0
  -30.3220  -15.6570   20.0050 C   0  0  0  0  0  0  0  0  0  0  0  0
  -30.4180  -13.1450   19.1510 C   0  0  0  0  0  2  0  0  0  0  0  0
  -29.4580  -12.8410   17.9640 C   0  0  0  0  0  2  0  0  0  0  0  0
  -28.0410  -12.5100   18.4620 C   0  0  0  0  0  2  0  0  0  0  0  0
  -27.5970  -13.4820   19.5790 C   0  0  0  0  0  3  0  0  0  0  0  0
  -28.6780  -13.7000   20.6590 C   0  0  0  0  0  2  0  0  0  0  0  0
  -29.8610  -14.2830   19.9930 N   0  0  0  0  0  0  0  0  0  0  0  0
  -31.5290  -15.6800   19.6990 O   0  0  0  0  0  0  0  0  0  0  0  0
  -25.2680  -14.0080   20.4610 C   0  0  0  0  0  0  0  0  0  0  0  0
  -24.2260  -13.2210   20.8600 C   0  0  0  0  0  0  0  0  0  0  0  0
  -24.6920  -11.8730   20.7780 C   0  0  0  0  0  0  0  0  0  0  0  0
  -26.2990  -13.1410   20.1470 N   0  0  0  0  0  0  0  0  0  0  0  0
  -25.9690  -11.8480   20.4040 N   0  0  0  0  0  0  0  0  0  0  0  0
  -23.9740  -10.6060   20.9730 C   0  0  0  0  0  0  0  0  0  0  0  0
  -24.4210   -9.6360   21.8990 C   0  0  0  0  0  3  0  0  0  0  0  0
  -23.7010   -8.4370   22.0840 C   0  0  0  0  0  3  0  0  0  0  0  0
  -22.5180   -8.1970   21.3440 C   0  0  0  0  0  0  0  0  0  0  0  0
  -22.0890   -9.1560   20.4090 C   0  0  0  0  0  3  0  0  0  0  0  0
  -22.8100  -10.3460   20.2220 C   0  0  0  0  0  3  0  0  0  0  0  0
  -21.7670   -7.0500   21.4400 O   0  0  0  0  0  0  0  0  0  0  0  0
  -21.7020   -6.3270   22.6040 C   0  0  0  0  0  0  0  0  0  0  0  0
  -21.2110   -6.8870   23.8030 C   0  0  0  0  0  3  0  0  0  0  0  0
  -21.0970   -6.0900   24.9590 C   0  0  0  0  0  3  0  0  0  0  0  0
  -21.4620   -4.7300   24.9150 C   0  0  0  0  0  0  0  0  0  0  0  0
  -21.9450   -4.1690   23.7190 C   0  0  0  0  0  3  0  0  0  0  0  0
  -22.0620   -4.9650   22.5670 C   0  0  0  0  0  0  0  0  0  0  0  0
  -22.5080   -4.4140   21.4130 F   0  0  0  0  0  0  0  0  0  0  0  0
  -21.3450   -3.9610   26.0210 F   0  0  0  0  0  0  0  0  0  0  0  0
  -22.8420  -13.6910   21.2000 C   0  0  0  0  0  0  0  0  0  0  0  0
  -22.1530  -12.9750   22.0810 N   0  0  0  0  0  0  0  0  0  0  0  0
  -22.3840  -14.7270   20.7200 O   0  0  0  0  0  0  0  0  0  0  0  0
  -22.5390  -12.1360   22.4890 H   0  0  0  0  0  0  0  0  0  0  0  0
  -21.2250  -13.2710   22.3520 H   0  0  0  0  0  0  0  0  0  0  0  0
  -25.4230  -15.3820   20.3080 N   0  0  0  0  0  0  0  0  0  0  0  0
  -24.6620  -16.0340   20.4680 H   0  0  0  0  0  0  0  0  0  0  0  0
  -26.2560  -15.8290   19.9470 H   0  0  0  0  0  0  0  0  0  0  0  0
  -27.8630  -24.0940   19.9210 C   0  0  0  0  0  2  0  0  0  0  0  0
  -28.1780  -25.7620   20.1590 O   0  0  0  0  0  0  0  0  0  0  0  0
  -24.6580  -31.8830   23.2030 C   0  0  0  0  0  0  0  0  0  0  0  0
  -27.2070  -26.9470   20.1090 C   0  0  0  0  0  0  0  0  0  0  0  0
  -23.4670  -30.5130   21.5440 C   0  0  0  0  0  3  0  0  0  0  0  0
  -24.9200  -28.9160   20.0920 C   0  0  0  0  0  0  0  0  0  0  0  0
  -26.0410  -30.6940   21.4090 C   0  0  0  0  0  2  0  0  0  0  0  0
  -26.1120  -29.2830   20.7270 C   0  0  0  0  0  0  0  0  0  0  0  0
  -27.2440  -28.3240   20.7080 C   0  0  0  0  0  3  0  0  0  0  0  0
  -25.9810  -26.7730   19.4220 C   0  0  0  0  0  3  0  0  0  0  0  0
  -24.8880  -27.6860   19.4140 C   0  0  0  0  0  3  0  0  0  0  0  0
  -23.7030  -29.8470   20.1580 C   0  0  0  0  0  2  0  0  0  0  0  0
  -24.7450  -31.0600   22.1050 N   0  0  0  0  0  0  0  0  0  0  0  0
  -23.5660  -32.1660   23.7260 O   0  0  0  0  0  0  0  0  0  0  0  0
  -22.7660  -29.5070   22.4970 C   0  0  0  0  0  0  0  0  0  0  0  0
  -21.4370  -29.3330   22.3610 N   0  0  0  0  0  0  0  0  0  0  0  0
  -23.4270  -28.8830   23.3300 O   0  0  0  0  0  0  0  0  0  0  0  0
  -20.9530  -29.8900   21.6710 H   0  0  0  0  0  0  0  0  0  0  0  0
  -18.0630  -28.0750   22.8380 C   0  0  0  0  0  0  0  0  0  0  0  0
  -20.6180  -28.3790   23.1170 C   0  0  0  0  0  3  0  0  0  0  0  0
  -20.7430  -26.9540   22.5290 C   0  0  0  0  0  2  0  0  0  0  0  0
  -19.6520  -26.6280   21.5040 C   0  0  0  0  0  2  0  0  0  0  0  0
  -18.2650  -26.7400   22.1410 C   0  0  0  0  0  2  0  0  0  0  0  0
  -19.1670  -28.8520   23.2800 C   0  0  0  0  0  0  0  0  0  0  0  0
  -18.9210  -30.1000   23.8960 C   0  0  0  0  0  3  0  0  0  0  0  0
  -17.6060  -30.5720   24.0670 C   0  0  0  0  0  3  0  0  0  0  0  0
  -16.5180  -29.7940   23.6350 C   0  0  0  0  0  3  0  0  0  0  0  0
  -16.7470  -28.5460   23.0270 C   0  0  0  0  0  3  0  0  0  0  0  0
  -25.9230  -32.5230   23.8500 C   0  0  0  0  0  3  0  0  0  0  0  0
  -26.4110  -31.7560   25.1420 C   0  0  1  0  0  0  0  0  0  0  0  0
  -25.2990  -31.5320   26.1940 C   0  0  0  0  0  1  0  0  0  0  0  0
  -26.9940  -30.3720   24.7780 C   0  0  0  0  0  1  0  0  0  0  0  0
  -27.5560  -32.5460   25.8190 C   0  0  0  0  0  1  0  0  0  0  0  0
  -25.6070  -33.9230   24.1880 N   0  0  0  0  0  0  0  0  0  0  0  0
  -25.9240  -34.9880   23.4380 C   0  0  0  0  0  0  0  0  0  0  0  0
  -26.5720  -34.8940   22.3940 O   0  0  0  0  0  0  0  0  0  0  0  0
  -25.0260  -34.0680   25.0020 H   0  0  0  0  0  0  0  0  0  0  0  0
  -24.1780  -36.7830   23.1580 C   0  0  0  0  0  1  0  0  0  0  0  0
  -25.4500  -36.3750   23.9210 C   0  0  0  0  0  3  0  0  0  0  0  0
  -27.6030  -37.2760   24.6870 C   0  0  0  0  0  1  0  0  0  0  0  0
  -26.4740  -37.4340   23.7750 N   0  0  0  0  0  0  0  0  0  0  0  0
  -26.0670  -38.3530   23.9310 H   0  0  0  0  0  0  0  0  0  0  0  0
  2  1  1  0
  3  4  1  0
  4 10  1  0
  4  1  2  0
  5  2  2  0
  6  3  2  0
  6  5  1  0
  7  9  1  0
  8  9  1  0
  9  6  1  0
 11 10  1  0
 12 17  1  0
 13 14  1  0
 13 12  1  0
 15 14  1  0
 15 22  1  0
 15 16  1  0
 17 11  1  0
 17 16  1  0
 18 11  2  0
 19 20  2  0
 20 39  1  0
 21 20  1  0
 21 24  1  0
 22 23  1  0
 22 19  1  0
 23 21  2  0
 24 25  1  0
 25 26  2  0
 27 30  1  0
 27 26  1  0
 28 27  2  0
 29 28  1  0
 29 24  2  0
 30 31  1  0
 31 32  1  0
 32 33  2  0
 34 33  1  0
 34 38  1  0
 35 34  2  0
 36 31  2  0
 36 35  1  0
 37 36  1  0
 39 40  1  0
 40 43  1  0
 40 42  1  0
 41 39  2  0
 44 19  1  0
 44 45  1  0
 46 44  1  0
 47  5  1  0
 47 48  1  0
 49 60  2  0
 50 48  1  0
 50 55  1  0
 51 59  1  0
 51 61  1  0
 52 58  1  0
 52 54  1  0
 53 59  1  0
 54 53  1  0
 55 54  2  0
 56 50  2  0
 57 56  1  0
 57 52  2  0
 58 51  1  0
 59 49  1  0
 61 63  2  0
 62 61  1  0
 64 62  1  0
 65 74  2  0
 65 70  1  0
 66 62  1  0
 66 70  1  0
 67 66  1  0
 68 69  1  0
 68 67  1  0
 69 65  1  0
 70 71  2  0
 71 72  1  0
 73 72  2  0
 74 73  1  0
 75 49  1  0
 75 80  1  0
 75 76  1  0
 76 79  1  1
 76 77  1  0
 78 76  1  0
 80 83  1  0
 81 85  1  0
 81 80  1  0
 82 81  2  0
 85 84  1  0
 87 85  1  0
 87 88  1  0
 87 86  1  0
M  ISO  4  10 100  11 100  47 101  48 101
M  END
>  <TORSDO>  (57) 
F 19

>  <SCORE>  (57) 
-15.783

>  <name>  (57) 
57

>  <ligand_id>  (57) 
57

>  <original_smiles>  (57) 
[H]c1c([H])c([H])c2c(c1[H])C([H])([H])C([H])([H])C([H])([H])C2([H])N([H])C(=O)C1([H])N(C(=O)C([H])(N([H])C(=O)C([H])(N([H])C([H])([H])[H])C([H])([H])[H])C(C([H])([H])[H])(C([H])([H])[H])C([H])([H])[H])C([H])([H])c2c([H])c(OC([H])([H])c3c([H])c([H])c(C([H])([H])C(=O)N4C([H])([H])C([H])([H])C([H])([H])C([H])(n5nc(-c6c([H])c([H])c(Oc7c([H])c([H])c(F)c([H])c7F)c([H])c6[H])c(C(=O)N([H])[H])c5N([H])[H])C4([H])[H])c([H])c3N(C([H])([H])[H])C([H])([H])[H])c([H])c([H])c2C1([H])[H]

>  <smiles>  (57) 
[H]c1c([H])c([H])c2c(c1[H])C([H])([H])C([H])([H])C([H])([H])C2([H])N([H])C(=O)C1([H])N(C(=O)C([H])(N([H])C(=O)C([H])(N([H])C([H])([H])[H])C([H])([H])[H])C(C([H])([H])[H])(C([H])([H])[H])C([H])([H])[H])C([H])([H])c2c([H])c(OC([H])([H])c3c([H])c([H])c(C([H])([H])C(=O)N4C([H])([H])C([H])([H])C([H])([H])C([H])(n5nc(-c6c([H])c([H])c(Oc7c([H])c([H])c(F)c([H])c7F)c([H])c6[H])c(C(=O)N([H])[H])c5N([H])[H])C4([H])[H])c([H])c3N(C([H])([H])[H])C([H])([H])[H])c([H])c([H])c2C1([H])[H]

$$$$
58:0:0
     RDKit          3D

 87 94  0  0  1  0  0  0  0  0999 V2000
  -28.9070  -22.5530   19.7450 C   0  0  0  0  0  2  0  0  0  0  0  0
  -27.4620  -21.0320   21.0960 C   0  0  0  0  0  1  0  0  0  0  0  0
  -28.8270  -21.2580   20.5570 N   0  0  1  0  0  4  0  0  0  0  0  0
  -29.4170  -21.4060   21.3620 H   0  0  0  0  0  0  0  0  0  0  0  0
  -29.3930  -20.0120   19.8700 C   0  0  0  0  0  3  0  0  0  0  0  0
  -29.3880  -18.6210   20.6680 C   0  0  0  0  0  3  0  0  0  0  0  0
  -30.0890  -17.3450   20.0110 C   0  0  0  0  0  3  0  0  0  0  0  0
  -29.9570  -15.9420   20.7640 C   0  0  0  0  0  3  0  0  0  0  0  0
  -30.6730  -14.6660   20.1470 C   0  0  0  0  0  0  0  0  0  0  0  0
  -30.3950  -12.4640   19.0140 C   0  0  0  0  0  2  0  0  0  0  0  0
  -29.3980  -12.6350   17.8440 C   0  0  0  0  0  2  0  0  0  0  0  0
  -27.9440  -12.4880   18.3340 C   0  0  0  0  0  2  0  0  0  0  0  0
  -27.6560  -13.3300   19.6050 C   0  0  0  0  0  3  0  0  0  0  0  0
  -28.7540  -13.1110   20.6690 C   0  0  0  0  0  2  0  0  0  0  0  0
  -30.0410  -13.4530   20.0520 N   0  0  0  0  0  0  0  0  0  0  0  0
  -31.8010  -14.8150   19.6640 O   0  0  0  0  0  0  0  0  0  0  0  0
  -25.2950  -13.9580   20.4050 C   0  0  0  0  0  0  0  0  0  0  0  0
  -24.2340  -13.1960   20.8110 C   0  0  0  0  0  0  0  0  0  0  0  0
  -24.6800  -11.8390   20.7640 C   0  0  0  0  0  0  0  0  0  0  0  0
  -26.3210  -13.0660   20.1360 N   0  0  0  0  0  0  0  0  0  0  0  0
  -25.9580  -11.7870   20.4100 N   0  0  0  0  0  0  0  0  0  0  0  0
  -23.9470  -10.5840   20.9770 C   0  0  0  0  0  0  0  0  0  0  0  0
  -24.4040   -9.6110   21.8920 C   0  0  0  0  0  3  0  0  0  0  0  0
  -23.6740   -8.4200   22.0940 C   0  0  0  0  0  3  0  0  0  0  0  0
  -22.4740   -8.1950   21.3800 C   0  0  0  0  0  0  0  0  0  0  0  0
  -22.0360   -9.1570   20.4530 C   0  0  0  0  0  3  0  0  0  0  0  0
  -22.7660  -10.3390   20.2500 C   0  0  0  0  0  3  0  0  0  0  0  0
  -21.7120   -7.0560   21.4930 O   0  0  0  0  0  0  0  0  0  0  0  0
  -21.6990   -6.3090   22.6430 C   0  0  0  0  0  0  0  0  0  0  0  0
  -21.3320   -6.8650   23.8880 C   0  0  0  0  0  3  0  0  0  0  0  0
  -21.2650   -6.0450   25.0330 C   0  0  0  0  0  3  0  0  0  0  0  0
  -21.5560   -4.6720   24.9330 C   0  0  0  0  0  0  0  0  0  0  0  0
  -21.9180   -4.1160   23.6930 C   0  0  0  0  0  3  0  0  0  0  0  0
  -21.9860   -4.9320   22.5510 C   0  0  0  0  0  0  0  0  0  0  0  0
  -22.3140   -4.3880   21.3540 F   0  0  0  0  0  0  0  0  0  0  0  0
  -21.4850   -3.8820   26.0300 F   0  0  0  0  0  0  0  0  0  0  0  0
  -22.8510  -13.6870   21.1340 C   0  0  0  0  0  0  0  0  0  0  0  0
  -22.1440  -12.9900   22.0170 N   0  0  0  0  0  0  0  0  0  0  0  0
  -22.4080  -14.7220   20.6380 O   0  0  0  0  0  0  0  0  0  0  0  0
  -22.5150  -12.1510   22.4370 H   0  0  0  0  0  0  0  0  0  0  0  0
  -21.2180  -13.3000   22.2760 H   0  0  0  0  0  0  0  0  0  0  0  0
  -25.4710  -15.3260   20.2230 N   0  0  0  0  0  0  0  0  0  0  0  0
  -24.7170  -15.9930   20.3600 H   0  0  0  0  0  0  0  0  0  0  0  0
  -26.3180  -15.7530   19.8710 H   0  0  0  0  0  0  0  0  0  0  0  0
  -28.4050  -23.9240   20.4100 C   0  0  0  0  0  3  0  0  0  0  0  0
  -28.5680  -25.2580   19.5550 C   0  0  0  0  0  3  0  0  0  0  0  0
  -28.4220  -26.5790   20.1980 O   0  0  0  0  0  0  0  0  0  0  0  0
  -24.6040  -31.8680   23.2210 C   0  0  0  0  0  0  0  0  0  0  0  0
  -27.2580  -27.3550   20.1400 C   0  0  0  0  0  0  0  0  0  0  0  0
  -23.4140  -30.4730   21.5640 C   0  0  0  0  0  3  0  0  0  0  0  0
  -24.8770  -28.9370   20.1370 C   0  0  0  0  0  0  0  0  0  0  0  0
  -25.9490  -30.8090   21.3940 C   0  0  0  0  0  2  0  0  0  0  0  0
  -26.0360  -29.4360   20.7390 C   0  0  0  0  0  0  0  0  0  0  0  0
  -27.2260  -28.6540   20.7320 C   0  0  0  0  0  3  0  0  0  0  0  0
  -26.0690  -26.8910   19.5340 C   0  0  0  0  0  3  0  0  0  0  0  0
  -24.8920  -27.6690   19.5310 C   0  0  0  0  0  3  0  0  0  0  0  0
  -23.6370  -29.8060   20.1810 C   0  0  0  0  0  2  0  0  0  0  0  0
  -24.6740  -31.0680   22.1180 N   0  0  0  0  0  0  0  0  0  0  0  0
  -23.5180  -32.1380   23.7530 O   0  0  0  0  0  0  0  0  0  0  0  0
  -22.7530  -29.4480   22.5170 C   0  0  0  0  0  0  0  0  0  0  0  0
  -21.4320  -29.2540   22.3730 N   0  0  0  0  0  0  0  0  0  0  0  0
  -23.4290  -28.8290   23.3430 O   0  0  0  0  0  0  0  0  0  0  0  0
  -20.9460  -29.8070   21.6800 H   0  0  0  0  0  0  0  0  0  0  0  0
  -18.0670  -28.0070   22.8090 C   0  0  0  0  0  0  0  0  0  0  0  0
  -20.6130  -28.3080   23.1330 C   0  0  0  0  0  3  0  0  0  0  0  0
  -20.7510  -26.8760   22.5660 C   0  0  0  0  0  2  0  0  0  0  0  0
  -19.6760  -26.5320   21.5300 C   0  0  0  0  0  2  0  0  0  0  0  0
  -18.2790  -26.6570   22.1460 C   0  0  0  0  0  2  0  0  0  0  0  0
  -19.1630  -28.7900   23.2580 C   0  0  0  0  0  0  0  0  0  0  0  0
  -18.9120  -30.0520   23.8390 C   0  0  0  0  0  3  0  0  0  0  0  0
  -17.5960  -30.5330   23.9760 C   0  0  0  0  0  3  0  0  0  0  0  0
  -16.5130  -29.7470   23.5450 C   0  0  0  0  0  3  0  0  0  0  0  0
  -16.7490  -28.4880   22.9660 C   0  0  0  0  0  3  0  0  0  0  0  0
  -25.8830  -32.5010   23.8510 C   0  0  0  0  0  3  0  0  0  0  0  0
  -25.5700  -33.8990   24.1760 N   0  0  0  0  0  0  0  0  0  0  0  0
  -25.9100  -34.9530   23.4210 C   0  0  0  0  0  0  0  0  0  0  0  0
  -26.5880  -34.8480   22.3950 O   0  0  0  0  0  0  0  0  0  0  0  0
  -24.9680  -34.0520   24.9720 H   0  0  0  0  0  0  0  0  0  0  0  0
  -24.1830  -36.7440   23.0520 C   0  0  0  0  0  1  0  0  0  0  0  0
  -25.4180  -36.3410   23.8730 C   0  0  0  0  0  3  0  0  0  0  0  0
  -27.5480  -37.2280   24.7150 C   0  0  0  0  0  1  0  0  0  0  0  0
  -26.4510  -37.3950   23.7660 N   0  0  0  0  0  0  0  0  0  0  0  0
  -26.0440  -38.3150   23.9120 H   0  0  0  0  0  0  0  0  0  0  0  0
  -26.3890  -31.7330   25.1350 C   0  0  1  0  0  0  0  0  0  0  0  0
  -25.2860  -31.5000   26.1930 C   0  0  0  0  0  1  0  0  0  0  0  0
  -26.9740  -30.3540   24.7500 C   0  0  0  0  0  1  0  0  0  0  0  0
  -27.5340  -32.5280   25.8050 C   0  0  0  0  0  1  0  0  0  0  0  0
  1 45  1  0
  1  3  1  0
  3  2  1  0
  3  4  1  1
  5  3  1  0
  5  6  2  0
  7  6  1  0
  7  8  2  0
  9  8  1  0
 10 15  1  0
 11 12  1  0
 11 10  1  0
 13 12  1  0
 13 20  1  0
 13 14  1  0
 15  9  1  0
 15 14  1  0
 16  9  2  0
 17 18  2  0
 18 37  1  0
 19 18  1  0
 19 22  1  0
 20 17  1  0
 20 21  1  0
 21 19  2  0
 22 23  1  0
 23 24  2  0
 25 28  1  0
 25 24  1  0
 26 25  2  0
 27 26  1  0
 27 22  2  0
 28 29  1  0
 29 30  1  0
 30 31  2  0
 32 31  1  0
 32 36  1  0
 33 32  2  0
 34 29  2  0
 34 33  1  0
 35 34  1  0
 37 38  1  0
 38 41  1  0
 38 40  1  0
 39 37  2  0
 42 43  1  0
 42 17  1  0
 44 42  1  0
 46 47  1  0
 46 45  2  0
 48 59  2  0
 49 47  1  0
 49 54  1  0
 50 58  1  0
 50 60  1  0
 51 57  1  0
 51 53  1  0
 52 58  1  0
 53 52  1  0
 54 53  2  0
 55 49  2  0
 56 55  1  0
 56 51  2  0
 57 50  1  0
 58 48  1  0
 60 62  2  0
 61 60  1  0
 63 61  1  0
 64 73  2  0
 64 69  1  0
 65 61  1  0
 65 69  1  0
 66 65  1  0
 67 68  1  0
 67 66  1  0
 68 64  1  0
 69 70  2  0
 70 71  1  0
 72 71  2  0
 73 72  1  0
 74 48  1  0
 74 75  1  0
 74 84  1  0
 75 78  1  0
 76 80  1  0
 76 75  1  0
 77 76  2  0
 80 79  1  0
 82 80  1  0
 82 83  1  0
 82 81  1  0
 84 87  1  1
 84 85  1  0
 86 84  1  0
M  ISO  4   8 100   9 100  46 101  47 101
M  END
>  <TORSDO>  (58) 
F 23

>  <SCORE>  (58) 
-11.903

>  <name>  (58) 
58

>  <ligand_id>  (58) 
58

>  <original_smiles>  (58) 
[H]c1c([H])c([H])c2c(c1[H])C([H])([H])C([H])([H])C([H])([H])C2([H])N([H])C(=O)C1([H])N(C(=O)C([H])(N([H])C(=O)C([H])(N([H])C([H])([H])[H])C([H])([H])[H])C(C([H])([H])[H])(C([H])([H])[H])C([H])([H])[H])C([H])([H])c2c([H])c(OC([H])([H])C([H])([H])C([H])([H])[N+]([H])(C([H])([H])[H])C([H])([H])C([H])([H])C([H])([H])C([H])([H])C(=O)N3C([H])([H])C([H])([H])C([H])([H])C([H])(n4nc(-c5c([H])c([H])c(Oc6c([H])c([H])c(F)c([H])c6F)c([H])c5[H])c(C(=O)N([H])[H])c4N([H])[H])C3([H])[H])c([H])c([H])c2C1([H])[H]

>  <smiles>  (58) 
[H]c1c([H])c([H])c2c(c1[H])C([H])([H])C([H])([H])C([H])([H])C2([H])N([H])C(=O)C1([H])N(C(=O)C([H])(N([H])C(=O)C([H])(N([H])C([H])([H])[H])C([H])([H])[H])C(C([H])([H])[H])(C([H])([H])[H])C([H])([H])[H])C([H])([H])c2c([H])c(OC([H])([H])C([H])([H])C([H])([H])[N+]([H])(C([H])([H])[H])C([H])([H])C([H])([H])C([H])([H])C([H])([H])C(=O)N3C([H])([H])C([H])([H])C([H])([H])C([H])(n4nc(-c5c([H])c([H])c(Oc6c([H])c([H])c(F)c([H])c6F)c([H])c5[H])c(C(=O)N([H])[H])c4N([H])[H])C3([H])[H])c([H])c([H])c2C1([H])[H]

$$$$
59:0:0
     RDKit          3D

 91 98  0  0  1  0  0  0  0  0999 V2000
  -29.2830  -22.5100   19.7950 C   0  0  0  0  0  3  0  0  0  0  0  0
  -28.9640  -21.6930   18.6120 N   0  0  0  0  0  4  0  0  0  0  0  0
  -28.0650  -21.2570   18.7100 H   0  0  0  0  0  0  0  0  0  0  0  0
  -29.6580  -20.9750   18.5020 H   0  0  0  0  0  0  0  0  0  0  0  0
  -28.9650  -22.2540   17.7780 H   0  0  0  0  0  0  0  0  0  0  0  0
  -29.6640  -20.1420   21.0960 C   0  0  0  0  0  3  0  0  0  0  0  0
  -29.5180  -21.5340   21.0230 C   0  0  0  0  0  0  0  0  0  0  0  0
  -30.2000  -21.6960   23.5600 C   0  0  0  0  0  1  0  0  0  0  0  0
  -29.6340  -22.3760   22.3000 C   0  0  0  0  0  2  0  0  0  0  0  0
  -29.6540  -18.9070   20.1130 C   0  0  0  0  0  2  0  0  0  0  0  0
  -30.5320  -17.5880   20.4800 C   0  0  0  0  0  2  0  0  0  0  0  0
  -29.8730  -16.1110   20.4910 C   0  0  0  0  0  2  0  0  0  0  0  0
  -30.7260  -14.7690   20.2650 C   0  0  0  0  0  0  0  0  0  0  0  0
  -30.5070  -12.5190   19.2100 C   0  0  0  0  0  2  0  0  0  0  0  0
  -29.5480  -12.6560   18.0030 C   0  0  0  0  0  2  0  0  0  0  0  0
  -28.0810  -12.4930   18.4470 C   0  0  0  0  0  2  0  0  0  0  0  0
  -27.7390  -13.3490   19.6950 C   0  0  0  0  0  3  0  0  0  0  0  0
  -28.8140  -13.1990   20.7940 C   0  0  0  0  0  2  0  0  0  0  0  0
  -30.1170  -13.5370   20.2070 N   0  0  0  0  0  0  0  0  0  0  0  0
  -31.9110  -14.8760   19.9310 O   0  0  0  0  0  0  0  0  0  0  0  0
  -25.3590  -13.9560   20.4390 C   0  0  0  0  0  0  0  0  0  0  0  0
  -24.2910  -13.1860   20.8160 C   0  0  0  0  0  0  0  0  0  0  0  0
  -24.7480  -11.8330   20.7850 C   0  0  0  0  0  0  0  0  0  0  0  0
  -26.3970  -13.0700   20.1970 N   0  0  0  0  0  0  0  0  0  0  0  0
  -26.0380  -11.7890   20.4680 N   0  0  0  0  0  0  0  0  0  0  0  0
  -24.0190  -10.5740   20.9820 C   0  0  0  0  0  0  0  0  0  0  0  0
  -24.4550   -9.6030   21.9110 C   0  0  0  0  0  3  0  0  0  0  0  0
  -23.7240   -8.4100   22.0940 C   0  0  0  0  0  3  0  0  0  0  0  0
  -22.5420   -8.1780   21.3490 C   0  0  0  0  0  0  0  0  0  0  0  0
  -22.1260   -9.1380   20.4090 C   0  0  0  0  0  3  0  0  0  0  0  0
  -22.8580  -10.3230   20.2240 C   0  0  0  0  0  3  0  0  0  0  0  0
  -21.7830   -7.0380   21.4430 O   0  0  0  0  0  0  0  0  0  0  0  0
  -21.7420   -6.2940   22.5950 C   0  0  0  0  0  0  0  0  0  0  0  0
  -21.3390   -6.8510   23.8290 C   0  0  0  0  0  3  0  0  0  0  0  0
  -21.2430   -6.0350   24.9730 C   0  0  0  0  0  3  0  0  0  0  0  0
  -21.5410   -4.6610   24.8850 C   0  0  0  0  0  0  0  0  0  0  0  0
  -21.9370   -4.1030   23.6570 C   0  0  0  0  0  3  0  0  0  0  0  0
  -22.0340   -4.9170   22.5150 C   0  0  0  0  0  0  0  0  0  0  0  0
  -22.3950   -4.3700   21.3300 F   0  0  0  0  0  0  0  0  0  0  0  0
  -21.4410   -3.8740   25.9820 F   0  0  0  0  0  0  0  0  0  0  0  0
  -22.8980  -13.6700   21.0950 C   0  0  0  0  0  0  0  0  0  0  0  0
  -22.1750  -12.9810   21.9700 N   0  0  0  0  0  0  0  0  0  0  0  0
  -22.4610  -14.6940   20.5740 O   0  0  0  0  0  0  0  0  0  0  0  0
  -22.5440  -12.1510   22.4120 H   0  0  0  0  0  0  0  0  0  0  0  0
  -21.2410  -13.2880   22.2030 H   0  0  0  0  0  0  0  0  0  0  0  0
  -25.5270  -15.3240   20.2600 N   0  0  0  0  0  0  0  0  0  0  0  0
  -24.7650  -15.9810   20.3800 H   0  0  0  0  0  0  0  0  0  0  0  0
  -26.3820  -15.7630   19.9410 H   0  0  0  0  0  0  0  0  0  0  0  0
  -28.2590  -23.7860   19.8720 C   0  0  0  0  0  2  0  0  0  0  0  0
  -28.5520  -25.1390   20.6890 C   0  0  0  0  0  2  0  0  0  0  0  0
  -28.4630  -26.5020   20.0870 O   0  0  0  0  0  0  0  0  0  0  0  0
  -24.6310  -31.8340   23.1830 C   0  0  0  0  0  0  0  0  0  0  0  0
  -27.3000  -27.2880   20.1470 C   0  0  0  0  0  0  0  0  0  0  0  0
  -23.4450  -30.4220   21.5380 C   0  0  0  0  0  3  0  0  0  0  0  0
  -24.9160  -28.8750   20.1250 C   0  0  0  0  0  0  0  0  0  0  0  0
  -25.9810  -30.7640   21.3640 C   0  0  0  0  0  2  0  0  0  0  0  0
  -26.0780  -29.3820   20.7210 C   0  0  0  0  0  0  0  0  0  0  0  0
  -27.2740  -28.6020   20.7140 C   0  0  0  0  0  3  0  0  0  0  0  0
  -26.1130  -26.8210   19.5470 C   0  0  0  0  0  3  0  0  0  0  0  0
  -24.9360  -27.5990   19.5300 C   0  0  0  0  0  3  0  0  0  0  0  0
  -23.6730  -29.7420   20.1610 C   0  0  0  0  0  2  0  0  0  0  0  0
  -24.7040  -31.0240   22.0870 N   0  0  0  0  0  0  0  0  0  0  0  0
  -23.5430  -32.1020   23.7130 O   0  0  0  0  0  0  0  0  0  0  0  0
  -22.7860  -29.4020   22.4970 C   0  0  0  0  0  0  0  0  0  0  0  0
  -21.4660  -29.1990   22.3500 N   0  0  0  0  0  0  0  0  0  0  0  0
  -23.4630  -28.7960   23.3320 O   0  0  0  0  0  0  0  0  0  0  0  0
  -20.9780  -29.7440   21.6520 H   0  0  0  0  0  0  0  0  0  0  0  0
  -18.1130  -27.9070   22.7610 C   0  0  0  0  0  0  0  0  0  0  0  0
  -20.6520  -28.2520   23.1100 C   0  0  0  0  0  3  0  0  0  0  0  0
  -20.8170  -26.8140   22.5650 C   0  0  0  0  0  2  0  0  0  0  0  0
  -19.7600  -26.4370   21.5220 C   0  0  0  0  0  2  0  0  0  0  0  0
  -18.3540  -26.5520   22.1170 C   0  0  0  0  0  2  0  0  0  0  0  0
  -19.1920  -28.7120   23.2120 C   0  0  0  0  0  0  0  0  0  0  0  0
  -18.9160  -29.9790   23.7710 C   0  0  0  0  0  3  0  0  0  0  0  0
  -17.5930  -30.4430   23.8820 C   0  0  0  0  0  3  0  0  0  0  0  0
  -16.5260  -29.6350   23.4510 C   0  0  0  0  0  3  0  0  0  0  0  0
  -16.7880  -28.3690   22.8950 C   0  0  0  0  0  3  0  0  0  0  0  0
  -25.9060  -32.4760   23.8120 C   0  0  0  0  0  3  0  0  0  0  0  0
  -26.4260  -31.7050   25.0880 C   0  0  1  0  0  0  0  0  0  0  0  0
  -25.3330  -31.4550   26.1530 C   0  0  0  0  0  1  0  0  0  0  0  0
  -27.0200  -30.3330   24.6940 C   0  0  0  0  0  1  0  0  0  0  0  0
  -27.5680  -32.5080   25.7570 C   0  0  0  0  0  1  0  0  0  0  0  0
  -25.5830  -33.8690   24.1470 N   0  0  0  0  0  0  0  0  0  0  0  0
  -25.9150  -34.9320   23.4010 C   0  0  0  0  0  0  0  0  0  0  0  0
  -26.5970  -34.8390   22.3750 O   0  0  0  0  0  0  0  0  0  0  0  0
  -24.9730  -34.0110   24.9400 H   0  0  0  0  0  0  0  0  0  0  0  0
  -24.1770  -36.7150   23.0510 C   0  0  0  0  0  1  0  0  0  0  0  0
  -25.4160  -36.3120   23.8650 C   0  0  0  0  0  3  0  0  0  0  0  0
  -27.5390  -37.2070   24.7140 C   0  0  0  0  0  1  0  0  0  0  0  0
  -26.4420  -37.3730   23.7650 N   0  0  0  0  0  0  0  0  0  0  0  0
  -26.0280  -38.2890   23.9180 H   0  0  0  0  0  0  0  0  0  0  0  0
  1 49  1  0
  1  7  1  0
  2  3  1  0
  2  1  1  0
  4  2  1  0
  5  2  1  0
  7  6  2  0
  7  9  1  0
  9  8  1  0
 10 11  1  0
 10  6  1  0
 11 12  1  0
 13 12  1  0
 14 19  1  0
 15 16  1  0
 15 14  1  0
 17 16  1  0
 17 24  1  0
 17 18  1  0
 19 13  1  0
 19 18  1  0
 20 13  2  0
 21 22  2  0
 22 41  1  0
 23 22  1  0
 23 26  1  0
 24 21  1  0
 24 25  1  0
 25 23  2  0
 26 27  1  0
 27 28  2  0
 29 32  1  0
 29 28  1  0
 30 29  2  0
 31 30  1  0
 31 26  2  0
 32 33  1  0
 33 34  1  0
 34 35  2  0
 36 35  1  0
 36 40  1  0
 37 36  2  0
 38 33  2  0
 38 37  1  0
 39 38  1  0
 41 42  1  0
 42 45  1  0
 42 44  1  0
 43 41  2  0
 46 47  1  0
 46 21  1  0
 48 46  1  0
 49 50  1  0
 51 53  1  0
 51 50  1  0
 52 63  2  0
 53 58  1  0
 54 62  1  0
 54 64  1  0
 55 61  1  0
 55 57  1  0
 56 62  1  0
 57 56  1  0
 58 57  2  0
 59 53  2  0
 60 59  1  0
 60 55  2  0
 61 54  1  0
 62 52  1  0
 64 66  2  0
 65 64  1  0
 67 65  1  0
 68 77  2  0
 68 73  1  0
 69 65  1  0
 69 73  1  0
 70 69  1  0
 71 72  1  0
 71 70  1  0
 72 68  1  0
 73 74  2  0
 74 75  1  0
 76 75  2  0
 77 76  1  0
 78 52  1  0
 78 83  1  0
 78 79  1  0
 79 82  1  1
 79 80  1  0
 81 79  1  0
 83 86  1  0
 84 88  1  0
 84 83  1  0
 85 84  2  0
 88 87  1  0
 90 88  1  0
 90 91  1  0
 90 89  1  0
M  ISO  4  12 100  13 100  50 101  51 101
M  END
>  <TORSDO>  (59) 
F 24

>  <SCORE>  (59) 
-12.708

>  <name>  (59) 
59

>  <ligand_id>  (59) 
59

>  <original_smiles>  (59) 
[H]C(=C(C([H])([H])C([H])([H])[H])C([H])(C([H])([H])C([H])([H])Oc1c([H])c([H])c2c(c1[H])C([H])([H])N(C(=O)C([H])(N([H])C(=O)C([H])(N([H])C([H])([H])[H])C([H])([H])[H])C(C([H])([H])[H])(C([H])([H])[H])C([H])([H])[H])C([H])(C(=O)N([H])C1([H])c3c([H])c([H])c([H])c([H])c3C([H])([H])C([H])([H])C1([H])[H])C2([H])[H])[N+]([H])([H])[H])C([H])([H])C([H])([H])C([H])([H])C(=O)N1C([H])([H])C([H])([H])C([H])([H])C([H])(n2nc(-c3c([H])c([H])c(Oc4c([H])c([H])c(F)c([H])c4F)c([H])c3[H])c(C(=O)N([H])[H])c2N([H])[H])C1([H])[H]

>  <smiles>  (59) 
[H]C(=C(C([H])([H])C([H])([H])[H])C([H])(C([H])([H])C([H])([H])Oc1c([H])c([H])c2c(c1[H])C([H])([H])N(C(=O)C([H])(N([H])C(=O)C([H])(N([H])C([H])([H])[H])C([H])([H])[H])C(C([H])([H])[H])(C([H])([H])[H])C([H])([H])[H])C([H])(C(=O)N([H])C1([H])c3c([H])c([H])c([H])c([H])c3C([H])([H])C([H])([H])C1([H])[H])C2([H])[H])[N+]([H])([H])[H])C([H])([H])C([H])([H])C([H])([H])C(=O)N1C([H])([H])C([H])([H])C([H])([H])C([H])(n2nc(-c3c([H])c([H])c(Oc4c([H])c([H])c(F)c([H])c4F)c([H])c3[H])c(C(=O)N([H])[H])c2N([H])[H])C1([H])[H]

$$$$
60:0:0
     RDKit          3D

 89 96  0  0  1  0  0  0  0  0999 V2000
  -29.2630  -21.3040   20.5680 C   0  0  0  0  0  3  0  0  0  0  0  0
  -28.2090  -19.6620   18.8840 C   0  0  0  0  0  1  0  0  0  0  0  0
  -28.8980  -19.7240   20.1950 N   0  0  1  0  0  4  0  0  0  0  0  0
  -28.1520  -19.5390   20.8490 H   0  0  0  0  0  0  0  0  0  0  0  0
  -29.8500  -18.3750   20.3700 C   0  0  0  0  0  3  0  0  0  0  0  0
  -29.4150  -16.6570   20.2650 C   0  0  0  0  0  3  0  0  0  0  0  0
  -30.3270  -15.1910   20.0750 C   0  0  0  0  0  0  0  0  0  0  0  0
  -30.3000  -12.7850   19.1290 C   0  0  0  0  0  2  0  0  0  0  0  0
  -29.3210  -12.6990   17.9300 C   0  0  0  0  0  2  0  0  0  0  0  0
  -27.8800  -12.4350   18.4090 C   0  0  0  0  0  2  0  0  0  0  0  0
  -27.4990  -13.3230   19.6190 C   0  0  0  0  0  3  0  0  0  0  0  0
  -28.5970  -13.3680   20.6980 C   0  0  0  0  0  2  0  0  0  0  0  0
  -29.8190  -13.8690   20.0510 N   0  0  0  0  0  0  0  0  0  0  0  0
  -31.5290  -15.2510   19.7720 O   0  0  0  0  0  0  0  0  0  0  0  0
  -25.1620  -13.8570   20.4880 C   0  0  0  0  0  0  0  0  0  0  0  0
  -24.1220  -13.0690   20.8900 C   0  0  0  0  0  0  0  0  0  0  0  0
  -24.5930  -11.7210   20.8160 C   0  0  0  0  0  0  0  0  0  0  0  0
  -26.1950  -12.9920   20.1760 N   0  0  0  0  0  0  0  0  0  0  0  0
  -25.8680  -11.6990   20.4390 N   0  0  0  0  0  0  0  0  0  0  0  0
  -23.8820  -10.4510   21.0180 C   0  0  0  0  0  0  0  0  0  0  0  0
  -24.3510   -9.4780   21.9270 C   0  0  0  0  0  3  0  0  0  0  0  0
  -23.6380   -8.2730   22.1190 C   0  0  0  0  0  3  0  0  0  0  0  0
  -22.4420   -8.0350   21.4000 C   0  0  0  0  0  0  0  0  0  0  0  0
  -21.9930   -8.9980   20.4770 C   0  0  0  0  0  3  0  0  0  0  0  0
  -22.7060  -10.1920   20.2860 C   0  0  0  0  0  3  0  0  0  0  0  0
  -21.6990   -6.8850   21.5000 O   0  0  0  0  0  0  0  0  0  0  0  0
  -21.6870   -6.1330   22.6470 C   0  0  0  0  0  0  0  0  0  0  0  0
  -21.2730   -6.6710   23.8850 C   0  0  0  0  0  3  0  0  0  0  0  0
  -21.2090   -5.8440   25.0260 C   0  0  0  0  0  3  0  0  0  0  0  0
  -21.5480   -4.4820   24.9280 C   0  0  0  0  0  0  0  0  0  0  0  0
  -21.9570   -3.9440   23.6940 C   0  0  0  0  0  3  0  0  0  0  0  0
  -22.0210   -4.7660   22.5570 C   0  0  0  0  0  0  0  0  0  0  0  0
  -22.3950   -4.2390   21.3670 F   0  0  0  0  0  0  0  0  0  0  0  0
  -21.4800   -3.6860   26.0200 F   0  0  0  0  0  0  0  0  0  0  0  0
  -22.7360  -13.5310   21.2300 C   0  0  0  0  0  0  0  0  0  0  0  0
  -22.0520  -12.8140   22.1130 N   0  0  0  0  0  0  0  0  0  0  0  0
  -22.2700  -14.5630   20.7480 O   0  0  0  0  0  0  0  0  0  0  0  0
  -22.4440  -11.9790   22.5250 H   0  0  0  0  0  0  0  0  0  0  0  0
  -21.1220  -13.1020   22.3790 H   0  0  0  0  0  0  0  0  0  0  0  0
  -25.3130  -15.2330   20.3330 N   0  0  0  0  0  0  0  0  0  0  0  0
  -24.5480  -15.8840   20.4810 H   0  0  0  0  0  0  0  0  0  0  0  0
  -26.1430  -15.6770   19.9620 H   0  0  0  0  0  0  0  0  0  0  0  0
  -28.3470  -22.7720   20.1210 C   0  0  0  0  0  2  0  0  0  0  0  0
  -28.2540  -24.4230   20.7920 C   0  0  0  0  0  2  0  0  0  0  0  0
  -28.2930  -25.9720   20.2870 O   0  0  0  0  0  0  0  0  0  0  0  0
  -24.6380  -31.8640   23.2480 C   0  0  0  0  0  0  0  0  0  0  0  0
  -27.2390  -27.0050   20.3150 C   0  0  0  0  0  0  0  0  0  0  0  0
  -23.4640  -30.4520   21.6090 C   0  0  0  0  0  3  0  0  0  0  0  0
  -24.9260  -28.8390   20.2230 C   0  0  0  0  0  0  0  0  0  0  0  0
  -26.0260  -30.6850   21.4780 C   0  0  0  0  0  2  0  0  0  0  0  0
  -26.1070  -29.2700   20.8440 C   0  0  0  0  0  0  0  0  0  0  0  0
  -27.2630  -28.3770   20.8580 C   0  0  0  0  0  3  0  0  0  0  0  0
  -26.0290  -26.7060   19.6590 C   0  0  0  0  0  3  0  0  0  0  0  0
  -24.9100  -27.5760   19.6080 C   0  0  0  0  0  3  0  0  0  0  0  0
  -23.7030  -29.7510   20.2440 C   0  0  0  0  0  2  0  0  0  0  0  0
  -24.7300  -31.0270   22.1660 N   0  0  0  0  0  0  0  0  0  0  0  0
  -23.5440  -32.1540   23.7600 O   0  0  0  0  0  0  0  0  0  0  0  0
  -22.7630  -29.4630   22.5770 C   0  0  0  0  0  0  0  0  0  0  0  0
  -21.4370  -29.2840   22.4330 N   0  0  0  0  0  0  0  0  0  0  0  0
  -23.4200  -28.8500   23.4230 O   0  0  0  0  0  0  0  0  0  0  0  0
  -20.9590  -29.8280   21.7270 H   0  0  0  0  0  0  0  0  0  0  0  0
  -18.0590  -28.0510   22.9000 C   0  0  0  0  0  0  0  0  0  0  0  0
  -20.6100  -28.3500   23.2040 C   0  0  0  0  0  3  0  0  0  0  0  0
  -20.7380  -26.9110   22.6540 C   0  0  0  0  0  2  0  0  0  0  0  0
  -19.6580  -26.5590   21.6260 C   0  0  0  0  0  2  0  0  0  0  0  0
  -18.2630  -26.6960   22.2430 C   0  0  0  0  0  2  0  0  0  0  0  0
  -19.1600  -28.8350   23.3360 C   0  0  0  0  0  0  0  0  0  0  0  0
  -18.9150  -30.0990   23.9120 C   0  0  0  0  0  3  0  0  0  0  0  0
  -17.6010  -30.5840   24.0550 C   0  0  0  0  0  3  0  0  0  0  0  0
  -16.5140  -29.8000   23.6320 C   0  0  0  0  0  3  0  0  0  0  0  0
  -16.7430  -28.5350   23.0610 C   0  0  0  0  0  3  0  0  0  0  0  0
  -25.9040  -32.5130   23.8850 C   0  0  0  0  0  3  0  0  0  0  0  0
  -25.5840  -33.9180   24.1950 N   0  0  0  0  0  0  0  0  0  0  0  0
  -25.9250  -34.9690   23.4370 C   0  0  0  0  0  0  0  0  0  0  0  0
  -26.6050  -34.8590   22.4150 O   0  0  0  0  0  0  0  0  0  0  0  0
  -24.9800  -34.0780   24.9880 H   0  0  0  0  0  0  0  0  0  0  0  0
  -24.2040  -36.7690   23.0590 C   0  0  0  0  0  1  0  0  0  0  0  0
  -25.4370  -36.3630   23.8820 C   0  0  0  0  0  3  0  0  0  0  0  0
  -27.5620  -37.2560   24.7300 C   0  0  0  0  0  1  0  0  0  0  0  0
  -26.4710  -37.4150   23.7720 N   0  0  0  0  0  0  0  0  0  0  0  0
  -26.0650  -38.3360   23.9070 H   0  0  0  0  0  0  0  0  0  0  0  0
  -26.3930  -31.7650   25.1870 C   0  0  1  0  0  0  0  0  0  0  0  0
  -25.2790  -31.5510   26.2380 C   0  0  0  0  0  1  0  0  0  0  0  0
  -26.9780  -30.3760   24.8430 C   0  0  0  0  0  1  0  0  0  0  0  0
  -27.5290  -32.5720   25.8590 C   0  0  0  0  0  1  0  0  0  0  0  0
  -30.7230  -21.6280   20.1380 C   0  0  0  0  0  2  0  0  0  0  0  0
  -31.9280  -21.2700   22.3990 C   0  0  0  0  0  1  0  0  0  0  0  0
  -33.2340  -21.4050   20.2520 C   0  0  0  0  0  1  0  0  0  0  0  0
  -31.9070  -20.9650   20.8910 C   0  0  0  0  0  3  0  0  0  0  0  0
  1 43  1  0
  2  3  1  0
  3  5  1  0
  3  1  1  0
  3  4  1  1
  6  5  2  0
  7  6  1  0
  8 13  1  0
  9 10  1  0
  9  8  1  0
 11 10  1  0
 11 18  1  0
 11 12  1  0
 13  7  1  0
 13 12  1  0
 14  7  2  0
 15 16  2  0
 16 35  1  0
 17 16  1  0
 17 20  1  0
 18 19  1  0
 18 15  1  0
 19 17  2  0
 20 21  1  0
 21 22  2  0
 23 26  1  0
 23 22  1  0
 24 23  2  0
 25 24  1  0
 25 20  2  0
 26 27  1  0
 27 28  1  0
 28 29  2  0
 30 29  1  0
 30 34  1  0
 31 30  2  0
 32 27  2  0
 32 31  1  0
 33 32  1  0
 35 36  1  0
 36 39  1  0
 36 38  1  0
 37 35  2  0
 40 41  1  0
 40 15  1  0
 42 40  1  0
 43 44  1  0
 45 47  1  0
 45 44  1  0
 46 57  2  0
 47 52  1  0
 48 56  1  0
 48 58  1  0
 49 55  1  0
 49 51  1  0
 50 56  1  0
 51 52  2  0
 51 50  1  0
 53 47  2  0
 54 53  1  0
 54 49  2  0
 55 48  1  0
 56 46  1  0
 58 60  2  0
 59 58  1  0
 61 59  1  0
 62 71  2  0
 62 67  1  0
 63 59  1  0
 63 67  1  0
 64 63  1  0
 65 66  1  0
 65 64  1  0
 66 62  1  0
 67 68  2  0
 68 69  1  0
 70 69  2  0
 71 70  1  0
 72 46  1  0
 72 73  1  0
 72 82  1  0
 73 76  1  0
 74 78  1  0
 74 73  1  0
 75 74  2  0
 78 77  1  0
 80 78  1  0
 80 81  1  0
 80 79  1  0
 82 85  1  1
 82 83  1  0
 84 82  1  0
 86  1  1  0
 86 89  1  0
 88 89  1  0
 89 87  1  0
M  ISO  4   6 100   7 100  44 101  45 101
M  END
>  <TORSDO>  (60) 
F 23

>  <SCORE>  (60) 
-14.615

>  <name>  (60) 
60

>  <ligand_id>  (60) 
60

>  <original_smiles>  (60) 
[H]c1c([H])c([H])c2c(c1[H])C([H])([H])C([H])([H])C([H])([H])C2([H])N([H])C(=O)C1([H])N(C(=O)C([H])(N([H])C(=O)C([H])(N([H])C([H])([H])[H])C([H])([H])[H])C(C([H])([H])[H])(C([H])([H])[H])C([H])([H])[H])C([H])([H])c2c([H])c(OC([H])([H])C([H])([H])C([H])(C([H])([H])C([H])(C([H])([H])[H])C([H])([H])[H])[N+]([H])(C([H])([H])[H])C([H])([H])C([H])([H])C(=O)N3C([H])([H])C([H])([H])C([H])([H])C([H])(n4nc(-c5c([H])c([H])c(Oc6c([H])c([H])c(F)c([H])c6F)c([H])c5[H])c(C(=O)N([H])[H])c4N([H])[H])C3([H])[H])c([H])c([H])c2C1([H])[H]

>  <smiles>  (60) 
[H]c1c([H])c([H])c2c(c1[H])C([H])([H])C([H])([H])C([H])([H])C2([H])N([H])C(=O)C1([H])N(C(=O)C([H])(N([H])C(=O)C([H])(N([H])C([H])([H])[H])C([H])([H])[H])C(C([H])([H])[H])(C([H])([H])[H])C([H])([H])[H])C([H])([H])c2c([H])c(OC([H])([H])C([H])([H])C([H])(C([H])([H])C([H])(C([H])([H])[H])C([H])([H])[H])[N+]([H])(C([H])([H])[H])C([H])([H])C([H])([H])C(=O)N3C([H])([H])C([H])([H])C([H])([H])C([H])(n4nc(-c5c([H])c([H])c(Oc6c([H])c([H])c(F)c([H])c6F)c([H])c5[H])c(C(=O)N([H])[H])c4N([H])[H])C3([H])[H])c([H])c([H])c2C1([H])[H]

$$$$
61:0:0
     RDKit          3D

 94101  0  0  1  0  0  0  0  0999 V2000
  -29.0140  -20.5640   20.3480 N   0  0  0  0  0  4  0  0  0  0  0  0
  -28.3550  -20.3860   19.6090 H   0  0  0  0  0  0  0  0  0  0  0  0
  -28.4940  -20.4340   21.2010 H   0  0  0  0  0  0  0  0  0  0  0  0
  -29.9970  -22.5210   18.9670 C   0  0  0  0  0  1  0  0  0  0  0  0
  -29.3520  -22.1230   20.3060 C   0  0  0  0  0  3  0  0  0  0  0  0
  -28.1660  -23.2920   20.4900 C   0  0  0  0  0  2  0  0  0  0  0  0
  -28.3610  -24.8890   20.9800 C   0  0  0  0  0  2  0  0  0  0  0  0
  -28.3250  -26.2360   20.2390 O   0  0  0  0  0  0  0  0  0  0  0  0
  -24.6240  -31.8590   23.2300 C   0  0  0  0  0  0  0  0  0  0  0  0
  -27.2260  -27.1500   20.2760 C   0  0  0  0  0  0  0  0  0  0  0  0
  -23.4310  -30.4430   21.6010 C   0  0  0  0  0  3  0  0  0  0  0  0
  -24.8860  -28.8480   20.2120 C   0  0  0  0  0  0  0  0  0  0  0  0
  -25.9810  -30.7230   21.4350 C   0  0  0  0  0  2  0  0  0  0  0  0
  -26.0610  -29.3230   20.8080 C   0  0  0  0  0  0  0  0  0  0  0  0
  -27.2370  -28.4930   20.8130 C   0  0  0  0  0  3  0  0  0  0  0  0
  -26.0260  -26.7510   19.6580 C   0  0  0  0  0  3  0  0  0  0  0  0
  -24.8750  -27.5720   19.6250 C   0  0  0  0  0  3  0  0  0  0  0  0
  -23.6570  -29.7430   20.2350 C   0  0  0  0  0  2  0  0  0  0  0  0
  -24.6990  -31.0290   22.1460 N   0  0  0  0  0  0  0  0  0  0  0  0
  -23.5350  -32.1460   23.7540 O   0  0  0  0  0  0  0  0  0  0  0  0
  -22.7510  -29.4450   22.5740 C   0  0  0  0  0  0  0  0  0  0  0  0
  -21.4220  -29.2820   22.4500 N   0  0  0  0  0  0  0  0  0  0  0  0
  -23.4210  -28.8230   23.4020 O   0  0  0  0  0  0  0  0  0  0  0  0
  -20.9390  -29.8300   21.7530 H   0  0  0  0  0  0  0  0  0  0  0  0
  -18.0370  -28.1040   22.9650 C   0  0  0  0  0  0  0  0  0  0  0  0
  -20.5970  -28.3540   23.2270 C   0  0  0  0  0  3  0  0  0  0  0  0
  -20.6900  -26.9180   22.6610 C   0  0  0  0  0  2  0  0  0  0  0  0
  -19.5840  -26.5940   21.6510 C   0  0  0  0  0  2  0  0  0  0  0  0
  -18.2040  -26.7520   22.2960 C   0  0  0  0  0  2  0  0  0  0  0  0
  -19.1590  -28.8650   23.3880 C   0  0  0  0  0  0  0  0  0  0  0  0
  -18.9470  -30.1300   23.9770 C   0  0  0  0  0  3  0  0  0  0  0  0
  -17.6450  -30.6390   24.1430 C   0  0  0  0  0  3  0  0  0  0  0  0
  -16.5360  -29.8760   23.7360 C   0  0  0  0  0  3  0  0  0  0  0  0
  -16.7320  -28.6100   23.1550 C   0  0  0  0  0  3  0  0  0  0  0  0
  -25.8990  -32.5020   23.8570 C   0  0  0  0  0  3  0  0  0  0  0  0
  -26.4090  -31.7400   25.1420 C   0  0  1  0  0  0  0  0  0  0  0  0
  -25.3110  -31.5100   26.2080 C   0  0  0  0  0  1  0  0  0  0  0  0
  -26.9950  -30.3610   24.7670 C   0  0  0  0  0  1  0  0  0  0  0  0
  -27.5570  -32.5410   25.8030 C   0  0  0  0  0  1  0  0  0  0  0  0
  -25.5820  -33.9020   24.1830 N   0  0  0  0  0  0  0  0  0  0  0  0
  -25.9170  -34.9560   23.4260 C   0  0  0  0  0  0  0  0  0  0  0  0
  -26.5880  -34.8510   22.3960 O   0  0  0  0  0  0  0  0  0  0  0  0
  -24.9830  -34.0570   24.9800 H   0  0  0  0  0  0  0  0  0  0  0  0
  -24.1880  -36.7480   23.0700 C   0  0  0  0  0  1  0  0  0  0  0  0
  -25.4280  -36.3450   23.8820 C   0  0  0  0  0  3  0  0  0  0  0  0
  -27.5610  -37.2310   24.7140 C   0  0  0  0  0  1  0  0  0  0  0  0
  -26.4600  -37.3980   23.7690 N   0  0  0  0  0  0  0  0  0  0  0  0
  -26.0540  -38.3180   23.9150 H   0  0  0  0  0  0  0  0  0  0  0  0
  -30.0460  -19.3500   20.3350 C   0  0  0  0  0  3  0  0  0  0  0  0
  -30.9850  -19.3470   19.0970 C   0  0  0  0  0  2  0  0  0  0  0  0
  -33.0620  -20.4420   18.0470 C   0  0  0  0  0  1  0  0  0  0  0  0
  -33.3580  -18.9610   20.0540 C   0  0  0  0  0  1  0  0  0  0  0  0
  -32.4050  -19.9420   19.3450 C   0  0  0  0  0  3  0  0  0  0  0  0
  -29.5240  -17.7820   20.6990 C   0  0  0  0  0  3  0  0  0  0  0  0
  -29.6780  -17.5020   22.1210 N   0  0  0  0  0  0  0  0  0  0  0  0
  -30.6620  -17.4740   22.3690 H   0  0  0  0  0  0  0  0  0  0  0  0
  -29.2980  -18.2480   22.6940 H   0  0  0  0  0  0  0  0  0  0  0  0
  -29.6310  -16.3210   19.8620 C   0  0  0  0  0  2  0  0  0  0  0  0
  -30.5380  -14.9310   19.9630 C   0  0  0  0  0  0  0  0  0  0  0  0
  -30.3670  -12.6180   18.9550 C   0  0  0  0  0  2  0  0  0  0  0  0
  -29.3640  -12.6810   17.7770 C   0  0  0  0  0  2  0  0  0  0  0  0
  -27.9210  -12.4570   18.2720 C   0  0  0  0  0  2  0  0  0  0  0  0
  -27.5950  -13.3220   19.5160 C   0  0  0  0  0  3  0  0  0  0  0  0
  -28.7090  -13.2630   20.5830 C   0  0  0  0  0  2  0  0  0  0  0  0
  -29.9670  -13.6620   19.9390 N   0  0  0  0  0  0  0  0  0  0  0  0
  -31.7440  -15.0030   19.7000 O   0  0  0  0  0  0  0  0  0  0  0  0
  -25.2570  -13.9060   20.3830 C   0  0  0  0  0  0  0  0  0  0  0  0
  -24.2090  -13.1270   20.7940 C   0  0  0  0  0  0  0  0  0  0  0  0
  -24.6690  -11.7770   20.7270 C   0  0  0  0  0  0  0  0  0  0  0  0
  -26.2830  -13.0250   20.0790 N   0  0  0  0  0  0  0  0  0  0  0  0
  -25.9410  -11.7390   20.3470 N   0  0  0  0  0  0  0  0  0  0  0  0
  -23.9500  -10.5140   20.9370 C   0  0  0  0  0  0  0  0  0  0  0  0
  -24.4080   -9.5480   21.8590 C   0  0  0  0  0  3  0  0  0  0  0  0
  -23.6890   -8.3490   22.0580 C   0  0  0  0  0  3  0  0  0  0  0  0
  -22.4980   -8.1090   21.3310 C   0  0  0  0  0  0  0  0  0  0  0  0
  -22.0580   -9.0660   20.4000 C   0  0  0  0  0  3  0  0  0  0  0  0
  -22.7780  -10.2550   20.2000 C   0  0  0  0  0  3  0  0  0  0  0  0
  -21.7470   -6.9650   21.4390 O   0  0  0  0  0  0  0  0  0  0  0  0
  -21.7100   -6.2350   22.5990 C   0  0  0  0  0  0  0  0  0  0  0  0
  -21.2940   -6.8030   23.8230 C   0  0  0  0  0  3  0  0  0  0  0  0
  -21.2050   -6.0020   24.9780 C   0  0  0  0  0  3  0  0  0  0  0  0
  -21.5170   -4.6310   24.9110 C   0  0  0  0  0  0  0  0  0  0  0  0
  -21.9260   -4.0610   23.6930 C   0  0  0  0  0  3  0  0  0  0  0  0
  -22.0180   -4.8610   22.5400 C   0  0  0  0  0  0  0  0  0  0  0  0
  -22.3930   -4.3020   21.3650 F   0  0  0  0  0  0  0  0  0  0  0  0
  -21.4240   -3.8590   26.0190 F   0  0  0  0  0  0  0  0  0  0  0  0
  -22.8310  -13.6070   21.1420 C   0  0  0  0  0  0  0  0  0  0  0  0
  -22.1450  -12.9020   22.0350 N   0  0  0  0  0  0  0  0  0  0  0  0
  -22.3720  -14.6400   20.6580 O   0  0  0  0  0  0  0  0  0  0  0  0
  -22.5380  -12.0660   22.4460 H   0  0  0  0  0  0  0  0  0  0  0  0
  -21.2220  -13.2010   22.3080 H   0  0  0  0  0  0  0  0  0  0  0  0
  -25.4190  -15.2780   20.2220 N   0  0  0  0  0  0  0  0  0  0  0  0
  -24.6740  -15.9410   20.4010 H   0  0  0  0  0  0  0  0  0  0  0  0
  -26.2720  -15.7180   19.9050 H   0  0  0  0  0  0  0  0  0  0  0  0
  1  3  1  0
  2  1  1  0
  5  4  1  0
  5  1  1  0
  5  6  1  0
  6  7  1  0
  8 10  1  0
  8  7  1  0
  9 20  2  0
 10 15  1  0
 11 19  1  0
 11 21  1  0
 12 18  1  0
 12 14  1  0
 13 19  1  0
 14 15  2  0
 14 13  1  0
 16 10  2  0
 17 16  1  0
 17 12  2  0
 18 11  1  0
 19  9  1  0
 21 23  2  0
 22 21  1  0
 24 22  1  0
 25 34  2  0
 25 30  1  0
 26 22  1  0
 26 30  1  0
 27 26  1  0
 28 29  1  0
 28 27  1  0
 29 25  1  0
 30 31  2  0
 31 32  1  0
 33 32  2  0
 34 33  1  0
 35  9  1  0
 35 40  1  0
 35 36  1  0
 36 39  1  1
 36 37  1  0
 38 36  1  0
 40 43  1  0
 41 45  1  0
 41 40  1  0
 42 41  2  0
 45 44  1  0
 47 45  1  0
 47 48  1  0
 47 46  1  0
 49 50  1  0
 49  1  1  0
 49 54  1  0
 50 53  1  0
 51 53  1  0
 53 52  1  0
 54 58  1  0
 54 55  1  0
 55 56  1  0
 55 57  1  0
 58 59  1  0
 60 65  1  0
 61 62  1  0
 61 60  1  0
 63 62  1  0
 63 70  1  0
 63 64  1  0
 65 59  1  0
 65 64  1  0
 66 59  2  0
 67 68  2  0
 68 87  1  0
 69 68  1  0
 69 72  1  0
 70 71  1  0
 70 67  1  0
 71 69  2  0
 72 73  1  0
 73 74  2  0
 75 78  1  0
 75 74  1  0
 76 75  2  0
 77 76  1  0
 77 72  2  0
 78 79  1  0
 79 80  1  0
 80 81  2  0
 82 81  1  0
 82 86  1  0
 83 82  2  0
 84 79  2  0
 84 83  1  0
 85 84  1  0
 87 88  1  0
 88 91  1  0
 88 90  1  0
 89 87  2  0
 92 67  1  0
 92 93  1  0
 94 92  1  0
M  ISO  4   7 101   8 101  58 100  59 100
M  END
>  <TORSDO>  (61) 
F 25

>  <SCORE>  (61) 
-12.259

>  <name>  (61) 
61

>  <ligand_id>  (61) 
61

>  <original_smiles>  (61) 
[H]c1c([H])c([H])c2c(c1[H])C([H])([H])C([H])([H])C([H])([H])C2([H])N([H])C(=O)C1([H])N(C(=O)C([H])(N([H])C(=O)C([H])(N([H])C([H])([H])[H])C([H])([H])[H])C(C([H])([H])[H])(C([H])([H])[H])C([H])([H])[H])C([H])([H])c2c([H])c(OC([H])([H])C([H])([H])C([H])(C([H])([H])[H])[N+]([H])([H])C([H])(C([H])([H])C([H])(C([H])([H])[H])C([H])([H])[H])C([H])(N([H])[H])C([H])([H])C(=O)N3C([H])([H])C([H])([H])C([H])([H])C([H])(n4nc(-c5c([H])c([H])c(Oc6c([H])c([H])c(F)c([H])c6F)c([H])c5[H])c(C(=O)N([H])[H])c4N([H])[H])C3([H])[H])c([H])c([H])c2C1([H])[H]

>  <smiles>  (61) 
[H]c1c([H])c([H])c2c(c1[H])C([H])([H])C([H])([H])C([H])([H])C2([H])N([H])C(=O)C1([H])N(C(=O)C([H])(N([H])C(=O)C([H])(N([H])C([H])([H])[H])C([H])([H])[H])C(C([H])([H])[H])(C([H])([H])[H])C([H])([H])[H])C([H])([H])c2c([H])c(OC([H])([H])C([H])([H])C([H])(C([H])([H])[H])[N+]([H])([H])C([H])(C([H])([H])C([H])(C([H])([H])[H])C([H])([H])[H])C([H])(N([H])[H])C([H])([H])C(=O)N3C([H])([H])C([H])([H])C([H])([H])C([H])(n4nc(-c5c([H])c([H])c(Oc6c([H])c([H])c(F)c([H])c6F)c([H])c5[H])c(C(=O)N([H])[H])c4N([H])[H])C3([H])[H])c([H])c([H])c2C1([H])[H]

$$$$
62:0:0
     RDKit          3D

 87 95  0  0  1  0  0  0  0  0999 V2000
  -29.5380  -22.2080   19.5200 C   0  0  0  0  0  3  0  0  0  0  0  0
  -27.5870  -22.0270   20.7150 C   0  0  0  0  0  3  0  0  0  0  0  0
  -29.3610  -23.6870   19.5190 C   0  0  0  0  0  3  0  0  0  0  0  0
  -27.4070  -23.4990   20.7160 C   0  0  0  0  0  3  0  0  0  0  0  0
  -28.6640  -21.2160   20.1270 C   0  0  0  0  0  0  0  0  0  0  0  0
  -28.2860  -24.4820   20.1130 C   0  0  0  0  0  0  0  0  0  0  0  0
  -27.3900  -19.1320   20.3940 C   0  0  0  0  0  1  0  0  0  0  0  0
  -28.7370  -19.6620   20.1670 N   0  0  0  0  0  0  0  0  0  0  0  0
  -29.8080  -18.4490   19.9630 C   0  0  0  0  0  3  0  0  0  0  0  0
  -29.5570  -16.7030   20.2470 C   0  0  0  0  0  3  0  0  0  0  0  0
  -30.4430  -15.2510   19.8750 C   0  0  0  0  0  0  0  0  0  0  0  0
  -30.4210  -12.8330   18.9470 C   0  0  0  0  0  2  0  0  0  0  0  0
  -29.4190  -12.7140   17.7710 C   0  0  0  0  0  2  0  0  0  0  0  0
  -27.9910  -12.4440   18.2820 C   0  0  0  0  0  2  0  0  0  0  0  0
  -27.6250  -13.3530   19.4830 C   0  0  0  0  0  3  0  0  0  0  0  0
  -28.7440  -13.4220   20.5410 C   0  0  0  0  0  2  0  0  0  0  0  0
  -29.9480  -13.9230   19.8680 N   0  0  0  0  0  0  0  0  0  0  0  0
  -31.6180  -15.3250   19.4860 O   0  0  0  0  0  0  0  0  0  0  0  0
  -25.3130  -13.8840   20.4220 C   0  0  0  0  0  0  0  0  0  0  0  0
  -24.2800  -13.0940   20.8400 C   0  0  0  0  0  0  0  0  0  0  0  0
  -24.7410  -11.7470   20.7300 C   0  0  0  0  0  0  0  0  0  0  0  0
  -26.3330  -13.0190   20.0690 N   0  0  0  0  0  0  0  0  0  0  0  0
  -26.0060  -11.7240   20.3220 N   0  0  0  0  0  0  0  0  0  0  0  0
  -24.0290  -10.4770   20.9310 C   0  0  0  0  0  0  0  0  0  0  0  0
  -24.4670   -9.5220   21.8720 C   0  0  0  0  0  3  0  0  0  0  0  0
  -23.7500   -8.3200   22.0600 C   0  0  0  0  0  3  0  0  0  0  0  0
  -22.5800   -8.0650   21.3040 C   0  0  0  0  0  0  0  0  0  0  0  0
  -22.1630   -9.0090   20.3500 C   0  0  0  0  0  3  0  0  0  0  0  0
  -22.8810  -10.2020   20.1600 C   0  0  0  0  0  3  0  0  0  0  0  0
  -21.8350   -6.9150   21.4010 O   0  0  0  0  0  0  0  0  0  0  0  0
  -21.7080   -6.2370   22.5870 C   0  0  0  0  0  0  0  0  0  0  0  0
  -21.1480   -6.8400   23.7340 C   0  0  0  0  0  3  0  0  0  0  0  0
  -20.9710   -6.0870   24.9100 C   0  0  0  0  0  3  0  0  0  0  0  0
  -21.3430   -4.7290   24.9420 C   0  0  0  0  0  0  0  0  0  0  0  0
  -21.8960   -4.1250   23.7980 C   0  0  0  0  0  3  0  0  0  0  0  0
  -22.0740   -4.8760   22.6230 C   0  0  0  0  0  0  0  0  0  0  0  0
  -22.5880   -4.2830   21.5190 F   0  0  0  0  0  0  0  0  0  0  0  0
  -21.1660   -4.0020   26.0700 F   0  0  0  0  0  0  0  0  0  0  0  0
  -22.9050  -13.5610   21.2240 C   0  0  0  0  0  0  0  0  0  0  0  0
  -22.2420  -12.8400   22.1210 N   0  0  0  0  0  0  0  0  0  0  0  0
  -22.4330  -14.5990   20.7630 O   0  0  0  0  0  0  0  0  0  0  0  0
  -22.6410  -12.0010   22.5150 H   0  0  0  0  0  0  0  0  0  0  0  0
  -21.3220  -13.1350   22.4180 H   0  0  0  0  0  0  0  0  0  0  0  0
  -25.4600  -15.2600   20.2840 N   0  0  0  0  0  0  0  0  0  0  0  0
  -24.6990  -15.9010   20.4750 H   0  0  0  0  0  0  0  0  0  0  0  0
  -26.2730  -15.7160   19.8910 H   0  0  0  0  0  0  0  0  0  0  0  0
  -28.2680  -26.0050   20.1950 O   0  0  0  0  0  0  0  0  0  0  0  0
  -24.6400  -31.8410   23.2250 C   0  0  0  0  0  0  0  0  0  0  0  0
  -27.2040  -27.0260   20.1880 C   0  0  0  0  0  0  0  0  0  0  0  0
  -23.4530  -30.4630   21.5640 C   0  0  0  0  0  3  0  0  0  0  0  0
  -24.9040  -28.8720   20.1370 C   0  0  0  0  0  0  0  0  0  0  0  0
  -26.0160  -30.6860   21.4310 C   0  0  0  0  0  2  0  0  0  0  0  0
  -26.0840  -29.2850   20.7670 C   0  0  0  0  0  0  0  0  0  0  0  0
  -27.2290  -28.3800   20.7680 C   0  0  0  0  0  3  0  0  0  0  0  0
  -25.9970  -26.7470   19.5140 C   0  0  0  0  0  3  0  0  0  0  0  0
  -24.8820  -27.6250   19.4890 C   0  0  0  0  0  3  0  0  0  0  0  0
  -23.6840  -29.7880   20.1830 C   0  0  0  0  0  2  0  0  0  0  0  0
  -24.7250  -31.0200   22.1280 N   0  0  0  0  0  0  0  0  0  0  0  0
  -23.5490  -32.1260   23.7450 O   0  0  0  0  0  0  0  0  0  0  0  0
  -22.7550  -29.4590   22.5170 C   0  0  0  0  0  0  0  0  0  0  0  0
  -21.4230  -29.3070   22.3900 N   0  0  0  0  0  0  0  0  0  0  0  0
  -23.4160  -28.8160   23.3370 O   0  0  0  0  0  0  0  0  0  0  0  0
  -20.9440  -29.8780   21.7060 H   0  0  0  0  0  0  0  0  0  0  0  0
  -18.0210  -28.1630   22.9170 C   0  0  0  0  0  0  0  0  0  0  0  0
  -20.5900  -28.3660   23.1480 C   0  0  0  0  0  3  0  0  0  0  0  0
  -20.6510  -26.9490   22.5360 C   0  0  0  0  0  2  0  0  0  0  0  0
  -19.5270  -26.6770   21.5310 C   0  0  0  0  0  2  0  0  0  0  0  0
  -18.1580  -26.8300   22.2010 C   0  0  0  0  0  2  0  0  0  0  0  0
  -19.1610  -28.8910   23.3480 C   0  0  0  0  0  0  0  0  0  0  0  0
  -18.9770  -30.1360   23.9870 C   0  0  0  0  0  3  0  0  0  0  0  0
  -17.6850  -30.6540   24.1940 C   0  0  0  0  0  3  0  0  0  0  0  0
  -16.5590  -29.9230   23.7800 C   0  0  0  0  0  3  0  0  0  0  0  0
  -16.7290  -28.6790   23.1470 C   0  0  0  0  0  3  0  0  0  0  0  0
  -25.9090  -32.4760   23.8680 C   0  0  0  0  0  3  0  0  0  0  0  0
  -26.3900  -31.7150   25.1650 C   0  0  1  0  0  0  0  0  0  0  0  0
  -25.2690  -31.5010   26.2090 C   0  0  0  0  0  1  0  0  0  0  0  0
  -26.9690  -30.3270   24.8130 C   0  0  0  0  0  1  0  0  0  0  0  0
  -27.5330  -32.5080   25.8460 C   0  0  0  0  0  1  0  0  0  0  0  0
  -25.6030  -33.8800   24.1860 N   0  0  0  0  0  0  0  0  0  0  0  0
  -25.9270  -34.9310   23.4190 C   0  0  0  0  0  0  0  0  0  0  0  0
  -26.5810  -34.8180   22.3790 O   0  0  0  0  0  0  0  0  0  0  0  0
  -25.0160  -34.0420   24.9920 H   0  0  0  0  0  0  0  0  0  0  0  0
  -24.1900  -36.7280   23.0990 C   0  0  0  0  0  1  0  0  0  0  0  0
  -25.4560  -36.3270   23.8750 C   0  0  0  0  0  3  0  0  0  0  0  0
  -27.6060  -37.2340   24.6400 C   0  0  0  0  0  1  0  0  0  0  0  0
  -26.4850  -37.3790   23.7160 N   0  0  0  0  0  0  0  0  0  0  0  0
  -26.0790  -38.3010   23.8460 H   0  0  0  0  0  0  0  0  0  0  0  0
  1  5  1  0
  2  4  1  0
  3  1  2  0
  3  6  1  0
  5  8  1  0
  5  2  2  0
  6 47  1  0
  6  4  2  0
  8  7  1  0
  9  8  1  0
  9 10  2  0
 11 10  1  0
 12 17  1  0
 13 14  1  0
 13 12  1  0
 15 14  1  0
 15 22  1  0
 15 16  1  0
 17 11  1  0
 17 16  1  0
 18 11  2  0
 19 20  2  0
 20 39  1  0
 21 20  1  0
 21 24  1  0
 22 23  1  0
 22 19  1  0
 23 21  2  0
 24 25  1  0
 25 26  2  0
 27 30  1  0
 27 26  1  0
 28 27  2  0
 29 28  1  0
 29 24  2  0
 30 31  1  0
 31 36  2  0
 31 32  1  0
 32 33  2  0
 33 34  1  0
 34 38  1  0
 35 34  2  0
 36 35  1  0
 37 36  1  0
 39 40  1  0
 40 43  1  0
 40 42  1  0
 41 39  2  0
 44 19  1  0
 44 45  1  0
 46 44  1  0
 48 59  2  0
 49 47  1  0
 49 54  1  0
 50 58  1  0
 50 60  1  0
 51 57  1  0
 51 53  1  0
 52 58  1  0
 53 54  2  0
 53 52  1  0
 55 49  2  0
 56 55  1  0
 56 51  2  0
 57 50  1  0
 58 48  1  0
 60 62  2  0
 61 60  1  0
 63 61  1  0
 64 73  2  0
 64 69  1  0
 65 61  1  0
 65 69  1  0
 66 65  1  0
 67 68  1  0
 67 66  1  0
 68 64  1  0
 69 70  2  0
 70 71  1  0
 72 71  2  0
 73 72  1  0
 74 48  1  0
 74 79  1  0
 74 75  1  0
 75 78  1  1
 75 76  1  0
 77 75  1  0
 79 82  1  0
 80 84  1  0
 80 79  1  0
 81 80  2  0
 84 83  1  0
 86 87  1  0
 86 84  1  0
 86 85  1  0
M  ISO  4   6 101  10 100  11 100  47 101
M  END
>  <TORSDO>  (62) 
F 19

>  <SCORE>  (62) 
-14.593

>  <name>  (62) 
62

>  <ligand_id>  (62) 
62

>  <original_smiles>  (62) 
[H]c1c([H])c([H])c2c(c1[H])C([H])([H])C([H])([H])C([H])([H])C2([H])N([H])C(=O)C1([H])N(C(=O)C([H])(N([H])C(=O)C([H])(N([H])C([H])([H])[H])C([H])([H])[H])C(C([H])([H])[H])(C([H])([H])[H])C([H])([H])[H])C([H])([H])c2c([H])c(Oc3c([H])c([H])c(N(C([H])([H])[H])C([H])([H])C([H])([H])C(=O)N4C([H])([H])C([H])([H])C([H])([H])C([H])(n5nc(-c6c([H])c([H])c(Oc7c([H])c([H])c(F)c([H])c7F)c([H])c6[H])c(C(=O)N([H])[H])c5N([H])[H])C4([H])[H])c([H])c3[H])c([H])c([H])c2C1([H])[H]

>  <smiles>  (62) 
[H]c1c([H])c([H])c2c(c1[H])C([H])([H])C([H])([H])C([H])([H])C2([H])N([H])C(=O)C1([H])N(C(=O)C([H])(N([H])C(=O)C([H])(N([H])C([H])([H])[H])C([H])([H])[H])C(C([H])([H])[H])(C([H])([H])[H])C([H])([H])[H])C([H])([H])c2c([H])c(Oc3c([H])c([H])c(N(C([H])([H])[H])C([H])([H])C([H])([H])C(=O)N4C([H])([H])C([H])([H])C([H])([H])C([H])(n5nc(-c6c([H])c([H])c(Oc7c([H])c([H])c(F)c([H])c7F)c([H])c6[H])c(C(=O)N([H])[H])c5N([H])[H])C4([H])[H])c([H])c3[H])c([H])c([H])c2C1([H])[H]

$$$$
63:0:0
     RDKit          3D

 93101  0  0  1  0  0  0  0  0999 V2000
  -29.4310  -23.4050   22.1820 C   0  0  0  0  0  0  0  0  0  0  0  0
  -29.2910  -21.8980   21.8160 C   0  0  0  0  0  2  0  0  0  0  0  0
  -28.3430  -24.4540   21.7950 C   0  0  0  0  0  2  0  0  0  0  0  0
  -27.9760  -22.3340   19.7000 C   0  0  0  0  0  2  0  0  0  0  0  0
  -28.0460  -23.8900   19.2980 C   0  0  0  0  0  2  0  0  0  0  0  0
  -29.2470  -21.5850   20.2980 C   0  0  0  0  0  3  0  0  0  0  0  0
  -28.4860  -24.9940   20.3470 C   0  0  0  0  0  3  0  0  0  0  0  0
  -30.4220  -23.7700   22.8180 O   0  0  0  0  0  0  0  0  0  0  0  0
  -28.3460  -26.4850   20.1430 O   0  0  0  0  0  0  0  0  0  0  0  0
  -24.5990  -31.8860   23.2060 C   0  0  0  0  0  0  0  0  0  0  0  0
  -27.1770  -27.2730   20.1710 C   0  0  0  0  0  0  0  0  0  0  0  0
  -23.3790  -30.4840   21.5780 C   0  0  0  0  0  3  0  0  0  0  0  0
  -24.8140  -28.9090   20.1570 C   0  0  0  0  0  0  0  0  0  0  0  0
  -25.9180  -30.7890   21.3730 C   0  0  0  0  0  2  0  0  0  0  0  0
  -25.9890  -29.4000   20.7390 C   0  0  0  0  0  0  0  0  0  0  0  0
  -27.1700  -28.5960   20.7260 C   0  0  0  0  0  3  0  0  0  0  0  0
  -25.9770  -26.8350   19.5740 C   0  0  0  0  0  3  0  0  0  0  0  0
  -24.8130  -27.6350   19.5640 C   0  0  0  0  0  3  0  0  0  0  0  0
  -23.5810  -29.7920   20.2040 C   0  0  0  0  0  2  0  0  0  0  0  0
  -24.6520  -31.0720   22.1100 N   0  0  0  0  0  0  0  0  0  0  0  0
  -23.5200  -32.1680   23.7490 O   0  0  0  0  0  0  0  0  0  0  0  0
  -22.7200  -29.4790   22.5500 C   0  0  0  0  0  0  0  0  0  0  0  0
  -21.3930  -29.3070   22.4320 N   0  0  0  0  0  0  0  0  0  0  0  0
  -23.4020  -28.8530   23.3670 O   0  0  0  0  0  0  0  0  0  0  0  0
  -20.9040  -29.8590   21.7430 H   0  0  0  0  0  0  0  0  0  0  0  0
  -18.0160  -28.1170   22.9480 C   0  0  0  0  0  0  0  0  0  0  0  0
  -20.5750  -28.3740   23.2090 C   0  0  0  0  0  3  0  0  0  0  0  0
  -20.6740  -26.9410   22.6400 C   0  0  0  0  0  2  0  0  0  0  0  0
  -19.5680  -26.6130   21.6300 C   0  0  0  0  0  2  0  0  0  0  0  0
  -18.1880  -26.7650   22.2780 C   0  0  0  0  0  2  0  0  0  0  0  0
  -19.1360  -28.8800   23.3710 C   0  0  0  0  0  0  0  0  0  0  0  0
  -18.9210  -30.1470   23.9590 C   0  0  0  0  0  3  0  0  0  0  0  0
  -17.6180  -30.6480   24.1280 C   0  0  0  0  0  3  0  0  0  0  0  0
  -16.5120  -29.8820   23.7230 C   0  0  0  0  0  3  0  0  0  0  0  0
  -16.7110  -28.6180   23.1380 C   0  0  0  0  0  3  0  0  0  0  0  0
  -25.8860  -32.5180   23.8190 C   0  0  0  0  0  3  0  0  0  0  0  0
  -25.5790  -33.9130   24.1660 N   0  0  0  0  0  0  0  0  0  0  0  0
  -25.8980  -34.9750   23.4150 C   0  0  0  0  0  0  0  0  0  0  0  0
  -26.5540  -34.8830   22.3730 O   0  0  0  0  0  0  0  0  0  0  0  0
  -24.9970  -34.0550   24.9790 H   0  0  0  0  0  0  0  0  0  0  0  0
  -24.1620  -36.7670   23.1010 C   0  0  0  0  0  1  0  0  0  0  0  0
  -25.4150  -36.3590   23.8920 C   0  0  0  0  0  3  0  0  0  0  0  0
  -27.5610  -37.2400   24.6980 C   0  0  0  0  0  1  0  0  0  0  0  0
  -26.4450  -37.4160   23.7730 N   0  0  0  0  0  0  0  0  0  0  0  0
  -26.0400  -38.3340   23.9350 H   0  0  0  0  0  0  0  0  0  0  0  0
  -26.4170  -31.7370   25.0840 C   0  0  1  0  0  0  0  0  0  0  0  0
  -25.3370  -31.4910   26.1640 C   0  0  0  0  0  1  0  0  0  0  0  0
  -26.9940  -30.3630   24.6730 C   0  0  0  0  0  1  0  0  0  0  0  0
  -27.5750  -32.5240   25.7390 C   0  0  0  0  0  1  0  0  0  0  0  0
  -29.6880  -20.0640   19.8180 C   0  0  0  0  0  3  0  0  0  0  0  0
  -29.3950  -18.7930   20.6480 N   0  0  0  0  0  4  0  0  0  0  0  0
  -29.5600  -19.0170   21.6160 H   0  0  0  0  0  0  0  0  0  0  0  0
  -28.4120  -18.5910   20.5620 H   0  0  0  0  0  0  0  0  0  0  0  0
  -30.2080  -17.5020   20.3410 C   0  0  0  0  0  3  0  0  0  0  0  0
  -29.7840  -16.0610   20.9500 C   0  0  0  0  0  3  0  0  0  0  0  0
  -30.5490  -14.7350   20.4460 C   0  0  0  0  0  0  0  0  0  0  0  0
  -30.3560  -12.4800   19.3650 C   0  0  0  0  0  2  0  0  0  0  0  0
  -29.4180  -12.5980   18.1410 C   0  0  0  0  0  2  0  0  0  0  0  0
  -27.9430  -12.4340   18.5590 C   0  0  0  0  0  2  0  0  0  0  0  0
  -27.5790  -13.2940   19.7980 C   0  0  0  0  0  3  0  0  0  0  0  0
  -28.6310  -13.1500   20.9190 C   0  0  0  0  0  2  0  0  0  0  0  0
  -29.9390  -13.5040   20.3530 N   0  0  0  0  0  0  0  0  0  0  0  0
  -31.7060  -14.8590   20.0260 O   0  0  0  0  0  0  0  0  0  0  0  0
  -25.1860  -13.8990   20.5020 C   0  0  0  0  0  0  0  0  0  0  0  0
  -24.1150  -13.1320   20.8720 C   0  0  0  0  0  0  0  0  0  0  0  0
  -24.5730  -11.7790   20.8530 C   0  0  0  0  0  0  0  0  0  0  0  0
  -26.2290  -13.0150   20.2780 N   0  0  0  0  0  0  0  0  0  0  0  0
  -25.8660  -11.7340   20.5480 N   0  0  0  0  0  0  0  0  0  0  0  0
  -23.8410  -10.5210   21.0500 C   0  0  0  0  0  0  0  0  0  0  0  0
  -24.2760   -9.5510   21.9790 C   0  0  0  0  0  3  0  0  0  0  0  0
  -23.5450   -8.3560   22.1620 C   0  0  0  0  0  3  0  0  0  0  0  0
  -22.3660   -8.1250   21.4150 C   0  0  0  0  0  0  0  0  0  0  0  0
  -21.9520   -9.0830   20.4720 C   0  0  0  0  0  3  0  0  0  0  0  0
  -22.6830  -10.2680   20.2880 C   0  0  0  0  0  3  0  0  0  0  0  0
  -21.6060   -6.9840   21.5070 O   0  0  0  0  0  0  0  0  0  0  0  0
  -21.5690   -6.2340   22.6560 C   0  0  0  0  0  0  0  0  0  0  0  0
  -21.1790   -6.7870   23.8950 C   0  0  0  0  0  3  0  0  0  0  0  0
  -21.0900   -5.9630   25.0360 C   0  0  0  0  0  3  0  0  0  0  0  0
  -21.3830   -4.5900   24.9370 C   0  0  0  0  0  0  0  0  0  0  0  0
  -21.7650   -4.0360   23.7030 C   0  0  0  0  0  3  0  0  0  0  0  0
  -21.8560   -4.8570   22.5640 C   0  0  0  0  0  0  0  0  0  0  0  0
  -22.2060   -4.3150   21.3730 F   0  0  0  0  0  0  0  0  0  0  0  0
  -21.2890   -3.7980   26.0310 F   0  0  0  0  0  0  0  0  0  0  0  0
  -22.7200  -13.6150   21.1350 C   0  0  0  0  0  0  0  0  0  0  0  0
  -21.9870  -12.9240   22.0040 N   0  0  0  0  0  0  0  0  0  0  0  0
  -22.2860  -14.6360   20.6060 O   0  0  0  0  0  0  0  0  0  0  0  0
  -22.3540  -12.0980   22.4510 H   0  0  0  0  0  0  0  0  0  0  0  0
  -21.0470  -13.2240   22.2230 H   0  0  0  0  0  0  0  0  0  0  0  0
  -25.3550  -15.2680   20.3150 N   0  0  0  0  0  0  0  0  0  0  0  0
  -24.5820  -15.9200   20.4030 H   0  0  0  0  0  0  0  0  0  0  0  0
  -26.1970  -15.6950   19.9500 H   0  0  0  0  0  0  0  0  0  0  0  0
  -29.8600  -20.8700   17.3260 C   0  0  0  0  0  1  0  0  0  0  0  0
  -29.3310  -19.8230   18.3230 C   0  0  0  0  0  2  0  0  0  0  0  0
  1  8  2  0
  2  1  1  0
  3  1  1  0
  4  6  1  0
  5  4  1  0
  5  7  1  0
  6 50  1  0
  6  2  1  0
  7  9  1  0
  7  3  1  0
  9 11  1  0
 10 21  2  0
 11 16  1  0
 12 20  1  0
 12 22  1  0
 13 19  1  0
 13 15  1  0
 14 20  1  0
 15 14  1  0
 16 15  2  0
 17 11  2  0
 18 17  1  0
 18 13  2  0
 19 12  1  0
 20 10  1  0
 22 24  2  0
 23 22  1  0
 25 23  1  0
 26 35  2  0
 26 31  1  0
 27 23  1  0
 27 31  1  0
 28 27  1  0
 29 30  1  0
 29 28  1  0
 30 26  1  0
 31 32  2  0
 32 33  1  0
 34 33  2  0
 35 34  1  0
 36 10  1  0
 36 37  1  0
 36 46  1  0
 37 40  1  0
 38 42  1  0
 38 37  1  0
 39 38  2  0
 42 41  1  0
 44 42  1  0
 44 45  1  0
 44 43  1  0
 46 49  1  1
 46 47  1  0
 48 46  1  0
 50 93  1  0
 50 51  1  0
 51 52  1  0
 53 51  1  0
 54 51  1  0
 54 55  2  0
 56 55  1  0
 57 62  1  0
 58 59  1  0
 58 57  1  0
 60 59  1  0
 60 67  1  0
 60 61  1  0
 62 56  1  0
 62 61  1  0
 63 56  2  0
 64 65  2  0
 65 84  1  0
 66 65  1  0
 66 69  1  0
 67 64  1  0
 67 68  1  0
 68 66  2  0
 69 70  1  0
 70 71  2  0
 72 75  1  0
 72 71  1  0
 73 72  2  0
 74 73  1  0
 74 69  2  0
 75 76  1  0
 76 77  1  0
 77 78  2  0
 79 78  1  0
 79 83  1  0
 80 79  2  0
 81 76  2  0
 81 80  1  0
 82 81  1  0
 84 85  1  0
 85 88  1  0
 85 87  1  0
 86 84  2  0
 89 90  1  0
 89 64  1  0
 91 89  1  0
 92 93  1  0
M  ISO  4   7 101   9 101  55 100  56 100
M  END
>  <TORSDO>  (63) 
F 21

>  <SCORE>  (63) 
-13.595

>  <name>  (63) 
63

>  <ligand_id>  (63) 
63

>  <original_smiles>  (63) 
[H]c1c([H])c([H])c2c(c1[H])C([H])([H])C([H])([H])C([H])([H])C2([H])N([H])C(=O)C1([H])N(C(=O)C([H])(N([H])C(=O)C([H])(N([H])C([H])([H])[H])C([H])([H])[H])C(C([H])([H])[H])(C([H])([H])[H])C([H])([H])[H])C([H])([H])c2c([H])c(OC3([H])C([H])([H])C(=O)C([H])([H])C([H])(C([H])(C([H])([H])C([H])([H])[H])[N+]([H])([H])C([H])([H])C([H])([H])C(=O)N4C([H])([H])C([H])([H])C([H])([H])C([H])(n5nc(-c6c([H])c([H])c(Oc7c([H])c([H])c(F)c([H])c7F)c([H])c6[H])c(C(=O)N([H])[H])c5N([H])[H])C4([H])[H])C([H])([H])C3([H])[H])c([H])c([H])c2C1([H])[H]

>  <smiles>  (63) 
[H]c1c([H])c([H])c2c(c1[H])C([H])([H])C([H])([H])C([H])([H])C2([H])N([H])C(=O)C1([H])N(C(=O)C([H])(N([H])C(=O)C([H])(N([H])C([H])([H])[H])C([H])([H])[H])C(C([H])([H])[H])(C([H])([H])[H])C([H])([H])[H])C([H])([H])c2c([H])c(OC3([H])C([H])([H])C(=O)C([H])([H])C([H])(C([H])(C([H])([H])C([H])([H])[H])[N+]([H])([H])C([H])([H])C([H])([H])C(=O)N4C([H])([H])C([H])([H])C([H])([H])C([H])(n5nc(-c6c([H])c([H])c(Oc7c([H])c([H])c(F)c([H])c7F)c([H])c6[H])c(C(=O)N([H])[H])c5N([H])[H])C4([H])[H])C([H])([H])C3([H])[H])c([H])c([H])c2C1([H])[H]

$$$$
64:0:0
     RDKit          3D

 92 99  0  0  1  0  0  0  0  0999 V2000
  -29.2500  -21.4130   19.9260 C   0  0  0  0  0  3  0  0  0  0  0  0
  -30.6620  -21.6830   19.6100 N   0  0  0  0  0  4  0  0  0  0  0  0
  -30.8550  -22.6590   19.7570 H   0  0  0  0  0  0  0  0  0  0  0  0
  -31.1390  -21.1510   20.3300 H   0  0  0  0  0  0  0  0  0  0  0  0
  -32.6520  -21.4160   18.1300 C   0  0  0  0  0  1  0  0  0  0  0  0
  -31.1280  -21.2690   18.2690 C   0  0  0  0  0  2  0  0  0  0  0  0
  -28.6260  -22.9190   20.5920 C   0  0  0  0  0  2  0  0  0  0  0  0
  -28.2570  -24.4610   19.8340 C   0  0  0  0  0  2  0  0  0  0  0  0
  -28.2180  -25.9920   20.3380 O   0  0  0  0  0  0  0  0  0  0  0  0
  -24.6110  -31.8500   23.1760 C   0  0  0  0  0  0  0  0  0  0  0  0
  -27.1750  -27.0190   20.2000 C   0  0  0  0  0  0  0  0  0  0  0  0
  -23.4110  -30.4380   21.5540 C   0  0  0  0  0  3  0  0  0  0  0  0
  -24.8580  -28.8350   20.1380 C   0  0  0  0  0  0  0  0  0  0  0  0
  -25.9710  -30.6700   21.3960 C   0  0  0  0  0  2  0  0  0  0  0  0
  -26.0400  -29.2640   20.7530 C   0  0  0  0  0  0  0  0  0  0  0  0
  -27.1890  -28.3730   20.7670 C   0  0  0  0  0  3  0  0  0  0  0  0
  -25.9680  -26.7200   19.5290 C   0  0  0  0  0  3  0  0  0  0  0  0
  -24.8420  -27.5800   19.5060 C   0  0  0  0  0  3  0  0  0  0  0  0
  -23.6350  -29.7440   20.1810 C   0  0  0  0  0  2  0  0  0  0  0  0
  -24.6850  -31.0120   22.0950 N   0  0  0  0  0  0  0  0  0  0  0  0
  -23.5260  -32.1440   23.6990 O   0  0  0  0  0  0  0  0  0  0  0  0
  -22.7270  -29.4480   22.5310 C   0  0  0  0  0  0  0  0  0  0  0  0
  -21.3950  -29.2870   22.4130 N   0  0  0  0  0  0  0  0  0  0  0  0
  -23.3970  -28.8270   23.3600 O   0  0  0  0  0  0  0  0  0  0  0  0
  -20.9110  -29.8410   21.7200 H   0  0  0  0  0  0  0  0  0  0  0  0
  -18.0140  -28.0870   22.9330 C   0  0  0  0  0  0  0  0  0  0  0  0
  -20.5720  -28.3560   23.1930 C   0  0  0  0  0  3  0  0  0  0  0  0
  -20.6740  -26.9170   22.6340 C   0  0  0  0  0  2  0  0  0  0  0  0
  -19.5730  -26.5820   21.6240 C   0  0  0  0  0  2  0  0  0  0  0  0
  -18.1910  -26.7300   22.2690 C   0  0  0  0  0  2  0  0  0  0  0  0
  -19.1330  -28.8550   23.3530 C   0  0  0  0  0  0  0  0  0  0  0  0
  -18.9150  -30.1200   23.9400 C   0  0  0  0  0  3  0  0  0  0  0  0
  -17.6110  -30.6190   24.1100 C   0  0  0  0  0  3  0  0  0  0  0  0
  -16.5060  -29.8490   23.7080 C   0  0  0  0  0  3  0  0  0  0  0  0
  -16.7070  -28.5850   23.1260 C   0  0  0  0  0  3  0  0  0  0  0  0
  -25.8890  -32.4960   23.7960 C   0  0  0  0  0  3  0  0  0  0  0  0
  -25.5670  -33.8910   24.1370 N   0  0  0  0  0  0  0  0  0  0  0  0
  -25.8860  -34.9590   23.3930 C   0  0  0  0  0  0  0  0  0  0  0  0
  -26.5460  -34.8730   22.3540 O   0  0  0  0  0  0  0  0  0  0  0  0
  -24.9840  -34.0280   24.9480 H   0  0  0  0  0  0  0  0  0  0  0  0
  -24.1450  -36.7520   23.0880 C   0  0  0  0  0  1  0  0  0  0  0  0
  -25.3990  -36.3410   23.8750 C   0  0  0  0  0  3  0  0  0  0  0  0
  -27.5390  -37.2330   24.6880 C   0  0  0  0  0  1  0  0  0  0  0  0
  -26.4230  -37.4010   23.7590 N   0  0  0  0  0  0  0  0  0  0  0  0
  -26.0150  -38.3170   23.9200 H   0  0  0  0  0  0  0  0  0  0  0  0
  -26.4130  -31.7280   25.0730 C   0  0  1  0  0  0  0  0  0  0  0  0
  -25.3190  -31.4880   26.1420 C   0  0  0  0  0  1  0  0  0  0  0  0
  -27.0050  -30.3520   24.6920 C   0  0  0  0  0  1  0  0  0  0  0  0
  -27.5620  -32.5310   25.7290 C   0  0  0  0  0  1  0  0  0  0  0  0
  -29.3360  -19.8070   20.6330 C   0  0  0  0  0  3  0  0  0  0  0  0
  -30.1760  -20.0550   21.7950 N   0  0  0  0  0  0  0  0  0  0  0  0
  -30.2060  -19.2120   22.3570 H   0  0  0  0  0  0  0  0  0  0  0  0
  -29.7160  -20.7280   22.4020 H   0  0  0  0  0  0  0  0  0  0  0  0
  -29.9460  -18.2730   20.0030 C   0  0  0  0  0  2  0  0  0  0  0  0
  -30.1920  -16.7570   22.1490 C   0  0  0  0  0  1  0  0  0  0  0  0
  -29.8710  -16.6380   20.6490 C   0  0  0  0  0  3  0  0  0  0  0  0
  -30.6210  -15.1730   20.1340 C   0  0  0  0  0  0  0  0  0  0  0  0
  -30.5140  -12.7970   19.1290 C   0  0  0  0  0  2  0  0  0  0  0  0
  -29.5350  -12.7370   17.9290 C   0  0  0  0  0  2  0  0  0  0  0  0
  -28.0910  -12.4950   18.4070 C   0  0  0  0  0  2  0  0  0  0  0  0
  -27.7220  -13.3940   19.6150 C   0  0  0  0  0  3  0  0  0  0  0  0
  -28.8180  -13.4060   20.7000 C   0  0  0  0  0  2  0  0  0  0  0  0
  -30.0560  -13.8790   20.0650 N   0  0  0  0  0  0  0  0  0  0  0  0
  -31.7940  -15.2200   19.7360 O   0  0  0  0  0  0  0  0  0  0  0  0
  -25.3730  -13.9550   20.4460 C   0  0  0  0  0  0  0  0  0  0  0  0
  -24.3210  -13.1760   20.8380 C   0  0  0  0  0  0  0  0  0  0  0  0
  -24.7800  -11.8240   20.7730 C   0  0  0  0  0  0  0  0  0  0  0  0
  -26.4050  -13.0810   20.1560 N   0  0  0  0  0  0  0  0  0  0  0  0
  -26.0620  -11.7920   20.4180 N   0  0  0  0  0  0  0  0  0  0  0  0
  -24.0550  -10.5610   20.9680 C   0  0  0  0  0  0  0  0  0  0  0  0
  -24.4910   -9.5950   21.9020 C   0  0  0  0  0  3  0  0  0  0  0  0
  -23.7630   -8.4010   22.0880 C   0  0  0  0  0  3  0  0  0  0  0  0
  -22.5860   -8.1610   21.3390 C   0  0  0  0  0  0  0  0  0  0  0  0
  -22.1680   -9.1170   20.3960 C   0  0  0  0  0  3  0  0  0  0  0  0
  -22.8960  -10.3030   20.2080 C   0  0  0  0  0  3  0  0  0  0  0  0
  -21.8320   -7.0170   21.4330 O   0  0  0  0  0  0  0  0  0  0  0  0
  -21.7580   -6.2970   22.5970 C   0  0  0  0  0  0  0  0  0  0  0  0
  -21.3040   -6.8750   23.8020 C   0  0  0  0  0  3  0  0  0  0  0  0
  -21.1760   -6.0810   24.9600 C   0  0  0  0  0  3  0  0  0  0  0  0
  -21.4940   -4.7120   24.9140 C   0  0  0  0  0  0  0  0  0  0  0  0
  -21.9430   -4.1330   23.7130 C   0  0  0  0  0  3  0  0  0  0  0  0
  -22.0710   -4.9230   22.5580 C   0  0  0  0  0  0  0  0  0  0  0  0
  -22.4830   -4.3560   21.3980 F   0  0  0  0  0  0  0  0  0  0  0  0
  -21.3660   -3.9470   26.0230 F   0  0  0  0  0  0  0  0  0  0  0  0
  -22.9350  -13.6530   21.1580 C   0  0  0  0  0  0  0  0  0  0  0  0
  -22.2380  -12.9560   22.0480 N   0  0  0  0  0  0  0  0  0  0  0  0
  -22.4800  -14.6800   20.6550 O   0  0  0  0  0  0  0  0  0  0  0  0
  -22.6240  -12.1290   22.4810 H   0  0  0  0  0  0  0  0  0  0  0  0
  -21.3070  -13.2530   22.3010 H   0  0  0  0  0  0  0  0  0  0  0  0
  -25.5290  -15.3290   20.2870 N   0  0  0  0  0  0  0  0  0  0  0  0
  -24.7600  -15.9710   20.4370 H   0  0  0  0  0  0  0  0  0  0  0  0
  -26.3620  -15.7820   19.9320 H   0  0  0  0  0  0  0  0  0  0  0  0
  1  7  1  0
  1 50  1  0
  2  3  1  0
  2  1  1  0
  2  4  1  0
  5  6  1  0
  6  2  1  0
  8  9  1  0
  8  7  1  0
 10 21  2  0
 11  9  1  0
 11 16  1  0
 12 20  1  0
 12 22  1  0
 13 19  1  0
 13 15  1  0
 14 20  1  0
 15 16  2  0
 15 14  1  0
 17 11  2  0
 18 17  1  0
 18 13  2  0
 19 12  1  0
 20 10  1  0
 22 24  2  0
 23 22  1  0
 25 23  1  0
 26 35  2  0
 26 31  1  0
 27 23  1  0
 27 31  1  0
 28 27  1  0
 29 30  1  0
 29 28  1  0
 30 26  1  0
 31 32  2  0
 32 33  1  0
 34 33  2  0
 35 34  1  0
 36 10  1  0
 36 37  1  0
 36 46  1  0
 37 40  1  0
 38 42  1  0
 38 37  1  0
 39 38  2  0
 42 41  1  0
 44 42  1  0
 44 45  1  0
 44 43  1  0
 46 49  1  1
 46 47  1  0
 48 46  1  0
 50 54  1  0
 50 51  1  0
 51 52  1  0
 51 53  1  0
 54 56  1  0
 56 55  1  0
 57 56  1  0
 58 63  1  0
 59 60  1  0
 59 58  1  0
 61 60  1  0
 61 68  1  0
 61 62  1  0
 63 57  1  0
 63 62  1  0
 64 57  2  0
 65 66  2  0
 66 85  1  0
 67 66  1  0
 67 70  1  0
 68 69  1  0
 68 65  1  0
 69 67  2  0
 70 71  1  0
 71 72  2  0
 73 76  1  0
 73 72  1  0
 74 73  2  0
 75 74  1  0
 75 70  2  0
 76 77  1  0
 77 78  1  0
 78 79  2  0
 80 79  1  0
 80 84  1  0
 81 80  2  0
 82 77  2  0
 82 81  1  0
 83 82  1  0
 85 86  1  0
 86 89  1  0
 86 88  1  0
 87 85  2  0
 90 91  1  0
 90 65  1  0
 92 90  1  0
M  ISO  4   8 101   9 101  56 100  57 100
M  END
>  <TORSDO>  (64) 
F 24

>  <SCORE>  (64) 
-15.493

>  <name>  (64) 
64

>  <ligand_id>  (64) 
64

>  <original_smiles>  (64) 
[H]c1c([H])c([H])c2c(c1[H])C([H])([H])C([H])([H])C([H])([H])C2([H])N([H])C(=O)C1([H])N(C(=O)C([H])(N([H])C(=O)C([H])(N([H])C([H])([H])[H])C([H])([H])[H])C(C([H])([H])[H])(C([H])([H])[H])C([H])([H])[H])C([H])([H])c2c([H])c(OC([H])([H])C([H])([H])C([H])(C([H])(N([H])[H])C([H])([H])C([H])(C(=O)N3C([H])([H])C([H])([H])C([H])([H])C([H])(n4nc(-c5c([H])c([H])c(Oc6c([H])c([H])c(F)c([H])c6F)c([H])c5[H])c(C(=O)N([H])[H])c4N([H])[H])C3([H])[H])C([H])([H])[H])[N+]([H])([H])C([H])([H])C([H])([H])[H])c([H])c([H])c2C1([H])[H]

>  <smiles>  (64) 
[H]c1c([H])c([H])c2c(c1[H])C([H])([H])C([H])([H])C([H])([H])C2([H])N([H])C(=O)C1([H])N(C(=O)C([H])(N([H])C(=O)C([H])(N([H])C([H])([H])[H])C([H])([H])[H])C(C([H])([H])[H])(C([H])([H])[H])C([H])([H])[H])C([H])([H])c2c([H])c(OC([H])([H])C([H])([H])C([H])(C([H])(N([H])[H])C([H])([H])C([H])(C(=O)N3C([H])([H])C([H])([H])C([H])([H])C([H])(n4nc(-c5c([H])c([H])c(Oc6c([H])c([H])c(F)c([H])c6F)c([H])c5[H])c(C(=O)N([H])[H])c4N([H])[H])C3([H])[H])C([H])([H])[H])[N+]([H])([H])C([H])([H])C([H])([H])[H])c([H])c([H])c2C1([H])[H]

$$$$
65:0:0
     RDKit          3D

101109  0  0  1  0  0  0  0  0999 V2000
  -29.5610  -21.8980   19.6550 C   0  0  0  0  0  3  0  0  0  0  0  0
  -29.6890  -20.5770   18.7520 N   0  0  0  0  0  4  0  0  0  0  0  0
  -30.6380  -20.2810   18.9300 H   0  0  0  0  0  0  0  0  0  0  0  0
  -29.7030  -20.8760   17.7900 H   0  0  0  0  0  0  0  0  0  0  0  0
  -29.0360  -19.1330   18.7600 C   0  0  0  0  0  3  0  0  0  0  0  0
  -28.2990  -18.5160   21.1900 C   0  0  0  0  0  1  0  0  0  0  0  0
  -26.7080  -19.8980   19.6660 C   0  0  0  0  0  1  0  0  0  0  0  0
  -27.8700  -18.8800   19.7550 C   0  0  0  0  0  3  0  0  0  0  0  0
  -30.0380  -17.7820   18.6070 C   0  0  0  0  0  3  0  0  0  0  0  0
  -31.3250  -18.2190   19.1200 N   0  0  0  0  0  0  0  0  0  0  0  0
  -32.0450  -17.5530   18.8560 H   0  0  0  0  0  0  0  0  0  0  0  0
  -31.2980  -18.1440   20.1330 H   0  0  0  0  0  0  0  0  0  0  0  0
  -29.7230  -16.2410   19.2180 C   0  0  0  0  0  2  0  0  0  0  0  0
  -30.6030  -14.8520   19.0000 C   0  0  0  0  0  0  0  0  0  0  0  0
  -30.5100  -12.3890   18.4280 C   0  0  0  0  0  2  0  0  0  0  0  0
  -29.4490  -12.1900   17.3180 C   0  0  0  0  0  2  0  0  0  0  0  0
  -28.0430  -12.0120   17.9300 C   0  0  0  0  0  2  0  0  0  0  0  0
  -27.7400  -13.0800   19.0130 C   0  0  0  0  0  3  0  0  0  0  0  0
  -28.9080  -13.2430   20.0090 C   0  0  0  0  0  2  0  0  0  0  0  0
  -30.1060  -13.5740   19.2290 N   0  0  0  0  0  0  0  0  0  0  0  0
  -31.7370  -14.9300   18.5110 O   0  0  0  0  0  0  0  0  0  0  0  0
  -25.5350  -13.7730   20.1220 C   0  0  0  0  0  0  0  0  0  0  0  0
  -24.4920  -13.0480   20.6240 C   0  0  0  0  0  0  0  0  0  0  0  0
  -24.8610  -11.6740   20.4820 C   0  0  0  0  0  0  0  0  0  0  0  0
  -26.4740  -12.8460   19.6970 N   0  0  0  0  0  0  0  0  0  0  0  0
  -26.0850  -11.5750   19.9770 N   0  0  0  0  0  0  0  0  0  0  0  0
  -24.0960  -10.4480   20.7370 C   0  0  0  0  0  0  0  0  0  0  0  0
  -24.5350   -9.4830   21.6710 C   0  0  0  0  0  3  0  0  0  0  0  0
  -23.7690   -8.3240   21.9160 C   0  0  0  0  0  3  0  0  0  0  0  0
  -22.5490   -8.1190   21.2270 C   0  0  0  0  0  0  0  0  0  0  0  0
  -22.1290   -9.0730   20.2820 C   0  0  0  0  0  3  0  0  0  0  0  0
  -22.8950  -10.2230   20.0350 C   0  0  0  0  0  3  0  0  0  0  0  0
  -21.7520   -7.0120   21.3800 O   0  0  0  0  0  0  0  0  0  0  0  0
  -21.6570   -6.3530   22.5810 C   0  0  0  0  0  0  0  0  0  0  0  0
  -21.1910   -6.9980   23.7480 C   0  0  0  0  0  3  0  0  0  0  0  0
  -21.0440   -6.2660   24.9440 C   0  0  0  0  0  3  0  0  0  0  0  0
  -21.3490   -4.8920   24.9720 C   0  0  0  0  0  0  0  0  0  0  0  0
  -21.8070   -4.2470   23.8090 C   0  0  0  0  0  3  0  0  0  0  0  0
  -21.9560   -4.9770   22.6150 C   0  0  0  0  0  0  0  0  0  0  0  0
  -22.3760   -4.3460   21.4930 F   0  0  0  0  0  0  0  0  0  0  0  0
  -21.2000   -4.1870   26.1180 F   0  0  0  0  0  0  0  0  0  0  0  0
  -23.1840  -13.5910   21.1210 C   0  0  0  0  0  0  0  0  0  0  0  0
  -22.5570  -12.9080   22.0700 N   0  0  0  0  0  0  0  0  0  0  0  0
  -22.7320  -14.6570   20.6980 O   0  0  0  0  0  0  0  0  0  0  0  0
  -22.9430  -12.0490   22.4310 H   0  0  0  0  0  0  0  0  0  0  0  0
  -21.6830  -13.2510   22.4410 H   0  0  0  0  0  0  0  0  0  0  0  0
  -25.7590  -15.1390   19.9610 N   0  0  0  0  0  0  0  0  0  0  0  0
  -25.0620  -15.8360   20.1990 H   0  0  0  0  0  0  0  0  0  0  0  0
  -26.5760  -15.5310   19.5090 H   0  0  0  0  0  0  0  0  0  0  0  0
  -29.8770  -21.7340   21.1620 C   0  0  0  0  0  2  0  0  0  0  0  0
  -33.9920  -20.6430   22.1710 C   0  0  0  0  0  3  0  0  0  0  0  0
  -33.5340  -20.5340   20.8490 C   0  0  0  0  0  3  0  0  0  0  0  0
  -33.1060  -21.0550   23.1810 C   0  0  0  0  0  3  0  0  0  0  0  0
  -32.2110  -20.8870   20.5360 C   0  0  0  0  0  3  0  0  0  0  0  0
  -31.7650  -21.3850   22.8820 C   0  0  0  0  0  0  0  0  0  0  0  0
  -31.3130  -21.3380   21.5330 C   0  0  0  0  0  0  0  0  0  0  0  0
  -29.9240  -20.6240   24.4650 C   0  0  0  0  0  1  0  0  0  0  0  0
  -30.8580  -21.7660   24.0470 C   0  0  0  0  0  2  0  0  0  0  0  0
  -28.4750  -23.1600   19.4570 C   0  0  0  0  0  2  0  0  0  0  0  0
  -28.8590  -24.8000   19.4050 C   0  0  0  0  0  2  0  0  0  0  0  0
  -28.4680  -26.0290   20.2520 O   0  0  0  0  0  0  0  0  0  0  0  0
  -24.4550  -31.4890   23.0140 C   0  0  0  0  0  0  0  0  0  0  0  0
  -27.3480  -26.9080   20.0830 C   0  0  0  0  0  0  0  0  0  0  0  0
  -23.3670  -30.0200   21.3530 C   0  0  0  0  0  3  0  0  0  0  0  0
  -24.9270  -28.4990   19.9840 C   0  0  0  0  0  0  0  0  0  0  0  0
  -25.9030  -30.4140   21.2530 C   0  0  0  0  0  2  0  0  0  0  0  0
  -26.0590  -29.0200   20.6220 C   0  0  0  0  0  0  0  0  0  0  0  0
  -27.2640  -28.2310   20.6640 C   0  0  0  0  0  3  0  0  0  0  0  0
  -26.1910  -26.4770   19.4030 C   0  0  0  0  0  3  0  0  0  0  0  0
  -25.0010  -27.2410   19.3630 C   0  0  0  0  0  3  0  0  0  0  0  0
  -23.6570  -29.3340   19.9890 C   0  0  0  0  0  2  0  0  0  0  0  0
  -24.5910  -30.6680   21.9270 N   0  0  0  0  0  0  0  0  0  0  0  0
  -23.3430  -31.7270   23.5120 O   0  0  0  0  0  0  0  0  0  0  0  0
  -22.7110  -28.9950   22.3100 C   0  0  0  0  0  0  0  0  0  0  0  0
  -21.3900  -28.7910   22.1770 N   0  0  0  0  0  0  0  0  0  0  0  0
  -23.3960  -28.3840   23.1340 O   0  0  0  0  0  0  0  0  0  0  0  0
  -20.8950  -29.3470   21.4940 H   0  0  0  0  0  0  0  0  0  0  0  0
  -18.0240  -27.5470   22.6960 C   0  0  0  0  0  0  0  0  0  0  0  0
  -20.5840  -27.8300   22.9340 C   0  0  0  0  0  3  0  0  0  0  0  0
  -20.6920  -26.4090   22.3340 C   0  0  0  0  0  2  0  0  0  0  0  0
  -19.5800  -26.0950   21.3270 C   0  0  0  0  0  2  0  0  0  0  0  0
  -18.2050  -26.2140   21.9910 C   0  0  0  0  0  2  0  0  0  0  0  0
  -19.1420  -28.3120   23.1260 C   0  0  0  0  0  0  0  0  0  0  0  0
  -18.9200  -29.5580   23.7500 C   0  0  0  0  0  3  0  0  0  0  0  0
  -17.6130  -30.0400   23.9500 C   0  0  0  0  0  3  0  0  0  0  0  0
  -16.5090  -29.2740   23.5340 C   0  0  0  0  0  3  0  0  0  0  0  0
  -16.7170  -28.0310   22.9130 C   0  0  0  0  0  3  0  0  0  0  0  0
  -25.6850  -32.1910   23.6700 C   0  0  0  0  0  3  0  0  0  0  0  0
  -25.3080  -33.5820   23.9570 N   0  0  0  0  0  0  0  0  0  0  0  0
  -25.6180  -34.6340   23.1860 C   0  0  0  0  0  0  0  0  0  0  0  0
  -26.3170  -34.5340   22.1740 O   0  0  0  0  0  0  0  0  0  0  0  0
  -24.6870  -33.7270   24.7390 H   0  0  0  0  0  0  0  0  0  0  0  0
  -23.8310  -36.3530   22.7510 C   0  0  0  0  0  1  0  0  0  0  0  0
  -25.0670  -36.0130   23.6000 C   0  0  0  0  0  3  0  0  0  0  0  0
  -27.1470  -37.0030   24.4530 C   0  0  0  0  0  1  0  0  0  0  0  0
  -26.0590  -37.1040   23.4830 N   0  0  0  0  0  0  0  0  0  0  0  0
  -25.6160  -38.0100   23.5980 H   0  0  0  0  0  0  0  0  0  0  0  0
  -26.1780  -31.4730   24.9870 C   0  0  1  0  0  0  0  0  0  0  0  0
  -25.0520  -31.2230   26.0200 C   0  0  0  0  0  1  0  0  0  0  0  0
  -26.8270  -30.1080   24.6580 C   0  0  0  0  0  1  0  0  0  0  0  0
  -27.2760  -32.3260   25.6650 C   0  0  0  0  0  1  0  0  0  0  0  0
  1 59  1  0
  1 50  1  0
  2  5  1  0
  2  3  1  0
  2  1  1  0
  4  2  1  0
  5  8  1  0
  7  8  1  0
  8  6  1  0
  9  5  1  0
  9 10  1  0
  9 13  1  0
 10 12  1  0
 11 10  1  0
 14 13  1  0
 14 20  1  0
 15 20  1  0
 16 17  1  0
 16 15  1  0
 18 17  1  0
 18 25  1  0
 18 19  1  0
 20 19  1  0
 21 14  2  0
 22 23  2  0
 23 42  1  0
 24 23  1  0
 24 27  1  0
 25 26  1  0
 25 22  1  0
 26 24  2  0
 27 28  1  0
 28 29  2  0
 30 33  1  0
 30 29  1  0
 31 30  2  0
 32 31  1  0
 32 27  2  0
 33 34  1  0
 34 39  2  0
 34 35  1  0
 35 36  2  0
 36 37  1  0
 37 41  1  0
 38 37  2  0
 39 38  1  0
 40 39  1  0
 42 43  1  0
 43 45  1  0
 43 46  1  0
 44 42  2  0
 47 22  1  0
 47 48  1  0
 49 47  1  0
 50 56  1  0
 51 53  1  0
 52 51  2  0
 54 52  1  0
 54 56  2  0
 55 53  2  0
 55 58  1  0
 56 55  1  0
 58 57  1  0
 60 59  1  0
 60 61  1  0
 62 73  2  0
 63 61  1  0
 63 68  1  0
 64 72  1  0
 64 74  1  0
 65 71  1  0
 65 67  1  0
 66 72  1  0
 67 68  2  0
 67 66  1  0
 69 63  2  0
 70 69  1  0
 70 65  2  0
 71 64  1  0
 72 62  1  0
 74 76  2  0
 75 74  1  0
 77 75  1  0
 78 87  2  0
 78 83  1  0
 79 75  1  0
 79 83  1  0
 80 79  1  0
 81 82  1  0
 81 80  1  0
 82 78  1  0
 83 84  2  0
 84 85  1  0
 86 85  2  0
 87 86  1  0
 88 62  1  0
 88 89  1  0
 88 98  1  0
 89 92  1  0
 90 94  1  0
 90 89  1  0
 91 90  2  0
 94 93  1  0
 96 97  1  0
 96 94  1  0
 96 95  1  0
 98101  1  1
 98 99  1  0
100 98  1  0
M  ISO  4  13 100  14 100  60 101  61 101
M  END
>  <TORSDO>  (65) 
F 27

>  <SCORE>  (65) 
-9.450

>  <name>  (65) 
65

>  <ligand_id>  (65) 
65

>  <original_smiles>  (65) 
[H]c1c([H])c([H])c(C([H])([H])C([H])(C([H])([H])C([H])([H])Oc2c([H])c([H])c3c(c2[H])C([H])([H])N(C(=O)C([H])(N([H])C(=O)C([H])(N([H])C([H])([H])[H])C([H])([H])[H])C(C([H])([H])[H])(C([H])([H])[H])C([H])([H])[H])C([H])(C(=O)N([H])C2([H])c4c([H])c([H])c([H])c([H])c4C([H])([H])C([H])([H])C2([H])[H])C3([H])[H])[N+]([H])([H])C([H])(C([H])(N([H])[H])C([H])([H])C(=O)N2C([H])([H])C([H])([H])C([H])([H])C([H])(n3nc(-c4c([H])c([H])c(Oc5c([H])c([H])c(F)c([H])c5F)c([H])c4[H])c(C(=O)N([H])[H])c3N([H])[H])C2([H])[H])C([H])(C([H])([H])[H])C([H])([H])[H])c(C([H])([H])C([H])([H])[H])c1[H]

>  <smiles>  (65) 
[H]c1c([H])c([H])c(C([H])([H])C([H])(C([H])([H])C([H])([H])Oc2c([H])c([H])c3c(c2[H])C([H])([H])N(C(=O)C([H])(N([H])C(=O)C([H])(N([H])C([H])([H])[H])C([H])([H])[H])C(C([H])([H])[H])(C([H])([H])[H])C([H])([H])[H])C([H])(C(=O)N([H])C2([H])c4c([H])c([H])c([H])c([H])c4C([H])([H])C([H])([H])C2([H])[H])C3([H])[H])[N+]([H])([H])C([H])(C([H])(N([H])[H])C([H])([H])C(=O)N2C([H])([H])C([H])([H])C([H])([H])C([H])(n3nc(-c4c([H])c([H])c(Oc5c([H])c([H])c(F)c([H])c5F)c([H])c4[H])c(C(=O)N([H])[H])c3N([H])[H])C2([H])[H])C([H])(C([H])([H])[H])C([H])([H])[H])c(C([H])([H])C([H])([H])[H])c1[H]

$$$$
66:0:0
     RDKit          3D

 92100  0  0  1  0  0  0  0  0999 V2000
  -28.4620  -18.1440   20.1950 C   0  0  0  0  0  0  0  0  0  0  0  0
  -30.7930  -18.6320   21.1390 C   0  0  0  0  0  2  0  0  0  0  0  0
  -30.5610  -20.0730   20.5000 C   0  0  0  0  0  2  0  0  0  0  0  0
  -29.7310  -17.5010   20.8570 C   0  0  0  0  0  3  0  0  0  0  0  0
  -29.1090  -20.6650   20.5840 C   0  0  0  0  0  3  0  0  0  0  0  0
  -26.8720  -19.9440   19.7080 C   0  0  0  0  0  1  0  0  0  0  0  0
  -28.2060  -19.5160   20.1640 N   0  0  0  0  0  0  0  0  0  0  0  0
  -27.6680  -17.3330   19.7060 O   0  0  0  0  0  0  0  0  0  0  0  0
  -30.7830  -14.9980   20.9740 C   0  0  0  0  0  0  0  0  0  0  0  0
  -30.7350  -12.5950   20.2300 C   0  0  0  0  0  2  0  0  0  0  0  0
  -29.9550  -12.3820   18.9170 C   0  0  0  0  0  2  0  0  0  0  0  0
  -28.4390  -12.2590   19.1810 C   0  0  0  0  0  2  0  0  0  0  0  0
  -27.8910  -13.2750   20.2240 C   0  0  0  0  0  3  0  0  0  0  0  0
  -28.8230  -13.4150   21.4450 C   0  0  0  0  0  2  0  0  0  0  0  0
  -30.1460  -13.7700   20.9170 N   0  0  0  0  0  0  0  0  0  0  0  0
  -32.0030  -14.9990   21.1400 O   0  0  0  0  0  0  0  0  0  0  0  0
  -30.2160  -16.1170   20.3130 N   0  0  0  0  0  0  0  0  0  0  0  0
  -25.4400  -13.8450   20.6910 C   0  0  0  0  0  0  0  0  0  0  0  0
  -24.3470  -13.0690   20.9710 C   0  0  0  0  0  0  0  0  0  0  0  0
  -24.8250  -11.7240   21.0450 C   0  0  0  0  0  0  0  0  0  0  0  0
  -26.5130  -12.9740   20.5990 N   0  0  0  0  0  0  0  0  0  0  0  0
  -26.1450  -11.6990   20.8920 N   0  0  0  0  0  0  0  0  0  0  0  0
  -24.0940  -10.4600   21.1940 C   0  0  0  0  0  0  0  0  0  0  0  0
  -24.4510   -9.5120   22.1750 C   0  0  0  0  0  3  0  0  0  0  0  0
  -23.7210   -8.3140   22.3140 C   0  0  0  0  0  3  0  0  0  0  0  0
  -22.6140   -8.0540   21.4710 C   0  0  0  0  0  0  0  0  0  0  0  0
  -22.2750   -8.9910   20.4790 C   0  0  0  0  0  3  0  0  0  0  0  0
  -23.0080  -10.1830   20.3370 C   0  0  0  0  0  3  0  0  0  0  0  0
  -21.8640   -6.9050   21.5170 O   0  0  0  0  0  0  0  0  0  0  0  0
  -21.7430   -6.1700   22.6680 C   0  0  0  0  0  0  0  0  0  0  0  0
  -21.2110   -6.7190   23.8560 C   0  0  0  0  0  3  0  0  0  0  0  0
  -21.0460   -5.9070   24.9950 C   0  0  0  0  0  3  0  0  0  0  0  0
  -21.3980   -4.5460   24.9490 C   0  0  0  0  0  0  0  0  0  0  0  0
  -21.9200   -3.9940   23.7650 C   0  0  0  0  0  3  0  0  0  0  0  0
  -22.0870   -4.8040   22.6280 C   0  0  0  0  0  0  0  0  0  0  0  0
  -22.5710   -4.2630   21.4840 F   0  0  0  0  0  0  0  0  0  0  0  0
  -21.2290   -3.7610   26.0390 F   0  0  0  0  0  0  0  0  0  0  0  0
  -22.9250  -13.5380   21.0630 C   0  0  0  0  0  0  0  0  0  0  0  0
  -22.1180  -12.8900   21.8940 N   0  0  0  0  0  0  0  0  0  0  0  0
  -22.5310  -14.5160   20.4280 O   0  0  0  0  0  0  0  0  0  0  0  0
  -22.4490  -12.1030   22.4350 H   0  0  0  0  0  0  0  0  0  0  0  0
  -21.1590  -13.1910   21.9950 H   0  0  0  0  0  0  0  0  0  0  0  0
  -25.6000  -15.2090   20.4790 N   0  0  0  0  0  0  0  0  0  0  0  0
  -24.8190  -15.8520   20.5170 H   0  0  0  0  0  0  0  0  0  0  0  0
  -26.4710  -15.6760   20.2280 H   0  0  0  0  0  0  0  0  0  0  0  0
  -30.4700  -16.1680   18.8460 C   0  0  0  0  0  2  0  0  0  0  0  0
  -32.1280  -16.4180   16.8970 C   0  0  0  0  0  1  0  0  0  0  0  0
  -31.9350  -16.4520   18.4210 C   0  0  0  0  0  2  0  0  0  0  0  0
  -28.8460  -22.1270   19.8230 C   0  0  0  0  0  2  0  0  0  0  0  0
  -29.2720  -23.6290   20.3230 C   0  0  0  0  0  3  0  0  0  0  0  0
  -28.3070  -24.8920   19.9160 C   0  0  0  0  0  3  0  0  0  0  0  0
  -28.5530  -26.3750   20.1470 O   0  0  0  0  0  0  0  0  0  0  0  0
  -24.6560  -31.7590   23.1670 C   0  0  0  0  0  0  0  0  0  0  0  0
  -27.4530  -27.2830   20.0690 C   0  0  0  0  0  0  0  0  0  0  0  0
  -23.5420  -30.3880   21.4490 C   0  0  0  0  0  3  0  0  0  0  0  0
  -25.0700  -28.9110   20.0230 C   0  0  0  0  0  0  0  0  0  0  0  0
  -26.0840  -30.7470   21.3670 C   0  0  0  0  0  2  0  0  0  0  0  0
  -26.2160  -29.3880   20.6760 C   0  0  0  0  0  0  0  0  0  0  0  0
  -27.4080  -28.5870   20.6860 C   0  0  0  0  0  3  0  0  0  0  0  0
  -26.2770  -26.8890   19.3860 C   0  0  0  0  0  3  0  0  0  0  0  0
  -25.1090  -27.6710   19.3750 C   0  0  0  0  0  3  0  0  0  0  0  0
  -23.8160  -29.7640   20.0580 C   0  0  0  0  0  2  0  0  0  0  0  0
  -24.7780  -30.9820   22.0510 N   0  0  0  0  0  0  0  0  0  0  0  0
  -23.5480  -31.9990   23.6680 O   0  0  0  0  0  0  0  0  0  0  0  0
  -22.8620  -29.3300   22.3520 C   0  0  0  0  0  0  0  0  0  0  0  0
  -21.5360  -29.1600   22.2030 N   0  0  0  0  0  0  0  0  0  0  0  0
  -23.5300  -28.6660   23.1470 O   0  0  0  0  0  0  0  0  0  0  0  0
  -21.0560  -29.7440   21.5310 H   0  0  0  0  0  0  0  0  0  0  0  0
  -18.1470  -27.9770   22.6530 C   0  0  0  0  0  0  0  0  0  0  0  0
  -20.7100  -28.1880   22.9230 C   0  0  0  0  0  3  0  0  0  0  0  0
  -20.7890  -26.7920   22.2620 C   0  0  0  0  0  2  0  0  0  0  0  0
  -19.6780  -26.5460   21.2370 C   0  0  0  0  0  2  0  0  0  0  0  0
  -18.3010  -26.6680   21.8970 C   0  0  0  0  0  2  0  0  0  0  0  0
  -19.2780  -28.6980   23.1200 C   0  0  0  0  0  0  0  0  0  0  0  0
  -19.0760  -29.9250   23.7860 C   0  0  0  0  0  3  0  0  0  0  0  0
  -17.7770  -30.4290   23.9910 C   0  0  0  0  0  3  0  0  0  0  0  0
  -16.6610  -29.7030   23.5420 C   0  0  0  0  0  3  0  0  0  0  0  0
  -16.8470  -28.4790   22.8760 C   0  0  0  0  0  3  0  0  0  0  0  0
  -25.9000  -32.3980   23.8540 C   0  0  0  0  0  3  0  0  0  0  0  0
  -25.5560  -33.7880   24.1950 N   0  0  0  0  0  0  0  0  0  0  0  0
  -25.9090  -34.8630   23.4760 C   0  0  0  0  0  0  0  0  0  0  0  0
  -26.6280  -34.7890   22.4750 O   0  0  0  0  0  0  0  0  0  0  0  0
  -24.9210  -33.9180   24.9690 H   0  0  0  0  0  0  0  0  0  0  0  0
  -24.1820  -36.6440   23.0760 C   0  0  0  0  0  1  0  0  0  0  0  0
  -25.3840  -36.2330   23.9420 C   0  0  0  0  0  3  0  0  0  0  0  0
  -27.4540  -37.1210   24.9120 C   0  0  0  0  0  1  0  0  0  0  0  0
  -26.4070  -37.2990   23.9100 N   0  0  0  0  0  0  0  0  0  0  0  0
  -25.9840  -38.2120   24.0520 H   0  0  0  0  0  0  0  0  0  0  0  0
  -26.3750  -31.6130   25.1370 C   0  0  1  0  0  0  0  0  0  0  0  0
  -25.2430  -31.3490   26.1560 C   0  0  0  0  0  1  0  0  0  0  0  0
  -26.9870  -30.2480   24.7520 C   0  0  0  0  0  1  0  0  0  0  0  0
  -27.4870  -32.4140   25.8540 C   0  0  0  0  0  1  0  0  0  0  0  0
  1  4  1  0
  3  5  1  0
  3  2  1  0
  4 17  1  0
  4  2  1  0
  5 49  1  0
  6  7  1  0
  7  1  1  0
  7  5  1  0
  8  1  2  0
  9 16  2  0
 10 15  1  0
 11 12  1  0
 11 10  1  0
 13 12  1  0
 13 21  1  0
 13 14  1  0
 15  9  1  0
 15 14  1  0
 17  9  1  0
 18 19  2  0
 19 20  1  0
 19 38  1  0
 20 23  1  0
 21 18  1  0
 21 22  1  0
 22 20  2  0
 23 24  1  0
 24 25  2  0
 26 29  1  0
 26 25  1  0
 27 26  2  0
 28 27  1  0
 28 23  2  0
 29 30  1  0
 30 31  1  0
 31 32  2  0
 33 32  1  0
 33 37  1  0
 34 33  2  0
 35 30  2  0
 35 34  1  0
 36 35  1  0
 38 39  1  0
 39 42  1  0
 39 41  1  0
 40 38  2  0
 43 44  1  0
 43 18  1  0
 45 43  1  0
 46 17  1  0
 47 48  1  0
 48 46  1  0
 49 50  1  0
 51 52  1  0
 51 50  2  0
 53 64  2  0
 54 52  1  0
 54 59  1  0
 55 63  1  0
 55 65  1  0
 56 62  1  0
 56 58  1  0
 57 63  1  0
 58 59  2  0
 58 57  1  0
 60 54  2  0
 61 60  1  0
 61 56  2  0
 62 55  1  0
 63 53  1  0
 65 67  2  0
 66 65  1  0
 68 66  1  0
 69 78  2  0
 69 74  1  0
 70 66  1  0
 70 74  1  0
 71 70  1  0
 72 73  1  0
 72 71  1  0
 73 69  1  0
 74 75  2  0
 75 76  1  0
 77 76  2  0
 78 77  1  0
 79 53  1  0
 79 80  1  0
 79 89  1  0
 80 83  1  0
 81 85  1  0
 81 80  1  0
 82 81  2  0
 85 84  1  0
 87 85  1  0
 87 88  1  0
 87 86  1  0
 89 92  1  1
 89 90  1  0
 91 89  1  0
M  ISO  4   9 100  17 100  51 101  52 101
M  END
>  <TORSDO>  (66) 
F 21

>  <SCORE>  (66) 
-12.893

>  <name>  (66) 
66

>  <ligand_id>  (66) 
66

>  <original_smiles>  (66) 
[H]c1c([H])c([H])c2c(c1[H])C([H])([H])C([H])([H])C([H])([H])C2([H])N([H])C(=O)C1([H])N(C(=O)C([H])(N([H])C(=O)C([H])(N([H])C([H])([H])[H])C([H])([H])[H])C(C([H])([H])[H])(C([H])([H])[H])C([H])([H])[H])C([H])([H])c2c([H])c(OC([H])([H])C([H])([H])C([H])([H])C3([H])N(C([H])([H])[H])C(=O)C([H])(N(C(=O)N4C([H])([H])C([H])([H])C([H])([H])C([H])(n5nc(-c6c([H])c([H])c(Oc7c([H])c([H])c(F)c([H])c7F)c([H])c6[H])c(C(=O)N([H])[H])c5N([H])[H])C4([H])[H])C([H])([H])C([H])([H])C([H])([H])[H])C([H])([H])C3([H])[H])c([H])c([H])c2C1([H])[H]

>  <smiles>  (66) 
[H]c1c([H])c([H])c2c(c1[H])C([H])([H])C([H])([H])C([H])([H])C2([H])N([H])C(=O)C1([H])N(C(=O)C([H])(N([H])C(=O)C([H])(N([H])C([H])([H])[H])C([H])([H])[H])C(C([H])([H])[H])(C([H])([H])[H])C([H])([H])[H])C([H])([H])c2c([H])c(OC([H])([H])C([H])([H])C([H])([H])C3([H])N(C([H])([H])[H])C(=O)C([H])(N(C(=O)N4C([H])([H])C([H])([H])C([H])([H])C([H])(n5nc(-c6c([H])c([H])c(Oc7c([H])c([H])c(F)c([H])c7F)c([H])c6[H])c(C(=O)N([H])[H])c5N([H])[H])C4([H])[H])C([H])([H])C([H])([H])C([H])([H])[H])C([H])([H])C3([H])[H])c([H])c([H])c2C1([H])[H]

$$$$
67:0:0
     RDKit          3D

 88 92  0  0  1  0  0  0  0  0999 V2000
  -27.7440  -21.3610   19.4940 C   0  0  0  0  0  2  0  0  0  0  0  0
  -29.4770  -20.9050   20.7050 C   0  0  0  0  0 15  0  0  0  0  0  0
  -27.9370  -19.6250   19.8530 C   0  0  0  0  0  3  0  0  0  0  0  0
  -28.3560  -22.6470   20.4110 C   0  0  0  0  0  1  0  0  0  0  0  0
  -29.4190  -18.8870   20.1630 C   0  0  0  0  0  2  0  0  0  0  0  0
  -30.2370  -19.0420   18.8600 C   0  0  0  0  0  1  0  0  0  0  0  0
  -30.0780  -16.7630   20.3630 C   0  0  0  0  0  2  0  0  0  0  0  0
  -30.5100  -13.9780   19.6940 C   0  0  0  0  0  2  0  0  0  0  0  0
  -29.8050  -13.1340   18.5520 C   0  0  0  0  0  2  0  0  0  0  0  0
  -28.4580  -12.5610   18.9950 C   0  0  0  0  0  2  0  0  0  0  0  0
  -27.7510  -13.6010   19.8760 C   0  0  0  0  0  3  0  0  0  0  0  0
  -28.6460  -14.3210   20.9480 C   0  0  0  0  0  2  0  0  0  0  0  0
  -29.6900  -15.2230   20.2890 N   0  0  0  0  0  0  0  0  0  0  0  0
  -31.3250  -16.5140   20.3830 O   0  0  0  0  0  1  0  0  0  0  0  0
  -25.3660  -13.9860   20.5820 C   0  0  0  0  0  0  0  0  0  0  0  0
  -24.3230  -13.1700   20.9070 C   0  0  0  0  0  0  0  0  0  0  0  0
  -24.8360  -11.8350   20.8840 C   0  0  0  0  0  0  0  0  0  0  0  0
  -26.4510  -13.1620   20.3740 N   0  0  0  0  0  0  0  0  0  0  0  0
  -26.1450  -11.8520   20.6120 N   0  0  0  0  0  0  0  0  0  0  0  0
  -24.1250  -10.5540   21.0430 C   0  0  0  0  0  0  0  0  0  0  0  0
  -24.5050   -9.6090   22.0230 C   0  0  0  0  0  3  0  0  0  0  0  0
  -23.7830   -8.4040   22.1780 C   0  0  0  0  0  3  0  0  0  0  0  0
  -22.6660   -8.1320   21.3520 C   0  0  0  0  0  0  0  0  0  0  0  0
  -22.3030   -9.0660   20.3650 C   0  0  0  0  0  3  0  0  0  0  0  0
  -23.0260  -10.2620   20.2090 C   0  0  0  0  0  3  0  0  0  0  0  0
  -21.9240   -6.9760   21.4120 O   0  0  0  0  0  0  0  0  0  0  0  0
  -21.7660   -6.2790   22.5830 C   0  0  0  0  0  0  0  0  0  0  0  0
  -21.1660   -6.8610   23.7220 C   0  0  0  0  0  3  0  0  0  0  0  0
  -20.9620   -6.0880   24.8820 C   0  0  0  0  0  3  0  0  0  0  0  0
  -21.3440   -4.7340   24.9050 C   0  0  0  0  0  0  0  0  0  0  0  0
  -21.9350   -4.1500   23.7690 C   0  0  0  0  0  3  0  0  0  0  0  0
  -22.1420   -4.9210   22.6120 C   0  0  0  0  0  0  0  0  0  0  0  0
  -22.6920   -4.3470   21.5140 F   0  0  0  0  0  0  0  0  0  0  0  0
  -21.1400   -3.9890   26.0170 F   0  0  0  0  0  0  0  0  0  0  0  0
  -22.9040  -13.6100   21.1150 C   0  0  0  0  0  0  0  0  0  0  0  0
  -22.1620  -12.9090   21.9630 N   0  0  0  0  0  0  0  0  0  0  0  0
  -22.4640  -14.6190   20.5630 O   0  0  0  0  0  0  0  0  0  0  0  0
  -22.5330  -12.0960   22.4330 H   0  0  0  0  0  0  0  0  0  0  0  0
  -21.2090  -13.1900   22.1470 H   0  0  0  0  0  0  0  0  0  0  0  0
  -25.4730  -15.3620   20.4060 N   0  0  0  0  0  0  0  0  0  0  0  0
  -24.6550  -15.9560   20.4630 H   0  0  0  0  0  0  0  0  0  0  0  0
  -26.2720  -15.8460   20.0040 H   0  0  0  0  0  0  0  0  0  0  0  0
  -27.1290  -18.7230   18.9050 C   0  0  0  0  0  0  0  0  0  0  0  0
  -26.5080  -19.2780   17.8720 N   0  0  0  0  0  0  0  0  0  0  0  0
  -27.0740  -17.5090   19.0960 O   0  0  0  0  0  0  0  0  0  0  0  0
  -26.5670  -20.2740   17.7150 H   0  0  0  0  0  0  0  0  0  0  0  0
  -25.9760  -18.7080   17.2300 H   0  0  0  0  0  0  0  0  0  0  0  0
  -28.2210  -24.7500   20.3380 O   0  0  0  0  0  1  0  0  0  0  0  0
  -24.7300  -31.8820   23.1230 C   0  0  0  0  0  0  0  0  0  0  0  0
  -27.2850  -26.2250   20.3190 C   0  0  0  0  0  0  0  0  0  0  0  0
  -23.5880  -30.4300   21.5120 C   0  0  0  0  0  3  0  0  0  0  0  0
  -25.0580  -28.6350   20.1890 C   0  0  0  0  0  0  0  0  0  0  0  0
  -26.1890  -30.4040   21.4840 C   0  0  0  0  0  2  0  0  0  0  0  0
  -26.2590  -28.8910   20.8580 C   0  0  0  0  0  0  0  0  0  0  0  0
  -27.3240  -27.7400   20.8670 C   0  0  0  0  0  3  0  0  0  0  0  0
  -26.0390  -26.3380   19.5850 C   0  0  0  0  0  3  0  0  0  0  0  0
  -25.0240  -27.3870   19.5250 C   0  0  0  0  0  3  0  0  0  0  0  0
  -23.8730  -29.6550   20.1820 C   0  0  0  0  0  2  0  0  0  0  0  0
  -24.8670  -30.9560   22.0900 N   0  0  0  0  0  0  0  0  0  0  0  0
  -23.6190  -32.2110   23.5830 O   0  0  0  0  0  0  0  0  0  0  0  0
  -22.8090  -29.5250   22.5120 C   0  0  0  0  0  0  0  0  0  0  0  0
  -21.4710  -29.3990   22.3840 N   0  0  0  0  0  0  0  0  0  0  0  0
  -23.4340  -28.9240   23.3880 O   0  0  0  0  0  0  0  0  0  0  0  0
  -21.0070  -29.9330   21.6610 H   0  0  0  0  0  0  0  0  0  0  0  0
  -18.0640  -28.2160   22.9360 C   0  0  0  0  0  0  0  0  0  0  0  0
  -20.6290  -28.4830   23.1700 C   0  0  0  0  0  3  0  0  0  0  0  0
  -20.7160  -27.0410   22.6140 C   0  0  0  0  0  2  0  0  0  0  0  0
  -19.6080  -26.7170   21.6080 C   0  0  0  0  0  2  0  0  0  0  0  0
  -18.2310  -26.8670   22.2590 C   0  0  0  0  0  2  0  0  0  0  0  0
  -19.1880  -28.9820   23.3490 C   0  0  0  0  0  0  0  0  0  0  0  0
  -18.9700  -30.2400   23.9530 C   0  0  0  0  0  3  0  0  0  0  0  0
  -17.6660  -30.7340   24.1420 C   0  0  0  0  0  3  0  0  0  0  0  0
  -16.5570  -29.9680   23.7400 C   0  0  0  0  0  3  0  0  0  0  0  0
  -16.7570  -28.7090   23.1440 C   0  0  0  0  0  3  0  0  0  0  0  0
  -25.9540  -32.5870   23.7880 C   0  0  0  0  0  3  0  0  0  0  0  0
  -25.5910  -33.9900   24.1090 N   0  0  0  0  0  0  0  0  0  0  0  0
  -25.9320  -35.0730   23.3940 C   0  0  0  0  0  0  0  0  0  0  0  0
  -26.6260  -34.9970   22.3780 O   0  0  0  0  0  0  0  0  0  0  0  0
  -24.9720  -34.1200   24.8950 H   0  0  0  0  0  0  0  0  0  0  0  0
  -24.2070  -36.8860   23.0530 C   0  0  0  0  0  1  0  0  0  0  0  0
  -25.4340  -36.4580   23.8750 C   0  0  0  0  0  3  0  0  0  0  0  0
  -27.5440  -37.3530   24.7690 C   0  0  0  0  0  1  0  0  0  0  0  0
  -26.4650  -37.5190   23.7980 N   0  0  0  0  0  0  0  0  0  0  0  0
  -26.0490  -38.4360   23.9390 H   0  0  0  0  0  0  0  0  0  0  0  0
  -26.4300  -31.8680   25.1130 C   0  0  1  0  0  0  0  0  0  0  0  0
  -25.3030  -31.6530   26.1520 C   0  0  0  0  0  1  0  0  0  0  0  0
  -27.0430  -30.4850   24.8090 C   0  0  0  0  0  1  0  0  0  0  0  0
  -27.5500  -32.6980   25.7870 C   0  0  0  0  0  1  0  0  0  0  0  0
  1  3  1  0
  1  4  1  0
  3  5  1  0
  6  5  1  0
  7 14  1  0
  8 13  1  0
  9 10  1  0
  9  8  1  0
 11 10  1  0
 11 18  1  0
 11 12  1  0
 13  7  1  0
 13 12  1  0
 15 16  2  0
 16 35  1  0
 17 16  1  0
 17 20  1  0
 18 15  1  0
 18 19  1  0
 19 17  2  0
 20 21  1  0
 21 22  2  0
 23 26  1  0
 23 22  1  0
 24 23  2  0
 25 24  1  0
 25 20  2  0
 26 27  1  0
 27 32  2  0
 27 28  1  0
 28 29  2  0
 29 30  1  0
 30 34  1  0
 31 30  2  0
 32 31  1  0
 33 32  1  0
 35 36  1  0
 36 39  1  0
 36 38  1  0
 37 35  2  0
 40 41  1  0
 40 15  1  0
 42 40  1  0
 43 45  2  0
 43  3  1  0
 44 43  1  0
 46 44  1  0
 47 44  1  0
 49 60  2  0
 50 48  1  0
 50 55  1  0
 51 59  1  0
 51 61  1  0
 52 54  1  0
 53 59  1  0
 54 55  2  0
 54 53  1  0
 56 50  2  0
 57 56  1  0
 57 52  2  0
 58 52  1  0
 58 51  1  0
 59 49  1  0
 61 63  2  0
 62 61  1  0
 64 62  1  0
 65 74  2  0
 65 70  1  0
 66 62  1  0
 66 70  1  0
 67 66  1  0
 68 69  1  0
 68 67  1  0
 69 65  1  0
 70 71  2  0
 71 72  1  0
 73 72  2  0
 74 73  1  0
 75 49  1  0
 75 76  1  0
 75 85  1  0
 76 79  1  0
 77 81  1  0
 77 76  1  0
 78 77  2  0
 81 80  1  0
 83 81  1  0
 83 84  1  0
 83 82  1  0
 85 88  1  1
 85 86  1  0
 87 85  1  0
M  ISO  4   4 101   5 100   7 100  48 101
M  END
>  <TORSDO>  (67) 
F 17

>  <SCORE>  (67) 
-15.439

>  <name>  (67) 
67

>  <ligand_id>  (67) 
67

>  <original_smiles>  (67) 
[H]c1c([H])c([H])c2c(c1[H])C([H])([H])C([H])([H])C([H])([H])C2([H])N([H])C(=O)C1([H])N(C(=O)C([H])(N([H])C(=O)C([H])(N([H])C([H])([H])[H])C([H])([H])[H])C(C([H])([H])[H])(C([H])([H])[H])C([H])([H])[H])C([H])([H])c2c([H])c(OC3([H])C([H])([H])C([H])(C(=O)N([H])[H])C(C(=O)N4C([H])([H])C([H])([H])C([H])([H])C([H])(n5nc(-c6c([H])c([H])c(Oc7c([H])c([H])c(F)c([H])c7F)c([H])c6[H])c(C(=O)N([H])[H])c5N([H])[H])C4([H])[H])(C([H])([H])[H])C3([H])[H])c([H])c([H])c2C1([H])[H]

>  <smiles>  (67) 
[H]c1c([H])c([H])c2c(c1[H])C([H])([H])C([H])([H])C([H])([H])C2([H])N([H])C(=O)C1([H])N(C(=O)C([H])(N([H])C(=O)C([H])(N([H])C([H])([H])[H])C([H])([H])[H])C(C([H])([H])[H])(C([H])([H])[H])C([H])([H])[H])C([H])([H])c2c([H])c(OC3([H])C([H])([H])C([H])(C(=O)N([H])[H])C(C(=O)N4C([H])([H])C([H])([H])C([H])([H])C([H])(n5nc(-c6c([H])c([H])c(Oc7c([H])c([H])c(F)c([H])c7F)c([H])c6[H])c(C(=O)N([H])[H])c5N([H])[H])C4([H])[H])(C([H])([H])[H])C3([H])[H])c([H])c([H])c2C1([H])[H]

$$$$
68:0:0
     RDKit          3D

 91 98  0  0  1  0  0  0  0  0999 V2000
  -29.2000  -19.8740   19.7990 C   0  0  0  0  0  0  0  0  0  0  0  0
  -29.4640  -21.3020   20.0590 N   0  0  0  0  0  0  0  0  0  0  0  0
  -28.0450  -19.6160   19.4650 O   0  0  0  0  0  0  0  0  0  0  0  0
  -30.4000  -21.4330   20.4190 H   0  0  0  0  0  0  0  0  0  0  0  0
  -30.2420  -18.4750   19.7780 C   0  0  0  0  0  2  0  0  0  0  0  0
  -30.0120  -16.7490   20.2210 C   0  0  0  0  0  3  0  0  0  0  0  0
  -30.7020  -15.2520   19.6130 C   0  0  0  0  0  0  0  0  0  0  0  0
  -30.4710  -12.9050   18.5150 C   0  0  0  0  0  2  0  0  0  0  0  0
  -29.3770  -12.8710   17.4140 C   0  0  0  0  0  2  0  0  0  0  0  0
  -27.9800  -12.6190   18.0160 C   0  0  0  0  0  2  0  0  0  0  0  0
  -27.7420  -13.4750   19.2830 C   0  0  0  0  0  3  0  0  0  0  0  0
  -28.9360  -13.4240   20.2510 C   0  0  0  0  0  2  0  0  0  0  0  0
  -30.1120  -13.9570   19.5360 N   0  0  0  0  0  0  0  0  0  0  0  0
  -31.8400  -15.2790   19.1210 O   0  0  0  0  0  0  0  0  0  0  0  0
  -25.5220  -14.0510   20.4020 C   0  0  0  0  0  0  0  0  0  0  0  0
  -24.4930  -13.2800   20.8650 C   0  0  0  0  0  0  0  0  0  0  0  0
  -24.8990  -11.9230   20.6770 C   0  0  0  0  0  0  0  0  0  0  0  0
  -26.4830  -13.1650   19.9470 N   0  0  0  0  0  0  0  0  0  0  0  0
  -26.1320  -11.8740   20.1820 N   0  0  0  0  0  0  0  0  0  0  0  0
  -24.1580  -10.6720   20.8840 C   0  0  0  0  0  0  0  0  0  0  0  0
  -24.6060   -9.6870   21.7950 C   0  0  0  0  0  3  0  0  0  0  0  0
  -23.8650   -8.5020   21.9870 C   0  0  0  0  0  3  0  0  0  0  0  0
  -22.6630   -8.2910   21.2700 C   0  0  0  0  0  0  0  0  0  0  0  0
  -22.2340   -9.2630   20.3490 C   0  0  0  0  0  3  0  0  0  0  0  0
  -22.9750  -10.4400   20.1550 C   0  0  0  0  0  3  0  0  0  0  0  0
  -21.8910   -7.1580   21.3740 O   0  0  0  0  0  0  0  0  0  0  0  0
  -21.7540   -6.4870   22.5620 C   0  0  0  0  0  0  0  0  0  0  0  0
  -21.2520   -7.1180   23.7210 C   0  0  0  0  0  3  0  0  0  0  0  0
  -21.0610   -6.3730   24.9020 C   0  0  0  0  0  3  0  0  0  0  0  0
  -21.3650   -4.9980   24.9260 C   0  0  0  0  0  0  0  0  0  0  0  0
  -21.8620   -4.3670   23.7720 C   0  0  0  0  0  3  0  0  0  0  0  0
  -22.0540   -5.1100   22.5920 C   0  0  0  0  0  0  0  0  0  0  0  0
  -22.5130   -4.4930   21.4770 F   0  0  0  0  0  0  0  0  0  0  0  0
  -21.1760   -4.2800   26.0570 F   0  0  0  0  0  0  0  0  0  0  0  0
  -23.1650  -13.7740   21.3590 C   0  0  0  0  0  0  0  0  0  0  0  0
  -22.5570  -13.0630   22.3010 N   0  0  0  0  0  0  0  0  0  0  0  0
  -22.6820  -14.8260   20.9430 O   0  0  0  0  0  0  0  0  0  0  0  0
  -22.9650  -12.2120   22.6570 H   0  0  0  0  0  0  0  0  0  0  0  0
  -21.6720  -13.3770   22.6730 H   0  0  0  0  0  0  0  0  0  0  0  0
  -25.7140  -15.4250   20.3020 N   0  0  0  0  0  0  0  0  0  0  0  0
  -24.9930  -16.0880   20.5680 H   0  0  0  0  0  0  0  0  0  0  0  0
  -26.5030  -15.8630   19.8460 H   0  0  0  0  0  0  0  0  0  0  0  0
  -29.0630  -17.4840   22.5260 C   0  0  0  0  0  1  0  0  0  0  0  0
  -30.1480  -16.6850   21.7780 C   0  0  0  0  0  3  0  0  0  0  0  0
  -31.5070  -17.0340   22.2520 N   0  0  0  0  0  4  0  0  0  0  0  0
  -31.7380  -17.9940   22.0760 H   0  0  0  0  0  0  0  0  0  0  0  0
  -32.2040  -16.4570   21.8120 H   0  0  0  0  0  0  0  0  0  0  0  0
  -31.5800  -16.8790   23.2440 H   0  0  0  0  0  0  0  0  0  0  0  0
  -28.8030  -22.7750   19.6300 C   0  0  0  0  0  2  0  0  0  0  0  0
  -28.3940  -24.2860   20.5000 C   0  0  0  0  0  2  0  0  0  0  0  0
  -28.4360  -25.8950   20.1690 O   0  0  0  0  0  0  0  0  0  0  0  0
  -24.5290  -31.6520   23.1070 C   0  0  0  0  0  0  0  0  0  0  0  0
  -27.3410  -26.8970   20.1690 C   0  0  0  0  0  0  0  0  0  0  0  0
  -23.4180  -30.1990   21.4590 C   0  0  0  0  0  3  0  0  0  0  0  0
  -24.9540  -28.6460   20.0770 C   0  0  0  0  0  0  0  0  0  0  0  0
  -25.9710  -30.5310   21.3410 C   0  0  0  0  0  2  0  0  0  0  0  0
  -26.1140  -29.1210   20.7020 C   0  0  0  0  0  0  0  0  0  0  0  0
  -27.3050  -28.2690   20.7160 C   0  0  0  0  0  3  0  0  0  0  0  0
  -26.1420  -26.5580   19.5070 C   0  0  0  0  0  3  0  0  0  0  0  0
  -24.9890  -27.3850   19.4600 C   0  0  0  0  0  3  0  0  0  0  0  0
  -23.6960  -29.5130   20.0930 C   0  0  0  0  0  2  0  0  0  0  0  0
  -24.6590  -30.8220   22.0230 N   0  0  0  0  0  0  0  0  0  0  0  0
  -23.4210  -31.8970   23.6130 O   0  0  0  0  0  0  0  0  0  0  0  0
  -22.7540  -29.1800   22.4210 C   0  0  0  0  0  0  0  0  0  0  0  0
  -21.4350  -28.9550   22.2740 N   0  0  0  0  0  0  0  0  0  0  0  0
  -23.4330  -28.5930   23.2670 O   0  0  0  0  0  0  0  0  0  0  0  0
  -20.9390  -29.4840   21.5700 H   0  0  0  0  0  0  0  0  0  0  0  0
  -18.1090  -27.5760   22.7100 C   0  0  0  0  0  0  0  0  0  0  0  0
  -20.6420  -27.9850   23.0370 C   0  0  0  0  0  3  0  0  0  0  0  0
  -20.8360  -26.5530   22.4890 C   0  0  0  0  0  2  0  0  0  0  0  0
  -19.7820  -26.1570   21.4500 C   0  0  0  0  0  2  0  0  0  0  0  0
  -18.3780  -26.2310   22.0560 C   0  0  0  0  0  2  0  0  0  0  0  0
  -19.1720  -28.4060   23.1560 C   0  0  0  0  0  0  0  0  0  0  0  0
  -18.8660  -29.6590   23.7300 C   0  0  0  0  0  3  0  0  0  0  0  0
  -17.5320  -30.0860   23.8600 C   0  0  0  0  0  3  0  0  0  0  0  0
  -16.4830  -29.2550   23.4300 C   0  0  0  0  0  3  0  0  0  0  0  0
  -16.7710  -28.0020   22.8610 C   0  0  0  0  0  3  0  0  0  0  0  0
  -25.7630  -32.3510   23.7540 C   0  0  0  0  0  3  0  0  0  0  0  0
  -25.3820  -33.7360   24.0790 N   0  0  0  0  0  0  0  0  0  0  0  0
  -25.6750  -34.8090   23.3300 C   0  0  0  0  0  0  0  0  0  0  0  0
  -26.3580  -34.7390   22.3060 O   0  0  0  0  0  0  0  0  0  0  0  0
  -24.7700  -33.8610   24.8720 H   0  0  0  0  0  0  0  0  0  0  0  0
  -23.8680  -36.5290   22.9800 C   0  0  0  0  0  1  0  0  0  0  0  0
  -25.1260  -36.1760   23.7900 C   0  0  0  0  0  3  0  0  0  0  0  0
  -27.2160  -37.1610   24.6250 C   0  0  0  0  0  1  0  0  0  0  0  0
  -26.1110  -37.2760   23.6770 N   0  0  0  0  0  0  0  0  0  0  0  0
  -25.6620  -38.1760   23.8210 H   0  0  0  0  0  0  0  0  0  0  0  0
  -26.2820  -31.6130   25.0500 C   0  0  1  0  0  0  0  0  0  0  0  0
  -25.1780  -31.3370   26.0980 C   0  0  0  0  0  1  0  0  0  0  0  0
  -26.9330  -30.2580   24.6920 C   0  0  0  0  0  1  0  0  0  0  0  0
  -27.3820  -32.4610   25.7310 C   0  0  0  0  0  1  0  0  0  0  0  0
  1  2  1  0
  2  4  1  0
  3  1  2  0
  5  1  1  0
  6  5  1  0
  6 44  1  0
  7  6  1  0
  8 13  1  0
  9 10  1  0
  9  8  1  0
 11 10  1  0
 11 18  1  0
 11 12  1  0
 13  7  1  0
 13 12  1  0
 14  7  2  0
 15 16  2  0
 16 35  1  0
 17 16  1  0
 17 20  1  0
 18 19  1  0
 18 15  1  0
 19 17  2  0
 20 21  1  0
 21 22  2  0
 23 26  1  0
 23 22  1  0
 24 23  2  0
 25 24  1  0
 25 20  2  0
 26 27  1  0
 27 32  2  0
 27 28  1  0
 28 29  2  0
 29 30  1  0
 30 34  1  0
 31 30  2  0
 32 31  1  0
 33 32  1  0
 35 36  1  0
 36 38  1  0
 36 39  1  0
 37 35  2  0
 40 15  1  0
 40 41  1  0
 42 40  1  0
 44 45  1  0
 44 43  1  0
 45 48  1  0
 46 45  1  0
 47 45  1  0
 49  2  1  0
 49 50  1  0
 51 50  1  0
 52 63  2  0
 53 51  1  0
 53 58  1  0
 54 62  1  0
 54 64  1  0
 55 61  1  0
 55 57  1  0
 56 62  1  0
 57 58  2  0
 57 56  1  0
 59 53  2  0
 60 59  1  0
 60 55  2  0
 61 54  1  0
 62 52  1  0
 64 66  2  0
 65 64  1  0
 67 65  1  0
 68 77  2  0
 68 73  1  0
 69 65  1  0
 69 73  1  0
 70 69  1  0
 71 72  1  0
 71 70  1  0
 72 68  1  0
 73 74  2  0
 74 75  1  0
 76 75  2  0
 77 76  1  0
 78 52  1  0
 78 79  1  0
 78 88  1  0
 79 82  1  0
 80 84  1  0
 80 79  1  0
 81 80  2  0
 84 83  1  0
 86 84  1  0
 86 87  1  0
 86 85  1  0
 88 91  1  1
 88 89  1  0
 90 88  1  0
M  ISO  4   6 100   7 100  50 101  51 101
M  END
>  <TORSDO>  (68) 
F 22

>  <SCORE>  (68) 
-10.763

>  <name>  (68) 
68

>  <ligand_id>  (68) 
68

>  <original_smiles>  (68) 
[H]c1c([H])c([H])c2c(c1[H])C([H])([H])C([H])([H])C([H])([H])C2([H])N([H])C(=O)C1([H])N(C(=O)C([H])(N([H])C(=O)C([H])(N([H])C([H])([H])[H])C([H])([H])[H])C(C([H])([H])[H])(C([H])([H])[H])C([H])([H])[H])C([H])([H])c2c([H])c(OC([H])([H])C([H])([H])N([H])C(=O)C([H])([H])C([H])(C(=O)N3C([H])([H])C([H])([H])C([H])([H])C([H])(n4nc(-c5c([H])c([H])c(Oc6c([H])c([H])c(F)c([H])c6F)c([H])c5[H])c(C(=O)N([H])[H])c4N([H])[H])C3([H])[H])C([H])(C([H])([H])[H])[N+]([H])([H])[H])c([H])c([H])c2C1([H])[H]

>  <smiles>  (68) 
[H]c1c([H])c([H])c2c(c1[H])C([H])([H])C([H])([H])C([H])([H])C2([H])N([H])C(=O)C1([H])N(C(=O)C([H])(N([H])C(=O)C([H])(N([H])C([H])([H])[H])C([H])([H])[H])C(C([H])([H])[H])(C([H])([H])[H])C([H])([H])[H])C([H])([H])c2c([H])c(OC([H])([H])C([H])([H])N([H])C(=O)C([H])([H])C([H])(C(=O)N3C([H])([H])C([H])([H])C([H])([H])C([H])(n4nc(-c5c([H])c([H])c(Oc6c([H])c([H])c(F)c([H])c6F)c([H])c5[H])c(C(=O)N([H])[H])c4N([H])[H])C3([H])[H])C([H])(C([H])([H])[H])[N+]([H])([H])[H])c([H])c([H])c2C1([H])[H]

$$$$
69:0:0
     RDKit          3D

 91 98  0  0  1  0  0  0  0  0999 V2000
  -29.5160  -21.5080   19.8770 C   0  0  0  0  0  3  0  0  0  0  0  0
  -31.4290  -20.6740   21.3300 C   0  0  0  0  0  1  0  0  0  0  0  0
  -30.4950  -20.3600   20.2150 N   0  0  1  0  0  4  0  0  0  0  0  0
  -31.0960  -20.3330   19.4030 H   0  0  0  0  0  0  0  0  0  0  0  0
  -29.9610  -18.9290   20.3100 C   0  0  0  0  0  3  0  0  0  0  0  0
  -30.9930  -17.7050   20.2150 C   0  0  0  0  0  3  0  0  0  0  0  0
  -30.4460  -16.2560   20.5960 C   0  0  0  0  0  2  0  0  0  0  0  0
  -31.2470  -14.9630   20.1500 C   0  0  0  0  0  0  0  0  0  0  0  0
  -31.0150  -12.7020   19.1310 C   0  0  0  0  0  2  0  0  0  0  0  0
  -30.0630  -12.8050   17.9170 C   0  0  0  0  0  2  0  0  0  0  0  0
  -28.5900  -12.6730   18.3550 C   0  0  0  0  0  2  0  0  0  0  0  0
  -28.2480  -13.5800   19.5640 C   0  0  0  0  0  3  0  0  0  0  0  0
  -29.3080  -13.4490   20.6810 C   0  0  0  0  0  2  0  0  0  0  0  0
  -30.6220  -13.7460   20.0970 N   0  0  0  0  0  0  0  0  0  0  0  0
  -32.3990  -15.0960   19.7280 O   0  0  0  0  0  0  0  0  0  0  0  0
  -25.8890  -14.2500   20.3370 C   0  0  0  0  0  0  0  0  0  0  0  0
  -24.8010  -13.5050   20.7060 C   0  0  0  0  0  0  0  0  0  0  0  0
  -25.2170  -12.1410   20.6400 C   0  0  0  0  0  0  0  0  0  0  0  0
  -26.8970  -13.3380   20.0650 N   0  0  0  0  0  0  0  0  0  0  0  0
  -26.5000  -12.0630   20.3100 N   0  0  0  0  0  0  0  0  0  0  0  0
  -24.4510  -10.8990   20.8130 C   0  0  0  0  0  0  0  0  0  0  0  0
  -24.8280   -9.9260   21.7640 C   0  0  0  0  0  3  0  0  0  0  0  0
  -24.0640   -8.7500   21.9240 C   0  0  0  0  0  3  0  0  0  0  0  0
  -22.9100   -8.5390   21.1320 C   0  0  0  0  0  0  0  0  0  0  0  0
  -22.5540   -9.5010   20.1700 C   0  0  0  0  0  3  0  0  0  0  0  0
  -23.3190  -10.6680   20.0080 C   0  0  0  0  0  3  0  0  0  0  0  0
  -22.1230   -7.4150   21.1990 O   0  0  0  0  0  0  0  0  0  0  0  0
  -21.9660   -6.7160   22.3700 C   0  0  0  0  0  0  0  0  0  0  0  0
  -21.4330   -7.3150   23.5310 C   0  0  0  0  0  3  0  0  0  0  0  0
  -21.2250   -6.5410   24.6910 C   0  0  0  0  0  3  0  0  0  0  0  0
  -21.5420   -5.1700   24.6890 C   0  0  0  0  0  0  0  0  0  0  0  0
  -22.0680   -4.5700   23.5310 C   0  0  0  0  0  3  0  0  0  0  0  0
  -22.2770   -5.3410   22.3750 C   0  0  0  0  0  0  0  0  0  0  0  0
  -22.7650   -4.7530   21.2550 F   0  0  0  0  0  0  0  0  0  0  0  0
  -21.3350   -4.4250   25.7990 F   0  0  0  0  0  0  0  0  0  0  0  0
  -23.4240  -14.0230   21.0080 C   0  0  0  0  0  0  0  0  0  0  0  0
  -22.6910  -13.3390   21.8790 N   0  0  0  0  0  0  0  0  0  0  0  0
  -23.0100  -15.0680   20.5070 O   0  0  0  0  0  0  0  0  0  0  0  0
  -23.0380  -12.4930   22.3050 H   0  0  0  0  0  0  0  0  0  0  0  0
  -21.7660  -13.6660   22.1220 H   0  0  0  0  0  0  0  0  0  0  0  0
  -26.0980  -15.6180   20.1870 N   0  0  0  0  0  0  0  0  0  0  0  0
  -25.3580  -16.2950   20.3320 H   0  0  0  0  0  0  0  0  0  0  0  0
  -26.9570  -16.0340   19.8520 H   0  0  0  0  0  0  0  0  0  0  0  0
  -28.2930  -21.7320   22.1970 C   0  0  0  0  0  1  0  0  0  0  0  0
  -27.2060  -20.3570   20.3510 C   0  0  0  0  0  1  0  0  0  0  0  0
  -28.1700  -21.5150   20.6790 C   0  0  0  0  0  3  0  0  0  0  0  0
  -30.1480  -22.9860   19.8680 C   0  0  0  0  0  2  0  0  0  0  0  0
  -28.4790  -23.9380   18.0740 C   0  0  0  0  0  1  0  0  0  0  0  0
  -29.4360  -24.2800   19.2280 C   0  0  0  0  0  3  0  0  0  0  0  0
  -28.8200  -25.3910   20.1900 C   0  0  0  0  0  2  0  0  0  0  0  0
  -28.8080  -26.7920   19.7230 O   0  0  0  0  0  0  0  0  0  0  0  0
  -24.6630  -31.6150   23.1280 C   0  0  0  0  0  0  0  0  0  0  0  0
  -27.6110  -27.5090   19.7820 C   0  0  0  0  0  0  0  0  0  0  0  0
  -23.5620  -30.2340   21.3990 C   0  0  0  0  0  3  0  0  0  0  0  0
  -25.1220  -28.9000   19.8750 C   0  0  0  0  0  0  0  0  0  0  0  0
  -26.0620  -30.7780   21.2260 C   0  0  0  0  0  2  0  0  0  0  0  0
  -26.2490  -29.4550   20.4950 C   0  0  0  0  0  0  0  0  0  0  0  0
  -27.4990  -28.7740   20.4350 C   0  0  0  0  0  3  0  0  0  0  0  0
  -26.4610  -26.9940   19.1520 C   0  0  0  0  0  3  0  0  0  0  0  0
  -25.2280  -27.6750   19.1950 C   0  0  0  0  0  3  0  0  0  0  0  0
  -23.8190  -29.6650   19.9790 C   0  0  0  0  0  2  0  0  0  0  0  0
  -24.7800  -30.8910   21.9760 N   0  0  0  0  0  0  0  0  0  0  0  0
  -23.5660  -31.7680   23.6830 O   0  0  0  0  0  0  0  0  0  0  0  0
  -22.9910  -29.1090   22.2930 C   0  0  0  0  0  0  0  0  0  0  0  0
  -21.6880  -28.8160   22.1360 N   0  0  0  0  0  0  0  0  0  0  0  0
  -23.7170  -28.5040   23.0860 O   0  0  0  0  0  0  0  0  0  0  0  0
  -21.1580  -29.3630   21.4730 H   0  0  0  0  0  0  0  0  0  0  0  0
  -18.4370  -27.2770   22.5030 C   0  0  0  0  0  0  0  0  0  0  0  0
  -20.9530  -27.7650   22.8410 C   0  0  0  0  0  3  0  0  0  0  0  0
  -21.2030  -26.3820   22.1940 C   0  0  0  0  0  2  0  0  0  0  0  0
  -20.1530  -26.0100   21.1420 C   0  0  0  0  0  2  0  0  0  0  0  0
  -18.7540  -25.9880   21.7630 C   0  0  0  0  0  2  0  0  0  0  0  0
  -19.4690  -28.1180   22.9950 C   0  0  0  0  0  0  0  0  0  0  0  0
  -19.1180  -29.3210   23.6460 C   0  0  0  0  0  3  0  0  0  0  0  0
  -17.7690  -29.6850   23.8100 C   0  0  0  0  0  3  0  0  0  0  0  0
  -16.7510  -28.8410   23.3340 C   0  0  0  0  0  3  0  0  0  0  0  0
  -17.0860  -27.6380   22.6850 C   0  0  0  0  0  3  0  0  0  0  0  0
  -25.8980  -32.3040   23.7880 C   0  0  0  0  0  3  0  0  0  0  0  0
  -25.5050  -33.6750   24.1420 N   0  0  0  0  0  0  0  0  0  0  0  0
  -25.7990  -34.7630   23.4170 C   0  0  0  0  0  0  0  0  0  0  0  0
  -26.5000  -34.7200   22.4030 O   0  0  0  0  0  0  0  0  0  0  0  0
  -24.8810  -33.7770   24.9300 H   0  0  0  0  0  0  0  0  0  0  0  0
  -23.9820  -36.4660   23.0650 C   0  0  0  0  0  1  0  0  0  0  0  0
  -25.2270  -36.1110   23.8940 C   0  0  0  0  0  3  0  0  0  0  0  0
  -27.2860  -37.0980   24.7960 C   0  0  0  0  0  1  0  0  0  0  0  0
  -26.2020  -37.2210   23.8270 N   0  0  0  0  0  0  0  0  0  0  0  0
  -25.7410  -38.1150   23.9770 H   0  0  0  0  0  0  0  0  0  0  0  0
  -26.4320  -31.5350   25.0580 C   0  0  1  0  0  0  0  0  0  0  0  0
  -25.3350  -31.2160   26.1010 C   0  0  0  0  0  1  0  0  0  0  0  0
  -27.0930  -30.1980   24.6480 C   0  0  0  0  0  1  0  0  0  0  0  0
  -27.5270  -32.3750   25.7560 C   0  0  0  0  0  1  0  0  0  0  0  0
  1 47  1  0
  1  3  1  0
  1 46  1  0
  3  5  1  0
  3  2  1  0
  3  4  1  6
  6  5  2  0
  6  7  1  0
  8  7  1  0
  9 14  1  0
 10 11  1  0
 10  9  1  0
 12 11  1  0
 12 19  1  0
 12 13  1  0
 14  8  1  0
 14 13  1  0
 15  8  2  0
 16 17  2  0
 17 36  1  0
 18 17  1  0
 18 21  1  0
 19 20  1  0
 19 16  1  0
 20 18  2  0
 21 22  1  0
 22 23  2  0
 24 27  1  0
 24 23  1  0
 25 24  2  0
 26 25  1  0
 26 21  2  0
 27 28  1  0
 28 33  2  0
 28 29  1  0
 29 30  2  0
 31 30  1  0
 31 35  1  0
 32 31  2  0
 33 32  1  0
 34 33  1  0
 36 37  1  0
 37 40  1  0
 37 39  1  0
 38 36  2  0
 41 42  1  0
 41 16  1  0
 43 41  1  0
 45 46  1  0
 46 44  1  0
 49 48  1  0
 49 47  1  0
 49 50  1  0
 51 53  1  0
 51 50  1  0
 52 63  2  0
 53 58  1  0
 54 62  1  0
 54 64  1  0
 55 61  1  0
 55 57  1  0
 56 62  1  0
 57 56  1  0
 58 57  2  0
 59 60  1  0
 59 53  2  0
 60 55  2  0
 61 54  1  0
 62 52  1  0
 64 66  2  0
 65 64  1  0
 67 65  1  0
 68 77  2  0
 68 73  1  0
 69 65  1  0
 69 73  1  0
 70 69  1  0
 71 72  1  0
 71 70  1  0
 72 68  1  0
 73 74  2  0
 74 75  1  0
 76 75  2  0
 77 76  1  0
 78 52  1  0
 78 79  1  0
 78 88  1  0
 79 82  1  0
 80 84  1  0
 80 79  1  0
 81 80  2  0
 84 83  1  0
 86 84  1  0
 86 87  1  0
 86 85  1  0
 88 91  1  1
 88 89  1  0
 90 88  1  0
M  ISO  4   7 100   8 100  50 101  51 101
M  END
>  <TORSDO>  (69) 
F 24

>  <SCORE>  (69) 
-10.453

>  <name>  (69) 
69

>  <ligand_id>  (69) 
69

>  <original_smiles>  (69) 
[H]c1c([H])c([H])c2c(c1[H])C([H])([H])C([H])([H])C([H])([H])C2([H])N([H])C(=O)C1([H])N(C(=O)C([H])(N([H])C(=O)C([H])(N([H])C([H])([H])[H])C([H])([H])[H])C(C([H])([H])[H])(C([H])([H])[H])C([H])([H])[H])C([H])([H])c2c([H])c(OC([H])([H])C([H])(C([H])([H])[H])C([H])([H])C([H])(C([H])(C([H])([H])[H])C([H])([H])[H])[N+]([H])(C([H])([H])[H])C([H])([H])C([H])([H])C([H])([H])C(=O)N3C([H])([H])C([H])([H])C([H])([H])C([H])(n4nc(-c5c([H])c([H])c(Oc6c([H])c([H])c(F)c([H])c6F)c([H])c5[H])c(C(=O)N([H])[H])c4N([H])[H])C3([H])[H])c([H])c([H])c2C1([H])[H]

>  <smiles>  (69) 
[H]c1c([H])c([H])c2c(c1[H])C([H])([H])C([H])([H])C([H])([H])C2([H])N([H])C(=O)C1([H])N(C(=O)C([H])(N([H])C(=O)C([H])(N([H])C([H])([H])[H])C([H])([H])[H])C(C([H])([H])[H])(C([H])([H])[H])C([H])([H])[H])C([H])([H])c2c([H])c(OC([H])([H])C([H])(C([H])([H])[H])C([H])([H])C([H])(C([H])(C([H])([H])[H])C([H])([H])[H])[N+]([H])(C([H])([H])[H])C([H])([H])C([H])([H])C([H])([H])C(=O)N3C([H])([H])C([H])([H])C([H])([H])C([H])(n4nc(-c5c([H])c([H])c(Oc6c([H])c([H])c(F)c([H])c6F)c([H])c5[H])c(C(=O)N([H])[H])c4N([H])[H])C3([H])[H])c([H])c([H])c2C1([H])[H]

$$$$
70:0:0
     RDKit          3D

 92 99  0  0  1  0  0  0  0  0999 V2000
  -28.6430  -20.7040   20.2480 C   0  0  0  0  0  0  0  0  0  0  0  0
  -28.9960  -21.9620   19.9160 N   0  0  0  0  0  0  0  0  0  0  0  0
  -27.4550  -20.3880   20.3660 O   0  0  0  0  0  0  0  0  0  0  0  0
  -29.9830  -22.1820   19.8450 H   0  0  0  0  0  0  0  0  0  0  0  0
  -29.7410  -19.6150   20.4110 C   0  0  0  0  0  2  0  0  0  0  0  0
  -29.2430  -18.1500   20.7000 C   0  0  0  0  0  3  0  0  0  0  0  0
  -28.1120  -17.7670   19.8260 N   0  0  0  0  0  4  0  0  0  0  0  0
  -28.3910  -17.6470   18.8690 H   0  0  0  0  0  0  0  0  0  0  0  0
  -27.4450  -18.5300   19.8700 H   0  0  0  0  0  0  0  0  0  0  0  0
  -27.6530  -16.9410   20.1630 H   0  0  0  0  0  0  0  0  0  0  0  0
  -30.3750  -17.0770   20.6120 C   0  0  0  0  0  2  0  0  0  0  0  0
  -30.0090  -15.6610   21.1660 C   0  0  0  0  0  2  0  0  0  0  0  0
  -30.6970  -14.4750   20.4330 C   0  0  0  0  0  0  0  0  0  0  0  0
  -30.4110  -12.3330   19.2190 C   0  0  0  0  0  2  0  0  0  0  0  0
  -29.4610  -12.5730   18.0280 C   0  0  0  0  0  2  0  0  0  0  0  0
  -27.9850  -12.4410   18.4550 C   0  0  0  0  0  2  0  0  0  0  0  0
  -27.6630  -13.2340   19.7500 C   0  0  0  0  0  3  0  0  0  0  0  0
  -28.7250  -12.9590   20.8400 C   0  0  0  0  0  2  0  0  0  0  0  0
  -30.0430  -13.2890   20.2750 N   0  0  0  0  0  0  0  0  0  0  0  0
  -31.8020  -14.6770   19.9180 O   0  0  0  0  0  0  0  0  0  0  0  0
  -25.2620  -13.8430   20.4460 C   0  0  0  0  0  0  0  0  0  0  0  0
  -24.1960  -13.0730   20.8340 C   0  0  0  0  0  0  0  0  0  0  0  0
  -24.6580  -11.7220   20.8060 C   0  0  0  0  0  0  0  0  0  0  0  0
  -26.3080  -12.9610   20.2250 N   0  0  0  0  0  0  0  0  0  0  0  0
  -25.9470  -11.6800   20.4940 N   0  0  0  0  0  0  0  0  0  0  0  0
  -23.9330  -10.4600   21.0030 C   0  0  0  0  0  0  0  0  0  0  0  0
  -24.3660   -9.4950   21.9370 C   0  0  0  0  0  3  0  0  0  0  0  0
  -23.6410   -8.2990   22.1200 C   0  0  0  0  0  3  0  0  0  0  0  0
  -22.4680   -8.0600   21.3680 C   0  0  0  0  0  0  0  0  0  0  0  0
  -22.0550   -9.0100   20.4160 C   0  0  0  0  0  3  0  0  0  0  0  0
  -22.7830  -10.1990   20.2320 C   0  0  0  0  0  3  0  0  0  0  0  0
  -21.7110   -6.9180   21.4620 O   0  0  0  0  0  0  0  0  0  0  0  0
  -21.6650   -6.1820   22.6190 C   0  0  0  0  0  0  0  0  0  0  0  0
  -21.2290   -6.7390   23.8410 C   0  0  0  0  0  3  0  0  0  0  0  0
  -21.1330   -5.9270   24.9890 C   0  0  0  0  0  3  0  0  0  0  0  0
  -21.4590   -4.5610   24.9160 C   0  0  0  0  0  0  0  0  0  0  0  0
  -21.8880   -4.0030   23.6970 C   0  0  0  0  0  3  0  0  0  0  0  0
  -21.9890   -4.8110   22.5520 C   0  0  0  0  0  0  0  0  0  0  0  0
  -22.3850   -4.2650   21.3780 F   0  0  0  0  0  0  0  0  0  0  0  0
  -21.3560   -3.7780   26.0150 F   0  0  0  0  0  0  0  0  0  0  0  0
  -22.7970  -13.5530   21.1040 C   0  0  0  0  0  0  0  0  0  0  0  0
  -22.0680  -12.8570   21.9710 N   0  0  0  0  0  0  0  0  0  0  0  0
  -22.3590  -14.5750   20.5800 O   0  0  0  0  0  0  0  0  0  0  0  0
  -22.4360  -12.0280   22.4150 H   0  0  0  0  0  0  0  0  0  0  0  0
  -21.1270  -13.1560   22.1920 H   0  0  0  0  0  0  0  0  0  0  0  0
  -25.4230  -15.2070   20.2180 N   0  0  0  0  0  0  0  0  0  0  0  0
  -24.5410  -15.7110   20.1800 H   0  0  0  0  0  0  0  0  0  0  0  0
  -25.9750  -15.3990   19.3930 H   0  0  0  0  0  0  0  0  0  0  0  0
  -28.0190  -22.9560   19.4280 C   0  0  0  0  0  2  0  0  0  0  0  0
  -28.5210  -24.4190   19.2770 C   0  0  0  0  0  2  0  0  0  0  0  0
  -28.3400  -25.3200   20.5230 C   0  0  0  0  0  2  0  0  0  0  0  0
  -28.4340  -26.7270   20.2250 O   0  0  0  0  0  0  0  0  0  0  0  0
  -24.5700  -31.8960   23.2460 C   0  0  0  0  0  0  0  0  0  0  0  0
  -27.2560  -27.4480   20.2040 C   0  0  0  0  0  0  0  0  0  0  0  0
  -23.3840  -30.4860   21.5950 C   0  0  0  0  0  3  0  0  0  0  0  0
  -24.8530  -28.9470   20.1880 C   0  0  0  0  0  0  0  0  0  0  0  0
  -25.9100  -30.8520   21.4170 C   0  0  0  0  0  2  0  0  0  0  0  0
  -26.0060  -29.4800   20.7800 C   0  0  0  0  0  0  0  0  0  0  0  0
  -27.2120  -28.7420   20.7730 C   0  0  0  0  0  3  0  0  0  0  0  0
  -26.0810  -26.9260   19.6170 C   0  0  0  0  0  3  0  0  0  0  0  0
  -24.8870  -27.6710   19.6010 C   0  0  0  0  0  3  0  0  0  0  0  0
  -23.6070  -29.8020   20.2200 C   0  0  0  0  0  2  0  0  0  0  0  0
  -24.6400  -31.0920   22.1450 N   0  0  0  0  0  0  0  0  0  0  0  0
  -23.4820  -32.1670   23.7730 O   0  0  0  0  0  0  0  0  0  0  0  0
  -22.7250  -29.4670   22.5520 C   0  0  0  0  0  0  0  0  0  0  0  0
  -21.4020  -29.2850   22.4150 N   0  0  0  0  0  0  0  0  0  0  0  0
  -23.4010  -28.8420   23.3750 O   0  0  0  0  0  0  0  0  0  0  0  0
  -20.9200  -29.8410   21.7230 H   0  0  0  0  0  0  0  0  0  0  0  0
  -18.0190  -28.1080   22.8940 C   0  0  0  0  0  0  0  0  0  0  0  0
  -20.5770  -28.3480   23.1770 C   0  0  0  0  0  3  0  0  0  0  0  0
  -20.6740  -26.9200   22.5950 C   0  0  0  0  0  2  0  0  0  0  0  0
  -19.5730  -26.6090   21.5750 C   0  0  0  0  0  2  0  0  0  0  0  0
  -18.1900  -26.7610   22.2140 C   0  0  0  0  0  2  0  0  0  0  0  0
  -19.1410  -28.8610   23.3320 C   0  0  0  0  0  0  0  0  0  0  0  0
  -18.9280  -30.1230   23.9270 C   0  0  0  0  0  3  0  0  0  0  0  0
  -17.6250  -30.6340   24.0890 C   0  0  0  0  0  3  0  0  0  0  0  0
  -16.5190  -29.8770   23.6680 C   0  0  0  0  0  3  0  0  0  0  0  0
  -16.7150  -28.6160   23.0770 C   0  0  0  0  0  3  0  0  0  0  0  0
  -25.8480  -32.5300   23.8780 C   0  0  0  0  0  3  0  0  0  0  0  0
  -26.3490  -31.7670   25.1650 C   0  0  1  0  0  0  0  0  0  0  0  0
  -25.2430  -31.5340   26.2210 C   0  0  0  0  0  1  0  0  0  0  0  0
  -26.9360  -30.3880   24.7840 C   0  0  0  0  0  1  0  0  0  0  0  0
  -27.4910  -32.5640   25.8350 C   0  0  0  0  0  1  0  0  0  0  0  0
  -25.5380  -33.9300   24.1910 N   0  0  0  0  0  0  0  0  0  0  0  0
  -25.8880  -34.9750   23.4290 C   0  0  0  0  0  0  0  0  0  0  0  0
  -26.5760  -34.8610   22.4110 O   0  0  0  0  0  0  0  0  0  0  0  0
  -24.9260  -34.0930   24.9780 H   0  0  0  0  0  0  0  0  0  0  0  0
  -24.1750  -36.7700   23.0200 C   0  0  0  0  0  1  0  0  0  0  0  0
  -25.3940  -36.3690   23.8650 C   0  0  0  0  0  3  0  0  0  0  0  0
  -27.5130  -37.2490   24.7410 C   0  0  0  0  0  1  0  0  0  0  0  0
  -26.4350  -37.4160   23.7710 N   0  0  0  0  0  0  0  0  0  0  0  0
  -26.0290  -38.3390   23.9020 H   0  0  0  0  0  0  0  0  0  0  0  0
  1  3  2  0
  1  5  1  0
  2  1  1  0
  4  2  1  0
  6  5  1  0
  7  9  1  0
  7 10  1  0
  7  6  1  0
  8  7  1  0
 11  6  1  0
 11 12  1  0
 13 12  1  0
 14 19  1  0
 15 16  1  0
 15 14  1  0
 17 16  1  0
 17 24  1  0
 17 18  1  0
 19 13  1  0
 19 18  1  0
 20 13  2  0
 21 22  2  0
 22 41  1  0
 23 22  1  0
 23 26  1  0
 24 21  1  0
 24 25  1  0
 25 23  2  0
 26 27  1  0
 27 28  2  0
 29 32  1  0
 29 28  1  0
 30 29  2  0
 31 30  1  0
 31 26  2  0
 32 33  1  0
 33 34  1  0
 34 35  2  0
 36 35  1  0
 36 40  1  0
 37 36  2  0
 38 33  2  0
 38 37  1  0
 39 38  1  0
 41 42  1  0
 42 45  1  0
 42 44  1  0
 43 41  2  0
 46 21  1  0
 47 46  1  0
 48 46  1  0
 49  2  1  0
 50 49  1  0
 50 51  1  0
 52 51  1  0
 53 64  2  0
 54 52  1  0
 54 59  1  0
 55 63  1  0
 55 65  1  0
 56 62  1  0
 56 58  1  0
 57 63  1  0
 58 57  1  0
 59 58  2  0
 60 54  2  0
 61 60  1  0
 61 56  2  0
 62 55  1  0
 63 53  1  0
 65 67  2  0
 66 65  1  0
 68 66  1  0
 69 78  2  0
 69 74  1  0
 70 66  1  0
 70 74  1  0
 71 70  1  0
 72 73  1  0
 72 71  1  0
 73 69  1  0
 74 75  2  0
 75 76  1  0
 77 76  2  0
 78 77  1  0
 79 53  1  0
 79 84  1  0
 79 80  1  0
 80 83  1  1
 80 81  1  0
 82 80  1  0
 84 87  1  0
 85 89  1  0
 85 84  1  0
 86 85  2  0
 89 88  1  0
 91 89  1  0
 91 92  1  0
 91 90  1  0
M  ISO  4  12 100  13 100  51 101  52 101
M  END
>  <TORSDO>  (70) 
F 24

>  <SCORE>  (70) 
-12.464

>  <name>  (70) 
70

>  <ligand_id>  (70) 
70

>  <original_smiles>  (70) 
[H]c1c([H])c([H])c2c(c1[H])C([H])([H])C([H])([H])C([H])([H])C2([H])N([H])C(=O)C1([H])N(C(=O)C([H])(N([H])C(=O)C([H])(N([H])C([H])([H])[H])C([H])([H])[H])C(C([H])([H])[H])(C([H])([H])[H])C([H])([H])[H])C([H])([H])c2c([H])c(OC([H])([H])C([H])([H])C([H])([H])N([H])C(=O)C([H])([H])C([H])(C([H])([H])C([H])([H])C(=O)N3C([H])([H])C([H])([H])C([H])([H])C([H])(n4nc(-c5c([H])c([H])c(Oc6c([H])c([H])c(F)c([H])c6F)c([H])c5[H])c(C(=O)N([H])[H])c4N([H])[H])C3([H])[H])[N+]([H])([H])[H])c([H])c([H])c2C1([H])[H]

>  <smiles>  (70) 
[H]c1c([H])c([H])c2c(c1[H])C([H])([H])C([H])([H])C([H])([H])C2([H])N([H])C(=O)C1([H])N(C(=O)C([H])(N([H])C(=O)C([H])(N([H])C([H])([H])[H])C([H])([H])[H])C(C([H])([H])[H])(C([H])([H])[H])C([H])([H])[H])C([H])([H])c2c([H])c(OC([H])([H])C([H])([H])C([H])([H])N([H])C(=O)C([H])([H])C([H])(C([H])([H])C([H])([H])C(=O)N3C([H])([H])C([H])([H])C([H])([H])C([H])(n4nc(-c5c([H])c([H])c(Oc6c([H])c([H])c(F)c([H])c6F)c([H])c5[H])c(C(=O)N([H])[H])c4N([H])[H])C3([H])[H])[N+]([H])([H])[H])c([H])c([H])c2C1([H])[H]

$$$$
71:0:0
     RDKit          3D

 92 99  0  0  1  0  0  0  0  0999 V2000
  -27.4400  -20.1860   20.2770 C   0  0  0  0  0  1  0  0  0  0  0  0
  -28.8540  -20.5790   20.0390 N   0  0  1  0  0  4  0  0  0  0  0  0
  -28.9280  -20.6890   19.0400 H   0  0  0  0  0  0  0  0  0  0  0  0
  -29.0140  -22.0490   20.6270 C   0  0  0  0  0  2  0  0  0  0  0  0
  -28.4250  -23.4350   19.8740 C   0  0  0  0  0  2  0  0  0  0  0  0
  -28.1440  -24.8850   20.6630 C   0  0  0  0  0  2  0  0  0  0  0  0
  -28.2270  -26.3230   20.1130 O   0  0  0  0  0  0  0  0  0  0  0  0
  -24.5720  -31.9080   23.1930 C   0  0  0  0  0  0  0  0  0  0  0  0
  -27.1310  -27.2410   20.1420 C   0  0  0  0  0  0  0  0  0  0  0  0
  -23.3560  -30.5080   21.5720 C   0  0  0  0  0  3  0  0  0  0  0  0
  -24.7830  -28.9340   20.1350 C   0  0  0  0  0  0  0  0  0  0  0  0
  -25.8980  -30.7980   21.3640 C   0  0  0  0  0  2  0  0  0  0  0  0
  -25.9680  -29.4050   20.7170 C   0  0  0  0  0  0  0  0  0  0  0  0
  -27.1430  -28.5750   20.6990 C   0  0  0  0  0  3  0  0  0  0  0  0
  -25.9200  -26.8430   19.5410 C   0  0  0  0  0  3  0  0  0  0  0  0
  -24.7680  -27.6640   19.5320 C   0  0  0  0  0  3  0  0  0  0  0  0
  -23.5540  -29.8270   20.1900 C   0  0  0  0  0  2  0  0  0  0  0  0
  -24.6310  -31.0930   22.0990 N   0  0  0  0  0  0  0  0  0  0  0  0
  -23.4940  -32.1840   23.7360 O   0  0  0  0  0  0  0  0  0  0  0  0
  -22.6990  -29.4960   22.5430 C   0  0  0  0  0  0  0  0  0  0  0  0
  -21.3700  -29.3190   22.4310 N   0  0  0  0  0  0  0  0  0  0  0  0
  -23.3840  -28.8750   23.3590 O   0  0  0  0  0  0  0  0  0  0  0  0
  -20.8760  -29.8690   21.7410 H   0  0  0  0  0  0  0  0  0  0  0  0
  -17.9970  -28.1070   22.9660 C   0  0  0  0  0  0  0  0  0  0  0  0
  -20.5580  -28.3800   23.2110 C   0  0  0  0  0  3  0  0  0  0  0  0
  -20.6620  -26.9490   22.6340 C   0  0  0  0  0  2  0  0  0  0  0  0
  -19.5510  -26.6210   21.6330 C   0  0  0  0  0  2  0  0  0  0  0  0
  -18.1740  -26.7590   22.2880 C   0  0  0  0  0  2  0  0  0  0  0  0
  -19.1160  -28.8750   23.3850 C   0  0  0  0  0  0  0  0  0  0  0  0
  -18.8960  -30.1370   23.9820 C   0  0  0  0  0  3  0  0  0  0  0  0
  -17.5920  -30.6310   24.1610 C   0  0  0  0  0  3  0  0  0  0  0  0
  -16.4870  -29.8590   23.7620 C   0  0  0  0  0  3  0  0  0  0  0  0
  -16.6910  -28.6000   23.1710 C   0  0  0  0  0  3  0  0  0  0  0  0
  -25.8580  -32.5470   23.8030 C   0  0  0  0  0  3  0  0  0  0  0  0
  -26.3880  -31.7770   25.0760 C   0  0  1  0  0  0  0  0  0  0  0  0
  -25.3030  -31.5350   26.1540 C   0  0  0  0  0  1  0  0  0  0  0  0
  -26.9710  -30.4010   24.6830 C   0  0  0  0  0  1  0  0  0  0  0  0
  -27.5460  -32.5720   25.7210 C   0  0  0  0  0  1  0  0  0  0  0  0
  -25.5430  -33.9430   24.1440 N   0  0  0  0  0  0  0  0  0  0  0  0
  -25.8710  -35.0060   23.3960 C   0  0  0  0  0  0  0  0  0  0  0  0
  -26.5350  -34.9130   22.3600 O   0  0  0  0  0  0  0  0  0  0  0  0
  -24.9470  -34.0860   24.9470 H   0  0  0  0  0  0  0  0  0  0  0  0
  -24.1450  -36.8070   23.0620 C   0  0  0  0  0  1  0  0  0  0  0  0
  -25.3870  -36.3930   23.8680 C   0  0  0  0  0  3  0  0  0  0  0  0
  -27.5270  -37.2620   24.7030 C   0  0  0  0  0  1  0  0  0  0  0  0
  -26.4210  -37.4450   23.7660 N   0  0  0  0  0  0  0  0  0  0  0  0
  -26.0190  -38.3640   23.9250 H   0  0  0  0  0  0  0  0  0  0  0  0
  -29.9080  -19.4110   20.3670 C   0  0  0  0  0  3  0  0  0  0  0  0
  -31.2810  -19.9560   19.8330 C   0  0  0  0  0  2  0  0  0  0  0  0
  -33.3380  -19.2190   21.2010 C   0  0  0  0  0  1  0  0  0  0  0  0
  -33.5170  -19.6300   18.7420 C   0  0  0  0  0  1  0  0  0  0  0  0
  -32.5890  -19.1170   19.8630 C   0  0  0  0  0  3  0  0  0  0  0  0
  -29.7490  -17.8040   19.8160 C   0  0  0  0  0  3  0  0  0  0  0  0
  -28.5460  -17.5910   19.1020 O   0  0  0  0  0  0  0  0  0  0  0  0
  -28.7720  -17.4230   18.1930 H   0  0  0  0  0  0  0  0  0  0  0  0
  -29.9940  -16.4200   20.7290 C   0  0  0  0  0  2  0  0  0  0  0  0
  -30.6810  -15.0030   20.2440 C   0  0  0  0  0  0  0  0  0  0  0  0
  -30.5230  -12.6570   19.3140 C   0  0  0  0  0  2  0  0  0  0  0  0
  -29.5930  -12.6790   18.0800 C   0  0  0  0  0  2  0  0  0  0  0  0
  -28.1310  -12.4810   18.5120 C   0  0  0  0  0  2  0  0  0  0  0  0
  -27.7440  -13.3790   19.7130 C   0  0  0  0  0  3  0  0  0  0  0  0
  -28.8050  -13.3540   20.8350 C   0  0  0  0  0  2  0  0  0  0  0  0
  -30.0870  -13.7430   20.2370 N   0  0  0  0  0  0  0  0  0  0  0  0
  -31.8420  -15.0650   19.8230 O   0  0  0  0  0  0  0  0  0  0  0  0
  -25.3490  -13.9460   20.4160 C   0  0  0  0  0  0  0  0  0  0  0  0
  -24.2870  -13.1680   20.7830 C   0  0  0  0  0  0  0  0  0  0  0  0
  -24.7660  -11.8190   20.7790 C   0  0  0  0  0  0  0  0  0  0  0  0
  -26.4050  -13.0770   20.2020 N   0  0  0  0  0  0  0  0  0  0  0  0
  -26.0600  -11.7920   20.4780 N   0  0  0  0  0  0  0  0  0  0  0  0
  -24.0460  -10.5530   20.9730 C   0  0  0  0  0  0  0  0  0  0  0  0
  -24.4650   -9.6010   21.9330 C   0  0  0  0  0  3  0  0  0  0  0  0
  -23.7440   -8.4010   22.1130 C   0  0  0  0  0  3  0  0  0  0  0  0
  -22.5880   -8.1450   21.3360 C   0  0  0  0  0  0  0  0  0  0  0  0
  -22.1890   -9.0830   20.3660 C   0  0  0  0  0  3  0  0  0  0  0  0
  -22.9120  -10.2730   20.1850 C   0  0  0  0  0  3  0  0  0  0  0  0
  -21.8370   -6.9990   21.4290 O   0  0  0  0  0  0  0  0  0  0  0  0
  -21.7520   -6.2850   22.5990 C   0  0  0  0  0  0  0  0  0  0  0  0
  -21.2670   -6.8670   23.7900 C   0  0  0  0  0  3  0  0  0  0  0  0
  -21.1300   -6.0810   24.9520 C   0  0  0  0  0  3  0  0  0  0  0  0
  -21.4680   -4.7130   24.9200 C   0  0  0  0  0  0  0  0  0  0  0  0
  -21.9450   -4.1310   23.7340 C   0  0  0  0  0  3  0  0  0  0  0  0
  -22.0840   -4.9160   22.5750 C   0  0  0  0  0  0  0  0  0  0  0  0
  -22.5240   -4.3460   21.4260 F   0  0  0  0  0  0  0  0  0  0  0  0
  -21.3290   -3.9550   26.0320 F   0  0  0  0  0  0  0  0  0  0  0  0
  -22.8830  -13.6320   21.0400 C   0  0  0  0  0  0  0  0  0  0  0  0
  -22.1550  -12.9360   21.9050 N   0  0  0  0  0  0  0  0  0  0  0  0
  -22.4430  -14.6530   20.5110 O   0  0  0  0  0  0  0  0  0  0  0  0
  -22.5260  -12.1080   22.3490 H   0  0  0  0  0  0  0  0  0  0  0  0
  -21.2150  -13.2290   22.1250 H   0  0  0  0  0  0  0  0  0  0  0  0
  -25.5020  -15.3170   20.2210 N   0  0  0  0  0  0  0  0  0  0  0  0
  -24.7290  -15.9650   20.3230 H   0  0  0  0  0  0  0  0  0  0  0  0
  -26.3570  -15.7650   19.9150 H   0  0  0  0  0  0  0  0  0  0  0  0
  2  1  1  0
  2 48  1  0
  2  4  1  0
  2  3  1  6
  5  4  1  0
  5  6  1  0
  7  9  1  0
  7  6  1  0
  8 19  2  0
  9 14  1  0
 10 18  1  0
 10 20  1  0
 11 17  1  0
 11 13  1  0
 12 18  1  0
 13 12  1  0
 14 13  2  0
 15  9  2  0
 16 15  1  0
 16 11  2  0
 17 10  1  0
 18  8  1  0
 20 22  2  0
 21 20  1  0
 23 21  1  0
 24 33  2  0
 24 29  1  0
 25 21  1  0
 25 29  1  0
 26 25  1  0
 27 28  1  0
 27 26  1  0
 28 24  1  0
 29 30  2  0
 30 31  1  0
 32 31  2  0
 33 32  1  0
 34  8  1  0
 34 39  1  0
 34 35  1  0
 35 38  1  1
 35 36  1  0
 37 35  1  0
 39 42  1  0
 40 44  1  0
 40 39  1  0
 41 40  2  0
 44 43  1  0
 46 44  1  0
 46 47  1  0
 46 45  1  0
 48 49  1  0
 49 52  1  0
 51 52  1  0
 52 50  1  0
 53 48  1  0
 53 56  1  0
 54 53  1  0
 55 54  1  0
 57 56  1  0
 58 63  1  0
 59 60  1  0
 59 58  1  0
 61 60  1  0
 61 68  1  0
 61 62  1  0
 63 57  1  0
 63 62  1  0
 64 57  2  0
 65 66  2  0
 66 85  1  0
 67 66  1  0
 67 70  1  0
 68 65  1  0
 68 69  1  0
 69 67  2  0
 70 71  1  0
 71 72  2  0
 73 76  1  0
 73 72  1  0
 74 73  2  0
 75 74  1  0
 75 70  2  0
 76 77  1  0
 77 78  1  0
 78 79  2  0
 80 79  1  0
 80 84  1  0
 81 80  2  0
 82 77  2  0
 82 81  1  0
 83 82  1  0
 85 86  1  0
 86 89  1  0
 86 88  1  0
 87 85  2  0
 90 91  1  0
 90 65  1  0
 92 90  1  0
M  ISO  4   6 101   7 101  56 100  57 100
M  END
>  <TORSDO>  (71) 
F 25

>  <SCORE>  (71) 
-12.381

>  <name>  (71) 
71

>  <ligand_id>  (71) 
71

>  <original_smiles>  (71) 
[H]OC([H])(C([H])([H])C(=O)N1C([H])([H])C([H])([H])C([H])([H])C([H])(n2nc(-c3c([H])c([H])c(Oc4c([H])c([H])c(F)c([H])c4F)c([H])c3[H])c(C(=O)N([H])[H])c2N([H])[H])C1([H])[H])C([H])(C([H])([H])C([H])(C([H])([H])[H])C([H])([H])[H])[N+]([H])(C([H])([H])[H])C([H])([H])C([H])([H])C([H])([H])Oc1c([H])c([H])c2c(c1[H])C([H])([H])N(C(=O)C([H])(N([H])C(=O)C([H])(N([H])C([H])([H])[H])C([H])([H])[H])C(C([H])([H])[H])(C([H])([H])[H])C([H])([H])[H])C([H])(C(=O)N([H])C1([H])c3c([H])c([H])c([H])c([H])c3C([H])([H])C([H])([H])C1([H])[H])C2([H])[H]

>  <smiles>  (71) 
[H]OC([H])(C([H])([H])C(=O)N1C([H])([H])C([H])([H])C([H])([H])C([H])(n2nc(-c3c([H])c([H])c(Oc4c([H])c([H])c(F)c([H])c4F)c([H])c3[H])c(C(=O)N([H])[H])c2N([H])[H])C1([H])[H])C([H])(C([H])([H])C([H])(C([H])([H])[H])C([H])([H])[H])[N+]([H])(C([H])([H])[H])C([H])([H])C([H])([H])C([H])([H])Oc1c([H])c([H])c2c(c1[H])C([H])([H])N(C(=O)C([H])(N([H])C(=O)C([H])(N([H])C([H])([H])[H])C([H])([H])[H])C(C([H])([H])[H])(C([H])([H])[H])C([H])([H])[H])C([H])(C(=O)N([H])C1([H])c3c([H])c([H])c([H])c([H])c3C([H])([H])C([H])([H])C1([H])[H])C2([H])[H]

$$$$
72:0:0
     RDKit          3D

 91 98  0  0  1  0  0  0  0  0999 V2000
  -29.3320  -20.3500   19.5470 C   0  0  0  0  0  3  0  0  0  0  0  0
  -30.7620  -19.5560   21.4710 C   0  0  0  0  0  1  0  0  0  0  0  0
  -29.9950  -19.1070   20.2880 N   0  0  1  0  0  4  0  0  0  0  0  0
  -30.7340  -18.8860   19.6340 H   0  0  0  0  0  0  0  0  0  0  0  0
  -29.3860  -17.6640   20.5310 C   0  0  0  0  0  2  0  0  0  0  0  0
  -29.6360  -16.3420   19.5320 C   0  0  0  0  0  2  0  0  0  0  0  0
  -30.5160  -14.9500   19.7330 C   0  0  0  0  0  0  0  0  0  0  0  0
  -30.3530  -12.5840   18.8650 C   0  0  0  0  0  2  0  0  0  0  0  0
  -29.3260  -12.5450   17.7070 C   0  0  0  0  0  2  0  0  0  0  0  0
  -27.9000  -12.3290   18.2480 C   0  0  0  0  0  2  0  0  0  0  0  0
  -27.5760  -13.2610   19.4410 C   0  0  0  0  0  3  0  0  0  0  0  0
  -28.7150  -13.3000   20.4820 C   0  0  0  0  0  2  0  0  0  0  0  0
  -29.9510  -13.6800   19.7890 N   0  0  0  0  0  0  0  0  0  0  0  0
  -31.7210  -15.0070   19.4680 O   0  0  0  0  0  0  0  0  0  0  0  0
  -25.2900  -13.8450   20.4290 C   0  0  0  0  0  0  0  0  0  0  0  0
  -24.2480  -13.0690   20.8600 C   0  0  0  0  0  0  0  0  0  0  0  0
  -24.6830  -11.7150   20.7240 C   0  0  0  0  0  0  0  0  0  0  0  0
  -26.2870  -12.9620   20.0510 N   0  0  0  0  0  0  0  0  0  0  0  0
  -25.9390  -11.6720   20.2940 N   0  0  0  0  0  0  0  0  0  0  0  0
  -23.9540  -10.4560   20.9220 C   0  0  0  0  0  0  0  0  0  0  0  0
  -24.4280   -9.4540   21.7970 C   0  0  0  0  0  3  0  0  0  0  0  0
  -23.6970   -8.2600   21.9820 C   0  0  0  0  0  3  0  0  0  0  0  0
  -22.4770   -8.0620   21.2930 C   0  0  0  0  0  0  0  0  0  0  0  0
  -22.0220   -9.0520   20.4050 C   0  0  0  0  0  3  0  0  0  0  0  0
  -22.7540  -10.2360   20.2180 C   0  0  0  0  0  3  0  0  0  0  0  0
  -21.7130   -6.9240   21.3910 O   0  0  0  0  0  0  0  0  0  0  0  0
  -21.6970   -6.1640   22.5330 C   0  0  0  0  0  0  0  0  0  0  0  0
  -21.2850   -6.6930   23.7750 C   0  0  0  0  0  3  0  0  0  0  0  0
  -21.2210   -5.8590   24.9080 C   0  0  0  0  0  3  0  0  0  0  0  0
  -21.5580   -4.4950   24.8010 C   0  0  0  0  0  0  0  0  0  0  0  0
  -21.9610   -3.9660   23.5630 C   0  0  0  0  0  3  0  0  0  0  0  0
  -22.0290   -4.7990   22.4320 C   0  0  0  0  0  0  0  0  0  0  0  0
  -22.4000   -4.2780   21.2370 F   0  0  0  0  0  0  0  0  0  0  0  0
  -21.4870   -3.6910   25.8880 F   0  0  0  0  0  0  0  0  0  0  0  0
  -22.8910  -13.5530   21.2750 C   0  0  0  0  0  0  0  0  0  0  0  0
  -22.2360  -12.8310   22.1780 N   0  0  0  0  0  0  0  0  0  0  0  0
  -22.4250  -14.6020   20.8360 O   0  0  0  0  0  0  0  0  0  0  0  0
  -22.6300  -11.9800   22.5500 H   0  0  0  0  0  0  0  0  0  0  0  0
  -21.3280  -13.1340   22.5000 H   0  0  0  0  0  0  0  0  0  0  0  0
  -25.4680  -15.2200   20.3000 N   0  0  0  0  0  0  0  0  0  0  0  0
  -24.7360  -15.8890   20.5100 H   0  0  0  0  0  0  0  0  0  0  0  0
  -26.2910  -15.6460   19.8950 H   0  0  0  0  0  0  0  0  0  0  0  0
  -29.2630  -20.7320   17.0080 C   0  0  0  0  0  1  0  0  0  0  0  0
  -28.6680  -19.9410   18.1930 C   0  0  0  0  0  3  0  0  0  0  0  0
  -26.4320  -19.4380   16.9820 C   0  0  0  0  0  1  0  0  0  0  0  0
  -27.1230  -20.0180   18.2280 C   0  0  0  0  0  2  0  0  0  0  0  0
  -28.6080  -21.6810   20.3000 C   0  0  0  0  0  2  0  0  0  0  0  0
  -30.0970  -23.6680   19.5430 C   0  0  0  0  0  1  0  0  0  0  0  0
  -28.6250  -23.2680   19.7290 C   0  0  0  0  0  3  0  0  0  0  0  0
  -27.8340  -24.5570   20.4460 C   0  0  0  0  0  2  0  0  0  0  0  0
  -28.0380  -26.0630   20.1760 O   0  0  0  0  0  0  0  0  0  0  0  0
  -24.5250  -31.7390   23.2810 C   0  0  0  0  0  0  0  0  0  0  0  0
  -26.9730  -27.0180   20.2010 C   0  0  0  0  0  0  0  0  0  0  0  0
  -23.2830  -30.4040   21.6190 C   0  0  0  0  0  3  0  0  0  0  0  0
  -24.6820  -28.7930   20.1870 C   0  0  0  0  0  0  0  0  0  0  0  0
  -25.8410  -30.5990   21.4600 C   0  0  0  0  0  2  0  0  0  0  0  0
  -25.8720  -29.2140   20.7940 C   0  0  0  0  0  0  0  0  0  0  0  0
  -27.0210  -28.3450   20.7760 C   0  0  0  0  0  3  0  0  0  0  0  0
  -25.7580  -26.6780   19.5740 C   0  0  0  0  0  3  0  0  0  0  0  0
  -24.6330  -27.5340   19.5640 C   0  0  0  0  0  3  0  0  0  0  0  0
  -23.4830  -29.7270   20.2370 C   0  0  0  0  0  2  0  0  0  0  0  0
  -24.5690  -30.9340   22.1750 N   0  0  0  0  0  0  0  0  0  0  0  0
  -23.4490  -32.0530   23.8100 O   0  0  0  0  0  0  0  0  0  0  0  0
  -22.5710  -29.4090   22.5700 C   0  0  0  0  0  0  0  0  0  0  0  0
  -21.2420  -29.2770   22.4300 N   0  0  0  0  0  0  0  0  0  0  0  0
  -23.2190  -28.7580   23.3930 O   0  0  0  0  0  0  0  0  0  0  0  0
  -20.7810  -29.8590   21.7440 H   0  0  0  0  0  0  0  0  0  0  0  0
  -17.8200  -28.1770   22.8970 C   0  0  0  0  0  0  0  0  0  0  0  0
  -20.3860  -28.3570   23.1820 C   0  0  0  0  0  3  0  0  0  0  0  0
  -20.4450  -26.9290   22.5910 C   0  0  0  0  0  2  0  0  0  0  0  0
  -19.3400  -26.6530   21.5670 C   0  0  0  0  0  2  0  0  0  0  0  0
  -17.9590  -26.8310   22.2050 C   0  0  0  0  0  2  0  0  0  0  0  0
  -18.9600  -28.9000   23.3410 C   0  0  0  0  0  0  0  0  0  0  0  0
  -18.7740  -30.1620   23.9480 C   0  0  0  0  0  3  0  0  0  0  0  0
  -17.4830  -30.6960   24.1180 C   0  0  0  0  0  3  0  0  0  0  0  0
  -16.3580  -29.9700   23.6880 C   0  0  0  0  0  3  0  0  0  0  0  0
  -16.5300  -28.7130   23.0810 C   0  0  0  0  0  3  0  0  0  0  0  0
  -25.8230  -32.3190   23.9210 C   0  0  0  0  0  3  0  0  0  0  0  0
  -25.5700  -33.7340   24.2370 N   0  0  0  0  0  0  0  0  0  0  0  0
  -25.9600  -34.7690   23.4820 C   0  0  0  0  0  0  0  0  0  0  0  0
  -26.6380  -34.6300   22.4610 O   0  0  0  0  0  0  0  0  0  0  0  0
  -24.9690  -33.9180   25.0270 H   0  0  0  0  0  0  0  0  0  0  0  0
  -24.3170  -36.6420   23.1090 C   0  0  0  0  0  1  0  0  0  0  0  0
  -25.5330  -36.1820   23.9300 C   0  0  0  0  0  3  0  0  0  0  0  0
  -27.6930  -36.9820   24.7830 C   0  0  0  0  0  1  0  0  0  0  0  0
  -26.6130  -37.1870   23.8210 N   0  0  0  0  0  0  0  0  0  0  0  0
  -26.2460  -38.1260   23.9520 H   0  0  0  0  0  0  0  0  0  0  0  0
  -26.2810  -31.5410   25.2170 C   0  0  1  0  0  0  0  0  0  0  0  0
  -25.1590  -31.3570   26.2670 C   0  0  0  0  0  1  0  0  0  0  0  0
  -26.8180  -30.1370   24.8540 C   0  0  0  0  0  1  0  0  0  0  0  0
  -27.4500  -32.2970   25.8950 C   0  0  0  0  0  1  0  0  0  0  0  0
  1  3  1  0
  1 47  1  0
  3  5  1  0
  3  2  1  0
  3  4  1  6
  6  7  1  0
  6  5  1  0
  7 13  1  0
  8 13  1  0
  9 10  1  0
  9  8  1  0
 11 10  1  0
 11 18  1  0
 11 12  1  0
 13 12  1  0
 14  7  2  0
 15 16  2  0
 16 35  1  0
 17 16  1  0
 17 20  1  0
 18 19  1  0
 18 15  1  0
 19 17  2  0
 20 21  1  0
 21 22  2  0
 23 26  1  0
 23 22  1  0
 24 23  2  0
 25 24  1  0
 25 20  2  0
 26 27  1  0
 27 28  1  0
 28 29  2  0
 30 29  1  0
 30 34  1  0
 31 30  2  0
 32 27  2  0
 32 31  1  0
 33 32  1  0
 35 36  1  0
 36 39  1  0
 36 38  1  0
 37 35  2  0
 40 15  1  0
 40 41  1  0
 42 40  1  0
 44 43  1  0
 44 46  1  0
 44  1  1  0
 45 46  1  0
 49 48  1  0
 49 47  1  0
 49 50  1  0
 51 53  1  0
 51 50  1  0
 52 63  2  0
 53 58  1  0
 54 62  1  0
 54 64  1  0
 55 61  1  0
 55 57  1  0
 56 62  1  0
 57 56  1  0
 58 57  2  0
 59 53  2  0
 60 59  1  0
 60 55  2  0
 61 54  1  0
 62 52  1  0
 64 66  2  0
 65 64  1  0
 67 65  1  0
 68 77  2  0
 68 73  1  0
 69 65  1  0
 69 73  1  0
 70 69  1  0
 71 72  1  0
 71 70  1  0
 72 68  1  0
 73 74  2  0
 74 75  1  0
 76 75  2  0
 77 76  1  0
 78 52  1  0
 78 79  1  0
 78 88  1  0
 79 82  1  0
 80 84  1  0
 80 79  1  0
 81 80  2  0
 84 83  1  0
 86 84  1  0
 86 87  1  0
 86 85  1  0
 88 91  1  1
 88 89  1  0
 90 88  1  0
M  ISO  4   6 100   7 100  50 101  51 101
M  END
>  <TORSDO>  (72) 
F 24

>  <SCORE>  (72) 
-11.822

>  <name>  (72) 
72

>  <ligand_id>  (72) 
72

>  <original_smiles>  (72) 
[H]c1c([H])c([H])c2c(c1[H])C([H])([H])C([H])([H])C([H])([H])C2([H])N([H])C(=O)C1([H])N(C(=O)C([H])(N([H])C(=O)C([H])(N([H])C([H])([H])[H])C([H])([H])[H])C(C([H])([H])[H])(C([H])([H])[H])C([H])([H])[H])C([H])([H])c2c([H])c(OC([H])([H])C([H])(C([H])([H])[H])C([H])([H])C([H])(C([H])(C([H])([H])[H])C([H])([H])C([H])([H])[H])[N+]([H])(C([H])([H])[H])C([H])([H])C([H])([H])C(=O)N3C([H])([H])C([H])([H])C([H])([H])C([H])(n4nc(-c5c([H])c([H])c(Oc6c([H])c([H])c(F)c([H])c6F)c([H])c5[H])c(C(=O)N([H])[H])c4N([H])[H])C3([H])[H])c([H])c([H])c2C1([H])[H]

>  <smiles>  (72) 
[H]c1c([H])c([H])c2c(c1[H])C([H])([H])C([H])([H])C([H])([H])C2([H])N([H])C(=O)C1([H])N(C(=O)C([H])(N([H])C(=O)C([H])(N([H])C([H])([H])[H])C([H])([H])[H])C(C([H])([H])[H])(C([H])([H])[H])C([H])([H])[H])C([H])([H])c2c([H])c(OC([H])([H])C([H])(C([H])([H])[H])C([H])([H])C([H])(C([H])(C([H])([H])[H])C([H])([H])C([H])([H])[H])[N+]([H])(C([H])([H])[H])C([H])([H])C([H])([H])C(=O)N3C([H])([H])C([H])([H])C([H])([H])C([H])(n4nc(-c5c([H])c([H])c(Oc6c([H])c([H])c(F)c([H])c6F)c([H])c5[H])c(C(=O)N([H])[H])c4N([H])[H])C3([H])[H])c([H])c([H])c2C1([H])[H]

$$$$
73:0:0
     RDKit          3D

 87 95  0  0  1  0  0  0  0  0999 V2000
  -29.0920  -21.3730   17.9100 C   0  0  0  0  0  3  0  0  0  0  0  0
  -29.3320  -20.1280   18.5520 C   0  0  0  0  0  3  0  0  0  0  0  0
  -28.7730  -22.5860   18.5770 C   0  0  0  0  0  3  0  0  0  0  0  0
  -28.9130  -21.2910   20.6130 C   0  0  0  0  0  3  0  0  0  0  0  0
  -29.2980  -19.9320   19.9590 C   0  0  0  0  0  0  0  0  0  0  0  0
  -28.6330  -22.6810   19.9750 C   0  0  0  0  0  0  0  0  0  0  0  0
  -29.7460  -18.3160   20.5590 C   0  0  0  0  0  2  0  0  0  0  0  0
  -30.3890  -15.3670   20.2680 C   0  0  0  0  0  0  0  0  0  0  0  0
  -30.4040  -12.8920   19.4240 C   0  0  0  0  0  2  0  0  0  0  0  0
  -29.4760  -12.5950   18.2190 C   0  0  0  0  0  2  0  0  0  0  0  0
  -28.0460  -12.2740   18.6930 C   0  0  0  0  0  2  0  0  0  0  0  0
  -27.5670  -13.2670   19.7750 C   0  0  0  0  0  3  0  0  0  0  0  0
  -28.6230  -13.5240   20.8750 C   0  0  0  0  0  2  0  0  0  0  0  0
  -29.8240  -14.0520   20.1990 N   0  0  0  0  0  0  0  0  0  0  0  0
  -31.6280  -15.3310   20.2330 O   0  0  0  0  0  0  0  0  0  0  0  0
  -28.5140  -16.5550   19.1930 C   0  0  0  0  0  1  0  0  0  0  0  0
  -29.6190  -16.6660   20.1560 N   0  0  0  0  0  0  0  0  0  0  0  0
  -25.2060  -13.8270   20.5610 C   0  0  0  0  0  0  0  0  0  0  0  0
  -24.1490  -13.0460   20.9290 C   0  0  0  0  0  0  0  0  0  0  0  0
  -24.6240  -11.6990   20.8960 C   0  0  0  0  0  0  0  0  0  0  0  0
  -26.2520  -12.9540   20.3100 N   0  0  0  0  0  0  0  0  0  0  0  0
  -25.9150  -11.6690   20.5850 N   0  0  0  0  0  0  0  0  0  0  0  0
  -23.9070  -10.4350   21.0840 C   0  0  0  0  0  0  0  0  0  0  0  0
  -24.3530   -9.4630   22.0060 C   0  0  0  0  0  3  0  0  0  0  0  0
  -23.6270   -8.2650   22.1870 C   0  0  0  0  0  3  0  0  0  0  0  0
  -22.4470   -8.0330   21.4430 C   0  0  0  0  0  0  0  0  0  0  0  0
  -22.0200   -8.9940   20.5090 C   0  0  0  0  0  3  0  0  0  0  0  0
  -22.7450  -10.1840   20.3260 C   0  0  0  0  0  3  0  0  0  0  0  0
  -21.6920   -6.8890   21.5330 O   0  0  0  0  0  0  0  0  0  0  0  0
  -21.6650   -6.1340   22.6790 C   0  0  0  0  0  0  0  0  0  0  0  0
  -21.2670   -6.6770   23.9190 C   0  0  0  0  0  3  0  0  0  0  0  0
  -21.1850   -5.8500   25.0570 C   0  0  0  0  0  3  0  0  0  0  0  0
  -21.4960   -4.4800   24.9540 C   0  0  0  0  0  0  0  0  0  0  0  0
  -21.8900   -3.9370   23.7200 C   0  0  0  0  0  3  0  0  0  0  0  0
  -21.9720   -4.7620   22.5840 C   0  0  0  0  0  0  0  0  0  0  0  0
  -22.3300   -4.2280   21.3900 F   0  0  0  0  0  0  0  0  0  0  0  0
  -21.4120   -3.6840   26.0450 F   0  0  0  0  0  0  0  0  0  0  0  0
  -22.7490  -13.5190   21.1930 C   0  0  0  0  0  0  0  0  0  0  0  0
  -22.0200  -12.8240   22.0590 N   0  0  0  0  0  0  0  0  0  0  0  0
  -22.3110  -14.5430   20.6700 O   0  0  0  0  0  0  0  0  0  0  0  0
  -22.3870  -11.9980   22.5070 H   0  0  0  0  0  0  0  0  0  0  0  0
  -21.0830  -13.1270   22.2830 H   0  0  0  0  0  0  0  0  0  0  0  0
  -25.3480  -15.2000   20.3900 N   0  0  0  0  0  0  0  0  0  0  0  0
  -24.5740  -15.8420   20.5310 H   0  0  0  0  0  0  0  0  0  0  0  0
  -26.1950  -15.6620   20.0940 H   0  0  0  0  0  0  0  0  0  0  0  0
  -27.9850  -24.2070   20.5650 C   0  0  0  0  0  2  0  0  0  0  0  0
  -28.2180  -25.8080   20.2010 O   0  0  0  0  0  0  0  0  0  0  0  0
  -24.6440  -31.8290   23.1900 C   0  0  0  0  0  0  0  0  0  0  0  0
  -27.2020  -26.9090   20.2180 C   0  0  0  0  0  0  0  0  0  0  0  0
  -23.4530  -30.4170   21.5660 C   0  0  0  0  0  3  0  0  0  0  0  0
  -24.9010  -28.7970   20.1630 C   0  0  0  0  0  0  0  0  0  0  0  0
  -26.0200  -30.6250   21.4170 C   0  0  0  0  0  2  0  0  0  0  0  0
  -26.0930  -29.2060   20.7760 C   0  0  0  0  0  0  0  0  0  0  0  0
  -27.2400  -28.2850   20.7730 C   0  0  0  0  0  3  0  0  0  0  0  0
  -25.9760  -26.6550   19.5640 C   0  0  0  0  0  3  0  0  0  0  0  0
  -24.8680  -27.5410   19.5370 C   0  0  0  0  0  3  0  0  0  0  0  0
  -23.6860  -29.7240   20.1970 C   0  0  0  0  0  2  0  0  0  0  0  0
  -24.7280  -30.9850   22.1110 N   0  0  0  0  0  0  0  0  0  0  0  0
  -23.5540  -32.1220   23.7090 O   0  0  0  0  0  0  0  0  0  0  0  0
  -22.7580  -29.4280   22.5400 C   0  0  0  0  0  0  0  0  0  0  0  0
  -21.4260  -29.2700   22.4230 N   0  0  0  0  0  0  0  0  0  0  0  0
  -23.4260  -28.8030   23.3680 O   0  0  0  0  0  0  0  0  0  0  0  0
  -20.9390  -29.8260   21.7350 H   0  0  0  0  0  0  0  0  0  0  0  0
  -18.0420  -28.0710   22.9590 C   0  0  0  0  0  0  0  0  0  0  0  0
  -20.6040  -28.3370   23.2050 C   0  0  0  0  0  3  0  0  0  0  0  0
  -20.7000  -26.9010   22.6380 C   0  0  0  0  0  2  0  0  0  0  0  0
  -19.5920  -26.5740   21.6330 C   0  0  0  0  0  2  0  0  0  0  0  0
  -18.2150  -26.7210   22.2850 C   0  0  0  0  0  2  0  0  0  0  0  0
  -19.1640  -28.8370   23.3770 C   0  0  0  0  0  0  0  0  0  0  0  0
  -18.9460  -30.0980   23.9720 C   0  0  0  0  0  3  0  0  0  0  0  0
  -17.6410  -30.5960   24.1490 C   0  0  0  0  0  3  0  0  0  0  0  0
  -16.5350  -29.8290   23.7450 C   0  0  0  0  0  3  0  0  0  0  0  0
  -16.7370  -28.5680   23.1560 C   0  0  0  0  0  3  0  0  0  0  0  0
  -25.9130  -32.4810   23.8200 C   0  0  0  0  0  3  0  0  0  0  0  0
  -25.5890  -33.8790   24.1520 N   0  0  0  0  0  0  0  0  0  0  0  0
  -25.9160  -34.9420   23.4040 C   0  0  0  0  0  0  0  0  0  0  0  0
  -26.5830  -34.8470   22.3710 O   0  0  0  0  0  0  0  0  0  0  0  0
  -24.9960  -34.0270   24.9550 H   0  0  0  0  0  0  0  0  0  0  0  0
  -24.1820  -36.7390   23.0730 C   0  0  0  0  0  1  0  0  0  0  0  0
  -25.4280  -36.3290   23.8740 C   0  0  0  0  0  3  0  0  0  0  0  0
  -27.5650  -37.2170   24.6990 C   0  0  0  0  0  1  0  0  0  0  0  0
  -26.4580  -37.3850   23.7620 N   0  0  0  0  0  0  0  0  0  0  0  0
  -26.0500  -38.3040   23.9150 H   0  0  0  0  0  0  0  0  0  0  0  0
  -26.4240  -31.7230   25.1070 C   0  0  1  0  0  0  0  0  0  0  0  0
  -25.3270  -31.4970   26.1740 C   0  0  0  0  0  1  0  0  0  0  0  0
  -27.0100  -30.3410   24.7410 C   0  0  0  0  0  1  0  0  0  0  0  0
  -27.5720  -32.5250   25.7650 C   0  0  0  0  0  1  0  0  0  0  0  0
  1  2  2  0
  1  3  1  0
  2  5  1  0
  3  6  2  0
  5  7  1  0
  5  4  2  0
  6 46  1  0
  6  4  1  0
  9 14  1  0
 10 11  1  0
 10  9  1  0
 12 11  1  0
 12 21  1  0
 12 13  1  0
 14  8  1  0
 14 13  1  0
 15  8  2  0
 16 17  1  0
 17  8  1  0
 17  7  1  0
 18 19  2  0
 19 38  1  0
 20 19  1  0
 20 23  1  0
 21 18  1  0
 21 22  1  0
 22 20  2  0
 23 24  1  0
 24 25  2  0
 26 29  1  0
 26 25  1  0
 27 26  2  0
 28 27  1  0
 28 23  2  0
 29 30  1  0
 30 31  1  0
 31 32  2  0
 33 32  1  0
 33 37  1  0
 34 33  2  0
 35 30  2  0
 35 34  1  0
 36 35  1  0
 38 39  1  0
 39 42  1  0
 39 41  1  0
 40 38  2  0
 43 44  1  0
 43 18  1  0
 45 43  1  0
 47 49  1  0
 47 46  1  0
 48 59  2  0
 49 54  1  0
 50 58  1  0
 50 60  1  0
 51 57  1  0
 51 53  1  0
 52 58  1  0
 53 52  1  0
 54 53  2  0
 55 49  2  0
 56 55  1  0
 56 51  2  0
 57 50  1  0
 58 48  1  0
 60 62  2  0
 61 60  1  0
 63 61  1  0
 64 73  2  0
 64 69  1  0
 65 61  1  0
 65 69  1  0
 66 65  1  0
 67 68  1  0
 67 66  1  0
 68 64  1  0
 69 70  2  0
 70 71  1  0
 72 71  2  0
 73 72  1  0
 74 48  1  0
 74 75  1  0
 74 84  1  0
 75 78  1  0
 76 80  1  0
 76 75  1  0
 77 76  2  0
 80 79  1  0
 82 80  1  0
 82 83  1  0
 82 81  1  0
 84 87  1  1
 84 85  1  0
 86 84  1  0
M  ISO  4   8 100  17 100  46 101  47 101
M  END
>  <TORSDO>  (73) 
F 18

>  <SCORE>  (73) 
-16.617

>  <name>  (73) 
73

>  <ligand_id>  (73) 
73

>  <original_smiles>  (73) 
[H]c1c([H])c(C([H])([H])Oc2c([H])c([H])c3c(c2[H])C([H])([H])N(C(=O)C([H])(N([H])C(=O)C([H])(N([H])C([H])([H])[H])C([H])([H])[H])C(C([H])([H])[H])(C([H])([H])[H])C([H])([H])[H])C([H])(C(=O)N([H])C2([H])c4c([H])c([H])c([H])c([H])c4C([H])([H])C([H])([H])C2([H])[H])C3([H])[H])c([H])c(C([H])([H])N(C(=O)N2C([H])([H])C([H])([H])C([H])([H])C([H])(n3nc(-c4c([H])c([H])c(Oc5c([H])c([H])c(F)c([H])c5F)c([H])c4[H])c(C(=O)N([H])[H])c3N([H])[H])C2([H])[H])C([H])([H])[H])c1[H]

>  <smiles>  (73) 
[H]c1c([H])c(C([H])([H])Oc2c([H])c([H])c3c(c2[H])C([H])([H])N(C(=O)C([H])(N([H])C(=O)C([H])(N([H])C([H])([H])[H])C([H])([H])[H])C(C([H])([H])[H])(C([H])([H])[H])C([H])([H])[H])C([H])(C(=O)N([H])C2([H])c4c([H])c([H])c([H])c([H])c4C([H])([H])C([H])([H])C2([H])[H])C3([H])[H])c([H])c(C([H])([H])N(C(=O)N2C([H])([H])C([H])([H])C([H])([H])C([H])(n3nc(-c4c([H])c([H])c(Oc5c([H])c([H])c(F)c([H])c5F)c([H])c4[H])c(C(=O)N([H])[H])c3N([H])[H])C2([H])[H])C([H])([H])[H])c1[H]

$$$$
74:0:0
     RDKit          3D

 96103  0  0  1  0  0  0  0  0999 V2000
  -28.4010  -21.6910   17.4630 C   0  0  0  0  0  1  0  0  0  0  0  0
  -29.4040  -21.1210   18.4910 C   0  0  0  0  0  3  0  0  0  0  0  0
  -29.6330  -22.0630   19.6270 N   0  0  0  0  0  4  0  0  0  0  0  0
  -28.7710  -22.3230   20.0710 H   0  0  0  0  0  0  0  0  0  0  0  0
  -30.1490  -21.5250   20.3100 H   0  0  0  0  0  0  0  0  0  0  0  0
  -30.4470  -23.2800   19.3520 C   0  0  0  0  0  2  0  0  0  0  0  0
  -29.6490  -24.5900   19.0630 C   0  0  0  0  0  2  0  0  0  0  0  0
  -28.8200  -25.1790   20.2350 C   0  0  0  0  0  2  0  0  0  0  0  0
  -28.7550  -26.6140   20.1690 O   0  0  0  0  0  0  0  0  0  0  0  0
  -24.7370  -31.6560   23.2050 C   0  0  0  0  0  0  0  0  0  0  0  0
  -27.5350  -27.2670   20.1730 C   0  0  0  0  0  0  0  0  0  0  0  0
  -23.6000  -30.2740   21.4990 C   0  0  0  0  0  3  0  0  0  0  0  0
  -25.1150  -28.7480   20.1220 C   0  0  0  0  0  0  0  0  0  0  0  0
  -26.1310  -30.6420   21.4020 C   0  0  0  0  0  2  0  0  0  0  0  0
  -26.2490  -29.2810   20.7440 C   0  0  0  0  0  0  0  0  0  0  0  0
  -27.4620  -28.5550   20.7450 C   0  0  0  0  0  3  0  0  0  0  0  0
  -26.3750  -26.7300   19.5690 C   0  0  0  0  0  3  0  0  0  0  0  0
  -25.1710  -27.4670   19.5380 C   0  0  0  0  0  3  0  0  0  0  0  0
  -23.8640  -29.6010   20.1250 C   0  0  0  0  0  2  0  0  0  0  0  0
  -24.8390  -30.8720   22.0950 N   0  0  0  0  0  0  0  0  0  0  0  0
  -23.6330  -31.9240   23.7010 O   0  0  0  0  0  0  0  0  0  0  0  0
  -22.9080  -29.2440   22.4170 C   0  0  0  0  0  0  0  0  0  0  0  0
  -21.5910  -29.0740   22.2360 N   0  0  0  0  0  0  0  0  0  0  0  0
  -23.5590  -28.5990   23.2420 O   0  0  0  0  0  0  0  0  0  0  0  0
  -21.1300  -29.6400   21.5370 H   0  0  0  0  0  0  0  0  0  0  0  0
  -18.1830  -27.9370   22.6240 C   0  0  0  0  0  0  0  0  0  0  0  0
  -20.7390  -28.1310   22.9590 C   0  0  0  0  0  3  0  0  0  0  0  0
  -20.8270  -26.7200   22.3340 C   0  0  0  0  0  2  0  0  0  0  0  0
  -19.7390  -26.4540   21.2880 C   0  0  0  0  0  2  0  0  0  0  0  0
  -18.3450  -26.6060   21.9090 C   0  0  0  0  0  2  0  0  0  0  0  0
  -19.3070  -28.6620   23.1010 C   0  0  0  0  0  0  0  0  0  0  0  0
  -19.1040  -29.9110   23.7230 C   0  0  0  0  0  3  0  0  0  0  0  0
  -17.8060  -30.4340   23.8820 C   0  0  0  0  0  3  0  0  0  0  0  0
  -16.6960  -29.7060   23.4210 C   0  0  0  0  0  3  0  0  0  0  0  0
  -16.8850  -28.4620   22.7950 C   0  0  0  0  0  3  0  0  0  0  0  0
  -25.9930  -32.2760   23.8900 C   0  0  0  0  0  3  0  0  0  0  0  0
  -26.4890  -31.4590   25.1470 C   0  0  1  0  0  0  0  0  0  0  0  0
  -25.3730  -31.1560   26.1750 C   0  0  0  0  0  1  0  0  0  0  0  0
  -27.1120  -30.1110   24.7130 C   0  0  0  0  0  1  0  0  0  0  0  0
  -27.6020  -32.2510   25.8750 C   0  0  0  0  0  1  0  0  0  0  0  0
  -25.6560  -33.6550   24.2650 N   0  0  0  0  0  0  0  0  0  0  0  0
  -25.9930  -34.7410   23.5570 C   0  0  0  0  0  0  0  0  0  0  0  0
  -26.6900  -34.6880   22.5390 O   0  0  0  0  0  0  0  0  0  0  0  0
  -25.0350  -33.7730   25.0520 H   0  0  0  0  0  0  0  0  0  0  0  0
  -24.2410  -36.5160   23.2340 C   0  0  0  0  0  1  0  0  0  0  0  0
  -25.4710  -36.1000   24.0560 C   0  0  0  0  0  3  0  0  0  0  0  0
  -27.5700  -36.9860   24.9720 C   0  0  0  0  0  1  0  0  0  0  0  0
  -26.4890  -37.1740   24.0090 N   0  0  0  0  0  0  0  0  0  0  0  0
  -26.0630  -38.0810   24.1830 H   0  0  0  0  0  0  0  0  0  0  0  0
  -28.9540  -19.7000   18.9700 C   0  0  0  0  0  3  0  0  0  0  0  0
  -29.7830  -19.2240   20.0840 N   0  0  0  0  0  0  0  0  0  0  0  0
  -29.2010  -19.2290   20.9190 H   0  0  0  0  0  0  0  0  0  0  0  0
  -30.2590  -17.8420   19.9060 C   0  0  0  0  0  2  0  0  0  0  0  0
  -31.2930  -17.4590   21.0010 C   0  0  0  0  0  2  0  0  0  0  0  0
  -31.1380  -16.0200   21.5970 C   0  0  0  0  0  2  0  0  0  0  0  0
  -31.8220  -14.8260   20.8690 C   0  0  0  0  0  0  0  0  0  0  0  0
  -31.5630  -12.6010   19.7940 C   0  0  0  0  0  2  0  0  0  0  0  0
  -30.6610  -12.7300   18.5490 C   0  0  0  0  0  2  0  0  0  0  0  0
  -29.1660  -12.6760   18.9200 C   0  0  0  0  0  2  0  0  0  0  0  0
  -28.8120  -13.5980   20.1150 C   0  0  0  0  0  3  0  0  0  0  0  0
  -29.8070  -13.3770   21.2740 C   0  0  0  0  0  2  0  0  0  0  0  0
  -31.1570  -13.6410   20.7530 N   0  0  0  0  0  0  0  0  0  0  0  0
  -32.9430  -14.9890   20.3750 O   0  0  0  0  0  0  0  0  0  0  0  0
  -26.4580  -14.3600   20.8260 C   0  0  0  0  0  0  0  0  0  0  0  0
  -25.3190  -13.6600   21.1190 C   0  0  0  0  0  0  0  0  0  0  0  0
  -25.6670  -12.2810   21.0030 C   0  0  0  0  0  0  0  0  0  0  0  0
  -27.4280  -13.4110   20.5500 N   0  0  0  0  0  0  0  0  0  0  0  0
  -26.9530  -12.1510   20.7130 N   0  0  0  0  0  0  0  0  0  0  0  0
  -24.8320  -11.0770   21.0960 C   0  0  0  0  0  0  0  0  0  0  0  0
  -25.1510  -10.0230   21.9770 C   0  0  0  0  0  3  0  0  0  0  0  0
  -24.3240   -8.8840   22.0590 C   0  0  0  0  0  3  0  0  0  0  0  0
  -23.1630   -8.7900   21.2540 C   0  0  0  0  0  0  0  0  0  0  0  0
  -22.8640   -9.8310   20.3580 C   0  0  0  0  0  3  0  0  0  0  0  0
  -23.6930  -10.9620   20.2750 C   0  0  0  0  0  3  0  0  0  0  0  0
  -22.3130   -7.7110   21.2480 O   0  0  0  0  0  0  0  0  0  0  0  0
  -22.1310   -6.9330   22.3640 C   0  0  0  0  0  0  0  0  0  0  0  0
  -21.6450   -7.4720   23.5760 C   0  0  0  0  0  3  0  0  0  0  0  0
  -21.4050   -6.6220   24.6750 C   0  0  0  0  0  3  0  0  0  0  0  0
  -21.6420   -5.2400   24.5640 C   0  0  0  0  0  0  0  0  0  0  0  0
  -22.1220   -4.7020   23.3560 C   0  0  0  0  0  3  0  0  0  0  0  0
  -22.3610   -5.5480   22.2590 C   0  0  0  0  0  0  0  0  0  0  0  0
  -22.8030   -5.0220   21.0910 F   0  0  0  0  0  0  0  0  0  0  0  0
  -21.4050   -4.4230   25.6170 F   0  0  0  0  0  0  0  0  0  0  0  0
  -23.9630  -14.2360   21.4040 C   0  0  0  0  0  0  0  0  0  0  0  0
  -23.1780  -13.5620   22.2400 N   0  0  0  0  0  0  0  0  0  0  0  0
  -23.6120  -15.3150   20.9320 O   0  0  0  0  0  0  0  0  0  0  0  0
  -23.4800  -12.6900   22.6480 H   0  0  0  0  0  0  0  0  0  0  0  0
  -22.2580  -13.9220   22.4610 H   0  0  0  0  0  0  0  0  0  0  0  0
  -26.7370  -15.7150   20.7530 N   0  0  0  0  0  0  0  0  0  0  0  0
  -26.0000  -16.4030   20.8490 H   0  0  0  0  0  0  0  0  0  0  0  0
  -27.6180  -16.1130   20.4580 H   0  0  0  0  0  0  0  0  0  0  0  0
  -27.4570  -19.6930   19.3730 C   0  0  0  0  0  2  0  0  0  0  0  0
  -25.2600  -18.5370   19.1120 C   0  0  0  0  0  1  0  0  0  0  0  0
  -26.7470  -18.3310   19.4770 C   0  0  0  0  0  3  0  0  0  0  0  0
  -26.5940  -15.9550   18.4190 C   0  0  0  0  0  1  0  0  0  0  0  0
  -27.4170  -17.2430   18.5970 C   0  0  0  0  0  2  0  0  0  0  0  0
  2  1  1  0
  2 50  1  0
  2  3  1  0
  3  4  1  0
  3  5  1  0
  6  3  1  0
  7  6  1  0
  7  8  1  0
  9 11  1  0
  9  8  1  0
 10 21  2  0
 11 16  1  0
 12 20  1  0
 12 22  1  0
 13 19  1  0
 13 15  1  0
 14 20  1  0
 15 16  2  0
 15 14  1  0
 17 11  2  0
 18 17  1  0
 18 13  2  0
 19 12  1  0
 20 10  1  0
 22 24  2  0
 23 22  1  0
 25 23  1  0
 26 35  2  0
 26 31  1  0
 27 23  1  0
 27 31  1  0
 28 27  1  0
 29 30  1  0
 29 28  1  0
 30 26  1  0
 31 32  2  0
 32 33  1  0
 34 33  2  0
 35 34  1  0
 36 10  1  0
 36 41  1  0
 36 37  1  0
 37 40  1  1
 37 38  1  0
 39 37  1  0
 41 44  1  0
 42 46  1  0
 42 41  1  0
 43 42  2  0
 46 45  1  0
 48 46  1  0
 48 49  1  0
 48 47  1  0
 50 92  1  0
 50 51  1  0
 51 52  1  0
 53 51  1  0
 53 54  1  0
 54 55  1  0
 56 55  1  0
 57 62  1  0
 58 59  1  0
 58 57  1  0
 60 59  1  0
 60 67  1  0
 60 61  1  0
 62 56  1  0
 62 61  1  0
 63 56  2  0
 64 65  2  0
 65 84  1  0
 66 69  1  0
 66 65  1  0
 67 68  1  0
 67 64  1  0
 68 66  2  0
 69 70  1  0
 70 71  2  0
 72 71  1  0
 73 72  2  0
 74 73  1  0
 74 69  2  0
 75 72  1  0
 75 76  1  0
 76 77  1  0
 77 78  2  0
 79 78  1  0
 79 83  1  0
 80 79  2  0
 81 76  2  0
 81 80  1  0
 82 81  1  0
 84 85  1  0
 85 88  1  0
 85 87  1  0
 86 84  2  0
 89 64  1  0
 89 90  1  0
 91 89  1  0
 92 94  1  0
 94 93  1  0
 95 96  1  0
 96 94  1  0
M  ISO  4   8 101   9 101  55 100  56 100
M  END
>  <TORSDO>  (74) 
F 28

>  <SCORE>  (74) 
-7.364

>  <name>  (74) 
74

>  <ligand_id>  (74) 
74

>  <original_smiles>  (74) 
[H]c1c([H])c([H])c2c(c1[H])C([H])([H])C([H])([H])C([H])([H])C2([H])N([H])C(=O)C1([H])N(C(=O)C([H])(N([H])C(=O)C([H])(N([H])C([H])([H])[H])C([H])([H])[H])C(C([H])([H])[H])(C([H])([H])[H])C([H])([H])[H])C([H])([H])c2c([H])c(OC([H])([H])C([H])([H])C([H])([H])[N+]([H])([H])C([H])(C([H])([H])[H])C([H])(N([H])C([H])([H])C([H])([H])C([H])([H])C(=O)N3C([H])([H])C([H])([H])C([H])([H])C([H])(n4nc(-c5c([H])c([H])c(Oc6c([H])c([H])c(F)c([H])c6F)c([H])c5[H])c(C(=O)N([H])[H])c4N([H])[H])C3([H])[H])C([H])([H])C([H])(C([H])([H])[H])C([H])([H])C([H])([H])[H])c([H])c([H])c2C1([H])[H]

>  <smiles>  (74) 
[H]c1c([H])c([H])c2c(c1[H])C([H])([H])C([H])([H])C([H])([H])C2([H])N([H])C(=O)C1([H])N(C(=O)C([H])(N([H])C(=O)C([H])(N([H])C([H])([H])[H])C([H])([H])[H])C(C([H])([H])[H])(C([H])([H])[H])C([H])([H])[H])C([H])([H])c2c([H])c(OC([H])([H])C([H])([H])C([H])([H])[N+]([H])([H])C([H])(C([H])([H])[H])C([H])(N([H])C([H])([H])C([H])([H])C([H])([H])C(=O)N3C([H])([H])C([H])([H])C([H])([H])C([H])(n4nc(-c5c([H])c([H])c(Oc6c([H])c([H])c(F)c([H])c6F)c([H])c5[H])c(C(=O)N([H])[H])c4N([H])[H])C3([H])[H])C([H])([H])C([H])(C([H])([H])[H])C([H])([H])C([H])([H])[H])c([H])c([H])c2C1([H])[H]

$$$$
75:0:0
     RDKit          3D

 88 95  0  0  1  0  0  0  0  0999 V2000
  -28.8870  -21.2140   19.7050 C   0  0  0  0  0  3  0  0  0  0  0  0
  -29.7030  -19.8410   21.7540 C   0  0  0  0  0  1  0  0  0  0  0  0
  -29.7400  -19.9130   20.2770 N   0  0  1  0  0  4  0  0  0  0  0  0
  -30.6720  -20.2770   20.1400 H   0  0  0  0  0  0  0  0  0  0  0  0
  -29.9720  -18.4180   19.5890 C   0  0  0  0  0  2  0  0  0  0  0  0
  -30.0030  -16.7960   20.3100 C   0  0  0  0  0  2  0  0  0  0  0  0
  -30.7470  -15.2950   19.8480 C   0  0  0  0  0  0  0  0  0  0  0  0
  -30.6500  -12.8720   18.9430 C   0  0  0  0  0  2  0  0  0  0  0  0
  -29.6490  -12.7440   17.7670 C   0  0  0  0  0  2  0  0  0  0  0  0
  -28.2280  -12.4800   18.2960 C   0  0  0  0  0  2  0  0  0  0  0  0
  -27.8660  -13.4260   19.4660 C   0  0  0  0  0  3  0  0  0  0  0  0
  -28.9820  -13.5180   20.5270 C   0  0  0  0  0  2  0  0  0  0  0  0
  -30.1990  -13.9880   19.8460 N   0  0  0  0  0  0  0  0  0  0  0  0
  -31.9140  -15.3200   19.4300 O   0  0  0  0  0  0  0  0  0  0  0  0
  -25.5600  -13.9950   20.3990 C   0  0  0  0  0  0  0  0  0  0  0  0
  -24.5150  -13.2210   20.8180 C   0  0  0  0  0  0  0  0  0  0  0  0
  -24.9580  -11.8650   20.7120 C   0  0  0  0  0  0  0  0  0  0  0  0
  -26.5690  -13.1140   20.0530 N   0  0  0  0  0  0  0  0  0  0  0  0
  -26.2240  -11.8250   20.3100 N   0  0  0  0  0  0  0  0  0  0  0  0
  -24.2270  -10.6070   20.9110 C   0  0  0  0  0  0  0  0  0  0  0  0
  -24.6750   -9.6290   21.8260 C   0  0  0  0  0  3  0  0  0  0  0  0
  -23.9420   -8.4380   22.0150 C   0  0  0  0  0  3  0  0  0  0  0  0
  -22.7460   -8.2170   21.2920 C   0  0  0  0  0  0  0  0  0  0  0  0
  -22.3160   -9.1850   20.3670 C   0  0  0  0  0  3  0  0  0  0  0  0
  -23.0490  -10.3680   20.1750 C   0  0  0  0  0  3  0  0  0  0  0  0
  -21.9840   -7.0790   21.3920 O   0  0  0  0  0  0  0  0  0  0  0  0
  -21.9240   -6.3500   22.5530 C   0  0  0  0  0  0  0  0  0  0  0  0
  -21.4670   -6.9150   23.7630 C   0  0  0  0  0  3  0  0  0  0  0  0
  -21.3580   -6.1140   24.9170 C   0  0  0  0  0  3  0  0  0  0  0  0
  -21.6930   -4.7480   24.8610 C   0  0  0  0  0  0  0  0  0  0  0  0
  -22.1410   -4.1820   23.6550 C   0  0  0  0  0  3  0  0  0  0  0  0
  -22.2530   -4.9800   22.5030 C   0  0  0  0  0  0  0  0  0  0  0  0
  -22.6660   -4.4250   21.3380 F   0  0  0  0  0  0  0  0  0  0  0  0
  -21.5810   -3.9750   25.9670 F   0  0  0  0  0  0  0  0  0  0  0  0
  -23.1470  -13.7070   21.1980 C   0  0  0  0  0  0  0  0  0  0  0  0
  -22.4750  -13.0020   22.1000 N   0  0  0  0  0  0  0  0  0  0  0  0
  -22.6870  -14.7490   20.7340 O   0  0  0  0  0  0  0  0  0  0  0  0
  -22.8620  -12.1570   22.4950 H   0  0  0  0  0  0  0  0  0  0  0  0
  -21.5610  -13.3100   22.4000 H   0  0  0  0  0  0  0  0  0  0  0  0
  -25.7320  -15.3700   20.2550 N   0  0  0  0  0  0  0  0  0  0  0  0
  -24.9860  -16.0280   20.4450 H   0  0  0  0  0  0  0  0  0  0  0  0
  -26.5690  -15.8090   19.8940 H   0  0  0  0  0  0  0  0  0  0  0  0
  -26.7400  -21.6510   18.3460 C   0  0  0  0  0  1  0  0  0  0  0  0
  -26.9940  -19.3790   19.3010 C   0  0  0  0  0  1  0  0  0  0  0  0
  -27.3680  -20.8640   19.5180 C   0  0  0  0  0  3  0  0  0  0  0  0
  -28.9470  -22.8840   20.3430 C   0  0  0  0  0  3  0  0  0  0  0  0
  -28.1120  -24.3920   19.8940 C   0  0  0  0  0  3  0  0  0  0  0  0
  -28.2900  -25.9660   20.2580 O   0  0  0  0  0  0  0  0  0  0  0  0
  -24.6490  -31.8300   23.1740 C   0  0  0  0  0  0  0  0  0  0  0  0
  -27.2650  -27.0260   20.1610 C   0  0  0  0  0  0  0  0  0  0  0  0
  -23.4760  -30.4260   21.5270 C   0  0  0  0  0  3  0  0  0  0  0  0
  -24.9450  -28.8470   20.1040 C   0  0  0  0  0  0  0  0  0  0  0  0
  -26.0360  -30.6760   21.3910 C   0  0  0  0  0  2  0  0  0  0  0  0
  -26.1220  -29.2730   20.7310 C   0  0  0  0  0  0  0  0  0  0  0  0
  -27.2750  -28.3800   20.7400 C   0  0  0  0  0  3  0  0  0  0  0  0
  -26.0630  -26.7410   19.4750 C   0  0  0  0  0  3  0  0  0  0  0  0
  -24.9370  -27.6010   19.4560 C   0  0  0  0  0  3  0  0  0  0  0  0
  -23.7140  -29.7490   20.1500 C   0  0  0  0  0  2  0  0  0  0  0  0
  -24.7420  -31.0030   22.0850 N   0  0  0  0  0  0  0  0  0  0  0  0
  -23.5570  -32.1100   23.6920 O   0  0  0  0  0  0  0  0  0  0  0  0
  -22.7900  -29.4190   22.4860 C   0  0  0  0  0  0  0  0  0  0  0  0
  -21.4630  -29.2320   22.3440 N   0  0  0  0  0  0  0  0  0  0  0  0
  -23.4560  -28.8060   23.3220 O   0  0  0  0  0  0  0  0  0  0  0  0
  -20.9790  -29.7710   21.6390 H   0  0  0  0  0  0  0  0  0  0  0  0
  -18.0970  -27.9810   22.8190 C   0  0  0  0  0  0  0  0  0  0  0  0
  -20.6480  -28.2870   23.1140 C   0  0  0  0  0  3  0  0  0  0  0  0
  -20.7760  -26.8490   22.5570 C   0  0  0  0  0  2  0  0  0  0  0  0
  -19.6990  -26.5070   21.5250 C   0  0  0  0  0  2  0  0  0  0  0  0
  -18.3020  -26.6370   22.1420 C   0  0  0  0  0  2  0  0  0  0  0  0
  -19.1980  -28.7630   23.2600 C   0  0  0  0  0  0  0  0  0  0  0  0
  -18.9500  -30.0190   23.8570 C   0  0  0  0  0  3  0  0  0  0  0  0
  -17.6360  -30.4960   24.0120 C   0  0  0  0  0  3  0  0  0  0  0  0
  -16.5500  -29.7120   23.5850 C   0  0  0  0  0  3  0  0  0  0  0  0
  -16.7800  -28.4570   22.9970 C   0  0  0  0  0  3  0  0  0  0  0  0
  -25.9150  -32.4810   23.8130 C   0  0  0  0  0  3  0  0  0  0  0  0
  -25.5870  -33.8800   24.1380 N   0  0  0  0  0  0  0  0  0  0  0  0
  -25.9290  -34.9390   23.3940 C   0  0  0  0  0  0  0  0  0  0  0  0
  -26.6160  -34.8420   22.3750 O   0  0  0  0  0  0  0  0  0  0  0  0
  -24.9750  -34.0280   24.9280 H   0  0  0  0  0  0  0  0  0  0  0  0
  -24.2060  -36.7380   23.0240 C   0  0  0  0  0  1  0  0  0  0  0  0
  -25.4330  -36.3260   23.8530 C   0  0  0  0  0  3  0  0  0  0  0  0
  -27.5460  -37.2170   24.7350 C   0  0  0  0  0  1  0  0  0  0  0  0
  -26.4670  -37.3810   23.7660 N   0  0  0  0  0  0  0  0  0  0  0  0
  -26.0550  -38.3010   23.9000 H   0  0  0  0  0  0  0  0  0  0  0  0
  -26.4150  -31.7240   25.1050 C   0  0  1  0  0  0  0  0  0  0  0  0
  -25.3090  -31.4860   26.1600 C   0  0  0  0  0  1  0  0  0  0  0  0
  -27.0170  -30.3480   24.7410 C   0  0  0  0  0  1  0  0  0  0  0  0
  -27.5500  -32.5320   25.7790 C   0  0  0  0  0  1  0  0  0  0  0  0
  1  3  1  0
  1 46  1  0
  3  2  1  0
  3  4  1  1
  5  3  1  0
  5  6  1  0
  7  6  1  0
  8 13  1  0
  9 10  1  0
  9  8  1  0
 11 10  1  0
 11 18  1  0
 11 12  1  0
 13  7  1  0
 13 12  1  0
 14  7  2  0
 15 16  2  0
 16 35  1  0
 17 16  1  0
 17 20  1  0
 18 19  1  0
 18 15  1  0
 19 17  2  0
 20 21  1  0
 21 22  2  0
 23 26  1  0
 23 22  1  0
 24 23  2  0
 25 24  1  0
 25 20  2  0
 26 27  1  0
 27 28  1  0
 28 29  2  0
 30 29  1  0
 30 34  1  0
 31 30  2  0
 32 27  2  0
 32 31  1  0
 33 32  1  0
 35 36  1  0
 36 39  1  0
 36 38  1  0
 37 35  2  0
 40 15  1  0
 40 41  1  0
 42 40  1  0
 43 45  1  0
 44 45  1  0
 45  1  1  0
 47 48  1  0
 47 46  2  0
 49 60  2  0
 50 48  1  0
 50 55  1  0
 51 59  1  0
 51 61  1  0
 52 58  1  0
 52 54  1  0
 53 59  1  0
 54 55  2  0
 54 53  1  0
 56 50  2  0
 57 56  1  0
 57 52  2  0
 58 51  1  0
 59 49  1  0
 61 63  2  0
 62 61  1  0
 64 62  1  0
 65 74  2  0
 65 70  1  0
 66 62  1  0
 66 70  1  0
 67 66  1  0
 68 69  1  0
 68 67  1  0
 69 65  1  0
 70 71  2  0
 71 72  1  0
 73 72  2  0
 74 73  1  0
 75 49  1  0
 75 76  1  0
 75 85  1  0
 76 79  1  0
 77 81  1  0
 77 76  1  0
 78 77  2  0
 81 80  1  0
 83 81  1  0
 83 84  1  0
 83 82  1  0
 85 88  1  1
 85 86  1  0
 87 85  1  0
M  ISO  4   6 100   7 100  47 101  48 101
M  END
>  <TORSDO>  (75) 
F 22

>  <SCORE>  (75) 
-13.899

>  <name>  (75) 
75

>  <ligand_id>  (75) 
75

>  <original_smiles>  (75) 
[H]c1c([H])c([H])c2c(c1[H])C([H])([H])C([H])([H])C([H])([H])C2([H])N([H])C(=O)C1([H])N(C(=O)C([H])(N([H])C(=O)C([H])(N([H])C([H])([H])[H])C([H])([H])[H])C(C([H])([H])[H])(C([H])([H])[H])C([H])([H])[H])C([H])([H])c2c([H])c(OC([H])([H])C([H])([H])C([H])(C([H])(C([H])([H])[H])C([H])([H])[H])[N+]([H])(C([H])([H])[H])C([H])([H])C([H])([H])C(=O)N3C([H])([H])C([H])([H])C([H])([H])C([H])(n4nc(-c5c([H])c([H])c(Oc6c([H])c([H])c(F)c([H])c6F)c([H])c5[H])c(C(=O)N([H])[H])c4N([H])[H])C3([H])[H])c([H])c([H])c2C1([H])[H]

>  <smiles>  (75) 
[H]c1c([H])c([H])c2c(c1[H])C([H])([H])C([H])([H])C([H])([H])C2([H])N([H])C(=O)C1([H])N(C(=O)C([H])(N([H])C(=O)C([H])(N([H])C([H])([H])[H])C([H])([H])[H])C(C([H])([H])[H])(C([H])([H])[H])C([H])([H])[H])C([H])([H])c2c([H])c(OC([H])([H])C([H])([H])C([H])(C([H])(C([H])([H])[H])C([H])([H])[H])[N+]([H])(C([H])([H])[H])C([H])([H])C([H])([H])C(=O)N3C([H])([H])C([H])([H])C([H])([H])C([H])(n4nc(-c5c([H])c([H])c(Oc6c([H])c([H])c(F)c([H])c6F)c([H])c5[H])c(C(=O)N([H])[H])c4N([H])[H])C3([H])[H])c([H])c([H])c2C1([H])[H]

$$$$
76:0:0
     RDKit          3D

 92101  0  0  1  0  0  0  0  0999 V2000
  -28.6920  -20.9780   15.6030 C   0  0  0  0  0  3  0  0  0  0  0  0
  -29.0550  -19.7330   16.1320 C   0  0  0  0  0  3  0  0  0  0  0  0
  -28.5870  -22.0790   16.4690 C   0  0  0  0  0  3  0  0  0  0  0  0
  -29.2830  -19.5940   17.5110 C   0  0  0  0  0  3  0  0  0  0  0  0
  -28.6830  -23.1230   18.6350 C   0  0  0  0  0  3  0  0  0  0  0  0
  -29.1720  -21.7740   20.5840 C   0  0  0  0  0  3  0  0  0  0  0  0
  -28.8420  -21.9510   17.8560 C   0  0  0  0  0  0  0  0  0  0  0  0
  -29.1900  -20.6750   18.4180 C   0  0  0  0  0  0  0  0  0  0  0  0
  -28.8250  -23.1210   20.0320 C   0  0  0  0  0  0  0  0  0  0  0  0
  -29.3940  -20.4960   19.8300 C   0  0  0  0  0  0  0  0  0  0  0  0
  -29.6270  -18.9710   20.5210 C   0  0  0  0  0  3  0  0  0  0  0  0
  -30.3790  -17.5200   19.9580 C   0  0  0  0  0  3  0  0  0  0  0  0
  -30.9190  -14.8250   20.2140 C   0  0  0  0  0  0  0  0  0  0  0  0
  -30.7070  -12.5620   19.0740 C   0  0  0  0  0  2  0  0  0  0  0  0
  -29.7260  -12.6610   17.8790 C   0  0  0  0  0  2  0  0  0  0  0  0
  -28.2600  -12.4960   18.3310 C   0  0  0  0  0  2  0  0  0  0  0  0
  -27.9480  -13.3050   19.6170 C   0  0  0  0  0  3  0  0  0  0  0  0
  -29.0370  -13.0720   20.6840 C   0  0  0  0  0  2  0  0  0  0  0  0
  -30.2920  -13.5700   20.0950 N   0  0  0  0  0  0  0  0  0  0  0  0
  -32.0780  -14.8860   19.7830 O   0  0  0  0  0  0  0  0  0  0  0  0
  -29.2970  -16.0160   21.6830 C   0  0  0  0  0  1  0  0  0  0  0  0
  -30.2060  -16.0400   20.5330 N   0  0  0  0  0  0  0  0  0  0  0  0
  -25.5770  -13.9480   20.3530 C   0  0  0  0  0  0  0  0  0  0  0  0
  -24.5000  -13.1970   20.7340 C   0  0  0  0  0  0  0  0  0  0  0  0
  -24.9350  -11.8360   20.6990 C   0  0  0  0  0  0  0  0  0  0  0  0
  -26.6030  -13.0470   20.1180 N   0  0  0  0  0  0  0  0  0  0  0  0
  -26.2210  -11.7690   20.3780 N   0  0  0  0  0  0  0  0  0  0  0  0
  -24.1800  -10.5890   20.8850 C   0  0  0  0  0  0  0  0  0  0  0  0
  -24.5500   -9.6410   21.8640 C   0  0  0  0  0  3  0  0  0  0  0  0
  -23.7940   -8.4630   22.0400 C   0  0  0  0  0  3  0  0  0  0  0  0
  -22.6540   -8.2230   21.2360 C   0  0  0  0  0  0  0  0  0  0  0  0
  -22.3070   -9.1580   20.2440 C   0  0  0  0  0  3  0  0  0  0  0  0
  -23.0630  -10.3290   20.0660 C   0  0  0  0  0  3  0  0  0  0  0  0
  -21.8760   -7.0940   21.3190 O   0  0  0  0  0  0  0  0  0  0  0  0
  -21.6870   -6.4350   22.5070 C   0  0  0  0  0  0  0  0  0  0  0  0
  -21.1010   -7.0680   23.6250 C   0  0  0  0  0  3  0  0  0  0  0  0
  -20.8630   -6.3360   24.8050 C   0  0  0  0  0  3  0  0  0  0  0  0
  -21.2020   -4.9700   24.8670 C   0  0  0  0  0  0  0  0  0  0  0  0
  -21.7770   -4.3360   23.7520 C   0  0  0  0  0  3  0  0  0  0  0  0
  -22.0180   -5.0670   22.5760 C   0  0  0  0  0  0  0  0  0  0  0  0
  -22.5550   -4.4470   21.4970 F   0  0  0  0  0  0  0  0  0  0  0  0
  -20.9660   -4.2640   25.9970 F   0  0  0  0  0  0  0  0  0  0  0  0
  -23.1170  -13.7060   21.0180 C   0  0  0  0  0  0  0  0  0  0  0  0
  -22.3870  -13.0350   21.9030 N   0  0  0  0  0  0  0  0  0  0  0  0
  -22.6940  -14.7350   20.4930 O   0  0  0  0  0  0  0  0  0  0  0  0
  -22.7430  -12.2030   22.3490 H   0  0  0  0  0  0  0  0  0  0  0  0
  -21.4600  -13.3610   22.1380 H   0  0  0  0  0  0  0  0  0  0  0  0
  -25.7570  -15.3150   20.1660 N   0  0  0  0  0  0  0  0  0  0  0  0
  -24.9860  -15.9670   20.2670 H   0  0  0  0  0  0  0  0  0  0  0  0
  -26.5920  -15.7480   19.7910 H   0  0  0  0  0  0  0  0  0  0  0  0
  -28.3910  -24.5090   20.8340 C   0  0  0  0  0  2  0  0  0  0  0  0
  -28.6080  -26.0030   20.4130 O   0  0  0  0  0  0  0  0  0  0  0  0
  -24.5680  -31.6210   23.1040 C   0  0  0  0  0  0  0  0  0  0  0  0
  -27.5210  -26.9510   20.3500 C   0  0  0  0  0  0  0  0  0  0  0  0
  -23.5350  -30.1490   21.4190 C   0  0  0  0  0  3  0  0  0  0  0  0
  -25.1360  -28.6050   20.1330 C   0  0  0  0  0  0  0  0  0  0  0  0
  -26.0830  -30.5120   21.4210 C   0  0  0  0  0  2  0  0  0  0  0  0
  -26.2560  -29.1110   20.8080 C   0  0  0  0  0  0  0  0  0  0  0  0
  -27.4530  -28.3010   20.8960 C   0  0  0  0  0  3  0  0  0  0  0  0
  -26.3710  -26.5430   19.6470 C   0  0  0  0  0  3  0  0  0  0  0  0
  -25.2090  -27.3370   19.5380 C   0  0  0  0  0  3  0  0  0  0  0  0
  -23.8760  -29.4560   20.0720 C   0  0  0  0  0  2  0  0  0  0  0  0
  -24.7450  -30.7850   22.0350 N   0  0  0  0  0  0  0  0  0  0  0  0
  -23.4390  -31.8690   23.5490 O   0  0  0  0  0  0  0  0  0  0  0  0
  -22.8350  -29.1320   22.3560 C   0  0  0  0  0  0  0  0  0  0  0  0
  -21.5050  -28.9790   22.2150 N   0  0  0  0  0  0  0  0  0  0  0  0
  -23.4920  -28.4870   23.1750 O   0  0  0  0  0  0  0  0  0  0  0  0
  -21.0330  -29.5540   21.5320 H   0  0  0  0  0  0  0  0  0  0  0  0
  -18.0930  -27.8780   22.7270 C   0  0  0  0  0  0  0  0  0  0  0  0
  -20.6660  -28.0360   22.9610 C   0  0  0  0  0  3  0  0  0  0  0  0
  -20.7040  -26.6290   22.3230 C   0  0  0  0  0  2  0  0  0  0  0  0
  -19.5720  -26.3930   21.3180 C   0  0  0  0  0  2  0  0  0  0  0  0
  -18.2080  -26.5570   21.9910 C   0  0  0  0  0  2  0  0  0  0  0  0
  -19.2450  -28.5800   23.1710 C   0  0  0  0  0  0  0  0  0  0  0  0
  -19.0800  -29.8220   23.8240 C   0  0  0  0  0  3  0  0  0  0  0  0
  -17.7940  -30.3560   24.0430 C   0  0  0  0  0  3  0  0  0  0  0  0
  -16.6580  -29.6510   23.6140 C   0  0  0  0  0  3  0  0  0  0  0  0
  -16.8100  -28.4140   22.9610 C   0  0  0  0  0  3  0  0  0  0  0  0
  -25.7720  -32.3210   23.8060 C   0  0  0  0  0  3  0  0  0  0  0  0
  -26.2380  -31.5770   25.1170 C   0  0  1  0  0  0  0  0  0  0  0  0
  -25.0870  -31.2940   26.1120 C   0  0  0  0  0  1  0  0  0  0  0  0
  -26.9100  -30.2260   24.7770 C   0  0  0  0  0  1  0  0  0  0  0  0
  -27.3100  -32.4240   25.8450 C   0  0  0  0  0  1  0  0  0  0  0  0
  -25.3700  -33.7010   24.1210 N   0  0  0  0  0  0  0  0  0  0  0  0
  -25.6770  -34.7730   23.3770 C   0  0  0  0  0  0  0  0  0  0  0  0
  -26.3900  -34.7070   22.3750 O   0  0  0  0  0  0  0  0  0  0  0  0
  -24.7440  -33.8280   24.9030 H   0  0  0  0  0  0  0  0  0  0  0  0
  -23.8690  -36.4740   22.9490 C   0  0  0  0  0  1  0  0  0  0  0  0
  -25.0930  -36.1350   23.8140 C   0  0  0  0  0  3  0  0  0  0  0  0
  -27.1360  -37.1420   24.7350 C   0  0  0  0  0  1  0  0  0  0  0  0
  -26.0710  -37.2420   23.7420 N   0  0  0  0  0  0  0  0  0  0  0  0
  -25.6090  -38.1400   23.8630 H   0  0  0  0  0  0  0  0  0  0  0  0
  1  2  2  0
  1  3  1  0
  2  4  1  0
  3  7  2  0
  4  8  2  0
  5  9  2  0
  7  8  1  0
  7  5  1  0
  8 10  1  0
  9  6  1  0
  9 51  1  0
 10 11  1  0
 10  6  2  0
 12 11  2  0
 12 22  1  0
 13 22  1  0
 14 19  1  0
 15 16  1  0
 15 14  1  0
 17 16  1  0
 17 26  1  0
 17 18  1  0
 19 13  1  0
 19 18  1  0
 20 13  2  0
 22 21  1  0
 23 24  2  0
 24 43  1  0
 25 24  1  0
 25 28  1  0
 26 23  1  0
 26 27  1  0
 27 25  2  0
 28 29  1  0
 29 30  2  0
 31 34  1  0
 31 30  1  0
 32 31  2  0
 33 32  1  0
 33 28  2  0
 34 35  1  0
 35 40  2  0
 35 36  1  0
 36 37  2  0
 37 38  1  0
 38 42  1  0
 39 38  2  0
 40 39  1  0
 41 40  1  0
 43 44  1  0
 44 47  1  0
 44 46  1  0
 45 43  2  0
 48 49  1  0
 48 23  1  0
 50 48  1  0
 52 51  1  0
 53 64  2  0
 54 52  1  0
 54 59  1  0
 55 63  1  0
 55 65  1  0
 56 58  1  0
 57 63  1  0
 58 59  2  0
 58 57  1  0
 60 54  2  0
 61 60  1  0
 61 56  2  0
 62 56  1  0
 62 55  1  0
 63 53  1  0
 65 67  2  0
 66 65  1  0
 68 66  1  0
 69 78  2  0
 69 74  1  0
 70 66  1  0
 70 74  1  0
 71 70  1  0
 72 73  1  0
 72 71  1  0
 73 69  1  0
 74 75  2  0
 75 76  1  0
 77 76  2  0
 78 77  1  0
 79 53  1  0
 79 84  1  0
 79 80  1  0
 80 83  1  1
 80 81  1  0
 82 80  1  0
 84 87  1  0
 85 89  1  0
 85 84  1  0
 86 85  2  0
 89 88  1  0
 91 89  1  0
 91 92  1  0
 91 90  1  0
M  ISO  4  13 100  22 100  51 101  52 101
M  END
>  <TORSDO>  (76) 
F 19

>  <SCORE>  (76) 
-12.569

>  <name>  (76) 
76

>  <ligand_id>  (76) 
76

>  <original_smiles>  (76) 
[H]c1c([H])c([H])c2c(c1[H])C([H])([H])C([H])([H])C([H])([H])C2([H])N([H])C(=O)C1([H])N(C(=O)C([H])(N([H])C(=O)C([H])(N([H])C([H])([H])[H])C([H])([H])[H])C(C([H])([H])[H])(C([H])([H])[H])C([H])([H])[H])C([H])([H])c2c([H])c(OC([H])([H])c3c([H])c(C([H])([H])C([H])([H])N(C(=O)N4C([H])([H])C([H])([H])C([H])([H])C([H])(n5nc(-c6c([H])c([H])c(Oc7c([H])c([H])c(F)c([H])c7F)c([H])c6[H])c(C(=O)N([H])[H])c5N([H])[H])C4([H])[H])C([H])([H])[H])c4c([H])c([H])c([H])c([H])c4c3[H])c([H])c([H])c2C1([H])[H]

>  <smiles>  (76) 
[H]c1c([H])c([H])c2c(c1[H])C([H])([H])C([H])([H])C([H])([H])C2([H])N([H])C(=O)C1([H])N(C(=O)C([H])(N([H])C(=O)C([H])(N([H])C([H])([H])[H])C([H])([H])[H])C(C([H])([H])[H])(C([H])([H])[H])C([H])([H])[H])C([H])([H])c2c([H])c(OC([H])([H])c3c([H])c(C([H])([H])C([H])([H])N(C(=O)N4C([H])([H])C([H])([H])C([H])([H])C([H])(n5nc(-c6c([H])c([H])c(Oc7c([H])c([H])c(F)c([H])c7F)c([H])c6[H])c(C(=O)N([H])[H])c5N([H])[H])C4([H])[H])C([H])([H])[H])c4c([H])c([H])c([H])c([H])c4c3[H])c([H])c([H])c2C1([H])[H]

$$$$
77:0:0
     RDKit          3D

 93101  0  0  1  0  0  0  0  0999 V2000
  -28.5220  -21.1730   18.9660 C   0  0  0  0  0  2  0  0  0  0  0  0
  -29.5820  -20.1050   19.2840 C   0  0  0  0  0  2  0  0  0  0  0  0
  -30.4700  -21.3160   21.4390 C   0  0  0  0  0  2  0  0  0  0  0  0
  -29.0960  -22.5840   18.7560 C   0  0  0  0  0  2  0  0  0  0  0  0
  -30.8350  -22.4950   20.5110 C   0  0  0  0  0  2  0  0  0  0  0  0
  -29.9670  -19.9990   20.7770 C   0  0  0  0  0  3  0  0  0  0  0  0
  -29.6140  -23.1890   20.0130 N   0  0  1  0  0  4  0  0  0  0  0  0
  -28.9140  -23.0250   20.7210 H   0  0  0  0  0  0  0  0  0  0  0  0
  -30.9650  -18.8400   20.9620 C   0  0  0  0  0  0  0  0  0  0  0  0
  -30.4700  -17.6990   21.4560 N   0  0  0  0  0  0  0  0  0  0  0  0
  -32.1510  -18.9830   20.6600 O   0  0  0  0  0  0  0  0  0  0  0  0
  -29.4870  -17.6990   21.6920 H   0  0  0  0  0  0  0  0  0  0  0  0
  -31.2220  -16.4770   21.7610 C   0  0  0  0  0  2  0  0  0  0  0  0
  -30.3720  -15.1940   21.5400 C   0  0  0  0  0  2  0  0  0  0  0  0
  -30.7260  -14.3290   20.3110 C   0  0  0  0  0  0  0  0  0  0  0  0
  -30.2700  -12.3290   18.9220 C   0  0  0  0  0  2  0  0  0  0  0  0
  -29.2690  -12.6380   17.7940 C   0  0  0  0  0  2  0  0  0  0  0  0
  -27.8210  -12.4820   18.2950 C   0  0  0  0  0  2  0  0  0  0  0  0
  -27.5700  -13.2430   19.6240 C   0  0  0  0  0  3  0  0  0  0  0  0
  -28.6720  -12.9140   20.6570 C   0  0  0  0  0  2  0  0  0  0  0  0
  -29.9780  -13.2240   20.0500 N   0  0  0  0  0  0  0  0  0  0  0  0
  -31.7010  -14.6340   19.6170 O   0  0  0  0  0  0  0  0  0  0  0  0
  -25.1960  -13.8540   20.4130 C   0  0  0  0  0  0  0  0  0  0  0  0
  -24.1390  -13.0800   20.8180 C   0  0  0  0  0  0  0  0  0  0  0  0
  -24.5970  -11.7280   20.7630 C   0  0  0  0  0  0  0  0  0  0  0  0
  -26.2310  -12.9720   20.1470 N   0  0  0  0  0  0  0  0  0  0  0  0
  -25.8750  -11.6880   20.4080 N   0  0  0  0  0  0  0  0  0  0  0  0
  -23.8770  -10.4660   20.9740 C   0  0  0  0  0  0  0  0  0  0  0  0
  -24.3380   -9.4980   21.8950 C   0  0  0  0  0  3  0  0  0  0  0  0
  -23.6190   -8.3000   22.0940 C   0  0  0  0  0  3  0  0  0  0  0  0
  -22.4240   -8.0610   21.3740 C   0  0  0  0  0  0  0  0  0  0  0  0
  -21.9810   -9.0180   20.4450 C   0  0  0  0  0  3  0  0  0  0  0  0
  -22.7010  -10.2090   20.2430 C   0  0  0  0  0  3  0  0  0  0  0  0
  -21.6730   -6.9160   21.4830 O   0  0  0  0  0  0  0  0  0  0  0  0
  -21.6560   -6.1730   22.6370 C   0  0  0  0  0  0  0  0  0  0  0  0
  -21.2590   -6.7280   23.8720 C   0  0  0  0  0  3  0  0  0  0  0  0
  -21.1880   -5.9140   25.0200 C   0  0  0  0  0  3  0  0  0  0  0  0
  -21.5060   -4.5450   24.9340 C   0  0  0  0  0  0  0  0  0  0  0  0
  -21.8990   -3.9900   23.7030 C   0  0  0  0  0  3  0  0  0  0  0  0
  -21.9710   -4.8020   22.5570 C   0  0  0  0  0  0  0  0  0  0  0  0
  -22.3280   -4.2570   21.3690 F   0  0  0  0  0  0  0  0  0  0  0  0
  -21.4330   -3.7590   26.0330 F   0  0  0  0  0  0  0  0  0  0  0  0
  -22.7550  -13.5580   21.1460 C   0  0  0  0  0  0  0  0  0  0  0  0
  -22.0580  -12.8550   22.0320 N   0  0  0  0  0  0  0  0  0  0  0  0
  -22.2970  -14.5870   20.6490 O   0  0  0  0  0  0  0  0  0  0  0  0
  -22.4400  -12.0200   22.4530 H   0  0  0  0  0  0  0  0  0  0  0  0
  -21.1310  -13.1560   22.2960 H   0  0  0  0  0  0  0  0  0  0  0  0
  -25.3550  -15.2240   20.2360 N   0  0  0  0  0  0  0  0  0  0  0  0
  -24.5960  -15.8830   20.3710 H   0  0  0  0  0  0  0  0  0  0  0  0
  -26.2020  -15.6630   19.8950 H   0  0  0  0  0  0  0  0  0  0  0  0
  -29.7560  -24.6770   19.9520 C   0  0  0  0  0  2  0  0  0  0  0  0
  -28.4100  -25.3980   19.7040 C   0  0  0  0  0  2  0  0  0  0  0  0
  -28.4150  -26.7510   20.1690 O   0  0  0  0  0  0  0  0  0  0  0  0
  -24.5360  -31.8660   23.2440 C   0  0  0  0  0  0  0  0  0  0  0  0
  -27.2140  -27.4370   20.1640 C   0  0  0  0  0  0  0  0  0  0  0  0
  -23.3400  -30.4720   21.5890 C   0  0  0  0  0  3  0  0  0  0  0  0
  -24.8040  -28.9300   20.1800 C   0  0  0  0  0  0  0  0  0  0  0  0
  -25.8680  -30.8230   21.4170 C   0  0  0  0  0  2  0  0  0  0  0  0
  -25.9580  -29.4540   20.7770 C   0  0  0  0  0  0  0  0  0  0  0  0
  -27.1600  -28.7140   20.7660 C   0  0  0  0  0  3  0  0  0  0  0  0
  -26.0320  -26.9220   19.5710 C   0  0  0  0  0  3  0  0  0  0  0  0
  -24.8360  -27.6610   19.5810 C   0  0  0  0  0  3  0  0  0  0  0  0
  -23.5590  -29.7880   20.2130 C   0  0  0  0  0  2  0  0  0  0  0  0
  -24.5990  -31.0670   22.1430 N   0  0  0  0  0  0  0  0  0  0  0  0
  -23.4520  -32.1410   23.7760 O   0  0  0  0  0  0  0  0  0  0  0  0
  -22.6760  -29.4500   22.5390 C   0  0  0  0  0  0  0  0  0  0  0  0
  -21.3540  -29.2660   22.3930 N   0  0  0  0  0  0  0  0  0  0  0  0
  -23.3500  -28.8230   23.3620 O   0  0  0  0  0  0  0  0  0  0  0  0
  -20.8710  -29.8220   21.7010 H   0  0  0  0  0  0  0  0  0  0  0  0
  -17.9760  -28.0790   22.8560 C   0  0  0  0  0  0  0  0  0  0  0  0
  -20.5300  -28.3300   23.1560 C   0  0  0  0  0  3  0  0  0  0  0  0
  -20.6350  -26.8990   22.5800 C   0  0  0  0  0  2  0  0  0  0  0  0
  -19.5430  -26.5810   21.5520 C   0  0  0  0  0  2  0  0  0  0  0  0
  -18.1540  -26.7300   22.1800 C   0  0  0  0  0  2  0  0  0  0  0  0
  -19.0920  -28.8370   23.2980 C   0  0  0  0  0  0  0  0  0  0  0  0
  -18.8710  -30.1020   23.8860 C   0  0  0  0  0  3  0  0  0  0  0  0
  -17.5660  -30.6080   24.0350 C   0  0  0  0  0  3  0  0  0  0  0  0
  -16.4640  -29.8490   23.6060 C   0  0  0  0  0  3  0  0  0  0  0  0
  -16.6700  -28.5850   23.0240 C   0  0  0  0  0  3  0  0  0  0  0  0
  -25.8200  -32.4920   23.8750 C   0  0  0  0  0  3  0  0  0  0  0  0
  -25.5110  -33.8890   24.2050 N   0  0  0  0  0  0  0  0  0  0  0  0
  -25.8450  -34.9430   23.4460 C   0  0  0  0  0  0  0  0  0  0  0  0
  -26.5130  -34.8400   22.4140 O   0  0  0  0  0  0  0  0  0  0  0  0
  -24.9080  -34.0430   25.0000 H   0  0  0  0  0  0  0  0  0  0  0  0
  -24.1100  -36.7320   23.1020 C   0  0  0  0  0  1  0  0  0  0  0  0
  -25.3570  -36.3300   23.9050 C   0  0  0  0  0  3  0  0  0  0  0  0
  -27.4920  -37.2200   24.7260 C   0  0  0  0  0  1  0  0  0  0  0  0
  -26.3870  -37.3840   23.7860 N   0  0  0  0  0  0  0  0  0  0  0  0
  -25.9820  -38.3050   23.9360 H   0  0  0  0  0  0  0  0  0  0  0  0
  -26.3320  -31.7120   25.1480 C   0  0  1  0  0  0  0  0  0  0  0  0
  -25.2290  -31.4640   26.2040 C   0  0  0  0  0  1  0  0  0  0  0  0
  -26.9190  -30.3370   24.7530 C   0  0  0  0  0  1  0  0  0  0  0  0
  -27.4780  -32.5010   25.8210 C   0  0  0  0  0  1  0  0  0  0  0  0
  1  2  1  0
  2  6  1  0
  4  1  1  0
  4  7  1  0
  5  3  1  0
  6  9  1  0
  6  3  1  0
  7  5  1  0
  7  8  1  1
  9 10  1  0
 10 12  1  0
 10 13  1  0
 11  9  2  0
 14 13  1  0
 15 14  1  0
 16 21  1  0
 17 18  1  0
 17 16  1  0
 19 18  1  0
 19 26  1  0
 19 20  1  0
 21 15  1  0
 21 20  1  0
 22 15  2  0
 23 24  2  0
 24 43  1  0
 25 24  1  0
 25 28  1  0
 26 27  1  0
 26 23  1  0
 27 25  2  0
 28 29  1  0
 29 30  2  0
 31 34  1  0
 31 30  1  0
 32 31  2  0
 33 32  1  0
 33 28  2  0
 34 35  1  0
 35 36  1  0
 36 37  2  0
 38 37  1  0
 38 42  1  0
 39 38  2  0
 40 35  2  0
 40 39  1  0
 41 40  1  0
 43 44  1  0
 44 47  1  0
 44 46  1  0
 45 43  2  0
 48 49  1  0
 48 23  1  0
 50 48  1  0
 51  7  1  0
 52 51  1  0
 52 53  1  0
 54 65  2  0
 55 53  1  0
 55 60  1  0
 56 64  1  0
 56 66  1  0
 57 63  1  0
 57 59  1  0
 58 64  1  0
 59 58  1  0
 60 59  2  0
 61 62  1  0
 61 55  2  0
 62 57  2  0
 63 56  1  0
 64 54  1  0
 66 68  2  0
 67 66  1  0
 69 67  1  0
 70 79  2  0
 70 75  1  0
 71 67  1  0
 71 75  1  0
 72 71  1  0
 73 74  1  0
 73 72  1  0
 74 70  1  0
 75 76  2  0
 76 77  1  0
 78 77  2  0
 79 78  1  0
 80 54  1  0
 80 81  1  0
 80 90  1  0
 81 84  1  0
 82 86  1  0
 82 81  1  0
 83 82  2  0
 86 85  1  0
 88 86  1  0
 88 89  1  0
 88 87  1  0
 90 93  1  1
 90 91  1  0
 92 90  1  0
M  ISO  4  14 100  15 100  52 101  53 101
M  END
>  <TORSDO>  (77) 
F 21

>  <SCORE>  (77) 
-13.504

>  <name>  (77) 
77

>  <ligand_id>  (77) 
77

>  <original_smiles>  (77) 
[H]c1c([H])c([H])c2c(c1[H])C([H])([H])C([H])([H])C([H])([H])C2([H])N([H])C(=O)C1([H])N(C(=O)C([H])(N([H])C(=O)C([H])(N([H])C([H])([H])[H])C([H])([H])[H])C(C([H])([H])[H])(C([H])([H])[H])C([H])([H])[H])C([H])([H])c2c([H])c(OC([H])([H])C([H])([H])[N+]3([H])C([H])([H])C([H])([H])C([H])([H])C([H])(C(=O)N([H])C([H])([H])C([H])([H])C(=O)N4C([H])([H])C([H])([H])C([H])([H])C([H])(n5nc(-c6c([H])c([H])c(Oc7c([H])c([H])c(F)c([H])c7F)c([H])c6[H])c(C(=O)N([H])[H])c5N([H])[H])C4([H])[H])C([H])([H])C3([H])[H])c([H])c([H])c2C1([H])[H]

>  <smiles>  (77) 
[H]c1c([H])c([H])c2c(c1[H])C([H])([H])C([H])([H])C([H])([H])C2([H])N([H])C(=O)C1([H])N(C(=O)C([H])(N([H])C(=O)C([H])(N([H])C([H])([H])[H])C([H])([H])[H])C(C([H])([H])[H])(C([H])([H])[H])C([H])([H])[H])C([H])([H])c2c([H])c(OC([H])([H])C([H])([H])[N+]3([H])C([H])([H])C([H])([H])C([H])([H])C([H])(C(=O)N([H])C([H])([H])C([H])([H])C(=O)N4C([H])([H])C([H])([H])C([H])([H])C([H])(n5nc(-c6c([H])c([H])c(Oc7c([H])c([H])c(F)c([H])c7F)c([H])c6[H])c(C(=O)N([H])[H])c5N([H])[H])C4([H])[H])C([H])([H])C3([H])[H])c([H])c([H])c2C1([H])[H]

$$$$
78:0:0
     RDKit          3D

 88 96  0  0  1  0  0  0  0  0999 V2000
  -29.1500  -20.5680   20.3820 C   0  0  0  0  0  3  0  0  0  0  0  0
  -29.3160  -22.4730   20.4770 C   0  0  0  0  0  3  0  0  0  0  0  0
  -28.2870  -24.0710   20.2070 C   0  0  0  0  0  3  0  0  0  0  0  0
  -28.4020  -25.8010   20.3400 O   0  0  0  0  0  0  0  0  0  0  0  0
  -24.7020  -31.9310   23.2370 C   0  0  0  0  0  0  0  0  0  0  0  0
  -27.3760  -26.9500   20.2760 C   0  0  0  0  0  0  0  0  0  0  0  0
  -23.5550  -30.5020   21.5970 C   0  0  0  0  0  3  0  0  0  0  0  0
  -25.0450  -28.8880   20.2000 C   0  0  0  0  0  0  0  0  0  0  0  0
  -26.1260  -30.7170   21.4860 C   0  0  0  0  0  2  0  0  0  0  0  0
  -26.2270  -29.2890   20.8340 C   0  0  0  0  0  0  0  0  0  0  0  0
  -27.3760  -28.3490   20.8360 C   0  0  0  0  0  3  0  0  0  0  0  0
  -26.1490  -26.7380   19.5970 C   0  0  0  0  0  3  0  0  0  0  0  0
  -25.0390  -27.6360   19.5620 C   0  0  0  0  0  3  0  0  0  0  0  0
  -23.8150  -29.8060   20.2300 C   0  0  0  0  0  2  0  0  0  0  0  0
  -24.8170  -31.0810   22.1600 N   0  0  0  0  0  0  0  0  0  0  0  0
  -23.6000  -32.2090   23.7390 O   0  0  0  0  0  0  0  0  0  0  0  0
  -22.8540  -29.5110   22.5640 C   0  0  0  0  0  0  0  0  0  0  0  0
  -21.5270  -29.3240   22.4220 N   0  0  0  0  0  0  0  0  0  0  0  0
  -23.5140  -28.9110   23.4150 O   0  0  0  0  0  0  0  0  0  0  0  0
  -21.0440  -29.8510   21.7080 H   0  0  0  0  0  0  0  0  0  0  0  0
  -18.1500  -28.0870   22.9360 C   0  0  0  0  0  0  0  0  0  0  0  0
  -20.7080  -28.3810   23.1920 C   0  0  0  0  0  3  0  0  0  0  0  0
  -20.8240  -26.9490   22.6220 C   0  0  0  0  0  2  0  0  0  0  0  0
  -19.7230  -26.6080   21.6130 C   0  0  0  0  0  2  0  0  0  0  0  0
  -18.3400  -26.7440   22.2550 C   0  0  0  0  0  2  0  0  0  0  0  0
  -19.2610  -28.8620   23.3630 C   0  0  0  0  0  0  0  0  0  0  0  0
  -19.0240  -30.1130   23.9710 C   0  0  0  0  0  3  0  0  0  0  0  0
  -17.7120  -30.5950   24.1480 C   0  0  0  0  0  3  0  0  0  0  0  0
  -16.6190  -29.8200   23.7320 C   0  0  0  0  0  3  0  0  0  0  0  0
  -16.8390  -28.5650   23.1320 C   0  0  0  0  0  3  0  0  0  0  0  0
  -25.9490  -32.6060   23.8840 C   0  0  0  0  0  3  0  0  0  0  0  0
  -26.4370  -31.8700   25.1950 C   0  0  1  0  0  0  0  0  0  0  0  0
  -25.3140  -31.6440   26.2350 C   0  0  0  0  0  1  0  0  0  0  0  0
  -27.0490  -30.4890   24.8630 C   0  0  0  0  0  1  0  0  0  0  0  0
  -27.5580  -32.6940   25.8730 C   0  0  0  0  0  1  0  0  0  0  0  0
  -25.6020  -34.0060   24.1960 N   0  0  0  0  0  0  0  0  0  0  0  0
  -25.9390  -35.0700   23.4520 C   0  0  0  0  0  0  0  0  0  0  0  0
  -26.6330  -34.9770   22.4390 O   0  0  0  0  0  0  0  0  0  0  0  0
  -24.9800  -34.1510   24.9780 H   0  0  0  0  0  0  0  0  0  0  0  0
  -24.2010  -36.8530   23.0710 C   0  0  0  0  0  1  0  0  0  0  0  0
  -25.4300  -36.4560   23.9030 C   0  0  0  0  0  3  0  0  0  0  0  0
  -27.5350  -37.3710   24.7810 C   0  0  0  0  0  1  0  0  0  0  0  0
  -26.4560  -37.5200   23.8080 N   0  0  0  0  0  0  0  0  0  0  0  0
  -26.0370  -38.4380   23.9370 H   0  0  0  0  0  0  0  0  0  0  0  0
  -30.1440  -18.9600   20.7400 C   0  0  0  0  0  3  0  0  0  0  0  0
  -30.6050  -15.8650   20.7720 C   0  0  0  0  0  0  0  0  0  0  0  0
  -30.8330  -13.3070   20.0460 C   0  0  0  0  0  2  0  0  0  0  0  0
  -30.0740  -12.8150   18.7810 C   0  0  0  0  0  2  0  0  0  0  0  0
  -28.6220  -12.4430   19.1150 C   0  0  0  0  0  2  0  0  0  0  0  0
  -27.9820  -13.4790   20.0630 C   0  0  0  0  0  3  0  0  0  0  0  0
  -28.8890  -13.8750   21.2520 C   0  0  0  0  0  2  0  0  0  0  0  0
  -30.1060  -14.4950   20.6750 N   0  0  0  0  0  0  0  0  0  0  0  0
  -31.8520  -15.8070   20.8070 O   0  0  0  0  0  0  0  0  0  0  0  0
  -29.8470  -17.2330   20.6260 N   0  0  0  0  0  0  0  0  0  0  0  0
  -26.0670  -18.0250   18.9430 C   0  0  0  0  0  3  0  0  0  0  0  0
  -27.1150  -17.5800   18.1100 C   0  0  0  0  0  3  0  0  0  0  0  0
  -26.2360  -18.0340   20.3420 C   0  0  0  0  0  3  0  0  0  0  0  0
  -28.3530  -17.1920   18.6710 C   0  0  0  0  0  3  0  0  0  0  0  0
  -27.4560  -17.6040   20.9030 C   0  0  0  0  0  3  0  0  0  0  0  0
  -28.5380  -17.2190   20.0720 C   0  0  0  0  0  0  0  0  0  0  0  0
  -25.5580  -13.9700   20.6490 C   0  0  0  0  0  0  0  0  0  0  0  0
  -24.4780  -13.1830   20.9090 C   0  0  0  0  0  0  0  0  0  0  0  0
  -24.9680  -11.8450   20.8930 C   0  0  0  0  0  0  0  0  0  0  0  0
  -26.6320  -13.1200   20.4740 N   0  0  0  0  0  0  0  0  0  0  0  0
  -26.2820  -11.8270   20.6930 N   0  0  0  0  0  0  0  0  0  0  0  0
  -24.2380  -10.5790   20.9930 C   0  0  0  0  0  0  0  0  0  0  0  0
  -24.5310   -9.6350   22.0000 C   0  0  0  0  0  3  0  0  0  0  0  0
  -23.7990   -8.4330   22.0830 C   0  0  0  0  0  3  0  0  0  0  0  0
  -22.7590   -8.1700   21.1590 C   0  0  0  0  0  0  0  0  0  0  0  0
  -22.4850   -9.1060   20.1470 C   0  0  0  0  0  3  0  0  0  0  0  0
  -23.2190  -10.3000   20.0610 C   0  0  0  0  0  3  0  0  0  0  0  0
  -22.0060   -7.0220   21.1520 O   0  0  0  0  0  0  0  0  0  0  0  0
  -21.7030   -6.3580   22.3120 C   0  0  0  0  0  0  0  0  0  0  0  0
  -20.9830   -6.9750   23.3580 C   0  0  0  0  0  3  0  0  0  0  0  0
  -20.6300   -6.2340   24.5030 C   0  0  0  0  0  3  0  0  0  0  0  0
  -20.9870   -4.8760   24.6020 C   0  0  0  0  0  0  0  0  0  0  0  0
  -21.7010   -4.2590   23.5600 C   0  0  0  0  0  3  0  0  0  0  0  0
  -22.0550   -4.9980   22.4190 C   0  0  0  0  0  0  0  0  0  0  0  0
  -22.7250   -4.3930   21.4090 F   0  0  0  0  0  0  0  0  0  0  0  0
  -20.6410   -4.1600   25.6980 F   0  0  0  0  0  0  0  0  0  0  0  0
  -23.0610  -13.6550   21.0570 C   0  0  0  0  0  0  0  0  0  0  0  0
  -22.2620  -12.9520   21.8510 N   0  0  0  0  0  0  0  0  0  0  0  0
  -22.6700  -14.6840   20.5070 O   0  0  0  0  0  0  0  0  0  0  0  0
  -22.5900  -12.1180   22.3150 H   0  0  0  0  0  0  0  0  0  0  0  0
  -21.3090  -13.2540   21.9960 H   0  0  0  0  0  0  0  0  0  0  0  0
  -25.6990  -15.3320   20.5120 N   0  0  0  0  0  0  0  0  0  0  0  0
  -24.8960  -15.9480   20.5340 H   0  0  0  0  0  0  0  0  0  0  0  0
  -26.5390  -15.8080   20.2000 H   0  0  0  0  0  0  0  0  0  0  0  0
  1  2  1  0
  1 45  2  0
  3  4  1  0
  3  2  2  0
  5 16  2  0
  6  4  1  0
  6 11  1  0
  7 15  1  0
  7 17  1  0
  8 14  1  0
  8 10  1  0
  9 15  1  0
 10 11  2  0
 10  9  1  0
 12  6  2  0
 13 12  1  0
 13  8  2  0
 14  7  1  0
 15  5  1  0
 17 19  2  0
 18 17  1  0
 20 18  1  0
 21 30  2  0
 21 26  1  0
 22 18  1  0
 22 26  1  0
 23 22  1  0
 24 25  1  0
 24 23  1  0
 25 21  1  0
 26 27  2  0
 27 28  1  0
 29 28  2  0
 30 29  1  0
 31  5  1  0
 31 36  1  0
 31 32  1  0
 32 35  1  1
 32 33  1  0
 34 32  1  0
 36 39  1  0
 37 41  1  0
 37 36  1  0
 38 37  2  0
 41 40  1  0
 43 41  1  0
 43 44  1  0
 43 42  1  0
 46 53  2  0
 47 52  1  0
 48 49  1  0
 48 47  1  0
 50 49  1  0
 50 64  1  0
 50 51  1  0
 52 46  1  0
 52 51  1  0
 54 45  1  0
 54 46  1  0
 55 57  1  0
 56 58  1  0
 56 55  2  0
 57 59  2  0
 58 60  2  0
 60 54  1  0
 60 59  1  0
 61 62  2  0
 62 81  1  0
 63 62  1  0
 63 66  1  0
 64 61  1  0
 64 65  1  0
 65 63  2  0
 66 67  1  0
 67 68  2  0
 69 68  1  0
 70 69  2  0
 71 70  1  0
 71 66  2  0
 72 69  1  0
 72 73  1  0
 73 78  2  0
 73 74  1  0
 74 75  2  0
 75 76  1  0
 76 80  1  0
 77 76  2  0
 78 77  1  0
 79 78  1  0
 81 82  1  0
 82 85  1  0
 82 84  1  0
 83 81  2  0
 86 87  1  0
 86 61  1  0
 88 86  1  0
M  ISO  4   3 101   4 101  46 100  54 100
M  END
>  <TORSDO>  (78) 
F 20

>  <SCORE>  (78) 
-12.832

>  <name>  (78) 
78

>  <ligand_id>  (78) 
78

>  <original_smiles>  (78) 
[H]c1c([H])c([H])c(N(C(=O)N2C([H])([H])C([H])([H])C([H])([H])C([H])(n3nc(-c4c([H])c([H])c(Oc5c([H])c([H])c(F)c([H])c5F)c([H])c4[H])c(C(=O)N([H])[H])c3N([H])[H])C2([H])[H])C([H])([H])C([H])([H])C([H])([H])C([H])([H])Oc2c([H])c([H])c3c(c2[H])C([H])([H])N(C(=O)C([H])(N([H])C(=O)C([H])(N([H])C([H])([H])[H])C([H])([H])[H])C(C([H])([H])[H])(C([H])([H])[H])C([H])([H])[H])C([H])(C(=O)N([H])C2([H])c4c([H])c([H])c([H])c([H])c4C([H])([H])C([H])([H])C2([H])[H])C3([H])[H])c([H])c1[H]

>  <smiles>  (78) 
[H]c1c([H])c([H])c(N(C(=O)N2C([H])([H])C([H])([H])C([H])([H])C([H])(n3nc(-c4c([H])c([H])c(Oc5c([H])c([H])c(F)c([H])c5F)c([H])c4[H])c(C(=O)N([H])[H])c3N([H])[H])C2([H])[H])C([H])([H])C([H])([H])C([H])([H])C([H])([H])Oc2c([H])c([H])c3c(c2[H])C([H])([H])N(C(=O)C([H])(N([H])C(=O)C([H])(N([H])C([H])([H])[H])C([H])([H])[H])C(C([H])([H])[H])(C([H])([H])[H])C([H])([H])[H])C([H])(C(=O)N([H])C2([H])c4c([H])c([H])c([H])c([H])c4C([H])([H])C([H])([H])C2([H])[H])C3([H])[H])c([H])c1[H]

$$$$
79:0:0
     RDKit          3D

 96103  0  0  1  0  0  0  0  0999 V2000
  -27.9800  -21.0820   21.7460 C   0  0  0  0  0  1  0  0  0  0  0  0
  -29.5250  -21.0920   21.6640 C   0  0  0  0  0  3  0  0  0  0  0  0
  -30.0610  -22.4900   21.6770 N   0  0  0  0  0  4  0  0  0  0  0  0
  -29.7260  -22.9180   22.5280 H   0  0  0  0  0  0  0  0  0  0  0  0
  -31.0630  -22.4290   21.7760 H   0  0  0  0  0  0  0  0  0  0  0  0
  -29.7150  -23.4080   20.5510 C   0  0  0  0  0  2  0  0  0  0  0  0
  -29.4470  -24.8910   20.9340 C   0  0  0  0  0  2  0  0  0  0  0  0
  -29.0320  -25.7190   19.6830 C   0  0  0  0  0  2  0  0  0  0  0  0
  -28.8120  -27.1140   19.9470 O   0  0  0  0  0  0  0  0  0  0  0  0
  -24.5880  -31.6620   23.3550 C   0  0  0  0  0  0  0  0  0  0  0  0
  -27.5500  -27.6910   19.9330 C   0  0  0  0  0  0  0  0  0  0  0  0
  -23.4850  -30.3360   21.5810 C   0  0  0  0  0  3  0  0  0  0  0  0
  -25.0450  -29.0360   20.0390 C   0  0  0  0  0  0  0  0  0  0  0  0
  -25.9810  -30.8820   21.4440 C   0  0  0  0  0  2  0  0  0  0  0  0
  -26.1650  -29.5860   20.6770 C   0  0  0  0  0  0  0  0  0  0  0  0
  -27.4140  -28.9260   20.6060 C   0  0  0  0  0  3  0  0  0  0  0  0
  -26.4100  -27.1660   19.2730 C   0  0  0  0  0  3  0  0  0  0  0  0
  -25.1700  -27.8340   19.3280 C   0  0  0  0  0  3  0  0  0  0  0  0
  -23.7400  -29.7990   20.1480 C   0  0  0  0  0  2  0  0  0  0  0  0
  -24.7010  -30.9690   22.1860 N   0  0  0  0  0  0  0  0  0  0  0  0
  -23.4880  -31.8190   23.9040 O   0  0  0  0  0  0  0  0  0  0  0  0
  -22.9030  -29.1910   22.4370 C   0  0  0  0  0  0  0  0  0  0  0  0
  -21.6050  -28.9040   22.2450 N   0  0  0  0  0  0  0  0  0  0  0  0
  -23.6130  -28.5700   23.2320 O   0  0  0  0  0  0  0  0  0  0  0  0
  -21.0960  -29.4710   21.5820 H   0  0  0  0  0  0  0  0  0  0  0  0
  -18.3410  -27.3750   22.4730 C   0  0  0  0  0  0  0  0  0  0  0  0
  -20.8500  -27.8390   22.9030 C   0  0  0  0  0  3  0  0  0  0  0  0
  -21.1140  -26.4700   22.2350 C   0  0  0  0  0  2  0  0  0  0  0  0
  -20.0950  -26.1220   21.1440 C   0  0  0  0  0  2  0  0  0  0  0  0
  -18.6770  -26.0990   21.7220 C   0  0  0  0  0  2  0  0  0  0  0  0
  -19.3630  -28.2020   23.0130 C   0  0  0  0  0  0  0  0  0  0  0  0
  -18.9990  -29.3990   23.6680 C   0  0  0  0  0  3  0  0  0  0  0  0
  -17.6470  -29.7700   23.7930 C   0  0  0  0  0  3  0  0  0  0  0  0
  -16.6390  -28.9370   23.2780 C   0  0  0  0  0  3  0  0  0  0  0  0
  -16.9870  -27.7420   22.6230 C   0  0  0  0  0  3  0  0  0  0  0  0
  -25.8280  -32.3170   24.0390 C   0  0  0  0  0  3  0  0  0  0  0  0
  -26.3000  -31.5480   25.3330 C   0  0  1  0  0  0  0  0  0  0  0  0
  -25.1540  -31.2360   26.3260 C   0  0  0  0  0  1  0  0  0  0  0  0
  -26.9730  -30.2090   24.9530 C   0  0  0  0  0  1  0  0  0  0  0  0
  -27.3700  -32.3830   26.0760 C   0  0  0  0  0  1  0  0  0  0  0  0
  -25.4760  -33.7070   24.3610 N   0  0  0  0  0  0  0  0  0  0  0  0
  -25.8430  -34.7710   23.6340 C   0  0  0  0  0  0  0  0  0  0  0  0
  -26.5800  -34.6850   22.6480 O   0  0  0  0  0  0  0  0  0  0  0  0
  -24.8300  -33.8450   25.1220 H   0  0  0  0  0  0  0  0  0  0  0  0
  -24.1060  -36.5290   23.1780 C   0  0  0  0  0  1  0  0  0  0  0  0
  -25.3000  -36.1470   24.0690 C   0  0  0  0  0  3  0  0  0  0  0  0
  -27.3620  -37.0550   25.0350 C   0  0  0  0  0  1  0  0  0  0  0  0
  -26.3190  -37.2170   24.0270 N   0  0  0  0  0  0  0  0  0  0  0  0
  -25.8930  -38.1290   24.1600 H   0  0  0  0  0  0  0  0  0  0  0  0
  -30.1150  -20.0600   20.6030 C   0  0  0  0  0  3  0  0  0  0  0  0
  -30.4270  -20.9310   18.1800 C   0  0  0  0  0  1  0  0  0  0  0  0
  -31.1090  -20.6070   19.5310 C   0  0  0  0  0  2  0  0  0  0  0  0
  -30.5970  -18.7340   21.3110 C   0  0  0  0  0  2  0  0  0  0  0  0
  -31.2910  -17.5480   20.4950 C   0  0  0  0  0  3  0  0  0  0  0  0
  -31.9330  -15.0800   20.6700 C   0  0  0  0  0  0  0  0  0  0  0  0
  -31.6070  -12.9630   19.3770 C   0  0  0  0  0  2  0  0  0  0  0  0
  -30.7290  -13.1790   18.1190 C   0  0  0  0  0  2  0  0  0  0  0  0
  -29.2200  -13.2410   18.4450 C   0  0  0  0  0  2  0  0  0  0  0  0
  -28.8920  -13.9990   19.7590 C   0  0  0  0  0  3  0  0  0  0  0  0
  -29.8610  -13.6150   20.8870 C   0  0  0  0  0  2  0  0  0  0  0  0
  -31.2150  -13.9370   20.4170 N   0  0  0  0  0  0  0  0  0  0  0  0
  -33.0810  -15.2060   20.2230 O   0  0  0  0  0  0  0  0  0  0  0  0
  -30.8600  -16.2000   22.5750 C   0  0  0  0  0  1  0  0  0  0  0  0
  -31.2390  -16.1760   21.1490 N   0  0  0  0  0  0  0  0  0  0  0  0
  -26.5120  -14.7450   20.3410 C   0  0  0  0  0  0  0  0  0  0  0  0
  -25.3820  -14.0350   20.6700 C   0  0  0  0  0  0  0  0  0  0  0  0
  -25.7650  -12.6610   20.6640 C   0  0  0  0  0  0  0  0  0  0  0  0
  -27.5090  -13.7990   20.1680 N   0  0  0  0  0  0  0  0  0  0  0  0
  -27.0640  -12.5430   20.4190 N   0  0  0  0  0  0  0  0  0  0  0  0
  -24.9590  -11.4420   20.8190 C   0  0  0  0  0  0  0  0  0  0  0  0
  -25.2930  -10.4510   21.7680 C   0  0  0  0  0  3  0  0  0  0  0  0
  -24.5020   -9.2890   21.8990 C   0  0  0  0  0  3  0  0  0  0  0  0
  -23.3550   -9.1160   21.0890 C   0  0  0  0  0  0  0  0  0  0  0  0
  -23.0370  -10.0920   20.1310 C   0  0  0  0  0  3  0  0  0  0  0  0
  -23.8300  -11.2460   19.9970 C   0  0  0  0  0  3  0  0  0  0  0  0
  -22.5360   -8.0160   21.1450 O   0  0  0  0  0  0  0  0  0  0  0  0
  -22.2300   -7.4180   22.3390 C   0  0  0  0  0  0  0  0  0  0  0  0
  -21.6070   -8.1190   23.3970 C   0  0  0  0  0  3  0  0  0  0  0  0
  -21.2390   -7.4390   24.5750 C   0  0  0  0  0  3  0  0  0  0  0  0
  -21.4830   -6.0560   24.6960 C   0  0  0  0  0  0  0  0  0  0  0  0
  -22.1040   -5.3560   23.6450 C   0  0  0  0  0  3  0  0  0  0  0  0
  -22.4710   -6.0360   22.4700 C   0  0  0  0  0  0  0  0  0  0  0  0
  -23.0470   -5.3520   21.4550 F   0  0  0  0  0  0  0  0  0  0  0  0
  -21.1330   -5.3970   25.8260 F   0  0  0  0  0  0  0  0  0  0  0  0
  -24.0080  -14.5950   20.8740 C   0  0  0  0  0  0  0  0  0  0  0  0
  -23.2160  -13.9700   21.7430 N   0  0  0  0  0  0  0  0  0  0  0  0
  -23.6390  -15.6100   20.2900 O   0  0  0  0  0  0  0  0  0  0  0  0
  -23.5150  -13.1320   22.2170 H   0  0  0  0  0  0  0  0  0  0  0  0
  -22.2880  -14.3250   21.9150 H   0  0  0  0  0  0  0  0  0  0  0  0
  -26.7670  -16.0940   20.1440 N   0  0  0  0  0  0  0  0  0  0  0  0
  -26.0300  -16.7850   20.1760 H   0  0  0  0  0  0  0  0  0  0  0  0
  -27.6330  -16.4560   19.7700 H   0  0  0  0  0  0  0  0  0  0  0  0
  -30.7640  -17.4840   19.0290 C   0  0  0  0  0  2  0  0  0  0  0  0
  -31.1770  -16.7520   16.5920 C   0  0  0  0  0  1  0  0  0  0  0  0
  -32.8510  -18.2660   17.7560 C   0  0  0  0  0  1  0  0  0  0  0  0
  -31.8130  -17.1450   17.9450 C   0  0  0  0  0  3  0  0  0  0  0  0
  2  3  1  0
  2  1  1  0
  3  5  1  0
  3  4  1  0
  6  7  1  0
  6  3  1  0
  8  9  1  0
  8  7  1  0
 10 21  2  0
 11  9  1  0
 11 16  1  0
 12 20  1  0
 12 22  1  0
 13 19  1  0
 13 15  1  0
 14 20  1  0
 15 14  1  0
 16 15  2  0
 17 18  1  0
 17 11  2  0
 18 13  2  0
 19 12  1  0
 20 10  1  0
 22 24  2  0
 23 22  1  0
 25 23  1  0
 26 35  2  0
 26 31  1  0
 27 23  1  0
 27 31  1  0
 28 27  1  0
 29 30  1  0
 29 28  1  0
 30 26  1  0
 31 32  2  0
 32 33  1  0
 34 33  2  0
 35 34  1  0
 36 10  1  0
 36 41  1  0
 36 37  1  0
 37 40  1  1
 37 38  1  0
 39 37  1  0
 41 44  1  0
 42 46  1  0
 42 41  1  0
 43 42  2  0
 46 45  1  0
 48 46  1  0
 48 49  1  0
 48 47  1  0
 50 52  1  0
 50 53  1  0
 50  2  1  0
 51 52  1  0
 54 93  1  0
 54 64  1  0
 54 53  1  0
 55 64  1  0
 56 61  1  0
 57 58  1  0
 57 56  1  0
 59 58  1  0
 59 68  1  0
 59 60  1  0
 61 55  1  0
 61 60  1  0
 62 55  2  0
 64 63  1  0
 65 66  2  0
 66 85  1  0
 67 66  1  0
 67 70  1  0
 68 65  1  0
 68 69  1  0
 69 67  2  0
 70 71  1  0
 71 72  2  0
 73 76  1  0
 73 72  1  0
 74 73  2  0
 75 74  1  0
 75 70  2  0
 76 77  1  0
 77 82  2  0
 77 78  1  0
 78 79  2  0
 79 80  1  0
 80 84  1  0
 81 80  2  0
 82 81  1  0
 83 82  1  0
 85 86  1  0
 86 89  1  0
 86 88  1  0
 87 85  2  0
 90 91  1  0
 90 65  1  0
 92 90  1  0
 94 96  1  0
 95 96  1  0
 96 93  1  0
M  ISO  4   8 101   9 101  55 100  64 100
M  END
>  <TORSDO>  (79) 
F 26

>  <SCORE>  (79) 
-8.729

>  <name>  (79) 
79

>  <ligand_id>  (79) 
79

>  <original_smiles>  (79) 
[H]c1c([H])c([H])c2c(c1[H])C([H])([H])C([H])([H])C([H])([H])C2([H])N([H])C(=O)C1([H])N(C(=O)C([H])(N([H])C(=O)C([H])(N([H])C([H])([H])[H])C([H])([H])[H])C(C([H])([H])[H])(C([H])([H])[H])C([H])([H])[H])C([H])([H])c2c([H])c(OC([H])([H])C([H])([H])C([H])([H])[N+]([H])([H])C([H])(C([H])([H])[H])C([H])(C([H])([H])C([H])([H])[H])C([H])([H])C([H])(N(C(=O)N3C([H])([H])C([H])([H])C([H])([H])C([H])(n4nc(-c5c([H])c([H])c(Oc6c([H])c([H])c(F)c([H])c6F)c([H])c5[H])c(C(=O)N([H])[H])c4N([H])[H])C3([H])[H])C([H])([H])[H])C([H])([H])C([H])(C([H])([H])[H])C([H])([H])[H])c([H])c([H])c2C1([H])[H]

>  <smiles>  (79) 
[H]c1c([H])c([H])c2c(c1[H])C([H])([H])C([H])([H])C([H])([H])C2([H])N([H])C(=O)C1([H])N(C(=O)C([H])(N([H])C(=O)C([H])(N([H])C([H])([H])[H])C([H])([H])[H])C(C([H])([H])[H])(C([H])([H])[H])C([H])([H])[H])C([H])([H])c2c([H])c(OC([H])([H])C([H])([H])C([H])([H])[N+]([H])([H])C([H])(C([H])([H])[H])C([H])(C([H])([H])C([H])([H])[H])C([H])([H])C([H])(N(C(=O)N3C([H])([H])C([H])([H])C([H])([H])C([H])(n4nc(-c5c([H])c([H])c(Oc6c([H])c([H])c(F)c([H])c6F)c([H])c5[H])c(C(=O)N([H])[H])c4N([H])[H])C3([H])[H])C([H])([H])[H])C([H])([H])C([H])(C([H])([H])[H])C([H])([H])[H])c([H])c([H])c2C1([H])[H]

$$$$
80:0:0
     RDKit          3D

 95102  0  0  1  0  0  0  0  0999 V2000
  -29.4970  -22.6860   22.1250 N   0  0  0  0  0  0  0  0  0  0  0  0
  -28.5210  -23.4410   21.3290 C   0  0  0  0  0  2  0  0  0  0  0  0
  -29.1600  -24.3820   20.2790 C   0  0  0  0  0  2  0  0  0  0  0  0
  -28.0720  -25.1100   19.4590 C   0  0  0  0  0  2  0  0  0  0  0  0
  -28.1900  -26.5440   19.4950 O   0  0  0  0  0  0  0  0  0  0  0  0
  -24.6130  -31.5760   23.0270 C   0  0  0  0  0  0  0  0  0  0  0  0
  -27.0250  -27.2890   19.5540 C   0  0  0  0  0  0  0  0  0  0  0  0
  -23.3020  -30.2820   21.3800 C   0  0  0  0  0  3  0  0  0  0  0  0
  -24.6540  -28.8250   19.7850 C   0  0  0  0  0  0  0  0  0  0  0  0
  -25.8190  -30.6250   21.0650 C   0  0  0  0  0  2  0  0  0  0  0  0
  -25.8500  -29.2950   20.3430 C   0  0  0  0  0  0  0  0  0  0  0  0
  -27.0350  -28.5320   20.2290 C   0  0  0  0  0  3  0  0  0  0  0  0
  -25.8120  -26.8590   18.9610 C   0  0  0  0  0  3  0  0  0  0  0  0
  -24.6310  -27.6060   19.0930 C   0  0  0  0  0  3  0  0  0  0  0  0
  -23.4250  -29.6870   19.9520 C   0  0  0  0  0  2  0  0  0  0  0  0
  -24.5990  -30.8390   21.8810 N   0  0  0  0  0  0  0  0  0  0  0  0
  -23.5660  -31.8270   23.6400 O   0  0  0  0  0  0  0  0  0  0  0  0
  -22.6940  -29.2080   22.3120 C   0  0  0  0  0  0  0  0  0  0  0  0
  -21.3700  -29.0070   22.2110 N   0  0  0  0  0  0  0  0  0  0  0  0
  -23.4090  -28.5630   23.0840 O   0  0  0  0  0  0  0  0  0  0  0  0
  -20.8520  -29.5810   21.5590 H   0  0  0  0  0  0  0  0  0  0  0  0
  -18.0420  -27.6860   22.6880 C   0  0  0  0  0  0  0  0  0  0  0  0
  -20.5890  -28.0260   22.9630 C   0  0  0  0  0  3  0  0  0  0  0  0
  -20.7400  -26.6110   22.3590 C   0  0  0  0  0  2  0  0  0  0  0  0
  -19.6490  -26.2710   21.3380 C   0  0  0  0  0  2  0  0  0  0  0  0
  -18.2640  -26.3570   21.9860 C   0  0  0  0  0  2  0  0  0  0  0  0
  -19.1340  -28.4780   23.1320 C   0  0  0  0  0  0  0  0  0  0  0  0
  -18.8730  -29.7210   23.7470 C   0  0  0  0  0  3  0  0  0  0  0  0
  -17.5520  -30.1760   23.9210 C   0  0  0  0  0  3  0  0  0  0  0  0
  -16.4740  -29.3810   23.4950 C   0  0  0  0  0  3  0  0  0  0  0  0
  -16.7200  -28.1370   22.8850 C   0  0  0  0  0  3  0  0  0  0  0  0
  -25.9400  -32.1590   23.6070 C   0  0  0  0  0  3  0  0  0  0  0  0
  -25.6560  -33.5230   24.0730 N   0  0  0  0  0  0  0  0  0  0  0  0
  -25.9440  -34.6350   23.3840 C   0  0  0  0  0  0  0  0  0  0  0  0
  -26.5500  -34.6210   22.3100 O   0  0  0  0  0  0  0  0  0  0  0  0
  -25.1110  -33.6080   24.9190 H   0  0  0  0  0  0  0  0  0  0  0  0
  -24.1950  -36.4390   23.2900 C   0  0  0  0  0  1  0  0  0  0  0  0
  -25.4860  -35.9780   23.9850 C   0  0  0  0  0  3  0  0  0  0  0  0
  -27.6690  -36.8030   24.7460 C   0  0  0  0  0  1  0  0  0  0  0  0
  -26.5080  -37.0450   23.8940 N   0  0  0  0  0  0  0  0  0  0  0  0
  -26.1110  -37.9450   24.1480 H   0  0  0  0  0  0  0  0  0  0  0  0
  -26.5450  -31.2850   24.7720 C   0  0  1  0  0  0  0  0  0  0  0  0
  -25.5310  -30.9550   25.8920 C   0  0  0  0  0  1  0  0  0  0  0  0
  -27.0940  -29.9480   24.2240 C   0  0  0  0  0  1  0  0  0  0  0  0
  -27.7430  -32.0250   25.4150 C   0  0  0  0  0  1  0  0  0  0  0  0
  -29.6320  -21.3310   21.5620 C   0  0  0  0  0  2  0  0  0  0  0  0
  -32.1450  -21.5470   21.8740 C   0  0  0  0  0  1  0  0  0  0  0  0
  -30.9370  -20.6020   21.9940 C   0  0  0  0  0  3  0  0  0  0  0  0
  -31.1740  -19.3760   21.1910 N   0  0  0  0  0  4  0  0  0  0  0  0
  -30.9870  -19.5710   20.2210 H   0  0  0  0  0  0  0  0  0  0  0  0
  -32.1570  -19.1660   21.2670 H   0  0  0  0  0  0  0  0  0  0  0  0
  -30.4430  -18.1520   21.6060 C   0  0  0  0  0  2  0  0  0  0  0  0
  -30.9990  -16.9050   20.8820 C   0  0  0  0  0  2  0  0  0  0  0  0
  -30.2810  -15.5660   21.2010 C   0  0  0  0  0  2  0  0  0  0  0  0
  -30.8800  -14.3730   20.4240 C   0  0  0  0  0  0  0  0  0  0  0  0
  -30.5560  -12.1830   19.3280 C   0  0  0  0  0  2  0  0  0  0  0  0
  -29.5990  -12.3340   18.1300 C   0  0  0  0  0  2  0  0  0  0  0  0
  -28.1330  -12.2030   18.5860 C   0  0  0  0  0  2  0  0  0  0  0  0
  -27.8060  -13.0940   19.8140 C   0  0  0  0  0  3  0  0  0  0  0  0
  -28.8770  -12.9340   20.9180 C   0  0  0  0  0  2  0  0  0  0  0  0
  -30.1940  -13.2040   20.3230 N   0  0  0  0  0  0  0  0  0  0  0  0
  -31.9560  -14.5460   19.8440 O   0  0  0  0  0  0  0  0  0  0  0  0
  -25.4270  -13.7180   20.5770 C   0  0  0  0  0  0  0  0  0  0  0  0
  -24.3600  -12.9520   20.9630 C   0  0  0  0  0  0  0  0  0  0  0  0
  -24.8090  -11.5970   20.9140 C   0  0  0  0  0  0  0  0  0  0  0  0
  -26.4610  -12.8300   20.3200 N   0  0  0  0  0  0  0  0  0  0  0  0
  -26.0920  -11.5490   20.5790 N   0  0  0  0  0  0  0  0  0  0  0  0
  -24.0770  -10.3380   21.1130 C   0  0  0  0  0  0  0  0  0  0  0  0
  -24.5130   -9.3680   22.0420 C   0  0  0  0  0  3  0  0  0  0  0  0
  -23.7820   -8.1760   22.2270 C   0  0  0  0  0  3  0  0  0  0  0  0
  -22.5990   -7.9440   21.4850 C   0  0  0  0  0  0  0  0  0  0  0  0
  -22.1820   -8.9030   20.5440 C   0  0  0  0  0  3  0  0  0  0  0  0
  -22.9140  -10.0890   20.3570 C   0  0  0  0  0  3  0  0  0  0  0  0
  -21.8400   -6.8040   21.5800 O   0  0  0  0  0  0  0  0  0  0  0  0
  -21.7950   -6.0630   22.7330 C   0  0  0  0  0  0  0  0  0  0  0  0
  -21.3810   -6.6210   23.9620 C   0  0  0  0  0  3  0  0  0  0  0  0
  -21.2840   -5.8060   25.1090 C   0  0  0  0  0  3  0  0  0  0  0  0
  -21.5900   -4.4350   25.0270 C   0  0  0  0  0  0  0  0  0  0  0  0
  -21.9980   -3.8770   23.8020 C   0  0  0  0  0  3  0  0  0  0  0  0
  -22.0970   -4.6880   22.6580 C   0  0  0  0  0  0  0  0  0  0  0  0
  -22.4690   -4.1400   21.4760 F   0  0  0  0  0  0  0  0  0  0  0  0
  -21.4900   -3.6500   26.1250 F   0  0  0  0  0  0  0  0  0  0  0  0
  -22.9730  -13.4380   21.2700 C   0  0  0  0  0  0  0  0  0  0  0  0
  -22.2620  -12.7440   22.1520 N   0  0  0  0  0  0  0  0  0  0  0  0
  -22.5300  -14.4680   20.7640 O   0  0  0  0  0  0  0  0  0  0  0  0
  -22.6330  -11.9090   22.5810 H   0  0  0  0  0  0  0  0  0  0  0  0
  -21.3310  -13.0510   22.3980 H   0  0  0  0  0  0  0  0  0  0  0  0
  -25.6000  -15.0870   20.4020 N   0  0  0  0  0  0  0  0  0  0  0  0
  -24.8410  -15.7500   20.5270 H   0  0  0  0  0  0  0  0  0  0  0  0
  -26.4500  -15.5180   20.0600 H   0  0  0  0  0  0  0  0  0  0  0  0
  -29.0400  -22.6150   23.5250 C   0  0  0  0  0  2  0  0  0  0  0  0
  -28.4670  -24.7620   24.7820 C   0  0  0  0  0  1  0  0  0  0  0  0
  -29.9910  -23.0890   25.8070 C   0  0  0  0  0  1  0  0  0  0  0  0
  -30.8120  -24.4800   23.9100 C   0  0  0  0  0  1  0  0  0  0  0  0
  -29.5790  -23.7390   24.4700 C   0  0  1  0  0  0  0  0  0  0  0  0
  1 91  1  0
  2  1  1  0
  3  2  1  0
  4  5  1  0
  4  3  1  0
  5  7  1  0
  6 17  2  0
  7 12  1  0
  8 16  1  0
  8 18  1  0
  9 15  1  0
  9 11  1  0
 10 16  1  0
 11 10  1  0
 12 11  2  0
 13 14  1  0
 13  7  2  0
 14  9  2  0
 15  8  1  0
 16  6  1  0
 18 20  2  0
 19 18  1  0
 21 19  1  0
 22 31  2  0
 22 27  1  0
 23 19  1  0
 23 27  1  0
 24 23  1  0
 25 26  1  0
 25 24  1  0
 26 22  1  0
 27 28  2  0
 28 29  1  0
 30 29  2  0
 31 30  1  0
 32  6  1  0
 32 33  1  0
 32 42  1  0
 33 36  1  0
 34 38  1  0
 34 33  1  0
 35 34  2  0
 38 37  1  0
 40 38  1  0
 40 41  1  0
 40 39  1  0
 42 45  1  1
 42 43  1  0
 44 42  1  0
 46 48  1  0
 46  1  1  0
 48 47  1  0
 49 51  1  0
 49 52  1  0
 49 48  1  0
 50 49  1  0
 53 54  1  0
 53 52  1  0
 55 54  1  0
 56 61  1  0
 57 58  1  0
 57 56  1  0
 59 58  1  0
 59 66  1  0
 59 60  1  0
 61 55  1  0
 61 60  1  0
 62 55  2  0
 63 64  2  0
 64 83  1  0
 65 64  1  0
 65 68  1  0
 66 63  1  0
 66 67  1  0
 67 65  2  0
 68 69  1  0
 69 70  2  0
 71 74  1  0
 71 70  1  0
 72 71  2  0
 73 72  1  0
 73 68  2  0
 74 75  1  0
 75 76  1  0
 76 77  2  0
 78 77  1  0
 78 82  1  0
 79 78  2  0
 80 75  2  0
 80 79  1  0
 81 80  1  0
 83 84  1  0
 84 87  1  0
 84 86  1  0
 85 83  2  0
 88 89  1  0
 88 63  1  0
 90 88  1  0
 91 95  1  0
 95 94  1  6
 95 92  1  0
 95 93  1  0
M  ISO  4   4 101   5 101  54 100  55 100
M  END
>  <TORSDO>  (80) 
F 27

>  <SCORE>  (80) 
-5.590

>  <name>  (80) 
80

>  <ligand_id>  (80) 
80

>  <original_smiles>  (80) 
[H]c1c([H])c([H])c2c(c1[H])C([H])([H])C([H])([H])C([H])([H])C2([H])N([H])C(=O)C1([H])N(C(=O)C([H])(N([H])C(=O)C([H])(N([H])C([H])([H])[H])C([H])([H])[H])C(C([H])([H])[H])(C([H])([H])[H])C([H])([H])[H])C([H])([H])c2c([H])c(OC([H])([H])C([H])([H])C([H])([H])N(C([H])([H])C(C([H])([H])[H])(C([H])([H])[H])C([H])([H])[H])C([H])([H])C([H])(C([H])([H])[H])[N+]([H])([H])C([H])([H])C([H])([H])C([H])([H])C(=O)N3C([H])([H])C([H])([H])C([H])([H])C([H])(n4nc(-c5c([H])c([H])c(Oc6c([H])c([H])c(F)c([H])c6F)c([H])c5[H])c(C(=O)N([H])[H])c4N([H])[H])C3([H])[H])c([H])c([H])c2C1([H])[H]

>  <smiles>  (80) 
[H]c1c([H])c([H])c2c(c1[H])C([H])([H])C([H])([H])C([H])([H])C2([H])N([H])C(=O)C1([H])N(C(=O)C([H])(N([H])C(=O)C([H])(N([H])C([H])([H])[H])C([H])([H])[H])C(C([H])([H])[H])(C([H])([H])[H])C([H])([H])[H])C([H])([H])c2c([H])c(OC([H])([H])C([H])([H])C([H])([H])N(C([H])([H])C(C([H])([H])[H])(C([H])([H])[H])C([H])([H])[H])C([H])([H])C([H])(C([H])([H])[H])[N+]([H])([H])C([H])([H])C([H])([H])C([H])([H])C(=O)N3C([H])([H])C([H])([H])C([H])([H])C([H])(n4nc(-c5c([H])c([H])c(Oc6c([H])c([H])c(F)c([H])c6F)c([H])c5[H])c(C(=O)N([H])[H])c4N([H])[H])C3([H])[H])c([H])c([H])c2C1([H])[H]

$$$$
81:0:0
     RDKit          3D

 89 96  0  0  1  0  0  0  0  0999 V2000
  -27.2830  -21.0520   20.5380 C   0  0  0  0  0  1  0  0  0  0  0  0
  -28.7160  -21.2170   20.0070 C   0  0  0  0  0  3  0  0  0  0  0  0
  -30.9910  -20.3060   20.6490 C   0  0  0  0  0  1  0  0  0  0  0  0
  -29.5960  -19.8680   20.4200 N   0  0  2  0  0  4  0  0  0  0  0  0
  -29.2560  -19.6730   21.3510 H   0  0  0  0  0  0  0  0  0  0  0  0
  -29.6130  -18.3390   19.7470 C   0  0  0  0  0  3  0  0  0  0  0  0
  -27.9140  -18.6300   17.7650 C   0  0  0  0  0  1  0  0  0  0  0  0
  -28.2530  -17.9560   19.1050 C   0  0  0  0  0  2  0  0  0  0  0  0
  -29.4700  -16.6790   21.8650 C   0  0  0  0  0  1  0  0  0  0  0  0
  -30.1880  -16.8430   20.5190 C   0  0  0  0  0  3  0  0  0  0  0  0
  -30.7040  -15.2800   19.9300 C   0  0  0  0  0  0  0  0  0  0  0  0
  -30.5370  -12.8680   19.0050 C   0  0  0  0  0  2  0  0  0  0  0  0
  -29.5560  -12.7710   17.8090 C   0  0  0  0  0  2  0  0  0  0  0  0
  -28.1220  -12.5230   18.3070 C   0  0  0  0  0  2  0  0  0  0  0  0
  -27.7640  -13.4490   19.4940 C   0  0  0  0  0  3  0  0  0  0  0  0
  -28.8680  -13.5130   20.5670 C   0  0  0  0  0  2  0  0  0  0  0  0
  -30.0980  -13.9920   19.9140 N   0  0  0  0  0  0  0  0  0  0  0  0
  -31.8490  -15.2420   19.4560 O   0  0  0  0  0  0  0  0  0  0  0  0
  -25.4470  -14.0240   20.3880 C   0  0  0  0  0  0  0  0  0  0  0  0
  -24.3980  -13.2540   20.8070 C   0  0  0  0  0  0  0  0  0  0  0  0
  -24.8410  -11.8980   20.7190 C   0  0  0  0  0  0  0  0  0  0  0  0
  -26.4580  -13.1410   20.0630 N   0  0  0  0  0  0  0  0  0  0  0  0
  -26.1120  -11.8530   20.3300 N   0  0  0  0  0  0  0  0  0  0  0  0
  -24.1070  -10.6430   20.9260 C   0  0  0  0  0  0  0  0  0  0  0  0
  -24.5450   -9.6780   21.8590 C   0  0  0  0  0  3  0  0  0  0  0  0
  -23.8120   -8.4880   22.0570 C   0  0  0  0  0  3  0  0  0  0  0  0
  -22.6250   -8.2560   21.3220 C   0  0  0  0  0  0  0  0  0  0  0  0
  -22.2030   -9.2100   20.3810 C   0  0  0  0  0  3  0  0  0  0  0  0
  -22.9370  -10.3920   20.1820 C   0  0  0  0  0  3  0  0  0  0  0  0
  -21.8630   -7.1180   21.4310 O   0  0  0  0  0  0  0  0  0  0  0  0
  -21.7790   -6.4140   22.6050 C   0  0  0  0  0  0  0  0  0  0  0  0
  -21.3310   -7.0130   23.8020 C   0  0  0  0  0  3  0  0  0  0  0  0
  -21.1980   -6.2370   24.9710 C   0  0  0  0  0  3  0  0  0  0  0  0
  -21.4970   -4.8610   24.9430 C   0  0  0  0  0  0  0  0  0  0  0  0
  -21.9310   -4.2610   23.7480 C   0  0  0  0  0  3  0  0  0  0  0  0
  -22.0700   -5.0340   22.5830 C   0  0  0  0  0  0  0  0  0  0  0  0
  -22.4720   -4.4470   21.4300 F   0  0  0  0  0  0  0  0  0  0  0  0
  -21.3560   -4.1120   26.0620 F   0  0  0  0  0  0  0  0  0  0  0  0
  -23.0260  -13.7440   21.1670 C   0  0  0  0  0  0  0  0  0  0  0  0
  -22.3410  -13.0500   22.0670 N   0  0  0  0  0  0  0  0  0  0  0  0
  -22.5720  -14.7790   20.6800 O   0  0  0  0  0  0  0  0  0  0  0  0
  -22.7160  -12.2140   22.4920 H   0  0  0  0  0  0  0  0  0  0  0  0
  -21.4200  -13.3620   22.3390 H   0  0  0  0  0  0  0  0  0  0  0  0
  -25.6220  -15.3960   20.2310 N   0  0  0  0  0  0  0  0  0  0  0  0
  -24.8780  -16.0620   20.4090 H   0  0  0  0  0  0  0  0  0  0  0  0
  -26.4570  -15.8260   19.8580 H   0  0  0  0  0  0  0  0  0  0  0  0
  -29.0530  -22.9300   20.3400 C   0  0  0  0  0  3  0  0  0  0  0  0
  -28.0890  -24.3890   20.0160 C   0  0  0  0  0  3  0  0  0  0  0  0
  -28.3160  -25.9850   20.2180 O   0  0  0  0  0  0  0  0  0  0  0  0
  -24.7010  -31.8420   23.1910 C   0  0  0  0  0  0  0  0  0  0  0  0
  -27.2820  -27.0370   20.1450 C   0  0  0  0  0  0  0  0  0  0  0  0
  -23.5090  -30.4470   21.5500 C   0  0  0  0  0  3  0  0  0  0  0  0
  -24.9600  -28.8610   20.1190 C   0  0  0  0  0  0  0  0  0  0  0  0
  -26.0690  -30.6880   21.3920 C   0  0  0  0  0  2  0  0  0  0  0  0
  -26.1470  -29.2860   20.7320 C   0  0  0  0  0  0  0  0  0  0  0  0
  -27.3020  -28.3920   20.7250 C   0  0  0  0  0  3  0  0  0  0  0  0
  -26.0680  -26.7510   19.4830 C   0  0  0  0  0  3  0  0  0  0  0  0
  -24.9430  -27.6140   19.4730 C   0  0  0  0  0  3  0  0  0  0  0  0
  -23.7360  -29.7700   20.1710 C   0  0  0  0  0  2  0  0  0  0  0  0
  -24.7820  -31.0160   22.1000 N   0  0  0  0  0  0  0  0  0  0  0  0
  -23.6120  -32.1280   23.7150 O   0  0  0  0  0  0  0  0  0  0  0  0
  -22.8180  -29.4490   22.5140 C   0  0  0  0  0  0  0  0  0  0  0  0
  -21.4870  -29.2920   22.3980 N   0  0  0  0  0  0  0  0  0  0  0  0
  -23.4880  -28.8140   23.3320 O   0  0  0  0  0  0  0  0  0  0  0  0
  -20.9990  -29.8540   21.7140 H   0  0  0  0  0  0  0  0  0  0  0  0
  -18.1060  -28.0890   22.9240 C   0  0  0  0  0  0  0  0  0  0  0  0
  -20.6680  -28.3510   23.1680 C   0  0  0  0  0  3  0  0  0  0  0  0
  -20.7650  -26.9220   22.5850 C   0  0  0  0  0  2  0  0  0  0  0  0
  -19.6550  -26.6080   21.5770 C   0  0  0  0  0  2  0  0  0  0  0  0
  -18.2780  -26.7460   22.2320 C   0  0  0  0  0  2  0  0  0  0  0  0
  -19.2290  -28.8490   23.3490 C   0  0  0  0  0  0  0  0  0  0  0  0
  -19.0150  -30.1020   23.9600 C   0  0  0  0  0  3  0  0  0  0  0  0
  -17.7120  -30.6000   24.1470 C   0  0  0  0  0  3  0  0  0  0  0  0
  -16.6050  -29.8380   23.7370 C   0  0  0  0  0  3  0  0  0  0  0  0
  -16.8020  -28.5850   23.1310 C   0  0  0  0  0  3  0  0  0  0  0  0
  -25.9720  -32.4880   23.8240 C   0  0  0  0  0  3  0  0  0  0  0  0
  -25.6410  -33.8750   24.1940 N   0  0  0  0  0  0  0  0  0  0  0  0
  -25.9620  -34.9620   23.4760 C   0  0  0  0  0  0  0  0  0  0  0  0
  -26.6330  -34.9010   22.4430 O   0  0  0  0  0  0  0  0  0  0  0  0
  -25.0400  -33.9950   24.9950 H   0  0  0  0  0  0  0  0  0  0  0  0
  -24.2240  -36.7620   23.1890 C   0  0  0  0  0  1  0  0  0  0  0  0
  -25.4650  -36.3310   23.9860 C   0  0  0  0  0  3  0  0  0  0  0  0
  -27.5910  -37.2030   24.8530 C   0  0  0  0  0  1  0  0  0  0  0  0
  -26.4900  -37.3960   23.9130 N   0  0  0  0  0  0  0  0  0  0  0  0
  -26.0770  -38.3060   24.0970 H   0  0  0  0  0  0  0  0  0  0  0  0
  -26.5040  -31.7030   25.0860 C   0  0  1  0  0  0  0  0  0  0  0  0
  -25.4200  -31.4320   26.1580 C   0  0  0  0  0  1  0  0  0  0  0  0
  -27.0990  -30.3370   24.6750 C   0  0  0  0  0  1  0  0  0  0  0  0
  -27.6490  -32.4990   25.7560 C   0  0  0  0  0  1  0  0  0  0  0  0
  2 47  1  0
  2  4  1  0
  2  1  1  0
  4  3  1  0
  4  5  1  1
  6  8  1  0
  6  4  1  0
  6 10  1  0
  7  8  1  0
 10  9  1  0
 11 10  1  0
 12 17  1  0
 13 14  1  0
 13 12  1  0
 15 14  1  0
 15 22  1  0
 15 16  1  0
 17 11  1  0
 17 16  1  0
 18 11  2  0
 19 20  2  0
 20 39  1  0
 21 20  1  0
 21 24  1  0
 22 23  1  0
 22 19  1  0
 23 21  2  0
 24 25  1  0
 25 26  2  0
 27 30  1  0
 27 26  1  0
 28 27  2  0
 29 28  1  0
 29 24  2  0
 30 31  1  0
 31 32  1  0
 32 33  2  0
 34 33  1  0
 34 38  1  0
 35 34  2  0
 36 31  2  0
 36 35  1  0
 37 36  1  0
 39 40  1  0
 40 43  1  0
 40 42  1  0
 41 39  2  0
 44 19  1  0
 44 45  1  0
 46 44  1  0
 48 49  1  0
 48 47  2  0
 50 61  2  0
 51 49  1  0
 51 56  1  0
 52 60  1  0
 52 62  1  0
 53 59  1  0
 53 55  1  0
 54 60  1  0
 55 54  1  0
 56 55  2  0
 57 51  2  0
 58 57  1  0
 58 53  2  0
 59 52  1  0
 60 50  1  0
 62 64  2  0
 63 62  1  0
 65 63  1  0
 66 75  2  0
 66 71  1  0
 67 63  1  0
 67 71  1  0
 68 67  1  0
 69 70  1  0
 69 68  1  0
 70 66  1  0
 71 72  2  0
 72 73  1  0
 74 73  2  0
 75 74  1  0
 76 50  1  0
 76 77  1  0
 76 86  1  0
 77 80  1  0
 78 82  1  0
 78 77  1  0
 79 78  2  0
 82 81  1  0
 84 82  1  0
 84 85  1  0
 84 83  1  0
 86 89  1  1
 86 87  1  0
 88 86  1  0
M  ISO  4  10 100  11 100  48 101  49 101
M  END
>  <TORSDO>  (81) 
F 22

>  <SCORE>  (81) 
-13.785

>  <name>  (81) 
81

>  <ligand_id>  (81) 
81

>  <original_smiles>  (81) 
[H]c1c([H])c([H])c2c(c1[H])C([H])([H])C([H])([H])C([H])([H])C2([H])N([H])C(=O)C1([H])N(C(=O)C([H])(N([H])C(=O)C([H])(N([H])C([H])([H])[H])C([H])([H])[H])C(C([H])([H])[H])(C([H])([H])[H])C([H])([H])[H])C([H])([H])c2c([H])c(OC([H])([H])C([H])([H])C([H])(C([H])([H])[H])[N+]([H])(C([H])([H])[H])C([H])(C([H])([H])C([H])([H])[H])C([H])(C(=O)N3C([H])([H])C([H])([H])C([H])([H])C([H])(n4nc(-c5c([H])c([H])c(Oc6c([H])c([H])c(F)c([H])c6F)c([H])c5[H])c(C(=O)N([H])[H])c4N([H])[H])C3([H])[H])C([H])([H])[H])c([H])c([H])c2C1([H])[H]

>  <smiles>  (81) 
[H]c1c([H])c([H])c2c(c1[H])C([H])([H])C([H])([H])C([H])([H])C2([H])N([H])C(=O)C1([H])N(C(=O)C([H])(N([H])C(=O)C([H])(N([H])C([H])([H])[H])C([H])([H])[H])C(C([H])([H])[H])(C([H])([H])[H])C([H])([H])[H])C([H])([H])c2c([H])c(OC([H])([H])C([H])([H])C([H])(C([H])([H])[H])[N+]([H])(C([H])([H])[H])C([H])(C([H])([H])C([H])([H])[H])C([H])(C(=O)N3C([H])([H])C([H])([H])C([H])([H])C([H])(n4nc(-c5c([H])c([H])c(Oc6c([H])c([H])c(F)c([H])c6F)c([H])c5[H])c(C(=O)N([H])[H])c4N([H])[H])C3([H])[H])C([H])([H])[H])c([H])c([H])c2C1([H])[H]

$$$$
82:0:0
     RDKit          3D

 95102  0  0  1  0  0  0  0  0999 V2000
  -31.5470  -24.5120   18.8760 N   0  0  0  0  0  4  0  0  0  0  0  0
  -30.7660  -23.9350   19.1400 H   0  0  0  0  0  0  0  0  0  0  0  0
  -31.9480  -24.1070   18.0440 H   0  0  0  0  0  0  0  0  0  0  0  0
  -31.9020  -26.5230   17.4650 C   0  0  0  0  0  1  0  0  0  0  0  0
  -31.0390  -25.8710   18.5600 C   0  0  0  0  0  3  0  0  0  0  0  0
  -29.5520  -25.8170   18.1460 C   0  0  0  0  0  2  0  0  0  0  0  0
  -28.5940  -25.6370   19.3360 C   0  0  0  0  0  2  0  0  0  0  0  0
  -28.4110  -26.8950   19.9910 O   0  0  0  0  0  0  0  0  0  0  0  0
  -24.5170  -31.8420   23.2630 C   0  0  0  0  0  0  0  0  0  0  0  0
  -27.1920  -27.5460   19.9970 C   0  0  0  0  0  0  0  0  0  0  0  0
  -23.3130  -30.4820   21.5860 C   0  0  0  0  0  3  0  0  0  0  0  0
  -24.7700  -29.0140   20.0990 C   0  0  0  0  0  0  0  0  0  0  0  0
  -25.8320  -30.8770   21.3800 C   0  0  0  0  0  2  0  0  0  0  0  0
  -25.9250  -29.5300   20.6940 C   0  0  0  0  0  0  0  0  0  0  0  0
  -27.1320  -28.8000   20.6460 C   0  0  0  0  0  3  0  0  0  0  0  0
  -26.0080  -27.0430   19.3990 C   0  0  0  0  0  3  0  0  0  0  0  0
  -24.8050  -27.7680   19.4540 C   0  0  0  0  0  3  0  0  0  0  0  0
  -23.5170  -29.8550   20.1820 C   0  0  0  0  0  2  0  0  0  0  0  0
  -24.5730  -31.0790   22.1350 N   0  0  0  0  0  0  0  0  0  0  0  0
  -23.4380  -32.0830   23.8210 O   0  0  0  0  0  0  0  0  0  0  0  0
  -22.6840  -29.4190   22.5140 C   0  0  0  0  0  0  0  0  0  0  0  0
  -21.3730  -29.1830   22.3520 N   0  0  0  0  0  0  0  0  0  0  0  0
  -23.3750  -28.8080   23.3360 O   0  0  0  0  0  0  0  0  0  0  0  0
  -20.8760  -29.7310   21.6630 H   0  0  0  0  0  0  0  0  0  0  0  0
  -18.0520  -27.8050   22.7020 C   0  0  0  0  0  0  0  0  0  0  0  0
  -20.5770  -28.2030   23.0890 C   0  0  0  0  0  3  0  0  0  0  0  0
  -20.7830  -26.7790   22.5210 C   0  0  0  0  0  2  0  0  0  0  0  0
  -19.7470  -26.3960   21.4610 C   0  0  0  0  0  2  0  0  0  0  0  0
  -18.3320  -26.4660   22.0410 C   0  0  0  0  0  2  0  0  0  0  0  0
  -19.1070  -28.6270   23.1800 C   0  0  0  0  0  0  0  0  0  0  0  0
  -18.7940  -29.8780   23.7540 C   0  0  0  0  0  3  0  0  0  0  0  0
  -17.4590  -30.3090   23.8570 C   0  0  0  0  0  3  0  0  0  0  0  0
  -16.4170  -29.4850   23.3970 C   0  0  0  0  0  3  0  0  0  0  0  0
  -16.7140  -28.2340   22.8260 C   0  0  0  0  0  3  0  0  0  0  0  0
  -25.8020  -32.4650   23.8920 C   0  0  0  0  0  3  0  0  0  0  0  0
  -25.5040  -33.8690   24.2040 N   0  0  0  0  0  0  0  0  0  0  0  0
  -25.8700  -34.9100   23.4450 C   0  0  0  0  0  0  0  0  0  0  0  0
  -26.5670  -34.7900   22.4320 O   0  0  0  0  0  0  0  0  0  0  0  0
  -24.8900  -34.0390   24.9880 H   0  0  0  0  0  0  0  0  0  0  0  0
  -24.1890  -36.7280   23.0120 C   0  0  0  0  0  1  0  0  0  0  0  0
  -25.3880  -36.3080   23.8760 C   0  0  0  0  0  3  0  0  0  0  0  0
  -27.4970  -37.1620   24.7980 C   0  0  0  0  0  1  0  0  0  0  0  0
  -26.4420  -37.3430   23.8040 N   0  0  0  0  0  0  0  0  0  0  0  0
  -26.0450  -38.2700   23.9280 H   0  0  0  0  0  0  0  0  0  0  0  0
  -26.3000  -31.6990   25.1800 C   0  0  1  0  0  0  0  0  0  0  0  0
  -25.1920  -31.4750   26.2350 C   0  0  0  0  0  1  0  0  0  0  0  0
  -26.8810  -30.3180   24.8020 C   0  0  0  0  0  1  0  0  0  0  0  0
  -27.4460  -32.4930   25.8500 C   0  0  0  0  0  1  0  0  0  0  0  0
  -32.5300  -24.4520   19.9800 C   0  0  0  0  0  2  0  0  0  0  0  0
  -32.9320  -23.0060   20.3370 C   0  0  0  0  0  2  0  0  0  0  0  0
  -31.7380  -22.0710   20.6250 C   0  0  0  0  0  2  0  0  0  0  0  0
  -32.1560  -20.7690   21.3300 C   0  0  0  0  0  2  0  0  0  0  0  0
  -30.9690  -19.8060   21.5540 C   0  0  0  0  0  2  0  0  0  0  0  0
  -31.2440  -19.3030   23.9550 C   0  0  0  0  0  1  0  0  0  0  0  0
  -31.2580  -18.7630   22.5730 N   0  0  1  0  0  4  0  0  0  0  0  0
  -32.1990  -18.4380   22.4110 H   0  0  0  0  0  0  0  0  0  0  0  0
  -30.3860  -17.5650   22.4420 C   0  0  0  0  0  2  0  0  0  0  0  0
  -30.8530  -16.6230   21.3160 C   0  0  0  0  0  2  0  0  0  0  0  0
  -29.9830  -15.3520   21.2080 C   0  0  0  0  0  2  0  0  0  0  0  0
  -30.3870  -14.4110   20.0580 C   0  0  0  0  0  0  0  0  0  0  0  0
  -29.9730  -12.3520   18.7520 C   0  0  0  0  0  2  0  0  0  0  0  0
  -28.9030  -12.5830   17.6700 C   0  0  0  0  0  2  0  0  0  0  0  0
  -27.4880  -12.3810   18.2460 C   0  0  0  0  0  2  0  0  0  0  0  0
  -27.2680  -13.1630   19.5690 C   0  0  0  0  0  3  0  0  0  0  0  0
  -28.4330  -12.9110   20.5520 C   0  0  0  0  0  2  0  0  0  0  0  0
  -29.6910  -13.2610   19.8710 N   0  0  0  0  0  0  0  0  0  0  0  0
  -31.3360  -14.7330   19.3350 O   0  0  0  0  0  0  0  0  0  0  0  0
  -24.9320  -13.6870   20.5210 C   0  0  0  0  0  0  0  0  0  0  0  0
  -23.9250  -12.8750   20.9680 C   0  0  0  0  0  0  0  0  0  0  0  0
  -24.4150  -11.5380   20.8530 C   0  0  0  0  0  0  0  0  0  0  0  0
  -25.9730  -12.8420   20.1660 N   0  0  0  0  0  0  0  0  0  0  0  0
  -25.6690  -11.5430   20.4200 N   0  0  0  0  0  0  0  0  0  0  0  0
  -23.7440  -10.2510   21.0770 C   0  0  0  0  0  0  0  0  0  0  0  0
  -24.2130   -9.3320   22.0410 C   0  0  0  0  0  3  0  0  0  0  0  0
  -23.5410   -8.1080   22.2510 C   0  0  0  0  0  3  0  0  0  0  0  0
  -22.3860   -7.7950   21.4950 C   0  0  0  0  0  0  0  0  0  0  0  0
  -21.9370   -8.7030   20.5210 C   0  0  0  0  0  3  0  0  0  0  0  0
  -22.6100   -9.9180   20.3090 C   0  0  0  0  0  3  0  0  0  0  0  0
  -21.6850   -6.6200   21.6120 O   0  0  0  0  0  0  0  0  0  0  0  0
  -21.5720   -5.9640   22.8120 C   0  0  0  0  0  0  0  0  0  0  0  0
  -20.9600   -6.5650   23.9340 C   0  0  0  0  0  3  0  0  0  0  0  0
  -20.8040   -5.8310   25.1260 C   0  0  0  0  0  3  0  0  0  0  0  0
  -21.2470   -4.4970   25.1960 C   0  0  0  0  0  0  0  0  0  0  0  0
  -21.8510   -3.8960   24.0790 C   0  0  0  0  0  3  0  0  0  0  0  0
  -22.0100   -4.6270   22.8890 C   0  0  0  0  0  0  0  0  0  0  0  0
  -22.5740   -4.0360   21.8070 F   0  0  0  0  0  0  0  0  0  0  0  0
  -21.0900   -3.7890   26.3400 F   0  0  0  0  0  0  0  0  0  0  0  0
  -22.5490  -13.3040   21.3930 C   0  0  0  0  0  0  0  0  0  0  0  0
  -21.9290  -12.5620   22.3030 N   0  0  0  0  0  0  0  0  0  0  0  0
  -22.0350  -14.3320   20.9520 O   0  0  0  0  0  0  0  0  0  0  0  0
  -22.3580  -11.7300   22.6800 H   0  0  0  0  0  0  0  0  0  0  0  0
  -21.0100  -12.8300   22.6280 H   0  0  0  0  0  0  0  0  0  0  0  0
  -25.0440  -15.0650   20.3670 N   0  0  0  0  0  0  0  0  0  0  0  0
  -24.2770  -15.6990   20.5690 H   0  0  0  0  0  0  0  0  0  0  0  0
  -25.8530  -15.5340   19.9780 H   0  0  0  0  0  0  0  0  0  0  0  0
  1  2  1  0
  1 49  1  0
  3  1  1  0
  5  4  1  0
  5  1  1  0
  6  5  1  0
  6  7  1  0
  7  8  1  0
  8 10  1  0
  9 20  2  0
 10 15  1  0
 11 19  1  0
 11 21  1  0
 12 18  1  0
 12 14  1  0
 13 19  1  0
 14 13  1  0
 15 14  2  0
 16 17  1  0
 16 10  2  0
 17 12  2  0
 18 11  1  0
 19  9  1  0
 21 23  2  0
 22 21  1  0
 24 22  1  0
 25 34  2  0
 25 30  1  0
 26 22  1  0
 26 30  1  0
 27 26  1  0
 28 29  1  0
 28 27  1  0
 29 25  1  0
 30 31  2  0
 31 32  1  0
 33 32  2  0
 34 33  1  0
 35  9  1  0
 35 36  1  0
 35 45  1  0
 36 39  1  0
 37 41  1  0
 37 36  1  0
 38 37  2  0
 41 40  1  0
 43 41  1  0
 43 44  1  0
 43 42  1  0
 45 48  1  1
 45 46  1  0
 47 45  1  0
 49 50  1  0
 50 51  1  0
 51 52  1  0
 52 53  1  0
 53 55  1  0
 55 54  1  0
 55 56  1  6
 57 55  1  0
 58 57  1  0
 59 58  1  0
 60 59  1  0
 61 66  1  0
 62 63  1  0
 62 61  1  0
 64 63  1  0
 64 71  1  0
 64 65  1  0
 66 60  1  0
 66 65  1  0
 67 60  2  0
 68 69  2  0
 69 88  1  0
 70 69  1  0
 70 73  1  0
 71 72  1  0
 71 68  1  0
 72 70  2  0
 73 74  1  0
 74 75  2  0
 76 79  1  0
 76 75  1  0
 77 76  2  0
 78 77  1  0
 78 73  2  0
 79 80  1  0
 80 85  2  0
 80 81  1  0
 81 82  2  0
 82 83  1  0
 83 87  1  0
 84 83  2  0
 85 84  1  0
 86 85  1  0
 88 89  1  0
 89 92  1  0
 89 91  1  0
 90 88  2  0
 93 68  1  0
 93 94  1  0
 95 93  1  0
M  ISO  4   7 101   8 101  59 100  60 100
M  END
>  <TORSDO>  (82) 
F 28

>  <SCORE>  (82) 
-10.264

>  <name>  (82) 
82

>  <ligand_id>  (82) 
82

>  <original_smiles>  (82) 
[H]c1c([H])c([H])c2c(c1[H])C([H])([H])C([H])([H])C([H])([H])C2([H])N([H])C(=O)C1([H])N(C(=O)C([H])(N([H])C(=O)C([H])(N([H])C([H])([H])[H])C([H])([H])[H])C(C([H])([H])[H])(C([H])([H])[H])C([H])([H])[H])C([H])([H])c2c([H])c(OC([H])([H])C([H])([H])C([H])(C([H])([H])[H])[N+]([H])([H])C([H])([H])C([H])([H])C([H])([H])C([H])([H])C([H])([H])[N+]([H])(C([H])([H])[H])C([H])([H])C([H])([H])C([H])([H])C(=O)N3C([H])([H])C([H])([H])C([H])([H])C([H])(n4nc(-c5c([H])c([H])c(Oc6c([H])c([H])c(F)c([H])c6F)c([H])c5[H])c(C(=O)N([H])[H])c4N([H])[H])C3([H])[H])c([H])c([H])c2C1([H])[H]

>  <smiles>  (82) 
[H]c1c([H])c([H])c2c(c1[H])C([H])([H])C([H])([H])C([H])([H])C2([H])N([H])C(=O)C1([H])N(C(=O)C([H])(N([H])C(=O)C([H])(N([H])C([H])([H])[H])C([H])([H])[H])C(C([H])([H])[H])(C([H])([H])[H])C([H])([H])[H])C([H])([H])c2c([H])c(OC([H])([H])C([H])([H])C([H])(C([H])([H])[H])[N+]([H])([H])C([H])([H])C([H])([H])C([H])([H])C([H])([H])C([H])([H])[N+]([H])(C([H])([H])[H])C([H])([H])C([H])([H])C([H])([H])C(=O)N3C([H])([H])C([H])([H])C([H])([H])C([H])(n4nc(-c5c([H])c([H])c(Oc6c([H])c([H])c(F)c([H])c6F)c([H])c5[H])c(C(=O)N([H])[H])c4N([H])[H])C3([H])[H])c([H])c([H])c2C1([H])[H]

$$$$
83:0:0
     RDKit          3D

 88 95  0  0  1  0  0  0  0  0999 V2000
  -29.3780  -20.6980   20.0560 C   0  0  0  0  0  3  0  0  0  0  0  0
  -31.7990  -20.1930   20.6260 C   0  0  0  0  0  1  0  0  0  0  0  0
  -30.8100  -21.1550   20.0720 N   0  0  1  0  0  4  0  0  0  0  0  0
  -30.8030  -21.9000   20.7530 H   0  0  0  0  0  0  0  0  0  0  0  0
  -31.7250  -20.8280   17.7210 C   0  0  0  0  0  1  0  0  0  0  0  0
  -32.3410  -22.8870   19.0820 C   0  0  0  0  0  1  0  0  0  0  0  0
  -31.2620  -21.8220   18.8090 C   0  0  0  0  0  3  0  0  0  0  0  0
  -29.2720  -18.8790   20.5690 C   0  0  0  0  0  2  0  0  0  0  0  0
  -29.5380  -17.1510   19.8630 C   0  0  0  0  0  2  0  0  0  0  0  0
  -30.3320  -15.5230   20.1190 C   0  0  0  0  0  0  0  0  0  0  0  0
  -30.3780  -13.0190   19.2860 C   0  0  0  0  0  2  0  0  0  0  0  0
  -29.4500  -12.7210   18.0760 C   0  0  0  0  0  2  0  0  0  0  0  0
  -28.0210  -12.3990   18.5430 C   0  0  0  0  0  2  0  0  0  0  0  0
  -27.5500  -13.3790   19.6440 C   0  0  0  0  0  3  0  0  0  0  0  0
  -28.6060  -13.6170   20.7420 C   0  0  0  0  0  2  0  0  0  0  0  0
  -29.8060  -14.1760   20.0890 N   0  0  0  0  0  0  0  0  0  0  0  0
  -31.5680  -15.4660   19.9970 O   0  0  0  0  0  0  0  0  0  0  0  0
  -25.2020  -13.9100   20.4630 C   0  0  0  0  0  0  0  0  0  0  0  0
  -24.1500  -13.1260   20.8450 C   0  0  0  0  0  0  0  0  0  0  0  0
  -24.6220  -11.7790   20.7960 C   0  0  0  0  0  0  0  0  0  0  0  0
  -26.2420  -13.0420   20.1870 N   0  0  0  0  0  0  0  0  0  0  0  0
  -25.9090  -11.7520   20.4590 N   0  0  0  0  0  0  0  0  0  0  0  0
  -23.9020  -10.5130   20.9920 C   0  0  0  0  0  0  0  0  0  0  0  0
  -24.3380   -9.5490   21.9280 C   0  0  0  0  0  3  0  0  0  0  0  0
  -23.6140   -8.3510   22.1120 C   0  0  0  0  0  3  0  0  0  0  0  0
  -22.4390   -8.1080   21.3610 C   0  0  0  0  0  0  0  0  0  0  0  0
  -22.0220   -9.0600   20.4140 C   0  0  0  0  0  3  0  0  0  0  0  0
  -22.7460  -10.2500   20.2280 C   0  0  0  0  0  3  0  0  0  0  0  0
  -21.6870   -6.9620   21.4530 O   0  0  0  0  0  0  0  0  0  0  0  0
  -21.6260   -6.2320   22.6130 C   0  0  0  0  0  0  0  0  0  0  0  0
  -21.1690   -6.7920   23.8260 C   0  0  0  0  0  3  0  0  0  0  0  0
  -21.0590   -5.9870   24.9770 C   0  0  0  0  0  3  0  0  0  0  0  0
  -21.3960   -4.6220   24.9170 C   0  0  0  0  0  0  0  0  0  0  0  0
  -21.8460   -4.0600   23.7090 C   0  0  0  0  0  3  0  0  0  0  0  0
  -21.9570   -4.8620   22.5600 C   0  0  0  0  0  0  0  0  0  0  0  0
  -22.3720   -4.3110   21.3930 F   0  0  0  0  0  0  0  0  0  0  0  0
  -21.2840   -3.8460   26.0200 F   0  0  0  0  0  0  0  0  0  0  0  0
  -22.7560  -13.5980   21.1390 C   0  0  0  0  0  0  0  0  0  0  0  0
  -22.0390  -12.8940   22.0040 N   0  0  0  0  0  0  0  0  0  0  0  0
  -22.3130  -14.6290   20.6320 O   0  0  0  0  0  0  0  0  0  0  0  0
  -22.4100  -12.0600   22.4360 H   0  0  0  0  0  0  0  0  0  0  0  0
  -21.1020  -13.1920   22.2410 H   0  0  0  0  0  0  0  0  0  0  0  0
  -25.3570  -15.2830   20.2940 N   0  0  0  0  0  0  0  0  0  0  0  0
  -24.5920  -15.9340   20.4380 H   0  0  0  0  0  0  0  0  0  0  0  0
  -26.2000  -15.7300   19.9580 H   0  0  0  0  0  0  0  0  0  0  0  0
  -28.3490  -22.2870   20.1110 C   0  0  0  0  0  2  0  0  0  0  0  0
  -28.3270  -24.0860   20.6790 C   0  0  0  0  0  2  0  0  0  0  0  0
  -28.2500  -25.7330   20.2090 O   0  0  0  0  0  0  0  0  0  0  0  0
  -24.6340  -31.8620   23.1750 C   0  0  0  0  0  0  0  0  0  0  0  0
  -27.2120  -26.8480   20.2640 C   0  0  0  0  0  0  0  0  0  0  0  0
  -23.4550  -30.4380   21.5520 C   0  0  0  0  0  3  0  0  0  0  0  0
  -24.9150  -28.7910   20.1750 C   0  0  0  0  0  0  0  0  0  0  0  0
  -26.0280  -30.6270   21.4190 C   0  0  0  0  0  2  0  0  0  0  0  0
  -26.1050  -29.1920   20.7930 C   0  0  0  0  0  0  0  0  0  0  0  0
  -27.2460  -28.2480   20.7980 C   0  0  0  0  0  3  0  0  0  0  0  0
  -25.9820  -26.6250   19.6020 C   0  0  0  0  0  3  0  0  0  0  0  0
  -24.8840  -27.5300   19.5560 C   0  0  0  0  0  3  0  0  0  0  0  0
  -23.6980  -29.7250   20.1930 C   0  0  0  0  0  2  0  0  0  0  0  0
  -24.7290  -31.0060   22.1020 N   0  0  0  0  0  0  0  0  0  0  0  0
  -23.5390  -32.1580   23.6820 O   0  0  0  0  0  0  0  0  0  0  0  0
  -22.7500  -29.4620   22.5320 C   0  0  0  0  0  0  0  0  0  0  0  0
  -21.4180  -29.3040   22.4120 N   0  0  0  0  0  0  0  0  0  0  0  0
  -23.4120  -28.8440   23.3700 O   0  0  0  0  0  0  0  0  0  0  0  0
  -20.9360  -29.8540   21.7140 H   0  0  0  0  0  0  0  0  0  0  0  0
  -18.0300  -28.1140   22.9500 C   0  0  0  0  0  0  0  0  0  0  0  0
  -20.5940  -28.3750   23.1920 C   0  0  0  0  0  3  0  0  0  0  0  0
  -20.6850  -26.9390   22.6260 C   0  0  0  0  0  2  0  0  0  0  0  0
  -19.5750  -26.6160   21.6200 C   0  0  0  0  0  2  0  0  0  0  0  0
  -18.1990  -26.7640   22.2730 C   0  0  0  0  0  2  0  0  0  0  0  0
  -19.1540  -28.8780   23.3670 C   0  0  0  0  0  0  0  0  0  0  0  0
  -18.9390  -30.1390   23.9640 C   0  0  0  0  0  3  0  0  0  0  0  0
  -17.6360  -30.6380   24.1450 C   0  0  0  0  0  3  0  0  0  0  0  0
  -16.5280  -29.8730   23.7410 C   0  0  0  0  0  3  0  0  0  0  0  0
  -16.7250  -28.6140   23.1500 C   0  0  0  0  0  3  0  0  0  0  0  0
  -25.8960  -32.5230   23.8080 C   0  0  0  0  0  3  0  0  0  0  0  0
  -25.5670  -33.9250   24.1280 N   0  0  0  0  0  0  0  0  0  0  0  0
  -25.9030  -34.9840   23.3800 C   0  0  0  0  0  0  0  0  0  0  0  0
  -26.5830  -34.8850   22.3560 O   0  0  0  0  0  0  0  0  0  0  0  0
  -24.9620  -34.0750   24.9220 H   0  0  0  0  0  0  0  0  0  0  0  0
  -24.1830  -36.7880   23.0130 C   0  0  0  0  0  1  0  0  0  0  0  0
  -25.4130  -36.3750   23.8380 C   0  0  0  0  0  3  0  0  0  0  0  0
  -27.5350  -37.2630   24.7020 C   0  0  0  0  0  1  0  0  0  0  0  0
  -26.4490  -37.4290   23.7410 N   0  0  0  0  0  0  0  0  0  0  0  0
  -26.0400  -38.3500   23.8790 H   0  0  0  0  0  0  0  0  0  0  0  0
  -26.3950  -31.7780   25.1080 C   0  0  1  0  0  0  0  0  0  0  0  0
  -25.2890  -31.5570   26.1660 C   0  0  0  0  0  1  0  0  0  0  0  0
  -26.9880  -30.3930   24.7580 C   0  0  0  0  0  1  0  0  0  0  0  0
  -27.5370  -32.5860   25.7700 C   0  0  0  0  0  1  0  0  0  0  0  0
  1  3  1  0
  1 46  1  0
  1  8  1  0
  3  2  1  0
  3  4  1  1
  5  7  1  0
  7  6  1  0
  7  3  1  0
  9 10  1  0
  9  8  1  0
 11 16  1  0
 12 13  1  0
 12 11  1  0
 14 13  1  0
 14 21  1  0
 14 15  1  0
 16 10  1  0
 16 15  1  0
 17 10  2  0
 18 19  2  0
 19 38  1  0
 20 19  1  0
 20 23  1  0
 21 22  1  0
 21 18  1  0
 22 20  2  0
 23 24  1  0
 24 25  2  0
 26 29  1  0
 26 25  1  0
 27 26  2  0
 28 27  1  0
 28 23  2  0
 29 30  1  0
 30 31  1  0
 31 32  2  0
 33 32  1  0
 33 37  1  0
 34 33  2  0
 35 30  2  0
 35 34  1  0
 36 35  1  0
 38 39  1  0
 39 42  1  0
 39 41  1  0
 40 38  2  0
 43 44  1  0
 43 18  1  0
 45 43  1  0
 46 47  1  0
 48 50  1  0
 48 47  1  0
 49 60  2  0
 50 55  1  0
 51 59  1  0
 51 61  1  0
 52 58  1  0
 52 54  1  0
 53 59  1  0
 54 55  2  0
 54 53  1  0
 56 50  2  0
 57 56  1  0
 57 52  2  0
 58 51  1  0
 59 49  1  0
 61 63  2  0
 62 61  1  0
 64 62  1  0
 65 74  2  0
 65 70  1  0
 66 62  1  0
 66 70  1  0
 67 66  1  0
 68 69  1  0
 68 67  1  0
 69 65  1  0
 70 71  2  0
 71 72  1  0
 73 72  2  0
 74 73  1  0
 75 49  1  0
 75 76  1  0
 75 85  1  0
 76 79  1  0
 77 81  1  0
 77 76  1  0
 78 77  2  0
 81 80  1  0
 83 81  1  0
 83 84  1  0
 83 82  1  0
 85 88  1  1
 85 86  1  0
 87 85  1  0
M  ISO  4   9 100  10 100  47 101  48 101
M  END
>  <TORSDO>  (83) 
F 22

>  <SCORE>  (83) 
-15.750

>  <name>  (83) 
83

>  <ligand_id>  (83) 
83

>  <original_smiles>  (83) 
[H]c1c([H])c([H])c2c(c1[H])C([H])([H])C([H])([H])C([H])([H])C2([H])N([H])C(=O)C1([H])N(C(=O)C([H])(N([H])C(=O)C([H])(N([H])C([H])([H])[H])C([H])([H])[H])C(C([H])([H])[H])(C([H])([H])[H])C([H])([H])[H])C([H])([H])c2c([H])c(OC([H])([H])C([H])([H])C([H])(C([H])([H])C([H])([H])C(=O)N3C([H])([H])C([H])([H])C([H])([H])C([H])(n4nc(-c5c([H])c([H])c(Oc6c([H])c([H])c(F)c([H])c6F)c([H])c5[H])c(C(=O)N([H])[H])c4N([H])[H])C3([H])[H])[N+]([H])(C([H])([H])[H])C([H])(C([H])([H])[H])C([H])([H])[H])c([H])c([H])c2C1([H])[H]

>  <smiles>  (83) 
[H]c1c([H])c([H])c2c(c1[H])C([H])([H])C([H])([H])C([H])([H])C2([H])N([H])C(=O)C1([H])N(C(=O)C([H])(N([H])C(=O)C([H])(N([H])C([H])([H])[H])C([H])([H])[H])C(C([H])([H])[H])(C([H])([H])[H])C([H])([H])[H])C([H])([H])c2c([H])c(OC([H])([H])C([H])([H])C([H])(C([H])([H])C([H])([H])C(=O)N3C([H])([H])C([H])([H])C([H])([H])C([H])(n4nc(-c5c([H])c([H])c(Oc6c([H])c([H])c(F)c([H])c6F)c([H])c5[H])c(C(=O)N([H])[H])c4N([H])[H])C3([H])[H])[N+]([H])(C([H])([H])[H])C([H])(C([H])([H])[H])C([H])([H])[H])c([H])c([H])c2C1([H])[H]

$$$$
84:0:0
     RDKit          3D

 89 96  0  0  1  0  0  0  0  0999 V2000
  -29.3870  -21.7780   20.0160 C   0  0  0  0  0  3  0  0  0  0  0  0
  -28.7780  -22.8840   19.4910 C   0  0  0  0  0  0  0  0  0  0  0  0
  -27.5760  -22.8270   18.5530 C   0  0  0  0  0  1  0  0  0  0  0  0
  -28.9850  -20.3800   19.7600 C   0  0  0  0  0  0  0  0  0  0  0  0
  -29.7290  -19.4520   20.4020 N   0  0  0  0  0  0  0  0  0  0  0  0
  -28.0610  -20.0220   19.0270 O   0  0  0  0  0  0  0  0  0  0  0  0
  -30.4780  -19.7720   21.0020 H   0  0  0  0  0  0  0  0  0  0  0  0
  -29.4710  -17.9960   20.3280 C   0  0  0  0  0  2  0  0  0  0  0  0
  -30.4510  -17.1190   21.1590 C   0  0  0  0  0  2  0  0  0  0  0  0
  -30.0080  -15.6260   21.3620 C   0  0  0  0  0  2  0  0  0  0  0  0
  -30.6670  -14.5160   20.4900 C   0  0  0  0  0  0  0  0  0  0  0  0
  -30.3960  -12.3940   19.2290 C   0  0  0  0  0  2  0  0  0  0  0  0
  -29.4350  -12.6100   18.0420 C   0  0  0  0  0  2  0  0  0  0  0  0
  -27.9660  -12.4500   18.4840 C   0  0  0  0  0  2  0  0  0  0  0  0
  -27.6370  -13.2590   19.7680 C   0  0  0  0  0  3  0  0  0  0  0  0
  -28.7000  -12.9900   20.8560 C   0  0  0  0  0  2  0  0  0  0  0  0
  -30.0160  -13.3340   20.2960 N   0  0  0  0  0  0  0  0  0  0  0  0
  -31.7580  -14.7450   19.9560 O   0  0  0  0  0  0  0  0  0  0  0  0
  -25.2350  -13.8620   20.4750 C   0  0  0  0  0  0  0  0  0  0  0  0
  -24.1700  -13.0870   20.8480 C   0  0  0  0  0  0  0  0  0  0  0  0
  -24.6360  -11.7370   20.8210 C   0  0  0  0  0  0  0  0  0  0  0  0
  -26.2840  -12.9830   20.2480 N   0  0  0  0  0  0  0  0  0  0  0  0
  -25.9250  -11.7000   20.5110 N   0  0  0  0  0  0  0  0  0  0  0  0
  -23.9130  -10.4730   21.0160 C   0  0  0  0  0  0  0  0  0  0  0  0
  -24.3550   -9.5080   21.9470 C   0  0  0  0  0  3  0  0  0  0  0  0
  -23.6350   -8.3080   22.1300 C   0  0  0  0  0  3  0  0  0  0  0  0
  -22.4590   -8.0640   21.3810 C   0  0  0  0  0  0  0  0  0  0  0  0
  -22.0370   -9.0180   20.4390 C   0  0  0  0  0  3  0  0  0  0  0  0
  -22.7570  -10.2090   20.2530 C   0  0  0  0  0  3  0  0  0  0  0  0
  -21.7110   -6.9140   21.4730 O   0  0  0  0  0  0  0  0  0  0  0  0
  -21.6740   -6.1700   22.6240 C   0  0  0  0  0  0  0  0  0  0  0  0
  -21.2530   -6.7200   23.8550 C   0  0  0  0  0  3  0  0  0  0  0  0
  -21.1650   -5.9010   24.9990 C   0  0  0  0  0  3  0  0  0  0  0  0
  -21.4870   -4.5330   24.9110 C   0  0  0  0  0  0  0  0  0  0  0  0
  -21.9010   -3.9830   23.6860 C   0  0  0  0  0  3  0  0  0  0  0  0
  -21.9910   -4.8000   22.5450 C   0  0  0  0  0  0  0  0  0  0  0  0
  -22.3690   -4.2600   21.3610 F   0  0  0  0  0  0  0  0  0  0  0  0
  -21.3930   -3.7440   26.0080 F   0  0  0  0  0  0  0  0  0  0  0  0
  -22.7710  -13.5610   21.1210 C   0  0  0  0  0  0  0  0  0  0  0  0
  -22.0460  -12.8630   21.9900 N   0  0  0  0  0  0  0  0  0  0  0  0
  -22.3280  -14.5840   20.6010 O   0  0  0  0  0  0  0  0  0  0  0  0
  -22.4150  -12.0380   22.4390 H   0  0  0  0  0  0  0  0  0  0  0  0
  -21.1060  -13.1610   22.2110 H   0  0  0  0  0  0  0  0  0  0  0  0
  -25.3970  -15.2320   20.2920 N   0  0  0  0  0  0  0  0  0  0  0  0
  -24.6280  -15.8860   20.3890 H   0  0  0  0  0  0  0  0  0  0  0  0
  -26.2510  -15.6680   19.9660 H   0  0  0  0  0  0  0  0  0  0  0  0
  -29.2660  -24.3260   19.7490 C   0  0  0  0  0  2  0  0  0  0  0  0
  -28.2640  -25.2490   20.5040 C   0  0  0  0  0  2  0  0  0  0  0  0
  -28.3900  -26.6570   20.1680 O   0  0  0  0  0  0  0  0  0  0  0  0
  -24.5890  -31.8900   23.2340 C   0  0  0  0  0  0  0  0  0  0  0  0
  -27.2250  -27.4110   20.1660 C   0  0  0  0  0  0  0  0  0  0  0  0
  -23.3830  -30.4840   21.5960 C   0  0  0  0  0  3  0  0  0  0  0  0
  -24.8350  -28.9410   20.1770 C   0  0  0  0  0  0  0  0  0  0  0  0
  -25.9140  -30.8340   21.4010 C   0  0  0  0  0  2  0  0  0  0  0  0
  -25.9980  -29.4590   20.7620 C   0  0  0  0  0  0  0  0  0  0  0  0
  -27.1970  -28.7030   20.7480 C   0  0  0  0  0  3  0  0  0  0  0  0
  -26.0460  -26.9260   19.5570 C   0  0  0  0  0  3  0  0  0  0  0  0
  -24.8540  -27.6740   19.5720 C   0  0  0  0  0  3  0  0  0  0  0  0
  -23.5930  -29.8040   20.2200 C   0  0  0  0  0  2  0  0  0  0  0  0
  -24.6470  -31.0850   22.1350 N   0  0  0  0  0  0  0  0  0  0  0  0
  -23.5070  -32.1620   23.7720 O   0  0  0  0  0  0  0  0  0  0  0  0
  -22.7300  -29.4650   22.5590 C   0  0  0  0  0  0  0  0  0  0  0  0
  -21.4050  -29.2840   22.4350 N   0  0  0  0  0  0  0  0  0  0  0  0
  -23.4140  -28.8410   23.3760 O   0  0  0  0  0  0  0  0  0  0  0  0
  -20.9150  -29.8370   21.7450 H   0  0  0  0  0  0  0  0  0  0  0  0
  -18.0280  -28.1000   22.9430 C   0  0  0  0  0  0  0  0  0  0  0  0
  -20.5870  -28.3490   23.2070 C   0  0  0  0  0  3  0  0  0  0  0  0
  -20.6850  -26.9180   22.6290 C   0  0  0  0  0  2  0  0  0  0  0  0
  -19.5780  -26.6000   21.6190 C   0  0  0  0  0  2  0  0  0  0  0  0
  -18.1980  -26.7510   22.2670 C   0  0  0  0  0  2  0  0  0  0  0  0
  -19.1520  -28.8570   23.3710 C   0  0  0  0  0  0  0  0  0  0  0  0
  -18.9390  -30.1210   23.9620 C   0  0  0  0  0  3  0  0  0  0  0  0
  -17.6380  -30.6280   24.1320 C   0  0  0  0  0  3  0  0  0  0  0  0
  -16.5290  -29.8690   23.7220 C   0  0  0  0  0  3  0  0  0  0  0  0
  -16.7250  -28.6060   23.1340 C   0  0  0  0  0  3  0  0  0  0  0  0
  -25.8740  -32.5230   23.8520 C   0  0  0  0  0  3  0  0  0  0  0  0
  -25.5650  -33.9230   24.1760 N   0  0  0  0  0  0  0  0  0  0  0  0
  -25.9030  -34.9710   23.4140 C   0  0  0  0  0  0  0  0  0  0  0  0
  -26.5770  -34.8630   22.3860 O   0  0  0  0  0  0  0  0  0  0  0  0
  -24.9710  -34.0840   24.9750 H   0  0  0  0  0  0  0  0  0  0  0  0
  -24.1840  -36.7660   23.0370 C   0  0  0  0  0  1  0  0  0  0  0  0
  -25.4150  -36.3610   23.8630 C   0  0  0  0  0  3  0  0  0  0  0  0
  -27.5420  -37.2400   24.7170 C   0  0  0  0  0  1  0  0  0  0  0  0
  -26.4510  -37.4110   23.7610 N   0  0  0  0  0  0  0  0  0  0  0  0
  -26.0460  -38.3320   23.9040 H   0  0  0  0  0  0  0  0  0  0  0  0
  -26.3920  -31.7580   25.1310 C   0  0  1  0  0  0  0  0  0  0  0  0
  -25.2990  -31.5250   26.1990 C   0  0  0  0  0  1  0  0  0  0  0  0
  -26.9750  -30.3800   24.7420 C   0  0  0  0  0  1  0  0  0  0  0  0
  -27.5430  -32.5540   25.7890 C   0  0  0  0  0  1  0  0  0  0  0  0
  2 47  1  0
  2  1  2  0
  3  2  1  0
  4  1  1  0
  4  5  1  0
  5  7  1  0
  6  4  2  0
  8  5  1  0
  8  9  1  0
  9 10  1  0
 11 10  1  0
 12 17  1  0
 13 14  1  0
 13 12  1  0
 15 14  1  0
 15 22  1  0
 15 16  1  0
 17 11  1  0
 17 16  1  0
 18 11  2  0
 19 20  2  0
 20 39  1  0
 21 20  1  0
 21 24  1  0
 22 19  1  0
 22 23  1  0
 23 21  2  0
 24 25  1  0
 25 26  2  0
 27 30  1  0
 27 26  1  0
 28 27  2  0
 29 28  1  0
 29 24  2  0
 30 31  1  0
 31 32  1  0
 32 33  2  0
 34 33  1  0
 34 38  1  0
 35 34  2  0
 36 31  2  0
 36 35  1  0
 37 36  1  0
 39 40  1  0
 40 43  1  0
 40 42  1  0
 41 39  2  0
 44 45  1  0
 44 19  1  0
 46 44  1  0
 47 48  1  0
 49 48  1  0
 50 61  2  0
 51 49  1  0
 51 56  1  0
 52 60  1  0
 52 62  1  0
 53 59  1  0
 53 55  1  0
 54 60  1  0
 55 54  1  0
 56 55  2  0
 57 58  1  0
 57 51  2  0
 58 53  2  0
 59 52  1  0
 60 50  1  0
 62 64  2  0
 63 62  1  0
 65 63  1  0
 66 75  2  0
 66 71  1  0
 67 63  1  0
 67 71  1  0
 68 67  1  0
 69 70  1  0
 69 68  1  0
 70 66  1  0
 71 72  2  0
 72 73  1  0
 74 73  2  0
 75 74  1  0
 76 50  1  0
 76 77  1  0
 76 86  1  0
 77 80  1  0
 78 82  1  0
 78 77  1  0
 79 78  2  0
 82 81  1  0
 84 82  1  0
 84 85  1  0
 84 83  1  0
 86 89  1  1
 86 87  1  0
 88 86  1  0
M  ISO  4  10 100  11 100  48 101  49 101
M  END
>  <TORSDO>  (84) 
F 22

>  <SCORE>  (84) 
-13.134

>  <name>  (84) 
84

>  <ligand_id>  (84) 
84

>  <original_smiles>  (84) 
[H]C(C(=O)N([H])C([H])([H])C([H])([H])C([H])([H])C(=O)N1C([H])([H])C([H])([H])C([H])([H])C([H])(n2nc(-c3c([H])c([H])c(Oc4c([H])c([H])c(F)c([H])c4F)c([H])c3[H])c(C(=O)N([H])[H])c2N([H])[H])C1([H])[H])=C(C([H])([H])[H])C([H])([H])C([H])([H])Oc1c([H])c([H])c2c(c1[H])C([H])([H])N(C(=O)C([H])(N([H])C(=O)C([H])(N([H])C([H])([H])[H])C([H])([H])[H])C(C([H])([H])[H])(C([H])([H])[H])C([H])([H])[H])C([H])(C(=O)N([H])C1([H])c3c([H])c([H])c([H])c([H])c3C([H])([H])C([H])([H])C1([H])[H])C2([H])[H]

>  <smiles>  (84) 
[H]C(C(=O)N([H])C([H])([H])C([H])([H])C([H])([H])C(=O)N1C([H])([H])C([H])([H])C([H])([H])C([H])(n2nc(-c3c([H])c([H])c(Oc4c([H])c([H])c(F)c([H])c4F)c([H])c3[H])c(C(=O)N([H])[H])c2N([H])[H])C1([H])[H])=C(C([H])([H])[H])C([H])([H])C([H])([H])Oc1c([H])c([H])c2c(c1[H])C([H])([H])N(C(=O)C([H])(N([H])C(=O)C([H])(N([H])C([H])([H])[H])C([H])([H])[H])C(C([H])([H])[H])(C([H])([H])[H])C([H])([H])[H])C([H])(C(=O)N([H])C1([H])c3c([H])c([H])c([H])c([H])c3C([H])([H])C([H])([H])C1([H])[H])C2([H])[H]

$$$$
85:0:0
     RDKit          3D

 88 95  0  0  1  0  0  0  0  0999 V2000
  -29.1400  -23.1020   21.9870 C   0  0  0  0  0  1  0  0  0  0  0  0
  -29.2070  -23.1110   20.4520 C   0  0  0  0  0  3  0  0  0  0  0  0
  -29.1950  -21.5580   19.8580 N   0  0  0  0  0  4  0  0  0  0  0  0
  -28.2380  -21.3570   19.6140 H   0  0  0  0  0  0  0  0  0  0  0  0
  -29.6680  -21.6360   18.9700 H   0  0  0  0  0  0  0  0  0  0  0  0
  -29.0720  -19.8830   21.8460 C   0  0  0  0  0  1  0  0  0  0  0  0
  -29.7880  -20.1540   20.5080 C   0  0  0  0  0  3  0  0  0  0  0  0
  -30.0340  -18.5680   19.7290 C   0  0  0  0  0  2  0  0  0  0  0  0
  -28.4190  -16.7620   20.6010 C   0  0  0  0  0  1  0  0  0  0  0  0
  -29.9240  -16.9150   20.3770 C   0  0  0  0  0  3  0  0  0  0  0  0
  -30.6090  -15.3650   19.9150 C   0  0  0  0  0  0  0  0  0  0  0  0
  -30.5070  -12.9470   18.9740 C   0  0  0  0  0  2  0  0  0  0  0  0
  -29.5050  -12.8120   17.7950 C   0  0  0  0  0  2  0  0  0  0  0  0
  -28.0690  -12.5660   18.2980 C   0  0  0  0  0  2  0  0  0  0  0  0
  -27.7130  -13.4930   19.4840 C   0  0  0  0  0  3  0  0  0  0  0  0
  -28.8360  -13.5120   20.5480 C   0  0  0  0  0  2  0  0  0  0  0  0
  -30.0470  -14.0510   19.8950 N   0  0  0  0  0  0  0  0  0  0  0  0
  -31.7810  -15.3630   19.5120 O   0  0  0  0  0  0  0  0  0  0  0  0
  -25.3770  -14.1000   20.3360 C   0  0  0  0  0  0  0  0  0  0  0  0
  -24.3220  -13.3420   20.7510 C   0  0  0  0  0  0  0  0  0  0  0  0
  -24.7650  -11.9860   20.6940 C   0  0  0  0  0  0  0  0  0  0  0  0
  -26.3990  -13.2100   20.0480 N   0  0  0  0  0  0  0  0  0  0  0  0
  -26.0410  -11.9300   20.3270 N   0  0  0  0  0  0  0  0  0  0  0  0
  -24.0250  -10.7380   20.9070 C   0  0  0  0  0  0  0  0  0  0  0  0
  -24.4620   -9.7720   21.8390 C   0  0  0  0  0  3  0  0  0  0  0  0
  -23.7210   -8.5890   22.0420 C   0  0  0  0  0  3  0  0  0  0  0  0
  -22.5280   -8.3640   21.3130 C   0  0  0  0  0  0  0  0  0  0  0  0
  -22.1110   -9.3190   20.3690 C   0  0  0  0  0  3  0  0  0  0  0  0
  -22.8530  -10.4940   20.1640 C   0  0  0  0  0  3  0  0  0  0  0  0
  -21.7560   -7.2340   21.4260 O   0  0  0  0  0  0  0  0  0  0  0  0
  -21.6900   -6.5220   22.5970 C   0  0  0  0  0  0  0  0  0  0  0  0
  -21.2800   -7.1180   23.8090 C   0  0  0  0  0  3  0  0  0  0  0  0
  -21.1590   -6.3340   24.9730 C   0  0  0  0  0  3  0  0  0  0  0  0
  -21.4380   -4.9540   24.9260 C   0  0  0  0  0  0  0  0  0  0  0  0
  -21.8410   -4.3580   23.7180 C   0  0  0  0  0  3  0  0  0  0  0  0
  -21.9650   -5.1400   22.5560 C   0  0  0  0  0  0  0  0  0  0  0  0
  -22.3330   -4.5570   21.3900 F   0  0  0  0  0  0  0  0  0  0  0  0
  -21.3140   -4.1980   26.0420 F   0  0  0  0  0  0  0  0  0  0  0  0
  -22.9470  -13.8440   21.0870 C   0  0  0  0  0  0  0  0  0  0  0  0
  -22.2530  -13.1640   21.9900 N   0  0  0  0  0  0  0  0  0  0  0  0
  -22.5030  -14.8770   20.5850 O   0  0  0  0  0  0  0  0  0  0  0  0
  -22.6290  -12.3300   22.4160 H   0  0  0  0  0  0  0  0  0  0  0  0
  -21.3310  -13.4800   22.2600 H   0  0  0  0  0  0  0  0  0  0  0  0
  -25.5320  -15.4690   20.1550 N   0  0  0  0  0  0  0  0  0  0  0  0
  -24.7750  -16.1250   20.3120 H   0  0  0  0  0  0  0  0  0  0  0  0
  -26.3820  -15.9150   19.8380 H   0  0  0  0  0  0  0  0  0  0  0  0
  -28.2310  -24.4990   19.9390 C   0  0  0  0  0  2  0  0  0  0  0  0
  -28.3600  -26.0920   20.2410 O   0  0  0  0  0  0  0  0  0  0  0  0
  -24.6450  -31.8960   23.1790 C   0  0  0  0  0  0  0  0  0  0  0  0
  -27.2990  -27.1150   20.1640 C   0  0  0  0  0  0  0  0  0  0  0  0
  -23.4680  -30.4690   21.5530 C   0  0  0  0  0  3  0  0  0  0  0  0
  -24.9420  -28.8940   20.1300 C   0  0  0  0  0  0  0  0  0  0  0  0
  -26.0240  -30.7500   21.3830 C   0  0  0  0  0  2  0  0  0  0  0  0
  -26.1210  -29.3440   20.7360 C   0  0  0  0  0  0  0  0  0  0  0  0
  -27.2950  -28.4760   20.7270 C   0  0  0  0  0  3  0  0  0  0  0  0
  -26.0860  -26.7980   19.5100 C   0  0  0  0  0  3  0  0  0  0  0  0
  -24.9450  -27.6410   19.4960 C   0  0  0  0  0  3  0  0  0  0  0  0
  -23.7030  -29.7850   20.1780 C   0  0  0  0  0  2  0  0  0  0  0  0
  -24.7340  -31.0630   22.0930 N   0  0  0  0  0  0  0  0  0  0  0  0
  -23.5530  -32.1650   23.7060 O   0  0  0  0  0  0  0  0  0  0  0  0
  -22.8020  -29.4620   22.5260 C   0  0  0  0  0  0  0  0  0  0  0  0
  -21.4740  -29.2790   22.4150 N   0  0  0  0  0  0  0  0  0  0  0  0
  -23.4860  -28.8450   23.3460 O   0  0  0  0  0  0  0  0  0  0  0  0
  -20.9760  -29.8290   21.7310 H   0  0  0  0  0  0  0  0  0  0  0  0
  -18.1110  -28.0260   22.9480 C   0  0  0  0  0  0  0  0  0  0  0  0
  -20.6690  -28.3310   23.1930 C   0  0  0  0  0  3  0  0  0  0  0  0
  -20.7880  -26.8980   22.6230 C   0  0  0  0  0  2  0  0  0  0  0  0
  -19.6830  -26.5550   21.6180 C   0  0  0  0  0  2  0  0  0  0  0  0
  -18.3040  -26.6780   22.2710 C   0  0  0  0  0  2  0  0  0  0  0  0
  -19.2200  -28.8080   23.3660 C   0  0  0  0  0  0  0  0  0  0  0  0
  -18.9830  -30.0670   23.9610 C   0  0  0  0  0  3  0  0  0  0  0  0
  -17.6700  -30.5430   24.1400 C   0  0  0  0  0  3  0  0  0  0  0  0
  -16.5760  -29.7580   23.7360 C   0  0  0  0  0  3  0  0  0  0  0  0
  -16.7970  -28.5010   23.1470 C   0  0  0  0  0  3  0  0  0  0  0  0
  -25.9080  -32.5640   23.8000 C   0  0  0  0  0  3  0  0  0  0  0  0
  -25.5680  -33.9600   24.1250 N   0  0  0  0  0  0  0  0  0  0  0  0
  -25.8810  -35.0220   23.3700 C   0  0  0  0  0  0  0  0  0  0  0  0
  -26.5500  -34.9300   22.3390 O   0  0  0  0  0  0  0  0  0  0  0  0
  -24.9720  -34.1030   24.9290 H   0  0  0  0  0  0  0  0  0  0  0  0
  -24.1210  -36.7910   23.0340 C   0  0  0  0  0  1  0  0  0  0  0  0
  -25.3760  -36.4040   23.8330 C   0  0  0  0  0  3  0  0  0  0  0  0
  -27.5040  -37.3290   24.6420 C   0  0  0  0  0  1  0  0  0  0  0  0
  -26.3900  -37.4750   23.7080 N   0  0  0  0  0  0  0  0  0  0  0  0
  -25.9690  -38.3880   23.8590 H   0  0  0  0  0  0  0  0  0  0  0  0
  -26.4300  -31.8170   25.0890 C   0  0  1  0  0  0  0  0  0  0  0  0
  -25.3370  -31.5770   26.1590 C   0  0  0  0  0  1  0  0  0  0  0  0
  -27.0330  -30.4420   24.7210 C   0  0  0  0  0  1  0  0  0  0  0  0
  -27.5680  -32.6360   25.7440 C   0  0  0  0  0  1  0  0  0  0  0  0
  2  1  1  0
  3  2  1  0
  3  7  1  0
  4  3  1  0
  5  3  1  0
  7  6  1  0
  8 10  1  0
  8  7  1  0
 10  9  1  0
 11 10  1  0
 12 17  1  0
 13 14  1  0
 13 12  1  0
 15 14  1  0
 15 22  1  0
 15 16  1  0
 17 11  1  0
 17 16  1  0
 18 11  2  0
 19 20  2  0
 20 39  1  0
 21 20  1  0
 21 24  1  0
 22 23  1  0
 22 19  1  0
 23 21  2  0
 24 25  1  0
 25 26  2  0
 27 30  1  0
 27 26  1  0
 28 27  2  0
 29 28  1  0
 29 24  2  0
 30 31  1  0
 31 32  1  0
 32 33  2  0
 34 33  1  0
 34 38  1  0
 35 34  2  0
 36 31  2  0
 36 35  1  0
 37 36  1  0
 39 40  1  0
 40 43  1  0
 40 42  1  0
 41 39  2  0
 44 45  1  0
 44 19  1  0
 46 44  1  0
 47 48  1  0
 47  2  1  0
 49 60  2  0
 50 48  1  0
 50 55  1  0
 51 59  1  0
 51 61  1  0
 52 58  1  0
 52 54  1  0
 53 59  1  0
 54 53  1  0
 55 54  2  0
 56 50  2  0
 57 56  1  0
 57 52  2  0
 58 51  1  0
 59 49  1  0
 61 63  2  0
 62 61  1  0
 64 62  1  0
 65 74  2  0
 65 70  1  0
 66 62  1  0
 66 70  1  0
 67 66  1  0
 68 69  1  0
 68 67  1  0
 69 65  1  0
 70 71  2  0
 71 72  1  0
 73 72  2  0
 74 73  1  0
 75 49  1  0
 75 76  1  0
 75 85  1  0
 76 79  1  0
 77 81  1  0
 77 76  1  0
 78 77  2  0
 81 80  1  0
 83 81  1  0
 83 84  1  0
 83 82  1  0
 85 88  1  1
 85 86  1  0
 87 85  1  0
M  ISO  4  10 100  11 100  47 101  48 101
M  END
>  <TORSDO>  (85) 
F 21

>  <SCORE>  (85) 
-13.795

>  <name>  (85) 
85

>  <ligand_id>  (85) 
85

>  <original_smiles>  (85) 
[H]c1c([H])c([H])c2c(c1[H])C([H])([H])C([H])([H])C([H])([H])C2([H])N([H])C(=O)C1([H])N(C(=O)C([H])(N([H])C(=O)C([H])(N([H])C([H])([H])[H])C([H])([H])[H])C(C([H])([H])[H])(C([H])([H])[H])C([H])([H])[H])C([H])([H])c2c([H])c(OC([H])([H])C([H])(C([H])([H])[H])[N+]([H])([H])C([H])(C([H])([H])[H])C([H])([H])C([H])(C(=O)N3C([H])([H])C([H])([H])C([H])([H])C([H])(n4nc(-c5c([H])c([H])c(Oc6c([H])c([H])c(F)c([H])c6F)c([H])c5[H])c(C(=O)N([H])[H])c4N([H])[H])C3([H])[H])C([H])([H])[H])c([H])c([H])c2C1([H])[H]

>  <smiles>  (85) 
[H]c1c([H])c([H])c2c(c1[H])C([H])([H])C([H])([H])C([H])([H])C2([H])N([H])C(=O)C1([H])N(C(=O)C([H])(N([H])C(=O)C([H])(N([H])C([H])([H])[H])C([H])([H])[H])C(C([H])([H])[H])(C([H])([H])[H])C([H])([H])[H])C([H])([H])c2c([H])c(OC([H])([H])C([H])(C([H])([H])[H])[N+]([H])([H])C([H])(C([H])([H])[H])C([H])([H])C([H])(C(=O)N3C([H])([H])C([H])([H])C([H])([H])C([H])(n4nc(-c5c([H])c([H])c(Oc6c([H])c([H])c(F)c([H])c6F)c([H])c5[H])c(C(=O)N([H])[H])c4N([H])[H])C3([H])[H])C([H])([H])[H])c([H])c([H])c2C1([H])[H]

$$$$
86:0:0
     RDKit          3D

 99106  0  0  1  0  0  0  0  0999 V2000
  -29.6680  -23.3060   20.3630 C   0  0  0  0  0  3  0  0  0  0  0  0
  -29.7800  -20.8200   20.7380 C   0  0  0  0  0  0  0  0  0  0  0  0
  -29.3990  -21.8980   20.0230 N   0  0  0  0  0  0  0  0  0  0  0  0
  -29.9900  -20.8640   21.9540 O   0  0  0  0  0  0  0  0  0  0  0  0
  -29.1480  -21.7200   19.0570 H   0  0  0  0  0  0  0  0  0  0  0  0
  -30.0830  -19.5220   19.9480 C   0  0  0  0  0  3  0  0  0  0  0  0
  -30.0290  -18.3260   20.8440 N   0  0  0  0  0  4  0  0  0  0  0  0
  -30.6700  -18.4970   21.6020 H   0  0  0  0  0  0  0  0  0  0  0  0
  -29.1060  -18.3180   21.2500 H   0  0  0  0  0  0  0  0  0  0  0  0
  -30.3040  -17.0020   20.2120 C   0  0  0  0  0  2  0  0  0  0  0  0
  -30.0100  -15.7490   21.0950 C   0  0  0  0  0  2  0  0  0  0  0  0
  -30.6760  -14.4740   20.5130 C   0  0  0  0  0  0  0  0  0  0  0  0
  -30.3620  -12.3180   19.3550 C   0  0  0  0  0  2  0  0  0  0  0  0
  -29.4420  -12.5500   18.1380 C   0  0  0  0  0  2  0  0  0  0  0  0
  -27.9610  -12.4320   18.5480 C   0  0  0  0  0  2  0  0  0  0  0  0
  -27.6180  -13.2630   19.8140 C   0  0  0  0  0  3  0  0  0  0  0  0
  -28.6580  -13.0210   20.9320 C   0  0  0  0  0  2  0  0  0  0  0  0
  -29.9900  -13.3050   20.3820 N   0  0  0  0  0  0  0  0  0  0  0  0
  -31.8170  -14.6000   20.0610 O   0  0  0  0  0  0  0  0  0  0  0  0
  -25.2070  -13.8820   20.4680 C   0  0  0  0  0  0  0  0  0  0  0  0
  -24.1300  -13.1160   20.8250 C   0  0  0  0  0  0  0  0  0  0  0  0
  -24.5890  -11.7650   20.8230 C   0  0  0  0  0  0  0  0  0  0  0  0
  -26.2550  -12.9970   20.2730 N   0  0  0  0  0  0  0  0  0  0  0  0
  -25.8850  -11.7200   20.5440 N   0  0  0  0  0  0  0  0  0  0  0  0
  -23.8560  -10.5070   21.0190 C   0  0  0  0  0  0  0  0  0  0  0  0
  -24.2780   -9.5470   21.9660 C   0  0  0  0  0  3  0  0  0  0  0  0
  -23.5480   -8.3520   22.1470 C   0  0  0  0  0  3  0  0  0  0  0  0
  -22.3820   -8.1090   21.3820 C   0  0  0  0  0  0  0  0  0  0  0  0
  -21.9790   -9.0590   20.4250 C   0  0  0  0  0  3  0  0  0  0  0  0
  -22.7090  -10.2450   20.2430 C   0  0  0  0  0  3  0  0  0  0  0  0
  -21.6230   -6.9670   21.4730 O   0  0  0  0  0  0  0  0  0  0  0  0
  -21.5720   -6.2290   22.6280 C   0  0  0  0  0  0  0  0  0  0  0  0
  -21.1610   -6.7920   23.8560 C   0  0  0  0  0  3  0  0  0  0  0  0
  -21.0550   -5.9800   25.0010 C   0  0  0  0  0  3  0  0  0  0  0  0
  -21.3500   -4.6050   24.9220 C   0  0  0  0  0  0  0  0  0  0  0  0
  -21.7540   -4.0420   23.6990 C   0  0  0  0  0  3  0  0  0  0  0  0
  -21.8620   -4.8520   22.5550 C   0  0  0  0  0  0  0  0  0  0  0  0
  -22.2310   -4.3000   21.3740 F   0  0  0  0  0  0  0  0  0  0  0  0
  -21.2410   -3.8210   26.0210 F   0  0  0  0  0  0  0  0  0  0  0  0
  -22.7280  -13.6010   21.0650 C   0  0  0  0  0  0  0  0  0  0  0  0
  -21.9840  -12.9150   21.9260 N   0  0  0  0  0  0  0  0  0  0  0  0
  -22.2990  -14.6190   20.5230 O   0  0  0  0  0  0  0  0  0  0  0  0
  -22.3420  -12.0930   22.3880 H   0  0  0  0  0  0  0  0  0  0  0  0
  -21.0420  -13.2180   22.1300 H   0  0  0  0  0  0  0  0  0  0  0  0
  -25.3790  -15.2500   20.2720 N   0  0  0  0  0  0  0  0  0  0  0  0
  -24.6110  -15.9050   20.3450 H   0  0  0  0  0  0  0  0  0  0  0  0
  -26.2340  -15.6740   19.9350 H   0  0  0  0  0  0  0  0  0  0  0  0
  -31.5690  -18.9420   17.8530 C   0  0  0  0  0  1  0  0  0  0  0  0
  -32.7150  -19.5600   20.0630 C   0  0  0  0  0  1  0  0  0  0  0  0
  -31.4490  -19.7120   19.1860 C   0  0  0  0  0  3  0  0  0  0  0  0
  -30.9240  -23.6940   19.5380 C   0  0  0  0  0  2  0  0  0  0  0  0
  -31.4360  -25.1380   19.7050 C   0  0  0  0  0  2  0  0  0  0  0  0
  -32.8360  -26.8370   18.6060 C   0  0  0  0  0  1  0  0  0  0  0  0
  -33.8980  -24.8550   19.5880 C   0  0  0  0  0  1  0  0  0  0  0  0
  -32.6830  -25.4020   18.9370 N   0  0  1  0  0  4  0  0  0  0  0  0
  -32.5950  -24.9330   18.0480 H   0  0  0  0  0  0  0  0  0  0  0  0
  -28.4340  -24.2200   20.0910 C   0  0  0  0  0  2  0  0  0  0  0  0
  -28.3690  -25.5240   20.9370 C   0  0  0  0  0  2  0  0  0  0  0  0
  -28.3900  -26.7250   20.1520 O   0  0  0  0  0  0  0  0  0  0  0  0
  -24.5900  -31.8850   23.2470 C   0  0  0  0  0  0  0  0  0  0  0  0
  -27.2220  -27.4520   20.1640 C   0  0  0  0  0  0  0  0  0  0  0  0
  -23.3750  -30.4820   21.6100 C   0  0  0  0  0  3  0  0  0  0  0  0
  -24.8240  -28.9440   20.1780 C   0  0  0  0  0  0  0  0  0  0  0  0
  -25.8960  -30.8480   21.3950 C   0  0  0  0  0  2  0  0  0  0  0  0
  -25.9820  -29.4770   20.7580 C   0  0  0  0  0  0  0  0  0  0  0  0
  -27.1860  -28.7390   20.7440 C   0  0  0  0  0  3  0  0  0  0  0  0
  -26.0510  -26.9260   19.5830 C   0  0  0  0  0  3  0  0  0  0  0  0
  -24.8530  -27.6660   19.5870 C   0  0  0  0  0  3  0  0  0  0  0  0
  -23.5770  -29.7980   20.2310 C   0  0  0  0  0  2  0  0  0  0  0  0
  -24.6390  -31.0870   22.1420 N   0  0  0  0  0  0  0  0  0  0  0  0
  -23.5120  -32.1560   23.7940 O   0  0  0  0  0  0  0  0  0  0  0  0
  -22.7310  -29.4620   22.5770 C   0  0  0  0  0  0  0  0  0  0  0  0
  -21.4060  -29.2770   22.4560 N   0  0  0  0  0  0  0  0  0  0  0  0
  -23.4200  -28.8370   23.3870 O   0  0  0  0  0  0  0  0  0  0  0  0
  -20.9120  -29.8340   21.7730 H   0  0  0  0  0  0  0  0  0  0  0  0
  -18.0400  -28.0710   22.9640 C   0  0  0  0  0  0  0  0  0  0  0  0
  -20.5970  -28.3390   23.2310 C   0  0  0  0  0  3  0  0  0  0  0  0
  -20.7030  -26.9070   22.6590 C   0  0  0  0  0  2  0  0  0  0  0  0
  -19.6020  -26.5780   21.6470 C   0  0  0  0  0  2  0  0  0  0  0  0
  -18.2200  -26.7200   22.2920 C   0  0  0  0  0  2  0  0  0  0  0  0
  -19.1560  -28.8380   23.3900 C   0  0  0  0  0  0  0  0  0  0  0  0
  -18.9350  -30.1040   23.9760 C   0  0  0  0  0  3  0  0  0  0  0  0
  -17.6300  -30.6020   24.1400 C   0  0  0  0  0  3  0  0  0  0  0  0
  -16.5270  -29.8320   23.7310 C   0  0  0  0  0  3  0  0  0  0  0  0
  -16.7330  -28.5680   23.1480 C   0  0  0  0  0  3  0  0  0  0  0  0
  -25.8810  -32.5170   23.8570 C   0  0  0  0  0  3  0  0  0  0  0  0
  -25.5760  -33.9160   24.1850 N   0  0  0  0  0  0  0  0  0  0  0  0
  -25.9070  -34.9660   23.4220 C   0  0  0  0  0  0  0  0  0  0  0  0
  -26.5710  -34.8590   22.3860 O   0  0  0  0  0  0  0  0  0  0  0  0
  -24.9870  -34.0740   24.9890 H   0  0  0  0  0  0  0  0  0  0  0  0
  -24.1760  -36.7580   23.0700 C   0  0  0  0  0  1  0  0  0  0  0  0
  -25.4220  -36.3560   23.8770 C   0  0  0  0  0  3  0  0  0  0  0  0
  -27.5620  -37.2410   24.6900 C   0  0  0  0  0  1  0  0  0  0  0  0
  -26.4530  -37.4090   23.7550 N   0  0  0  0  0  0  0  0  0  0  0  0
  -26.0480  -38.3290   23.9050 H   0  0  0  0  0  0  0  0  0  0  0  0
  -26.4100  -31.7470   25.1280 C   0  0  1  0  0  0  0  0  0  0  0  0
  -25.3290  -31.5090   26.2090 C   0  0  0  0  0  1  0  0  0  0  0  0
  -26.9890  -30.3690   24.7290 C   0  0  0  0  0  1  0  0  0  0  0  0
  -27.5660  -32.5420   25.7790 C   0  0  0  0  0  1  0  0  0  0  0  0
  1 51  1  0
  2  4  2  0
  3  1  1  0
  3  2  1  0
  5  3  1  0
  6 50  1  0
  6  2  1  0
  6  7  1  0
  7  9  1  0
  7  8  1  0
 10  7  1  0
 10 11  1  0
 12 11  1  0
 13 18  1  0
 14 15  1  0
 14 13  1  0
 16 15  1  0
 16 23  1  0
 16 17  1  0
 18 12  1  0
 18 17  1  0
 19 12  2  0
 20 21  2  0
 21 40  1  0
 22 21  1  0
 22 25  1  0
 23 20  1  0
 23 24  1  0
 24 22  2  0
 25 26  1  0
 26 27  2  0
 28 31  1  0
 28 27  1  0
 29 28  2  0
 30 29  1  0
 30 25  2  0
 31 32  1  0
 32 33  1  0
 33 34  2  0
 35 34  1  0
 35 39  1  0
 36 35  2  0
 37 32  2  0
 37 36  1  0
 38 37  1  0
 40 41  1  0
 41 44  1  0
 41 43  1  0
 42 40  2  0
 45 46  1  0
 45 20  1  0
 47 45  1  0
 48 50  1  0
 50 49  1  0
 51 52  1  0
 53 55  1  0
 55 54  1  0
 55 52  1  0
 55 56  1  6
 57  1  1  0
 57 58  1  0
 59 61  1  0
 59 58  1  0
 60 71  2  0
 61 66  1  0
 62 70  1  0
 62 72  1  0
 63 69  1  0
 63 65  1  0
 64 70  1  0
 65 64  1  0
 66 65  2  0
 67 68  1  0
 67 61  2  0
 68 63  2  0
 69 62  1  0
 70 60  1  0
 72 74  2  0
 73 72  1  0
 75 73  1  0
 76 85  2  0
 76 81  1  0
 77 73  1  0
 77 81  1  0
 78 77  1  0
 79 80  1  0
 79 78  1  0
 80 76  1  0
 81 82  2  0
 82 83  1  0
 84 83  2  0
 85 84  1  0
 86 60  1  0
 86 87  1  0
 86 96  1  0
 87 90  1  0
 88 92  1  0
 88 87  1  0
 89 88  2  0
 92 91  1  0
 94 92  1  0
 94 95  1  0
 94 93  1  0
 96 99  1  1
 96 97  1  0
 98 96  1  0
M  ISO  4  11 100  12 100  58 101  59 101
M  END
>  <TORSDO>  (86) 
F 27

>  <SCORE>  (86) 
-11.775

>  <name>  (86) 
86

>  <ligand_id>  (86) 
86

>  <original_smiles>  (86) 
[H]c1c([H])c([H])c2c(c1[H])C([H])([H])C([H])([H])C([H])([H])C2([H])N([H])C(=O)C1([H])N(C(=O)C([H])(N([H])C(=O)C([H])(N([H])C([H])([H])[H])C([H])([H])[H])C(C([H])([H])[H])(C([H])([H])[H])C([H])([H])[H])C([H])([H])c2c([H])c(OC([H])([H])C([H])([H])C([H])(N([H])C(=O)C([H])(C([H])(C([H])([H])[H])C([H])([H])[H])[N+]([H])([H])C([H])([H])C([H])([H])C(=O)N3C([H])([H])C([H])([H])C([H])([H])C([H])(n4nc(-c5c([H])c([H])c(Oc6c([H])c([H])c(F)c([H])c6F)c([H])c5[H])c(C(=O)N([H])[H])c4N([H])[H])C3([H])[H])C([H])([H])C([H])([H])[N+]([H])(C([H])([H])[H])C([H])([H])[H])c([H])c([H])c2C1([H])[H]

>  <smiles>  (86) 
[H]c1c([H])c([H])c2c(c1[H])C([H])([H])C([H])([H])C([H])([H])C2([H])N([H])C(=O)C1([H])N(C(=O)C([H])(N([H])C(=O)C([H])(N([H])C([H])([H])[H])C([H])([H])[H])C(C([H])([H])[H])(C([H])([H])[H])C([H])([H])[H])C([H])([H])c2c([H])c(OC([H])([H])C([H])([H])C([H])(N([H])C(=O)C([H])(C([H])(C([H])([H])[H])C([H])([H])[H])[N+]([H])([H])C([H])([H])C([H])([H])C(=O)N3C([H])([H])C([H])([H])C([H])([H])C([H])(n4nc(-c5c([H])c([H])c(Oc6c([H])c([H])c(F)c([H])c6F)c([H])c5[H])c(C(=O)N([H])[H])c4N([H])[H])C3([H])[H])C([H])([H])C([H])([H])[N+]([H])(C([H])([H])[H])C([H])([H])[H])c([H])c([H])c2C1([H])[H]

$$$$
87:0:0
     RDKit          3D

 93100  0  0  1  0  0  0  0  0999 V2000
  -27.6420  -22.2210   20.9180 C   0  0  0  0  0  1  0  0  0  0  0  0
  -29.0930  -22.3660   21.0440 N   0  0  0  0  0  0  0  0  0  0  0  0
  -29.6240  -23.3890   20.1250 C   0  0  0  0  0  2  0  0  0  0  0  0
  -29.1480  -25.0960   22.0050 C   0  0  0  0  0  1  0  0  0  0  0  0
  -29.2860  -24.8620   20.4880 C   0  0  0  0  0  3  0  0  0  0  0  0
  -28.1030  -25.4510   19.6920 C   0  0  0  0  0  2  0  0  0  0  0  0
  -28.1680  -26.8800   19.7340 O   0  0  0  0  0  0  0  0  0  0  0  0
  -24.5410  -31.9030   23.1830 C   0  0  0  0  0  0  0  0  0  0  0  0
  -26.9820  -27.5790   19.8020 C   0  0  0  0  0  0  0  0  0  0  0  0
  -23.2340  -30.5610   21.5670 C   0  0  0  0  0  3  0  0  0  0  0  0
  -24.5930  -29.0780   20.0020 C   0  0  0  0  0  0  0  0  0  0  0  0
  -25.7420  -30.9280   21.2300 C   0  0  0  0  0  2  0  0  0  0  0  0
  -25.7830  -29.5810   20.5410 C   0  0  0  0  0  0  0  0  0  0  0  0
  -26.9790  -28.8410   20.4360 C   0  0  0  0  0  3  0  0  0  0  0  0
  -25.7750  -27.0930   19.2460 C   0  0  0  0  0  3  0  0  0  0  0  0
  -24.5840  -27.8340   19.3470 C   0  0  0  0  0  3  0  0  0  0  0  0
  -23.3570  -29.9310   20.1520 C   0  0  0  0  0  2  0  0  0  0  0  0
  -24.5270  -31.1440   22.0510 N   0  0  0  0  0  0  0  0  0  0  0  0
  -23.4960  -32.1550   23.7970 O   0  0  0  0  0  0  0  0  0  0  0  0
  -22.6410  -29.5050   22.5270 C   0  0  0  0  0  0  0  0  0  0  0  0
  -21.3200  -29.2860   22.4300 N   0  0  0  0  0  0  0  0  0  0  0  0
  -23.3630  -28.8870   23.3160 O   0  0  0  0  0  0  0  0  0  0  0  0
  -20.7970  -29.8350   21.7640 H   0  0  0  0  0  0  0  0  0  0  0  0
  -18.0060  -27.9350   22.9370 C   0  0  0  0  0  0  0  0  0  0  0  0
  -20.5500  -28.3140   23.2070 C   0  0  0  0  0  3  0  0  0  0  0  0
  -20.7210  -26.8860   22.6410 C   0  0  0  0  0  2  0  0  0  0  0  0
  -19.6350  -26.5070   21.6280 C   0  0  0  0  0  2  0  0  0  0  0  0
  -18.2480  -26.5910   22.2710 C   0  0  0  0  0  2  0  0  0  0  0  0
  -19.0880  -28.7520   23.3620 C   0  0  0  0  0  0  0  0  0  0  0  0
  -18.8090  -30.0090   23.9400 C   0  0  0  0  0  3  0  0  0  0  0  0
  -17.4820  -30.4500   24.1020 C   0  0  0  0  0  3  0  0  0  0  0  0
  -16.4150  -29.6300   23.6950 C   0  0  0  0  0  3  0  0  0  0  0  0
  -16.6790  -28.3750   23.1170 C   0  0  0  0  0  3  0  0  0  0  0  0
  -25.8640  -32.5100   23.7460 C   0  0  0  0  0  3  0  0  0  0  0  0
  -26.4490  -31.7030   24.9690 C   0  0  1  0  0  0  0  0  0  0  0  0
  -25.4190  -31.4410   26.0910 C   0  0  0  0  0  1  0  0  0  0  0  0
  -26.9990  -30.3360   24.5020 C   0  0  0  0  0  1  0  0  0  0  0  0
  -27.6430  -32.4720   25.5820 C   0  0  0  0  0  1  0  0  0  0  0  0
  -25.5870  -33.9010   24.1290 N   0  0  0  0  0  0  0  0  0  0  0  0
  -25.8950  -34.9700   23.3820 C   0  0  0  0  0  0  0  0  0  0  0  0
  -26.5150  -34.8880   22.3180 O   0  0  0  0  0  0  0  0  0  0  0  0
  -25.0390  -34.0420   24.9650 H   0  0  0  0  0  0  0  0  0  0  0  0
  -24.1740  -36.7840   23.1390 C   0  0  0  0  0  1  0  0  0  0  0  0
  -25.4380  -36.3470   23.8960 C   0  0  0  0  0  3  0  0  0  0  0  0
  -27.6120  -37.1810   24.6740 C   0  0  0  0  0  1  0  0  0  0  0  0
  -26.4780  -37.3930   23.7780 N   0  0  0  0  0  0  0  0  0  0  0  0
  -26.0890  -38.3120   23.9730 H   0  0  0  0  0  0  0  0  0  0  0  0
  -29.7230  -21.0620   20.8020 C   0  0  0  0  0  2  0  0  0  0  0  0
  -29.8470  -20.2500   22.1130 C   0  0  0  0  0  2  0  0  0  0  0  0
  -31.7290  -19.1970   23.3220 C   0  0  0  0  0  1  0  0  0  0  0  0
  -30.9720  -19.2850   22.0480 N   0  0  1  0  0  4  0  0  0  0  0  0
  -31.6110  -19.6860   21.3790 H   0  0  0  0  0  0  0  0  0  0  0  0
  -30.5890  -17.9420   21.5330 C   0  0  0  0  0  2  0  0  0  0  0  0
  -31.7510  -17.2610   20.7750 C   0  0  0  0  0  2  0  0  0  0  0  0
  -32.0030  -15.7870   21.1500 C   0  0  0  0  0  2  0  0  0  0  0  0
  -31.1410  -14.0920   19.5410 C   0  0  0  0  0  0  0  0  0  0  0  0
  -30.5710  -11.9050   18.5540 C   0  0  0  0  0  2  0  0  0  0  0  0
  -29.5380  -12.0030   17.4180 C   0  0  0  0  0  2  0  0  0  0  0  0
  -28.1110  -11.9480   17.9880 C   0  0  0  0  0  2  0  0  0  0  0  0
  -27.9020  -12.9670   19.1370 C   0  0  0  0  0  3  0  0  0  0  0  0
  -29.0330  -12.8690   20.1850 C   0  0  0  0  0  2  0  0  0  0  0  0
  -30.3330  -13.0030   19.5020 N   0  0  0  0  0  0  0  0  0  0  0  0
  -32.0420  -14.3030   18.7270 O   0  0  0  0  0  0  0  0  0  0  0  0
  -31.0040  -14.8440   20.6410 N   0  0  0  0  0  0  0  0  0  0  0  0
  -30.2710  -14.5610   21.2760 H   0  0  0  0  0  0  0  0  0  0  0  0
  -25.6480  -13.7750   20.0850 C   0  0  0  0  0  0  0  0  0  0  0  0
  -24.5620  -13.0950   20.5670 C   0  0  0  0  0  0  0  0  0  0  0  0
  -24.9000  -11.7090   20.4970 C   0  0  0  0  0  0  0  0  0  0  0  0
  -26.5850  -12.8090   19.7540 N   0  0  0  0  0  0  0  0  0  0  0  0
  -26.1440  -11.5600   20.0580 N   0  0  0  0  0  0  0  0  0  0  0  0
  -24.0930  -10.5130   20.7690 C   0  0  0  0  0  0  0  0  0  0  0  0
  -24.5110   -9.5360   21.7000 C   0  0  0  0  0  3  0  0  0  0  0  0
  -23.7090   -8.4040   21.9580 C   0  0  0  0  0  3  0  0  0  0  0  0
  -22.4760   -8.2410   21.2850 C   0  0  0  0  0  0  0  0  0  0  0  0
  -22.0760   -9.2030   20.3420 C   0  0  0  0  0  3  0  0  0  0  0  0
  -22.8780  -10.3260   20.0820 C   0  0  0  0  0  3  0  0  0  0  0  0
  -21.6430   -7.1610   21.4520 O   0  0  0  0  0  0  0  0  0  0  0  0
  -21.5860   -6.4720   22.6370 C   0  0  0  0  0  0  0  0  0  0  0  0
  -21.2540   -7.1080   23.8540 C   0  0  0  0  0  3  0  0  0  0  0  0
  -21.1400   -6.3490   25.0360 C   0  0  0  0  0  3  0  0  0  0  0  0
  -21.3450   -4.9560   25.0030 C   0  0  0  0  0  0  0  0  0  0  0  0
  -21.6700   -4.3220   23.7910 C   0  0  0  0  0  3  0  0  0  0  0  0
  -21.7870   -5.0770   22.6120 C   0  0  0  0  0  0  0  0  0  0  0  0
  -22.0790   -4.4560   21.4430 F   0  0  0  0  0  0  0  0  0  0  0  0
  -21.2280   -4.2270   26.1360 F   0  0  0  0  0  0  0  0  0  0  0  0
  -23.2460  -13.6890   20.9800 C   0  0  0  0  0  0  0  0  0  0  0  0
  -22.5690  -13.0710   21.9410 N   0  0  0  0  0  0  0  0  0  0  0  0
  -22.8320  -14.7360   20.4830 O   0  0  0  0  0  0  0  0  0  0  0  0
  -22.9200  -12.2220   22.3610 H   0  0  0  0  0  0  0  0  0  0  0  0
  -21.6900  -13.4500   22.2620 H   0  0  0  0  0  0  0  0  0  0  0  0
  -25.9080  -15.1270   19.8850 N   0  0  0  0  0  0  0  0  0  0  0  0
  -25.2110  -15.8430   20.0610 H   0  0  0  0  0  0  0  0  0  0  0  0
  -26.7600  -15.4950   19.4790 H   0  0  0  0  0  0  0  0  0  0  0  0
  1  2  1  0
  3  5  1  0
  3  2  1  0
  5  4  1  0
  6  7  1  0
  6  5  1  0
  7  9  1  0
  8 19  2  0
  9 14  1  0
 10 18  1  0
 10 20  1  0
 11 17  1  0
 11 13  1  0
 12 18  1  0
 13 12  1  0
 14 13  2  0
 15 16  1  0
 15  9  2  0
 16 11  2  0
 17 10  1  0
 18  8  1  0
 20 22  2  0
 21 20  1  0
 23 21  1  0
 24 33  2  0
 24 29  1  0
 25 21  1  0
 25 29  1  0
 26 25  1  0
 27 28  1  0
 27 26  1  0
 28 24  1  0
 29 30  2  0
 30 31  1  0
 32 31  2  0
 33 32  1  0
 34  8  1  0
 34 39  1  0
 34 35  1  0
 35 38  1  1
 35 36  1  0
 37 35  1  0
 39 42  1  0
 40 44  1  0
 40 39  1  0
 41 40  2  0
 44 43  1  0
 46 44  1  0
 46 47  1  0
 46 45  1  0
 48  2  1  0
 48 49  1  0
 51 49  1  0
 51 50  1  0
 51 52  1  6
 53 51  1  0
 54 55  1  0
 54 53  1  0
 56 64  1  0
 57 62  1  0
 58 59  1  0
 58 57  1  0
 60 59  1  0
 60 69  1  0
 60 61  1  0
 62 56  1  0
 62 61  1  0
 63 56  2  0
 64 55  1  0
 64 65  1  0
 66 67  2  0
 67 86  1  0
 68 67  1  0
 68 71  1  0
 69 70  1  0
 69 66  1  0
 70 68  2  0
 71 72  1  0
 72 73  2  0
 74 77  1  0
 74 73  1  0
 75 74  2  0
 76 75  1  0
 76 71  2  0
 77 78  1  0
 78 79  1  0
 79 80  2  0
 81 80  1  0
 81 85  1  0
 82 81  2  0
 83 78  2  0
 83 82  1  0
 84 83  1  0
 86 87  1  0
 87 90  1  0
 87 89  1  0
 88 86  2  0
 91 92  1  0
 91 66  1  0
 93 91  1  0
M  ISO  4   6 101   7 101  56 100  64 100
M  END
>  <TORSDO>  (87) 
F 25

>  <SCORE>  (87) 
-10.700

>  <name>  (87) 
87

>  <ligand_id>  (87) 
87

>  <original_smiles>  (87) 
[H]c1c([H])c([H])c2c(c1[H])C([H])([H])C([H])([H])C([H])([H])C2([H])N([H])C(=O)C1([H])N(C(=O)C([H])(N([H])C(=O)C([H])(N([H])C([H])([H])[H])C([H])([H])[H])C(C([H])([H])[H])(C([H])([H])[H])C([H])([H])[H])C([H])([H])c2c([H])c(OC([H])([H])C([H])(C([H])([H])[H])C([H])([H])N(C([H])([H])[H])C([H])([H])C([H])([H])[N+]([H])(C([H])([H])[H])C([H])([H])C([H])([H])C([H])([H])N([H])C(=O)N3C([H])([H])C([H])([H])C([H])([H])C([H])(n4nc(-c5c([H])c([H])c(Oc6c([H])c([H])c(F)c([H])c6F)c([H])c5[H])c(C(=O)N([H])[H])c4N([H])[H])C3([H])[H])c([H])c([H])c2C1([H])[H]

>  <smiles>  (87) 
[H]c1c([H])c([H])c2c(c1[H])C([H])([H])C([H])([H])C([H])([H])C2([H])N([H])C(=O)C1([H])N(C(=O)C([H])(N([H])C(=O)C([H])(N([H])C([H])([H])[H])C([H])([H])[H])C(C([H])([H])[H])(C([H])([H])[H])C([H])([H])[H])C([H])([H])c2c([H])c(OC([H])([H])C([H])(C([H])([H])[H])C([H])([H])N(C([H])([H])[H])C([H])([H])C([H])([H])[N+]([H])(C([H])([H])[H])C([H])([H])C([H])([H])C([H])([H])N([H])C(=O)N3C([H])([H])C([H])([H])C([H])([H])C([H])(n4nc(-c5c([H])c([H])c(Oc6c([H])c([H])c(F)c([H])c6F)c([H])c5[H])c(C(=O)N([H])[H])c4N([H])[H])C3([H])[H])c([H])c([H])c2C1([H])[H]

$$$$
88:0:0
     RDKit          3D

 89 96  0  0  1  0  0  0  0  0999 V2000
  -29.6510  -20.6790   20.1430 C   0  0  0  0  0  3  0  0  0  0  0  0
  -27.9420  -18.9400   20.7840 C   0  0  0  0  0  1  0  0  0  0  0  0
  -29.1900  -19.1690   20.0160 N   0  0  2  0  0  4  0  0  0  0  0  0
  -28.8840  -19.0960   19.0580 H   0  0  0  0  0  0  0  0  0  0  0  0
  -30.2140  -17.9590   20.1440 C   0  0  0  0  0  3  0  0  0  0  0  0
  -29.7050  -16.3780   20.3600 C   0  0  0  0  0  2  0  0  0  0  0  0
  -30.5520  -15.0240   19.9620 C   0  0  0  0  0  0  0  0  0  0  0  0
  -30.4060  -12.6910   18.9850 C   0  0  0  0  0  2  0  0  0  0  0  0
  -29.4060  -12.6920   17.8020 C   0  0  0  0  0  2  0  0  0  0  0  0
  -27.9630  -12.4850   18.3020 C   0  0  0  0  0  2  0  0  0  0  0  0
  -27.6260  -13.3990   19.5080 C   0  0  0  0  0  3  0  0  0  0  0  0
  -28.7290  -13.3740   20.5840 C   0  0  0  0  0  2  0  0  0  0  0  0
  -29.9890  -13.7550   19.9390 N   0  0  0  0  0  0  0  0  0  0  0  0
  -31.7090  -15.1330   19.5410 O   0  0  0  0  0  0  0  0  0  0  0  0
  -25.3020  -13.9890   20.4050 C   0  0  0  0  0  0  0  0  0  0  0  0
  -24.2520  -13.2180   20.8180 C   0  0  0  0  0  0  0  0  0  0  0  0
  -24.6980  -11.8620   20.7220 C   0  0  0  0  0  0  0  0  0  0  0  0
  -26.3150  -13.1070   20.0740 N   0  0  0  0  0  0  0  0  0  0  0  0
  -25.9670  -11.8210   20.3330 N   0  0  0  0  0  0  0  0  0  0  0  0
  -23.9710  -10.6020   20.9190 C   0  0  0  0  0  0  0  0  0  0  0  0
  -24.3910   -9.6530   21.8770 C   0  0  0  0  0  3  0  0  0  0  0  0
  -23.6640   -8.4580   22.0630 C   0  0  0  0  0  3  0  0  0  0  0  0
  -22.5080   -8.2010   21.2900 C   0  0  0  0  0  0  0  0  0  0  0  0
  -22.1080   -9.1390   20.3210 C   0  0  0  0  0  3  0  0  0  0  0  0
  -22.8340  -10.3270   20.1340 C   0  0  0  0  0  3  0  0  0  0  0  0
  -21.7530   -7.0570   21.3830 O   0  0  0  0  0  0  0  0  0  0  0  0
  -21.6060   -6.3870   22.5710 C   0  0  0  0  0  0  0  0  0  0  0  0
  -21.0110   -6.9920   23.6990 C   0  0  0  0  0  3  0  0  0  0  0  0
  -20.8120   -6.2450   24.8770 C   0  0  0  0  0  3  0  0  0  0  0  0
  -21.2020   -4.8920   24.9270 C   0  0  0  0  0  0  0  0  0  0  0  0
  -21.7910   -4.2870   23.8030 C   0  0  0  0  0  3  0  0  0  0  0  0
  -21.9880   -5.0310   22.6280 C   0  0  0  0  0  0  0  0  0  0  0  0
  -22.5360   -4.4360   21.5400 F   0  0  0  0  0  0  0  0  0  0  0  0
  -21.0060   -4.1720   26.0560 F   0  0  0  0  0  0  0  0  0  0  0  0
  -22.8810  -13.6980   21.1880 C   0  0  0  0  0  0  0  0  0  0  0  0
  -22.2020  -12.9850   22.0790 N   0  0  0  0  0  0  0  0  0  0  0  0
  -22.4230  -14.7410   20.7200 O   0  0  0  0  0  0  0  0  0  0  0  0
  -22.5860  -12.1400   22.4770 H   0  0  0  0  0  0  0  0  0  0  0  0
  -21.2840  -13.2880   22.3720 H   0  0  0  0  0  0  0  0  0  0  0  0
  -25.4750  -15.3640   20.2600 N   0  0  0  0  0  0  0  0  0  0  0  0
  -24.7200  -16.0200   20.4320 H   0  0  0  0  0  0  0  0  0  0  0  0
  -26.2910  -15.7940   19.8470 H   0  0  0  0  0  0  0  0  0  0  0  0
  -31.3410  -18.2750   21.1560 C   0  0  0  0  0  2  0  0  0  0  0  0
  -30.8830  -18.2400   22.5010 O   0  0  0  0  0  0  0  0  0  0  0  0
  -30.6510  -19.1240   22.7660 H   0  0  0  0  0  0  0  0  0  0  0  0
  -28.5920  -21.9730   20.0790 C   0  0  0  0  0  3  0  0  0  0  0  0
  -29.0280  -23.5850   20.1840 C   0  0  0  0  0  3  0  0  0  0  0  0
  -27.9800  -24.8620   19.9680 C   0  0  0  0  0  3  0  0  0  0  0  0
  -28.2600  -26.3630   20.1840 O   0  0  0  0  0  0  0  0  0  0  0  0
  -24.5980  -31.9290   23.2450 C   0  0  0  0  0  0  0  0  0  0  0  0
  -27.1890  -27.3160   20.1350 C   0  0  0  0  0  0  0  0  0  0  0  0
  -23.3950  -30.5540   21.5890 C   0  0  0  0  0  3  0  0  0  0  0  0
  -24.8450  -29.0210   20.1350 C   0  0  0  0  0  0  0  0  0  0  0  0
  -25.9430  -30.8530   21.4150 C   0  0  0  0  0  2  0  0  0  0  0  0
  -26.0250  -29.4770   20.7370 C   0  0  0  0  0  0  0  0  0  0  0  0
  -27.1980  -28.6390   20.7230 C   0  0  0  0  0  3  0  0  0  0  0  0
  -25.9810  -26.9550   19.4960 C   0  0  0  0  0  3  0  0  0  0  0  0
  -24.8330  -27.7730   19.5010 C   0  0  0  0  0  3  0  0  0  0  0  0
  -23.6070  -29.8960   20.2010 C   0  0  0  0  0  2  0  0  0  0  0  0
  -24.6640  -31.1310   22.1370 N   0  0  0  0  0  0  0  0  0  0  0  0
  -23.5120  -32.2000   23.7820 O   0  0  0  0  0  0  0  0  0  0  0  0
  -22.7330  -29.5250   22.5400 C   0  0  0  0  0  0  0  0  0  0  0  0
  -21.4090  -29.3330   22.4020 N   0  0  0  0  0  0  0  0  0  0  0  0
  -23.4100  -28.9010   23.3620 O   0  0  0  0  0  0  0  0  0  0  0  0
  -20.9200  -29.8840   21.7100 H   0  0  0  0  0  0  0  0  0  0  0  0
  -18.0420  -28.0980   22.8940 C   0  0  0  0  0  0  0  0  0  0  0  0
  -20.5970  -28.3760   23.1590 C   0  0  0  0  0  3  0  0  0  0  0  0
  -20.7090  -26.9540   22.5640 C   0  0  0  0  0  2  0  0  0  0  0  0
  -19.6080  -26.6360   21.5470 C   0  0  0  0  0  2  0  0  0  0  0  0
  -18.2270  -26.7600   22.1950 C   0  0  0  0  0  2  0  0  0  0  0  0
  -19.1540  -28.8620   23.3330 C   0  0  0  0  0  0  0  0  0  0  0  0
  -18.9270  -30.1130   23.9470 C   0  0  0  0  0  3  0  0  0  0  0  0
  -17.6190  -30.6000   24.1270 C   0  0  0  0  0  3  0  0  0  0  0  0
  -16.5200  -29.8330   23.7040 C   0  0  0  0  0  3  0  0  0  0  0  0
  -16.7310  -28.5820   23.0960 C   0  0  0  0  0  3  0  0  0  0  0  0
  -25.8790  -32.5580   23.8770 C   0  0  0  0  0  3  0  0  0  0  0  0
  -25.5780  -33.9650   24.1800 N   0  0  0  0  0  0  0  0  0  0  0  0
  -25.8860  -35.0010   23.3880 C   0  0  0  0  0  0  0  0  0  0  0  0
  -26.5220  -34.8720   22.3380 O   0  0  0  0  0  0  0  0  0  0  0  0
  -25.0140  -34.1400   24.9980 H   0  0  0  0  0  0  0  0  0  0  0  0
  -24.1310  -36.7760   23.0770 C   0  0  0  0  0  1  0  0  0  0  0  0
  -25.4160  -36.4000   23.8310 C   0  0  0  0  0  3  0  0  0  0  0  0
  -27.5780  -37.3320   24.5320 C   0  0  0  0  0  1  0  0  0  0  0  0
  -26.4350  -37.4540   23.6300 N   0  0  0  0  0  0  0  0  0  0  0  0
  -26.0280  -38.3760   23.7570 H   0  0  0  0  0  0  0  0  0  0  0  0
  -26.3660  -31.8050   25.1770 C   0  0  1  0  0  0  0  0  0  0  0  0
  -25.2480  -31.5970   26.2250 C   0  0  0  0  0  1  0  0  0  0  0  0
  -26.9550  -30.4170   24.8300 C   0  0  0  0  0  1  0  0  0  0  0  0
  -27.5050  -32.6060   25.8520 C   0  0  0  0  0  1  0  0  0  0  0  0
  3  1  1  0
  3  5  1  0
  3  2  1  0
  3  4  1  6
  5  6  1  0
  5 43  1  0
  7  6  1  0
  8 13  1  0
  9 10  1  0
  9  8  1  0
 11 10  1  0
 11 18  1  0
 11 12  1  0
 13  7  1  0
 13 12  1  0
 14  7  2  0
 15 16  2  0
 16 35  1  0
 17 16  1  0
 17 20  1  0
 18 19  1  0
 18 15  1  0
 19 17  2  0
 20 21  1  0
 21 22  2  0
 23 26  1  0
 23 22  1  0
 24 23  2  0
 25 24  1  0
 25 20  2  0
 26 27  1  0
 27 32  2  0
 27 28  1  0
 28 29  2  0
 29 30  1  0
 30 34  1  0
 31 30  2  0
 32 31  1  0
 33 32  1  0
 35 36  1  0
 36 39  1  0
 36 38  1  0
 37 35  2  0
 40 15  1  0
 40 41  1  0
 42 40  1  0
 43 44  1  0
 44 45  1  0
 46  1  2  0
 46 47  1  0
 48 47  2  0
 48 49  1  0
 50 61  2  0
 51 49  1  0
 51 56  1  0
 52 60  1  0
 52 62  1  0
 53 59  1  0
 53 55  1  0
 54 60  1  0
 55 54  1  0
 56 55  2  0
 57 58  1  0
 57 51  2  0
 58 53  2  0
 59 52  1  0
 60 50  1  0
 62 64  2  0
 63 62  1  0
 65 63  1  0
 66 75  2  0
 66 71  1  0
 67 63  1  0
 67 71  1  0
 68 67  1  0
 69 70  1  0
 69 68  1  0
 70 66  1  0
 71 72  2  0
 72 73  1  0
 74 73  2  0
 75 74  1  0
 76 50  1  0
 76 77  1  0
 76 86  1  0
 77 80  1  0
 78 82  1  0
 78 77  1  0
 79 78  2  0
 82 81  1  0
 84 85  1  0
 84 82  1  0
 84 83  1  0
 86 89  1  1
 86 87  1  0
 88 86  1  0
M  ISO  4   6 100   7 100  48 101  49 101
M  END
>  <TORSDO>  (88) 
F 24

>  <SCORE>  (88) 
-12.149

>  <name>  (88) 
88

>  <ligand_id>  (88) 
88

>  <original_smiles>  (88) 
[H]OC([H])([H])C([H])(C([H])([H])C(=O)N1C([H])([H])C([H])([H])C([H])([H])C([H])(n2nc(-c3c([H])c([H])c(Oc4c([H])c([H])c(F)c([H])c4F)c([H])c3[H])c(C(=O)N([H])[H])c2N([H])[H])C1([H])[H])[N+]([H])(C([H])([H])[H])C([H])([H])C([H])([H])C([H])([H])C([H])([H])Oc1c([H])c([H])c2c(c1[H])C([H])([H])N(C(=O)C([H])(N([H])C(=O)C([H])(N([H])C([H])([H])[H])C([H])([H])[H])C(C([H])([H])[H])(C([H])([H])[H])C([H])([H])[H])C([H])(C(=O)N([H])C1([H])c3c([H])c([H])c([H])c([H])c3C([H])([H])C([H])([H])C1([H])[H])C2([H])[H]

>  <smiles>  (88) 
[H]OC([H])([H])C([H])(C([H])([H])C(=O)N1C([H])([H])C([H])([H])C([H])([H])C([H])(n2nc(-c3c([H])c([H])c(Oc4c([H])c([H])c(F)c([H])c4F)c([H])c3[H])c(C(=O)N([H])[H])c2N([H])[H])C1([H])[H])[N+]([H])(C([H])([H])[H])C([H])([H])C([H])([H])C([H])([H])C([H])([H])Oc1c([H])c([H])c2c(c1[H])C([H])([H])N(C(=O)C([H])(N([H])C(=O)C([H])(N([H])C([H])([H])[H])C([H])([H])[H])C(C([H])([H])[H])(C([H])([H])[H])C([H])([H])[H])C([H])(C(=O)N([H])C1([H])c3c([H])c([H])c([H])c([H])c3C([H])([H])C([H])([H])C1([H])[H])C2([H])[H]

$$$$
89:0:0
     RDKit          3D

 93100  0  0  1  0  0  0  0  0999 V2000
  -29.9560  -21.9470   20.3880 N   0  0  0  0  0  0  0  0  0  0  0  0
  -32.0050  -22.4150   21.8130 C   0  0  0  0  0  1  0  0  0  0  0  0
  -31.4380  -21.9990   20.4370 C   0  0  0  0  0  3  0  0  0  0  0  0
  -31.4220  -22.5910   17.9130 C   0  0  0  0  0  1  0  0  0  0  0  0
  -32.0600  -22.8270   19.2910 C   0  0  0  0  0  2  0  0  0  0  0  0
  -29.2510  -23.1000   20.9920 C   0  0  0  0  0  2  0  0  0  0  0  0
  -29.1700  -24.3790   20.1230 C   0  0  0  0  0  2  0  0  0  0  0  0
  -28.4020  -25.5060   20.8510 C   0  0  0  0  0  2  0  0  0  0  0  0
  -28.4050  -26.7240   20.0990 O   0  0  0  0  0  0  0  0  0  0  0  0
  -24.5980  -31.8710   23.2260 C   0  0  0  0  0  0  0  0  0  0  0  0
  -27.2320  -27.4400   20.1410 C   0  0  0  0  0  0  0  0  0  0  0  0
  -23.3800  -30.4640   21.5960 C   0  0  0  0  0  3  0  0  0  0  0  0
  -24.8300  -28.9240   20.1670 C   0  0  0  0  0  0  0  0  0  0  0  0
  -25.9000  -30.8320   21.3750 C   0  0  0  0  0  2  0  0  0  0  0  0
  -25.9890  -29.4590   20.7420 C   0  0  0  0  0  0  0  0  0  0  0  0
  -27.1950  -28.7250   20.7280 C   0  0  0  0  0  3  0  0  0  0  0  0
  -26.0580  -26.9110   19.5650 C   0  0  0  0  0  3  0  0  0  0  0  0
  -24.8570  -27.6470   19.5780 C   0  0  0  0  0  3  0  0  0  0  0  0
  -23.5830  -29.7800   20.2180 C   0  0  0  0  0  2  0  0  0  0  0  0
  -24.6450  -31.0700   22.1240 N   0  0  0  0  0  0  0  0  0  0  0  0
  -23.5210  -32.1420   23.7740 O   0  0  0  0  0  0  0  0  0  0  0  0
  -22.7380  -29.4430   22.5610 C   0  0  0  0  0  0  0  0  0  0  0  0
  -21.4140  -29.2570   22.4420 N   0  0  0  0  0  0  0  0  0  0  0  0
  -23.4280  -28.8210   23.3730 O   0  0  0  0  0  0  0  0  0  0  0  0
  -20.9200  -29.8110   21.7580 H   0  0  0  0  0  0  0  0  0  0  0  0
  -18.0450  -28.0590   22.9560 C   0  0  0  0  0  0  0  0  0  0  0  0
  -20.6030  -28.3210   23.2190 C   0  0  0  0  0  3  0  0  0  0  0  0
  -20.7080  -26.8890   22.6450 C   0  0  0  0  0  2  0  0  0  0  0  0
  -19.6020  -26.5630   21.6340 C   0  0  0  0  0  2  0  0  0  0  0  0
  -18.2210  -26.7090   22.2840 C   0  0  0  0  0  2  0  0  0  0  0  0
  -19.1640  -28.8220   23.3810 C   0  0  0  0  0  0  0  0  0  0  0  0
  -18.9470  -30.0880   23.9680 C   0  0  0  0  0  3  0  0  0  0  0  0
  -17.6450  -30.5910   24.1340 C   0  0  0  0  0  3  0  0  0  0  0  0
  -16.5390  -29.8240   23.7290 C   0  0  0  0  0  3  0  0  0  0  0  0
  -16.7410  -28.5600   23.1450 C   0  0  0  0  0  3  0  0  0  0  0  0
  -25.8890  -32.5030   23.8330 C   0  0  0  0  0  3  0  0  0  0  0  0
  -26.4280  -31.7240   25.0950 C   0  0  1  0  0  0  0  0  0  0  0  0
  -25.3510  -31.4690   26.1750 C   0  0  0  0  0  1  0  0  0  0  0  0
  -27.0110  -30.3540   24.6790 C   0  0  0  0  0  1  0  0  0  0  0  0
  -27.5840  -32.5150   25.7510 C   0  0  0  0  0  1  0  0  0  0  0  0
  -25.5770  -33.8970   24.1770 N   0  0  0  0  0  0  0  0  0  0  0  0
  -25.8940  -34.9550   23.4200 C   0  0  0  0  0  0  0  0  0  0  0  0
  -26.5540  -34.8620   22.3800 O   0  0  0  0  0  0  0  0  0  0  0  0
  -24.9880  -34.0430   24.9840 H   0  0  0  0  0  0  0  0  0  0  0  0
  -24.1490  -36.7370   23.0950 C   0  0  0  0  0  1  0  0  0  0  0  0
  -25.4010  -36.3380   23.8910 C   0  0  0  0  0  3  0  0  0  0  0  0
  -27.5400  -37.2270   24.7010 C   0  0  0  0  0  1  0  0  0  0  0  0
  -26.4250  -37.3990   23.7750 N   0  0  0  0  0  0  0  0  0  0  0  0
  -26.0150  -38.3130   23.9400 H   0  0  0  0  0  0  0  0  0  0  0  0
  -29.4400  -20.6840   20.9670 C   0  0  0  0  0  2  0  0  0  0  0  0
  -28.6070  -19.4380   18.9060 C   0  0  0  0  0  1  0  0  0  0  0  0
  -29.6230  -19.4240   20.0640 C   0  0  0  0  0  3  0  0  0  0  0  0
  -29.4940  -18.1740   20.8640 N   0  0  0  0  0  4  0  0  0  0  0  0
  -29.8660  -18.3530   21.7850 H   0  0  0  0  0  0  0  0  0  0  0  0
  -28.5130  -17.9730   20.9720 H   0  0  0  0  0  0  0  0  0  0  0  0
  -30.2000  -16.9870   20.3150 C   0  0  0  0  0  2  0  0  0  0  0  0
  -29.9430  -15.6820   21.1180 C   0  0  0  0  0  2  0  0  0  0  0  0
  -30.6180  -14.4540   20.4590 C   0  0  0  0  0  0  0  0  0  0  0  0
  -30.3210  -12.3060   19.2850 C   0  0  0  0  0  2  0  0  0  0  0  0
  -29.3660  -12.5210   18.0910 C   0  0  0  0  0  2  0  0  0  0  0  0
  -27.8930  -12.3960   18.5270 C   0  0  0  0  0  2  0  0  0  0  0  0
  -27.5700  -13.2180   19.8040 C   0  0  0  0  0  3  0  0  0  0  0  0
  -28.6340  -12.9690   20.8980 C   0  0  0  0  0  2  0  0  0  0  0  0
  -29.9520  -13.2760   20.3260 N   0  0  0  0  0  0  0  0  0  0  0  0
  -31.7370  -14.6240   19.9630 O   0  0  0  0  0  0  0  0  0  0  0  0
  -25.1700  -13.8360   20.5030 C   0  0  0  0  0  0  0  0  0  0  0  0
  -24.1020  -13.0690   20.8750 C   0  0  0  0  0  0  0  0  0  0  0  0
  -24.5580  -11.7150   20.8520 C   0  0  0  0  0  0  0  0  0  0  0  0
  -26.2160  -12.9520   20.2830 N   0  0  0  0  0  0  0  0  0  0  0  0
  -25.8500  -11.6720   20.5490 N   0  0  0  0  0  0  0  0  0  0  0  0
  -23.8310  -10.4570   21.0480 C   0  0  0  0  0  0  0  0  0  0  0  0
  -24.2770   -9.4820   21.9670 C   0  0  0  0  0  3  0  0  0  0  0  0
  -23.5520   -8.2870   22.1530 C   0  0  0  0  0  3  0  0  0  0  0  0
  -22.3650   -8.0550   21.4190 C   0  0  0  0  0  0  0  0  0  0  0  0
  -21.9350   -9.0180   20.4880 C   0  0  0  0  0  3  0  0  0  0  0  0
  -22.6610  -10.2070   20.3020 C   0  0  0  0  0  3  0  0  0  0  0  0
  -21.6070   -6.9140   21.5150 O   0  0  0  0  0  0  0  0  0  0  0  0
  -21.5960   -6.1530   22.6560 C   0  0  0  0  0  0  0  0  0  0  0  0
  -21.2370   -6.6920   23.9110 C   0  0  0  0  0  3  0  0  0  0  0  0
  -21.1740   -5.8570   25.0430 C   0  0  0  0  0  3  0  0  0  0  0  0
  -21.4570   -4.4830   24.9240 C   0  0  0  0  0  0  0  0  0  0  0  0
  -21.8080   -3.9440   23.6740 C   0  0  0  0  0  3  0  0  0  0  0  0
  -21.8750   -4.7770   22.5440 C   0  0  0  0  0  0  0  0  0  0  0  0
  -22.1930   -4.2470   21.3370 F   0  0  0  0  0  0  0  0  0  0  0  0
  -21.3890   -3.6790   26.0110 F   0  0  0  0  0  0  0  0  0  0  0  0
  -22.7030  -13.5490   21.1450 C   0  0  0  0  0  0  0  0  0  0  0  0
  -21.9760  -12.8570   22.0160 N   0  0  0  0  0  0  0  0  0  0  0  0
  -22.2640  -14.5690   20.6170 O   0  0  0  0  0  0  0  0  0  0  0  0
  -22.3450  -12.0310   22.4640 H   0  0  0  0  0  0  0  0  0  0  0  0
  -21.0400  -13.1630   22.2400 H   0  0  0  0  0  0  0  0  0  0  0  0
  -25.3380  -15.2060   20.3180 N   0  0  0  0  0  0  0  0  0  0  0  0
  -24.5640  -15.8550   20.4040 H   0  0  0  0  0  0  0  0  0  0  0  0
  -26.1720  -15.6310   19.9380 H   0  0  0  0  0  0  0  0  0  0  0  0
  1  3  1  0
  1 50  1  0
  1  6  1  0
  3  2  1  0
  4  5  1  0
  5  3  1  0
  7  8  1  0
  7  6  1  0
  9 11  1  0
  9  8  1  0
 10 21  2  0
 11 16  1  0
 12 20  1  0
 12 22  1  0
 13 19  1  0
 13 15  1  0
 14 20  1  0
 15 14  1  0
 16 15  2  0
 17 18  1  0
 17 11  2  0
 18 13  2  0
 19 12  1  0
 20 10  1  0
 22 24  2  0
 23 22  1  0
 25 23  1  0
 26 35  2  0
 26 31  1  0
 27 23  1  0
 27 31  1  0
 28 27  1  0
 29 30  1  0
 29 28  1  0
 30 26  1  0
 31 32  2  0
 32 33  1  0
 34 33  2  0
 35 34  1  0
 36 10  1  0
 36 41  1  0
 36 37  1  0
 37 40  1  1
 37 38  1  0
 39 37  1  0
 41 44  1  0
 42 46  1  0
 42 41  1  0
 43 42  2  0
 46 45  1  0
 48 46  1  0
 48 49  1  0
 48 47  1  0
 52 51  1  0
 52 53  1  0
 52 50  1  0
 53 55  1  0
 53 54  1  0
 56 53  1  0
 56 57  1  0
 58 57  1  0
 59 64  1  0
 60 61  1  0
 60 59  1  0
 62 61  1  0
 62 69  1  0
 62 63  1  0
 64 58  1  0
 64 63  1  0
 65 58  2  0
 66 67  2  0
 67 86  1  0
 68 67  1  0
 68 71  1  0
 69 66  1  0
 69 70  1  0
 70 68  2  0
 71 72  1  0
 72 73  2  0
 74 77  1  0
 74 73  1  0
 75 74  2  0
 76 75  1  0
 76 71  2  0
 77 78  1  0
 78 79  1  0
 79 80  2  0
 81 80  1  0
 81 85  1  0
 82 81  2  0
 83 78  2  0
 83 82  1  0
 84 83  1  0
 86 87  1  0
 87 90  1  0
 87 89  1  0
 88 86  2  0
 91 92  1  0
 91 66  1  0
 93 91  1  0
M  ISO  4   8 101   9 101  57 100  58 100
M  END
>  <TORSDO>  (89) 
F 26

>  <SCORE>  (89) 
-11.574

>  <name>  (89) 
89

>  <ligand_id>  (89) 
89

>  <original_smiles>  (89) 
[H]c1c([H])c([H])c2c(c1[H])C([H])([H])C([H])([H])C([H])([H])C2([H])N([H])C(=O)C1([H])N(C(=O)C([H])(N([H])C(=O)C([H])(N([H])C([H])([H])[H])C([H])([H])[H])C(C([H])([H])[H])(C([H])([H])[H])C([H])([H])[H])C([H])([H])c2c([H])c(OC([H])([H])C([H])([H])C([H])([H])N(C([H])([H])C([H])(C([H])([H])[H])[N+]([H])([H])C([H])([H])C([H])([H])C(=O)N3C([H])([H])C([H])([H])C([H])([H])C([H])(n4nc(-c5c([H])c([H])c(Oc6c([H])c([H])c(F)c([H])c6F)c([H])c5[H])c(C(=O)N([H])[H])c4N([H])[H])C3([H])[H])C([H])(C([H])([H])[H])C([H])([H])C([H])([H])[H])c([H])c([H])c2C1([H])[H]

>  <smiles>  (89) 
[H]c1c([H])c([H])c2c(c1[H])C([H])([H])C([H])([H])C([H])([H])C2([H])N([H])C(=O)C1([H])N(C(=O)C([H])(N([H])C(=O)C([H])(N([H])C([H])([H])[H])C([H])([H])[H])C(C([H])([H])[H])(C([H])([H])[H])C([H])([H])[H])C([H])([H])c2c([H])c(OC([H])([H])C([H])([H])C([H])([H])N(C([H])([H])C([H])(C([H])([H])[H])[N+]([H])([H])C([H])([H])C([H])([H])C(=O)N3C([H])([H])C([H])([H])C([H])([H])C([H])(n4nc(-c5c([H])c([H])c(Oc6c([H])c([H])c(F)c([H])c6F)c([H])c5[H])c(C(=O)N([H])[H])c4N([H])[H])C3([H])[H])C([H])(C([H])([H])[H])C([H])([H])C([H])([H])[H])c([H])c([H])c2C1([H])[H]

$$$$
90:0:0
     RDKit          3D

 90 99  0  0  1  0  0  0  0  0999 V2000
  -32.0810  -14.8780   18.6940 C   0  0  0  0  0  0  0  0  0  0  0  0
  -31.7540  -12.3360   18.6380 C   0  0  0  0  0  2  0  0  0  0  0  0
  -30.7220  -11.8650   17.5880 C   0  0  0  0  0  2  0  0  0  0  0  0
  -29.3050  -11.8740   18.1850 C   0  0  0  0  0  2  0  0  0  0  0  0
  -29.0170  -13.1750   18.9770 C   0  0  0  0  0  3  0  0  0  0  0  0
  -30.1670  -13.5650   19.9200 C   0  0  0  0  0  2  0  0  0  0  0  0
  -31.3730  -13.7210   19.0910 N   0  0  0  0  0  0  0  0  0  0  0  0
  -33.2410  -14.6380   18.3280 O   0  0  0  0  0  0  0  0  0  0  0  0
  -29.3050  -19.0760   20.9770 C   0  0  0  0  0  2  0  0  0  0  0  0
  -29.5850  -17.6160   21.3510 C   0  0  0  0  0  2  0  0  0  0  0  0
  -29.2170  -19.2920   19.4550 C   0  0  0  0  0  2  0  0  0  0  0  0
  -30.8070  -17.0740   20.5950 C   0  0  0  0  0  2  0  0  0  0  0  0
  -31.8950  -18.5550   16.8730 C   0  0  0  0  0  2  0  0  0  0  0  0
  -31.8890  -16.9220   17.0470 C   0  0  0  0  0  2  0  0  0  0  0  0
  -30.4700  -18.7690   18.7130 C   0  0  0  0  0  3  0  0  0  0  0  0
  -30.6160  -19.4280   17.2380 C   0  0  0  0  0  3  0  0  0  0  0  0
  -30.5800  -17.1440   19.0620 C   0  0  0  0  0  3  0  0  0  0  0  0
  -31.5130  -16.1840   18.3330 N   0  0  0  0  0  0  0  0  0  0  0  0
  -26.9920  -14.2030   20.1410 C   0  0  0  0  0  0  0  0  0  0  0  0
  -25.8300  -13.6650   20.6190 C   0  0  0  0  0  0  0  0  0  0  0  0
  -25.9340  -12.2540   20.4180 C   0  0  0  0  0  0  0  0  0  0  0  0
  -27.7340  -13.1370   19.6660 N   0  0  0  0  0  0  0  0  0  0  0  0
  -27.1190  -11.9490   19.9010 N   0  0  0  0  0  0  0  0  0  0  0  0
  -24.9480  -11.1860   20.6320 C   0  0  0  0  0  0  0  0  0  0  0  0
  -25.2400  -10.0570   21.4290 C   0  0  0  0  0  3  0  0  0  0  0  0
  -24.2670   -9.0560   21.6350 C   0  0  0  0  0  3  0  0  0  0  0  0
  -22.9860   -9.1780   21.0470 C   0  0  0  0  0  0  0  0  0  0  0  0
  -22.7080  -10.2930   20.2360 C   0  0  0  0  0  3  0  0  0  0  0  0
  -23.6790  -11.2860   20.0270 C   0  0  0  0  0  3  0  0  0  0  0  0
  -21.9860   -8.2450   21.1720 O   0  0  0  0  0  0  0  0  0  0  0  0
  -21.8630   -7.4700   22.2980 C   0  0  0  0  0  0  0  0  0  0  0  0
  -21.6430   -8.0340   23.5720 C   0  0  0  0  0  3  0  0  0  0  0  0
  -21.4530   -7.1950   24.6900 C   0  0  0  0  0  3  0  0  0  0  0  0
  -21.4740   -5.7970   24.5340 C   0  0  0  0  0  0  0  0  0  0  0  0
  -21.6890   -5.2340   23.2640 C   0  0  0  0  0  3  0  0  0  0  0  0
  -21.8800   -6.0680   22.1490 C   0  0  0  0  0  0  0  0  0  0  0  0
  -22.0640   -5.5190   20.9230 F   0  0  0  0  0  0  0  0  0  0  0  0
  -21.2850   -4.9920   25.6050 F   0  0  0  0  0  0  0  0  0  0  0  0
  -24.6470  -14.4270   21.1400 C   0  0  0  0  0  0  0  0  0  0  0  0
  -23.8990  -13.8400   22.0670 N   0  0  0  0  0  0  0  0  0  0  0  0
  -24.4070  -15.5730   20.7600 O   0  0  0  0  0  0  0  0  0  0  0  0
  -24.1080  -12.9080   22.3950 H   0  0  0  0  0  0  0  0  0  0  0  0
  -23.1070  -14.3290   22.4570 H   0  0  0  0  0  0  0  0  0  0  0  0
  -27.4690  -15.5070   20.0430 N   0  0  0  0  0  0  0  0  0  0  0  0
  -26.9340  -16.3040   20.3700 H   0  0  0  0  0  0  0  0  0  0  0  0
  -28.3600  -15.7630   19.6400 H   0  0  0  0  0  0  0  0  0  0  0  0
  -30.5360  -21.1780   17.1050 C   0  0  0  0  0  2  0  0  0  0  0  0
  -29.5510  -22.3440   16.2860 C   0  0  0  0  0  2  0  0  0  0  0  0
  -28.7470  -23.7290   16.9640 C   0  0  0  0  0  2  0  0  0  0  0  0
  -28.1860  -25.0860   16.3430 O   0  0  0  0  0  0  0  0  0  0  0  0
  -25.6120  -28.5710   22.4080 C   0  0  0  0  0  0  0  0  0  0  0  0
  -27.2620  -25.9910   17.0190 C   0  0  0  0  0  0  0  0  0  0  0  0
  -24.0790  -28.2710   20.5020 C   0  0  0  0  0  3  0  0  0  0  0  0
  -25.1650  -27.6120   18.2610 C   0  0  0  0  0  0  0  0  0  0  0  0
  -26.6100  -28.4910   20.0860 C   0  0  0  0  0  2  0  0  0  0  0  0
  -26.4530  -27.6330   18.8110 C   0  0  0  0  0  0  0  0  0  0  0  0
  -27.5040  -26.8520   18.1770 C   0  0  0  0  0  3  0  0  0  0  0  0
  -25.9560  -26.0940   16.4990 C   0  0  0  0  0  3  0  0  0  0  0  0
  -24.9320  -26.8670   17.0950 C   0  0  0  0  0  3  0  0  0  0  0  0
  -24.0580  -28.3970   18.9550 C   0  0  0  0  0  2  0  0  0  0  0  0
  -25.4630  -28.4350   21.0540 N   0  0  0  0  0  0  0  0  0  0  0  0
  -24.6340  -28.5720   23.1730 O   0  0  0  0  0  0  0  0  0  0  0  0
  -23.4120  -26.9330   20.9140 C   0  0  0  0  0  0  0  0  0  0  0  0
  -22.0730  -26.8540   20.8130 N   0  0  0  0  0  0  0  0  0  0  0  0
  -24.1030  -25.9840   21.2940 O   0  0  0  0  0  0  0  0  0  0  0  0
  -21.5720  -27.6770   20.5070 H   0  0  0  0  0  0  0  0  0  0  0  0
  -18.6890  -25.5550   20.8290 C   0  0  0  0  0  0  0  0  0  0  0  0
  -21.2590  -25.6670   21.0940 C   0  0  0  0  0  3  0  0  0  0  0  0
  -21.3180  -24.6590   19.9240 C   0  0  0  0  0  2  0  0  0  0  0  0
  -20.1800  -24.8390   18.9140 C   0  0  0  0  0  2  0  0  0  0  0  0
  -18.8220  -24.6700   19.6010 C   0  0  0  0  0  2  0  0  0  0  0  0
  -19.8320  -26.0370   21.5210 C   0  0  0  0  0  0  0  0  0  0  0  0
  -19.6510  -26.8820   22.6370 C   0  0  0  0  0  3  0  0  0  0  0  0
  -18.3600  -27.2450   23.0630 C   0  0  0  0  0  3  0  0  0  0  0  0
  -17.2320  -26.7540   22.3830 C   0  0  0  0  0  3  0  0  0  0  0  0
  -17.3970  -25.9070   21.2730 C   0  0  0  0  0  3  0  0  0  0  0  0
  -27.0160  -28.7480   23.0630 C   0  0  0  0  0  3  0  0  0  0  0  0
  -26.8380  -29.5080   24.3110 N   0  0  0  0  0  0  0  0  0  0  0  0
  -27.1830  -30.7910   24.4830 C   0  0  0  0  0  0  0  0  0  0  0  0
  -27.7500  -31.4510   23.6100 O   0  0  0  0  0  0  0  0  0  0  0  0
  -26.3330  -29.0450   25.0520 H   0  0  0  0  0  0  0  0  0  0  0  0
  -25.6110  -32.3470   25.6860 C   0  0  0  0  0  1  0  0  0  0  0  0
  -26.8480  -31.4460   25.8390 C   0  0  0  0  0  3  0  0  0  0  0  0
  -29.0840  -31.4060   26.8540 C   0  0  0  0  0  1  0  0  0  0  0  0
  -27.9650  -32.2310   26.4070 N   0  0  0  0  0  0  0  0  0  0  0  0
  -27.6490  -32.7900   27.1950 H   0  0  0  0  0  0  0  0  0  0  0  0
  -27.7420  -27.3780   23.3550 C   0  0  1  0  0  0  0  0  0  0  0  0
  -26.8740  -26.3690   24.1460 C   0  0  0  0  0  1  0  0  0  0  0  0
  -28.1760  -26.6910   22.0410 C   0  0  0  0  0  1  0  0  0  0  0  0
  -29.0350  -27.6330   24.1650 C   0  0  0  0  0  1  0  0  0  0  0  0
  1  7  1  0
  2  7  1  0
  3  4  1  0
  3  2  1  0
  5  4  1  0
  5 22  1  0
  5  6  1  0
  7  6  1  0
  8  1  2  0
  9 10  1  0
 11  9  1  0
 12 10  1  0
 13 14  1  0
 13 16  1  0
 14 18  1  0
 15 17  1  0
 15 11  1  0
 16 47  1  0
 16 15  1  0
 17 12  1  0
 18  1  1  0
 18 17  1  0
 19 20  2  0
 20 39  1  0
 21 20  1  0
 21 24  1  0
 22 23  1  0
 22 19  1  0
 23 21  2  0
 24 25  1  0
 25 26  2  0
 27 30  1  0
 27 26  1  0
 28 27  2  0
 29 28  1  0
 29 24  2  0
 30 31  1  0
 31 32  1  0
 32 33  2  0
 34 33  1  0
 34 38  1  0
 35 34  2  0
 36 31  2  0
 36 35  1  0
 37 36  1  0
 39 40  1  0
 40 42  1  0
 40 43  1  0
 41 39  2  0
 44 19  1  0
 44 45  1  0
 46 44  1  0
 48 49  1  0
 48 47  1  0
 50 49  1  0
 50 52  1  0
 51 62  2  0
 52 57  1  0
 53 63  1  0
 53 61  1  0
 54 56  1  0
 54 60  1  0
 55 61  1  0
 56 55  1  0
 57 56  2  0
 58 52  2  0
 58 59  1  0
 59 54  2  0
 60 53  1  0
 61 51  1  0
 63 65  2  0
 64 63  1  0
 66 64  1  0
 67 76  2  0
 67 72  1  0
 68 64  1  0
 68 72  1  0
 69 68  1  0
 70 71  1  0
 70 69  1  0
 71 67  1  0
 72 73  2  0
 73 74  1  0
 75 74  2  0
 76 75  1  0
 77 51  1  0
 77 87  1  0
 77 78  1  0
 78 79  1  0
 78 81  1  0
 79 83  1  0
 80 79  2  0
 83 82  1  0
 83 85  1  0
 85 84  1  0
 85 86  1  0
 87 88  1  1
 87 90  1  0
 89 87  1  0
M  ISO  4   1 100  18 100  49 101  50 101
M  END
>  <TORSDO>  (90) 
F 18

>  <SCORE>  (90) 
-10.290

>  <name>  (90) 
90

>  <ligand_id>  (90) 
90

>  <original_smiles>  (90) 
[H]c1c([H])c([H])c2c(c1[H])C([H])([H])C([H])([H])C([H])([H])C2([H])N([H])C(=O)C1([H])N(C(=O)C([H])(N([H])C(=O)C([H])(N([H])C([H])([H])[H])C([H])([H])[H])C(C([H])([H])[H])(C([H])([H])[H])C([H])([H])[H])C([H])([H])c2c([H])c(OC([H])([H])C([H])([H])C([H])([H])C3([H])C([H])([H])C([H])([H])N(C(=O)N4C([H])([H])C([H])([H])C([H])([H])C([H])(n5nc(-c6c([H])c([H])c(Oc7c([H])c([H])c(F)c([H])c7F)c([H])c6[H])c(C(=O)N([H])[H])c5N([H])[H])C4([H])[H])C4([H])C([H])([H])C([H])([H])C([H])([H])C([H])([H])C43[H])c([H])c([H])c2C1([H])[H]

>  <smiles>  (90) 
[H]c1c([H])c([H])c2c(c1[H])C([H])([H])C([H])([H])C([H])([H])C2([H])N([H])C(=O)C1([H])N(C(=O)C([H])(N([H])C(=O)C([H])(N([H])C([H])([H])[H])C([H])([H])[H])C(C([H])([H])[H])(C([H])([H])[H])C([H])([H])[H])C([H])([H])c2c([H])c(OC([H])([H])C([H])([H])C([H])([H])C3([H])C([H])([H])C([H])([H])N(C(=O)N4C([H])([H])C([H])([H])C([H])([H])C([H])(n5nc(-c6c([H])c([H])c(Oc7c([H])c([H])c(F)c([H])c7F)c([H])c6[H])c(C(=O)N([H])[H])c5N([H])[H])C4([H])[H])C4([H])C([H])([H])C([H])([H])C([H])([H])C([H])([H])C43[H])c([H])c([H])c2C1([H])[H]

$$$$
91:0:0
     RDKit          3D

 92 99  0  0  1  0  0  0  0  0999 V2000
  -29.9690  -21.2730   20.3850 C   0  0  0  0  0  2  0  0  0  0  0  0
  -30.0480  -22.7190   18.2690 C   0  0  0  0  0  1  0  0  0  0  0  0
  -29.3650  -22.5560   19.6380 C   0  0  0  0  0  3  0  0  0  0  0  0
  -29.3730  -23.9510   20.4360 C   0  0  0  0  0  3  0  0  0  0  0  0
  -28.4760  -25.1370   19.8630 C   0  0  0  0  0  3  0  0  0  0  0  0
  -28.5650  -26.5180   20.3960 O   0  0  0  0  0  0  0  0  0  0  0  0
  -24.5330  -31.7810   23.2650 C   0  0  0  0  0  0  0  0  0  0  0  0
  -27.4330  -27.3480   20.2790 C   0  0  0  0  0  0  0  0  0  0  0  0
  -23.4610  -30.3860   21.5330 C   0  0  0  0  0  3  0  0  0  0  0  0
  -25.0300  -28.9040   20.1640 C   0  0  0  0  0  0  0  0  0  0  0  0
  -25.9990  -30.7690   21.5060 C   0  0  0  0  0  2  0  0  0  0  0  0
  -26.1510  -29.4060   20.8370 C   0  0  0  0  0  0  0  0  0  0  0  0
  -27.3550  -28.6410   20.8870 C   0  0  0  0  0  3  0  0  0  0  0  0
  -26.2880  -26.9070   19.5720 C   0  0  0  0  0  3  0  0  0  0  0  0
  -25.1010  -27.6580   19.5250 C   0  0  0  0  0  3  0  0  0  0  0  0
  -23.7730  -29.7460   20.1550 C   0  0  0  0  0  2  0  0  0  0  0  0
  -24.6800  -30.9940   22.1580 N   0  0  0  0  0  0  0  0  0  0  0  0
  -23.4130  -32.0210   23.7390 O   0  0  0  0  0  0  0  0  0  0  0  0
  -22.7710  -29.3320   22.4320 C   0  0  0  0  0  0  0  0  0  0  0  0
  -21.4520  -29.1560   22.2530 N   0  0  0  0  0  0  0  0  0  0  0  0
  -23.4250  -28.6800   23.2510 O   0  0  0  0  0  0  0  0  0  0  0  0
  -20.9840  -29.7370   21.5720 H   0  0  0  0  0  0  0  0  0  0  0  0
  -18.0560  -27.9690   22.6310 C   0  0  0  0  0  0  0  0  0  0  0  0
  -20.6100  -28.1910   22.9630 C   0  0  0  0  0  3  0  0  0  0  0  0
  -20.7110  -26.7860   22.3250 C   0  0  0  0  0  2  0  0  0  0  0  0
  -19.6260  -26.5210   21.2750 C   0  0  0  0  0  2  0  0  0  0  0  0
  -18.2330  -26.6500   21.8970 C   0  0  0  0  0  2  0  0  0  0  0  0
  -19.1720  -28.7000   23.1170 C   0  0  0  0  0  0  0  0  0  0  0  0
  -18.9510  -29.9360   23.7620 C   0  0  0  0  0  3  0  0  0  0  0  0
  -17.6490  -30.4410   23.9260 C   0  0  0  0  0  3  0  0  0  0  0  0
  -16.5450  -29.7070   23.4540 C   0  0  0  0  0  3  0  0  0  0  0  0
  -16.7500  -28.4720   22.8140 C   0  0  0  0  0  3  0  0  0  0  0  0
  -25.7600  -32.4320   23.9700 C   0  0  0  0  0  3  0  0  0  0  0  0
  -26.1820  -31.6880   25.2970 C   0  0  1  0  0  0  0  0  0  0  0  0
  -25.0110  -31.4630   26.2820 C   0  0  0  0  0  1  0  0  0  0  0  0
  -26.8000  -30.3070   24.9780 C   0  0  0  0  0  1  0  0  0  0  0  0
  -27.2740  -32.5010   26.0300 C   0  0  0  0  0  1  0  0  0  0  0  0
  -25.4180  -33.8330   24.2510 N   0  0  0  0  0  0  0  0  0  0  0  0
  -25.7940  -34.8760   23.4960 C   0  0  0  0  0  0  0  0  0  0  0  0
  -26.5330  -34.7590   22.5160 O   0  0  0  0  0  0  0  0  0  0  0  0
  -24.7660  -33.9970   25.0040 H   0  0  0  0  0  0  0  0  0  0  0  0
  -24.0620  -36.6360   23.0110 C   0  0  0  0  0  1  0  0  0  0  0  0
  -25.2650  -36.2680   23.8940 C   0  0  0  0  0  3  0  0  0  0  0  0
  -27.3410  -37.2030   24.8150 C   0  0  0  0  0  1  0  0  0  0  0  0
  -26.2880  -37.3330   23.8110 N   0  0  0  0  0  0  0  0  0  0  0  0
  -25.8630  -38.2500   23.9170 H   0  0  0  0  0  0  0  0  0  0  0  0
  -29.7630  -19.7470   19.8860 C   0  0  0  0  0  3  0  0  0  0  0  0
  -30.9050  -18.7870   20.1870 N   0  0  0  0  0  4  0  0  0  0  0  0
  -31.4060  -18.5620   19.3430 H   0  0  0  0  0  0  0  0  0  0  0  0
  -31.5530  -19.3280   20.7370 H   0  0  0  0  0  0  0  0  0  0  0  0
  -30.6730  -17.5350   21.0290 C   0  0  0  0  0  2  0  0  0  0  0  0
  -30.0180  -16.2350   20.3670 C   0  0  0  0  0  2  0  0  0  0  0  0
  -30.8700  -14.8950   20.2500 C   0  0  0  0  0  0  0  0  0  0  0  0
  -30.6970  -12.5730   19.3780 C   0  0  0  0  0  2  0  0  0  0  0  0
  -29.7940  -12.6150   18.1220 C   0  0  0  0  0  2  0  0  0  0  0  0
  -28.3040  -12.5010   18.5060 C   0  0  0  0  0  2  0  0  0  0  0  0
  -27.9100  -13.4470   19.6720 C   0  0  0  0  0  3  0  0  0  0  0  0
  -28.9350  -13.3740   20.8250 C   0  0  0  0  0  2  0  0  0  0  0  0
  -30.2620  -13.6660   20.2720 N   0  0  0  0  0  0  0  0  0  0  0  0
  -32.0600  -14.9870   19.9310 O   0  0  0  0  0  0  0  0  0  0  0  0
  -25.5160  -14.1140   20.3210 C   0  0  0  0  0  0  0  0  0  0  0  0
  -24.4250  -13.3720   20.6850 C   0  0  0  0  0  0  0  0  0  0  0  0
  -24.8590  -12.0120   20.7000 C   0  0  0  0  0  0  0  0  0  0  0  0
  -26.5470  -13.2050   20.1340 N   0  0  0  0  0  0  0  0  0  0  0  0
  -26.1550  -11.9370   20.4230 N   0  0  0  0  0  0  0  0  0  0  0  0
  -24.1010  -10.7710   20.9070 C   0  0  0  0  0  0  0  0  0  0  0  0
  -24.5220   -9.7950   21.8370 C   0  0  0  0  0  3  0  0  0  0  0  0
  -23.7670   -8.6180   22.0300 C   0  0  0  0  0  3  0  0  0  0  0  0
  -22.5760   -8.4100   21.2940 C   0  0  0  0  0  0  0  0  0  0  0  0
  -22.1750   -9.3740   20.3530 C   0  0  0  0  0  3  0  0  0  0  0  0
  -22.9300  -10.5420   20.1570 C   0  0  0  0  0  3  0  0  0  0  0  0
  -21.7920   -7.2870   21.4000 O   0  0  0  0  0  0  0  0  0  0  0  0
  -21.7540   -6.5390   22.5480 C   0  0  0  0  0  0  0  0  0  0  0  0
  -21.3900   -7.1010   23.7920 C   0  0  0  0  0  3  0  0  0  0  0  0
  -21.2970   -6.2820   24.9350 C   0  0  0  0  0  3  0  0  0  0  0  0
  -21.5580   -4.9010   24.8350 C   0  0  0  0  0  0  0  0  0  0  0  0
  -21.9150   -4.3390   23.5970 C   0  0  0  0  0  3  0  0  0  0  0  0
  -22.0100   -5.1560   22.4570 C   0  0  0  0  0  0  0  0  0  0  0  0
  -22.3340   -4.6050   21.2620 F   0  0  0  0  0  0  0  0  0  0  0  0
  -21.4600   -4.1130   25.9300 F   0  0  0  0  0  0  0  0  0  0  0  0
  -23.0340  -13.8850   20.9100 C   0  0  0  0  0  0  0  0  0  0  0  0
  -22.2870  -13.2550   21.8120 N   0  0  0  0  0  0  0  0  0  0  0  0
  -22.6140  -14.8810   20.3220 O   0  0  0  0  0  0  0  0  0  0  0  0
  -22.6390  -12.4500   22.3080 H   0  0  0  0  0  0  0  0  0  0  0  0
  -21.3510  -13.5810   22.0070 H   0  0  0  0  0  0  0  0  0  0  0  0
  -25.7130  -15.4760   20.1110 N   0  0  0  0  0  0  0  0  0  0  0  0
  -24.9520  -16.1430   20.1750 H   0  0  0  0  0  0  0  0  0  0  0  0
  -26.5750  -15.8850   19.7770 H   0  0  0  0  0  0  0  0  0  0  0  0
  -29.2810  -19.5820   18.4150 C   0  0  0  0  0  2  0  0  0  0  0  0
  -27.3390  -19.1370   16.8420 C   0  0  0  0  0  1  0  0  0  0  0  0
  -27.3120  -21.2500   18.1860 C   0  0  0  0  0  1  0  0  0  0  0  0
  -27.7630  -19.7820   18.1700 C   0  0  0  0  0  3  0  0  0  0  0  0
  3  2  1  0
  3  1  1  0
  3  4  1  0
  5  6  1  0
  5  4  2  0
  7 18  2  0
  8  6  1  0
  8 13  1  0
  9 17  1  0
  9 19  1  0
 10 12  1  0
 11 17  1  0
 12 13  2  0
 12 11  1  0
 14  8  2  0
 15 14  1  0
 15 10  2  0
 16 10  1  0
 16  9  1  0
 17  7  1  0
 19 21  2  0
 20 19  1  0
 22 20  1  0
 23 32  2  0
 23 28  1  0
 24 20  1  0
 24 28  1  0
 25 24  1  0
 26 27  1  0
 26 25  1  0
 27 23  1  0
 28 29  2  0
 29 30  1  0
 31 30  2  0
 32 31  1  0
 33  7  1  0
 33 38  1  0
 33 34  1  0
 34 37  1  1
 34 35  1  0
 36 34  1  0
 38 41  1  0
 39 43  1  0
 39 38  1  0
 40 39  2  0
 43 42  1  0
 45 43  1  0
 45 46  1  0
 45 44  1  0
 47 89  1  0
 47 48  1  0
 47  1  1  0
 48 50  1  0
 48 51  1  0
 49 48  1  0
 52 51  1  0
 53 59  1  0
 53 52  1  0
 54 59  1  0
 55 56  1  0
 55 54  1  0
 57 56  1  0
 57 64  1  0
 57 58  1  0
 59 58  1  0
 60 53  2  0
 61 62  2  0
 62 63  1  0
 62 81  1  0
 63 66  1  0
 64 61  1  0
 64 65  1  0
 65 63  2  0
 66 67  1  0
 67 68  2  0
 69 72  1  0
 69 68  1  0
 70 69  2  0
 71 70  1  0
 71 66  2  0
 72 73  1  0
 73 74  1  0
 74 75  2  0
 76 75  1  0
 76 80  1  0
 77 76  2  0
 78 73  2  0
 78 77  1  0
 79 78  1  0
 81 82  1  0
 82 85  1  0
 82 84  1  0
 83 81  2  0
 86 87  1  0
 86 61  1  0
 88 86  1  0
 90 92  1  0
 92 91  1  0
 92 89  1  0
M  ISO  4   5 101   6 101  52 100  53 100
M  END
>  <TORSDO>  (91) 
F 25

>  <SCORE>  (91) 
-11.876

>  <name>  (91) 
91

>  <ligand_id>  (91) 
91

>  <original_smiles>  (91) 
[H]c1c([H])c([H])c2c(c1[H])C([H])([H])C([H])([H])C([H])([H])C2([H])N([H])C(=O)C1([H])N(C(=O)C([H])(N([H])C(=O)C([H])(N([H])C([H])([H])[H])C([H])([H])[H])C(C([H])([H])[H])(C([H])([H])[H])C([H])([H])[H])C([H])([H])c2c([H])c(OC([H])([H])C([H])([H])C([H])(C([H])([H])[H])C([H])([H])C([H])(C([H])([H])C([H])(C([H])([H])[H])C([H])([H])[H])[N+]([H])([H])C([H])([H])C([H])([H])C(=O)N3C([H])([H])C([H])([H])C([H])([H])C([H])(n4nc(-c5c([H])c([H])c(Oc6c([H])c([H])c(F)c([H])c6F)c([H])c5[H])c(C(=O)N([H])[H])c4N([H])[H])C3([H])[H])c([H])c([H])c2C1([H])[H]

>  <smiles>  (91) 
[H]c1c([H])c([H])c2c(c1[H])C([H])([H])C([H])([H])C([H])([H])C2([H])N([H])C(=O)C1([H])N(C(=O)C([H])(N([H])C(=O)C([H])(N([H])C([H])([H])[H])C([H])([H])[H])C(C([H])([H])[H])(C([H])([H])[H])C([H])([H])[H])C([H])([H])c2c([H])c(OC([H])([H])C([H])([H])C([H])(C([H])([H])[H])C([H])([H])C([H])(C([H])([H])C([H])(C([H])([H])[H])C([H])([H])[H])[N+]([H])([H])C([H])([H])C([H])([H])C(=O)N3C([H])([H])C([H])([H])C([H])([H])C([H])(n4nc(-c5c([H])c([H])c(Oc6c([H])c([H])c(F)c([H])c6F)c([H])c5[H])c(C(=O)N([H])[H])c4N([H])[H])C3([H])[H])c([H])c([H])c2C1([H])[H]

$$$$
92:0:0
     RDKit          3D

 87 95  0  0  1  0  0  0  0  0999 V2000
  -29.9720  -19.0640   19.2520 C   0  0  0  0  0  0  0  0  0  0  0  0
  -28.2420  -17.2540   19.9240 C   0  0  0  0  0  2  0  0  0  0  0  0
  -27.7290  -19.8690   19.8410 C   0  0  0  0  0  2  0  0  0  0  0  0
  -29.5900  -17.2680   19.1770 C   0  0  0  0  0  3  0  0  0  0  0  0
  -27.2770  -18.4050   19.4710 C   0  0  0  0  0  3  0  0  0  0  0  0
  -25.8700  -18.1400   20.0220 C   0  0  0  0  0  1  0  0  0  0  0  0
  -29.0630  -20.3080   19.3900 N   0  0  0  0  0  0  0  0  0  0  0  0
  -31.1720  -19.3180   19.1300 O   0  0  0  0  0  0  0  0  0  0  0  0
  -30.5180  -15.6370   19.3050 C   0  0  0  0  0  0  0  0  0  0  0  0
  -30.7180  -12.9800   18.9970 C   0  0  0  0  0  2  0  0  0  0  0  0
  -29.8170  -12.3580   17.8890 C   0  0  0  0  0  2  0  0  0  0  0  0
  -28.4030  -12.0650   18.4160 C   0  0  0  0  0  2  0  0  0  0  0  0
  -27.8830  -13.2300   19.2870 C   0  0  0  0  0  3  0  0  0  0  0  0
  -28.9190  -13.7410   20.3110 C   0  0  0  0  0  2  0  0  0  0  0  0
  -30.0830  -14.2590   19.5550 N   0  0  0  0  0  0  0  0  0  0  0  0
  -31.7410  -15.5810   19.0700 O   0  0  0  0  0  0  0  0  0  0  0  0
  -25.6040  -13.8850   20.2000 C   0  0  0  0  0  0  0  0  0  0  0  0
  -24.5270  -13.1620   20.6270 C   0  0  0  0  0  0  0  0  0  0  0  0
  -24.9200  -11.7890   20.5630 C   0  0  0  0  0  0  0  0  0  0  0  0
  -26.5810  -12.9600   19.8850 N   0  0  0  0  0  0  0  0  0  0  0  0
  -26.1880  -11.6910   20.1700 N   0  0  0  0  0  0  0  0  0  0  0  0
  -24.1370  -10.5660   20.7940 C   0  0  0  0  0  0  0  0  0  0  0  0
  -24.5470   -9.5880   21.7270 C   0  0  0  0  0  3  0  0  0  0  0  0
  -23.7640   -8.4330   21.9470 C   0  0  0  0  0  3  0  0  0  0  0  0
  -22.5560   -8.2490   21.2330 C   0  0  0  0  0  0  0  0  0  0  0  0
  -22.1620   -9.2140   20.2890 C   0  0  0  0  0  3  0  0  0  0  0  0
  -22.9460  -10.3610   20.0690 C   0  0  0  0  0  3  0  0  0  0  0  0
  -21.7440   -7.1470   21.3620 O   0  0  0  0  0  0  0  0  0  0  0  0
  -21.6490   -6.4560   22.5430 C   0  0  0  0  0  0  0  0  0  0  0  0
  -21.2390   -7.0790   23.7400 C   0  0  0  0  0  3  0  0  0  0  0  0
  -21.0900   -6.3180   24.9160 C   0  0  0  0  0  3  0  0  0  0  0  0
  -21.3390   -4.9320   24.8950 C   0  0  0  0  0  0  0  0  0  0  0  0
  -21.7420   -4.3070   23.7020 C   0  0  0  0  0  3  0  0  0  0  0  0
  -21.8940   -5.0670   22.5280 C   0  0  0  0  0  0  0  0  0  0  0  0
  -22.2610   -4.4560   21.3760 F   0  0  0  0  0  0  0  0  0  0  0  0
  -21.1870   -4.1980   26.0220 F   0  0  0  0  0  0  0  0  0  0  0  0
  -23.1760  -13.7100   20.9750 C   0  0  0  0  0  0  0  0  0  0  0  0
  -22.4700  -13.0650   21.8970 N   0  0  0  0  0  0  0  0  0  0  0  0
  -22.7570  -14.7490   20.4640 O   0  0  0  0  0  0  0  0  0  0  0  0
  -22.8250  -12.2280   22.3350 H   0  0  0  0  0  0  0  0  0  0  0  0
  -21.5630  -13.4170   22.1710 H   0  0  0  0  0  0  0  0  0  0  0  0
  -25.8310  -15.2470   20.0220 N   0  0  0  0  0  0  0  0  0  0  0  0
  -25.1130  -15.9420   20.1950 H   0  0  0  0  0  0  0  0  0  0  0  0
  -26.6860  -15.6410   19.6520 H   0  0  0  0  0  0  0  0  0  0  0  0
  -29.1970  -22.0870   19.5030 C   0  0  0  0  0  3  0  0  0  0  0  0
  -28.1290  -23.7160   19.4970 C   0  0  0  0  0  3  0  0  0  0  0  0
  -28.2570  -25.4660   19.7070 O   0  0  0  0  0  0  0  0  0  0  0  0
  -24.6110  -31.5200   22.9640 C   0  0  0  0  0  0  0  0  0  0  0  0
  -27.2470  -26.6490   19.7340 C   0  0  0  0  0  0  0  0  0  0  0  0
  -23.4580  -30.1890   21.2470 C   0  0  0  0  0  3  0  0  0  0  0  0
  -24.9410  -28.6410   19.7660 C   0  0  0  0  0  0  0  0  0  0  0  0
  -26.0350  -30.3830   21.1520 C   0  0  0  0  0  2  0  0  0  0  0  0
  -26.1280  -28.9880   20.4230 C   0  0  0  0  0  0  0  0  0  0  0  0
  -27.2650  -28.0230   20.3720 C   0  0  0  0  0  3  0  0  0  0  0  0
  -26.0220  -26.5130   19.0340 C   0  0  0  0  0  3  0  0  0  0  0  0
  -24.9270  -27.4310   19.0490 C   0  0  0  0  0  3  0  0  0  0  0  0
  -23.7180  -29.5660   19.8460 C   0  0  0  0  0  2  0  0  0  0  0  0
  -24.7260  -30.7280   21.8410 N   0  0  0  0  0  0  0  0  0  0  0  0
  -23.5090  -31.7750   23.4800 O   0  0  0  0  0  0  0  0  0  0  0  0
  -22.7510  -29.1520   22.1620 C   0  0  0  0  0  0  0  0  0  0  0  0
  -21.4150  -29.0160   22.0490 N   0  0  0  0  0  0  0  0  0  0  0  0
  -23.4150  -28.4690   22.9450 O   0  0  0  0  0  0  0  0  0  0  0  0
  -20.9300  -29.6170   21.3990 H   0  0  0  0  0  0  0  0  0  0  0  0
  -18.0180  -27.8510   22.6010 C   0  0  0  0  0  0  0  0  0  0  0  0
  -20.5930  -28.0350   22.7690 C   0  0  0  0  0  3  0  0  0  0  0  0
  -20.6300  -26.6580   22.0640 C   0  0  0  0  0  2  0  0  0  0  0  0
  -19.4760  -26.4580   21.0740 C   0  0  0  0  0  2  0  0  0  0  0  0
  -18.1280  -26.5700   21.7910 C   0  0  0  0  0  2  0  0  0  0  0  0
  -19.1740  -28.5470   23.0460 C   0  0  0  0  0  0  0  0  0  0  0  0
  -19.0110  -29.7470   23.7720 C   0  0  0  0  0  3  0  0  0  0  0  0
  -17.7270  -30.2520   24.0510 C   0  0  0  0  0  3  0  0  0  0  0  0
  -16.5870  -29.5540   23.6180 C   0  0  0  0  0  3  0  0  0  0  0  0
  -16.7330  -28.3540   22.9000 C   0  0  0  0  0  3  0  0  0  0  0  0
  -25.8590  -32.1560   23.6490 C   0  0  0  0  0  3  0  0  0  0  0  0
  -25.5230  -33.5450   24.0180 N   0  0  0  0  0  0  0  0  0  0  0  0
  -25.8630  -34.6360   23.3160 C   0  0  0  0  0  0  0  0  0  0  0  0
  -26.5490  -34.5770   22.2930 O   0  0  0  0  0  0  0  0  0  0  0  0
  -24.9140  -33.6640   24.8140 H   0  0  0  0  0  0  0  0  0  0  0  0
  -24.1220  -36.4360   23.0350 C   0  0  0  0  0  1  0  0  0  0  0  0
  -25.3680  -36.0070   23.8270 C   0  0  0  0  0  3  0  0  0  0  0  0
  -27.4940  -36.8850   24.6900 C   0  0  0  0  0  1  0  0  0  0  0  0
  -26.3930  -37.0720   23.7500 N   0  0  0  0  0  0  0  0  0  0  0  0
  -25.9800  -37.9840   23.9240 H   0  0  0  0  0  0  0  0  0  0  0  0
  -26.3310  -31.3620   24.9300 C   0  0  1  0  0  0  0  0  0  0  0  0
  -25.2040  -31.1090   25.9590 C   0  0  0  0  0  1  0  0  0  0  0  0
  -26.9260  -29.9900   24.5440 C   0  0  0  0  0  1  0  0  0  0  0  0
  -27.4630  -32.1420   25.6410 C   0  0  0  0  0  1  0  0  0  0  0  0
  1  7  1  0
  4  1  1  0
  4  9  1  0
  4  2  1  0
  5  3  1  0
  5  2  1  0
  5  6  1  0
  7 45  1  0
  7  3  1  0
  8  1  2  0
  9 15  1  0
 10 15  1  0
 11 12  1  0
 11 10  1  0
 13 12  1  0
 13 20  1  0
 13 14  1  0
 15 14  1  0
 16  9  2  0
 17 18  2  0
 18 37  1  0
 19 18  1  0
 19 22  1  0
 20 21  1  0
 20 17  1  0
 21 19  2  0
 22 23  1  0
 23 24  2  0
 25 28  1  0
 25 24  1  0
 26 25  2  0
 27 26  1  0
 27 22  2  0
 28 29  1  0
 29 30  1  0
 30 31  2  0
 32 31  1  0
 32 36  1  0
 33 32  2  0
 34 29  2  0
 34 33  1  0
 35 34  1  0
 37 38  1  0
 38 41  1  0
 38 40  1  0
 39 37  2  0
 42 43  1  0
 42 17  1  0
 44 42  1  0
 46 45  2  0
 46 47  1  0
 47 49  1  0
 48 59  2  0
 49 54  1  0
 50 58  1  0
 50 60  1  0
 51 57  1  0
 51 53  1  0
 52 58  1  0
 53 52  1  0
 54 53  2  0
 55 56  1  0
 55 49  2  0
 56 51  2  0
 57 50  1  0
 58 48  1  0
 60 62  2  0
 61 60  1  0
 63 61  1  0
 64 73  2  0
 64 69  1  0
 65 61  1  0
 65 69  1  0
 66 65  1  0
 67 68  1  0
 67 66  1  0
 68 64  1  0
 69 70  2  0
 70 71  1  0
 72 71  2  0
 73 72  1  0
 74 48  1  0
 74 75  1  0
 74 84  1  0
 75 78  1  0
 76 80  1  0
 76 75  1  0
 77 76  2  0
 80 79  1  0
 82 80  1  0
 82 83  1  0
 82 81  1  0
 84 87  1  1
 84 85  1  0
 86 84  1  0
M  ISO  4   4 100   9 100  46 101  47 101
M  END
>  <TORSDO>  (92) 
F 18

>  <SCORE>  (92) 
-15.546

>  <name>  (92) 
92

>  <ligand_id>  (92) 
92

>  <original_smiles>  (92) 
[H]c1c([H])c([H])c2c(c1[H])C([H])([H])C([H])([H])C([H])([H])C2([H])N([H])C(=O)C1([H])N(C(=O)C([H])(N([H])C(=O)C([H])(N([H])C([H])([H])[H])C([H])([H])[H])C(C([H])([H])[H])(C([H])([H])[H])C([H])([H])[H])C([H])([H])c2c([H])c(OC([H])([H])C([H])([H])N3C(=O)C([H])(C(=O)N4C([H])([H])C([H])([H])C([H])([H])C([H])(n5nc(-c6c([H])c([H])c(Oc7c([H])c([H])c(F)c([H])c7F)c([H])c6[H])c(C(=O)N([H])[H])c5N([H])[H])C4([H])[H])C([H])([H])C([H])(C([H])([H])[H])C3([H])[H])c([H])c([H])c2C1([H])[H]

>  <smiles>  (92) 
[H]c1c([H])c([H])c2c(c1[H])C([H])([H])C([H])([H])C([H])([H])C2([H])N([H])C(=O)C1([H])N(C(=O)C([H])(N([H])C(=O)C([H])(N([H])C([H])([H])[H])C([H])([H])[H])C(C([H])([H])[H])(C([H])([H])[H])C([H])([H])[H])C([H])([H])c2c([H])c(OC([H])([H])C([H])([H])N3C(=O)C([H])(C(=O)N4C([H])([H])C([H])([H])C([H])([H])C([H])(n5nc(-c6c([H])c([H])c(Oc7c([H])c([H])c(F)c([H])c7F)c([H])c6[H])c(C(=O)N([H])[H])c5N([H])[H])C4([H])[H])C([H])([H])C([H])(C([H])([H])[H])C3([H])[H])c([H])c([H])c2C1([H])[H]

$$$$
93:0:0
     RDKit          3D

 92 99  0  0  1  0  0  0  0  0999 V2000
  -29.2630  -21.8950   18.9830 N   0  0  0  0  0  4  0  0  0  0  0  0
  -30.0080  -21.8120   18.3120 H   0  0  0  0  0  0  0  0  0  0  0  0
  -28.4400  -22.0890   18.4380 H   0  0  0  0  0  0  0  0  0  0  0  0
  -29.5660  -23.0930   19.8730 C   0  0  0  0  0  2  0  0  0  0  0  0
  -28.6710  -24.4230   19.7330 C   0  0  0  0  0  2  0  0  0  0  0  0
  -29.3010  -25.8030   19.2330 C   0  0  0  0  0  2  0  0  0  0  0  0
  -29.0430  -27.0640   19.9730 O   0  0  0  0  0  0  0  0  0  0  0  0
  -24.6060  -31.6440   23.3130 C   0  0  0  0  0  0  0  0  0  0  0  0
  -27.8300  -27.7620   19.9270 C   0  0  0  0  0  0  0  0  0  0  0  0
  -23.6480  -30.3560   21.4430 C   0  0  0  0  0  3  0  0  0  0  0  0
  -25.3240  -29.1300   19.9450 C   0  0  0  0  0  0  0  0  0  0  0  0
  -26.1450  -30.9260   21.4750 C   0  0  0  0  0  2  0  0  0  0  0  0
  -26.4020  -29.6550   20.6700 C   0  0  0  0  0  0  0  0  0  0  0  0
  -27.6560  -28.9850   20.6420 C   0  0  0  0  0  3  0  0  0  0  0  0
  -26.7240  -27.2820   19.1930 C   0  0  0  0  0  3  0  0  0  0  0  0
  -25.4870  -27.9560   19.1960 C   0  0  0  0  0  3  0  0  0  0  0  0
  -24.0060  -29.8800   20.0130 C   0  0  0  0  0  2  0  0  0  0  0  0
  -24.8140  -30.9820   22.1380 N   0  0  0  0  0  0  0  0  0  0  0  0
  -23.4690  -31.7560   23.7960 O   0  0  0  0  0  0  0  0  0  0  0  0
  -23.0330  -29.1700   22.2240 C   0  0  0  0  0  0  0  0  0  0  0  0
  -21.7500  -28.8760   21.9630 N   0  0  0  0  0  0  0  0  0  0  0  0
  -23.7120  -28.5250   23.0300 O   0  0  0  0  0  0  0  0  0  0  0  0
  -21.2400  -29.4730   21.3280 H   0  0  0  0  0  0  0  0  0  0  0  0
  -18.5060  -27.3060   22.0100 C   0  0  0  0  0  0  0  0  0  0  0  0
  -20.9920  -27.7700   22.5450 C   0  0  0  0  0  3  0  0  0  0  0  0
  -21.3030  -26.4490   21.7970 C   0  0  0  0  0  2  0  0  0  0  0  0
  -20.3160  -26.1550   20.6610 C   0  0  0  0  0  2  0  0  0  0  0  0
  -18.8820  -26.0800   21.1960 C   0  0  0  0  0  2  0  0  0  0  0  0
  -19.4990  -28.1080   22.6280 C   0  0  0  0  0  0  0  0  0  0  0  0
  -19.1000  -29.2600   23.3380 C   0  0  0  0  0  3  0  0  0  0  0  0
  -17.7400  -29.6080   23.4480 C   0  0  0  0  0  3  0  0  0  0  0  0
  -16.7600  -28.8000   22.8520 C   0  0  0  0  0  3  0  0  0  0  0  0
  -17.1440  -27.6520   22.1370 C   0  0  0  0  0  3  0  0  0  0  0  0
  -25.7810  -32.3090   24.0970 C   0  0  0  0  0  3  0  0  0  0  0  0
  -25.3810  -33.6890   24.4030 N   0  0  0  0  0  0  0  0  0  0  0  0
  -25.7620  -34.7640   23.7020 C   0  0  0  0  0  0  0  0  0  0  0  0
  -26.5500  -34.7010   22.7530 O   0  0  0  0  0  0  0  0  0  0  0  0
  -24.6890  -33.8110   25.1260 H   0  0  0  0  0  0  0  0  0  0  0  0
  -24.0080  -36.4950   23.1870 C   0  0  0  0  0  1  0  0  0  0  0  0
  -25.1730  -36.1250   24.1190 C   0  0  0  0  0  3  0  0  0  0  0  0
  -27.1670  -37.0940   25.1780 C   0  0  0  0  0  1  0  0  0  0  0  0
  -26.1670  -37.2200   24.1210 N   0  0  0  0  0  0  0  0  0  0  0  0
  -25.7060  -38.1190   24.2260 H   0  0  0  0  0  0  0  0  0  0  0  0
  -26.1530  -31.5360   25.4230 C   0  0  1  0  0  0  0  0  0  0  0  0
  -24.9410  -31.2440   26.3370 C   0  0  0  0  0  1  0  0  0  0  0  0
  -26.8340  -30.1860   25.0960 C   0  0  0  0  0  1  0  0  0  0  0  0
  -27.1720  -32.3620   26.2430 C   0  0  0  0  0  1  0  0  0  0  0  0
  -28.9830  -20.5250   19.6050 C   0  0  0  0  0  3  0  0  0  0  0  0
  -27.6210  -20.0500   19.0480 C   0  0  0  0  0  0  0  0  0  0  0  0
  -25.3430  -20.7210   18.2800 C   0  0  0  0  0  1  0  0  0  0  0  0
  -26.6570  -20.9670   18.8770 N   0  0  0  0  0  0  0  0  0  0  0  0
  -27.4470  -18.8770   18.7070 O   0  0  0  0  0  0  0  0  0  0  0  0
  -26.8080  -21.8950   19.2380 H   0  0  0  0  0  0  0  0  0  0  0  0
  -30.1060  -19.3960   19.3630 C   0  0  0  0  0  2  0  0  0  0  0  0
  -30.3600  -18.1940   20.4010 C   0  0  0  0  0  2  0  0  0  0  0  0
  -30.6430  -16.7880   19.7010 C   0  0  0  0  0  2  0  0  0  0  0  0
  -31.5470  -15.5860   20.2460 C   0  0  0  0  0  0  0  0  0  0  0  0
  -31.5740  -13.1400   19.7830 C   0  0  0  0  0  2  0  0  0  0  0  0
  -30.7400  -12.8440   18.5110 C   0  0  0  0  0  2  0  0  0  0  0  0
  -29.2570  -12.6350   18.8730 C   0  0  0  0  0  2  0  0  0  0  0  0
  -28.7190  -13.7600   19.7960 C   0  0  0  0  0  3  0  0  0  0  0  0
  -29.6780  -14.0510   20.9720 C   0  0  0  0  0  2  0  0  0  0  0  0
  -31.0080  -14.3360   20.4360 N   0  0  0  0  0  0  0  0  0  0  0  0
  -32.7670  -15.7150   20.1290 O   0  0  0  0  0  0  0  0  0  0  0  0
  -26.3330  -14.3910   20.4920 C   0  0  0  0  0  0  0  0  0  0  0  0
  -25.2430  -13.6370   20.8110 C   0  0  0  0  0  0  0  0  0  0  0  0
  -25.6790  -12.2740   20.7690 C   0  0  0  0  0  0  0  0  0  0  0  0
  -27.3640  -13.4950   20.2590 N   0  0  0  0  0  0  0  0  0  0  0  0
  -26.9760  -12.2140   20.4930 N   0  0  0  0  0  0  0  0  0  0  0  0
  -24.9190  -11.0260   20.9100 C   0  0  0  0  0  0  0  0  0  0  0  0
  -25.2120  -10.0890   21.9280 C   0  0  0  0  0  3  0  0  0  0  0  0
  -24.4540   -8.9060   22.0510 C   0  0  0  0  0  3  0  0  0  0  0  0
  -23.3900   -8.6490   21.1530 C   0  0  0  0  0  0  0  0  0  0  0  0
  -23.1140   -9.5750   20.1300 C   0  0  0  0  0  3  0  0  0  0  0  0
  -23.8750  -10.7490   20.0060 C   0  0  0  0  0  3  0  0  0  0  0  0
  -22.6140   -7.5160   21.1840 O   0  0  0  0  0  0  0  0  0  0  0  0
  -22.2750   -6.9050   22.3650 C   0  0  0  0  0  0  0  0  0  0  0  0
  -21.5510   -7.5820   23.3710 C   0  0  0  0  0  3  0  0  0  0  0  0
  -21.1610   -6.8970   24.5390 C   0  0  0  0  0  3  0  0  0  0  0  0
  -21.4860   -5.5380   24.7010 C   0  0  0  0  0  0  0  0  0  0  0  0
  -22.2030   -4.8610   23.6990 C   0  0  0  0  0  3  0  0  0  0  0  0
  -22.5960   -5.5420   22.5340 C   0  0  0  0  0  0  0  0  0  0  0  0
  -23.2660   -4.8790   21.5610 F   0  0  0  0  0  0  0  0  0  0  0  0
  -21.1080   -4.8790   25.8210 F   0  0  0  0  0  0  0  0  0  0  0  0
  -23.8470  -14.1390   21.0440 C   0  0  0  0  0  0  0  0  0  0  0  0
  -23.0880  -13.4600   21.8890 N   0  0  0  0  0  0  0  0  0  0  0  0
  -23.4440  -15.1780   20.5190 O   0  0  0  0  0  0  0  0  0  0  0  0
  -23.4310  -12.6210   22.3330 H   0  0  0  0  0  0  0  0  0  0  0  0
  -22.1550  -13.7860   22.0950 H   0  0  0  0  0  0  0  0  0  0  0  0
  -26.5280  -15.7650   20.3550 N   0  0  0  0  0  0  0  0  0  0  0  0
  -25.7770  -16.4280   20.5070 H   0  0  0  0  0  0  0  0  0  0  0  0
  -27.4000  -16.2140   20.1070 H   0  0  0  0  0  0  0  0  0  0  0  0
  1 48  1  0
  1  4  1  0
  2  1  1  0
  3  1  1  0
  5  4  1  0
  6  5  1  0
  6  7  1  0
  8 19  2  0
  9  7  1  0
  9 14  1  0
 10 18  1  0
 10 20  1  0
 11 17  1  0
 11 13  1  0
 12 18  1  0
 13 12  1  0
 14 13  2  0
 15 16  1  0
 15  9  2  0
 16 11  2  0
 17 10  1  0
 18  8  1  0
 20 22  2  0
 21 20  1  0
 23 21  1  0
 24 33  2  0
 24 29  1  0
 25 21  1  0
 25 29  1  0
 26 25  1  0
 27 28  1  0
 27 26  1  0
 28 24  1  0
 29 30  2  0
 30 31  1  0
 32 31  2  0
 33 32  1  0
 34  8  1  0
 34 35  1  0
 34 44  1  0
 35 38  1  0
 36 40  1  0
 36 35  1  0
 37 36  2  0
 40 39  1  0
 40 42  1  0
 42 43  1  0
 42 41  1  0
 44 47  1  1
 44 45  1  0
 46 44  1  0
 48 54  1  0
 49 48  1  0
 50 51  1  0
 51 49  1  0
 51 53  1  0
 52 49  2  0
 54 55  1  0
 56 57  1  0
 56 55  1  0
 57 63  1  0
 58 63  1  0
 59 60  1  0
 59 58  1  0
 61 60  1  0
 61 68  1  0
 61 62  1  0
 63 62  1  0
 64 57  2  0
 65 66  2  0
 66 85  1  0
 67 66  1  0
 67 70  1  0
 68 65  1  0
 68 69  1  0
 69 67  2  0
 70 71  1  0
 71 72  2  0
 73 76  1  0
 73 72  1  0
 74 73  2  0
 75 74  1  0
 75 70  2  0
 76 77  1  0
 77 82  2  0
 77 78  1  0
 78 79  2  0
 79 80  1  0
 80 84  1  0
 81 80  2  0
 82 81  1  0
 83 82  1  0
 85 86  1  0
 86 89  1  0
 86 88  1  0
 87 85  2  0
 90 65  1  0
 90 91  1  0
 92 90  1  0
M  ISO  4   6 101   7 101  56 100  57 100
M  END
>  <TORSDO>  (93) 
F 24

>  <SCORE>  (93) 
-10.018

>  <name>  (93) 
93

>  <ligand_id>  (93) 
93

>  <original_smiles>  (93) 
[H]c1c([H])c([H])c2c(c1[H])C([H])([H])C([H])([H])C([H])([H])C2([H])N([H])C(=O)C1([H])N(C(=O)C([H])(N([H])C(=O)C([H])(N([H])C([H])([H])[H])C([H])([H])[H])C(C([H])([H])[H])(C([H])([H])[H])C([H])([H])[H])C([H])([H])c2c([H])c(OC([H])([H])C([H])([H])C([H])([H])[N+]([H])([H])C([H])(C(=O)N([H])C([H])([H])[H])C([H])([H])C([H])([H])C([H])([H])C(=O)N3C([H])([H])C([H])([H])C([H])([H])C([H])(n4nc(-c5c([H])c([H])c(Oc6c([H])c([H])c(F)c([H])c6F)c([H])c5[H])c(C(=O)N([H])[H])c4N([H])[H])C3([H])[H])c([H])c([H])c2C1([H])[H]

>  <smiles>  (93) 
[H]c1c([H])c([H])c2c(c1[H])C([H])([H])C([H])([H])C([H])([H])C2([H])N([H])C(=O)C1([H])N(C(=O)C([H])(N([H])C(=O)C([H])(N([H])C([H])([H])[H])C([H])([H])[H])C(C([H])([H])[H])(C([H])([H])[H])C([H])([H])[H])C([H])([H])c2c([H])c(OC([H])([H])C([H])([H])C([H])([H])[N+]([H])([H])C([H])(C(=O)N([H])C([H])([H])[H])C([H])([H])C([H])([H])C([H])([H])C(=O)N3C([H])([H])C([H])([H])C([H])([H])C([H])(n4nc(-c5c([H])c([H])c(Oc6c([H])c([H])c(F)c([H])c6F)c([H])c5[H])c(C(=O)N([H])[H])c4N([H])[H])C3([H])[H])c([H])c([H])c2C1([H])[H]

$$$$
94:0:0
     RDKit          3D

 92 99  0  0  1  0  0  0  0  0999 V2000
  -29.1130  -22.1490   20.2670 C   0  0  0  0  0  3  0  0  0  0  0  0
  -27.2300  -21.8400   18.6350 C   0  0  0  0  0  1  0  0  0  0  0  0
  -27.1850  -20.6170   20.7720 C   0  0  0  0  0  1  0  0  0  0  0  0
  -27.6710  -21.8210   20.0510 N   0  0  1  0  0  4  0  0  0  0  0  0
  -27.1710  -22.5750   20.4960 H   0  0  0  0  0  0  0  0  0  0  0  0
  -29.3520  -23.7640   19.8640 C   0  0  0  0  0  3  0  0  0  0  0  0
  -28.4200  -25.0360   20.4070 C   0  0  0  0  0  3  0  0  0  0  0  0
  -28.6430  -26.5360   20.1340 O   0  0  0  0  0  0  0  0  0  0  0  0
  -24.7610  -31.8930   23.3190 C   0  0  0  0  0  0  0  0  0  0  0  0
  -27.5450  -27.4540   20.1290 C   0  0  0  0  0  0  0  0  0  0  0  0
  -23.6390  -30.5530   21.5790 C   0  0  0  0  0  3  0  0  0  0  0  0
  -25.1670  -29.0990   20.1140 C   0  0  0  0  0  0  0  0  0  0  0  0
  -26.1830  -30.9100   21.4890 C   0  0  0  0  0  2  0  0  0  0  0  0
  -26.3140  -29.5590   20.7740 C   0  0  0  0  0  0  0  0  0  0  0  0
  -27.5100  -28.7530   20.7630 C   0  0  0  0  0  3  0  0  0  0  0  0
  -26.3760  -27.0870   19.4290 C   0  0  0  0  0  3  0  0  0  0  0  0
  -25.2080  -27.8780   19.4250 C   0  0  0  0  0  3  0  0  0  0  0  0
  -23.9130  -29.9550   20.1730 C   0  0  0  0  0  2  0  0  0  0  0  0
  -24.8790  -31.1380   22.1860 N   0  0  0  0  0  0  0  0  0  0  0  0
  -23.6560  -32.1180   23.8360 O   0  0  0  0  0  0  0  0  0  0  0  0
  -22.9690  -29.4770   22.4700 C   0  0  0  0  0  0  0  0  0  0  0  0
  -21.6470  -29.2910   22.3120 N   0  0  0  0  0  0  0  0  0  0  0  0
  -23.6420  -28.8150   23.2660 O   0  0  0  0  0  0  0  0  0  0  0  0
  -21.1610  -29.8780   21.6500 H   0  0  0  0  0  0  0  0  0  0  0  0
  -18.2750  -28.0290   22.7180 C   0  0  0  0  0  0  0  0  0  0  0  0
  -20.8310  -28.2960   23.0120 C   0  0  0  0  0  3  0  0  0  0  0  0
  -20.9470  -26.9090   22.3390 C   0  0  0  0  0  2  0  0  0  0  0  0
  -19.8510  -26.6460   21.3010 C   0  0  0  0  0  2  0  0  0  0  0  0
  -18.4670  -26.7320   21.9490 C   0  0  0  0  0  2  0  0  0  0  0  0
  -19.3870  -28.7710   23.2030 C   0  0  0  0  0  0  0  0  0  0  0  0
  -19.1560  -29.9880   23.8820 C   0  0  0  0  0  3  0  0  0  0  0  0
  -17.8470  -30.4670   24.0750 C   0  0  0  0  0  3  0  0  0  0  0  0
  -16.7500  -29.7220   23.6060 C   0  0  0  0  0  3  0  0  0  0  0  0
  -16.9640  -28.5040   22.9350 C   0  0  0  0  0  3  0  0  0  0  0  0
  -26.0080  -32.5260   24.0100 C   0  0  0  0  0  3  0  0  0  0  0  0
  -26.4850  -31.7240   25.2830 C   0  0  1  0  0  0  0  0  0  0  0  0
  -25.3500  -31.4240   26.2900 C   0  0  0  0  0  1  0  0  0  0  0  0
  -27.1200  -30.3730   24.8760 C   0  0  0  0  0  1  0  0  0  0  0  0
  -27.5830  -32.5250   26.0240 C   0  0  0  0  0  1  0  0  0  0  0  0
  -25.6640  -33.9090   24.3730 N   0  0  0  0  0  0  0  0  0  0  0  0
  -26.0020  -34.9920   23.6600 C   0  0  0  0  0  0  0  0  0  0  0  0
  -26.7040  -34.9310   22.6470 O   0  0  0  0  0  0  0  0  0  0  0  0
  -25.0370  -34.0240   25.1570 H   0  0  0  0  0  0  0  0  0  0  0  0
  -24.2520  -36.7690   23.3220 C   0  0  0  0  0  1  0  0  0  0  0  0
  -25.4820  -36.3590   24.1480 C   0  0  0  0  0  3  0  0  0  0  0  0
  -27.5780  -37.2590   25.0620 C   0  0  0  0  0  1  0  0  0  0  0  0
  -26.5020  -37.4310   24.0910 N   0  0  0  0  0  0  0  0  0  0  0  0
  -26.0750  -38.3390   24.2480 H   0  0  0  0  0  0  0  0  0  0  0  0
  -30.1020  -20.8810   19.7310 C   0  0  0  0  0  3  0  0  0  0  0  0
  -31.0240  -19.6860   21.7490 C   0  0  0  0  0  1  0  0  0  0  0  0
  -30.2330  -19.5080   20.5280 N   0  0  0  0  0  0  0  0  0  0  0  0
  -30.6290  -18.1370   19.8430 C   0  0  0  0  0  3  0  0  0  0  0  0
  -30.4810  -16.6470   20.5870 C   0  0  0  0  0  3  0  0  0  0  0  0
  -31.2020  -15.2520   20.0940 C   0  0  0  0  0  0  0  0  0  0  0  0
  -31.0270  -12.9180   19.1310 C   0  0  0  0  0  2  0  0  0  0  0  0
  -30.0660  -12.9310   17.9190 C   0  0  0  0  0  2  0  0  0  0  0  0
  -28.6060  -12.7500   18.3770 C   0  0  0  0  0  2  0  0  0  0  0  0
  -28.2470  -13.6690   19.5740 C   0  0  0  0  0  3  0  0  0  0  0  0
  -29.3230  -13.6200   20.6790 C   0  0  0  0  0  2  0  0  0  0  0  0
  -30.6020  -13.9980   20.0650 N   0  0  0  0  0  0  0  0  0  0  0  0
  -32.3590  -15.3260   19.6640 O   0  0  0  0  0  0  0  0  0  0  0  0
  -25.8890  -14.2800   20.3700 C   0  0  0  0  0  0  0  0  0  0  0  0
  -24.8180  -13.5160   20.7480 C   0  0  0  0  0  0  0  0  0  0  0  0
  -25.2570  -12.1580   20.6820 C   0  0  0  0  0  0  0  0  0  0  0  0
  -26.9110  -13.3890   20.0920 N   0  0  0  0  0  0  0  0  0  0  0  0
  -26.5400  -12.1060   20.3420 N   0  0  0  0  0  0  0  0  0  0  0  0
  -24.5100  -10.9050   20.8630 C   0  0  0  0  0  0  0  0  0  0  0  0
  -24.8750   -9.9660   21.8520 C   0  0  0  0  0  3  0  0  0  0  0  0
  -24.1310   -8.7790   22.0220 C   0  0  0  0  0  3  0  0  0  0  0  0
  -23.0070   -8.5220   21.2010 C   0  0  0  0  0  0  0  0  0  0  0  0
  -22.6610   -9.4510   20.2010 C   0  0  0  0  0  3  0  0  0  0  0  0
  -23.4060  -10.6300   20.0310 C   0  0  0  0  0  3  0  0  0  0  0  0
  -22.2400   -7.3840   21.2750 O   0  0  0  0  0  0  0  0  0  0  0  0
  -22.0280   -6.7360   22.4670 C   0  0  0  0  0  0  0  0  0  0  0  0
  -21.4060   -7.3760   23.5620 C   0  0  0  0  0  3  0  0  0  0  0  0
  -21.1450   -6.6530   24.7430 C   0  0  0  0  0  3  0  0  0  0  0  0
  -21.4930   -5.2920   24.8270 C   0  0  0  0  0  0  0  0  0  0  0  0
  -22.1090   -4.6520   23.7360 C   0  0  0  0  0  3  0  0  0  0  0  0
  -22.3710   -5.3720   22.5580 C   0  0  0  0  0  0  0  0  0  0  0  0
  -22.9440   -4.7450   21.5020 F   0  0  0  0  0  0  0  0  0  0  0  0
  -21.2350   -4.5950   25.9590 F   0  0  0  0  0  0  0  0  0  0  0  0
  -23.4360  -14.0140   21.0600 C   0  0  0  0  0  0  0  0  0  0  0  0
  -22.7180  -13.3180   21.9340 N   0  0  0  0  0  0  0  0  0  0  0  0
  -23.0040  -15.0550   20.5650 O   0  0  0  0  0  0  0  0  0  0  0  0
  -23.0780  -12.4740   22.3540 H   0  0  0  0  0  0  0  0  0  0  0  0
  -21.7930  -13.6340   22.1870 H   0  0  0  0  0  0  0  0  0  0  0  0
  -26.0700  -15.6490   20.2170 N   0  0  0  0  0  0  0  0  0  0  0  0
  -25.3170  -16.3120   20.3610 H   0  0  0  0  0  0  0  0  0  0  0  0
  -26.9220  -16.0850   19.8840 H   0  0  0  0  0  0  0  0  0  0  0  0
  -31.4840  -21.5210   19.4330 C   0  0  0  0  0  2  0  0  0  0  0  0
  -32.3240  -20.6650   18.6840 O   0  0  0  0  0  0  0  0  0  0  0  0
  -32.4750  -19.8950   19.2200 H   0  0  0  0  0  0  0  0  0  0  0  0
  1  6  1  0
  2  4  1  0
  4  1  1  0
  4  5  1  1
  4  3  1  0
  6  7  2  0
  8  7  1  0
  9 20  2  0
 10  8  1  0
 10 15  1  0
 11 19  1  0
 11 21  1  0
 12 18  1  0
 12 14  1  0
 13 19  1  0
 14 13  1  0
 15 14  2  0
 16 10  2  0
 17 16  1  0
 17 12  2  0
 18 11  1  0
 19  9  1  0
 21 23  2  0
 22 21  1  0
 24 22  1  0
 25 34  2  0
 25 30  1  0
 26 22  1  0
 26 30  1  0
 27 26  1  0
 28 29  1  0
 28 27  1  0
 29 25  1  0
 30 31  2  0
 31 32  1  0
 33 32  2  0
 34 33  1  0
 35  9  1  0
 35 40  1  0
 35 36  1  0
 36 39  1  1
 36 37  1  0
 38 36  1  0
 40 43  1  0
 41 45  1  0
 41 40  1  0
 42 41  2  0
 45 44  1  0
 47 45  1  0
 47 48  1  0
 47 46  1  0
 49 90  1  0
 49  1  1  0
 49 51  1  0
 51 50  1  0
 52 51  1  0
 52 53  2  0
 54 53  1  0
 55 60  1  0
 56 57  1  0
 56 55  1  0
 58 57  1  0
 58 65  1  0
 58 59  1  0
 60 54  1  0
 60 59  1  0
 61 54  2  0
 62 63  2  0
 63 82  1  0
 64 63  1  0
 64 67  1  0
 65 66  1  0
 65 62  1  0
 66 64  2  0
 67 68  1  0
 68 69  2  0
 70 73  1  0
 70 69  1  0
 71 70  2  0
 72 71  1  0
 72 67  2  0
 73 74  1  0
 74 79  2  0
 74 75  1  0
 75 76  2  0
 76 77  1  0
 77 81  1  0
 78 77  2  0
 79 78  1  0
 80 79  1  0
 82 83  1  0
 83 86  1  0
 83 85  1  0
 84 82  2  0
 87 88  1  0
 87 62  1  0
 89 87  1  0
 91 92  1  0
 91 90  1  0
M  ISO  4   7 101   8 101  53 100  54 100
M  END
>  <TORSDO>  (94) 
F 25

>  <SCORE>  (94) 
-11.027

>  <name>  (94) 
94

>  <ligand_id>  (94) 
94

>  <original_smiles>  (94) 
[H]OC([H])([H])C([H])(N(C([H])([H])[H])C([H])([H])C([H])([H])C(=O)N1C([H])([H])C([H])([H])C([H])([H])C([H])(n2nc(-c3c([H])c([H])c(Oc4c([H])c([H])c(F)c([H])c4F)c([H])c3[H])c(C(=O)N([H])[H])c2N([H])[H])C1([H])[H])C([H])(C([H])([H])C([H])([H])Oc1c([H])c([H])c2c(c1[H])C([H])([H])N(C(=O)C([H])(N([H])C(=O)C([H])(N([H])C([H])([H])[H])C([H])([H])[H])C(C([H])([H])[H])(C([H])([H])[H])C([H])([H])[H])C([H])(C(=O)N([H])C1([H])c3c([H])c([H])c([H])c([H])c3C([H])([H])C([H])([H])C1([H])[H])C2([H])[H])[N+]([H])(C([H])([H])[H])C([H])([H])[H]

>  <smiles>  (94) 
[H]OC([H])([H])C([H])(N(C([H])([H])[H])C([H])([H])C([H])([H])C(=O)N1C([H])([H])C([H])([H])C([H])([H])C([H])(n2nc(-c3c([H])c([H])c(Oc4c([H])c([H])c(F)c([H])c4F)c([H])c3[H])c(C(=O)N([H])[H])c2N([H])[H])C1([H])[H])C([H])(C([H])([H])C([H])([H])Oc1c([H])c([H])c2c(c1[H])C([H])([H])N(C(=O)C([H])(N([H])C(=O)C([H])(N([H])C([H])([H])[H])C([H])([H])[H])C(C([H])([H])[H])(C([H])([H])[H])C([H])([H])[H])C([H])(C(=O)N([H])C1([H])c3c([H])c([H])c([H])c([H])c3C([H])([H])C([H])([H])C1([H])[H])C2([H])[H])[N+]([H])(C([H])([H])[H])C([H])([H])[H]

$$$$
95:0:0
     RDKit          3D

 88 95  0  0  1  0  0  0  0  0999 V2000
  -28.8870  -21.2140   19.7050 C   0  0  0  0  0  3  0  0  0  0  0  0
  -29.7030  -19.8410   21.7540 C   0  0  0  0  0  1  0  0  0  0  0  0
  -29.7400  -19.9130   20.2770 N   0  0  1  0  0  4  0  0  0  0  0  0
  -30.6720  -20.2770   20.1400 H   0  0  0  0  0  0  0  0  0  0  0  0
  -29.9720  -18.4180   19.5890 C   0  0  0  0  0  2  0  0  0  0  0  0
  -30.0030  -16.7960   20.3100 C   0  0  0  0  0  2  0  0  0  0  0  0
  -30.7470  -15.2950   19.8480 C   0  0  0  0  0  0  0  0  0  0  0  0
  -30.6500  -12.8720   18.9430 C   0  0  0  0  0  2  0  0  0  0  0  0
  -29.6490  -12.7440   17.7670 C   0  0  0  0  0  2  0  0  0  0  0  0
  -28.2280  -12.4800   18.2960 C   0  0  0  0  0  2  0  0  0  0  0  0
  -27.8660  -13.4260   19.4660 C   0  0  0  0  0  3  0  0  0  0  0  0
  -28.9820  -13.5180   20.5270 C   0  0  0  0  0  2  0  0  0  0  0  0
  -30.1990  -13.9880   19.8460 N   0  0  0  0  0  0  0  0  0  0  0  0
  -31.9140  -15.3200   19.4300 O   0  0  0  0  0  0  0  0  0  0  0  0
  -25.5600  -13.9950   20.3990 C   0  0  0  0  0  0  0  0  0  0  0  0
  -24.5150  -13.2210   20.8180 C   0  0  0  0  0  0  0  0  0  0  0  0
  -24.9580  -11.8650   20.7120 C   0  0  0  0  0  0  0  0  0  0  0  0
  -26.5690  -13.1140   20.0530 N   0  0  0  0  0  0  0  0  0  0  0  0
  -26.2240  -11.8250   20.3100 N   0  0  0  0  0  0  0  0  0  0  0  0
  -24.2270  -10.6070   20.9110 C   0  0  0  0  0  0  0  0  0  0  0  0
  -24.6750   -9.6290   21.8260 C   0  0  0  0  0  3  0  0  0  0  0  0
  -23.9420   -8.4380   22.0150 C   0  0  0  0  0  3  0  0  0  0  0  0
  -22.7460   -8.2170   21.2920 C   0  0  0  0  0  0  0  0  0  0  0  0
  -22.3160   -9.1850   20.3670 C   0  0  0  0  0  3  0  0  0  0  0  0
  -23.0490  -10.3680   20.1750 C   0  0  0  0  0  3  0  0  0  0  0  0
  -21.9840   -7.0790   21.3920 O   0  0  0  0  0  0  0  0  0  0  0  0
  -21.9240   -6.3500   22.5530 C   0  0  0  0  0  0  0  0  0  0  0  0
  -21.4670   -6.9150   23.7630 C   0  0  0  0  0  3  0  0  0  0  0  0
  -21.3580   -6.1140   24.9170 C   0  0  0  0  0  3  0  0  0  0  0  0
  -21.6930   -4.7480   24.8610 C   0  0  0  0  0  0  0  0  0  0  0  0
  -22.1410   -4.1820   23.6550 C   0  0  0  0  0  3  0  0  0  0  0  0
  -22.2530   -4.9800   22.5030 C   0  0  0  0  0  0  0  0  0  0  0  0
  -22.6660   -4.4250   21.3380 F   0  0  0  0  0  0  0  0  0  0  0  0
  -21.5810   -3.9750   25.9670 F   0  0  0  0  0  0  0  0  0  0  0  0
  -23.1470  -13.7070   21.1980 C   0  0  0  0  0  0  0  0  0  0  0  0
  -22.4750  -13.0020   22.1000 N   0  0  0  0  0  0  0  0  0  0  0  0
  -22.6870  -14.7490   20.7340 O   0  0  0  0  0  0  0  0  0  0  0  0
  -22.8620  -12.1570   22.4950 H   0  0  0  0  0  0  0  0  0  0  0  0
  -21.5610  -13.3100   22.4000 H   0  0  0  0  0  0  0  0  0  0  0  0
  -25.7320  -15.3700   20.2550 N   0  0  0  0  0  0  0  0  0  0  0  0
  -24.9860  -16.0280   20.4450 H   0  0  0  0  0  0  0  0  0  0  0  0
  -26.5690  -15.8090   19.8940 H   0  0  0  0  0  0  0  0  0  0  0  0
  -26.7400  -21.6510   18.3460 C   0  0  0  0  0  1  0  0  0  0  0  0
  -26.9940  -19.3790   19.3010 C   0  0  0  0  0  1  0  0  0  0  0  0
  -27.3680  -20.8640   19.5180 C   0  0  0  0  0  3  0  0  0  0  0  0
  -28.9470  -22.8840   20.3430 C   0  0  0  0  0  3  0  0  0  0  0  0
  -28.1120  -24.3920   19.8940 C   0  0  0  0  0  3  0  0  0  0  0  0
  -28.2900  -25.9660   20.2580 O   0  0  0  0  0  0  0  0  0  0  0  0
  -24.6490  -31.8300   23.1740 C   0  0  0  0  0  0  0  0  0  0  0  0
  -27.2650  -27.0260   20.1610 C   0  0  0  0  0  0  0  0  0  0  0  0
  -23.4760  -30.4260   21.5270 C   0  0  0  0  0  3  0  0  0  0  0  0
  -24.9450  -28.8470   20.1040 C   0  0  0  0  0  0  0  0  0  0  0  0
  -26.0360  -30.6760   21.3910 C   0  0  0  0  0  2  0  0  0  0  0  0
  -26.1220  -29.2730   20.7310 C   0  0  0  0  0  0  0  0  0  0  0  0
  -27.2750  -28.3800   20.7400 C   0  0  0  0  0  3  0  0  0  0  0  0
  -26.0630  -26.7410   19.4750 C   0  0  0  0  0  3  0  0  0  0  0  0
  -24.9370  -27.6010   19.4560 C   0  0  0  0  0  3  0  0  0  0  0  0
  -23.7140  -29.7490   20.1500 C   0  0  0  0  0  2  0  0  0  0  0  0
  -24.7420  -31.0030   22.0850 N   0  0  0  0  0  0  0  0  0  0  0  0
  -23.5570  -32.1100   23.6920 O   0  0  0  0  0  0  0  0  0  0  0  0
  -22.7900  -29.4190   22.4860 C   0  0  0  0  0  0  0  0  0  0  0  0
  -21.4630  -29.2320   22.3440 N   0  0  0  0  0  0  0  0  0  0  0  0
  -23.4560  -28.8060   23.3220 O   0  0  0  0  0  0  0  0  0  0  0  0
  -20.9790  -29.7710   21.6390 H   0  0  0  0  0  0  0  0  0  0  0  0
  -18.0970  -27.9810   22.8190 C   0  0  0  0  0  0  0  0  0  0  0  0
  -20.6480  -28.2870   23.1140 C   0  0  0  0  0  3  0  0  0  0  0  0
  -20.7760  -26.8490   22.5570 C   0  0  0  0  0  2  0  0  0  0  0  0
  -19.6990  -26.5070   21.5250 C   0  0  0  0  0  2  0  0  0  0  0  0
  -18.3020  -26.6370   22.1420 C   0  0  0  0  0  2  0  0  0  0  0  0
  -19.1980  -28.7630   23.2600 C   0  0  0  0  0  0  0  0  0  0  0  0
  -18.9500  -30.0190   23.8570 C   0  0  0  0  0  3  0  0  0  0  0  0
  -17.6360  -30.4960   24.0120 C   0  0  0  0  0  3  0  0  0  0  0  0
  -16.5500  -29.7120   23.5850 C   0  0  0  0  0  3  0  0  0  0  0  0
  -16.7800  -28.4570   22.9970 C   0  0  0  0  0  3  0  0  0  0  0  0
  -25.9150  -32.4810   23.8130 C   0  0  0  0  0  3  0  0  0  0  0  0
  -25.5870  -33.8800   24.1380 N   0  0  0  0  0  0  0  0  0  0  0  0
  -25.9290  -34.9390   23.3940 C   0  0  0  0  0  0  0  0  0  0  0  0
  -26.6160  -34.8420   22.3750 O   0  0  0  0  0  0  0  0  0  0  0  0
  -24.9750  -34.0280   24.9280 H   0  0  0  0  0  0  0  0  0  0  0  0
  -24.2060  -36.7380   23.0240 C   0  0  0  0  0  1  0  0  0  0  0  0
  -25.4330  -36.3260   23.8530 C   0  0  0  0  0  3  0  0  0  0  0  0
  -27.5460  -37.2170   24.7350 C   0  0  0  0  0  1  0  0  0  0  0  0
  -26.4670  -37.3810   23.7660 N   0  0  0  0  0  0  0  0  0  0  0  0
  -26.0550  -38.3010   23.9000 H   0  0  0  0  0  0  0  0  0  0  0  0
  -26.4150  -31.7240   25.1050 C   0  0  1  0  0  0  0  0  0  0  0  0
  -25.3090  -31.4860   26.1600 C   0  0  0  0  0  1  0  0  0  0  0  0
  -27.0170  -30.3480   24.7410 C   0  0  0  0  0  1  0  0  0  0  0  0
  -27.5500  -32.5320   25.7790 C   0  0  0  0  0  1  0  0  0  0  0  0
  1  3  1  0
  1 46  1  0
  3  2  1  0
  3  4  1  1
  5  3  1  0
  5  6  1  0
  7  6  1  0
  8 13  1  0
  9 10  1  0
  9  8  1  0
 11 10  1  0
 11 18  1  0
 11 12  1  0
 13  7  1  0
 13 12  1  0
 14  7  2  0
 15 16  2  0
 16 35  1  0
 17 16  1  0
 17 20  1  0
 18 19  1  0
 18 15  1  0
 19 17  2  0
 20 21  1  0
 21 22  2  0
 23 26  1  0
 23 22  1  0
 24 23  2  0
 25 24  1  0
 25 20  2  0
 26 27  1  0
 27 28  1  0
 28 29  2  0
 30 29  1  0
 30 34  1  0
 31 30  2  0
 32 27  2  0
 32 31  1  0
 33 32  1  0
 35 36  1  0
 36 39  1  0
 36 38  1  0
 37 35  2  0
 40 15  1  0
 40 41  1  0
 42 40  1  0
 43 45  1  0
 44 45  1  0
 45  1  1  0
 47 48  1  0
 47 46  2  0
 49 60  2  0
 50 48  1  0
 50 55  1  0
 51 59  1  0
 51 61  1  0
 52 58  1  0
 52 54  1  0
 53 59  1  0
 54 55  2  0
 54 53  1  0
 56 50  2  0
 57 56  1  0
 57 52  2  0
 58 51  1  0
 59 49  1  0
 61 63  2  0
 62 61  1  0
 64 62  1  0
 65 74  2  0
 65 70  1  0
 66 62  1  0
 66 70  1  0
 67 66  1  0
 68 69  1  0
 68 67  1  0
 69 65  1  0
 70 71  2  0
 71 72  1  0
 73 72  2  0
 74 73  1  0
 75 49  1  0
 75 76  1  0
 75 85  1  0
 76 79  1  0
 77 81  1  0
 77 76  1  0
 78 77  2  0
 81 80  1  0
 83 81  1  0
 83 84  1  0
 83 82  1  0
 85 88  1  1
 85 86  1  0
 87 85  1  0
M  ISO  4   6 100   7 100  47 101  48 101
M  END
>  <TORSDO>  (95) 
F 22

>  <SCORE>  (95) 
-13.899

>  <name>  (95) 
95

>  <ligand_id>  (95) 
95

>  <original_smiles>  (95) 
[H]c1c([H])c([H])c2c(c1[H])C([H])([H])C([H])([H])C([H])([H])C2([H])N([H])C(=O)C1([H])N(C(=O)C([H])(N([H])C(=O)C([H])(N([H])C([H])([H])[H])C([H])([H])[H])C(C([H])([H])[H])(C([H])([H])[H])C([H])([H])[H])C([H])([H])c2c([H])c(OC([H])([H])C([H])([H])C([H])(C([H])(C([H])([H])[H])C([H])([H])[H])[N+]([H])(C([H])([H])[H])C([H])([H])C([H])([H])C(=O)N3C([H])([H])C([H])([H])C([H])([H])C([H])(n4nc(-c5c([H])c([H])c(Oc6c([H])c([H])c(F)c([H])c6F)c([H])c5[H])c(C(=O)N([H])[H])c4N([H])[H])C3([H])[H])c([H])c([H])c2C1([H])[H]

>  <smiles>  (95) 
[H]c1c([H])c([H])c2c(c1[H])C([H])([H])C([H])([H])C([H])([H])C2([H])N([H])C(=O)C1([H])N(C(=O)C([H])(N([H])C(=O)C([H])(N([H])C([H])([H])[H])C([H])([H])[H])C(C([H])([H])[H])(C([H])([H])[H])C([H])([H])[H])C([H])([H])c2c([H])c(OC([H])([H])C([H])([H])C([H])(C([H])(C([H])([H])[H])C([H])([H])[H])[N+]([H])(C([H])([H])[H])C([H])([H])C([H])([H])C(=O)N3C([H])([H])C([H])([H])C([H])([H])C([H])(n4nc(-c5c([H])c([H])c(Oc6c([H])c([H])c(F)c([H])c6F)c([H])c5[H])c(C(=O)N([H])[H])c4N([H])[H])C3([H])[H])c([H])c([H])c2C1([H])[H]

$$$$
96:0:0
     RDKit          3D

 91 99  0  0  1  0  0  0  0  0999 V2000
  -30.3600  -19.0380   19.3160 C   0  0  0  0  0  2  0  0  0  0  0  0
  -28.6800  -19.1370   21.1510 C   0  0  0  0  0  2  0  0  0  0  0  0
  -30.2660  -20.6080   19.1360 C   0  0  0  0  0  2  0  0  0  0  0  0
  -28.6510  -20.7110   21.0240 C   0  0  0  0  0  2  0  0  0  0  0  0
  -29.0860  -18.3230   19.8720 C   0  0  1  0  0  0  0  0  0  0  0  0
  -27.9480  -18.4550   18.8150 C   0  0  0  0  0  1  0  0  0  0  0  0
  -29.0000  -21.1960   19.6610 N   0  0  1  0  0  4  0  0  0  0  0  0
  -28.3440  -20.6430   19.1280 H   0  0  0  0  0  0  0  0  0  0  0  0
  -29.1390  -16.7150   20.0550 C   0  0  0  0  0  2  0  0  0  0  0  0
  -30.7920  -14.8020   20.1070 C   0  0  0  0  0  0  0  0  0  0  0  0
  -30.4420  -12.5890   19.0280 C   0  0  0  0  0  2  0  0  0  0  0  0
  -29.4570  -12.7100   17.8490 C   0  0  0  0  0  2  0  0  0  0  0  0
  -28.0120  -12.5320   18.3480 C   0  0  0  0  0  2  0  0  0  0  0  0
  -27.6940  -13.4250   19.5750 C   0  0  0  0  0  3  0  0  0  0  0  0
  -28.7970  -13.3240   20.6560 C   0  0  0  0  0  2  0  0  0  0  0  0
  -30.0840  -13.6310   20.0150 N   0  0  0  0  0  0  0  0  0  0  0  0
  -31.9330  -14.8860   19.6440 O   0  0  0  0  0  0  0  0  0  0  0  0
  -30.9070  -16.5090   21.8460 C   0  0  0  0  0  1  0  0  0  0  0  0
  -30.2190  -15.9020   20.7060 N   0  0  0  0  0  0  0  0  0  0  0  0
  -25.3390  -14.0350   20.4020 C   0  0  0  0  0  0  0  0  0  0  0  0
  -24.2830  -13.2670   20.8050 C   0  0  0  0  0  0  0  0  0  0  0  0
  -24.7330  -11.9120   20.7420 C   0  0  0  0  0  0  0  0  0  0  0  0
  -26.3680  -13.1500   20.1160 N   0  0  0  0  0  0  0  0  0  0  0  0
  -26.0100  -11.8670   20.3840 N   0  0  0  0  0  0  0  0  0  0  0  0
  -24.0040  -10.6550   20.9460 C   0  0  0  0  0  0  0  0  0  0  0  0
  -24.4530   -9.6810   21.8650 C   0  0  0  0  0  3  0  0  0  0  0  0
  -23.7240   -8.4880   22.0570 C   0  0  0  0  0  3  0  0  0  0  0  0
  -22.5330   -8.2580   21.3300 C   0  0  0  0  0  0  0  0  0  0  0  0
  -22.1020   -9.2200   20.4000 C   0  0  0  0  0  3  0  0  0  0  0  0
  -22.8310  -10.4050   20.2050 C   0  0  0  0  0  3  0  0  0  0  0  0
  -21.7760   -7.1170   21.4320 O   0  0  0  0  0  0  0  0  0  0  0  0
  -21.7430   -6.3760   22.5850 C   0  0  0  0  0  0  0  0  0  0  0  0
  -21.3060   -6.9240   23.8120 C   0  0  0  0  0  3  0  0  0  0  0  0
  -21.2210   -6.1100   24.9580 C   0  0  0  0  0  3  0  0  0  0  0  0
  -21.5640   -4.7460   24.8790 C   0  0  0  0  0  0  0  0  0  0  0  0
  -21.9940   -4.1970   23.6600 C   0  0  0  0  0  3  0  0  0  0  0  0
  -22.0800   -5.0100   22.5150 C   0  0  0  0  0  0  0  0  0  0  0  0
  -22.4750   -4.4700   21.3360 F   0  0  0  0  0  0  0  0  0  0  0  0
  -21.4770   -3.9600   25.9780 F   0  0  0  0  0  0  0  0  0  0  0  0
  -22.9010  -13.7530   21.1370 C   0  0  0  0  0  0  0  0  0  0  0  0
  -22.2020  -13.0550   22.0240 N   0  0  0  0  0  0  0  0  0  0  0  0
  -22.4510  -14.7850   20.6410 O   0  0  0  0  0  0  0  0  0  0  0  0
  -22.5800  -12.2180   22.4440 H   0  0  0  0  0  0  0  0  0  0  0  0
  -21.2780  -13.3650   22.2920 H   0  0  0  0  0  0  0  0  0  0  0  0
  -25.5070  -15.4060   20.2300 N   0  0  0  0  0  0  0  0  0  0  0  0
  -24.7430  -16.0580   20.3700 H   0  0  0  0  0  0  0  0  0  0  0  0
  -26.3370  -15.8370   19.8510 H   0  0  0  0  0  0  0  0  0  0  0  0
  -28.5450  -22.5780   19.2070 C   0  0  0  0  0  2  0  0  0  0  0  0
  -29.1220  -23.9410   19.7880 C   0  0  0  0  0  2  0  0  0  0  0  0
  -28.2000  -25.1720   19.3770 C   0  0  0  0  0  2  0  0  0  0  0  0
  -28.4300  -26.5920   19.7480 O   0  0  0  0  0  0  0  0  0  0  0  0
  -24.5740  -31.7090   23.0890 C   0  0  0  0  0  0  0  0  0  0  0  0
  -27.2990  -27.4330   19.7380 C   0  0  0  0  0  0  0  0  0  0  0  0
  -23.4000  -30.3600   21.3920 C   0  0  0  0  0  3  0  0  0  0  0  0
  -24.8840  -28.9640   19.8540 C   0  0  0  0  0  0  0  0  0  0  0  0
  -25.9250  -30.7850   21.1960 C   0  0  0  0  0  2  0  0  0  0  0  0
  -26.0440  -29.4510   20.4690 C   0  0  0  0  0  0  0  0  0  0  0  0
  -27.2540  -28.6940   20.4090 C   0  0  0  0  0  3  0  0  0  0  0  0
  -26.1140  -27.0240   19.0770 C   0  0  0  0  0  3  0  0  0  0  0  0
  -24.9210  -27.7560   19.1490 C   0  0  0  0  0  3  0  0  0  0  0  0
  -23.6180  -29.7830   19.9690 C   0  0  0  0  0  2  0  0  0  0  0  0
  -24.6520  -30.9660   21.9490 N   0  0  0  0  0  0  0  0  0  0  0  0
  -23.4880  -31.9130   23.6520 O   0  0  0  0  0  0  0  0  0  0  0  0
  -22.7950  -29.2590   22.2960 C   0  0  0  0  0  0  0  0  0  0  0  0
  -21.4750  -29.0340   22.1760 N   0  0  0  0  0  0  0  0  0  0  0  0
  -23.5090  -28.6180   23.0710 O   0  0  0  0  0  0  0  0  0  0  0  0
  -20.9550  -29.6090   21.5270 H   0  0  0  0  0  0  0  0  0  0  0  0
  -18.1530  -27.6860   22.6540 C   0  0  0  0  0  0  0  0  0  0  0  0
  -20.7040  -28.0260   22.9040 C   0  0  0  0  0  3  0  0  0  0  0  0
  -20.8500  -26.6340   22.2470 C   0  0  0  0  0  2  0  0  0  0  0  0
  -19.7440  -26.3260   21.2320 C   0  0  0  0  0  2  0  0  0  0  0  0
  -18.3680  -26.3830   21.9020 C   0  0  0  0  0  2  0  0  0  0  0  0
  -19.2490  -28.4640   23.1110 C   0  0  0  0  0  0  0  0  0  0  0  0
  -18.9930  -29.6830   23.7760 C   0  0  0  0  0  3  0  0  0  0  0  0
  -17.6730  -30.1240   23.9890 C   0  0  0  0  0  3  0  0  0  0  0  0
  -16.5910  -29.3420   23.5480 C   0  0  0  0  0  3  0  0  0  0  0  0
  -16.8330  -28.1250   22.8860 C   0  0  0  0  0  3  0  0  0  0  0  0
  -25.8400  -32.3580   23.7280 C   0  0  0  0  0  3  0  0  0  0  0  0
  -26.3770  -31.5660   24.9820 C   0  0  1  0  0  0  0  0  0  0  0  0
  -25.2900  -31.2680   26.0430 C   0  0  0  0  0  1  0  0  0  0  0  0
  -26.9960  -30.2140   24.5530 C   0  0  0  0  0  1  0  0  0  0  0  0
  -27.5090  -32.3690   25.6630 C   0  0  0  0  0  1  0  0  0  0  0  0
  -25.4920  -33.7380   24.0970 N   0  0  0  0  0  0  0  0  0  0  0  0
  -25.7950  -34.8200   23.3670 C   0  0  0  0  0  0  0  0  0  0  0  0
  -26.4670  -34.7630   22.3330 O   0  0  0  0  0  0  0  0  0  0  0  0
  -24.8930  -33.8540   24.9000 H   0  0  0  0  0  0  0  0  0  0  0  0
  -24.0180  -36.5760   23.0660 C   0  0  0  0  0  1  0  0  0  0  0  0
  -25.2720  -36.1810   23.8630 C   0  0  0  0  0  3  0  0  0  0  0  0
  -27.3780  -37.1070   24.7230 C   0  0  0  0  0  1  0  0  0  0  0  0
  -26.2760  -37.2640   23.7770 N   0  0  0  0  0  0  0  0  0  0  0  0
  -25.8440  -38.1700   23.9410 H   0  0  0  0  0  0  0  0  0  0  0  0
  1  5  1  0
  3  1  1  0
  3  7  1  0
  4  2  1  0
  5  6  1  6
  5  9  1  0
  5  2  1  0
  7  4  1  0
  7  8  1  6
  9 19  1  0
 10 19  1  0
 11 16  1  0
 12 13  1  0
 12 11  1  0
 14 13  1  0
 14 23  1  0
 14 15  1  0
 16 10  1  0
 16 15  1  0
 17 10  2  0
 19 18  1  0
 20 21  2  0
 21 40  1  0
 22 21  1  0
 22 25  1  0
 23 24  1  0
 23 20  1  0
 24 22  2  0
 25 26  1  0
 26 27  2  0
 28 31  1  0
 28 27  1  0
 29 28  2  0
 30 29  1  0
 30 25  2  0
 31 32  1  0
 32 33  1  0
 33 34  2  0
 35 34  1  0
 35 39  1  0
 36 35  2  0
 37 32  2  0
 37 36  1  0
 38 37  1  0
 40 41  1  0
 41 44  1  0
 41 43  1  0
 42 40  2  0
 45 46  1  0
 45 20  1  0
 47 45  1  0
 48  7  1  0
 48 49  1  0
 50 51  1  0
 50 49  1  0
 52 63  2  0
 53 51  1  0
 53 58  1  0
 54 62  1  0
 54 64  1  0
 55 61  1  0
 55 57  1  0
 56 62  1  0
 57 56  1  0
 58 57  2  0
 59 60  1  0
 59 53  2  0
 60 55  2  0
 61 54  1  0
 62 52  1  0
 64 66  2  0
 65 64  1  0
 67 65  1  0
 68 77  2  0
 68 73  1  0
 69 65  1  0
 69 73  1  0
 70 69  1  0
 71 72  1  0
 71 70  1  0
 72 68  1  0
 73 74  2  0
 74 75  1  0
 76 75  2  0
 77 76  1  0
 78 52  1  0
 78 83  1  0
 78 79  1  0
 79 82  1  1
 79 80  1  0
 81 79  1  0
 83 86  1  0
 84 88  1  0
 84 83  1  0
 85 84  2  0
 88 87  1  0
 90 88  1  0
 90 91  1  0
 90 89  1  0
M  ISO  4  10 100  19 100  50 101  51 101
M  END
>  <TORSDO>  (96) 
F 20

>  <SCORE>  (96) 
-13.181

>  <name>  (96) 
96

>  <ligand_id>  (96) 
96

>  <original_smiles>  (96) 
[H]c1c([H])c([H])c2c(c1[H])C([H])([H])C([H])([H])C([H])([H])C2([H])N([H])C(=O)C1([H])N(C(=O)C([H])(N([H])C(=O)C([H])(N([H])C([H])([H])[H])C([H])([H])[H])C(C([H])([H])[H])(C([H])([H])[H])C([H])([H])[H])C([H])([H])c2c([H])c(OC([H])([H])C([H])([H])C([H])([H])[N+]3([H])C([H])([H])C([H])([H])C(C([H])([H])[H])(C([H])([H])N(C(=O)N4C([H])([H])C([H])([H])C([H])([H])C([H])(n5nc(-c6c([H])c([H])c(Oc7c([H])c([H])c(F)c([H])c7F)c([H])c6[H])c(C(=O)N([H])[H])c5N([H])[H])C4([H])[H])C([H])([H])[H])C([H])([H])C3([H])[H])c([H])c([H])c2C1([H])[H]

>  <smiles>  (96) 
[H]c1c([H])c([H])c2c(c1[H])C([H])([H])C([H])([H])C([H])([H])C2([H])N([H])C(=O)C1([H])N(C(=O)C([H])(N([H])C(=O)C([H])(N([H])C([H])([H])[H])C([H])([H])[H])C(C([H])([H])[H])(C([H])([H])[H])C([H])([H])[H])C([H])([H])c2c([H])c(OC([H])([H])C([H])([H])C([H])([H])[N+]3([H])C([H])([H])C([H])([H])C(C([H])([H])[H])(C([H])([H])N(C(=O)N4C([H])([H])C([H])([H])C([H])([H])C([H])(n5nc(-c6c([H])c([H])c(Oc7c([H])c([H])c(F)c([H])c7F)c([H])c6[H])c(C(=O)N([H])[H])c5N([H])[H])C4([H])[H])C([H])([H])[H])C([H])([H])C3([H])[H])c([H])c([H])c2C1([H])[H]

$$$$
