0:0:0
     RDKit          3D

 88 95  0  0  1  0  0  0  0  0999 V2000
  -28.6920  -22.0560   20.6110 C   0  0  0  0  0  3  0  0  0  0  0  0
  -29.7960  -22.2900   21.6450 C   0  0  0  0  0  0  0  0  0  0  0  0
  -29.6940  -21.6610   22.8100 N   0  0  0  0  0  0  0  0  0  0  0  0
  -30.7670  -22.9980   21.3850 O   0  0  0  0  0  0  0  0  0  0  0  0
  -28.8940  -21.0720   22.9960 H   0  0  0  0  0  0  0  0  0  0  0  0
  -30.3940  -21.7850   23.5260 H   0  0  0  0  0  0  0  0  0  0  0  0
  -29.5040  -19.0700   19.8270 C   0  0  0  0  0  0  0  0  0  0  0  0
  -30.0620  -18.7590   18.4510 C   0  0  0  0  0  1  0  0  0  0  0  0
  -29.1870  -20.5360   19.8490 N   0  0  0  0  0  0  0  0  0  0  0  0
  -29.5800  -17.3300   20.5990 C   0  0  0  0  0  2  0  0  0  0  0  0
  -30.3070  -15.6440   20.2130 C   0  0  0  0  0  0  0  0  0  0  0  0
  -30.3960  -13.0960   19.3910 C   0  0  0  0  0  2  0  0  0  0  0  0
  -29.5040  -12.7440   18.1630 C   0  0  0  0  0  2  0  0  0  0  0  0
  -28.0730  -12.4030   18.6040 C   0  0  0  0  0  2  0  0  0  0  0  0
  -27.5720  -13.3900   19.6810 C   0  0  0  0  0  3  0  0  0  0  0  0
  -28.5990  -13.6710   20.8010 C   0  0  0  0  0  2  0  0  0  0  0  0
  -29.8020  -14.2700   20.1790 N   0  0  0  0  0  0  0  0  0  0  0  0
  -31.5170  -15.5740   19.9190 O   0  0  0  0  0  0  0  0  0  0  0  0
  -25.2030  -13.9120   20.4310 C   0  0  0  0  0  0  0  0  0  0  0  0
  -24.1440  -13.1290   20.7950 C   0  0  0  0  0  0  0  0  0  0  0  0
  -24.6220  -11.7820   20.7730 C   0  0  0  0  0  0  0  0  0  0  0  0
  -26.2510  -13.0460   20.1940 N   0  0  0  0  0  0  0  0  0  0  0  0
  -25.9170  -11.7570   20.4690 N   0  0  0  0  0  0  0  0  0  0  0  0
  -23.8990  -10.5160   20.9660 C   0  0  0  0  0  0  0  0  0  0  0  0
  -24.3210   -9.5580   21.9140 C   0  0  0  0  0  3  0  0  0  0  0  0
  -23.5930   -8.3620   22.0960 C   0  0  0  0  0  3  0  0  0  0  0  0
  -22.4300   -8.1140   21.3310 C   0  0  0  0  0  0  0  0  0  0  0  0
  -22.0260   -9.0610   20.3730 C   0  0  0  0  0  3  0  0  0  0  0  0
  -22.7550  -10.2480   20.1890 C   0  0  0  0  0  3  0  0  0  0  0  0
  -21.6770   -6.9670   21.4220 O   0  0  0  0  0  0  0  0  0  0  0  0
  -21.6140   -6.2360   22.5800 C   0  0  0  0  0  0  0  0  0  0  0  0
  -21.1620   -6.8010   23.7930 C   0  0  0  0  0  3  0  0  0  0  0  0
  -21.0440   -5.9950   24.9430 C   0  0  0  0  0  3  0  0  0  0  0  0
  -21.3700   -4.6280   24.8840 C   0  0  0  0  0  0  0  0  0  0  0  0
  -21.8180   -4.0630   23.6760 C   0  0  0  0  0  3  0  0  0  0  0  0
  -21.9350   -4.8650   22.5270 C   0  0  0  0  0  0  0  0  0  0  0  0
  -22.3450   -4.3100   21.3600 F   0  0  0  0  0  0  0  0  0  0  0  0
  -21.2510   -3.8530   25.9870 F   0  0  0  0  0  0  0  0  0  0  0  0
  -22.7420  -13.6000   21.0470 C   0  0  0  0  0  0  0  0  0  0  0  0
  -22.0080  -12.9050   21.9080 N   0  0  0  0  0  0  0  0  0  0  0  0
  -22.3080  -14.6200   20.5150 O   0  0  0  0  0  0  0  0  0  0  0  0
  -22.3720  -12.0800   22.3610 H   0  0  0  0  0  0  0  0  0  0  0  0
  -21.0660  -13.2050   22.1180 H   0  0  0  0  0  0  0  0  0  0  0  0
  -25.3580  -15.2840   20.2500 N   0  0  0  0  0  0  0  0  0  0  0  0
  -24.5910  -15.9360   20.3630 H   0  0  0  0  0  0  0  0  0  0  0  0
  -26.2110  -15.7250   19.9310 H   0  0  0  0  0  0  0  0  0  0  0  0
  -28.2260  -23.8300   19.9540 C   0  0  0  0  0  2  0  0  0  0  0  0
  -28.1660  -25.5350   20.4030 O   0  0  0  0  0  0  0  0  0  0  0  0
  -24.6500  -31.8400   23.2000 C   0  0  0  0  0  0  0  0  0  0  0  0
  -27.1930  -26.7360   20.2680 C   0  0  0  0  0  0  0  0  0  0  0  0
  -23.4720  -30.4260   21.5700 C   0  0  0  0  0  3  0  0  0  0  0  0
  -24.9240  -28.7660   20.1790 C   0  0  0  0  0  0  0  0  0  0  0  0
  -26.0500  -30.5610   21.4660 C   0  0  0  0  0  2  0  0  0  0  0  0
  -26.1130  -29.1260   20.8220 C   0  0  0  0  0  0  0  0  0  0  0  0
  -27.2260  -28.1350   20.8430 C   0  0  0  0  0  3  0  0  0  0  0  0
  -25.9760  -26.5840   19.5570 C   0  0  0  0  0  3  0  0  0  0  0  0
  -24.8930  -27.5180   19.5270 C   0  0  0  0  0  3  0  0  0  0  0  0
  -23.7160  -29.7170   20.2080 C   0  0  0  0  0  2  0  0  0  0  0  0
  -24.7470  -30.9780   22.1300 N   0  0  0  0  0  0  0  0  0  0  0  0
  -23.5550  -32.1500   23.6990 O   0  0  0  0  0  0  0  0  0  0  0  0
  -22.7470  -29.4610   22.5490 C   0  0  0  0  0  0  0  0  0  0  0  0
  -21.4120  -29.3260   22.4330 N   0  0  0  0  0  0  0  0  0  0  0  0
  -23.3990  -28.8310   23.3850 O   0  0  0  0  0  0  0  0  0  0  0  0
  -20.9380  -29.8850   21.7360 H   0  0  0  0  0  0  0  0  0  0  0  0
  -18.0100  -28.1720   22.9750 C   0  0  0  0  0  0  0  0  0  0  0  0
  -20.5780  -28.4030   23.2130 C   0  0  0  0  0  3  0  0  0  0  0  0
  -20.6510  -26.9710   22.6370 C   0  0  0  0  0  2  0  0  0  0  0  0
  -19.5330  -26.6650   21.6330 C   0  0  0  0  0  2  0  0  0  0  0  0
  -18.1600  -26.8250   22.2900 C   0  0  0  0  0  2  0  0  0  0  0  0
  -19.1440  -28.9200   23.3940 C   0  0  0  0  0  0  0  0  0  0  0  0
  -18.9450  -30.1790   24.0010 C   0  0  0  0  0  3  0  0  0  0  0  0
  -17.6470  -30.6910   24.1930 C   0  0  0  0  0  3  0  0  0  0  0  0
  -16.5290  -29.9420   23.7880 C   0  0  0  0  0  3  0  0  0  0  0  0
  -16.7110  -28.6840   23.1840 C   0  0  0  0  0  3  0  0  0  0  0  0
  -25.9100  -32.4960   23.8440 C   0  0  0  0  0  3  0  0  0  0  0  0
  -26.3960  -31.7500   25.1480 C   0  0  1  0  0  0  0  0  0  0  0  0
  -25.2800  -31.5430   26.2020 C   0  0  0  0  0  1  0  0  0  0  0  0
  -26.9760  -30.3580   24.8090 C   0  0  0  0  0  1  0  0  0  0  0  0
  -27.5450  -32.5490   25.8070 C   0  0  0  0  0  1  0  0  0  0  0  0
  -25.5880  -33.9020   24.1650 N   0  0  0  0  0  0  0  0  0  0  0  0
  -25.9350  -34.9630   23.4240 C   0  0  0  0  0  0  0  0  0  0  0  0
  -26.6120  -34.8620   22.3980 O   0  0  0  0  0  0  0  0  0  0  0  0
  -24.9850  -34.0540   24.9590 H   0  0  0  0  0  0  0  0  0  0  0  0
  -24.2160  -36.7750   23.0730 C   0  0  0  0  0  1  0  0  0  0  0  0
  -25.4520  -36.3560   23.8860 C   0  0  0  0  0  3  0  0  0  0  0  0
  -27.5860  -37.2330   24.7300 C   0  0  0  0  0  1  0  0  0  0  0  0
  -26.4880  -37.4070   23.7830 N   0  0  0  0  0  0  0  0  0  0  0  0
  -26.0860  -38.3270   23.9310 H   0  0  0  0  0  0  0  0  0  0  0  0
  1 47  1  0
  1  2  1  0
  2  3  1  0
  3  5  1  0
  3  6  1  0
  4  2  2  0
  7  9  2  0
  7 10  1  0
  8  7  1  0
  9  1  1  0
 11 10  1  0
 12 17  1  0
 13 14  1  0
 13 12  1  0
 15 14  1  0
 15 22  1  0
 15 16  1  0
 17 11  1  0
 17 16  1  0
 18 11  2  0
 19 20  2  0
 20 39  1  0
 21 20  1  0
 21 24  1  0
 22 19  1  0
 22 23  1  0
 23 21  2  0
 24 25  1  0
 25 26  2  0
 27 30  1  0
 27 26  1  0
 28 27  2  0
 29 28  1  0
 29 24  2  0
 30 31  1  0
 31 32  1  0
 32 33  2  0
 34 33  1  0
 34 38  1  0
 35 34  2  0
 36 31  2  0
 36 35  1  0
 37 36  1  0
 39 40  1  0
 40 43  1  0
 40 42  1  0
 41 39  2  0
 44 45  1  0
 44 19  1  0
 46 44  1  0
 47 48  1  0
 49 60  2  0
 50 48  1  0
 50 55  1  0
 51 59  1  0
 51 61  1  0
 52 58  1  0
 52 54  1  0
 53 59  1  0
 54 55  2  0
 54 53  1  0
 56 50  2  0
 57 56  1  0
 57 52  2  0
 58 51  1  0
 59 49  1  0
 61 63  2  0
 62 61  1  0
 64 62  1  0
 65 74  2  0
 65 70  1  0
 66 62  1  0
 66 70  1  0
 67 66  1  0
 68 69  1  0
 68 67  1  0
 69 65  1  0
 70 71  2  0
 71 72  1  0
 73 72  2  0
 74 73  1  0
 75 49  1  0
 75 80  1  0
 75 76  1  0
 76 79  1  1
 76 77  1  0
 78 76  1  0
 80 83  1  0
 81 85  1  0
 81 80  1  0
 82 81  2  0
 85 84  1  0
 87 85  1  0
 87 88  1  0
 87 86  1  0
M  ISO  4  10 100  11 100  47 101  48 101
M  END
>  <TORSDO>  (1) 
F 20

>  <SCORE>  (1) 
-16.477

>  <name>  (1) 
0

>  <ligand_id>  (1) 
0

>  <original_smiles>  (1) 
[H]c1c([H])c([H])c2c(c1[H])C([H])([H])C([H])([H])C([H])([H])C2([H])N([H])C(=O)C1([H])N(C(=O)C([H])(N([H])C(=O)C([H])(N([H])C([H])([H])[H])C([H])([H])[H])C(C([H])([H])[H])(C([H])([H])[H])C([H])([H])[H])C([H])([H])c2c([H])c(OC([H])([H])C([H])(N=C(C([H])([H])[H])C([H])([H])C(=O)N3C([H])([H])C([H])([H])C([H])([H])C([H])(n4nc(-c5c([H])c([H])c(Oc6c([H])c([H])c(F)c([H])c6F)c([H])c5[H])c(C(=O)N([H])[H])c4N([H])[H])C3([H])[H])C(=O)N([H])[H])c([H])c([H])c2C1([H])[H]

>  <smiles>  (1) 
[H]c1c([H])c([H])c2c(c1[H])C([H])([H])C([H])([H])C([H])([H])C2([H])N([H])C(=O)C1([H])N(C(=O)C([H])(N([H])C(=O)C([H])(N([H])C([H])([H])[H])C([H])([H])[H])C(C([H])([H])[H])(C([H])([H])[H])C([H])([H])[H])C([H])([H])c2c([H])c(OC([H])([H])C([H])(N=C(C([H])([H])[H])C([H])([H])C(=O)N3C([H])([H])C([H])([H])C([H])([H])C([H])(n4nc(-c5c([H])c([H])c(Oc6c([H])c([H])c(F)c([H])c6F)c([H])c5[H])c(C(=O)N([H])[H])c4N([H])[H])C3([H])[H])C(=O)N([H])[H])c([H])c([H])c2C1([H])[H]

$$$$
1:0:0
     RDKit          3D

 93101  0  0  1  0  0  0  0  0999 V2000
  -28.1730  -19.7820   20.5030 C   0  0  0  0  0  3  0  0  0  0  0  0
  -28.4320  -18.3620   20.4670 C   0  0  0  0  0  3  0  0  0  0  0  0
  -30.4370  -20.1590   21.0330 C   0  0  0  0  0  3  0  0  0  0  0  0
  -29.1570  -20.7770   20.7780 C   0  0  0  0  0  0  0  0  0  0  0  0
  -29.7070  -17.7340   20.6840 C   0  0  0  0  0  0  0  0  0  0  0  0
  -30.7200  -18.7170   20.9770 C   0  0  0  0  0  0  0  0  0  0  0  0
  -30.6640  -15.1520   20.8260 C   0  0  0  0  0  0  0  0  0  0  0  0
  -30.7120  -12.7290   20.0660 C   0  0  0  0  0  2  0  0  0  0  0  0
  -29.8990  -12.4780   18.7720 C   0  0  0  0  0  2  0  0  0  0  0  0
  -28.3830  -12.3640   19.0540 C   0  0  0  0  0  2  0  0  0  0  0  0
  -27.8500  -13.3420   20.1390 C   0  0  0  0  0  3  0  0  0  0  0  0
  -28.8070  -13.4630   21.3410 C   0  0  0  0  0  2  0  0  0  0  0  0
  -30.1080  -13.8720   20.8000 N   0  0  0  0  0  0  0  0  0  0  0  0
  -31.8980  -15.2290   20.8520 O   0  0  0  0  0  0  0  0  0  0  0  0
  -29.8990  -16.2550   20.3180 N   0  0  0  0  0  0  0  0  0  0  0  0
  -25.4090  -13.9040   20.6660 C   0  0  0  0  0  0  0  0  0  0  0  0
  -24.3280  -13.1200   20.9540 C   0  0  0  0  0  0  0  0  0  0  0  0
  -24.8140  -11.7780   20.9990 C   0  0  0  0  0  0  0  0  0  0  0  0
  -26.4820  -13.0370   20.5390 N   0  0  0  0  0  0  0  0  0  0  0  0
  -26.1280  -11.7550   20.8100 N   0  0  0  0  0  0  0  0  0  0  0  0
  -24.0950  -10.5070   21.1490 C   0  0  0  0  0  0  0  0  0  0  0  0
  -24.4650   -9.5600   22.1300 C   0  0  0  0  0  3  0  0  0  0  0  0
  -23.7460   -8.3550   22.2680 C   0  0  0  0  0  3  0  0  0  0  0  0
  -22.6410   -8.0860   21.4240 C   0  0  0  0  0  0  0  0  0  0  0  0
  -22.2920   -9.0220   20.4340 C   0  0  0  0  0  3  0  0  0  0  0  0
  -23.0130  -10.2190   20.2940 C   0  0  0  0  0  3  0  0  0  0  0  0
  -21.9000   -6.9310   21.4700 O   0  0  0  0  0  0  0  0  0  0  0  0
  -21.7620   -6.2100   22.6280 C   0  0  0  0  0  0  0  0  0  0  0  0
  -21.2040   -6.7740   23.7960 C   0  0  0  0  0  3  0  0  0  0  0  0
  -21.0170   -5.9790   24.9430 C   0  0  0  0  0  3  0  0  0  0  0  0
  -21.3770   -4.6180   24.9240 C   0  0  0  0  0  0  0  0  0  0  0  0
  -21.9290   -4.0520   23.7610 C   0  0  0  0  0  3  0  0  0  0  0  0
  -22.1180   -4.8460   22.6160 C   0  0  0  0  0  0  0  0  0  0  0  0
  -22.6300   -4.2910   21.4910 F   0  0  0  0  0  0  0  0  0  0  0  0
  -21.1910   -3.8510   26.0230 F   0  0  0  0  0  0  0  0  0  0  0  0
  -22.9050  -13.5790   21.0850 C   0  0  0  0  0  0  0  0  0  0  0  0
  -22.1160  -12.9020   21.9100 N   0  0  0  0  0  0  0  0  0  0  0  0
  -22.4970  -14.5740   20.4870 O   0  0  0  0  0  0  0  0  0  0  0  0
  -22.4560  -12.0970   22.4140 H   0  0  0  0  0  0  0  0  0  0  0  0
  -21.1580  -13.1960   22.0430 H   0  0  0  0  0  0  0  0  0  0  0  0
  -25.5690  -15.2730   20.4740 N   0  0  0  0  0  0  0  0  0  0  0  0
  -24.7880  -15.9200   20.5090 H   0  0  0  0  0  0  0  0  0  0  0  0
  -26.4460  -15.7170   20.2370 H   0  0  0  0  0  0  0  0  0  0  0  0
  -30.6230  -16.8090   17.9690 C   0  0  0  0  0  1  0  0  0  0  0  0
  -29.5910  -16.1110   18.8760 C   0  0  0  0  0  2  0  0  0  0  0  0
  -33.1490  -19.0880   20.8280 C   0  0  0  0  0  1  0  0  0  0  0  0
  -32.0230  -18.2310   21.1750 N   0  0  0  0  0  0  0  0  0  0  0  0
  -32.1530  -17.2310   21.0040 H   0  0  0  0  0  0  0  0  0  0  0  0
  -28.7880  -22.1970   21.0000 N   0  0  0  0  0  0  0  0  0  0  0  0
  -28.8010  -22.4310   21.9910 H   0  0  0  0  0  0  0  0  0  0  0  0
  -28.8560  -23.4960   20.1510 C   0  0  0  0  0  3  0  0  0  0  0  0
  -28.0040  -24.8700   20.6070 C   0  0  0  0  0  3  0  0  0  0  0  0
  -28.1920  -26.3270   20.1220 O   0  0  0  0  0  0  0  0  0  0  0  0
  -24.5770  -31.9420   23.2180 C   0  0  0  0  0  0  0  0  0  0  0  0
  -27.1110  -27.2710   20.1310 C   0  0  0  0  0  0  0  0  0  0  0  0
  -23.3450  -30.5460   21.6010 C   0  0  0  0  0  3  0  0  0  0  0  0
  -24.7670  -28.9810   20.1450 C   0  0  0  0  0  0  0  0  0  0  0  0
  -25.8890  -30.8310   21.3770 C   0  0  0  0  0  2  0  0  0  0  0  0
  -25.9560  -29.4400   20.7270 C   0  0  0  0  0  0  0  0  0  0  0  0
  -27.1300  -28.6040   20.6990 C   0  0  0  0  0  3  0  0  0  0  0  0
  -25.8970  -26.9020   19.5120 C   0  0  0  0  0  3  0  0  0  0  0  0
  -24.7490  -27.7230   19.5210 C   0  0  0  0  0  3  0  0  0  0  0  0
  -23.5370  -29.8700   20.2170 C   0  0  0  0  0  2  0  0  0  0  0  0
  -24.6250  -31.1270   22.1200 N   0  0  0  0  0  0  0  0  0  0  0  0
  -23.5040  -32.2220   23.7710 O   0  0  0  0  0  0  0  0  0  0  0  0
  -22.6920  -29.5350   22.5760 C   0  0  0  0  0  0  0  0  0  0  0  0
  -21.3660  -29.3400   22.4590 N   0  0  0  0  0  0  0  0  0  0  0  0
  -23.3800  -28.9270   23.4010 O   0  0  0  0  0  0  0  0  0  0  0  0
  -20.8660  -29.8830   21.7700 H   0  0  0  0  0  0  0  0  0  0  0  0
  -18.0110  -28.0790   22.9830 C   0  0  0  0  0  0  0  0  0  0  0  0
  -20.5650  -28.3960   23.2430 C   0  0  0  0  0  3  0  0  0  0  0  0
  -20.6950  -26.9590   22.6850 C   0  0  0  0  0  2  0  0  0  0  0  0
  -19.5970  -26.6020   21.6770 C   0  0  0  0  0  2  0  0  0  0  0  0
  -18.2140  -26.7260   22.3220 C   0  0  0  0  0  2  0  0  0  0  0  0
  -19.1150  -28.8690   23.4010 C   0  0  0  0  0  0  0  0  0  0  0  0
  -18.8710  -30.1330   23.9810 C   0  0  0  0  0  3  0  0  0  0  0  0
  -17.5560  -30.6090   24.1450 C   0  0  0  0  0  3  0  0  0  0  0  0
  -16.4660  -29.8160   23.7430 C   0  0  0  0  0  3  0  0  0  0  0  0
  -16.6950  -28.5530   23.1680 C   0  0  0  0  0  3  0  0  0  0  0  0
  -25.8690  -32.5780   23.8180 C   0  0  0  0  0  3  0  0  0  0  0  0
  -25.5640  -33.9780   24.1540 N   0  0  0  0  0  0  0  0  0  0  0  0
  -25.8950  -35.0340   23.3990 C   0  0  0  0  0  0  0  0  0  0  0  0
  -26.5570  -34.9330   22.3630 O   0  0  0  0  0  0  0  0  0  0  0  0
  -24.9750  -34.1310   24.9590 H   0  0  0  0  0  0  0  0  0  0  0  0
  -24.1880  -36.8510   23.0550 C   0  0  0  0  0  1  0  0  0  0  0  0
  -25.4200  -36.4230   23.8690 C   0  0  0  0  0  3  0  0  0  0  0  0
  -27.5560  -37.2830   24.7230 C   0  0  0  0  0  1  0  0  0  0  0  0
  -26.4640  -37.4680   23.7720 N   0  0  0  0  0  0  0  0  0  0  0  0
  -26.0650  -38.3910   23.9210 H   0  0  0  0  0  0  0  0  0  0  0  0
  -26.4050  -31.8110   25.0890 C   0  0  1  0  0  0  0  0  0  0  0  0
  -25.3300  -31.5790   26.1770 C   0  0  0  0  0  1  0  0  0  0  0  0
  -26.9800  -30.4310   24.6970 C   0  0  0  0  0  1  0  0  0  0  0  0
  -27.5680  -32.6070   25.7280 C   0  0  0  0  0  1  0  0  0  0  0  0
  1  4  1  0
  2  1  2  0
  2  5  1  0
  4 49  1  0
  4  3  2  0
  5  6  2  0
  6  3  1  0
  6 47  1  0
  7 14  2  0
  8 13  1  0
  9 10  1  0
  9  8  1  0
 11 10  1  0
 11 19  1  0
 11 12  1  0
 13  7  1  0
 13 12  1  0
 15  5  1  0
 15  7  1  0
 16 17  2  0
 17 18  1  0
 17 36  1  0
 18 21  1  0
 19 16  1  0
 19 20  1  0
 20 18  2  0
 21 22  1  0
 22 23  2  0
 24 27  1  0
 24 23  1  0
 25 24  2  0
 26 25  1  0
 26 21  2  0
 27 28  1  0
 28 29  1  0
 29 30  2  0
 31 30  1  0
 31 35  1  0
 32 31  2  0
 33 28  2  0
 33 32  1  0
 34 33  1  0
 36 37  1  0
 37 40  1  0
 37 39  1  0
 38 36  2  0
 41 42  1  0
 41 16  1  0
 43 41  1  0
 44 45  1  0
 45 15  1  0
 46 47  1  0
 48 47  1  0
 49 50  1  0
 51 52  2  0
 51 49  1  0
 53 55  1  0
 53 52  1  0
 54 65  2  0
 55 60  1  0
 56 64  1  0
 56 66  1  0
 57 63  1  0
 57 59  1  0
 58 64  1  0
 59 58  1  0
 60 59  2  0
 61 62  1  0
 61 55  2  0
 62 57  2  0
 63 56  1  0
 64 54  1  0
 66 68  2  0
 67 66  1  0
 69 67  1  0
 70 79  2  0
 70 75  1  0
 71 67  1  0
 71 75  1  0
 72 71  1  0
 73 74  1  0
 73 72  1  0
 74 70  1  0
 75 76  2  0
 76 77  1  0
 78 77  2  0
 79 78  1  0
 80 54  1  0
 80 81  1  0
 80 90  1  0
 81 84  1  0
 82 86  1  0
 82 81  1  0
 83 82  2  0
 86 85  1  0
 88 86  1  0
 88 89  1  0
 88 87  1  0
 90 93  1  1
 90 91  1  0
 92 90  1  0
M  ISO  4   7 100  15 100  52 101  53 101
M  END
>  <TORSDO>  (2) 
F 21

>  <SCORE>  (2) 
-13.070

>  <name>  (2) 
1

>  <ligand_id>  (2) 
1

>  <original_smiles>  (2) 
[H]c1c([H])c([H])c2c(c1[H])C([H])([H])C([H])([H])C([H])([H])C2([H])N([H])C(=O)C1([H])N(C(=O)C([H])(N([H])C(=O)C([H])(N([H])C([H])([H])[H])C([H])([H])[H])C(C([H])([H])[H])(C([H])([H])[H])C([H])([H])[H])C([H])([H])c2c([H])c(OC([H])([H])C([H])([H])N([H])c3c([H])c([H])c(N(C(=O)N4C([H])([H])C([H])([H])C([H])([H])C([H])(n5nc(-c6c([H])c([H])c(Oc7c([H])c([H])c(F)c([H])c7F)c([H])c6[H])c(C(=O)N([H])[H])c5N([H])[H])C4([H])[H])C([H])([H])C([H])([H])[H])c(N([H])C([H])([H])[H])c3[H])c([H])c([H])c2C1([H])[H]

>  <smiles>  (2) 
[H]c1c([H])c([H])c2c(c1[H])C([H])([H])C([H])([H])C([H])([H])C2([H])N([H])C(=O)C1([H])N(C(=O)C([H])(N([H])C(=O)C([H])(N([H])C([H])([H])[H])C([H])([H])[H])C(C([H])([H])[H])(C([H])([H])[H])C([H])([H])[H])C([H])([H])c2c([H])c(OC([H])([H])C([H])([H])N([H])c3c([H])c([H])c(N(C(=O)N4C([H])([H])C([H])([H])C([H])([H])C([H])(n5nc(-c6c([H])c([H])c(Oc7c([H])c([H])c(F)c([H])c7F)c([H])c6[H])c(C(=O)N([H])[H])c5N([H])[H])C4([H])[H])C([H])([H])C([H])([H])[H])c(N([H])C([H])([H])[H])c3[H])c([H])c([H])c2C1([H])[H]

$$$$
2:0:0
     RDKit          3D

 88 95  0  0  1  0  0  0  0  0999 V2000
  -29.0330  -23.4600   20.4750 C   0  0  0  0  0  3  0  0  0  0  0  0
  -28.5850  -21.8750   20.3050 C   0  0  0  0  0  0  0  0  0  0  0  0
  -29.4020  -20.7320   20.5060 N   0  0  0  0  0  0  0  0  0  0  0  0
  -27.4010  -21.6760   20.0190 O   0  0  0  0  0  0  0  0  0  0  0  0
  -30.3700  -20.9440   20.7170 H   0  0  0  0  0  0  0  0  0  0  0  0
  -29.0310  -19.2100   20.6340 C   0  0  0  0  0  3  0  0  0  0  0  0
  -30.0670  -17.9090   20.4220 C   0  0  0  0  0  3  0  0  0  0  0  0
  -29.6330  -16.3160   20.7190 C   0  0  0  0  0  2  0  0  0  0  0  0
  -30.4990  -14.9540   20.3660 C   0  0  0  0  0  0  0  0  0  0  0  0
  -30.4020  -12.6320   19.3650 C   0  0  0  0  0  2  0  0  0  0  0  0
  -29.4630  -12.6440   18.1350 C   0  0  0  0  0  2  0  0  0  0  0  0
  -27.9920  -12.4440   18.5550 C   0  0  0  0  0  2  0  0  0  0  0  0
  -27.5970  -13.3360   19.7590 C   0  0  0  0  0  3  0  0  0  0  0  0
  -28.6500  -13.2810   20.8850 C   0  0  0  0  0  2  0  0  0  0  0  0
  -29.9400  -13.6830   20.3090 N   0  0  0  0  0  0  0  0  0  0  0  0
  -31.6810  -15.0670   20.0160 O   0  0  0  0  0  0  0  0  0  0  0  0
  -25.2120  -13.9290   20.4920 C   0  0  0  0  0  0  0  0  0  0  0  0
  -24.1440  -13.1560   20.8610 C   0  0  0  0  0  0  0  0  0  0  0  0
  -24.6070  -11.8040   20.8310 C   0  0  0  0  0  0  0  0  0  0  0  0
  -26.2550  -13.0470   20.2540 N   0  0  0  0  0  0  0  0  0  0  0  0
  -25.8980  -11.7650   20.5240 N   0  0  0  0  0  0  0  0  0  0  0  0
  -23.8800  -10.5430   21.0230 C   0  0  0  0  0  0  0  0  0  0  0  0
  -24.3100   -9.5790   21.9600 C   0  0  0  0  0  3  0  0  0  0  0  0
  -23.5820   -8.3810   22.1380 C   0  0  0  0  0  3  0  0  0  0  0  0
  -22.4120   -8.1400   21.3790 C   0  0  0  0  0  0  0  0  0  0  0  0
  -22.0040   -9.0950   20.4310 C   0  0  0  0  0  3  0  0  0  0  0  0
  -22.7310  -10.2830   20.2510 C   0  0  0  0  0  3  0  0  0  0  0  0
  -21.6580   -6.9950   21.4670 O   0  0  0  0  0  0  0  0  0  0  0  0
  -21.6020   -6.2550   22.6210 C   0  0  0  0  0  0  0  0  0  0  0  0
  -21.1570   -6.8100   23.8390 C   0  0  0  0  0  3  0  0  0  0  0  0
  -21.0510   -5.9960   24.9860 C   0  0  0  0  0  3  0  0  0  0  0  0
  -21.3740   -4.6280   24.9110 C   0  0  0  0  0  0  0  0  0  0  0  0
  -21.8070   -4.0720   23.6940 C   0  0  0  0  0  3  0  0  0  0  0  0
  -21.9180   -4.8830   22.5520 C   0  0  0  0  0  0  0  0  0  0  0  0
  -22.3170   -4.3380   21.3770 F   0  0  0  0  0  0  0  0  0  0  0  0
  -21.2630   -3.8440   26.0090 F   0  0  0  0  0  0  0  0  0  0  0  0
  -22.7470  -13.6330   21.1280 C   0  0  0  0  0  0  0  0  0  0  0  0
  -22.0180  -12.9400   21.9960 N   0  0  0  0  0  0  0  0  0  0  0  0
  -22.3100  -14.6560   20.6040 O   0  0  0  0  0  0  0  0  0  0  0  0
  -22.3870  -12.1170   22.4470 H   0  0  0  0  0  0  0  0  0  0  0  0
  -21.0770  -13.2410   22.2110 H   0  0  0  0  0  0  0  0  0  0  0  0
  -25.3800  -15.2990   20.3130 N   0  0  0  0  0  0  0  0  0  0  0  0
  -24.6220  -15.9620   20.4320 H   0  0  0  0  0  0  0  0  0  0  0  0
  -26.2340  -15.7380   19.9900 H   0  0  0  0  0  0  0  0  0  0  0  0
  -31.2900  -24.6560   20.7990 C   0  0  0  0  0  1  0  0  0  0  0  0
  -30.4670  -23.6820   19.9380 C   0  0  0  0  0  2  0  0  0  0  0  0
  -28.0410  -24.7370   20.0140 C   0  0  0  0  0  2  0  0  0  0  0  0
  -28.2600  -26.2540   20.2550 O   0  0  0  0  0  0  0  0  0  0  0  0
  -24.6050  -31.8840   23.2360 C   0  0  0  0  0  0  0  0  0  0  0  0
  -27.1870  -27.2080   20.1760 C   0  0  0  0  0  0  0  0  0  0  0  0
  -23.3980  -30.4870   21.6010 C   0  0  0  0  0  3  0  0  0  0  0  0
  -24.8430  -28.9250   20.1630 C   0  0  0  0  0  0  0  0  0  0  0  0
  -25.9480  -30.7680   21.4200 C   0  0  0  0  0  2  0  0  0  0  0  0
  -26.0220  -29.3800   20.7640 C   0  0  0  0  0  0  0  0  0  0  0  0
  -27.1920  -28.5360   20.7570 C   0  0  0  0  0  3  0  0  0  0  0  0
  -25.9810  -26.8500   19.5300 C   0  0  0  0  0  3  0  0  0  0  0  0
  -24.8330  -27.6700   19.5320 C   0  0  0  0  0  3  0  0  0  0  0  0
  -23.6110  -29.8130   20.2210 C   0  0  0  0  0  2  0  0  0  0  0  0
  -24.6700  -31.0680   22.1420 N   0  0  0  0  0  0  0  0  0  0  0  0
  -23.5220  -32.1630   23.7720 O   0  0  0  0  0  0  0  0  0  0  0  0
  -22.7310  -29.4740   22.5650 C   0  0  0  0  0  0  0  0  0  0  0  0
  -21.4030  -29.2980   22.4440 N   0  0  0  0  0  0  0  0  0  0  0  0
  -23.4080  -28.8500   23.3850 O   0  0  0  0  0  0  0  0  0  0  0  0
  -20.9110  -29.8510   21.7550 H   0  0  0  0  0  0  0  0  0  0  0  0
  -18.0290  -28.0830   22.9550 C   0  0  0  0  0  0  0  0  0  0  0  0
  -20.5880  -28.3560   23.2180 C   0  0  0  0  0  3  0  0  0  0  0  0
  -20.6940  -26.9250   22.6420 C   0  0  0  0  0  2  0  0  0  0  0  0
  -19.5920  -26.5980   21.6310 C   0  0  0  0  0  2  0  0  0  0  0  0
  -18.2120  -26.7350   22.2770 C   0  0  0  0  0  2  0  0  0  0  0  0
  -19.1440  -28.8520   23.3820 C   0  0  0  0  0  0  0  0  0  0  0  0
  -18.9200  -30.1110   23.9760 C   0  0  0  0  0  3  0  0  0  0  0  0
  -17.6120  -30.6060   24.1470 C   0  0  0  0  0  3  0  0  0  0  0  0
  -16.5110  -29.8340   23.7370 C   0  0  0  0  0  3  0  0  0  0  0  0
  -16.7200  -28.5750   23.1470 C   0  0  0  0  0  3  0  0  0  0  0  0
  -25.8850  -32.5200   23.8580 C   0  0  0  0  0  3  0  0  0  0  0  0
  -25.5730  -33.9160   24.1980 N   0  0  0  0  0  0  0  0  0  0  0  0
  -25.8860  -34.9750   23.4400 C   0  0  0  0  0  0  0  0  0  0  0  0
  -26.5350  -34.8790   22.3960 O   0  0  0  0  0  0  0  0  0  0  0  0
  -24.9910  -34.0660   25.0090 H   0  0  0  0  0  0  0  0  0  0  0  0
  -24.1350  -36.7580   23.1390 C   0  0  0  0  0  1  0  0  0  0  0  0
  -25.4040  -36.3620   23.9140 C   0  0  0  0  0  3  0  0  0  0  0  0
  -27.5560  -37.2590   24.6830 C   0  0  0  0  0  1  0  0  0  0  0  0
  -26.4270  -37.4220   23.7700 N   0  0  0  0  0  0  0  0  0  0  0  0
  -26.0200  -38.3390   23.9320 H   0  0  0  0  0  0  0  0  0  0  0  0
  -26.4070  -31.7470   25.1320 C   0  0  1  0  0  0  0  0  0  0  0  0
  -25.3160  -31.5080   26.2020 C   0  0  0  0  0  1  0  0  0  0  0  0
  -26.9890  -30.3700   24.7380 C   0  0  0  0  0  1  0  0  0  0  0  0
  -27.5600  -32.5380   25.7890 C   0  0  0  0  0  1  0  0  0  0  0  0
  1 46  1  0
  2  1  1  0
  2  3  1  0
  3  6  1  0
  3  5  1  0
  4  2  2  0
  7  6  2  0
  7  8  1  0
  9  8  1  0
 10 15  1  0
 11 12  1  0
 11 10  1  0
 13 12  1  0
 13 20  1  0
 13 14  1  0
 15  9  1  0
 15 14  1  0
 16  9  2  0
 17 18  2  0
 18 37  1  0
 19 18  1  0
 19 22  1  0
 20 17  1  0
 20 21  1  0
 21 19  2  0
 22 23  1  0
 23 24  2  0
 25 28  1  0
 25 24  1  0
 26 25  2  0
 27 26  1  0
 27 22  2  0
 28 29  1  0
 29 30  1  0
 30 31  2  0
 32 31  1  0
 32 36  1  0
 33 32  2  0
 34 29  2  0
 34 33  1  0
 35 34  1  0
 37 38  1  0
 38 41  1  0
 38 40  1  0
 39 37  2  0
 42 43  1  0
 42 17  1  0
 44 42  1  0
 46 45  1  0
 47 48  1  0
 47  1  1  0
 49 60  2  0
 50 48  1  0
 50 55  1  0
 51 59  1  0
 51 61  1  0
 52 58  1  0
 52 54  1  0
 53 59  1  0
 54 53  1  0
 55 54  2  0
 56 57  1  0
 56 50  2  0
 57 52  2  0
 58 51  1  0
 59 49  1  0
 61 63  2  0
 62 61  1  0
 64 62  1  0
 65 74  2  0
 65 70  1  0
 66 62  1  0
 66 70  1  0
 67 66  1  0
 68 69  1  0
 68 67  1  0
 69 65  1  0
 70 71  2  0
 71 72  1  0
 73 72  2  0
 74 73  1  0
 75 49  1  0
 75 76  1  0
 75 85  1  0
 76 79  1  0
 77 81  1  0
 77 76  1  0
 78 77  2  0
 81 80  1  0
 83 81  1  0
 83 84  1  0
 83 82  1  0
 85 88  1  1
 85 86  1  0
 87 85  1  0
M  ISO  4   8 100   9 100  47 101  48 101
M  END
>  <TORSDO>  (3) 
F 22

>  <SCORE>  (3) 
-12.925

>  <name>  (3) 
2

>  <ligand_id>  (3) 
2

>  <original_smiles>  (3) 
[H]c1c([H])c([H])c2c(c1[H])C([H])([H])C([H])([H])C([H])([H])C2([H])N([H])C(=O)C1([H])N(C(=O)C([H])(N([H])C(=O)C([H])(N([H])C([H])([H])[H])C([H])([H])[H])C(C([H])([H])[H])(C([H])([H])[H])C([H])([H])[H])C([H])([H])c2c([H])c(OC([H])([H])C([H])(C(=O)N([H])C([H])([H])C([H])([H])C([H])([H])C(=O)N3C([H])([H])C([H])([H])C([H])([H])C([H])(n4nc(-c5c([H])c([H])c(Oc6c([H])c([H])c(F)c([H])c6F)c([H])c5[H])c(C(=O)N([H])[H])c4N([H])[H])C3([H])[H])C([H])([H])C([H])([H])[H])c([H])c([H])c2C1([H])[H]

>  <smiles>  (3) 
[H]c1c([H])c([H])c2c(c1[H])C([H])([H])C([H])([H])C([H])([H])C2([H])N([H])C(=O)C1([H])N(C(=O)C([H])(N([H])C(=O)C([H])(N([H])C([H])([H])[H])C([H])([H])[H])C(C([H])([H])[H])(C([H])([H])[H])C([H])([H])[H])C([H])([H])c2c([H])c(OC([H])([H])C([H])(C(=O)N([H])C([H])([H])C([H])([H])C([H])([H])C(=O)N3C([H])([H])C([H])([H])C([H])([H])C([H])(n4nc(-c5c([H])c([H])c(Oc6c([H])c([H])c(F)c([H])c6F)c([H])c5[H])c(C(=O)N([H])[H])c4N([H])[H])C3([H])[H])C([H])([H])C([H])([H])[H])c([H])c([H])c2C1([H])[H]

$$$$
3:0:0
     RDKit          3D

 88 96  0  0  1  0  0  0  0  0999 V2000
  -29.1620  -21.2640   20.5860 N   0  0  0  0  0  4  0  0  0  0  0  0
  -30.1600  -21.4120   20.5670 H   0  0  0  0  0  0  0  0  0  0  0  0
  -28.9250  -21.2880   21.5670 H   0  0  0  0  0  0  0  0  0  0  0  0
  -30.4480  -15.3510   20.2990 C   0  0  0  0  0  0  0  0  0  0  0  0
  -30.4460  -12.8980   19.4410 C   0  0  0  0  0  2  0  0  0  0  0  0
  -29.5490  -12.6860   18.1990 C   0  0  0  0  0  2  0  0  0  0  0  0
  -28.0890  -12.4190   18.6120 C   0  0  0  0  0  2  0  0  0  0  0  0
  -27.6140  -13.3650   19.7480 C   0  0  0  0  0  3  0  0  0  0  0  0
  -28.6540  -13.5340   20.8740 C   0  0  0  0  0  2  0  0  0  0  0  0
  -29.8760  -14.0470   20.2330 N   0  0  0  0  0  0  0  0  0  0  0  0
  -31.6870  -15.3270   20.2460 O   0  0  0  0  0  0  0  0  0  0  0  0
  -28.2950  -17.9760   18.3820 C   0  0  0  0  0  2  0  0  0  0  0  0
  -28.8070  -19.4210   18.6550 C   0  0  0  0  0  2  0  0  0  0  0  0
  -29.2560  -16.7900   18.7210 C   0  0  0  0  0  2  0  0  0  0  0  0
  -29.9070  -18.2070   20.6400 C   0  0  0  0  0  2  0  0  0  0  0  0
  -28.9730  -19.6490   20.1610 C   0  0  0  0  0  3  0  0  0  0  0  0
  -29.7060  -16.6410   20.1300 N   0  0  0  0  0  0  0  0  0  0  0  0
  -25.2340  -13.9050   20.4830 C   0  0  0  0  0  0  0  0  0  0  0  0
  -24.1740  -13.1200   20.8410 C   0  0  0  0  0  0  0  0  0  0  0  0
  -24.6560  -11.7720   20.8230 C   0  0  0  0  0  0  0  0  0  0  0  0
  -26.2880  -13.0370   20.2510 N   0  0  0  0  0  0  0  0  0  0  0  0
  -25.9520  -11.7510   20.5280 N   0  0  0  0  0  0  0  0  0  0  0  0
  -23.9400  -10.5030   21.0050 C   0  0  0  0  0  0  0  0  0  0  0  0
  -24.3540   -9.5530   21.9640 C   0  0  0  0  0  3  0  0  0  0  0  0
  -23.6330   -8.3510   22.1380 C   0  0  0  0  0  3  0  0  0  0  0  0
  -22.4860   -8.0910   21.3530 C   0  0  0  0  0  0  0  0  0  0  0  0
  -22.0930   -9.0290   20.3820 C   0  0  0  0  0  3  0  0  0  0  0  0
  -22.8140  -10.2230   20.2060 C   0  0  0  0  0  3  0  0  0  0  0  0
  -21.7410   -6.9390   21.4320 O   0  0  0  0  0  0  0  0  0  0  0  0
  -21.6490   -6.2190   22.5970 C   0  0  0  0  0  0  0  0  0  0  0  0
  -21.1360   -6.7880   23.7850 C   0  0  0  0  0  3  0  0  0  0  0  0
  -20.9940   -5.9950   24.9410 C   0  0  0  0  0  3  0  0  0  0  0  0
  -21.3510   -4.6330   24.9110 C   0  0  0  0  0  0  0  0  0  0  0  0
  -21.8570   -4.0650   23.7280 C   0  0  0  0  0  3  0  0  0  0  0  0
  -22.0020   -4.8560   22.5740 C   0  0  0  0  0  0  0  0  0  0  0  0
  -22.4670   -4.2970   21.4310 F   0  0  0  0  0  0  0  0  0  0  0  0
  -21.2100   -3.8700   26.0190 F   0  0  0  0  0  0  0  0  0  0  0  0
  -22.7680  -13.5820   21.0810 C   0  0  0  0  0  0  0  0  0  0  0  0
  -22.0250  -12.8800   21.9290 N   0  0  0  0  0  0  0  0  0  0  0  0
  -22.3330  -14.6030   20.5500 O   0  0  0  0  0  0  0  0  0  0  0  0
  -22.3890  -12.0610   22.3950 H   0  0  0  0  0  0  0  0  0  0  0  0
  -21.0760  -13.1690   22.1180 H   0  0  0  0  0  0  0  0  0  0  0  0
  -25.3900  -15.2780   20.3050 N   0  0  0  0  0  0  0  0  0  0  0  0
  -24.6230  -15.9330   20.4170 H   0  0  0  0  0  0  0  0  0  0  0  0
  -26.2520  -15.7230   20.0200 H   0  0  0  0  0  0  0  0  0  0  0  0
  -28.5360  -22.6850   19.9460 C   0  0  0  0  0  2  0  0  0  0  0  0
  -28.1800  -24.3050   20.6860 C   0  0  0  0  0  2  0  0  0  0  0  0
  -28.2430  -25.9170   20.2810 O   0  0  0  0  0  0  0  0  0  0  0  0
  -24.5930  -31.8860   23.2450 C   0  0  0  0  0  0  0  0  0  0  0  0
  -27.1970  -26.9850   20.3040 C   0  0  0  0  0  0  0  0  0  0  0  0
  -23.4210  -30.4710   21.6040 C   0  0  0  0  0  3  0  0  0  0  0  0
  -24.8870  -28.8540   20.2190 C   0  0  0  0  0  0  0  0  0  0  0  0
  -25.9850  -30.6900   21.4820 C   0  0  0  0  0  2  0  0  0  0  0  0
  -26.0680  -29.2720   20.8450 C   0  0  0  0  0  0  0  0  0  0  0  0
  -27.2180  -28.3600   20.8590 C   0  0  0  0  0  3  0  0  0  0  0  0
  -25.9800  -26.7140   19.6400 C   0  0  0  0  0  3  0  0  0  0  0  0
  -24.8660  -27.5950   19.5970 C   0  0  0  0  0  3  0  0  0  0  0  0
  -23.6670  -29.7740   20.2380 C   0  0  0  0  0  2  0  0  0  0  0  0
  -24.6870  -31.0450   22.1640 N   0  0  0  0  0  0  0  0  0  0  0  0
  -23.4980  -32.1750   23.7560 O   0  0  0  0  0  0  0  0  0  0  0  0
  -22.7230  -29.4840   22.5740 C   0  0  0  0  0  0  0  0  0  0  0  0
  -21.3930  -29.3110   22.4400 N   0  0  0  0  0  0  0  0  0  0  0  0
  -23.3820  -28.8700   23.4180 O   0  0  0  0  0  0  0  0  0  0  0  0
  -20.9130  -29.8560   21.7350 H   0  0  0  0  0  0  0  0  0  0  0  0
  -18.0150  -28.0810   22.9280 C   0  0  0  0  0  0  0  0  0  0  0  0
  -20.5700  -28.3750   23.2120 C   0  0  0  0  0  3  0  0  0  0  0  0
  -20.6900  -26.9380   22.6530 C   0  0  0  0  0  2  0  0  0  0  0  0
  -19.5990  -26.5940   21.6330 C   0  0  0  0  0  2  0  0  0  0  0  0
  -18.2110  -26.7280   22.2640 C   0  0  0  0  0  2  0  0  0  0  0  0
  -19.1210  -28.8590   23.3610 C   0  0  0  0  0  0  0  0  0  0  0  0
  -18.8800  -30.1210   23.9460 C   0  0  0  0  0  3  0  0  0  0  0  0
  -17.5670  -30.6030   24.1050 C   0  0  0  0  0  3  0  0  0  0  0  0
  -16.4760  -29.8220   23.6870 C   0  0  0  0  0  3  0  0  0  0  0  0
  -16.7010  -28.5620   23.1030 C   0  0  0  0  0  3  0  0  0  0  0  0
  -25.8570  -32.5420   23.8820 C   0  0  0  0  0  3  0  0  0  0  0  0
  -25.5350  -33.9480   24.1860 N   0  0  0  0  0  0  0  0  0  0  0  0
  -25.8850  -34.9980   23.4280 C   0  0  0  0  0  0  0  0  0  0  0  0
  -26.5740  -34.8820   22.4120 O   0  0  0  0  0  0  0  0  0  0  0  0
  -24.9230  -34.1080   24.9730 H   0  0  0  0  0  0  0  0  0  0  0  0
  -24.1790  -36.8060   23.0240 C   0  0  0  0  0  1  0  0  0  0  0  0
  -25.3970  -36.3940   23.8670 C   0  0  0  0  0  3  0  0  0  0  0  0
  -27.5140  -37.2770   24.7460 C   0  0  0  0  0  1  0  0  0  0  0  0
  -26.4380  -37.4410   23.7730 N   0  0  0  0  0  0  0  0  0  0  0  0
  -26.0310  -38.3630   23.9010 H   0  0  0  0  0  0  0  0  0  0  0  0
  -26.3420  -31.8020   25.1920 C   0  0  1  0  0  0  0  0  0  0  0  0
  -25.2270  -31.5960   26.2430 C   0  0  0  0  0  1  0  0  0  0  0  0
  -26.9300  -30.4120   24.8590 C   0  0  0  0  0  1  0  0  0  0  0  0
  -27.4820  -32.6100   25.8550 C   0  0  0  0  0  1  0  0  0  0  0  0
  1  3  1  0
  2  1  1  0
  5 10  1  0
  6  7  1  0
  6  5  1  0
  8  7  1  0
  8 21  1  0
  8  9  1  0
 10  4  1  0
 10  9  1  0
 11  4  2  0
 12 13  1  0
 12 14  1  0
 13 16  1  0
 14 17  1  0
 16  1  1  0
 16 15  1  0
 17  4  1  0
 17 15  1  0
 18 19  2  0
 19 38  1  0
 20 19  1  0
 20 23  1  0
 21 18  1  0
 21 22  1  0
 22 20  2  0
 23 24  1  0
 24 25  2  0
 26 29  1  0
 26 25  1  0
 27 26  2  0
 28 27  1  0
 28 23  2  0
 29 30  1  0
 30 31  1  0
 31 32  2  0
 33 32  1  0
 33 37  1  0
 34 33  2  0
 35 30  2  0
 35 34  1  0
 36 35  1  0
 38 39  1  0
 39 42  1  0
 39 41  1  0
 40 38  2  0
 43 44  1  0
 43 18  1  0
 45 43  1  0
 46  1  1  0
 46 47  1  0
 48 50  1  0
 48 47  1  0
 49 60  2  0
 50 55  1  0
 51 59  1  0
 51 61  1  0
 52 58  1  0
 52 54  1  0
 53 59  1  0
 54 55  2  0
 54 53  1  0
 56 50  2  0
 57 56  1  0
 57 52  2  0
 58 51  1  0
 59 49  1  0
 61 63  2  0
 62 61  1  0
 64 62  1  0
 65 74  2  0
 65 70  1  0
 66 62  1  0
 66 70  1  0
 67 66  1  0
 68 69  1  0
 68 67  1  0
 69 65  1  0
 70 71  2  0
 71 72  1  0
 73 72  2  0
 74 73  1  0
 75 49  1  0
 75 76  1  0
 75 85  1  0
 76 79  1  0
 77 81  1  0
 77 76  1  0
 78 77  2  0
 81 80  1  0
 83 81  1  0
 83 84  1  0
 83 82  1  0
 85 88  1  1
 85 86  1  0
 87 85  1  0
M  ISO  4   4 100  17 100  47 101  48 101
M  END
>  <TORSDO>  (4) 
F 18

>  <SCORE>  (4) 
-16.560

>  <name>  (4) 
3

>  <ligand_id>  (4) 
3

>  <original_smiles>  (4) 
[H]c1c([H])c([H])c2c(c1[H])C([H])([H])C([H])([H])C([H])([H])C2([H])N([H])C(=O)C1([H])N(C(=O)C([H])(N([H])C(=O)C([H])(N([H])C([H])([H])[H])C([H])([H])[H])C(C([H])([H])[H])(C([H])([H])[H])C([H])([H])[H])C([H])([H])c2c([H])c(OC([H])([H])C([H])([H])[N+]([H])([H])C3([H])C([H])([H])N(C(=O)N4C([H])([H])C([H])([H])C([H])([H])C([H])(n5nc(-c6c([H])c([H])c(Oc7c([H])c([H])c(F)c([H])c7F)c([H])c6[H])c(C(=O)N([H])[H])c5N([H])[H])C4([H])[H])C([H])([H])C([H])([H])C3([H])[H])c([H])c([H])c2C1([H])[H]

>  <smiles>  (4) 
[H]c1c([H])c([H])c2c(c1[H])C([H])([H])C([H])([H])C([H])([H])C2([H])N([H])C(=O)C1([H])N(C(=O)C([H])(N([H])C(=O)C([H])(N([H])C([H])([H])[H])C([H])([H])[H])C(C([H])([H])[H])(C([H])([H])[H])C([H])([H])[H])C([H])([H])c2c([H])c(OC([H])([H])C([H])([H])[N+]([H])([H])C3([H])C([H])([H])N(C(=O)N4C([H])([H])C([H])([H])C([H])([H])C([H])(n5nc(-c6c([H])c([H])c(Oc7c([H])c([H])c(F)c([H])c7F)c([H])c6[H])c(C(=O)N([H])[H])c5N([H])[H])C4([H])[H])C([H])([H])C([H])([H])C3([H])[H])c([H])c([H])c2C1([H])[H]

$$$$
4:0:0
     RDKit          3D

 96103  0  0  1  0  0  0  0  0999 V2000
  -29.8070  -18.6680   20.5740 C   0  0  0  0  0  0  0  0  0  0  0  0
  -30.3290  -15.5580   20.3390 C   0  0  0  0  0  0  0  0  0  0  0  0
  -30.4250  -13.0240   19.5450 C   0  0  0  0  0  2  0  0  0  0  0  0
  -29.5480  -12.6390   18.3230 C   0  0  0  0  0  2  0  0  0  0  0  0
  -28.1180  -12.2940   18.7640 C   0  0  0  0  0  2  0  0  0  0  0  0
  -27.5970  -13.3000   19.8180 C   0  0  0  0  0  3  0  0  0  0  0  0
  -28.6140  -13.6020   20.9420 C   0  0  0  0  0  2  0  0  0  0  0  0
  -29.7990  -14.2030   20.2920 N   0  0  0  0  0  0  0  0  0  0  0  0
  -31.5570  -15.4860   20.1450 O   0  0  0  0  0  0  0  0  0  0  0  0
  -29.5870  -16.9150   20.4330 N   0  0  0  0  0  4  0  0  0  0  0  0
  -28.6000  -16.7100   20.4910 H   0  0  0  0  0  0  0  0  0  0  0  0
  -25.2330  -13.8280   20.5810 C   0  0  0  0  0  0  0  0  0  0  0  0
  -24.1700  -13.0430   20.9280 C   0  0  0  0  0  0  0  0  0  0  0  0
  -24.6380  -11.6940   20.8760 C   0  0  0  0  0  0  0  0  0  0  0  0
  -26.2760  -12.9590   20.3240 N   0  0  0  0  0  0  0  0  0  0  0  0
  -25.9330  -11.6660   20.5710 N   0  0  0  0  0  0  0  0  0  0  0  0
  -23.9090  -10.4290   21.0400 C   0  0  0  0  0  0  0  0  0  0  0  0
  -24.3640   -9.4200   21.9180 C   0  0  0  0  0  3  0  0  0  0  0  0
  -23.6290   -8.2250   22.0750 C   0  0  0  0  0  3  0  0  0  0  0  0
  -22.4280   -8.0280   21.3540 C   0  0  0  0  0  0  0  0  0  0  0  0
  -21.9920   -9.0260   20.4640 C   0  0  0  0  0  3  0  0  0  0  0  0
  -22.7260  -10.2130   20.3050 C   0  0  0  0  0  3  0  0  0  0  0  0
  -21.6640   -6.8880   21.4230 O   0  0  0  0  0  0  0  0  0  0  0  0
  -21.6860   -6.0730   22.5270 C   0  0  0  0  0  0  0  0  0  0  0  0
  -21.4020   -6.5630   23.8210 C   0  0  0  0  0  3  0  0  0  0  0  0
  -21.3660   -5.6780   24.9170 C   0  0  0  0  0  3  0  0  0  0  0  0
  -21.6050   -4.3050   24.7230 C   0  0  0  0  0  0  0  0  0  0  0  0
  -21.8820   -3.8130   23.4350 C   0  0  0  0  0  3  0  0  0  0  0  0
  -21.9190   -4.6950   22.3400 C   0  0  0  0  0  0  0  0  0  0  0  0
  -22.1660   -4.2140   21.0980 F   0  0  0  0  0  0  0  0  0  0  0  0
  -21.5620   -3.4540   25.7740 F   0  0  0  0  0  0  0  0  0  0  0  0
  -22.7720  -13.5170   21.1920 C   0  0  0  0  0  0  0  0  0  0  0  0
  -22.0370  -12.8160   22.0460 N   0  0  0  0  0  0  0  0  0  0  0  0
  -22.3410  -14.5470   20.6740 O   0  0  0  0  0  0  0  0  0  0  0  0
  -22.3980  -11.9830   22.4880 H   0  0  0  0  0  0  0  0  0  0  0  0
  -21.0970  -13.1170   22.2640 H   0  0  0  0  0  0  0  0  0  0  0  0
  -25.3930  -15.2020   20.4270 N   0  0  0  0  0  0  0  0  0  0  0  0
  -24.6210  -15.8490   20.5500 H   0  0  0  0  0  0  0  0  0  0  0  0
  -26.2300  -15.6500   20.0790 H   0  0  0  0  0  0  0  0  0  0  0  0
  -28.7960  -20.2740   20.2260 C   0  0  0  0  0  2  0  0  0  0  0  0
  -28.9870  -22.1860   20.3770 C   0  0  0  0  0  3  0  0  0  0  0  0
  -28.0090  -23.8270   20.1570 C   0  0  0  0  0  3  0  0  0  0  0  0
  -28.2000  -25.5530   20.2880 O   0  0  0  0  0  0  0  0  0  0  0  0
  -24.6800  -31.8030   23.1550 C   0  0  0  0  0  0  0  0  0  0  0  0
  -27.2220  -26.7440   20.2110 C   0  0  0  0  0  0  0  0  0  0  0  0
  -23.5040  -30.4050   21.5090 C   0  0  0  0  0  3  0  0  0  0  0  0
  -24.9600  -28.7580   20.1150 C   0  0  0  0  0  0  0  0  0  0  0  0
  -26.0820  -30.5500   21.4120 C   0  0  0  0  0  2  0  0  0  0  0  0
  -26.1470  -29.1200   20.7610 C   0  0  0  0  0  0  0  0  0  0  0  0
  -27.2660  -28.1410   20.7770 C   0  0  0  0  0  3  0  0  0  0  0  0
  -26.0010  -26.5770   19.5120 C   0  0  0  0  0  3  0  0  0  0  0  0
  -24.9220  -27.5100   19.4670 C   0  0  0  0  0  3  0  0  0  0  0  0
  -23.7540  -29.7090   20.1420 C   0  0  0  0  0  2  0  0  0  0  0  0
  -24.7780  -30.9520   22.0780 N   0  0  0  0  0  0  0  0  0  0  0  0
  -23.5830  -32.1070   23.6540 O   0  0  0  0  0  0  0  0  0  0  0  0
  -22.7750  -29.4300   22.4730 C   0  0  0  0  0  0  0  0  0  0  0  0
  -21.4400  -29.3010   22.3470 N   0  0  0  0  0  0  0  0  0  0  0  0
  -23.4210  -28.7880   23.3050 O   0  0  0  0  0  0  0  0  0  0  0  0
  -20.9710  -29.8660   21.6540 H   0  0  0  0  0  0  0  0  0  0  0  0
  -18.0330  -28.1420   22.8440 C   0  0  0  0  0  0  0  0  0  0  0  0
  -20.5970  -28.3760   23.1150 C   0  0  0  0  0  3  0  0  0  0  0  0
  -20.6810  -26.9420   22.5420 C   0  0  0  0  0  2  0  0  0  0  0  0
  -19.5800  -26.6370   21.5220 C   0  0  0  0  0  2  0  0  0  0  0  0
  -18.1970  -26.7950   22.1600 C   0  0  0  0  0  2  0  0  0  0  0  0
  -19.1600  -28.8910   23.2780 C   0  0  0  0  0  0  0  0  0  0  0  0
  -18.9510  -30.1490   23.8810 C   0  0  0  0  0  3  0  0  0  0  0  0
  -17.6500  -30.6600   24.0540 C   0  0  0  0  0  3  0  0  0  0  0  0
  -16.5390  -29.9080   23.6350 C   0  0  0  0  0  3  0  0  0  0  0  0
  -16.7310  -28.6510   23.0350 C   0  0  0  0  0  3  0  0  0  0  0  0
  -25.9400  -32.4480   23.8070 C   0  0  0  0  0  3  0  0  0  0  0  0
  -26.4590  -31.6490   25.0670 C   0  0  1  0  0  0  0  0  0  0  0  0
  -25.3660  -31.3800   26.1290 C   0  0  0  0  0  1  0  0  0  0  0  0
  -27.0500  -30.2820   24.6540 C   0  0  0  0  0  1  0  0  0  0  0  0
  -27.6040  -32.4350   25.7490 C   0  0  0  0  0  1  0  0  0  0  0  0
  -25.5990  -33.8300   24.1960 N   0  0  0  0  0  0  0  0  0  0  0  0
  -25.9120  -34.9290   23.4960 C   0  0  0  0  0  0  0  0  0  0  0  0
  -26.5760  -34.8860   22.4580 O   0  0  0  0  0  0  0  0  0  0  0  0
  -25.0070  -33.9350   25.0060 H   0  0  0  0  0  0  0  0  0  0  0  0
  -24.1500  -36.7160   23.2650 C   0  0  0  0  0  1  0  0  0  0  0  0
  -25.4140  -36.2900   24.0280 C   0  0  0  0  0  3  0  0  0  0  0  0
  -27.5570  -37.1720   24.8460 C   0  0  0  0  0  1  0  0  0  0  0  0
  -26.4270  -37.3660   23.9410 N   0  0  0  0  0  0  0  0  0  0  0  0
  -26.0110  -38.2700   24.1460 H   0  0  0  0  0  0  0  0  0  0  0  0
  -30.5530  -18.9780   21.9350 C   0  0  0  0  0  3  0  0  0  0  0  0
  -29.7700  -19.9120   22.7660 N   0  0  0  0  0  4  0  0  0  0  0  0
  -28.9550  -19.4620   23.1420 H   0  0  0  0  0  0  0  0  0  0  0  0
  -29.4760  -20.6920   22.2030 H   0  0  0  0  0  0  0  0  0  0  0  0
  -30.3270  -20.2620   23.5260 H   0  0  0  0  0  0  0  0  0  0  0  0
  -31.0520  -17.8090   22.8330 C   0  0  0  0  0  2  0  0  0  0  0  0
  -32.4750  -17.3190   22.5120 C   0  0  0  0  0  2  0  0  0  0  0  0
  -32.8380  -16.0150   23.2540 C   0  0  0  0  0  2  0  0  0  0  0  0
  -34.0590  -15.2890   22.6590 C   0  0  0  0  0  2  0  0  0  0  0  0
  -33.7080  -14.5030   21.4620 N   0  0  0  0  0  4  0  0  0  0  0  0
  -33.1990  -13.6790   21.7250 H   0  0  0  0  0  0  0  0  0  0  0  0
  -34.5360  -14.2180   20.9690 H   0  0  0  0  0  0  0  0  0  0  0  0
  -33.1110  -15.0350   20.8340 H   0  0  0  0  0  0  0  0  0  0  0  0
  1 84  1  0
  2 10  1  0
  3  8  1  0
  4  5  1  0
  4  3  1  0
  6  5  1  0
  6 15  1  0
  6  7  1  0
  8  2  1  0
  8  7  1  0
  9  2  2  0
 10 11  1  0
 10  1  2  0
 12 13  2  0
 13 32  1  0
 14 13  1  0
 14 17  1  0
 15 16  1  0
 15 12  1  0
 16 14  2  0
 17 18  1  0
 18 19  2  0
 20 23  1  0
 20 19  1  0
 21 20  2  0
 22 21  1  0
 22 17  2  0
 23 24  1  0
 24 25  1  0
 25 26  2  0
 27 26  1  0
 27 31  1  0
 28 27  2  0
 29 24  2  0
 29 28  1  0
 30 29  1  0
 32 33  1  0
 33 36  1  0
 33 35  1  0
 34 32  2  0
 37 38  1  0
 37 12  1  0
 39 37  1  0
 40 41  1  0
 40  1  1  0
 42 43  1  0
 42 41  2  0
 44 55  2  0
 45 43  1  0
 45 50  1  0
 46 54  1  0
 46 56  1  0
 47 53  1  0
 47 49  1  0
 48 54  1  0
 49 50  2  0
 49 48  1  0
 51 45  2  0
 52 51  1  0
 52 47  2  0
 53 46  1  0
 54 44  1  0
 56 58  2  0
 57 56  1  0
 59 57  1  0
 60 69  2  0
 60 65  1  0
 61 57  1  0
 61 65  1  0
 62 61  1  0
 63 64  1  0
 63 62  1  0
 64 60  1  0
 65 66  2  0
 66 67  1  0
 68 67  2  0
 69 68  1  0
 70 44  1  0
 70 75  1  0
 70 71  1  0
 71 74  1  1
 71 72  1  0
 73 71  1  0
 75 78  1  0
 76 80  1  0
 76 75  1  0
 77 76  2  0
 80 79  1  0
 82 80  1  0
 82 83  1  0
 82 81  1  0
 84 85  1  0
 84 89  1  0
 85 86  1  0
 85 88  1  0
 87 85  1  0
 90 89  1  0
 90 91  1  0
 92 91  1  0
 93 94  1  0
 93 92  1  0
 95 93  1  0
 96 93  1  0
M  ISO  4   2 100  10 100  42 101  43 101
M  END
>  <TORSDO>  (5) 
F 26

>  <SCORE>  (5) 
6.228

>  <name>  (5) 
4

>  <ligand_id>  (5) 
4

>  <original_smiles>  (5) 
[H]c1c([H])c([H])c2c(c1[H])C([H])([H])C([H])([H])C([H])([H])C2([H])N([H])C(=O)C1([H])N(C(=O)C([H])(N([H])C(=O)C([H])(N([H])C([H])([H])[H])C([H])([H])[H])C(C([H])([H])[H])(C([H])([H])[H])C([H])([H])[H])C([H])([H])c2c([H])c(OC([H])([H])C([H])([H])C([H])([H])C([H])(N([H])C(=O)N3C([H])([H])C([H])([H])C([H])([H])C([H])(n4nc(-c5c([H])c([H])c(Oc6c([H])c([H])c(F)c([H])c6F)c([H])c5[H])c(C(=O)N([H])[H])c4N([H])[H])C3([H])[H])C([H])(C([H])([H])C([H])([H])C([H])([H])C([H])([H])[N+]([H])([H])[H])[N+]([H])([H])[H])c([H])c([H])c2C1([H])[H]

>  <smiles>  (5) 
[H]c1c([H])c([H])c2c(c1[H])C([H])([H])C([H])([H])C([H])([H])C2([H])N([H])C(=O)C1([H])N(C(=O)C([H])(N([H])C(=O)C([H])(N([H])C([H])([H])[H])C([H])([H])[H])C(C([H])([H])[H])(C([H])([H])[H])C([H])([H])[H])C([H])([H])c2c([H])c(OC([H])([H])C([H])([H])C([H])([H])C([H])(N([H])C(=O)N3C([H])([H])C([H])([H])C([H])([H])C([H])(n4nc(-c5c([H])c([H])c(Oc6c([H])c([H])c(F)c([H])c6F)c([H])c5[H])c(C(=O)N([H])[H])c4N([H])[H])C3([H])[H])C([H])(C([H])([H])C([H])([H])C([H])([H])C([H])([H])[N+]([H])([H])[H])[N+]([H])([H])[H])c([H])c([H])c2C1([H])[H]

$$$$
5:0:0
     RDKit          3D

 93100  0  0  1  0  0  0  0  0999 V2000
  -29.4820  -19.0790   20.5580 C   0  0  0  0  0  3  0  0  0  0  0  0
  -30.8110  -19.3380   21.1510 N   0  0  0  0  0  4  0  0  0  0  0  0
  -31.3660  -18.5080   21.0010 H   0  0  0  0  0  0  0  0  0  0  0  0
  -31.2390  -20.0750   20.6170 H   0  0  0  0  0  0  0  0  0  0  0  0
  -32.1420  -20.5330   22.8460 C   0  0  0  0  0  1  0  0  0  0  0  0
  -30.8770  -19.6920   22.5820 C   0  0  0  0  0  3  0  0  0  0  0  0
  -30.5510  -18.5740   24.8950 C   0  0  0  0  0  1  0  0  0  0  0  0
  -30.8510  -18.3880   23.4040 C   0  0  0  0  0  2  0  0  0  0  0  0
  -30.5850  -17.7140   18.5730 C   0  0  0  0  0  1  0  0  0  0  0  0
  -29.6100  -17.6030   19.7640 C   0  0  0  0  0  0  0  0  0  0  0  0
  -30.5110  -15.0130   20.1940 C   0  0  0  0  0  0  0  0  0  0  0  0
  -30.3640  -12.6660   19.2730 C   0  0  0  0  0  2  0  0  0  0  0  0
  -29.4000  -12.6750   18.0620 C   0  0  0  0  0  2  0  0  0  0  0  0
  -27.9450  -12.4670   18.5240 C   0  0  0  0  0  2  0  0  0  0  0  0
  -27.5780  -13.3710   19.7320 C   0  0  0  0  0  3  0  0  0  0  0  0
  -28.6660  -13.3420   20.8300 C   0  0  0  0  0  2  0  0  0  0  0  0
  -29.9320  -13.7480   20.2030 N   0  0  0  0  0  0  0  0  0  0  0  0
  -31.6750  -15.1030   19.7900 O   0  0  0  0  0  0  0  0  0  0  0  0
  -29.7240  -16.1700   20.4270 N   0  0  0  0  0  4  0  0  0  0  0  0
  -28.8680  -15.9210   20.9090 H   0  0  0  0  0  0  0  0  0  0  0  0
  -25.2210  -13.9430   20.5550 C   0  0  0  0  0  0  0  0  0  0  0  0
  -24.1680  -13.1580   20.9450 C   0  0  0  0  0  0  0  0  0  0  0  0
  -24.6320  -11.8090   20.8710 C   0  0  0  0  0  0  0  0  0  0  0  0
  -26.2540  -13.0670   20.2620 N   0  0  0  0  0  0  0  0  0  0  0  0
  -25.9100  -11.7790   20.5160 N   0  0  0  0  0  0  0  0  0  0  0  0
  -23.9120  -10.5410   21.0550 C   0  0  0  0  0  0  0  0  0  0  0  0
  -24.3680   -9.5550   21.9580 C   0  0  0  0  0  3  0  0  0  0  0  0
  -23.6430   -8.3570   22.1400 C   0  0  0  0  0  3  0  0  0  0  0  0
  -22.4480   -8.1350   21.4140 C   0  0  0  0  0  0  0  0  0  0  0  0
  -22.0100   -9.1110   20.5010 C   0  0  0  0  0  3  0  0  0  0  0  0
  -22.7360  -10.3000   20.3180 C   0  0  0  0  0  3  0  0  0  0  0  0
  -21.6940   -6.9900   21.5000 O   0  0  0  0  0  0  0  0  0  0  0  0
  -21.6680   -6.2290   22.6420 C   0  0  0  0  0  0  0  0  0  0  0  0
  -21.2770   -6.7690   23.8880 C   0  0  0  0  0  3  0  0  0  0  0  0
  -21.2020   -5.9380   25.0240 C   0  0  0  0  0  3  0  0  0  0  0  0
  -21.5050   -4.5680   24.9160 C   0  0  0  0  0  0  0  0  0  0  0  0
  -21.8890   -4.0270   23.6770 C   0  0  0  0  0  3  0  0  0  0  0  0
  -21.9680   -4.8560   22.5420 C   0  0  0  0  0  0  0  0  0  0  0  0
  -22.3170   -4.3260   21.3440 F   0  0  0  0  0  0  0  0  0  0  0  0
  -21.4300   -3.7660   26.0050 F   0  0  0  0  0  0  0  0  0  0  0  0
  -22.7800  -13.6290   21.2680 C   0  0  0  0  0  0  0  0  0  0  0  0
  -22.0770  -12.9170   22.1420 N   0  0  0  0  0  0  0  0  0  0  0  0
  -22.3230  -14.6610   20.7760 O   0  0  0  0  0  0  0  0  0  0  0  0
  -22.4560  -12.0780   22.5550 H   0  0  0  0  0  0  0  0  0  0  0  0
  -21.1460  -13.2150   22.4000 H   0  0  0  0  0  0  0  0  0  0  0  0
  -25.3800  -15.3170   20.3940 N   0  0  0  0  0  0  0  0  0  0  0  0
  -24.6170  -15.9720   20.5420 H   0  0  0  0  0  0  0  0  0  0  0  0
  -26.1740  -15.7450   19.9360 H   0  0  0  0  0  0  0  0  0  0  0  0
  -29.0440  -20.5070   19.7810 C   0  0  0  0  0  3  0  0  0  0  0  0
  -28.6560  -21.9740   20.5000 C   0  0  0  0  0  3  0  0  0  0  0  0
  -28.5650  -23.4640   19.7330 C   0  0  0  0  0  3  0  0  0  0  0  0
  -27.9090  -24.8520   20.3950 C   0  0  0  0  0  3  0  0  0  0  0  0
  -28.1050  -26.3140   19.9360 O   0  0  0  0  0  0  0  0  0  0  0  0
  -24.5740  -31.9060   23.1640 C   0  0  0  0  0  0  0  0  0  0  0  0
  -27.0380  -27.2680   19.9800 C   0  0  0  0  0  0  0  0  0  0  0  0
  -23.3200  -30.5460   21.5350 C   0  0  0  0  0  3  0  0  0  0  0  0
  -24.7170  -28.9950   20.0420 C   0  0  0  0  0  0  0  0  0  0  0  0
  -25.8650  -30.8170   21.2940 C   0  0  0  0  0  2  0  0  0  0  0  0
  -25.9150  -29.4370   20.6210 C   0  0  0  0  0  0  0  0  0  0  0  0
  -27.0800  -28.5910   20.5690 C   0  0  0  0  0  3  0  0  0  0  0  0
  -25.8150  -26.9110   19.3770 C   0  0  0  0  0  3  0  0  0  0  0  0
  -24.6770  -27.7440   19.4070 C   0  0  0  0  0  3  0  0  0  0  0  0
  -23.4950  -29.8940   20.1370 C   0  0  0  0  0  2  0  0  0  0  0  0
  -24.6090  -31.1100   22.0540 N   0  0  0  0  0  0  0  0  0  0  0  0
  -23.5060  -32.1830   23.7270 O   0  0  0  0  0  0  0  0  0  0  0  0
  -22.6670  -29.5220   22.4950 C   0  0  0  0  0  0  0  0  0  0  0  0
  -21.3390  -29.3370   22.3850 N   0  0  0  0  0  0  0  0  0  0  0  0
  -23.3570  -28.8960   23.3050 O   0  0  0  0  0  0  0  0  0  0  0  0
  -20.8400  -29.8910   21.7030 H   0  0  0  0  0  0  0  0  0  0  0  0
  -17.9810  -28.0880   22.9030 C   0  0  0  0  0  0  0  0  0  0  0  0
  -20.5360  -28.3870   23.1590 C   0  0  0  0  0  3  0  0  0  0  0  0
  -20.6580  -26.9580   22.5800 C   0  0  0  0  0  2  0  0  0  0  0  0
  -19.5550  -26.6210   21.5720 C   0  0  0  0  0  2  0  0  0  0  0  0
  -18.1750  -26.7440   22.2220 C   0  0  0  0  0  2  0  0  0  0  0  0
  -19.0890  -28.8670   23.3280 C   0  0  0  0  0  0  0  0  0  0  0  0
  -18.8530  -30.1240   23.9250 C   0  0  0  0  0  3  0  0  0  0  0  0
  -17.5400  -30.6030   24.1000 C   0  0  0  0  0  3  0  0  0  0  0  0
  -16.4460  -29.8210   23.6910 C   0  0  0  0  0  3  0  0  0  0  0  0
  -16.6680  -28.5650   23.0990 C   0  0  0  0  0  3  0  0  0  0  0  0
  -25.8740  -32.5230   23.7630 C   0  0  0  0  0  3  0  0  0  0  0  0
  -26.4130  -31.7330   25.0180 C   0  0  1  0  0  0  0  0  0  0  0  0
  -25.3450  -31.4920   26.1090 C   0  0  0  0  0  1  0  0  0  0  0  0
  -26.9710  -30.3540   24.5970 C   0  0  0  0  0  1  0  0  0  0  0  0
  -27.5870  -32.5080   25.6620 C   0  0  0  0  0  1  0  0  0  0  0  0
  -25.5790  -33.9190   24.1240 N   0  0  0  0  0  0  0  0  0  0  0  0
  -25.9110  -34.9850   23.3850 C   0  0  0  0  0  0  0  0  0  0  0  0
  -26.5640  -34.9000   22.3420 O   0  0  0  0  0  0  0  0  0  0  0  0
  -24.9970  -34.0630   24.9360 H   0  0  0  0  0  0  0  0  0  0  0  0
  -24.1950  -36.8060   23.1030 C   0  0  0  0  0  1  0  0  0  0  0  0
  -25.4450  -36.3690   23.8810 C   0  0  0  0  0  3  0  0  0  0  0  0
  -27.6020  -37.2150   24.6980 C   0  0  0  0  0  1  0  0  0  0  0  0
  -26.4840  -37.4170   23.7790 N   0  0  0  0  0  0  0  0  0  0  0  0
  -26.0880  -38.3340   23.9620 H   0  0  0  0  0  0  0  0  0  0  0  0
  1 49  1  0
  1  2  1  0
  2  6  1  0
  3  2  1  0
  4  2  1  0
  6  5  1  0
  6  8  1  0
  8  7  1  0
  9 10  1  0
 10 19  2  0
 10  1  1  0
 11 17  1  0
 11 19  1  0
 12 17  1  0
 13 14  1  0
 13 12  1  0
 15 14  1  0
 15 24  1  0
 15 16  1  0
 17 16  1  0
 18 11  2  0
 19 20  1  0
 21 22  2  0
 22 41  1  0
 23 22  1  0
 23 26  1  0
 24 25  1  0
 24 21  1  0
 25 23  2  0
 26 27  1  0
 27 28  2  0
 29 32  1  0
 29 28  1  0
 30 29  2  0
 31 30  1  0
 31 26  2  0
 32 33  1  0
 33 34  1  0
 34 35  2  0
 36 35  1  0
 36 40  1  0
 37 36  2  0
 38 33  2  0
 38 37  1  0
 39 38  1  0
 41 42  1  0
 42 45  1  0
 42 44  1  0
 43 41  2  0
 46 47  1  0
 46 21  1  0
 48 46  1  0
 49 50  2  0
 51 52  2  0
 51 50  1  0
 53 55  1  0
 53 52  1  0
 54 65  2  0
 55 60  1  0
 56 64  1  0
 56 66  1  0
 57 63  1  0
 57 59  1  0
 58 64  1  0
 59 58  1  0
 60 59  2  0
 61 62  1  0
 61 55  2  0
 62 57  2  0
 63 56  1  0
 64 54  1  0
 66 68  2  0
 67 66  1  0
 69 67  1  0
 70 79  2  0
 70 75  1  0
 71 67  1  0
 71 75  1  0
 72 71  1  0
 73 74  1  0
 73 72  1  0
 74 70  1  0
 75 76  2  0
 76 77  1  0
 78 77  2  0
 79 78  1  0
 80 54  1  0
 80 85  1  0
 80 81  1  0
 81 84  1  1
 81 82  1  0
 83 81  1  0
 85 88  1  0
 86 90  1  0
 86 85  1  0
 87 86  2  0
 90 89  1  0
 92 90  1  0
 92 93  1  0
 92 91  1  0
M  ISO  4  11 100  19 100  52 101  53 101
M  END
>  <TORSDO>  (6) 
F 24

>  <SCORE>  (6) 
-11.084

>  <name>  (6) 
5

>  <ligand_id>  (6) 
5

>  <original_smiles>  (6) 
[H]c1c([H])c([H])c2c(c1[H])C([H])([H])C([H])([H])C([H])([H])C2([H])N([H])C(=O)C1([H])N(C(=O)C([H])(N([H])C(=O)C([H])(N([H])C([H])([H])[H])C([H])([H])[H])C(C([H])([H])[H])(C([H])([H])[H])C([H])([H])[H])C([H])([H])c2c([H])c(OC([H])([H])C([H])([H])C([H])([H])C([H])([H])C([H])(C([H])(N([H])C(=O)N3C([H])([H])C([H])([H])C([H])([H])C([H])(n4nc(-c5c([H])c([H])c(Oc6c([H])c([H])c(F)c([H])c6F)c([H])c5[H])c(C(=O)N([H])[H])c4N([H])[H])C3([H])[H])C([H])([H])[H])[N+]([H])([H])C([H])(C([H])([H])[H])C([H])([H])C([H])([H])[H])c([H])c([H])c2C1([H])[H]

>  <smiles>  (6) 
[H]c1c([H])c([H])c2c(c1[H])C([H])([H])C([H])([H])C([H])([H])C2([H])N([H])C(=O)C1([H])N(C(=O)C([H])(N([H])C(=O)C([H])(N([H])C([H])([H])[H])C([H])([H])[H])C(C([H])([H])[H])(C([H])([H])[H])C([H])([H])[H])C([H])([H])c2c([H])c(OC([H])([H])C([H])([H])C([H])([H])C([H])([H])C([H])(C([H])(N([H])C(=O)N3C([H])([H])C([H])([H])C([H])([H])C([H])(n4nc(-c5c([H])c([H])c(Oc6c([H])c([H])c(F)c([H])c6F)c([H])c5[H])c(C(=O)N([H])[H])c4N([H])[H])C3([H])[H])C([H])([H])[H])[N+]([H])([H])C([H])(C([H])([H])[H])C([H])([H])C([H])([H])[H])c([H])c([H])c2C1([H])[H]

$$$$
6:0:0
     RDKit          3D

 84 88  0  0  1  0  0  0  0  0999 V2000
  -28.3930  -23.3790   19.8880 C   0  0  0  0  0 15  0  0  0  0  0  0
  -30.0310  -21.6830   21.4170 C   0  0  0  0  0  1  0  0  0  0  0  0
  -27.6180  -21.0420   21.2730 C   0  0  0  0  0  1  0  0  0  0  0  0
  -28.8670  -21.3980   20.4560 C   0  0  0  0  0  2  0  0  0  0  0  0
  -29.4560  -19.4750   19.8290 C   0  0  0  0  0  1  0  0  0  0  0  0
  -30.2070  -16.1150   20.0280 C   0  0  0  0  0  0  0  0  0  0  0  0
  -30.3640  -13.4810   19.2300 C   0  0  0  0  0  2  0  0  0  0  0  0
  -29.4800  -12.9230   18.0630 C   0  0  0  0  0  2  0  0  0  0  0  0
  -28.0950  -12.4960   18.5650 C   0  0  0  0  0  2  0  0  0  0  0  0
  -27.5700  -13.5120   19.5980 C   0  0  0  0  0  3  0  0  0  0  0  0
  -28.6050  -13.9520   20.6720 C   0  0  0  0  0  2  0  0  0  0  0  0
  -29.7120  -14.6880   19.9790 N   0  0  0  0  0  0  0  0  0  0  0  0
  -31.4310  -15.9810   19.7820 O   0  0  0  0  0  0  0  0  0  0  0  0
  -29.4850  -17.5910   20.1660 N   0  0  0  0  0  0  0  0  0  0  0  0
  -28.5490  -17.3600   20.4680 H   0  0  0  0  0  0  0  0  0  0  0  0
  -25.2340  -14.0180   20.4290 C   0  0  0  0  0  0  0  0  0  0  0  0
  -24.1850  -13.2370   20.8160 C   0  0  0  0  0  0  0  0  0  0  0  0
  -24.6540  -11.8870   20.7660 C   0  0  0  0  0  0  0  0  0  0  0  0
  -26.2730  -13.1520   20.1550 N   0  0  0  0  0  0  0  0  0  0  0  0
  -25.9410  -11.8590   20.4230 N   0  0  0  0  0  0  0  0  0  0  0  0
  -23.9260  -10.6250   20.9680 C   0  0  0  0  0  0  0  0  0  0  0  0
  -24.3690   -9.6540   21.8950 C   0  0  0  0  0  3  0  0  0  0  0  0
  -23.6340   -8.4640   22.0920 C   0  0  0  0  0  3  0  0  0  0  0  0
  -22.4440   -8.2350   21.3610 C   0  0  0  0  0  0  0  0  0  0  0  0
  -22.0190   -9.1950   20.4250 C   0  0  0  0  0  3  0  0  0  0  0  0
  -22.7530  -10.3760   20.2260 C   0  0  0  0  0  3  0  0  0  0  0  0
  -21.6810   -7.0960   21.4650 O   0  0  0  0  0  0  0  0  0  0  0  0
  -21.6450   -6.3560   22.6190 C   0  0  0  0  0  0  0  0  0  0  0  0
  -21.2390   -6.9140   23.8500 C   0  0  0  0  0  3  0  0  0  0  0  0
  -21.1520   -6.1010   24.9970 C   0  0  0  0  0  3  0  0  0  0  0  0
  -21.4600   -4.7300   24.9150 C   0  0  0  0  0  0  0  0  0  0  0  0
  -21.8580   -4.1710   23.6880 C   0  0  0  0  0  3  0  0  0  0  0  0
  -21.9490   -4.9810   22.5430 C   0  0  0  0  0  0  0  0  0  0  0  0
  -22.3130   -4.4320   21.3580 F   0  0  0  0  0  0  0  0  0  0  0  0
  -21.3680   -3.9470   26.0160 F   0  0  0  0  0  0  0  0  0  0  0  0
  -22.7950  -13.7160   21.1110 C   0  0  0  0  0  0  0  0  0  0  0  0
  -22.0850  -13.0310   21.9980 N   0  0  0  0  0  0  0  0  0  0  0  0
  -22.3500  -14.7400   20.5910 O   0  0  0  0  0  0  0  0  0  0  0  0
  -22.4620  -12.2080   22.4430 H   0  0  0  0  0  0  0  0  0  0  0  0
  -21.1530  -13.3370   22.2370 H   0  0  0  0  0  0  0  0  0  0  0  0
  -25.3910  -15.3880   20.2500 N   0  0  0  0  0  0  0  0  0  0  0  0
  -24.6260  -16.0420   20.3740 H   0  0  0  0  0  0  0  0  0  0  0  0
  -26.2260  -15.8190   19.8760 H   0  0  0  0  0  0  0  0  0  0  0  0
  -28.2260  -25.2270   20.3080 O   0  0  0  0  0  1  0  0  0  0  0  0
  -24.7120  -31.8280   23.1410 C   0  0  0  0  0  0  0  0  0  0  0  0
  -27.2760  -26.5470   20.1900 C   0  0  0  0  0  0  0  0  0  0  0  0
  -23.5420  -30.4050   21.5170 C   0  0  0  0  0  3  0  0  0  0  0  0
  -25.0060  -28.7140   20.1230 C   0  0  0  0  0  0  0  0  0  0  0  0
  -26.1300  -30.4980   21.4210 C   0  0  0  0  0  2  0  0  0  0  0  0
  -26.2030  -29.0370   20.7690 C   0  0  0  0  0  0  0  0  0  0  0  0
  -27.3030  -27.9880   20.7700 C   0  0  0  0  0  3  0  0  0  0  0  0
  -26.0430  -26.5040   19.4680 C   0  0  0  0  0  3  0  0  0  0  0  0
  -24.9800  -27.4770   19.4470 C   0  0  0  0  0  3  0  0  0  0  0  0
  -23.7980  -29.6820   20.1590 C   0  0  0  0  0  2  0  0  0  0  0  0
  -24.8210  -30.9510   22.0760 N   0  0  0  0  0  0  0  0  0  0  0  0
  -23.6130  -32.1310   23.6400 O   0  0  0  0  0  0  0  0  0  0  0  0
  -22.8120  -29.4500   22.5020 C   0  0  0  0  0  0  0  0  0  0  0  0
  -21.4760  -29.3040   22.3900 N   0  0  0  0  0  0  0  0  0  0  0  0
  -23.4660  -28.8330   23.3460 O   0  0  0  0  0  0  0  0  0  0  0  0
  -20.9930  -29.8530   21.6920 H   0  0  0  0  0  0  0  0  0  0  0  0
  -18.0920  -28.0800   22.9390 C   0  0  0  0  0  0  0  0  0  0  0  0
  -20.6540  -28.3700   23.1740 C   0  0  0  0  0  3  0  0  0  0  0  0
  -20.7580  -26.9340   22.6090 C   0  0  0  0  0  2  0  0  0  0  0  0
  -19.6510  -26.6010   21.6030 C   0  0  0  0  0  2  0  0  0  0  0  0
  -18.2740  -26.7340   22.2580 C   0  0  0  0  0  2  0  0  0  0  0  0
  -19.2090  -28.8560   23.3540 C   0  0  0  0  0  0  0  0  0  0  0  0
  -18.9800  -30.1110   23.9600 C   0  0  0  0  0  3  0  0  0  0  0  0
  -17.6700  -30.5930   24.1470 C   0  0  0  0  0  3  0  0  0  0  0  0
  -16.5700  -29.8170   23.7420 C   0  0  0  0  0  3  0  0  0  0  0  0
  -16.7820  -28.5600   23.1460 C   0  0  0  0  0  3  0  0  0  0  0  0
  -25.9590  -32.5060   23.7860 C   0  0  0  0  0  3  0  0  0  0  0  0
  -25.6110  -33.9030   24.1290 N   0  0  0  0  0  0  0  0  0  0  0  0
  -25.9300  -34.9840   23.4050 C   0  0  0  0  0  0  0  0  0  0  0  0
  -26.5950  -34.9120   22.3700 O   0  0  0  0  0  0  0  0  0  0  0  0
  -25.0140  -34.0310   24.9330 H   0  0  0  0  0  0  0  0  0  0  0  0
  -24.1730  -36.7730   23.1230 C   0  0  0  0  0  1  0  0  0  0  0  0
  -25.4350  -36.3620   23.8990 C   0  0  0  0  0  3  0  0  0  0  0  0
  -27.5710  -37.2690   24.7100 C   0  0  0  0  0  1  0  0  0  0  0  0
  -26.4520  -37.4330   23.7870 N   0  0  0  0  0  0  0  0  0  0  0  0
  -26.0360  -38.3460   23.9520 H   0  0  0  0  0  0  0  0  0  0  0  0
  -26.4680  -31.7590   25.0820 C   0  0  1  0  0  0  0  0  0  0  0  0
  -25.3620  -31.5250   26.1400 C   0  0  0  0  0  1  0  0  0  0  0  0
  -27.0660  -30.3780   24.7330 C   0  0  0  0  0  1  0  0  0  0  0  0
  -27.6060  -32.5710   25.7450 C   0  0  0  0  0  1  0  0  0  0  0  0
  4  3  1  0
  4  2  1  0
  5 14  1  0
  6 14  1  0
  7 12  1  0
  8  9  1  0
  8  7  1  0
 10  9  1  0
 10 19  1  0
 10 11  1  0
 12  6  1  0
 12 11  1  0
 13  6  2  0
 14 15  1  0
 16 17  2  0
 17 36  1  0
 18 17  1  0
 18 21  1  0
 19 20  1  0
 19 16  1  0
 20 18  2  0
 21 22  1  0
 22 23  2  0
 24 27  1  0
 24 23  1  0
 25 24  2  0
 26 25  1  0
 26 21  2  0
 27 28  1  0
 28 29  1  0
 29 30  2  0
 31 30  1  0
 31 35  1  0
 32 31  2  0
 33 28  2  0
 33 32  1  0
 34 33  1  0
 36 37  1  0
 37 40  1  0
 37 39  1  0
 38 36  2  0
 41 42  1  0
 41 16  1  0
 43 41  1  0
 45 56  2  0
 46 44  1  0
 46 51  1  0
 47 55  1  0
 47 57  1  0
 48 54  1  0
 48 50  1  0
 49 55  1  0
 50 51  2  0
 50 49  1  0
 52 46  2  0
 53 52  1  0
 53 48  2  0
 54 47  1  0
 55 45  1  0
 57 59  2  0
 58 57  1  0
 60 58  1  0
 61 70  2  0
 61 66  1  0
 62 58  1  0
 62 66  1  0
 63 62  1  0
 64 65  1  0
 64 63  1  0
 65 61  1  0
 66 67  2  0
 67 68  1  0
 69 68  2  0
 70 69  1  0
 71 45  1  0
 71 72  1  0
 71 81  1  0
 72 75  1  0
 73 77  1  0
 73 72  1  0
 74 73  2  0
 77 76  1  0
 79 77  1  0
 79 80  1  0
 79 78  1  0
 81 84  1  1
 81 82  1  0
 83 81  1  0
M  ISO  4   1 101   6 100  14 100  44 101
M  END
>  <TORSDO>  (7) 
F 18

>  <SCORE>  (7) 
-15.543

>  <name>  (7) 
6

>  <ligand_id>  (7) 
6

>  <original_smiles>  (7) 
[H]c1c([H])c([H])c2c(c1[H])C([H])([H])C([H])([H])C([H])([H])C2([H])N([H])C(=O)C1([H])N(C(=O)C([H])(N([H])C(=O)C([H])(N([H])C([H])([H])[H])C([H])([H])[H])C(C([H])([H])[H])(C([H])([H])[H])C([H])([H])[H])C([H])([H])c2c([H])c(OC([H])([H])C(C([H])([H])[H])(C([H])([H])[H])C([H])([H])N([H])C(=O)N3C([H])([H])C([H])([H])C([H])([H])C([H])(n4nc(-c5c([H])c([H])c(Oc6c([H])c([H])c(F)c([H])c6F)c([H])c5[H])c(C(=O)N([H])[H])c4N([H])[H])C3([H])[H])c([H])c([H])c2C1([H])[H]

>  <smiles>  (7) 
[H]c1c([H])c([H])c2c(c1[H])C([H])([H])C([H])([H])C([H])([H])C2([H])N([H])C(=O)C1([H])N(C(=O)C([H])(N([H])C(=O)C([H])(N([H])C([H])([H])[H])C([H])([H])[H])C(C([H])([H])[H])(C([H])([H])[H])C([H])([H])[H])C([H])([H])c2c([H])c(OC([H])([H])C(C([H])([H])[H])(C([H])([H])[H])C([H])([H])N([H])C(=O)N3C([H])([H])C([H])([H])C([H])([H])C([H])(n4nc(-c5c([H])c([H])c(Oc6c([H])c([H])c(F)c([H])c6F)c([H])c5[H])c(C(=O)N([H])[H])c4N([H])[H])C3([H])[H])c([H])c([H])c2C1([H])[H]

$$$$
7:0:0
     RDKit          3D

 96105  0  0  1  0  0  0  0  0999 V2000
  -31.2060  -19.0800   18.0230 C   0  0  0  0  0  3  0  0  0  0  0  0
  -30.8110  -17.7460   18.2490 C   0  0  0  0  0  3  0  0  0  0  0  0
  -30.4760  -20.1540   18.5680 C   0  0  0  0  0  3  0  0  0  0  0  0
  -28.9490  -18.5620   19.5900 C   0  0  0  0  0  3  0  0  0  0  0  0
  -29.6690  -17.4630   19.0250 C   0  0  0  0  0  0  0  0  0  0  0  0
  -29.3320  -19.9190   19.3630 C   0  0  0  0  0  0  0  0  0  0  0  0
  -28.5920  -20.9910   19.9320 N   0  0  0  0  0  0  0  0  0  0  0  0
  -27.7740  -20.7070   20.4640 H   0  0  0  0  0  0  0  0  0  0  0  0
  -28.4440  -22.2940   19.2400 C   0  0  0  0  0  2  0  0  0  0  0  0
  -28.2060  -23.5270   20.1770 C   0  0  0  0  0  2  0  0  0  0  0  0
  -27.7300  -24.7940   19.4040 C   0  0  0  0  0  2  0  0  0  0  0  0
  -27.7230  -26.0380   20.1620 O   0  0  0  0  0  0  0  0  0  0  0  0
  -24.4940  -31.6030   23.3090 C   0  0  0  0  0  0  0  0  0  0  0  0
  -26.6180  -26.8930   20.1480 C   0  0  0  0  0  0  0  0  0  0  0  0
  -23.1210  -30.3250   21.7050 C   0  0  0  0  0  3  0  0  0  0  0  0
  -24.3820  -28.6630   20.2410 C   0  0  0  0  0  0  0  0  0  0  0  0
  -25.6720  -30.4190   21.4560 C   0  0  0  0  0  2  0  0  0  0  0  0
  -25.6030  -29.0510   20.8020 C   0  0  0  0  0  0  0  0  0  0  0  0
  -26.7160  -28.1720   20.7620 C   0  0  0  0  0  3  0  0  0  0  0  0
  -25.3730  -26.5500   19.5620 C   0  0  0  0  0  3  0  0  0  0  0  0
  -24.2640  -27.4090   19.6260 C   0  0  0  0  0  3  0  0  0  0  0  0
  -23.2300  -29.6370   20.3210 C   0  0  0  0  0  2  0  0  0  0  0  0
  -24.4500  -30.7970   22.2110 N   0  0  0  0  0  0  0  0  0  0  0  0
  -23.4570  -31.9770   23.8760 O   0  0  0  0  0  0  0  0  0  0  0  0
  -22.4020  -29.3640   22.6800 C   0  0  0  0  0  0  0  0  0  0  0  0
  -21.0720  -29.2400   22.5330 N   0  0  0  0  0  0  0  0  0  0  0  0
  -23.0390  -28.7310   23.5260 O   0  0  0  0  0  0  0  0  0  0  0  0
  -20.6170  -29.7960   21.8230 H   0  0  0  0  0  0  0  0  0  0  0  0
  -17.6470  -28.1740   22.9580 C   0  0  0  0  0  0  0  0  0  0  0  0
  -20.2000  -28.3670   23.3180 C   0  0  0  0  0  3  0  0  0  0  0  0
  -20.2790  -26.9040   22.8210 C   0  0  0  0  0  2  0  0  0  0  0  0
  -19.2080  -26.5640   21.7810 C   0  0  0  0  0  2  0  0  0  0  0  0
  -17.8070  -26.7860   22.3600 C   0  0  0  0  0  2  0  0  0  0  0  0
  -18.7720  -28.9220   23.3940 C   0  0  0  0  0  0  0  0  0  0  0  0
  -18.5720  -30.2210   23.9080 C   0  0  0  0  0  3  0  0  0  0  0  0
  -17.2780  -30.7700   23.9940 C   0  0  0  0  0  3  0  0  0  0  0  0
  -16.1660  -30.0160   23.5790 C   0  0  0  0  0  3  0  0  0  0  0  0
  -16.3520  -28.7220   23.0640 C   0  0  0  0  0  3  0  0  0  0  0  0
  -25.8490  -32.1120   23.8900 C   0  0  0  0  0  3  0  0  0  0  0  0
  -25.6770  -33.5290   24.2380 N   0  0  0  0  0  0  0  0  0  0  0  0
  -26.0580  -34.5540   23.4650 C   0  0  0  0  0  0  0  0  0  0  0  0
  -26.6620  -34.4010   22.4000 O   0  0  0  0  0  0  0  0  0  0  0  0
  -25.1440  -33.7300   25.0710 H   0  0  0  0  0  0  0  0  0  0  0  0
  -24.4650  -36.4790   23.2090 C   0  0  0  0  0  1  0  0  0  0  0  0
  -25.7130  -35.9730   23.9500 C   0  0  0  0  0  3  0  0  0  0  0  0
  -27.9560  -36.6740   24.6590 C   0  0  0  0  0  1  0  0  0  0  0  0
  -26.8190  -36.9400   23.7810 N   0  0  0  0  0  0  0  0  0  0  0  0
  -26.4990  -37.8880   23.9570 H   0  0  0  0  0  0  0  0  0  0  0  0
  -26.3370  -31.2870   25.1440 C   0  0  1  0  0  0  0  0  0  0  0  0
  -25.2570  -31.1280   26.2400 C   0  0  0  0  0  1  0  0  0  0  0  0
  -26.7980  -29.8720   24.7260 C   0  0  0  0  0  1  0  0  0  0  0  0
  -27.5660  -31.9780   25.7780 C   0  0  0  0  0  1  0  0  0  0  0  0
  -29.1400  -16.0060   19.1090 C   0  0  0  0  0  2  0  0  0  0  0  0
  -30.1940  -13.9180   18.2010 C   0  0  0  0  0  0  0  0  0  0  0  0
  -29.3170  -11.8520   17.1530 C   0  0  0  0  0  2  0  0  0  0  0  0
  -28.0220  -12.1550   16.3730 C   0  0  0  0  0  2  0  0  0  0  0  0
  -26.8030  -12.0170   17.3010 C   0  0  0  0  0  2  0  0  0  0  0  0
  -26.9770  -12.8110   18.6200 C   0  0  0  0  0  3  0  0  0  0  0  0
  -28.3510  -12.5360   19.2730 C   0  0  0  0  0  2  0  0  0  0  0  0
  -29.4080  -12.8000   18.2810 N   0  0  0  0  0  0  0  0  0  0  0  0
  -30.9910  -14.0830   17.2730 O   0  0  0  0  0  0  0  0  0  0  0  0
  -30.0880  -14.8590   19.1780 N   0  0  0  0  0  0  0  0  0  0  0  0
  -33.1090  -14.9810   22.1560 C   0  0  0  0  0  3  0  0  0  0  0  0
  -33.2620  -15.7180   20.9660 C   0  0  0  0  0  3  0  0  0  0  0  0
  -31.9490  -14.2070   22.3580 C   0  0  0  0  0  3  0  0  0  0  0  0
  -32.2580  -15.6810   19.9790 C   0  0  0  0  0  3  0  0  0  0  0  0
  -30.9410  -14.1710   21.3740 C   0  0  0  0  0  3  0  0  0  0  0  0
  -31.0950  -14.9030   20.1760 C   0  0  0  0  0  0  0  0  0  0  0  0
  -25.0990  -13.4720   20.2480 C   0  0  0  0  0  0  0  0  0  0  0  0
  -24.1620  -12.7260   20.9170 C   0  0  0  0  0  0  0  0  0  0  0  0
  -24.4250  -11.3650   20.5750 C   0  0  0  0  0  0  0  0  0  0  0  0
  -25.8770  -12.5620   19.5490 N   0  0  0  0  0  0  0  0  0  0  0  0
  -25.5000  -11.2820   19.8010 N   0  0  0  0  0  0  0  0  0  0  0  0
  -23.6830  -10.1390   20.8980 C   0  0  0  0  0  0  0  0  0  0  0  0
  -24.2590   -9.1110   21.6750 C   0  0  0  0  0  3  0  0  0  0  0  0
  -23.5190   -7.9480   21.9850 C   0  0  0  0  0  3  0  0  0  0  0  0
  -22.1900   -7.8080   21.5220 C   0  0  0  0  0  0  0  0  0  0  0  0
  -21.6300   -8.8240   20.7290 C   0  0  0  0  0  3  0  0  0  0  0  0
  -22.3680   -9.9780   20.4160 C   0  0  0  0  0  3  0  0  0  0  0  0
  -21.4040   -6.7040   21.7530 O   0  0  0  0  0  0  0  0  0  0  0  0
  -21.4840   -5.9960   22.9250 C   0  0  0  0  0  0  0  0  0  0  0  0
  -21.2260   -6.5950   24.1770 C   0  0  0  0  0  3  0  0  0  0  0  0
  -21.2500   -5.8140   25.3490 C   0  0  0  0  0  3  0  0  0  0  0  0
  -21.5240   -4.4350   25.2740 C   0  0  0  0  0  0  0  0  0  0  0  0
  -21.7760   -3.8350   24.0270 C   0  0  0  0  0  3  0  0  0  0  0  0
  -21.7540   -4.6130   22.8560 C   0  0  0  0  0  0  0  0  0  0  0  0
  -21.9770   -4.0270   21.6550 F   0  0  0  0  0  0  0  0  0  0  0  0
  -21.5400   -3.6850   26.3980 F   0  0  0  0  0  0  0  0  0  0  0  0
  -23.0280  -13.2550   21.7450 C   0  0  0  0  0  0  0  0  0  0  0  0
  -22.6080  -12.5070   22.7600 N   0  0  0  0  0  0  0  0  0  0  0  0
  -22.5350  -14.3600   21.5250 O   0  0  0  0  0  0  0  0  0  0  0  0
  -23.0240  -11.6080   22.9520 H   0  0  0  0  0  0  0  0  0  0  0  0
  -21.8620  -12.8400   23.3540 H   0  0  0  0  0  0  0  0  0  0  0  0
  -25.3370  -14.8390   20.1540 N   0  0  0  0  0  0  0  0  0  0  0  0
  -24.7280  -15.5270   20.5800 H   0  0  0  0  0  0  0  0  0  0  0  0
  -26.0310  -15.2520   19.5460 H   0  0  0  0  0  0  0  0  0  0  0  0
  1  2  2  0
  1  3  1  0
  2  5  1  0
  3  6  2  0
  5 53  1  0
  5  4  2  0
  6  4  1  0
  6  7  1  0
  7  8  1  0
  9  7  1  0
  9 10  1  0
 11 12  1  0
 11 10  1  0
 13 24  2  0
 14 12  1  0
 14 19  1  0
 15 23  1  0
 15 25  1  0
 16 22  1  0
 16 18  1  0
 17 23  1  0
 18 17  1  0
 19 18  2  0
 20 21  1  0
 20 14  2  0
 21 16  2  0
 22 15  1  0
 23 13  1  0
 25 27  2  0
 26 25  1  0
 28 26  1  0
 29 38  2  0
 29 34  1  0
 30 26  1  0
 30 34  1  0
 31 30  1  0
 32 33  1  0
 32 31  1  0
 33 29  1  0
 34 35  2  0
 35 36  1  0
 37 36  2  0
 38 37  1  0
 39 13  1  0
 39 40  1  0
 39 49  1  0
 40 43  1  0
 41 45  1  0
 41 40  1  0
 42 41  2  0
 45 44  1  0
 47 45  1  0
 47 48  1  0
 47 46  1  0
 49 52  1  1
 49 50  1  0
 51 49  1  0
 53 62  1  0
 54 60  1  0
 54 62  1  0
 55 60  1  0
 56 55  1  0
 56 57  1  0
 58 57  1  0
 58 59  1  0
 58 72  1  0
 60 59  1  0
 61 54  2  0
 62 68  1  0
 63 65  1  0
 64 63  2  0
 66 68  2  0
 66 64  1  0
 67 65  2  0
 68 67  1  0
 69 70  2  0
 70 89  1  0
 71 74  1  0
 71 70  1  0
 72 73  1  0
 72 69  1  0
 73 71  2  0
 74 75  1  0
 75 76  2  0
 77 80  1  0
 77 76  1  0
 78 77  2  0
 79 78  1  0
 79 74  2  0
 80 81  1  0
 81 82  1  0
 82 83  2  0
 84 83  1  0
 84 88  1  0
 85 84  2  0
 86 81  2  0
 86 85  1  0
 87 86  1  0
 89 90  1  0
 90 92  1  0
 90 93  1  0
 91 89  2  0
 94 69  1  0
 94 95  1  0
 96 94  1  0
M  ISO  4  11 101  12 101  54 100  62 100
M  END
>  <TORSDO>  (8) 
F 22

>  <SCORE>  (8) 
0.329

>  <name>  (8) 
7

>  <ligand_id>  (8) 
7

>  <original_smiles>  (8) 
[H]c1c([H])c([H])c(N(C(=O)N2C([H])([H])C([H])([H])C([H])([H])C([H])(n3nc(-c4c([H])c([H])c(Oc5c([H])c([H])c(F)c([H])c5F)c([H])c4[H])c(C(=O)N([H])[H])c3N([H])[H])C2([H])[H])C([H])([H])c2c([H])c([H])c([H])c(N([H])C([H])([H])C([H])([H])C([H])([H])Oc3c([H])c([H])c4c(c3[H])C([H])([H])N(C(=O)C([H])(N([H])C(=O)C([H])(N([H])C([H])([H])[H])C([H])([H])[H])C(C([H])([H])[H])(C([H])([H])[H])C([H])([H])[H])C([H])(C(=O)N([H])C3([H])c5c([H])c([H])c([H])c([H])c5C([H])([H])C([H])([H])C3([H])[H])C4([H])[H])c2[H])c([H])c1[H]

>  <smiles>  (8) 
[H]c1c([H])c([H])c(N(C(=O)N2C([H])([H])C([H])([H])C([H])([H])C([H])(n3nc(-c4c([H])c([H])c(Oc5c([H])c([H])c(F)c([H])c5F)c([H])c4[H])c(C(=O)N([H])[H])c3N([H])[H])C2([H])[H])C([H])([H])c2c([H])c([H])c([H])c(N([H])C([H])([H])C([H])([H])C([H])([H])Oc3c([H])c([H])c4c(c3[H])C([H])([H])N(C(=O)C([H])(N([H])C(=O)C([H])(N([H])C([H])([H])[H])C([H])([H])[H])C(C([H])([H])[H])(C([H])([H])[H])C([H])([H])[H])C([H])(C(=O)N([H])C3([H])c5c([H])c([H])c([H])c([H])c5C([H])([H])C([H])([H])C3([H])[H])C4([H])[H])c2[H])c([H])c1[H]

$$$$
8:0:0
     RDKit          3D

 93101  0  0  1  0  0  0  0  0999 V2000
  -25.3840  -21.2160   19.7500 C   0  0  0  0  0  2  0  0  0  0  0  0
  -25.6090  -20.4580   18.4410 C   0  0  0  0  0  2  0  0  0  0  0  0
  -26.5750  -22.1470   20.0470 C   0  0  0  0  0  2  0  0  0  0  0  0
  -26.9090  -19.6210   18.5090 C   0  0  0  0  0  2  0  0  0  0  0  0
  -27.8820  -21.7520   19.3000 C   0  0  0  0  0  3  0  0  0  0  0  0
  -28.0020  -20.2510   19.3180 N   0  0  2  0  0  4  0  0  0  0  0  0
  -27.7920  -20.0160   20.2760 H   0  0  0  0  0  0  0  0  0  0  0  0
  -29.0550  -22.5590   19.8640 C   0  0  0  0  0  3  0  0  0  0  0  0
  -29.1620  -23.9090   19.8820 C   0  0  0  0  0  3  0  0  0  0  0  0
  -28.1400  -24.9280   19.3790 C   0  0  0  0  0  2  0  0  0  0  0  0
  -28.7430  -26.1570   18.6470 C   0  0  0  0  0  2  0  0  0  0  0  0
  -28.5970  -27.3940   19.3620 O   0  0  0  0  0  0  0  0  0  0  0  0
  -24.5020  -31.7400   23.2110 C   0  0  0  0  0  0  0  0  0  0  0  0
  -27.3590  -28.0020   19.4540 C   0  0  0  0  0  0  0  0  0  0  0  0
  -23.3470  -30.5010   21.4100 C   0  0  0  0  0  3  0  0  0  0  0  0
  -24.8570  -29.3050   19.7400 C   0  0  0  0  0  0  0  0  0  0  0  0
  -25.8310  -31.0800   21.2070 C   0  0  0  0  0  2  0  0  0  0  0  0
  -25.9930  -29.8250   20.3730 C   0  0  0  0  0  0  0  0  0  0  0  0
  -27.2430  -29.1810   20.2290 C   0  0  0  0  0  3  0  0  0  0  0  0
  -26.1990  -27.4980   18.8170 C   0  0  0  0  0  3  0  0  0  0  0  0
  -24.9560  -28.1400   18.9600 C   0  0  0  0  0  3  0  0  0  0  0  0
  -23.5570  -30.0490   19.9400 C   0  0  0  0  0  2  0  0  0  0  0  0
  -24.5790  -31.1140   22.0020 N   0  0  0  0  0  0  0  0  0  0  0  0
  -23.4210  -31.8440   23.8080 O   0  0  0  0  0  0  0  0  0  0  0  0
  -22.8070  -29.3020   22.2240 C   0  0  0  0  0  0  0  0  0  0  0  0
  -21.5080  -29.0030   22.0580 N   0  0  0  0  0  0  0  0  0  0  0  0
  -23.5520  -28.6510   22.9600 O   0  0  0  0  0  0  0  0  0  0  0  0
  -20.9630  -29.5930   21.4460 H   0  0  0  0  0  0  0  0  0  0  0  0
  -18.2970  -27.3660   22.2960 C   0  0  0  0  0  0  0  0  0  0  0  0
  -20.7950  -27.8950   22.6910 C   0  0  0  0  0  3  0  0  0  0  0  0
  -21.0890  -26.5600   21.9690 C   0  0  0  0  0  2  0  0  0  0  0  0
  -20.0590  -26.2160   20.8890 C   0  0  0  0  0  2  0  0  0  0  0  0
  -18.6540  -26.1290   21.4910 C   0  0  0  0  0  2  0  0  0  0  0  0
  -19.3020  -28.2030   22.8480 C   0  0  0  0  0  0  0  0  0  0  0  0
  -18.9160  -29.3590   23.5600 C   0  0  0  0  0  3  0  0  0  0  0  0
  -17.5550  -29.6810   23.7270 C   0  0  0  0  0  3  0  0  0  0  0  0
  -16.5650  -28.8400   23.1920 C   0  0  0  0  0  3  0  0  0  0  0  0
  -16.9350  -27.6840   22.4820 C   0  0  0  0  0  3  0  0  0  0  0  0
  -25.7570  -32.3740   23.8860 C   0  0  0  0  0  3  0  0  0  0  0  0
  -25.4140  -33.7570   24.2440 N   0  0  0  0  0  0  0  0  0  0  0  0
  -25.7510  -34.8350   23.5230 C   0  0  0  0  0  0  0  0  0  0  0  0
  -26.4550  -34.7680   22.5120 O   0  0  0  0  0  0  0  0  0  0  0  0
  -24.7930  -33.8790   25.0300 H   0  0  0  0  0  0  0  0  0  0  0  0
  -23.9950  -36.5980   23.1700 C   0  0  0  0  0  1  0  0  0  0  0  0
  -25.2250  -36.2010   24.0010 C   0  0  0  0  0  3  0  0  0  0  0  0
  -27.3150  -37.1160   24.9110 C   0  0  0  0  0  1  0  0  0  0  0  0
  -26.2400  -37.2760   23.9360 N   0  0  0  0  0  0  0  0  0  0  0  0
  -25.8100  -38.1850   24.0850 H   0  0  0  0  0  0  0  0  0  0  0  0
  -26.2530  -31.5740   25.1530 C   0  0  1  0  0  0  0  0  0  0  0  0
  -25.1390  -31.2930   26.1870 C   0  0  0  0  0  1  0  0  0  0  0  0
  -26.8600  -30.2140   24.7350 C   0  0  0  0  0  1  0  0  0  0  0  0
  -27.3790  -32.3620   25.8620 C   0  0  0  0  0  1  0  0  0  0  0  0
  -29.3370  -19.6140   19.0720 C   0  0  0  0  0  2  0  0  0  0  0  0
  -29.3650  -18.1130   19.4970 C   0  0  0  0  0  2  0  0  0  0  0  0
  -30.7660  -17.4660   19.6490 C   0  0  0  0  0  2  0  0  0  0  0  0
  -31.4130  -15.0350   19.7460 C   0  0  0  0  0  0  0  0  0  0  0  0
  -31.1780  -12.6860   19.0430 C   0  0  0  0  0  2  0  0  0  0  0  0
  -30.1930  -12.6380   17.8530 C   0  0  0  0  0  2  0  0  0  0  0  0
  -28.7350  -12.5570   18.3510 C   0  0  0  0  0  2  0  0  0  0  0  0
  -28.4120  -13.6230   19.4300 C   0  0  0  0  0  3  0  0  0  0  0  0
  -29.4950  -13.6100   20.5330 C   0  0  0  0  0  2  0  0  0  0  0  0
  -30.8020  -13.8300   19.8850 N   0  0  0  0  0  0  0  0  0  0  0  0
  -32.5030  -15.1900   19.1880 O   0  0  0  0  0  0  0  0  0  0  0  0
  -30.6380  -16.0740   20.0950 N   0  0  0  0  0  0  0  0  0  0  0  0
  -29.7790  -15.8220   20.5640 H   0  0  0  0  0  0  0  0  0  0  0  0
  -26.1300  -14.3840   20.3500 C   0  0  0  0  0  0  0  0  0  0  0  0
  -25.0270  -13.6780   20.7480 C   0  0  0  0  0  0  0  0  0  0  0  0
  -25.3600  -12.3000   20.5860 C   0  0  0  0  0  0  0  0  0  0  0  0
  -27.0730  -13.4370   19.9830 N   0  0  0  0  0  0  0  0  0  0  0  0
  -26.6170  -12.1740   20.1800 N   0  0  0  0  0  0  0  0  0  0  0  0
  -24.5420  -11.0920   20.7430 C   0  0  0  0  0  0  0  0  0  0  0  0
  -24.8770  -10.0910   21.6820 C   0  0  0  0  0  3  0  0  0  0  0  0
  -24.0660   -8.9460   21.8260 C   0  0  0  0  0  3  0  0  0  0  0  0
  -22.9060   -8.7920   21.0310 C   0  0  0  0  0  0  0  0  0  0  0  0
  -22.5890   -9.7800   20.0830 C   0  0  0  0  0  3  0  0  0  0  0  0
  -23.3990  -10.9180   19.9350 C   0  0  0  0  0  3  0  0  0  0  0  0
  -22.0720   -7.7020   21.0850 O   0  0  0  0  0  0  0  0  0  0  0  0
  -21.8100   -7.0550   22.2650 C   0  0  0  0  0  0  0  0  0  0  0  0
  -21.2040   -7.7140   23.3580 C   0  0  0  0  0  3  0  0  0  0  0  0
  -20.8880   -6.9930   24.5270 C   0  0  0  0  0  3  0  0  0  0  0  0
  -21.1670   -5.6160   24.6030 C   0  0  0  0  0  0  0  0  0  0  0  0
  -21.7660   -4.9580   23.5140 C   0  0  0  0  0  3  0  0  0  0  0  0
  -22.0830   -5.6750   22.3480 C   0  0  0  0  0  0  0  0  0  0  0  0
  -22.6400   -5.0310   21.2940 F   0  0  0  0  0  0  0  0  0  0  0  0
  -20.8560   -4.9210   25.7230 F   0  0  0  0  0  0  0  0  0  0  0  0
  -23.6990  -14.2490   21.1600 C   0  0  0  0  0  0  0  0  0  0  0  0
  -22.9830  -13.5540   22.0380 N   0  0  0  0  0  0  0  0  0  0  0  0
  -23.3130  -15.3380   20.7410 O   0  0  0  0  0  0  0  0  0  0  0  0
  -23.3070  -12.6690   22.3950 H   0  0  0  0  0  0  0  0  0  0  0  0
  -22.0960  -13.9160   22.3580 H   0  0  0  0  0  0  0  0  0  0  0  0
  -26.4010  -15.7440   20.2500 N   0  0  0  0  0  0  0  0  0  0  0  0
  -25.6800  -16.4370   20.4200 H   0  0  0  0  0  0  0  0  0  0  0  0
  -27.2160  -16.1140   19.7810 H   0  0  0  0  0  0  0  0  0  0  0  0
  1  3  1  0
  2  4  1  0
  2  1  1  0
  4  6  1  0
  5  6  1  0
  5  8  1  0
  5  3  1  0
  6  7  1  1
  8  9  2  0
 10  9  1  0
 11 12  1  0
 11 10  1  0
 12 14  1  0
 13 24  2  0
 14 19  1  0
 15 23  1  0
 15 25  1  0
 16 22  1  0
 16 18  1  0
 17 23  1  0
 18 17  1  0
 19 18  2  0
 20 21  1  0
 20 14  2  0
 21 16  2  0
 22 15  1  0
 23 13  1  0
 25 27  2  0
 26 25  1  0
 28 26  1  0
 29 38  2  0
 29 34  1  0
 30 26  1  0
 30 34  1  0
 31 30  1  0
 32 33  1  0
 32 31  1  0
 33 29  1  0
 34 35  2  0
 35 36  1  0
 37 36  2  0
 38 37  1  0
 39 13  1  0
 39 40  1  0
 39 49  1  0
 40 43  1  0
 41 45  1  0
 41 40  1  0
 42 41  2  0
 45 44  1  0
 47 45  1  0
 47 48  1  0
 47 46  1  0
 49 52  1  1
 49 50  1  0
 51 49  1  0
 53  6  1  0
 53 54  1  0
 54 55  1  0
 55 64  1  0
 56 62  1  0
 56 64  1  0
 57 62  1  0
 58 59  1  0
 58 57  1  0
 60 59  1  0
 60 69  1  0
 60 61  1  0
 62 61  1  0
 63 56  2  0
 64 65  1  0
 66 67  2  0
 67 86  1  0
 68 71  1  0
 68 67  1  0
 69 70  1  0
 69 66  1  0
 70 68  2  0
 71 72  1  0
 72 73  2  0
 74 77  1  0
 74 73  1  0
 75 74  2  0
 76 75  1  0
 76 71  2  0
 77 78  1  0
 78 83  2  0
 78 79  1  0
 79 80  2  0
 80 81  1  0
 81 85  1  0
 82 81  2  0
 83 82  1  0
 84 83  1  0
 86 87  1  0
 87 90  1  0
 87 89  1  0
 88 86  2  0
 91 66  1  0
 91 92  1  0
 93 91  1  0
M  ISO  4  11 101  12 101  56 100  64 100
M  END
>  <TORSDO>  (9) 
F 22

>  <SCORE>  (9) 
-9.327

>  <name>  (9) 
8

>  <ligand_id>  (9) 
8

>  <original_smiles>  (9) 
[H]C(=C([H])C1([H])C([H])([H])C([H])([H])C([H])([H])C([H])([H])[N+]1([H])C([H])([H])C([H])([H])C([H])([H])N([H])C(=O)N1C([H])([H])C([H])([H])C([H])([H])C([H])(n2nc(-c3c([H])c([H])c(Oc4c([H])c([H])c(F)c([H])c4F)c([H])c3[H])c(C(=O)N([H])[H])c2N([H])[H])C1([H])[H])C([H])([H])C([H])([H])Oc1c([H])c([H])c2c(c1[H])C([H])([H])N(C(=O)C([H])(N([H])C(=O)C([H])(N([H])C([H])([H])[H])C([H])([H])[H])C(C([H])([H])[H])(C([H])([H])[H])C([H])([H])[H])C([H])(C(=O)N([H])C1([H])c3c([H])c([H])c([H])c([H])c3C([H])([H])C([H])([H])C1([H])[H])C2([H])[H]

>  <smiles>  (9) 
[H]C(=C([H])C1([H])C([H])([H])C([H])([H])C([H])([H])C([H])([H])[N+]1([H])C([H])([H])C([H])([H])C([H])([H])N([H])C(=O)N1C([H])([H])C([H])([H])C([H])([H])C([H])(n2nc(-c3c([H])c([H])c(Oc4c([H])c([H])c(F)c([H])c4F)c([H])c3[H])c(C(=O)N([H])[H])c2N([H])[H])C1([H])[H])C([H])([H])C([H])([H])Oc1c([H])c([H])c2c(c1[H])C([H])([H])N(C(=O)C([H])(N([H])C(=O)C([H])(N([H])C([H])([H])[H])C([H])([H])[H])C(C([H])([H])[H])(C([H])([H])[H])C([H])([H])[H])C([H])(C(=O)N([H])C1([H])c3c([H])c([H])c([H])c([H])c3C([H])([H])C([H])([H])C1([H])[H])C2([H])[H]

$$$$
9:0:0
     RDKit          3D

 91100  0  0  1  0  0  0  0  0999 V2000
  -30.7170  -14.6790   20.3820 C   0  0  0  0  0  0  0  0  0  0  0  0
  -30.5020  -12.4150   19.3670 C   0  0  0  0  0  2  0  0  0  0  0  0
  -29.5780  -12.4640   18.1330 C   0  0  0  0  0  2  0  0  0  0  0  0
  -28.0980  -12.3100   18.5410 C   0  0  0  0  0  2  0  0  0  0  0  0
  -27.7130  -13.1980   19.7570 C   0  0  0  0  0  3  0  0  0  0  0  0
  -28.7640  -13.0560   20.8790 C   0  0  0  0  0  2  0  0  0  0  0  0
  -30.0450  -13.4750   20.2970 N   0  0  0  0  0  0  0  0  0  0  0  0
  -31.9130  -14.6920   20.0680 O   0  0  0  0  0  0  0  0  0  0  0  0
  -30.8400  -19.6740   19.4280 C   0  0  0  0  0  2  0  0  0  0  0  0
  -30.3010  -20.9910   19.5220 C   0  0  0  0  0  3  0  0  0  0  0  0
  -28.3460  -20.0740   20.5950 C   0  0  0  0  0  3  0  0  0  0  0  0
  -30.1440  -18.5330   19.9140 C   0  0  0  0  0  0  0  0  0  0  0  0
  -28.8850  -18.7520   20.4940 C   0  0  0  0  0  0  0  0  0  0  0  0
  -29.0360  -21.2270   20.1160 C   0  0  0  0  0  0  0  0  0  0  0  0
  -28.1220  -17.5280   20.9690 C   0  0  0  0  0  3  0  0  0  0  0  0
  -30.7490  -17.1010   19.8060 C   0  0  0  0  0  3  0  0  0  0  0  0
  -29.0110  -16.3190   21.3860 C   0  0  0  0  0  3  0  0  0  0  0  0
  -30.0420  -15.9050   20.4020 N   0  0  0  0  0  0  0  0  0  0  0  0
  -25.2970  -13.7870   20.3910 C   0  0  0  0  0  0  0  0  0  0  0  0
  -24.2320  -13.0140   20.7650 C   0  0  0  0  0  0  0  0  0  0  0  0
  -24.7120  -11.6690   20.7950 C   0  0  0  0  0  0  0  0  0  0  0  0
  -26.3590  -12.9140   20.2220 N   0  0  0  0  0  0  0  0  0  0  0  0
  -26.0110  -11.6370   20.5220 N   0  0  0  0  0  0  0  0  0  0  0  0
  -23.9970  -10.4050   21.0130 C   0  0  0  0  0  0  0  0  0  0  0  0
  -24.4290   -9.4710   21.9800 C   0  0  0  0  0  3  0  0  0  0  0  0
  -23.7130   -8.2710   22.1860 C   0  0  0  0  0  3  0  0  0  0  0  0
  -22.5520   -7.9990   21.4240 C   0  0  0  0  0  0  0  0  0  0  0  0
  -22.1400   -8.9220   20.4470 C   0  0  0  0  0  3  0  0  0  0  0  0
  -22.8570  -10.1120   20.2390 C   0  0  0  0  0  3  0  0  0  0  0  0
  -21.8080   -6.8500   21.5370 O   0  0  0  0  0  0  0  0  0  0  0  0
  -21.7550   -6.1390   22.7090 C   0  0  0  0  0  0  0  0  0  0  0  0
  -21.3210   -6.7270   23.9190 C   0  0  0  0  0  3  0  0  0  0  0  0
  -21.2160   -5.9420   25.0840 C   0  0  0  0  0  3  0  0  0  0  0  0
  -21.5340   -4.5720   25.0430 C   0  0  0  0  0  0  0  0  0  0  0  0
  -21.9610   -3.9840   23.8390 C   0  0  0  0  0  3  0  0  0  0  0  0
  -22.0680   -4.7650   22.6750 C   0  0  0  0  0  0  0  0  0  0  0  0
  -22.4600   -4.1890   21.5130 F   0  0  0  0  0  0  0  0  0  0  0  0
  -21.4260   -3.8160   26.1600 F   0  0  0  0  0  0  0  0  0  0  0  0
  -22.8230  -13.4820   20.9830 C   0  0  0  0  0  0  0  0  0  0  0  0
  -22.0870  -12.8190   21.8680 N   0  0  0  0  0  0  0  0  0  0  0  0
  -22.3820  -14.4750   20.4050 O   0  0  0  0  0  0  0  0  0  0  0  0
  -22.4560  -12.0180   22.3570 H   0  0  0  0  0  0  0  0  0  0  0  0
  -21.1400  -13.1170   22.0570 H   0  0  0  0  0  0  0  0  0  0  0  0
  -25.4450  -15.1510   20.1590 N   0  0  0  0  0  0  0  0  0  0  0  0
  -24.6620  -15.7930   20.2060 H   0  0  0  0  0  0  0  0  0  0  0  0
  -26.2880  -15.5750   19.7980 H   0  0  0  0  0  0  0  0  0  0  0  0
  -28.4430  -22.5240   20.2610 N   0  0  0  0  0  0  0  0  0  0  0  0
  -27.5360  -22.5530   20.7200 H   0  0  0  0  0  0  0  0  0  0  0  0
  -28.9120  -23.8390   19.7160 C   0  0  0  0  0  2  0  0  0  0  0  0
  -28.0890  -25.0940   20.2580 C   0  0  0  0  0  2  0  0  0  0  0  0
  -28.2860  -26.4490   19.6950 O   0  0  0  0  0  0  0  0  0  0  0  0
  -24.6910  -31.7290   23.0630 C   0  0  0  0  0  0  0  0  0  0  0  0
  -27.1800  -27.3080   19.7370 C   0  0  0  0  0  0  0  0  0  0  0  0
  -23.4270  -30.4040   21.4060 C   0  0  0  0  0  3  0  0  0  0  0  0
  -24.8230  -28.9140   19.8690 C   0  0  0  0  0  0  0  0  0  0  0  0
  -25.9580  -30.7270   21.1510 C   0  0  0  0  0  2  0  0  0  0  0  0
  -26.0120  -29.3780   20.4480 C   0  0  0  0  0  0  0  0  0  0  0  0
  -27.1960  -28.5860   20.3730 C   0  0  0  0  0  3  0  0  0  0  0  0
  -25.9740  -26.9050   19.1220 C   0  0  0  0  0  3  0  0  0  0  0  0
  -24.8050  -27.6830   19.1960 C   0  0  0  0  0  3  0  0  0  0  0  0
  -23.5910  -29.7860   19.9930 C   0  0  0  0  0  2  0  0  0  0  0  0
  -24.7120  -30.9680   21.9310 N   0  0  0  0  0  0  0  0  0  0  0  0
  -23.6280  -31.9880   23.6440 O   0  0  0  0  0  0  0  0  0  0  0  0
  -22.7920  -29.3510   22.3440 C   0  0  0  0  0  0  0  0  0  0  0  0
  -21.4620  -29.1830   22.2540 N   0  0  0  0  0  0  0  0  0  0  0  0
  -23.4940  -28.6870   23.1120 O   0  0  0  0  0  0  0  0  0  0  0  0
  -20.9530  -29.7710   21.6080 H   0  0  0  0  0  0  0  0  0  0  0  0
  -18.0950  -27.9900   22.8210 C   0  0  0  0  0  0  0  0  0  0  0  0
  -20.6630  -28.2190   23.0120 C   0  0  0  0  0  3  0  0  0  0  0  0
  -20.7330  -26.8130   22.3720 C   0  0  0  0  0  2  0  0  0  0  0  0
  -19.5930  -26.5430   21.3840 C   0  0  0  0  0  2  0  0  0  0  0  0
  -18.2360  -26.6700   22.0820 C   0  0  0  0  0  2  0  0  0  0  0  0
  -19.2350  -28.7250   23.2430 C   0  0  0  0  0  0  0  0  0  0  0  0
  -19.0470  -29.9630   23.8970 C   0  0  0  0  0  3  0  0  0  0  0  0
  -17.7530  -30.4660   24.1290 C   0  0  0  0  0  3  0  0  0  0  0  0
  -16.6290  -29.7270   23.7220 C   0  0  0  0  0  3  0  0  0  0  0  0
  -16.8000  -28.4910   23.0740 C   0  0  0  0  0  3  0  0  0  0  0  0
  -25.9970  -32.3300   23.6670 C   0  0  0  0  0  3  0  0  0  0  0  0
  -25.6900  -33.6930   24.1230 N   0  0  0  0  0  0  0  0  0  0  0  0
  -25.9680  -34.8070   23.4330 C   0  0  0  0  0  0  0  0  0  0  0  0
  -26.5810  -34.7960   22.3620 O   0  0  0  0  0  0  0  0  0  0  0  0
  -25.1400  -33.7740   24.9650 H   0  0  0  0  0  0  0  0  0  0  0  0
  -24.2000  -36.5940   23.3170 C   0  0  0  0  0  1  0  0  0  0  0  0
  -25.4900  -36.1480   24.0250 C   0  0  0  0  0  3  0  0  0  0  0  0
  -27.6580  -36.9990   24.8020 C   0  0  0  0  0  1  0  0  0  0  0  0
  -26.5010  -37.2230   23.9390 N   0  0  0  0  0  0  0  0  0  0  0  0
  -26.0940  -38.1210   24.1820 H   0  0  0  0  0  0  0  0  0  0  0  0
  -26.5880  -31.4690   24.8500 C   0  0  1  0  0  0  0  0  0  0  0  0
  -25.5550  -31.1350   25.9520 C   0  0  0  0  0  1  0  0  0  0  0  0
  -27.1590  -30.1320   24.3210 C   0  0  0  0  0  1  0  0  0  0  0  0
  -27.7670  -32.2210   25.5100 C   0  0  0  0  0  1  0  0  0  0  0  0
  1 18  1  0
  2  7  1  0
  3  4  1  0
  3  2  1  0
  5  4  1  0
  5 22  1  0
  5  6  1  0
  7  1  1  0
  7  6  1  0
  8  1  2  0
  9 10  1  0
  9 12  1  0
 10 14  2  0
 12 13  1  0
 13 11  2  0
 13 15  1  0
 14 47  1  0
 14 11  1  0
 15 17  2  0
 16 12  2  0
 16 18  1  0
 18 17  1  0
 19 20  2  0
 20 21  1  0
 20 39  1  0
 21 24  1  0
 22 19  1  0
 22 23  1  0
 23 21  2  0
 24 25  1  0
 25 26  2  0
 27 30  1  0
 27 26  1  0
 28 27  2  0
 29 28  1  0
 29 24  2  0
 30 31  1  0
 31 32  1  0
 32 33  2  0
 34 33  1  0
 34 38  1  0
 35 34  2  0
 36 31  2  0
 36 35  1  0
 37 36  1  0
 39 40  1  0
 40 43  1  0
 40 42  1  0
 41 39  2  0
 44 45  1  0
 44 19  1  0
 46 44  1  0
 47 48  1  0
 49 50  1  0
 49 47  1  0
 51 53  1  0
 51 50  1  0
 52 63  2  0
 53 58  1  0
 54 62  1  0
 54 64  1  0
 55 61  1  0
 55 57  1  0
 56 62  1  0
 57 56  1  0
 58 57  2  0
 59 60  1  0
 59 53  2  0
 60 55  2  0
 61 54  1  0
 62 52  1  0
 64 66  2  0
 65 64  1  0
 67 65  1  0
 68 77  2  0
 68 73  1  0
 69 65  1  0
 69 73  1  0
 70 69  1  0
 71 72  1  0
 71 70  1  0
 72 68  1  0
 73 74  2  0
 74 75  1  0
 76 75  2  0
 77 76  1  0
 78 52  1  0
 78 79  1  0
 78 88  1  0
 79 82  1  0
 80 84  1  0
 80 79  1  0
 81 80  2  0
 84 83  1  0
 86 84  1  0
 86 87  1  0
 86 85  1  0
 88 91  1  1
 88 89  1  0
 90 88  1  0
M  ISO  4   1 100  18 100  50 101  51 101
M  END
>  <TORSDO>  (10) 
F 18

>  <SCORE>  (10) 
-13.395

>  <name>  (10) 
9

>  <ligand_id>  (10) 
9

>  <original_smiles>  (10) 
[H]c1c([H])c([H])c2c(c1[H])C([H])([H])C([H])([H])C([H])([H])C2([H])N([H])C(=O)C1([H])N(C(=O)C([H])(N([H])C(=O)C([H])(N([H])C([H])([H])[H])C([H])([H])[H])C(C([H])([H])[H])(C([H])([H])[H])C([H])([H])[H])C([H])([H])c2c([H])c(OC([H])([H])C([H])([H])N([H])c3c([H])c([H])c4c(c3[H])C([H])([H])C([H])([H])N(C(=O)N3C([H])([H])C([H])([H])C([H])([H])C([H])(n5nc(-c6c([H])c([H])c(Oc7c([H])c([H])c(F)c([H])c7F)c([H])c6[H])c(C(=O)N([H])[H])c5N([H])[H])C3([H])[H])C4([H])[H])c([H])c([H])c2C1([H])[H]

>  <smiles>  (10) 
[H]c1c([H])c([H])c2c(c1[H])C([H])([H])C([H])([H])C([H])([H])C2([H])N([H])C(=O)C1([H])N(C(=O)C([H])(N([H])C(=O)C([H])(N([H])C([H])([H])[H])C([H])([H])[H])C(C([H])([H])[H])(C([H])([H])[H])C([H])([H])[H])C([H])([H])c2c([H])c(OC([H])([H])C([H])([H])N([H])c3c([H])c([H])c4c(c3[H])C([H])([H])C([H])([H])N(C(=O)N3C([H])([H])C([H])([H])C([H])([H])C([H])(n5nc(-c6c([H])c([H])c(Oc7c([H])c([H])c(F)c([H])c7F)c([H])c6[H])c(C(=O)N([H])[H])c5N([H])[H])C3([H])[H])C4([H])[H])c([H])c([H])c2C1([H])[H]

$$$$
10:0:0
     RDKit          3D

 88 95  0  0  1  0  0  0  0  0999 V2000
  -28.8640  -22.4130   20.0990 C   0  0  0  0  0  3  0  0  0  0  0  0
  -27.5310  -22.0460   20.7200 C   0  0  0  0  0  1  0  0  0  0  0  0
  -29.8420  -21.5430   19.9550 N   0  0  0  0  0  2  0  0  0  0  0  0
  -29.7800  -20.2570   22.1710 C   0  0  0  0  0  1  0  0  0  0  0  0
  -30.0920  -20.2070   20.6590 C   0  0  0  0  0  3  0  0  0  0  0  0
  -29.6800  -18.7880   20.0040 C   0  0  0  0  0  3  0  0  0  0  0  0
  -30.5870  -17.5100   20.4200 C   0  0  0  0  0  3  0  0  0  0  0  0
  -30.9030  -14.9530   19.9130 C   0  0  0  0  0  0  0  0  0  0  0  0
  -30.6330  -12.6980   18.8800 C   0  0  0  0  0  2  0  0  0  0  0  0
  -29.6410  -12.8050   17.7010 C   0  0  0  0  0  2  0  0  0  0  0  0
  -28.1860  -12.6540   18.1910 C   0  0  0  0  0  2  0  0  0  0  0  0
  -27.8830  -13.5380   19.4290 C   0  0  0  0  0  3  0  0  0  0  0  0
  -28.9830  -13.4090   20.5020 C   0  0  0  0  0  2  0  0  0  0  0  0
  -30.2590  -13.7400   19.8570 N   0  0  0  0  0  0  0  0  0  0  0  0
  -32.0800  -15.0520   19.5590 O   0  0  0  0  0  0  0  0  0  0  0  0
  -30.1400  -16.0730   20.1850 N   0  0  0  0  0  0  0  0  0  0  0  0
  -29.1670  -15.8840   20.3770 H   0  0  0  0  0  0  0  0  0  0  0  0
  -25.5420  -14.1750   20.2640 C   0  0  0  0  0  0  0  0  0  0  0  0
  -24.4800  -13.4190   20.6810 C   0  0  0  0  0  0  0  0  0  0  0  0
  -24.9150  -12.0600   20.6250 C   0  0  0  0  0  0  0  0  0  0  0  0
  -26.5560  -13.2750   19.9780 N   0  0  0  0  0  0  0  0  0  0  0  0
  -26.1900  -11.9980   20.2600 N   0  0  0  0  0  0  0  0  0  0  0  0
  -24.1750  -10.8100   20.8420 C   0  0  0  0  0  0  0  0  0  0  0  0
  -24.5910   -9.8620   21.8030 C   0  0  0  0  0  3  0  0  0  0  0  0
  -23.8530   -8.6760   22.0050 C   0  0  0  0  0  3  0  0  0  0  0  0
  -22.6850   -8.4300   21.2460 C   0  0  0  0  0  0  0  0  0  0  0  0
  -22.2880   -9.3640   20.2740 C   0  0  0  0  0  3  0  0  0  0  0  0
  -23.0260  -10.5430   20.0710 C   0  0  0  0  0  3  0  0  0  0  0  0
  -21.9160   -7.2970   21.3590 O   0  0  0  0  0  0  0  0  0  0  0  0
  -21.8000   -6.6200   22.5460 C   0  0  0  0  0  0  0  0  0  0  0  0
  -21.2850   -7.2330   23.7090 C   0  0  0  0  0  3  0  0  0  0  0  0
  -21.1210   -6.4790   24.8870 C   0  0  0  0  0  3  0  0  0  0  0  0
  -21.4610   -5.1140   24.9040 C   0  0  0  0  0  0  0  0  0  0  0  0
  -21.9700   -4.5010   23.7460 C   0  0  0  0  0  3  0  0  0  0  0  0
  -22.1380   -5.2510   22.5690 C   0  0  0  0  0  0  0  0  0  0  0  0
  -22.6100   -4.6510   21.4490 F   0  0  0  0  0  0  0  0  0  0  0  0
  -21.2950   -4.3860   26.0340 F   0  0  0  0  0  0  0  0  0  0  0  0
  -23.1050  -13.9220   21.0130 C   0  0  0  0  0  0  0  0  0  0  0  0
  -22.4040  -13.2380   21.9110 N   0  0  0  0  0  0  0  0  0  0  0  0
  -22.6620  -14.9520   20.5080 O   0  0  0  0  0  0  0  0  0  0  0  0
  -22.7760  -12.4010   22.3350 H   0  0  0  0  0  0  0  0  0  0  0  0
  -21.4800  -13.5540   22.1710 H   0  0  0  0  0  0  0  0  0  0  0  0
  -25.7220  -15.5400   20.0820 N   0  0  0  0  0  0  0  0  0  0  0  0
  -24.9550  -16.1950   20.1880 H   0  0  0  0  0  0  0  0  0  0  0  0
  -26.5390  -15.9580   19.6530 H   0  0  0  0  0  0  0  0  0  0  0  0
  -28.9300  -23.9310   19.5760 C   0  0  0  0  0  3  0  0  0  0  0  0
  -28.1670  -25.1150   20.3700 C   0  0  0  0  0  3  0  0  0  0  0  0
  -28.3960  -26.5730   20.0690 O   0  0  0  0  0  0  0  0  0  0  0  0
  -24.6130  -31.9170   23.2340 C   0  0  0  0  0  0  0  0  0  0  0  0
  -27.2850  -27.4420   20.0750 C   0  0  0  0  0  0  0  0  0  0  0  0
  -23.4300  -30.5300   21.5710 C   0  0  0  0  0  3  0  0  0  0  0  0
  -24.9030  -29.0360   20.1060 C   0  0  0  0  0  0  0  0  0  0  0  0
  -25.9660  -30.8930   21.3840 C   0  0  0  0  0  2  0  0  0  0  0  0
  -26.0680  -29.5260   20.7110 C   0  0  0  0  0  0  0  0  0  0  0  0
  -27.2660  -28.7420   20.6820 C   0  0  0  0  0  3  0  0  0  0  0  0
  -26.1000  -27.0260   19.4320 C   0  0  0  0  0  3  0  0  0  0  0  0
  -24.9240  -27.7950   19.4530 C   0  0  0  0  0  3  0  0  0  0  0  0
  -23.6530  -29.8920   20.1750 C   0  0  0  0  0  2  0  0  0  0  0  0
  -24.6890  -31.1310   22.1190 N   0  0  0  0  0  0  0  0  0  0  0  0
  -23.5260  -32.1610   23.7790 O   0  0  0  0  0  0  0  0  0  0  0  0
  -22.7920  -29.4780   22.5110 C   0  0  0  0  0  0  0  0  0  0  0  0
  -21.4770  -29.2450   22.3570 N   0  0  0  0  0  0  0  0  0  0  0  0
  -23.4790  -28.8770   23.3420 O   0  0  0  0  0  0  0  0  0  0  0  0
  -20.9790  -29.7850   21.6630 H   0  0  0  0  0  0  0  0  0  0  0  0
  -18.1530  -27.8660   22.7460 C   0  0  0  0  0  0  0  0  0  0  0  0
  -20.6830  -28.2690   23.1060 C   0  0  0  0  0  3  0  0  0  0  0  0
  -20.8840  -26.8410   22.5480 C   0  0  0  0  0  2  0  0  0  0  0  0
  -19.8390  -26.4500   21.4980 C   0  0  0  0  0  2  0  0  0  0  0  0
  -18.4300  -26.5230   22.0900 C   0  0  0  0  0  2  0  0  0  0  0  0
  -19.2120  -28.6920   23.2080 C   0  0  0  0  0  0  0  0  0  0  0  0
  -18.9020  -29.9450   23.7790 C   0  0  0  0  0  3  0  0  0  0  0  0
  -17.5660  -30.3740   23.8930 C   0  0  0  0  0  3  0  0  0  0  0  0
  -16.5220  -29.5460   23.4470 C   0  0  0  0  0  3  0  0  0  0  0  0
  -16.8160  -28.2940   22.8790 C   0  0  0  0  0  3  0  0  0  0  0  0
  -25.8850  -32.5640   23.8630 C   0  0  0  0  0  3  0  0  0  0  0  0
  -25.5660  -33.9670   24.1660 N   0  0  0  0  0  0  0  0  0  0  0  0
  -25.9170  -35.0090   23.4020 C   0  0  0  0  0  0  0  0  0  0  0  0
  -26.6130  -34.8910   22.3880 O   0  0  0  0  0  0  0  0  0  0  0  0
  -24.9560  -34.1330   24.9530 H   0  0  0  0  0  0  0  0  0  0  0  0
  -24.2050  -36.8020   22.9700 C   0  0  0  0  0  1  0  0  0  0  0  0
  -25.4200  -36.4050   23.8260 C   0  0  0  0  0  3  0  0  0  0  0  0
  -27.5250  -37.2990   24.7180 C   0  0  0  0  0  1  0  0  0  0  0  0
  -26.4580  -37.4540   23.7330 N   0  0  0  0  0  0  0  0  0  0  0  0
  -26.0480  -38.3770   23.8530 H   0  0  0  0  0  0  0  0  0  0  0  0
  -26.3790  -31.8180   25.1630 C   0  0  1  0  0  0  0  0  0  0  0  0
  -25.2670  -31.5970   26.2140 C   0  0  0  0  0  1  0  0  0  0  0  0
  -26.9740  -30.4370   24.8070 C   0  0  0  0  0  1  0  0  0  0  0  0
  -27.5150  -32.6280   25.8320 C   0  0  0  0  0  1  0  0  0  0  0  0
  1  2  1  0
  3  1  1  0
  3  5  1  0
  5  4  1  0
  6  7  2  0
  6  5  1  0
  8 16  1  0
  9 14  1  0
 10 11  1  0
 10  9  1  0
 12 11  1  0
 12 21  1  0
 12 13  1  0
 14  8  1  0
 14 13  1  0
 15  8  2  0
 16 17  1  0
 16  7  1  0
 18 19  2  0
 19 38  1  0
 20 19  1  0
 20 23  1  0
 21 22  1  0
 21 18  1  0
 22 20  2  0
 23 24  1  0
 24 25  2  0
 26 29  1  0
 26 25  1  0
 27 26  2  0
 28 27  1  0
 28 23  2  0
 29 30  1  0
 30 35  2  0
 30 31  1  0
 31 32  2  0
 32 33  1  0
 33 37  1  0
 34 33  2  0
 35 34  1  0
 36 35  1  0
 38 39  1  0
 39 42  1  0
 39 41  1  0
 40 38  2  0
 43 44  1  0
 43 18  1  0
 45 43  1  0
 46  1  1  0
 46 47  2  0
 48 50  1  0
 48 47  1  0
 49 60  2  0
 50 55  1  0
 51 59  1  0
 51 61  1  0
 52 58  1  0
 52 54  1  0
 53 59  1  0
 54 53  1  0
 55 54  2  0
 56 57  1  0
 56 50  2  0
 57 52  2  0
 58 51  1  0
 59 49  1  0
 61 63  2  0
 62 61  1  0
 64 62  1  0
 65 74  2  0
 65 70  1  0
 66 62  1  0
 66 70  1  0
 67 66  1  0
 68 69  1  0
 68 67  1  0
 69 65  1  0
 70 71  2  0
 71 72  1  0
 73 72  2  0
 74 73  1  0
 75 49  1  0
 75 76  1  0
 75 85  1  0
 76 79  1  0
 77 81  1  0
 77 76  1  0
 78 77  2  0
 81 80  1  0
 83 81  1  0
 83 84  1  0
 83 82  1  0
 85 88  1  1
 85 86  1  0
 87 85  1  0
M  ISO  4   8 100  16 100  47 101  48 101
M  END
>  <TORSDO>  (11) 
F 21

>  <SCORE>  (11) 
-12.395

>  <name>  (11) 
10

>  <ligand_id>  (11) 
10

>  <original_smiles>  (11) 
[H]c1c([H])c([H])c2c(c1[H])C([H])([H])C([H])([H])C([H])([H])C2([H])N([H])C(=O)C1([H])N(C(=O)C([H])(N([H])C(=O)C([H])(N([H])C([H])([H])[H])C([H])([H])[H])C(C([H])([H])[H])(C([H])([H])[H])C([H])([H])[H])C([H])([H])c2c([H])c(OC([H])([H])C([H])([H])C(=NC([H])(C([H])([H])[H])C([H])([H])C([H])([H])N([H])C(=O)N3C([H])([H])C([H])([H])C([H])([H])C([H])(n4nc(-c5c([H])c([H])c(Oc6c([H])c([H])c(F)c([H])c6F)c([H])c5[H])c(C(=O)N([H])[H])c4N([H])[H])C3([H])[H])C([H])([H])[H])c([H])c([H])c2C1([H])[H]

>  <smiles>  (11) 
[H]c1c([H])c([H])c2c(c1[H])C([H])([H])C([H])([H])C([H])([H])C2([H])N([H])C(=O)C1([H])N(C(=O)C([H])(N([H])C(=O)C([H])(N([H])C([H])([H])[H])C([H])([H])[H])C(C([H])([H])[H])(C([H])([H])[H])C([H])([H])[H])C([H])([H])c2c([H])c(OC([H])([H])C([H])([H])C(=NC([H])(C([H])([H])[H])C([H])([H])C([H])([H])N([H])C(=O)N3C([H])([H])C([H])([H])C([H])([H])C([H])(n4nc(-c5c([H])c([H])c(Oc6c([H])c([H])c(F)c([H])c6F)c([H])c5[H])c(C(=O)N([H])[H])c4N([H])[H])C3([H])[H])C([H])([H])[H])c([H])c([H])c2C1([H])[H]

$$$$
11:0:0
     RDKit          3D

 85 92  0  0  1  0  0  0  0  0999 V2000
  -26.6540  -21.2740   19.9540 C   0  0  0  0  0  3  0  0  0  0  0  0
  -27.5040  -20.1010   19.9440 C   0  0  0  0  0  3  0  0  0  0  0  0
  -26.9770  -22.6840   19.9870 C   0  0  0  0  0  3  0  0  0  0  0  0
  -29.1920  -21.7460   19.9960 C   0  0  0  0  0  3  0  0  0  0  0  0
  -28.9320  -20.0080   19.9600 C   0  0  0  0  0  3  0  0  0  0  0  0
  -28.2760  -23.2560   20.0160 C   0  0  0  0  0  0  0  0  0  0  0  0
  -30.2330  -16.6050   19.8640 C   0  0  0  0  0  0  0  0  0  0  0  0
  -30.5570  -13.8940   19.0870 C   0  0  0  0  0  2  0  0  0  0  0  0
  -29.7130  -13.1440   17.9860 C   0  0  0  0  0  2  0  0  0  0  0  0
  -28.3870  -12.6150   18.5380 C   0  0  0  0  0  2  0  0  0  0  0  0
  -27.8020  -13.6390   19.5240 C   0  0  0  0  0  3  0  0  0  0  0  0
  -28.8190  -14.2520   20.5400 C   0  0  0  0  0  2  0  0  0  0  0  0
  -29.8220  -15.1060   19.7920 N   0  0  0  0  0  0  0  0  0  0  0  0
  -31.4780  -16.4640   19.6990 O   0  0  0  0  0  0  0  0  0  0  0  0
  -29.3940  -18.1050   19.9330 N   0  0  0  0  0  2  0  0  0  0  0  0
  -28.4810  -17.6770   19.9990 H   0  0  0  0  0  0  0  0  0  0  0  0
  -25.4970  -14.0610   20.4580 C   0  0  0  0  0  0  0  0  0  0  0  0
  -24.4710  -13.2530   20.8520 C   0  0  0  0  0  0  0  0  0  0  0  0
  -24.9530  -11.9130   20.7340 C   0  0  0  0  0  0  0  0  0  0  0  0
  -26.5380  -13.2230   20.1200 N   0  0  0  0  0  0  0  0  0  0  0  0
  -26.2290  -11.9140   20.3430 N   0  0  0  0  0  0  0  0  0  0  0  0
  -24.2410  -10.6360   20.9140 C   0  0  0  0  0  0  0  0  0  0  0  0
  -24.6530   -9.6850   21.8740 C   0  0  0  0  0  3  0  0  0  0  0  0
  -23.9330   -8.4820   22.0470 C   0  0  0  0  0  3  0  0  0  0  0  0
  -22.7840   -8.2210   21.2620 C   0  0  0  0  0  0  0  0  0  0  0  0
  -22.3910   -9.1610   20.2930 C   0  0  0  0  0  3  0  0  0  0  0  0
  -23.1120  -10.3550   20.1180 C   0  0  0  0  0  3  0  0  0  0  0  0
  -22.0400   -7.0680   21.3420 O   0  0  0  0  0  0  0  0  0  0  0  0
  -21.8570   -6.4090   22.5310 C   0  0  0  0  0  0  0  0  0  0  0  0
  -21.2080   -7.0160   23.6270 C   0  0  0  0  0  3  0  0  0  0  0  0
  -20.9790   -6.2800   24.8070 C   0  0  0  0  0  3  0  0  0  0  0  0
  -21.3900   -4.9360   24.8900 C   0  0  0  0  0  0  0  0  0  0  0  0
  -22.0320   -4.3280   23.7980 C   0  0  0  0  0  3  0  0  0  0  0  0
  -22.2620   -5.0610   22.6210 C   0  0  0  0  0  0  0  0  0  0  0  0
  -22.8610   -4.4620   21.5630 F   0  0  0  0  0  0  0  0  0  0  0  0
  -21.1640   -4.2260   26.0210 F   0  0  0  0  0  0  0  0  0  0  0  0
  -23.0870  -13.7060   21.2120 C   0  0  0  0  0  0  0  0  0  0  0  0
  -22.4210  -12.9880   22.1070 N   0  0  0  0  0  0  0  0  0  0  0  0
  -22.6100  -14.7360   20.7360 O   0  0  0  0  0  0  0  0  0  0  0  0
  -22.8230  -12.1550   22.5130 H   0  0  0  0  0  0  0  0  0  0  0  0
  -21.4960  -13.2740   22.3930 H   0  0  0  0  0  0  0  0  0  0  0  0
  -25.6250  -15.4410   20.3210 N   0  0  0  0  0  0  0  0  0  0  0  0
  -24.8490  -16.0720   20.4850 H   0  0  0  0  0  0  0  0  0  0  0  0
  -26.4340  -15.8980   19.9210 H   0  0  0  0  0  0  0  0  0  0  0  0
  -28.2990  -25.0480   20.0590 O   0  0  0  0  0  0  0  0  0  0  0  0
  -24.8210  -31.8820   23.1170 C   0  0  0  0  0  0  0  0  0  0  0  0
  -27.3590  -26.4630   20.0860 C   0  0  0  0  0  0  0  0  0  0  0  0
  -23.6590  -30.4910   21.4640 C   0  0  0  0  0  3  0  0  0  0  0  0
  -25.1200  -28.7790   20.0550 C   0  0  0  0  0  0  0  0  0  0  0  0
  -26.2540  -30.5130   21.4000 C   0  0  0  0  0  2  0  0  0  0  0  0
  -26.3210  -29.0390   20.7240 C   0  0  0  0  0  0  0  0  0  0  0  0
  -27.3960  -27.9260   20.6990 C   0  0  0  0  0  3  0  0  0  0  0  0
  -26.1220  -26.5430   19.3520 C   0  0  0  0  0  3  0  0  0  0  0  0
  -25.0880  -27.5620   19.3440 C   0  0  0  0  0  3  0  0  0  0  0  0
  -23.9270  -29.7780   20.0990 C   0  0  0  0  0  2  0  0  0  0  0  0
  -24.9410  -31.0060   22.0460 N   0  0  0  0  0  0  0  0  0  0  0  0
  -23.7160  -32.1880   23.6070 O   0  0  0  0  0  0  0  0  0  0  0  0
  -22.9040  -29.5360   22.4330 C   0  0  0  0  0  0  0  0  0  0  0  0
  -21.5690  -29.3890   22.2980 N   0  0  0  0  0  0  0  0  0  0  0  0
  -23.5410  -28.9170   23.2890 O   0  0  0  0  0  0  0  0  0  0  0  0
  -21.0970  -29.9380   21.5930 H   0  0  0  0  0  0  0  0  0  0  0  0
  -18.1750  -28.1730   22.8320 C   0  0  0  0  0  0  0  0  0  0  0  0
  -20.7410  -28.4400   23.0590 C   0  0  0  0  0  3  0  0  0  0  0  0
  -20.8310  -27.0200   22.4520 C   0  0  0  0  0  2  0  0  0  0  0  0
  -19.7160  -26.7240   21.4430 C   0  0  0  0  0  2  0  0  0  0  0  0
  -18.3430  -26.8460   22.1090 C   0  0  0  0  0  2  0  0  0  0  0  0
  -19.2980  -28.9290   23.2630 C   0  0  0  0  0  0  0  0  0  0  0  0
  -19.0810  -30.1650   23.9090 C   0  0  0  0  0  3  0  0  0  0  0  0
  -17.7760  -30.6480   24.1210 C   0  0  0  0  0  3  0  0  0  0  0  0
  -16.6680  -29.8910   23.7000 C   0  0  0  0  0  3  0  0  0  0  0  0
  -16.8680  -28.6550   23.0620 C   0  0  0  0  0  3  0  0  0  0  0  0
  -26.0580  -32.5550   23.7880 C   0  0  0  0  0  3  0  0  0  0  0  0
  -25.7130  -33.9530   24.1370 N   0  0  0  0  0  0  0  0  0  0  0  0
  -26.0160  -35.0380   23.4110 C   0  0  0  0  0  0  0  0  0  0  0  0
  -26.6600  -34.9700   22.3620 O   0  0  0  0  0  0  0  0  0  0  0  0
  -25.1310  -34.0770   24.9530 H   0  0  0  0  0  0  0  0  0  0  0  0
  -24.2510  -36.8300   23.1850 C   0  0  0  0  0  1  0  0  0  0  0  0
  -25.5350  -36.4170   23.9220 C   0  0  0  0  0  3  0  0  0  0  0  0
  -27.6860  -37.3430   24.6770 C   0  0  0  0  0  1  0  0  0  0  0  0
  -26.5460  -37.4910   23.7760 N   0  0  0  0  0  0  0  0  0  0  0  0
  -26.1290  -38.4030   23.9400 H   0  0  0  0  0  0  0  0  0  0  0  0
  -26.5360  -31.8000   25.0930 C   0  0  1  0  0  0  0  0  0  0  0  0
  -25.4100  -31.5640   26.1270 C   0  0  0  0  0  1  0  0  0  0  0  0
  -27.1430  -30.4230   24.7520 C   0  0  0  0  0  1  0  0  0  0  0  0
  -27.6590  -32.6090   25.7850 C   0  0  0  0  0  1  0  0  0  0  0  0
  1  3  1  0
  2  1  2  0
  2  5  1  0
  3  6  2  0
  4  6  1  0
  5  4  2  0
  6 45  1  0
  7 15  1  0
  8 13  1  0
  9 10  1  0
  9  8  1  0
 11 10  1  0
 11 20  1  0
 11 12  1  0
 13  7  1  0
 13 12  1  0
 14  7  2  0
 15 16  1  0
 17 18  2  0
 18 37  1  0
 19 18  1  0
 19 22  1  0
 20 21  1  0
 20 17  1  0
 21 19  2  0
 22 23  1  0
 23 24  2  0
 25 28  1  0
 25 24  1  0
 26 25  2  0
 27 26  1  0
 27 22  2  0
 28 29  1  0
 29 34  2  0
 29 30  1  0
 30 31  2  0
 31 32  1  0
 32 36  1  0
 33 32  2  0
 34 33  1  0
 35 34  1  0
 37 38  1  0
 38 41  1  0
 38 40  1  0
 39 37  2  0
 42 17  1  0
 42 43  1  0
 44 42  1  0
 45 47  1  0
 46 57  2  0
 47 52  1  0
 48 56  1  0
 48 58  1  0
 49 55  1  0
 49 51  1  0
 50 56  1  0
 51 50  1  0
 52 51  2  0
 53 47  2  0
 54 53  1  0
 54 49  2  0
 55 48  1  0
 56 46  1  0
 58 60  2  0
 59 58  1  0
 61 59  1  0
 62 71  2  0
 62 67  1  0
 63 59  1  0
 63 67  1  0
 64 63  1  0
 65 66  1  0
 65 64  1  0
 66 62  1  0
 67 68  2  0
 68 69  1  0
 70 69  2  0
 71 70  1  0
 72 46  1  0
 72 73  1  0
 72 82  1  0
 73 76  1  0
 74 78  1  0
 74 73  1  0
 75 74  2  0
 78 77  1  0
 80 78  1  0
 80 81  1  0
 80 79  1  0
 82 85  1  1
 82 83  1  0
 84 82  1  0
M  ISO  4   6 101   7 100  15 100  45 101
M  END
>  <TORSDO>  (12) 
F 16

>  <SCORE>  (12) 
-15.159

>  <name>  (12) 
11

>  <ligand_id>  (12) 
11

>  <original_smiles>  (12) 
[H]c1c([H])c(Oc2c([H])c([H])c3c(c2[H])C([H])([H])N(C(=O)C([H])(N([H])C(=O)C([H])(N([H])C([H])([H])[H])C([H])([H])[H])C(C([H])([H])[H])(C([H])([H])[H])C([H])([H])[H])C([H])(C(=O)N([H])C2([H])c4c([H])c([H])c([H])c([H])c4C([H])([H])C([H])([H])C2([H])[H])C3([H])[H])c([H])c(N([H])C(=O)N2C([H])([H])C([H])([H])C([H])([H])C([H])(n3nc(-c4c([H])c([H])c(Oc5c([H])c([H])c(F)c([H])c5F)c([H])c4[H])c(C(=O)N([H])[H])c3N([H])[H])C2([H])[H])c1[H]

>  <smiles>  (12) 
[H]c1c([H])c(Oc2c([H])c([H])c3c(c2[H])C([H])([H])N(C(=O)C([H])(N([H])C(=O)C([H])(N([H])C([H])([H])[H])C([H])([H])[H])C(C([H])([H])[H])(C([H])([H])[H])C([H])([H])[H])C([H])(C(=O)N([H])C2([H])c4c([H])c([H])c([H])c([H])c4C([H])([H])C([H])([H])C2([H])[H])C3([H])[H])c([H])c(N([H])C(=O)N2C([H])([H])C([H])([H])C([H])([H])C([H])(n3nc(-c4c([H])c([H])c(Oc5c([H])c([H])c(F)c([H])c5F)c([H])c4[H])c(C(=O)N([H])[H])c3N([H])[H])C2([H])[H])c1[H]

$$$$
12:0:0
     RDKit          3D

 89 98  0  0  1  0  0  0  0  0999 V2000
  -30.7630  -14.8550   20.2450 C   0  0  0  0  0  0  0  0  0  0  0  0
  -30.5780  -12.5010   19.3970 C   0  0  0  0  0  2  0  0  0  0  0  0
  -29.6790  -12.4480   18.1440 C   0  0  0  0  0  2  0  0  0  0  0  0
  -28.2020  -12.2860   18.5520 C   0  0  0  0  0  2  0  0  0  0  0  0
  -27.7840  -13.2610   19.6860 C   0  0  0  0  0  3  0  0  0  0  0  0
  -28.8140  -13.2940   20.8340 C   0  0  0  0  0  2  0  0  0  0  0  0
  -30.1070  -13.6370   20.2310 N   0  0  0  0  0  0  0  0  0  0  0  0
  -31.9670  -14.8550   19.9590 O   0  0  0  0  0  0  0  0  0  0  0  0
  -28.2540  -19.2540   21.3740 C   0  0  0  0  0  3  0  0  0  0  0  0
  -28.3070  -20.6030   20.8820 C   0  0  0  0  0  3  0  0  0  0  0  0
  -29.8740  -19.8940   19.1840 C   0  0  0  0  0  3  0  0  0  0  0  0
  -29.0170  -18.2220   20.7650 C   0  0  0  0  0  0  0  0  0  0  0  0
  -29.8200  -18.5390   19.6950 C   0  0  0  0  0  0  0  0  0  0  0  0
  -29.1080  -20.9830   19.7640 C   0  0  0  0  0  0  0  0  0  0  0  0
  -29.1140  -16.7090   21.0950 C   0  0  0  0  0  3  0  0  0  0  0  0
  -30.5340  -17.2300   19.2670 C   0  0  0  0  0  3  0  0  0  0  0  0
  -30.0550  -16.0670   20.1200 N   0  0  0  0  0  0  0  0  0  0  0  0
  -25.3890  -13.8730   20.3560 C   0  0  0  0  0  0  0  0  0  0  0  0
  -24.3160  -13.1120   20.7290 C   0  0  0  0  0  0  0  0  0  0  0  0
  -24.7760  -11.7600   20.7490 C   0  0  0  0  0  0  0  0  0  0  0  0
  -26.4340  -12.9850   20.1650 N   0  0  0  0  0  0  0  0  0  0  0  0
  -26.0720  -11.7110   20.4660 N   0  0  0  0  0  0  0  0  0  0  0  0
  -24.0420  -10.5050   20.9620 C   0  0  0  0  0  0  0  0  0  0  0  0
  -24.4720   -9.5480   21.9070 C   0  0  0  0  0  3  0  0  0  0  0  0
  -23.7370   -8.3600   22.1080 C   0  0  0  0  0  3  0  0  0  0  0  0
  -22.5580   -8.1200   21.3630 C   0  0  0  0  0  0  0  0  0  0  0  0
  -22.1470   -9.0660   20.4080 C   0  0  0  0  0  3  0  0  0  0  0  0
  -22.8820  -10.2450   20.2050 C   0  0  0  0  0  3  0  0  0  0  0  0
  -21.7940   -6.9830   21.4740 O   0  0  0  0  0  0  0  0  0  0  0  0
  -21.7710   -6.2400   22.6270 C   0  0  0  0  0  0  0  0  0  0  0  0
  -21.4050   -6.8030   23.8690 C   0  0  0  0  0  3  0  0  0  0  0  0
  -21.3270   -5.9870   25.0150 C   0  0  0  0  0  3  0  0  0  0  0  0
  -21.6050   -4.6110   24.9220 C   0  0  0  0  0  0  0  0  0  0  0  0
  -21.9660   -4.0480   23.6850 C   0  0  0  0  0  3  0  0  0  0  0  0
  -22.0450   -4.8610   22.5400 C   0  0  0  0  0  0  0  0  0  0  0  0
  -22.3720   -4.3080   21.3470 F   0  0  0  0  0  0  0  0  0  0  0  0
  -21.5240   -3.8260   26.0220 F   0  0  0  0  0  0  0  0  0  0  0  0
  -22.9150  -13.6010   20.9580 C   0  0  0  0  0  0  0  0  0  0  0  0
  -22.1750  -12.9470   21.8450 N   0  0  0  0  0  0  0  0  0  0  0  0
  -22.4850  -14.6000   20.3810 O   0  0  0  0  0  0  0  0  0  0  0  0
  -22.5360  -12.1400   22.3330 H   0  0  0  0  0  0  0  0  0  0  0  0
  -21.2350  -13.2590   22.0420 H   0  0  0  0  0  0  0  0  0  0  0  0
  -25.5580  -15.2360   20.1360 N   0  0  0  0  0  0  0  0  0  0  0  0
  -24.7860  -15.8900   20.2050 H   0  0  0  0  0  0  0  0  0  0  0  0
  -26.4040  -15.6590   19.7770 H   0  0  0  0  0  0  0  0  0  0  0  0
  -29.1600  -22.3130   19.2150 O   0  0  0  0  0  0  0  0  0  0  0  0
  -28.5980  -23.5740   19.8230 C   0  0  0  0  0  2  0  0  0  0  0  0
  -28.5570  -24.9400   18.9110 C   0  0  0  0  0  2  0  0  0  0  0  0
  -28.5250  -26.3760   19.4130 O   0  0  0  0  0  0  0  0  0  0  0  0
  -24.7690  -31.5460   22.8830 C   0  0  0  0  0  0  0  0  0  0  0  0
  -27.3870  -27.2280   19.4230 C   0  0  0  0  0  0  0  0  0  0  0  0
  -23.5520  -30.2410   21.1800 C   0  0  0  0  0  3  0  0  0  0  0  0
  -24.9940  -28.8300   19.5980 C   0  0  0  0  0  0  0  0  0  0  0  0
  -26.0820  -30.6190   20.9510 C   0  0  0  0  0  2  0  0  0  0  0  0
  -26.1720  -29.2890   20.1980 C   0  0  0  0  0  0  0  0  0  0  0  0
  -27.3670  -28.5000   20.1000 C   0  0  0  0  0  3  0  0  0  0  0  0
  -26.1770  -26.8400   18.8060 C   0  0  0  0  0  3  0  0  0  0  0  0
  -25.0030  -27.6170   18.8920 C   0  0  0  0  0  3  0  0  0  0  0  0
  -23.7420  -29.6730   19.7470 C   0  0  0  0  0  2  0  0  0  0  0  0
  -24.8220  -30.8180   21.7280 N   0  0  0  0  0  0  0  0  0  0  0  0
  -23.6960  -31.7580   23.4660 O   0  0  0  0  0  0  0  0  0  0  0  0
  -22.9410  -29.1420   22.0830 C   0  0  0  0  0  0  0  0  0  0  0  0
  -21.6090  -28.9700   22.0140 N   0  0  0  0  0  0  0  0  0  0  0  0
  -23.6610  -28.4510   22.8060 O   0  0  0  0  0  0  0  0  0  0  0  0
  -21.0830  -29.5820   21.4060 H   0  0  0  0  0  0  0  0  0  0  0  0
  -18.2620  -27.7250   22.6100 C   0  0  0  0  0  0  0  0  0  0  0  0
  -20.8340  -27.9630   22.7420 C   0  0  0  0  0  3  0  0  0  0  0  0
  -20.8930  -26.5920   22.0290 C   0  0  0  0  0  2  0  0  0  0  0  0
  -19.7300  -26.3650   21.0590 C   0  0  0  0  0  2  0  0  0  0  0  0
  -18.3910  -26.4470   21.7990 C   0  0  0  0  0  2  0  0  0  0  0  0
  -19.4090  -28.4450   23.0400 C   0  0  0  0  0  0  0  0  0  0  0  0
  -19.2320  -29.6450   23.7620 C   0  0  0  0  0  3  0  0  0  0  0  0
  -17.9430  -30.1250   24.0570 C   0  0  0  0  0  3  0  0  0  0  0  0
  -16.8120  -29.4010   23.6420 C   0  0  0  0  0  3  0  0  0  0  0  0
  -16.9730  -28.2020   22.9240 C   0  0  0  0  0  3  0  0  0  0  0  0
  -26.0530  -32.1680   23.5150 C   0  0  0  0  0  3  0  0  0  0  0  0
  -25.7020  -33.5090   24.0090 N   0  0  0  0  0  0  0  0  0  0  0  0
  -25.9750  -34.6540   23.3680 C   0  0  0  0  0  0  0  0  0  0  0  0
  -26.6180  -34.6920   22.3150 O   0  0  0  0  0  0  0  0  0  0  0  0
  -25.1250  -33.5490   24.8360 H   0  0  0  0  0  0  0  0  0  0  0  0
  -24.1730  -36.4060   23.2710 C   0  0  0  0  0  1  0  0  0  0  0  0
  -25.4550  -35.9620   23.9930 C   0  0  0  0  0  3  0  0  0  0  0  0
  -27.5850  -36.8340   24.8530 C   0  0  0  0  0  1  0  0  0  0  0  0
  -26.4450  -37.0620   23.9690 N   0  0  0  0  0  0  0  0  0  0  0  0
  -26.0110  -37.9430   24.2310 H   0  0  0  0  0  0  0  0  0  0  0  0
  -26.6570  -31.2920   24.6810 C   0  0  1  0  0  0  0  0  0  0  0  0
  -25.6280  -30.9090   25.7690 C   0  0  0  0  0  1  0  0  0  0  0  0
  -27.2640  -29.9830   24.1250 C   0  0  0  0  0  1  0  0  0  0  0  0
  -27.8130  -32.0590   25.3660 C   0  0  0  0  0  1  0  0  0  0  0  0
  2  7  1  0
  3  4  1  0
  3  2  1  0
  5  4  1  0
  5 21  1  0
  5  6  1  0
  7  1  1  0
  7  6  1  0
  8  1  2  0
 10  9  2  0
 11 13  1  0
 11 14  2  0
 12 15  2  0
 12  9  1  0
 13 12  1  0
 14 10  1  0
 16 13  2  0
 16 17  1  0
 17  1  1  0
 17 15  1  0
 18 19  2  0
 19 20  1  0
 19 38  1  0
 20 23  1  0
 21 18  1  0
 21 22  1  0
 22 20  2  0
 23 24  1  0
 24 25  2  0
 26 29  1  0
 26 25  1  0
 27 26  2  0
 28 27  1  0
 28 23  2  0
 29 30  1  0
 30 31  1  0
 31 32  2  0
 33 32  1  0
 33 37  1  0
 34 33  2  0
 35 30  2  0
 35 34  1  0
 36 35  1  0
 38 39  1  0
 39 42  1  0
 39 41  1  0
 40 38  2  0
 43 44  1  0
 43 18  1  0
 45 43  1  0
 46 14  1  0
 46 47  1  0
 48 49  1  0
 48 47  1  0
 49 51  1  0
 50 61  2  0
 51 56  1  0
 52 60  1  0
 52 62  1  0
 53 59  1  0
 53 55  1  0
 54 60  1  0
 55 54  1  0
 56 55  2  0
 57 58  1  0
 57 51  2  0
 58 53  2  0
 59 52  1  0
 60 50  1  0
 62 64  2  0
 63 62  1  0
 65 63  1  0
 66 75  2  0
 66 71  1  0
 67 63  1  0
 67 71  1  0
 68 67  1  0
 69 70  1  0
 69 68  1  0
 70 66  1  0
 71 72  2  0
 72 73  1  0
 74 73  2  0
 75 74  1  0
 76 50  1  0
 76 77  1  0
 76 86  1  0
 77 80  1  0
 78 82  1  0
 78 77  1  0
 79 78  2  0
 82 81  1  0
 84 82  1  0
 84 85  1  0
 84 83  1  0
 86 89  1  1
 86 87  1  0
 88 86  1  0
M  ISO  4   1 100  17 100  48 101  49 101
M  END
>  <TORSDO>  (13) 
F 18

>  <SCORE>  (13) 
-12.071

>  <name>  (13) 
12

>  <ligand_id>  (13) 
12

>  <original_smiles>  (13) 
[H]c1c([H])c([H])c2c(c1[H])C([H])([H])C([H])([H])C([H])([H])C2([H])N([H])C(=O)C1([H])N(C(=O)C([H])(N([H])C(=O)C([H])(N([H])C([H])([H])[H])C([H])([H])[H])C(C([H])([H])[H])(C([H])([H])[H])C([H])([H])[H])C([H])([H])c2c([H])c(OC([H])([H])C([H])([H])Oc3c([H])c([H])c4c(c3[H])C([H])([H])N(C(=O)N3C([H])([H])C([H])([H])C([H])([H])C([H])(n5nc(-c6c([H])c([H])c(Oc7c([H])c([H])c(F)c([H])c7F)c([H])c6[H])c(C(=O)N([H])[H])c5N([H])[H])C3([H])[H])C4([H])[H])c([H])c([H])c2C1([H])[H]

>  <smiles>  (13) 
[H]c1c([H])c([H])c2c(c1[H])C([H])([H])C([H])([H])C([H])([H])C2([H])N([H])C(=O)C1([H])N(C(=O)C([H])(N([H])C(=O)C([H])(N([H])C([H])([H])[H])C([H])([H])[H])C(C([H])([H])[H])(C([H])([H])[H])C([H])([H])[H])C([H])([H])c2c([H])c(OC([H])([H])C([H])([H])Oc3c([H])c([H])c4c(c3[H])C([H])([H])N(C(=O)N3C([H])([H])C([H])([H])C([H])([H])C([H])(n5nc(-c6c([H])c([H])c(Oc7c([H])c([H])c(F)c([H])c7F)c([H])c6[H])c(C(=O)N([H])[H])c5N([H])[H])C3([H])[H])C4([H])[H])c([H])c([H])c2C1([H])[H]

$$$$
13:0:0
     RDKit          3D

 99107  0  0  1  0  0  0  0  0999 V2000
  -29.6840  -18.4090   21.0660 C   0  0  0  0  0  0  0  0  0  0  0  0
  -29.6350  -19.7260   20.6660 N   0  0  0  0  0  0  0  0  0  0  0  0
  -29.2390  -18.0710   22.1630 O   0  0  0  0  0  0  0  0  0  0  0  0
  -30.0160  -19.9630   19.7610 H   0  0  0  0  0  0  0  0  0  0  0  0
  -29.0210  -20.8360   21.4710 C   0  0  0  0  0  2  0  0  0  0  0  0
  -29.5860  -22.9550   19.9330 C   0  0  0  0  0  3  0  0  0  0  0  0
  -28.0000  -23.1860   21.7230 C   0  0  0  0  0  3  0  0  0  0  0  0
  -29.4380  -24.3530   19.6560 C   0  0  0  0  0  3  0  0  0  0  0  0
  -27.8550  -24.5750   21.4450 C   0  0  0  0  0  3  0  0  0  0  0  0
  -28.8720  -22.3320   20.9920 C   0  0  0  0  0  0  0  0  0  0  0  0
  -28.5780  -25.2070   20.4050 C   0  0  0  0  0  0  0  0  0  0  0  0
  -28.5520  -26.6020   20.1730 O   0  0  0  0  0  0  0  0  0  0  0  0
  -24.7070  -31.9060   23.2020 C   0  0  0  0  0  0  0  0  0  0  0  0
  -27.3870  -27.3720   20.1920 C   0  0  0  0  0  0  0  0  0  0  0  0
  -23.5210  -30.4810   21.5670 C   0  0  0  0  0  3  0  0  0  0  0  0
  -24.9940  -28.9300   20.1610 C   0  0  0  0  0  0  0  0  0  0  0  0
  -26.0510  -30.8350   21.3830 C   0  0  0  0  0  2  0  0  0  0  0  0
  -26.1510  -29.4500   20.7580 C   0  0  0  0  0  0  0  0  0  0  0  0
  -27.3490  -28.6800   20.7670 C   0  0  0  0  0  3  0  0  0  0  0  0
  -26.2120  -26.8970   19.5760 C   0  0  0  0  0  3  0  0  0  0  0  0
  -25.0270  -27.6590   19.5630 C   0  0  0  0  0  3  0  0  0  0  0  0
  -23.7460  -29.7890   20.1950 C   0  0  0  0  0  2  0  0  0  0  0  0
  -24.7790  -31.0920   22.1090 N   0  0  0  0  0  0  0  0  0  0  0  0
  -23.6210  -32.1760   23.7360 O   0  0  0  0  0  0  0  0  0  0  0  0
  -22.8740  -29.4660   22.5360 C   0  0  0  0  0  0  0  0  0  0  0  0
  -21.5490  -29.2790   22.4160 N   0  0  0  0  0  0  0  0  0  0  0  0
  -23.5610  -28.8470   23.3530 O   0  0  0  0  0  0  0  0  0  0  0  0
  -21.0530  -29.8290   21.7270 H   0  0  0  0  0  0  0  0  0  0  0  0
  -18.1800  -28.0770   22.9500 C   0  0  0  0  0  0  0  0  0  0  0  0
  -20.7410  -28.3410   23.1940 C   0  0  0  0  0  3  0  0  0  0  0  0
  -20.8400  -26.9120   22.6180 C   0  0  0  0  0  2  0  0  0  0  0  0
  -19.7290  -26.5860   21.6130 C   0  0  0  0  0  2  0  0  0  0  0  0
  -18.3540  -26.7280   22.2710 C   0  0  0  0  0  2  0  0  0  0  0  0
  -19.3020  -28.8390   23.3700 C   0  0  0  0  0  0  0  0  0  0  0  0
  -19.0880  -30.0990   23.9680 C   0  0  0  0  0  3  0  0  0  0  0  0
  -17.7850  -30.5990   24.1480 C   0  0  0  0  0  3  0  0  0  0  0  0
  -16.6780  -29.8340   23.7440 C   0  0  0  0  0  3  0  0  0  0  0  0
  -16.8760  -28.5740   23.1510 C   0  0  0  0  0  3  0  0  0  0  0  0
  -25.9830  -32.5580   23.8210 C   0  0  0  0  0  3  0  0  0  0  0  0
  -26.5230  -31.7850   25.0870 C   0  0  1  0  0  0  0  0  0  0  0  0
  -25.4400  -31.5120   26.1580 C   0  0  0  0  0  1  0  0  0  0  0  0
  -27.1370  -30.4260   24.6760 C   0  0  0  0  0  1  0  0  0  0  0  0
  -27.6550  -32.6000   25.7550 C   0  0  0  0  0  1  0  0  0  0  0  0
  -25.6490  -33.9470   24.1660 N   0  0  0  0  0  0  0  0  0  0  0  0
  -25.9550  -35.0140   23.4150 C   0  0  0  0  0  0  0  0  0  0  0  0
  -26.6160  -34.9320   22.3760 O   0  0  0  0  0  0  0  0  0  0  0  0
  -25.0600  -34.0830   24.9740 H   0  0  0  0  0  0  0  0  0  0  0  0
  -24.1900  -36.7750   23.0870 C   0  0  0  0  0  1  0  0  0  0  0  0
  -25.4450  -36.3890   23.8880 C   0  0  0  0  0  3  0  0  0  0  0  0
  -27.5700  -37.3060   24.7120 C   0  0  0  0  0  1  0  0  0  0  0  0
  -26.4580  -37.4620   23.7780 N   0  0  0  0  0  0  0  0  0  0  0  0
  -26.0360  -38.3740   23.9370 H   0  0  0  0  0  0  0  0  0  0  0  0
  -30.2620  -17.2730   20.1310 C   0  0  0  0  0  3  0  0  0  0  0  0
  -30.8170  -14.7360   20.2990 C   0  0  0  0  0  0  0  0  0  0  0  0
  -30.5780  -12.4990   19.2520 C   0  0  0  0  0  2  0  0  0  0  0  0
  -29.6270  -12.6370   18.0430 C   0  0  0  0  0  2  0  0  0  0  0  0
  -28.1580  -12.4850   18.4840 C   0  0  0  0  0  2  0  0  0  0  0  0
  -27.8180  -13.3420   19.7330 C   0  0  0  0  0  3  0  0  0  0  0  0
  -28.8850  -13.1870   20.8400 C   0  0  0  0  0  2  0  0  0  0  0  0
  -30.1880  -13.5200   20.2460 N   0  0  0  0  0  0  0  0  0  0  0  0
  -31.9790  -14.8630   19.9040 O   0  0  0  0  0  0  0  0  0  0  0  0
  -30.0370  -15.8380   20.5570 N   0  0  0  0  0  0  0  0  0  0  0  0
  -29.1260  -15.6500   20.9460 H   0  0  0  0  0  0  0  0  0  0  0  0
  -25.4470  -13.9520   20.5010 C   0  0  0  0  0  0  0  0  0  0  0  0
  -24.3750  -13.1850   20.8660 C   0  0  0  0  0  0  0  0  0  0  0  0
  -24.8170  -11.8300   20.7930 C   0  0  0  0  0  0  0  0  0  0  0  0
  -26.4730  -13.0650   20.2290 N   0  0  0  0  0  0  0  0  0  0  0  0
  -26.1020  -11.7800   20.4660 N   0  0  0  0  0  0  0  0  0  0  0  0
  -24.0760  -10.5730   20.9610 C   0  0  0  0  0  0  0  0  0  0  0  0
  -24.5000   -9.5820   21.8710 C   0  0  0  0  0  3  0  0  0  0  0  0
  -23.7610   -8.3900   22.0290 C   0  0  0  0  0  3  0  0  0  0  0  0
  -22.5830   -8.1800   21.2740 C   0  0  0  0  0  0  0  0  0  0  0  0
  -22.1760   -9.1610   20.3530 C   0  0  0  0  0  3  0  0  0  0  0  0
  -22.9160  -10.3450   20.1930 C   0  0  0  0  0  3  0  0  0  0  0  0
  -21.8150   -7.0430   21.3430 O   0  0  0  0  0  0  0  0  0  0  0  0
  -21.7560   -6.2810   22.4820 C   0  0  0  0  0  0  0  0  0  0  0  0
  -21.3370   -6.8200   23.7170 C   0  0  0  0  0  3  0  0  0  0  0  0
  -21.2240   -5.9860   24.8470 C   0  0  0  0  0  3  0  0  0  0  0  0
  -21.5210   -4.6130   24.7430 C   0  0  0  0  0  0  0  0  0  0  0  0
  -21.9320   -4.0740   23.5110 C   0  0  0  0  0  3  0  0  0  0  0  0
  -22.0470   -4.9060   22.3830 C   0  0  0  0  0  0  0  0  0  0  0  0
  -22.4240   -4.3770   21.1940 F   0  0  0  0  0  0  0  0  0  0  0  0
  -21.4040   -3.8090   25.8250 F   0  0  0  0  0  0  0  0  0  0  0  0
  -22.9890  -13.6750   21.1720 C   0  0  0  0  0  0  0  0  0  0  0  0
  -22.2730  -12.9770   22.0440 N   0  0  0  0  0  0  0  0  0  0  0  0
  -22.5540  -14.7110   20.6720 O   0  0  0  0  0  0  0  0  0  0  0  0
  -22.6420  -12.1400   22.4710 H   0  0  0  0  0  0  0  0  0  0  0  0
  -21.3420  -13.2820   22.2910 H   0  0  0  0  0  0  0  0  0  0  0  0
  -25.6300  -15.3240   20.3570 N   0  0  0  0  0  0  0  0  0  0  0  0
  -24.8780  -15.9820   20.5170 H   0  0  0  0  0  0  0  0  0  0  0  0
  -26.4870  -15.7530   20.0410 H   0  0  0  0  0  0  0  0  0  0  0  0
  -29.8180  -17.4570   18.6570 C   0  0  0  0  0  2  0  0  0  0  0  0
  -28.3700  -17.9720   18.4670 C   0  0  0  0  0  2  0  0  0  0  0  0
  -28.2830  -19.1920   17.5290 C   0  0  0  0  0  2  0  0  0  0  0  0
  -26.9410  -19.9490   17.5990 C   0  0  0  0  0  2  0  0  0  0  0  0
  -26.8270  -20.7930   18.8020 N   0  0  0  0  0  4  0  0  0  0  0  0
  -26.9410  -20.2590   19.6430 H   0  0  0  0  0  0  0  0  0  0  0  0
  -25.9180  -21.2240   18.8280 H   0  0  0  0  0  0  0  0  0  0  0  0
  -27.5130  -21.5270   18.7860 H   0  0  0  0  0  0  0  0  0  0  0  0
  1  3  2  0
  2  1  1  0
  2  5  1  0
  4  2  1  0
  6 10  1  0
  8  6  2  0
  8 11  1  0
  9  7  1  0
 10  5  1  0
 10  7  2  0
 11  9  2  0
 12 14  1  0
 12 11  1  0
 13 24  2  0
 14 19  1  0
 15 23  1  0
 15 25  1  0
 16 22  1  0
 16 18  1  0
 17 23  1  0
 18 19  2  0
 18 17  1  0
 20 14  2  0
 21 20  1  0
 21 16  2  0
 22 15  1  0
 23 13  1  0
 25 27  2  0
 26 25  1  0
 28 26  1  0
 29 38  2  0
 29 34  1  0
 30 26  1  0
 30 34  1  0
 31 30  1  0
 32 33  1  0
 32 31  1  0
 33 29  1  0
 34 35  2  0
 35 36  1  0
 37 36  2  0
 38 37  1  0
 39 13  1  0
 39 44  1  0
 39 40  1  0
 40 43  1  1
 40 41  1  0
 42 40  1  0
 44 47  1  0
 45 49  1  0
 45 44  1  0
 46 45  2  0
 49 48  1  0
 51 49  1  0
 51 52  1  0
 51 50  1  0
 53 92  1  0
 53 62  1  0
 53  1  1  0
 54 62  1  0
 55 60  1  0
 56 57  1  0
 56 55  1  0
 58 57  1  0
 58 67  1  0
 58 59  1  0
 60 54  1  0
 60 59  1  0
 61 54  2  0
 62 63  1  0
 64 65  2  0
 65 84  1  0
 66 65  1  0
 66 69  1  0
 67 68  1  0
 67 64  1  0
 68 66  2  0
 69 70  1  0
 70 71  2  0
 72 75  1  0
 72 71  1  0
 73 72  2  0
 74 73  1  0
 74 69  2  0
 75 76  1  0
 76 77  1  0
 77 78  2  0
 79 78  1  0
 79 83  1  0
 80 79  2  0
 81 76  2  0
 81 80  1  0
 82 81  1  0
 84 85  1  0
 85 88  1  0
 85 87  1  0
 86 84  2  0
 89 64  1  0
 89 90  1  0
 91 89  1  0
 93 92  1  0
 94 95  1  0
 94 93  1  0
 95 96  1  0
 96 98  1  0
 96 97  1  0
 99 96  1  0
M  ISO  4  11 101  12 101  54 100  62 100
M  END
>  <TORSDO>  (14) 
F 24

>  <SCORE>  (14) 
-12.091

>  <name>  (14) 
13

>  <ligand_id>  (14) 
13

>  <original_smiles>  (14) 
[H]c1c([H])c([H])c2c(c1[H])C([H])([H])C([H])([H])C([H])([H])C2([H])N([H])C(=O)C1([H])N(C(=O)C([H])(N([H])C(=O)C([H])(N([H])C([H])([H])[H])C([H])([H])[H])C(C([H])([H])[H])(C([H])([H])[H])C([H])([H])[H])C([H])([H])c2c([H])c(Oc3c([H])c([H])c(C([H])([H])N([H])C(=O)C([H])(N([H])C(=O)N4C([H])([H])C([H])([H])C([H])([H])C([H])(n5nc(-c6c([H])c([H])c(Oc7c([H])c([H])c(F)c([H])c7F)c([H])c6[H])c(C(=O)N([H])[H])c5N([H])[H])C4([H])[H])C([H])([H])C([H])([H])C([H])([H])C([H])([H])[N+]([H])([H])[H])c([H])c3[H])c([H])c([H])c2C1([H])[H]

>  <smiles>  (14) 
[H]c1c([H])c([H])c2c(c1[H])C([H])([H])C([H])([H])C([H])([H])C2([H])N([H])C(=O)C1([H])N(C(=O)C([H])(N([H])C(=O)C([H])(N([H])C([H])([H])[H])C([H])([H])[H])C(C([H])([H])[H])(C([H])([H])[H])C([H])([H])[H])C([H])([H])c2c([H])c(Oc3c([H])c([H])c(C([H])([H])N([H])C(=O)C([H])(N([H])C(=O)N4C([H])([H])C([H])([H])C([H])([H])C([H])(n5nc(-c6c([H])c([H])c(Oc7c([H])c([H])c(F)c([H])c7F)c([H])c6[H])c(C(=O)N([H])[H])c5N([H])[H])C4([H])[H])C([H])([H])C([H])([H])C([H])([H])C([H])([H])[N+]([H])([H])[H])c([H])c3[H])c([H])c([H])c2C1([H])[H]

$$$$
14:0:0
     RDKit          3D

 81 85  0  0  1  0  0  0  0  0999 V2000
  -28.1090  -24.6470   20.3000 O   0  0  0  0  0  1  0  0  0  0  0  0
  -24.7100  -31.7810   23.1610 C   0  0  0  0  0  0  0  0  0  0  0  0
  -27.2070  -26.1440   20.2640 C   0  0  0  0  0  0  0  0  0  0  0  0
  -23.5560  -30.3680   21.5220 C   0  0  0  0  0  3  0  0  0  0  0  0
  -25.0090  -28.5810   20.1690 C   0  0  0  0  0  0  0  0  0  0  0  0
  -26.1560  -30.3130   21.5020 C   0  0  0  0  0  2  0  0  0  0  0  0
  -26.2110  -28.8120   20.8490 C   0  0  0  0  0  0  0  0  0  0  0  0
  -27.2590  -27.6460   20.8460 C   0  0  0  0  0  3  0  0  0  0  0  0
  -25.9680  -26.2870   19.5230 C   0  0  0  0  0  3  0  0  0  0  0  0
  -24.9660  -27.3480   19.4800 C   0  0  0  0  0  3  0  0  0  0  0  0
  -23.8360  -29.6140   20.1780 C   0  0  0  0  0  2  0  0  0  0  0  0
  -24.8390  -30.8700   22.1140 N   0  0  0  0  0  0  0  0  0  0  0  0
  -23.6010  -32.1150   23.6230 O   0  0  0  0  0  0  0  0  0  0  0  0
  -22.7620  -29.4580   22.5040 C   0  0  0  0  0  0  0  0  0  0  0  0
  -21.4220  -29.3560   22.3730 N   0  0  0  0  0  0  0  0  0  0  0  0
  -23.3780  -28.8290   23.3670 O   0  0  0  0  0  0  0  0  0  0  0  0
  -20.9670  -29.9120   21.6630 H   0  0  0  0  0  0  0  0  0  0  0  0
  -17.9970  -28.2130   22.9010 C   0  0  0  0  0  0  0  0  0  0  0  0
  -20.5670  -28.4380   23.1430 C   0  0  0  0  0  3  0  0  0  0  0  0
  -20.6330  -27.0060   22.5600 C   0  0  0  0  0  2  0  0  0  0  0  0
  -19.5210  -26.7160   21.5460 C   0  0  0  0  0  2  0  0  0  0  0  0
  -18.1460  -26.8740   22.1990 C   0  0  0  0  0  2  0  0  0  0  0  0
  -19.1320  -28.9550   23.3290 C   0  0  0  0  0  0  0  0  0  0  0  0
  -18.9320  -30.2040   23.9560 C   0  0  0  0  0  3  0  0  0  0  0  0
  -17.6350  -30.7130   24.1530 C   0  0  0  0  0  3  0  0  0  0  0  0
  -16.5160  -29.9710   23.7350 C   0  0  0  0  0  3  0  0  0  0  0  0
  -16.6980  -28.7220   23.1160 C   0  0  0  0  0  3  0  0  0  0  0  0
  -25.9400  -32.4590   23.8420 C   0  0  0  0  0  3  0  0  0  0  0  0
  -25.5980  -33.8650   24.1720 N   0  0  0  0  0  0  0  0  0  0  0  0
  -25.9200  -34.9450   23.4450 C   0  0  0  0  0  0  0  0  0  0  0  0
  -26.5760  -34.8640   22.4040 O   0  0  0  0  0  0  0  0  0  0  0  0
  -25.0070  -33.9990   24.9800 H   0  0  0  0  0  0  0  0  0  0  0  0
  -24.1680  -36.7480   23.1980 C   0  0  0  0  0  1  0  0  0  0  0  0
  -25.4480  -36.3330   23.9420 C   0  0  0  0  0  3  0  0  0  0  0  0
  -27.6060  -37.2470   24.6880 C   0  0  0  0  0  1  0  0  0  0  0  0
  -26.4650  -37.3980   23.7880 N   0  0  0  0  0  0  0  0  0  0  0  0
  -26.0550  -38.3150   23.9480 H   0  0  0  0  0  0  0  0  0  0  0  0
  -26.3960  -31.7200   25.1620 C   0  0  1  0  0  0  0  0  0  0  0  0
  -25.2580  -31.5140   26.1910 C   0  0  0  0  0  1  0  0  0  0  0  0
  -26.9880  -30.3300   24.8490 C   0  0  0  0  0  1  0  0  0  0  0  0
  -27.5230  -32.5250   25.8520 C   0  0  0  0  0  1  0  0  0  0  0  0
  -28.1400  -22.5480   20.1630 C   0  0  0  0  0 15  0  0  0  0  0  0
  -29.1420  -20.4180   20.2160 C   0  0  0  0  0 15  0  0  0  0  0  0
  -29.9010  -16.6470   20.0860 C   0  0  0  0  0  0  0  0  0  0  0  0
  -30.2300  -13.8900   19.2940 C   0  0  0  0  0  2  0  0  0  0  0  0
  -29.4480  -13.0530   18.1990 C   0  0  0  0  0  2  0  0  0  0  0  0
  -28.1340  -12.4820   18.7300 C   0  0  0  0  0  2  0  0  0  0  0  0
  -27.5010  -13.5140   19.6750 C   0  0  0  0  0  3  0  0  0  0  0  0
  -28.4750  -14.2100   20.6950 C   0  0  0  0  0  2  0  0  0  0  0  0
  -29.4550  -15.1290   19.9600 N   0  0  0  0  0  0  0  0  0  0  0  0
  -31.1430  -16.3980   20.0040 O   0  0  0  0  0  0  0  0  0  0  0  0
  -29.2570  -18.3100   20.1340 N   0  0  0  0  0  2  0  0  0  0  0  0
  -30.2580  -18.4710   20.1320 H   0  0  0  0  0  0  0  0  0  0  0  0
  -25.1600  -13.9200   20.5080 C   0  0  0  0  0  0  0  0  0  0  0  0
  -24.1280  -13.1120   20.8810 C   0  0  0  0  0  0  0  0  0  0  0  0
  -24.6260  -11.7720   20.8220 C   0  0  0  0  0  0  0  0  0  0  0  0
  -26.2240  -13.0860   20.2420 N   0  0  0  0  0  0  0  0  0  0  0  0
  -25.9190  -11.7780   20.4820 N   0  0  0  0  0  0  0  0  0  0  0  0
  -23.9140  -10.4950   21.0120 C   0  0  0  0  0  0  0  0  0  0  0  0
  -24.3570   -9.5290   21.9420 C   0  0  0  0  0  3  0  0  0  0  0  0
  -23.6350   -8.3280   22.1300 C   0  0  0  0  0  3  0  0  0  0  0  0
  -22.4560   -8.0830   21.3870 C   0  0  0  0  0  0  0  0  0  0  0  0
  -22.0290   -9.0390   20.4470 C   0  0  0  0  0  3  0  0  0  0  0  0
  -22.7510  -10.2310   20.2590 C   0  0  0  0  0  3  0  0  0  0  0  0
  -21.7070   -6.9350   21.4820 O   0  0  0  0  0  0  0  0  0  0  0  0
  -21.6700   -6.1910   22.6350 C   0  0  0  0  0  0  0  0  0  0  0  0
  -21.2140   -6.7320   23.8560 C   0  0  0  0  0  3  0  0  0  0  0  0
  -21.1260   -5.9140   25.0000 C   0  0  0  0  0  3  0  0  0  0  0  0
  -21.4850   -4.5540   24.9250 C   0  0  0  0  0  0  0  0  0  0  0  0
  -21.9340   -4.0110   23.7070 C   0  0  0  0  0  3  0  0  0  0  0  0
  -22.0220   -4.8270   22.5660 C   0  0  0  0  0  0  0  0  0  0  0  0
  -22.4340   -4.2930   21.3900 F   0  0  0  0  0  0  0  0  0  0  0  0
  -21.3950   -3.7660   26.0220 F   0  0  0  0  0  0  0  0  0  0  0  0
  -22.7270  -13.5620   21.1730 C   0  0  0  0  0  0  0  0  0  0  0  0
  -22.0260  -12.8570   22.0520 N   0  0  0  0  0  0  0  0  0  0  0  0
  -22.2670  -14.5820   20.6590 O   0  0  0  0  0  0  0  0  0  0  0  0
  -22.4140  -12.0340   22.4890 H   0  0  0  0  0  0  0  0  0  0  0  0
  -21.0880  -13.1430   22.2910 H   0  0  0  0  0  0  0  0  0  0  0  0
  -25.2790  -15.2960   20.3350 N   0  0  0  0  0  0  0  0  0  0  0  0
  -24.4980  -15.9290   20.4650 H   0  0  0  0  0  0  0  0  0  0  0  0
  -26.1180  -15.7610   20.0090 H   0  0  0  0  0  0  0  0  0  0  0  0
  2 13  2  0
  3  1  1  0
  3  8  1  0
  4 12  1  0
  4 14  1  0
  5 11  1  0
  5  7  1  0
  6 12  1  0
  7  6  1  0
  8  7  2  0
  9  3  2  0
 10  9  1  0
 10  5  2  0
 11  4  1  0
 12  2  1  0
 14 16  2  0
 15 14  1  0
 17 15  1  0
 18 27  2  0
 18 23  1  0
 19 15  1  0
 19 23  1  0
 20 19  1  0
 21 22  1  0
 21 20  1  0
 22 18  1  0
 23 24  2  0
 24 25  1  0
 26 25  2  0
 27 26  1  0
 28  2  1  0
 28 29  1  0
 28 38  1  0
 29 32  1  0
 30 34  1  0
 30 29  1  0
 31 30  2  0
 34 33  1  0
 36 34  1  0
 36 37  1  0
 36 35  1  0
 38 41  1  1
 38 39  1  0
 40 38  1  0
 44 52  1  0
 45 50  1  0
 46 47  1  0
 46 45  1  0
 48 47  1  0
 48 57  1  0
 48 49  1  0
 50 44  1  0
 50 49  1  0
 51 44  2  0
 53 52  1  0
 54 55  2  0
 55 74  1  0
 56 55  1  0
 56 59  1  0
 57 58  1  0
 57 54  1  0
 58 56  2  0
 59 60  1  0
 60 61  2  0
 62 65  1  0
 62 61  1  0
 63 62  2  0
 64 63  1  0
 64 59  2  0
 65 66  1  0
 66 67  1  0
 67 68  2  0
 69 68  1  0
 69 73  1  0
 70 69  2  0
 71 66  2  0
 71 70  1  0
 72 71  1  0
 74 75  1  0
 75 78  1  0
 75 77  1  0
 76 74  2  0
 79 80  1  0
 79 54  1  0
 81 79  1  0
M  ISO  4   1 101  42 101  44 100  52 100
M  END
>  <TORSDO>  (15) 
F 17

>  <SCORE>  (15) 
-16.141

>  <name>  (15) 
14

>  <ligand_id>  (15) 
14

>  <original_smiles>  (15) 
[H]c1c([H])c([H])c2c(c1[H])C([H])([H])C([H])([H])C([H])([H])C2([H])N([H])C(=O)C1([H])N(C(=O)C([H])(N([H])C(=O)C([H])(N([H])C([H])([H])[H])C([H])([H])[H])C(C([H])([H])[H])(C([H])([H])[H])C([H])([H])[H])C([H])([H])c2c([H])c(OC([H])([H])C([H])([H])N([H])C(=O)N3C([H])([H])C([H])([H])C([H])([H])C([H])(n4nc(-c5c([H])c([H])c(Oc6c([H])c([H])c(F)c([H])c6F)c([H])c5[H])c(C(=O)N([H])[H])c4N([H])[H])C3([H])[H])c([H])c([H])c2C1([H])[H]

>  <smiles>  (15) 
[H]c1c([H])c([H])c2c(c1[H])C([H])([H])C([H])([H])C([H])([H])C2([H])N([H])C(=O)C1([H])N(C(=O)C([H])(N([H])C(=O)C([H])(N([H])C([H])([H])[H])C([H])([H])[H])C(C([H])([H])[H])(C([H])([H])[H])C([H])([H])[H])C([H])([H])c2c([H])c(OC([H])([H])C([H])([H])N([H])C(=O)N3C([H])([H])C([H])([H])C([H])([H])C([H])(n4nc(-c5c([H])c([H])c(Oc6c([H])c([H])c(F)c([H])c6F)c([H])c5[H])c(C(=O)N([H])[H])c4N([H])[H])C3([H])[H])c([H])c([H])c2C1([H])[H]

$$$$
15:0:0
     RDKit          3D

 93100  0  0  1  0  0  0  0  0999 V2000
  -30.1660  -20.1470   20.2770 N   0  0  0  0  0  4  0  0  0  0  0  0
  -30.7110  -20.0710   21.1220 H   0  0  0  0  0  0  0  0  0  0  0  0
  -30.8030  -20.4550   19.5620 H   0  0  0  0  0  0  0  0  0  0  0  0
  -29.1420  -21.2630   20.5350 C   0  0  0  0  0  3  0  0  0  0  0  0
  -29.3860  -22.7160   19.8840 C   0  0  0  0  0  3  0  0  0  0  0  0
  -28.5300  -23.9800   20.4050 C   0  0  0  0  0  2  0  0  0  0  0  0
  -28.5330  -25.3470   19.5600 C   0  0  0  0  0  2  0  0  0  0  0  0
  -28.3220  -26.6680   20.2060 O   0  0  0  0  0  0  0  0  0  0  0  0
  -24.5190  -31.9670   23.2440 C   0  0  0  0  0  0  0  0  0  0  0  0
  -27.1480  -27.4380   20.1440 C   0  0  0  0  0  0  0  0  0  0  0  0
  -23.3020  -30.5590   21.6160 C   0  0  0  0  0  3  0  0  0  0  0  0
  -24.7500  -29.0120   20.1690 C   0  0  0  0  0  0  0  0  0  0  0  0
  -25.8330  -30.8990   21.3990 C   0  0  0  0  0  2  0  0  0  0  0  0
  -25.9150  -29.5190   20.7530 C   0  0  0  0  0  0  0  0  0  0  0  0
  -27.1080  -28.7400   20.7340 C   0  0  0  0  0  3  0  0  0  0  0  0
  -25.9540  -26.9730   19.5480 C   0  0  0  0  0  3  0  0  0  0  0  0
  -24.7710  -27.7440   19.5600 C   0  0  0  0  0  3  0  0  0  0  0  0
  -23.5000  -29.8690   20.2380 C   0  0  0  0  0  2  0  0  0  0  0  0
  -24.5700  -31.1620   22.1430 N   0  0  0  0  0  0  0  0  0  0  0  0
  -23.4420  -32.2360   23.7960 O   0  0  0  0  0  0  0  0  0  0  0  0
  -22.6580  -29.5440   22.5910 C   0  0  0  0  0  0  0  0  0  0  0  0
  -21.3350  -29.3430   22.4680 N   0  0  0  0  0  0  0  0  0  0  0  0
  -23.3490  -28.9370   23.4130 O   0  0  0  0  0  0  0  0  0  0  0  0
  -20.8330  -29.8900   21.7840 H   0  0  0  0  0  0  0  0  0  0  0  0
  -17.9850  -28.0730   22.9690 C   0  0  0  0  0  0  0  0  0  0  0  0
  -20.5360  -28.3950   23.2470 C   0  0  0  0  0  3  0  0  0  0  0  0
  -20.6720  -26.9580   22.6920 C   0  0  0  0  0  2  0  0  0  0  0  0
  -19.5840  -26.5990   21.6740 C   0  0  0  0  0  2  0  0  0  0  0  0
  -18.1970  -26.7210   22.3110 C   0  0  0  0  0  2  0  0  0  0  0  0
  -19.0840  -28.8670   23.3960 C   0  0  0  0  0  0  0  0  0  0  0  0
  -18.8330  -30.1320   23.9710 C   0  0  0  0  0  3  0  0  0  0  0  0
  -17.5160  -30.6060   24.1230 C   0  0  0  0  0  3  0  0  0  0  0  0
  -16.4320  -29.8100   23.7140 C   0  0  0  0  0  3  0  0  0  0  0  0
  -16.6670  -28.5460   23.1440 C   0  0  0  0  0  3  0  0  0  0  0  0
  -25.8070  -32.6070   23.8500 C   0  0  0  0  0  3  0  0  0  0  0  0
  -25.4960  -34.0070   24.1800 N   0  0  0  0  0  0  0  0  0  0  0  0
  -25.8350  -35.0600   23.4230 C   0  0  0  0  0  0  0  0  0  0  0  0
  -26.5080  -34.9570   22.3950 O   0  0  0  0  0  0  0  0  0  0  0  0
  -24.9000  -34.1600   24.9800 H   0  0  0  0  0  0  0  0  0  0  0  0
  -24.1170  -36.8610   23.0630 C   0  0  0  0  0  1  0  0  0  0  0  0
  -25.3510  -36.4510   23.8820 C   0  0  0  0  0  3  0  0  0  0  0  0
  -27.4830  -37.3240   24.7320 C   0  0  0  0  0  1  0  0  0  0  0  0
  -26.3910  -37.5000   23.7790 N   0  0  0  0  0  0  0  0  0  0  0  0
  -25.9870  -38.4220   23.9290 H   0  0  0  0  0  0  0  0  0  0  0  0
  -26.3440  -31.8430   25.1220 C   0  0  1  0  0  0  0  0  0  0  0  0
  -25.2630  -31.5980   26.2010 C   0  0  0  0  0  1  0  0  0  0  0  0
  -26.9310  -30.4690   24.7260 C   0  0  0  0  0  1  0  0  0  0  0  0
  -27.4970  -32.6460   25.7700 C   0  0  0  0  0  1  0  0  0  0  0  0
  -29.7040  -18.7290   19.9220 C   0  0  0  0  0  3  0  0  0  0  0  0
  -28.6780  -17.6260   17.7580 C   0  0  0  0  0  1  0  0  0  0  0  0
  -29.6340  -18.6600   18.3720 C   0  0  0  0  0  2  0  0  0  0  0  0
  -30.5790  -17.4830   20.5390 C   0  0  0  0  0  3  0  0  0  0  0  0
  -30.6400  -14.8890   20.0800 C   0  0  0  0  0  0  0  0  0  0  0  0
  -30.4100  -12.6590   18.9360 C   0  0  0  0  0  2  0  0  0  0  0  0
  -29.3850  -12.7320   17.7830 C   0  0  0  0  0  2  0  0  0  0  0  0
  -27.9380  -12.5340   18.2870 C   0  0  0  0  0  2  0  0  0  0  0  0
  -27.6430  -13.3520   19.5710 C   0  0  0  0  0  3  0  0  0  0  0  0
  -28.7810  -13.1510   20.6000 C   0  0  0  0  0  2  0  0  0  0  0  0
  -30.0070  -13.6580   19.9630 N   0  0  0  0  0  0  0  0  0  0  0  0
  -31.8030  -14.9670   19.6660 O   0  0  0  0  0  0  0  0  0  0  0  0
  -28.5660  -16.1980   20.9050 C   0  0  0  0  0  1  0  0  0  0  0  0
  -29.9640  -16.0740   20.4540 N   0  0  0  0  0  0  0  0  0  0  0  0
  -25.2890  -13.9630   20.4000 C   0  0  0  0  0  0  0  0  0  0  0  0
  -24.2410  -13.1910   20.8180 C   0  0  0  0  0  0  0  0  0  0  0  0
  -24.7000  -11.8400   20.7510 C   0  0  0  0  0  0  0  0  0  0  0  0
  -26.3210  -13.0820   20.1160 N   0  0  0  0  0  0  0  0  0  0  0  0
  -25.9740  -11.7980   20.3820 N   0  0  0  0  0  0  0  0  0  0  0  0
  -23.9790  -10.5780   20.9550 C   0  0  0  0  0  0  0  0  0  0  0  0
  -24.4320   -9.6140   21.8820 C   0  0  0  0  0  3  0  0  0  0  0  0
  -23.7100   -8.4170   22.0780 C   0  0  0  0  0  3  0  0  0  0  0  0
  -22.5230   -8.1790   21.3440 C   0  0  0  0  0  0  0  0  0  0  0  0
  -22.0900   -9.1320   20.4030 C   0  0  0  0  0  3  0  0  0  0  0  0
  -22.8140  -10.3200   20.2070 C   0  0  0  0  0  3  0  0  0  0  0  0
  -21.7740   -7.0310   21.4490 O   0  0  0  0  0  0  0  0  0  0  0  0
  -21.7200   -6.3130   22.6140 C   0  0  0  0  0  0  0  0  0  0  0  0
  -21.2740   -6.8860   23.8280 C   0  0  0  0  0  3  0  0  0  0  0  0
  -21.1730   -6.0900   24.9880 C   0  0  0  0  0  3  0  0  0  0  0  0
  -21.5050   -4.7220   24.9320 C   0  0  0  0  0  0  0  0  0  0  0  0
  -21.9420   -4.1490   23.7260 C   0  0  0  0  0  3  0  0  0  0  0  0
  -22.0460   -4.9410   22.5700 C   0  0  0  0  0  0  0  0  0  0  0  0
  -22.4460   -4.3810   21.4030 F   0  0  0  0  0  0  0  0  0  0  0  0
  -21.4030   -3.9530   26.0410 F   0  0  0  0  0  0  0  0  0  0  0  0
  -22.8630  -13.6690   21.1640 C   0  0  0  0  0  0  0  0  0  0  0  0
  -22.1750  -12.9640   22.0570 N   0  0  0  0  0  0  0  0  0  0  0  0
  -22.3990  -14.7000   20.6770 O   0  0  0  0  0  0  0  0  0  0  0  0
  -22.5500  -12.1240   22.4710 H   0  0  0  0  0  0  0  0  0  0  0  0
  -21.2500  -13.2730   22.3250 H   0  0  0  0  0  0  0  0  0  0  0  0
  -25.4330  -15.3350   20.2210 N   0  0  0  0  0  0  0  0  0  0  0  0
  -24.6700  -15.9820   20.3850 H   0  0  0  0  0  0  0  0  0  0  0  0
  -26.2540  -15.7800   19.8340 H   0  0  0  0  0  0  0  0  0  0  0  0
  -32.2850  -18.7070   22.0570 C   0  0  0  0  0  1  0  0  0  0  0  0
  -31.3180  -16.5790   22.9290 C   0  0  0  0  0  1  0  0  0  0  0  0
  -31.0410  -17.7950   22.0130 C   0  0  0  0  0  3  0  0  0  0  0  0
  1  4  1  0
  1  2  1  0
  3  1  1  0
  5  6  1  0
  5  4  2  0
  7  8  1  0
  7  6  1  0
  9 20  2  0
 10  8  1  0
 10 15  1  0
 11 19  1  0
 11 21  1  0
 12 18  1  0
 12 14  1  0
 13 19  1  0
 14 13  1  0
 15 14  2  0
 16 17  1  0
 16 10  2  0
 17 12  2  0
 18 11  1  0
 19  9  1  0
 21 23  2  0
 22 21  1  0
 24 22  1  0
 25 34  2  0
 25 30  1  0
 26 22  1  0
 26 30  1  0
 27 26  1  0
 28 29  1  0
 28 27  1  0
 29 25  1  0
 30 31  2  0
 31 32  1  0
 33 32  2  0
 34 33  1  0
 35  9  1  0
 35 36  1  0
 35 45  1  0
 36 39  1  0
 37 41  1  0
 37 36  1  0
 38 37  2  0
 41 40  1  0
 43 41  1  0
 43 44  1  0
 43 42  1  0
 45 48  1  1
 45 46  1  0
 47 45  1  0
 49 51  1  0
 49  1  1  0
 49 52  1  0
 50 51  1  0
 52 93  1  0
 53 62  1  0
 54 59  1  0
 55 56  1  0
 55 54  1  0
 57 56  1  0
 57 66  1  0
 57 58  1  0
 59 53  1  0
 59 58  1  0
 60 53  2  0
 62 52  1  0
 62 61  1  0
 63 64  2  0
 64 83  1  0
 65 64  1  0
 65 68  1  0
 66 67  1  0
 66 63  1  0
 67 65  2  0
 68 69  1  0
 69 70  2  0
 71 74  1  0
 71 70  1  0
 72 71  2  0
 73 72  1  0
 73 68  2  0
 74 75  1  0
 75 76  1  0
 76 77  2  0
 78 77  1  0
 78 82  1  0
 79 78  2  0
 80 75  2  0
 80 79  1  0
 81 80  1  0
 83 84  1  0
 84 87  1  0
 84 86  1  0
 85 83  2  0
 88 89  1  0
 88 63  1  0
 90 88  1  0
 93 91  1  0
 93 92  1  0
M  ISO  4   7 101   8 101  53 100  62 100
M  END
>  <TORSDO>  (16) 
F 24

>  <SCORE>  (16) 
-11.233

>  <name>  (16) 
15

>  <ligand_id>  (16) 
15

>  <original_smiles>  (16) 
[H]c1c([H])c([H])c2c(c1[H])C([H])([H])C([H])([H])C([H])([H])C2([H])N([H])C(=O)C1([H])N(C(=O)C([H])(N([H])C(=O)C([H])(N([H])C([H])([H])[H])C([H])([H])[H])C(C([H])([H])[H])(C([H])([H])[H])C([H])([H])[H])C([H])([H])c2c([H])c(OC([H])([H])C([H])([H])C([H])([H])C([H])([H])[N+]([H])([H])C([H])(C([H])([H])C([H])([H])[H])C([H])(N(C(=O)N3C([H])([H])C([H])([H])C([H])([H])C([H])(n4nc(-c5c([H])c([H])c(Oc6c([H])c([H])c(F)c([H])c6F)c([H])c5[H])c(C(=O)N([H])[H])c4N([H])[H])C3([H])[H])C([H])([H])[H])C([H])(C([H])([H])[H])C([H])([H])[H])c([H])c([H])c2C1([H])[H]

>  <smiles>  (16) 
[H]c1c([H])c([H])c2c(c1[H])C([H])([H])C([H])([H])C([H])([H])C2([H])N([H])C(=O)C1([H])N(C(=O)C([H])(N([H])C(=O)C([H])(N([H])C([H])([H])[H])C([H])([H])[H])C(C([H])([H])[H])(C([H])([H])[H])C([H])([H])[H])C([H])([H])c2c([H])c(OC([H])([H])C([H])([H])C([H])([H])C([H])([H])[N+]([H])([H])C([H])(C([H])([H])C([H])([H])[H])C([H])(N(C(=O)N3C([H])([H])C([H])([H])C([H])([H])C([H])(n4nc(-c5c([H])c([H])c(Oc6c([H])c([H])c(F)c([H])c6F)c([H])c5[H])c(C(=O)N([H])[H])c4N([H])[H])C3([H])[H])C([H])([H])[H])C([H])(C([H])([H])[H])C([H])([H])[H])c([H])c([H])c2C1([H])[H]

$$$$
16:0:0
     RDKit          3D

 91 98  0  0  1  0  0  0  0  0999 V2000
  -29.7910  -19.3610   20.3550 C   0  0  0  0  0  0  0  0  0  0  0  0
  -28.9740  -20.4650   20.7100 N   0  0  0  0  0  0  0  0  0  0  0  0
  -30.7240  -19.5760   19.5820 O   0  0  0  0  0  0  0  0  0  0  0  0
  -28.1700  -20.1880   21.2610 H   0  0  0  0  0  0  0  0  0  0  0  0
  -29.2540  -22.0220   20.7950 C   0  0  0  0  0  2  0  0  0  0  0  0
  -28.7910  -23.4290   18.6460 C   0  0  0  0  0  1  0  0  0  0  0  0
  -28.3880  -23.3010   20.1220 C   0  0  0  0  0  3  0  0  0  0  0  0
  -28.3420  -24.8330   20.8280 C   0  0  0  0  0  2  0  0  0  0  0  0
  -28.3350  -26.2580   20.2180 O   0  0  0  0  0  0  0  0  0  0  0  0
  -24.6260  -31.8790   23.2480 C   0  0  0  0  0  0  0  0  0  0  0  0
  -27.2340  -27.1730   20.2690 C   0  0  0  0  0  0  0  0  0  0  0  0
  -23.4360  -30.4700   21.6120 C   0  0  0  0  0  3  0  0  0  0  0  0
  -24.8930  -28.8830   20.2130 C   0  0  0  0  0  0  0  0  0  0  0  0
  -25.9870  -30.7480   21.4530 C   0  0  0  0  0  2  0  0  0  0  0  0
  -26.0670  -29.3520   20.8170 C   0  0  0  0  0  0  0  0  0  0  0  0
  -27.2430  -28.5150   20.8170 C   0  0  0  0  0  3  0  0  0  0  0  0
  -26.0320  -26.7850   19.6470 C   0  0  0  0  0  3  0  0  0  0  0  0
  -24.8850  -27.6130   19.6150 C   0  0  0  0  0  3  0  0  0  0  0  0
  -23.6650  -29.7830   20.2400 C   0  0  0  0  0  2  0  0  0  0  0  0
  -24.7020  -31.0570   22.1590 N   0  0  0  0  0  0  0  0  0  0  0  0
  -23.5360  -32.1650   23.7690 O   0  0  0  0  0  0  0  0  0  0  0  0
  -22.7560  -29.4690   22.5780 C   0  0  0  0  0  0  0  0  0  0  0  0
  -21.4290  -29.2940   22.4460 N   0  0  0  0  0  0  0  0  0  0  0  0
  -23.4250  -28.8490   23.4090 O   0  0  0  0  0  0  0  0  0  0  0  0
  -20.9440  -29.8420   21.7490 H   0  0  0  0  0  0  0  0  0  0  0  0
  -18.0500  -28.0840   22.9350 C   0  0  0  0  0  0  0  0  0  0  0  0
  -20.6060  -28.3630   23.2220 C   0  0  0  0  0  3  0  0  0  0  0  0
  -20.7210  -26.9240   22.6650 C   0  0  0  0  0  2  0  0  0  0  0  0
  -19.6310  -26.5850   21.6460 C   0  0  0  0  0  2  0  0  0  0  0  0
  -18.2400  -26.7300   22.2730 C   0  0  0  0  0  2  0  0  0  0  0  0
  -19.1620  -28.8580   23.3660 C   0  0  0  0  0  0  0  0  0  0  0  0
  -18.9320  -30.1230   23.9470 C   0  0  0  0  0  3  0  0  0  0  0  0
  -17.6230  -30.6180   24.1000 C   0  0  0  0  0  3  0  0  0  0  0  0
  -16.5250  -29.8440   23.6830 C   0  0  0  0  0  3  0  0  0  0  0  0
  -16.7400  -28.5790   23.1070 C   0  0  0  0  0  3  0  0  0  0  0  0
  -25.8990  -32.5230   23.8770 C   0  0  0  0  0  3  0  0  0  0  0  0
  -25.5830  -33.9230   24.2020 N   0  0  0  0  0  0  0  0  0  0  0  0
  -25.9140  -34.9770   23.4450 C   0  0  0  0  0  0  0  0  0  0  0  0
  -26.5870  -34.8740   22.4160 O   0  0  0  0  0  0  0  0  0  0  0  0
  -24.9910  -34.0770   25.0060 H   0  0  0  0  0  0  0  0  0  0  0  0
  -24.1790  -36.7620   23.0960 C   0  0  0  0  0  1  0  0  0  0  0  0
  -25.4260  -36.3670   23.9010 C   0  0  0  0  0  3  0  0  0  0  0  0
  -27.5630  -37.2570   24.7170 C   0  0  0  0  0  1  0  0  0  0  0  0
  -26.4550  -37.4230   23.7790 N   0  0  0  0  0  0  0  0  0  0  0  0
  -26.0500  -38.3440   23.9280 H   0  0  0  0  0  0  0  0  0  0  0  0
  -26.4070  -31.7640   25.1650 C   0  0  1  0  0  0  0  0  0  0  0  0
  -25.3060  -31.5370   26.2290 C   0  0  0  0  0  1  0  0  0  0  0  0
  -26.9950  -30.3820   24.7950 C   0  0  0  0  0  1  0  0  0  0  0  0
  -27.5540  -32.5620   25.8270 C   0  0  0  0  0  1  0  0  0  0  0  0
  -29.7500  -17.8460   21.0280 C   0  0  0  0  0  3  0  0  0  0  0  0
  -30.9100  -17.8050   21.9370 N   0  0  0  0  0  4  0  0  0  0  0  0
  -30.8320  -17.0830   22.6270 H   0  0  0  0  0  0  0  0  0  0  0  0
  -30.9730  -18.6860   22.4130 H   0  0  0  0  0  0  0  0  0  0  0  0
  -31.7600  -17.6870   21.4130 H   0  0  0  0  0  0  0  0  0  0  0  0
  -29.5860  -16.3690   20.2210 C   0  0  0  0  0  2  0  0  0  0  0  0
  -30.4550  -14.9510   20.3090 C   0  0  0  0  0  0  0  0  0  0  0  0
  -30.3510  -12.5990   19.3770 C   0  0  0  0  0  2  0  0  0  0  0  0
  -29.4130  -12.5830   18.1440 C   0  0  0  0  0  2  0  0  0  0  0  0
  -27.9460  -12.3750   18.5710 C   0  0  0  0  0  2  0  0  0  0  0  0
  -27.5440  -13.2960   19.7500 C   0  0  0  0  0  3  0  0  0  0  0  0
  -28.5990  -13.2850   20.8760 C   0  0  0  0  0  2  0  0  0  0  0  0
  -29.8840  -13.6780   20.2890 N   0  0  0  0  0  0  0  0  0  0  0  0
  -31.6720  -15.0100   20.0960 O   0  0  0  0  0  0  0  0  0  0  0  0
  -25.1680  -13.8810   20.4970 C   0  0  0  0  0  0  0  0  0  0  0  0
  -24.1020  -13.1090   20.8730 C   0  0  0  0  0  0  0  0  0  0  0  0
  -24.5660  -11.7580   20.8460 C   0  0  0  0  0  0  0  0  0  0  0  0
  -26.2070  -13.0010   20.2530 N   0  0  0  0  0  0  0  0  0  0  0  0
  -25.8550  -11.7190   20.5310 N   0  0  0  0  0  0  0  0  0  0  0  0
  -23.8380  -10.4970   21.0440 C   0  0  0  0  0  0  0  0  0  0  0  0
  -24.2820   -9.5260   21.9690 C   0  0  0  0  0  3  0  0  0  0  0  0
  -23.5560   -8.3300   22.1530 C   0  0  0  0  0  3  0  0  0  0  0  0
  -22.3710   -8.0960   21.4140 C   0  0  0  0  0  0  0  0  0  0  0  0
  -21.9490   -9.0550   20.4770 C   0  0  0  0  0  3  0  0  0  0  0  0
  -22.6750  -10.2440   20.2910 C   0  0  0  0  0  3  0  0  0  0  0  0
  -21.6150   -6.9530   21.5070 O   0  0  0  0  0  0  0  0  0  0  0  0
  -21.5920   -6.2000   22.6540 C   0  0  0  0  0  0  0  0  0  0  0  0
  -21.2110   -6.7460   23.8980 C   0  0  0  0  0  3  0  0  0  0  0  0
  -21.1340   -5.9180   25.0360 C   0  0  0  0  0  3  0  0  0  0  0  0
  -21.4270   -4.5450   24.9300 C   0  0  0  0  0  0  0  0  0  0  0  0
  -21.8000   -3.9990   23.6900 C   0  0  0  0  0  3  0  0  0  0  0  0
  -21.8800   -4.8240   22.5550 C   0  0  0  0  0  0  0  0  0  0  0  0
  -22.2200   -4.2880   21.3580 F   0  0  0  0  0  0  0  0  0  0  0  0
  -21.3460   -3.7480   26.0210 F   0  0  0  0  0  0  0  0  0  0  0  0
  -22.7050  -13.5880   21.1440 C   0  0  0  0  0  0  0  0  0  0  0  0
  -21.9810  -12.8970   22.0140 N   0  0  0  0  0  0  0  0  0  0  0  0
  -22.2690  -14.6110   20.6170 O   0  0  0  0  0  0  0  0  0  0  0  0
  -22.3460  -12.0690   22.4590 H   0  0  0  0  0  0  0  0  0  0  0  0
  -21.0420  -13.1990   22.2380 H   0  0  0  0  0  0  0  0  0  0  0  0
  -25.3320  -15.2510   20.3150 N   0  0  0  0  0  0  0  0  0  0  0  0
  -24.5570  -15.9010   20.4070 H   0  0  0  0  0  0  0  0  0  0  0  0
  -26.1690  -15.6820   19.9450 H   0  0  0  0  0  0  0  0  0  0  0  0
  1  2  1  0
  1 50  1  0
  2  5  1  0
  2  4  1  0
  3  1  2  0
  7  6  1  0
  7  5  1  0
  7  8  1  0
  9 11  1  0
  9  8  1  0
 10 21  2  0
 11 16  1  0
 12 20  1  0
 12 22  1  0
 13 19  1  0
 13 15  1  0
 14 20  1  0
 15 14  1  0
 16 15  2  0
 17 11  2  0
 18 17  1  0
 18 13  2  0
 19 12  1  0
 20 10  1  0
 22 24  2  0
 23 22  1  0
 25 23  1  0
 26 35  2  0
 26 31  1  0
 27 23  1  0
 27 31  1  0
 28 27  1  0
 29 30  1  0
 29 28  1  0
 30 26  1  0
 31 32  2  0
 32 33  1  0
 34 33  2  0
 35 34  1  0
 36 10  1  0
 36 37  1  0
 36 46  1  0
 37 40  1  0
 38 42  1  0
 38 37  1  0
 39 38  2  0
 42 41  1  0
 44 42  1  0
 44 45  1  0
 44 43  1  0
 46 49  1  1
 46 47  1  0
 48 46  1  0
 50 55  1  0
 50 51  1  0
 51 53  1  0
 51 52  1  0
 54 51  1  0
 55 56  1  0
 57 62  1  0
 58 59  1  0
 58 57  1  0
 60 59  1  0
 60 67  1  0
 60 61  1  0
 62 56  1  0
 62 61  1  0
 63 56  2  0
 64 65  2  0
 65 84  1  0
 66 65  1  0
 66 69  1  0
 67 64  1  0
 67 68  1  0
 68 66  2  0
 69 70  1  0
 70 71  2  0
 72 75  1  0
 72 71  1  0
 73 72  2  0
 74 73  1  0
 74 69  2  0
 75 76  1  0
 76 77  1  0
 77 78  2  0
 79 78  1  0
 79 83  1  0
 80 79  2  0
 81 76  2  0
 81 80  1  0
 82 81  1  0
 84 85  1  0
 85 88  1  0
 85 87  1  0
 86 84  2  0
 89 90  1  0
 89 64  1  0
 91 89  1  0
M  ISO  4   8 101   9 101  55 100  56 100
M  END
>  <TORSDO>  (17) 
F 22

>  <SCORE>  (17) 
-13.298

>  <name>  (17) 
16

>  <ligand_id>  (17) 
16

>  <original_smiles>  (17) 
[H]c1c([H])c([H])c2c(c1[H])C([H])([H])C([H])([H])C([H])([H])C2([H])N([H])C(=O)C1([H])N(C(=O)C([H])(N([H])C(=O)C([H])(N([H])C([H])([H])[H])C([H])([H])[H])C(C([H])([H])[H])(C([H])([H])[H])C([H])([H])[H])C([H])([H])c2c([H])c(OC([H])([H])C([H])(C([H])([H])[H])C([H])([H])N([H])C(=O)C([H])(C([H])([H])C(=O)N3C([H])([H])C([H])([H])C([H])([H])C([H])(n4nc(-c5c([H])c([H])c(Oc6c([H])c([H])c(F)c([H])c6F)c([H])c5[H])c(C(=O)N([H])[H])c4N([H])[H])C3([H])[H])[N+]([H])([H])[H])c([H])c([H])c2C1([H])[H]

>  <smiles>  (17) 
[H]c1c([H])c([H])c2c(c1[H])C([H])([H])C([H])([H])C([H])([H])C2([H])N([H])C(=O)C1([H])N(C(=O)C([H])(N([H])C(=O)C([H])(N([H])C([H])([H])[H])C([H])([H])[H])C(C([H])([H])[H])(C([H])([H])[H])C([H])([H])[H])C([H])([H])c2c([H])c(OC([H])([H])C([H])(C([H])([H])[H])C([H])([H])N([H])C(=O)C([H])(C([H])([H])C(=O)N3C([H])([H])C([H])([H])C([H])([H])C([H])(n4nc(-c5c([H])c([H])c(Oc6c([H])c([H])c(F)c([H])c6F)c([H])c5[H])c(C(=O)N([H])[H])c4N([H])[H])C3([H])[H])[N+]([H])([H])[H])c([H])c([H])c2C1([H])[H]

$$$$
17:0:0
     RDKit          3D

 88 95  0  0  1  0  0  0  0  0999 V2000
  -28.5920  -21.9290   20.4330 C   0  0  0  0  0  0  0  0  0  0  0  0
  -27.2710  -21.7260   20.5940 N   0  0  0  0  0  4  0  0  0  0  0  0
  -29.4010  -20.7520   20.3870 N   0  0  0  0  0  0  0  0  0  0  0  0
  -26.6270  -22.4990   20.6880 H   0  0  0  0  0  0  0  0  0  0  0  0
  -26.8670  -20.8060   20.6700 H   0  0  0  0  0  0  0  0  0  0  0  0
  -30.3940  -20.9150   20.2640 H   0  0  0  0  0  0  0  0  0  0  0  0
  -29.0720  -23.4900   20.3660 C   0  0  0  0  0  3  0  0  0  0  0  0
  -28.0110  -24.7560   20.0860 C   0  0  0  0  0  3  0  0  0  0  0  0
  -28.2810  -26.2770   20.2250 O   0  0  0  0  0  0  0  0  0  0  0  0
  -24.6400  -31.9110   23.2300 C   0  0  0  0  0  0  0  0  0  0  0  0
  -27.2110  -27.2350   20.1690 C   0  0  0  0  0  0  0  0  0  0  0  0
  -23.4310  -30.5220   21.5880 C   0  0  0  0  0  3  0  0  0  0  0  0
  -24.8720  -28.9550   20.1560 C   0  0  0  0  0  0  0  0  0  0  0  0
  -25.9830  -30.7970   21.4120 C   0  0  0  0  0  2  0  0  0  0  0  0
  -26.0540  -29.4090   20.7560 C   0  0  0  0  0  0  0  0  0  0  0  0
  -27.2260  -28.5660   20.7430 C   0  0  0  0  0  3  0  0  0  0  0  0
  -25.9990  -26.8720   19.5380 C   0  0  0  0  0  3  0  0  0  0  0  0
  -24.8550  -27.6970   19.5350 C   0  0  0  0  0  3  0  0  0  0  0  0
  -23.6450  -29.8470   20.2090 C   0  0  0  0  0  2  0  0  0  0  0  0
  -24.7050  -31.0980   22.1320 N   0  0  0  0  0  0  0  0  0  0  0  0
  -23.5570  -32.1940   23.7640 O   0  0  0  0  0  0  0  0  0  0  0  0
  -22.7560  -29.5130   22.5500 C   0  0  0  0  0  0  0  0  0  0  0  0
  -21.4290  -29.3440   22.4270 N   0  0  0  0  0  0  0  0  0  0  0  0
  -23.4310  -28.8810   23.3680 O   0  0  0  0  0  0  0  0  0  0  0  0
  -20.9430  -29.9020   21.7390 H   0  0  0  0  0  0  0  0  0  0  0  0
  -18.0430  -28.1600   22.9420 C   0  0  0  0  0  0  0  0  0  0  0  0
  -20.6060  -28.4080   23.1980 C   0  0  0  0  0  3  0  0  0  0  0  0
  -20.6970  -26.9780   22.6160 C   0  0  0  0  0  2  0  0  0  0  0  0
  -19.5880  -26.6660   21.6060 C   0  0  0  0  0  2  0  0  0  0  0  0
  -18.2100  -26.8150   22.2570 C   0  0  0  0  0  2  0  0  0  0  0  0
  -19.1690  -28.9150   23.3690 C   0  0  0  0  0  0  0  0  0  0  0  0
  -18.9570  -30.1760   23.9680 C   0  0  0  0  0  3  0  0  0  0  0  0
  -17.6550  -30.6800   24.1480 C   0  0  0  0  0  3  0  0  0  0  0  0
  -16.5460  -29.9220   23.7360 C   0  0  0  0  0  3  0  0  0  0  0  0
  -16.7420  -28.6640   23.1370 C   0  0  0  0  0  3  0  0  0  0  0  0
  -25.9220  -32.5400   23.8540 C   0  0  0  0  0  3  0  0  0  0  0  0
  -25.6130  -33.9360   24.2010 N   0  0  0  0  0  0  0  0  0  0  0  0
  -25.9180  -34.9980   23.4430 C   0  0  0  0  0  0  0  0  0  0  0  0
  -26.5600  -34.9060   22.3920 O   0  0  0  0  0  0  0  0  0  0  0  0
  -25.0440  -34.0810   25.0210 H   0  0  0  0  0  0  0  0  0  0  0  0
  -24.1640  -36.7790   23.1660 C   0  0  0  0  0  1  0  0  0  0  0  0
  -25.4390  -36.3800   23.9260 C   0  0  0  0  0  3  0  0  0  0  0  0
  -27.5940  -37.2830   24.6800 C   0  0  0  0  0  1  0  0  0  0  0  0
  -26.4580  -37.4430   23.7770 N   0  0  0  0  0  0  0  0  0  0  0  0
  -26.0490  -38.3590   23.9400 H   0  0  0  0  0  0  0  0  0  0  0  0
  -26.4380  -31.7610   25.1260 C   0  0  1  0  0  0  0  0  0  0  0  0
  -25.3460  -31.5200   26.1950 C   0  0  0  0  0  1  0  0  0  0  0  0
  -27.0190  -30.3840   24.7290 C   0  0  0  0  0  1  0  0  0  0  0  0
  -27.5890  -32.5510   25.7930 C   0  0  0  0  0  1  0  0  0  0  0  0
  -29.0300  -19.2160   20.5310 C   0  0  0  0  0  3  0  0  0  0  0  0
  -30.0950  -17.9280   20.4010 C   0  0  0  0  0  3  0  0  0  0  0  0
  -29.6450  -16.3370   20.6870 C   0  0  0  0  0  2  0  0  0  0  0  0
  -30.5090  -14.9660   20.3690 C   0  0  0  0  0  0  0  0  0  0  0  0
  -30.3970  -12.6380   19.3750 C   0  0  0  0  0  2  0  0  0  0  0  0
  -29.4490  -12.6470   18.1480 C   0  0  0  0  0  2  0  0  0  0  0  0
  -27.9830  -12.4470   18.5780 C   0  0  0  0  0  2  0  0  0  0  0  0
  -27.5950  -13.3460   19.7810 C   0  0  0  0  0  3  0  0  0  0  0  0
  -28.6550  -13.3000   20.9010 C   0  0  0  0  0  2  0  0  0  0  0  0
  -29.9410  -13.6970   20.3160 N   0  0  0  0  0  0  0  0  0  0  0  0
  -31.6950  -15.0680   20.0330 O   0  0  0  0  0  0  0  0  0  0  0  0
  -25.2140  -13.9310   20.5230 C   0  0  0  0  0  0  0  0  0  0  0  0
  -24.1480  -13.1570   20.8910 C   0  0  0  0  0  0  0  0  0  0  0  0
  -24.6110  -11.8060   20.8550 C   0  0  0  0  0  0  0  0  0  0  0  0
  -26.2560  -13.0520   20.2790 N   0  0  0  0  0  0  0  0  0  0  0  0
  -25.9020  -11.7690   20.5450 N   0  0  0  0  0  0  0  0  0  0  0  0
  -23.8820  -10.5430   21.0400 C   0  0  0  0  0  0  0  0  0  0  0  0
  -24.3080   -9.5750   21.9760 C   0  0  0  0  0  3  0  0  0  0  0  0
  -23.5800   -8.3770   22.1480 C   0  0  0  0  0  3  0  0  0  0  0  0
  -22.4120   -8.1400   21.3870 C   0  0  0  0  0  0  0  0  0  0  0  0
  -22.0060   -9.0950   20.4390 C   0  0  0  0  0  3  0  0  0  0  0  0
  -22.7340  -10.2850   20.2640 C   0  0  0  0  0  3  0  0  0  0  0  0
  -21.6560   -6.9960   21.4700 O   0  0  0  0  0  0  0  0  0  0  0  0
  -21.5910   -6.2590   22.6250 C   0  0  0  0  0  0  0  0  0  0  0  0
  -21.1320   -6.8150   23.8390 C   0  0  0  0  0  3  0  0  0  0  0  0
  -21.0150   -6.0040   24.9860 C   0  0  0  0  0  3  0  0  0  0  0  0
  -21.3450   -4.6370   24.9190 C   0  0  0  0  0  0  0  0  0  0  0  0
  -21.7990   -4.0810   23.7100 C   0  0  0  0  0  3  0  0  0  0  0  0
  -21.9170   -4.8880   22.5660 C   0  0  0  0  0  0  0  0  0  0  0  0
  -22.3330   -4.3430   21.3970 F   0  0  0  0  0  0  0  0  0  0  0  0
  -21.2270   -3.8570   26.0180 F   0  0  0  0  0  0  0  0  0  0  0  0
  -22.7520  -13.6340   21.1650 C   0  0  0  0  0  0  0  0  0  0  0  0
  -22.0260  -12.9360   22.0310 N   0  0  0  0  0  0  0  0  0  0  0  0
  -22.3130  -14.6600   20.6470 O   0  0  0  0  0  0  0  0  0  0  0  0
  -22.3930  -12.1050   22.4720 H   0  0  0  0  0  0  0  0  0  0  0  0
  -21.0890  -13.2350   22.2580 H   0  0  0  0  0  0  0  0  0  0  0  0
  -25.3800  -15.3030   20.3540 N   0  0  0  0  0  0  0  0  0  0  0  0
  -24.6180  -15.9620   20.4660 H   0  0  0  0  0  0  0  0  0  0  0  0
  -26.2340  -15.7370   20.0280 H   0  0  0  0  0  0  0  0  0  0  0  0
  1  2  2  0
  2  5  1  0
  2  4  1  0
  3  1  1  0
  3 50  1  0
  6  3  1  0
  7  1  1  0
  8  9  1  0
  8  7  2  0
 10 21  2  0
 11  9  1  0
 11 16  1  0
 12 20  1  0
 12 22  1  0
 13 19  1  0
 13 15  1  0
 14 20  1  0
 15 14  1  0
 16 15  2  0
 17 11  2  0
 18 17  1  0
 18 13  2  0
 19 12  1  0
 20 10  1  0
 22 24  2  0
 23 22  1  0
 25 23  1  0
 26 35  2  0
 26 31  1  0
 27 23  1  0
 27 31  1  0
 28 27  1  0
 29 30  1  0
 29 28  1  0
 30 26  1  0
 31 32  2  0
 32 33  1  0
 34 33  2  0
 35 34  1  0
 36 10  1  0
 36 37  1  0
 36 46  1  0
 37 40  1  0
 38 42  1  0
 38 37  1  0
 39 38  2  0
 42 41  1  0
 44 42  1  0
 44 45  1  0
 44 43  1  0
 46 49  1  1
 46 47  1  0
 48 46  1  0
 51 50  2  0
 51 52  1  0
 53 52  1  0
 54 59  1  0
 55 56  1  0
 55 54  1  0
 57 56  1  0
 57 64  1  0
 57 58  1  0
 59 53  1  0
 59 58  1  0
 60 53  2  0
 61 62  2  0
 62 81  1  0
 63 62  1  0
 63 66  1  0
 64 61  1  0
 64 65  1  0
 65 63  2  0
 66 67  1  0
 67 68  2  0
 69 72  1  0
 69 68  1  0
 70 69  2  0
 71 70  1  0
 71 66  2  0
 72 73  1  0
 73 74  1  0
 74 75  2  0
 76 75  1  0
 76 80  1  0
 77 76  2  0
 78 73  2  0
 78 77  1  0
 79 78  1  0
 81 82  1  0
 82 85  1  0
 82 84  1  0
 83 81  2  0
 86 87  1  0
 86 61  1  0
 88 86  1  0
M  ISO  4   8 101   9 101  52 100  53 100
M  END
>  <TORSDO>  (18) 
F 21

>  <SCORE>  (18) 
-13.358

>  <name>  (18) 
17

>  <ligand_id>  (18) 
17

>  <original_smiles>  (18) 
[H]c1c([H])c([H])c2c(c1[H])C([H])([H])C([H])([H])C([H])([H])C2([H])N([H])C(=O)C1([H])N(C(=O)C([H])(N([H])C(=O)C([H])(N([H])C([H])([H])[H])C([H])([H])[H])C(C([H])([H])[H])(C([H])([H])[H])C([H])([H])[H])C([H])([H])c2c([H])c(OC([H])([H])C([H])([H])C(N([H])[H])=[N+]([H])C([H])([H])C([H])([H])C([H])([H])C(=O)N3C([H])([H])C([H])([H])C([H])([H])C([H])(n4nc(-c5c([H])c([H])c(Oc6c([H])c([H])c(F)c([H])c6F)c([H])c5[H])c(C(=O)N([H])[H])c4N([H])[H])C3([H])[H])c([H])c([H])c2C1([H])[H]

>  <smiles>  (18) 
[H]c1c([H])c([H])c2c(c1[H])C([H])([H])C([H])([H])C([H])([H])C2([H])N([H])C(=O)C1([H])N(C(=O)C([H])(N([H])C(=O)C([H])(N([H])C([H])([H])[H])C([H])([H])[H])C(C([H])([H])[H])(C([H])([H])[H])C([H])([H])[H])C([H])([H])c2c([H])c(OC([H])([H])C([H])([H])C(N([H])[H])=[N+]([H])C([H])([H])C([H])([H])C([H])([H])C(=O)N3C([H])([H])C([H])([H])C([H])([H])C([H])(n4nc(-c5c([H])c([H])c(Oc6c([H])c([H])c(F)c([H])c6F)c([H])c5[H])c(C(=O)N([H])[H])c4N([H])[H])C3([H])[H])c([H])c([H])c2C1([H])[H]

$$$$
18:0:0
     RDKit          3D

 90 98  0  0  1  0  0  0  0  0999 V2000
  -29.6240  -20.0330   20.7980 C   0  0  0  0  0  0  0  0  0  0  0  0
  -30.8520  -17.3830   21.8980 C   0  0  0  0  0  0  0  0  0  0  0  0
  -29.8680  -19.7590   22.2810 C   0  0  0  0  0  2  0  0  0  0  0  0
  -29.6970  -18.6970   19.9590 C   0  0  0  0  0  2  0  0  0  0  0  0
  -31.0360  -18.7720   22.5280 C   0  0  0  0  0  2  0  0  0  0  0  0
  -29.8550  -17.2740   20.7220 C   0  0  0  0  0  3  0  0  0  0  0  0
  -29.3920  -21.2140   20.2710 N   0  0  0  0  0  0  0  0  0  0  0  0
  -31.4540  -16.4270   22.3890 O   0  0  0  0  0  0  0  0  0  0  0  0
  -30.6780  -14.8390   20.0250 C   0  0  0  0  0  0  0  0  0  0  0  0
  -30.3900  -12.5700   19.0290 C   0  0  0  0  0  2  0  0  0  0  0  0
  -29.3840  -12.5790   17.8550 C   0  0  0  0  0  2  0  0  0  0  0  0
  -27.9290  -12.5010   18.3590 C   0  0  0  0  0  2  0  0  0  0  0  0
  -27.6310  -13.3930   19.5960 C   0  0  0  0  0  3  0  0  0  0  0  0
  -28.7510  -13.3140   20.6530 C   0  0  0  0  0  2  0  0  0  0  0  0
  -30.0070  -13.6420   19.9740 N   0  0  0  0  0  0  0  0  0  0  0  0
  -31.8840  -14.8830   19.7710 O   0  0  0  0  0  0  0  0  0  0  0  0
  -29.5520  -16.2670   18.4530 C   0  0  0  0  0  1  0  0  0  0  0  0
  -29.9360  -16.0070   19.8490 N   0  0  0  0  0  0  0  0  0  0  0  0
  -25.2940  -13.9830   20.4790 C   0  0  0  0  0  0  0  0  0  0  0  0
  -24.2430  -13.2050   20.8850 C   0  0  0  0  0  0  0  0  0  0  0  0
  -24.6950  -11.8520   20.7980 C   0  0  0  0  0  0  0  0  0  0  0  0
  -26.3170  -13.1040   20.1640 N   0  0  0  0  0  0  0  0  0  0  0  0
  -25.9680  -11.8170   20.4230 N   0  0  0  0  0  0  0  0  0  0  0  0
  -23.9720  -10.5890   20.9920 C   0  0  0  0  0  0  0  0  0  0  0  0
  -24.4250   -9.6110   21.9040 C   0  0  0  0  0  3  0  0  0  0  0  0
  -23.7010   -8.4130   22.0880 C   0  0  0  0  0  3  0  0  0  0  0  0
  -22.5100   -8.1850   21.3590 C   0  0  0  0  0  0  0  0  0  0  0  0
  -22.0760   -9.1510   20.4340 C   0  0  0  0  0  3  0  0  0  0  0  0
  -22.8000  -10.3410   20.2490 C   0  0  0  0  0  3  0  0  0  0  0  0
  -21.7560   -7.0400   21.4530 O   0  0  0  0  0  0  0  0  0  0  0  0
  -21.7130   -6.3000   22.6070 C   0  0  0  0  0  0  0  0  0  0  0  0
  -21.2600   -6.8460   23.8280 C   0  0  0  0  0  3  0  0  0  0  0  0
  -21.1680   -6.0310   24.9730 C   0  0  0  0  0  3  0  0  0  0  0  0
  -21.5170   -4.6690   24.8990 C   0  0  0  0  0  0  0  0  0  0  0  0
  -21.9640   -4.1220   23.6830 C   0  0  0  0  0  3  0  0  0  0  0  0
  -22.0580   -4.9350   22.5400 C   0  0  0  0  0  0  0  0  0  0  0  0
  -22.4680   -4.3970   21.3660 F   0  0  0  0  0  0  0  0  0  0  0  0
  -21.4200   -3.8830   25.9970 F   0  0  0  0  0  0  0  0  0  0  0  0
  -22.8650  -13.6830   21.2370 C   0  0  0  0  0  0  0  0  0  0  0  0
  -22.1730  -12.9630   22.1130 N   0  0  0  0  0  0  0  0  0  0  0  0
  -22.4100  -14.7270   20.7710 O   0  0  0  0  0  0  0  0  0  0  0  0
  -22.5540  -12.1160   22.5100 H   0  0  0  0  0  0  0  0  0  0  0  0
  -21.2500  -13.2640   22.3920 H   0  0  0  0  0  0  0  0  0  0  0  0
  -25.4590  -15.3560   20.3270 N   0  0  0  0  0  0  0  0  0  0  0  0
  -24.7070  -16.0150   20.4930 H   0  0  0  0  0  0  0  0  0  0  0  0
  -26.2990  -15.7940   19.9700 H   0  0  0  0  0  0  0  0  0  0  0  0
  -29.2520  -22.4950   21.0640 C   0  0  0  0  0  2  0  0  0  0  0  0
  -29.2170  -23.9020   20.2570 C   0  0  0  0  0  2  0  0  0  0  0  0
  -28.1160  -25.0670   20.0380 C   0  0  0  0  0  2  0  0  0  0  0  0
  -28.3600  -26.5220   20.2760 O   0  0  0  0  0  0  0  0  0  0  0  0
  -24.5610  -31.9310   23.2310 C   0  0  0  0  0  0  0  0  0  0  0  0
  -27.2470  -27.3890   20.1980 C   0  0  0  0  0  0  0  0  0  0  0  0
  -23.3890  -30.5230   21.5790 C   0  0  0  0  0  3  0  0  0  0  0  0
  -24.8710  -28.9960   20.1630 C   0  0  0  0  0  0  0  0  0  0  0  0
  -25.9300  -30.8640   21.4240 C   0  0  0  0  0  2  0  0  0  0  0  0
  -26.0310  -29.4870   20.7750 C   0  0  0  0  0  0  0  0  0  0  0  0
  -27.2220  -28.6960   20.7830 C   0  0  0  0  0  3  0  0  0  0  0  0
  -26.0590  -26.9650   19.5530 C   0  0  0  0  0  3  0  0  0  0  0  0
  -24.8880  -27.7410   19.5420 C   0  0  0  0  0  3  0  0  0  0  0  0
  -23.6250  -29.8570   20.1990 C   0  0  0  0  0  2  0  0  0  0  0  0
  -24.6450  -31.1230   22.1350 N   0  0  0  0  0  0  0  0  0  0  0  0
  -23.4700  -32.1970   23.7550 O   0  0  0  0  0  0  0  0  0  0  0  0
  -22.7290  -29.4960   22.5300 C   0  0  0  0  0  0  0  0  0  0  0  0
  -21.4070  -29.3010   22.3860 N   0  0  0  0  0  0  0  0  0  0  0  0
  -23.4040  -28.8800   23.3580 O   0  0  0  0  0  0  0  0  0  0  0  0
  -20.9200  -29.8490   21.6910 H   0  0  0  0  0  0  0  0  0  0  0  0
  -18.0350  -28.0770   22.8600 C   0  0  0  0  0  0  0  0  0  0  0  0
  -20.5890  -28.3540   23.1480 C   0  0  0  0  0  3  0  0  0  0  0  0
  -20.7060  -26.9260   22.5680 C   0  0  0  0  0  2  0  0  0  0  0  0
  -19.6120  -26.5990   21.5450 C   0  0  0  0  0  2  0  0  0  0  0  0
  -18.2250  -26.7310   22.1810 C   0  0  0  0  0  2  0  0  0  0  0  0
  -19.1440  -28.8460   23.3000 C   0  0  0  0  0  0  0  0  0  0  0  0
  -18.9120  -30.1050   23.8950 C   0  0  0  0  0  3  0  0  0  0  0  0
  -17.6020  -30.5950   24.0540 C   0  0  0  0  0  3  0  0  0  0  0  0
  -16.5060  -29.8240   23.6300 C   0  0  0  0  0  3  0  0  0  0  0  0
  -16.7230  -28.5670   23.0380 C   0  0  0  0  0  3  0  0  0  0  0  0
  -25.8310  -32.5780   23.8660 C   0  0  0  0  0  3  0  0  0  0  0  0
  -26.3360  -31.8180   25.1540 C   0  0  1  0  0  0  0  0  0  0  0  0
  -25.2270  -31.5760   26.2060 C   0  0  0  0  0  1  0  0  0  0  0  0
  -26.9380  -30.4440   24.7810 C   0  0  0  0  0  1  0  0  0  0  0  0
  -27.4670  -32.6280   25.8300 C   0  0  0  0  0  1  0  0  0  0  0  0
  -25.5060  -33.9760   24.1820 N   0  0  0  0  0  0  0  0  0  0  0  0
  -25.8400  -35.0260   23.4210 C   0  0  0  0  0  0  0  0  0  0  0  0
  -26.5240  -34.9200   22.4000 O   0  0  0  0  0  0  0  0  0  0  0  0
  -24.8990  -34.1300   24.9740 H   0  0  0  0  0  0  0  0  0  0  0  0
  -24.1130  -36.8110   23.0260 C   0  0  0  0  0  1  0  0  0  0  0  0
  -25.3380  -36.4140   23.8640 C   0  0  0  0  0  3  0  0  0  0  0  0
  -27.4460  -37.3150   24.7430 C   0  0  0  0  0  1  0  0  0  0  0  0
  -26.3680  -37.4700   23.7700 N   0  0  0  0  0  0  0  0  0  0  0  0
  -25.9540  -38.3900   23.9000 H   0  0  0  0  0  0  0  0  0  0  0  0
  1  3  1  0
  2  8  2  0
  2  5  1  0
  3  5  1  0
  4  6  1  0
  4  1  1  0
  6 18  1  0
  6  2  1  0
  7  1  2  0
  7 47  1  0
 10 15  1  0
 11 12  1  0
 11 10  1  0
 13 12  1  0
 13 22  1  0
 13 14  1  0
 15  9  1  0
 15 14  1  0
 16  9  2  0
 17 18  1  0
 18  9  1  0
 19 20  2  0
 20 39  1  0
 21 20  1  0
 21 24  1  0
 22 23  1  0
 22 19  1  0
 23 21  2  0
 24 25  1  0
 25 26  2  0
 27 30  1  0
 27 26  1  0
 28 27  2  0
 29 28  1  0
 29 24  2  0
 30 31  1  0
 31 32  1  0
 32 33  2  0
 34 33  1  0
 34 38  1  0
 35 34  2  0
 36 31  2  0
 36 35  1  0
 37 36  1  0
 39 40  1  0
 40 43  1  0
 40 42  1  0
 41 39  2  0
 44 19  1  0
 44 45  1  0
 46 44  1  0
 48 47  1  0
 49 48  1  0
 49 50  1  0
 51 62  2  0
 52 50  1  0
 52 57  1  0
 53 61  1  0
 53 63  1  0
 54 60  1  0
 54 56  1  0
 55 61  1  0
 56 57  2  0
 56 55  1  0
 58 52  2  0
 59 58  1  0
 59 54  2  0
 60 53  1  0
 61 51  1  0
 63 65  2  0
 64 63  1  0
 66 64  1  0
 67 76  2  0
 67 72  1  0
 68 64  1  0
 68 72  1  0
 69 68  1  0
 70 71  1  0
 70 69  1  0
 71 67  1  0
 72 73  2  0
 73 74  1  0
 75 74  2  0
 76 75  1  0
 77 51  1  0
 77 82  1  0
 77 78  1  0
 78 81  1  1
 78 79  1  0
 80 78  1  0
 82 85  1  0
 83 87  1  0
 83 82  1  0
 84 83  2  0
 87 86  1  0
 89 87  1  0
 89 90  1  0
 89 88  1  0
M  ISO  4   9 100  18 100  49 101  50 101
M  END
>  <TORSDO>  (19) 
F 19

>  <SCORE>  (19) 
-12.860

>  <name>  (19) 
18

>  <ligand_id>  (19) 
18

>  <original_smiles>  (19) 
[H]c1c([H])c([H])c2c(c1[H])C([H])([H])C([H])([H])C([H])([H])C2([H])N([H])C(=O)C1([H])N(C(=O)C([H])(N([H])C(=O)C([H])(N([H])C([H])([H])[H])C([H])([H])[H])C(C([H])([H])[H])(C([H])([H])[H])C([H])([H])[H])C([H])([H])c2c([H])c(OC([H])([H])C([H])([H])C([H])([H])N=C3C([H])([H])C([H])([H])C(=O)C([H])(N(C(=O)N4C([H])([H])C([H])([H])C([H])([H])C([H])(n5nc(-c6c([H])c([H])c(Oc7c([H])c([H])c(F)c([H])c7F)c([H])c6[H])c(C(=O)N([H])[H])c5N([H])[H])C4([H])[H])C([H])([H])[H])C3([H])[H])c([H])c([H])c2C1([H])[H]

>  <smiles>  (19) 
[H]c1c([H])c([H])c2c(c1[H])C([H])([H])C([H])([H])C([H])([H])C2([H])N([H])C(=O)C1([H])N(C(=O)C([H])(N([H])C(=O)C([H])(N([H])C([H])([H])[H])C([H])([H])[H])C(C([H])([H])[H])(C([H])([H])[H])C([H])([H])[H])C([H])([H])c2c([H])c(OC([H])([H])C([H])([H])C([H])([H])N=C3C([H])([H])C([H])([H])C(=O)C([H])(N(C(=O)N4C([H])([H])C([H])([H])C([H])([H])C([H])(n5nc(-c6c([H])c([H])c(Oc7c([H])c([H])c(F)c([H])c7F)c([H])c6[H])c(C(=O)N([H])[H])c5N([H])[H])C4([H])[H])C([H])([H])[H])C3([H])[H])c([H])c([H])c2C1([H])[H]

$$$$
19:0:0
     RDKit          3D

 87 94  0  0  1  0  0  0  0  0999 V2000
  -29.0170  -21.2470   20.5140 C   0  0  0  0  0  2  0  0  0  0  0  0
  -27.9500  -19.4190   19.0930 C   0  0  0  0  0  1  0  0  0  0  0  0
  -29.2410  -19.8350   19.6770 N   0  0  2  0  0  4  0  0  0  0  0  0
  -29.7650  -20.1550   18.8760 H   0  0  0  0  0  0  0  0  0  0  0  0
  -30.1140  -18.4890   20.1050 C   0  0  0  0  0  3  0  0  0  0  0  0
  -31.9940  -19.3050   21.6890 C   0  0  0  0  0  1  0  0  0  0  0  0
  -30.6160  -18.6350   21.5590 C   0  0  0  0  0  2  0  0  0  0  0  0
  -29.7120  -16.7780   19.8410 C   0  0  0  0  0  2  0  0  0  0  0  0
  -30.6030  -15.2880   19.8530 C   0  0  0  0  0  0  0  0  0  0  0  0
  -30.5310  -12.8700   18.9580 C   0  0  0  0  0  2  0  0  0  0  0  0
  -29.5160  -12.7490   17.7920 C   0  0  0  0  0  2  0  0  0  0  0  0
  -28.0950  -12.4820   18.3220 C   0  0  0  0  0  2  0  0  0  0  0  0
  -27.7390  -13.4060   19.5140 C   0  0  0  0  0  3  0  0  0  0  0  0
  -28.8680  -13.4930   20.5590 C   0  0  0  0  0  2  0  0  0  0  0  0
  -30.0720  -13.9750   19.8680 N   0  0  0  0  0  0  0  0  0  0  0  0
  -31.8110  -15.3160   19.5780 O   0  0  0  0  0  0  0  0  0  0  0  0
  -25.4450  -13.9470   20.4920 C   0  0  0  0  0  0  0  0  0  0  0  0
  -24.4080  -13.1600   20.9090 C   0  0  0  0  0  0  0  0  0  0  0  0
  -24.8540  -11.8100   20.7720 C   0  0  0  0  0  0  0  0  0  0  0  0
  -26.4520  -13.0770   20.1160 N   0  0  0  0  0  0  0  0  0  0  0  0
  -26.1140  -11.7820   20.3500 N   0  0  0  0  0  0  0  0  0  0  0  0
  -24.1300  -10.5450   20.9580 C   0  0  0  0  0  0  0  0  0  0  0  0
  -24.5810   -9.5600   21.8640 C   0  0  0  0  0  3  0  0  0  0  0  0
  -23.8540   -8.3630   22.0420 C   0  0  0  0  0  3  0  0  0  0  0  0
  -22.6630   -8.1410   21.3120 C   0  0  0  0  0  0  0  0  0  0  0  0
  -22.2300   -9.1150   20.3940 C   0  0  0  0  0  3  0  0  0  0  0  0
  -22.9570  -10.3040   20.2150 C   0  0  0  0  0  3  0  0  0  0  0  0
  -21.9060   -6.9980   21.4000 O   0  0  0  0  0  0  0  0  0  0  0  0
  -21.8370   -6.2670   22.5580 C   0  0  0  0  0  0  0  0  0  0  0  0
  -21.3300   -6.8160   23.7570 C   0  0  0  0  0  3  0  0  0  0  0  0
  -21.2140   -6.0090   24.9060 C   0  0  0  0  0  3  0  0  0  0  0  0
  -21.5910   -4.6530   24.8580 C   0  0  0  0  0  0  0  0  0  0  0  0
  -22.0890   -4.1030   23.6640 C   0  0  0  0  0  3  0  0  0  0  0  0
  -22.2090   -4.9070   22.5170 C   0  0  0  0  0  0  0  0  0  0  0  0
  -22.6700   -4.3660   21.3630 F   0  0  0  0  0  0  0  0  0  0  0  0
  -21.4710   -3.8760   25.9600 F   0  0  0  0  0  0  0  0  0  0  0  0
  -23.0420  -13.6340   21.3140 C   0  0  0  0  0  0  0  0  0  0  0  0
  -22.3790  -12.8980   22.1980 N   0  0  0  0  0  0  0  0  0  0  0  0
  -22.5770  -14.6890   20.8840 O   0  0  0  0  0  0  0  0  0  0  0  0
  -22.7720  -12.0460   22.5680 H   0  0  0  0  0  0  0  0  0  0  0  0
  -21.4640  -13.1910   22.5100 H   0  0  0  0  0  0  0  0  0  0  0  0
  -25.6100  -15.3240   20.3730 N   0  0  0  0  0  0  0  0  0  0  0  0
  -24.8650  -15.9810   20.5770 H   0  0  0  0  0  0  0  0  0  0  0  0
  -26.4340  -15.7680   19.9850 H   0  0  0  0  0  0  0  0  0  0  0  0
  -28.9100  -22.9250   19.9270 C   0  0  0  0  0  2  0  0  0  0  0  0
  -28.1830  -24.3970   20.6130 C   0  0  0  0  0  2  0  0  0  0  0  0
  -28.3870  -26.0020   20.4150 O   0  0  0  0  0  0  0  0  0  0  0  0
  -24.6590  -31.9170   23.2060 C   0  0  0  0  0  0  0  0  0  0  0  0
  -27.3360  -27.0410   20.3680 C   0  0  0  0  0  0  0  0  0  0  0  0
  -23.5120  -30.4680   21.5780 C   0  0  0  0  0  3  0  0  0  0  0  0
  -25.0060  -28.8510   20.2300 C   0  0  0  0  0  0  0  0  0  0  0  0
  -26.0760  -30.7230   21.4690 C   0  0  0  0  0  2  0  0  0  0  0  0
  -26.1750  -29.3010   20.8560 C   0  0  0  0  0  0  0  0  0  0  0  0
  -27.3390  -28.4170   20.8950 C   0  0  0  0  0  3  0  0  0  0  0  0
  -26.1330  -26.7240   19.6990 C   0  0  0  0  0  3  0  0  0  0  0  0
  -25.0070  -27.5810   19.6320 C   0  0  0  0  0  3  0  0  0  0  0  0
  -23.7740  -29.7520   20.2260 C   0  0  0  0  0  2  0  0  0  0  0  0
  -24.7690  -31.0630   22.1380 N   0  0  0  0  0  0  0  0  0  0  0  0
  -23.5570  -32.2030   23.7020 O   0  0  0  0  0  0  0  0  0  0  0  0
  -22.8140  -29.4850   22.5560 C   0  0  0  0  0  0  0  0  0  0  0  0
  -21.4940  -29.2780   22.3910 N   0  0  0  0  0  0  0  0  0  0  0  0
  -23.4670  -28.9060   23.4270 O   0  0  0  0  0  0  0  0  0  0  0  0
  -21.0200  -29.7970   21.6650 H   0  0  0  0  0  0  0  0  0  0  0  0
  -18.1360  -27.9710   22.7980 C   0  0  0  0  0  0  0  0  0  0  0  0
  -20.6690  -28.3460   23.1670 C   0  0  0  0  0  3  0  0  0  0  0  0
  -20.8490  -26.8940   22.6650 C   0  0  0  0  0  2  0  0  0  0  0  0
  -19.8080  -26.4840   21.6180 C   0  0  0  0  0  2  0  0  0  0  0  0
  -18.3940  -26.6010   22.1910 C   0  0  0  0  0  2  0  0  0  0  0  0
  -19.2040  -28.7960   23.2410 C   0  0  0  0  0  0  0  0  0  0  0  0
  -18.9070  -30.0710   23.7690 C   0  0  0  0  0  3  0  0  0  0  0  0
  -17.5770  -30.5230   23.8560 C   0  0  0  0  0  3  0  0  0  0  0  0
  -16.5230  -29.6960   23.4280 C   0  0  0  0  0  3  0  0  0  0  0  0
  -16.8040  -28.4230   22.9040 C   0  0  0  0  0  3  0  0  0  0  0  0
  -25.9110  -32.5890   23.8480 C   0  0  0  0  0  3  0  0  0  0  0  0
  -25.5620  -33.9840   24.1660 N   0  0  0  0  0  0  0  0  0  0  0  0
  -25.8850  -35.0460   23.4150 C   0  0  0  0  0  0  0  0  0  0  0  0
  -26.5710  -34.9540   22.3940 O   0  0  0  0  0  0  0  0  0  0  0  0
  -24.9540  -34.1260   24.9580 H   0  0  0  0  0  0  0  0  0  0  0  0
  -24.1350  -36.8170   23.0370 C   0  0  0  0  0  1  0  0  0  0  0  0
  -25.3690  -36.4270   23.8680 C   0  0  0  0  0  3  0  0  0  0  0  0
  -27.4670  -37.3560   24.7450 C   0  0  0  0  0  1  0  0  0  0  0  0
  -26.3860  -37.4970   23.7740 N   0  0  0  0  0  0  0  0  0  0  0  0
  -25.9610  -38.4110   23.9030 H   0  0  0  0  0  0  0  0  0  0  0  0
  -26.4160  -31.8440   25.1470 C   0  0  1  0  0  0  0  0  0  0  0  0
  -25.3020  -31.5830   26.1880 C   0  0  0  0  0  1  0  0  0  0  0  0
  -27.0500  -30.4810   24.7900 C   0  0  0  0  0  1  0  0  0  0  0  0
  -27.5230  -32.6800   25.8320 C   0  0  0  0  0  1  0  0  0  0  0  0
  2  3  1  0
  3  5  1  0
  3  1  1  0
  3  4  1  6
  5  8  1  0
  5  7  1  0
  7  6  1  0
  8  9  1  0
  9 15  1  0
 10 15  1  0
 11 12  1  0
 11 10  1  0
 13 12  1  0
 13 20  1  0
 13 14  1  0
 15 14  1  0
 16  9  2  0
 17 18  2  0
 18 37  1  0
 19 18  1  0
 19 22  1  0
 20 21  1  0
 20 17  1  0
 21 19  2  0
 22 23  1  0
 23 24  2  0
 25 28  1  0
 25 24  1  0
 26 25  2  0
 27 26  1  0
 27 22  2  0
 28 29  1  0
 29 30  1  0
 30 31  2  0
 32 31  1  0
 32 36  1  0
 33 32  2  0
 34 29  2  0
 34 33  1  0
 35 34  1  0
 37 38  1  0
 38 41  1  0
 38 40  1  0
 39 37  2  0
 42 17  1  0
 42 43  1  0
 44 42  1  0
 45  1  1  0
 45 46  1  0
 47 46  1  0
 48 59  2  0
 49 47  1  0
 49 54  1  0
 50 58  1  0
 50 60  1  0
 51 53  1  0
 52 58  1  0
 53 54  2  0
 53 52  1  0
 55 49  2  0
 56 55  1  0
 56 51  2  0
 57 51  1  0
 57 50  1  0
 58 48  1  0
 60 62  2  0
 61 60  1  0
 63 61  1  0
 64 73  2  0
 64 69  1  0
 65 61  1  0
 65 69  1  0
 66 65  1  0
 67 68  1  0
 67 66  1  0
 68 64  1  0
 69 70  2  0
 70 71  1  0
 72 71  2  0
 73 72  1  0
 74 48  1  0
 74 75  1  0
 74 84  1  0
 75 78  1  0
 76 80  1  0
 76 75  1  0
 77 76  2  0
 80 79  1  0
 82 80  1  0
 82 83  1  0
 82 81  1  0
 84 87  1  1
 84 85  1  0
 86 84  1  0
M  ISO  4   8 100   9 100  46 101  47 101
M  END
>  <TORSDO>  (20) 
F 22

>  <SCORE>  (20) 
-14.623

>  <name>  (20) 
19

>  <ligand_id>  (20) 
19

>  <original_smiles>  (20) 
[H]c1c([H])c([H])c2c(c1[H])C([H])([H])C([H])([H])C([H])([H])C2([H])N([H])C(=O)C1([H])N(C(=O)C([H])(N([H])C(=O)C([H])(N([H])C([H])([H])[H])C([H])([H])[H])C(C([H])([H])[H])(C([H])([H])[H])C([H])([H])[H])C([H])([H])c2c([H])c(OC([H])([H])C([H])([H])C([H])([H])[N+]([H])(C([H])([H])[H])C([H])(C([H])([H])C(=O)N3C([H])([H])C([H])([H])C([H])([H])C([H])(n4nc(-c5c([H])c([H])c(Oc6c([H])c([H])c(F)c([H])c6F)c([H])c5[H])c(C(=O)N([H])[H])c4N([H])[H])C3([H])[H])C([H])([H])C([H])([H])[H])c([H])c([H])c2C1([H])[H]

>  <smiles>  (20) 
[H]c1c([H])c([H])c2c(c1[H])C([H])([H])C([H])([H])C([H])([H])C2([H])N([H])C(=O)C1([H])N(C(=O)C([H])(N([H])C(=O)C([H])(N([H])C([H])([H])[H])C([H])([H])[H])C(C([H])([H])[H])(C([H])([H])[H])C([H])([H])[H])C([H])([H])c2c([H])c(OC([H])([H])C([H])([H])C([H])([H])[N+]([H])(C([H])([H])[H])C([H])(C([H])([H])C(=O)N3C([H])([H])C([H])([H])C([H])([H])C([H])(n4nc(-c5c([H])c([H])c(Oc6c([H])c([H])c(F)c([H])c6F)c([H])c5[H])c(C(=O)N([H])[H])c4N([H])[H])C3([H])[H])C([H])([H])C([H])([H])[H])c([H])c([H])c2C1([H])[H]

$$$$
20:0:0
     RDKit          3D

 92 99  0  0  1  0  0  0  0  0999 V2000
  -29.5410  -20.5890   20.2260 N   0  0  0  0  0  4  0  0  0  0  0  0
  -30.2530  -20.6670   20.9310 H   0  0  0  0  0  0  0  0  0  0  0  0
  -29.9760  -20.7290   19.3260 H   0  0  0  0  0  0  0  0  0  0  0  0
  -28.5450  -21.8060   20.3750 C   0  0  0  0  0  2  0  0  0  0  0  0
  -29.0350  -23.4090   20.3570 C   0  0  0  0  0  3  0  0  0  0  0  0
  -27.9750  -24.7020   20.2880 C   0  0  0  0  0  3  0  0  0  0  0  0
  -28.2760  -26.2240   20.3070 O   0  0  0  0  0  0  0  0  0  0  0  0
  -24.6030  -31.8760   23.2360 C   0  0  0  0  0  0  0  0  0  0  0  0
  -27.2130  -27.1890   20.2350 C   0  0  0  0  0  0  0  0  0  0  0  0
  -23.4130  -30.4700   21.5960 C   0  0  0  0  0  3  0  0  0  0  0  0
  -24.8730  -28.9020   20.1870 C   0  0  0  0  0  0  0  0  0  0  0  0
  -25.9640  -30.7560   21.4390 C   0  0  0  0  0  2  0  0  0  0  0  0
  -26.0480  -29.3640   20.7930 C   0  0  0  0  0  0  0  0  0  0  0  0
  -27.2210  -28.5250   20.7970 C   0  0  0  0  0  3  0  0  0  0  0  0
  -26.0110  -26.8250   19.5880 C   0  0  0  0  0  3  0  0  0  0  0  0
  -24.8670  -27.6440   19.5690 C   0  0  0  0  0  3  0  0  0  0  0  0
  -23.6420  -29.7870   20.2220 C   0  0  0  0  0  2  0  0  0  0  0  0
  -24.6780  -31.0550   22.1460 N   0  0  0  0  0  0  0  0  0  0  0  0
  -23.5140  -32.1580   23.7580 O   0  0  0  0  0  0  0  0  0  0  0  0
  -22.7350  -29.4640   22.5610 C   0  0  0  0  0  0  0  0  0  0  0  0
  -21.4080  -29.2860   22.4320 N   0  0  0  0  0  0  0  0  0  0  0  0
  -23.4070  -28.8440   23.3900 O   0  0  0  0  0  0  0  0  0  0  0  0
  -20.9230  -29.8380   21.7390 H   0  0  0  0  0  0  0  0  0  0  0  0
  -18.0350  -28.0530   22.9050 C   0  0  0  0  0  0  0  0  0  0  0  0
  -20.5870  -28.3490   23.2030 C   0  0  0  0  0  3  0  0  0  0  0  0
  -20.7140  -26.9110   22.6490 C   0  0  0  0  0  2  0  0  0  0  0  0
  -19.6290  -26.5590   21.6280 C   0  0  0  0  0  2  0  0  0  0  0  0
  -18.2370  -26.6970   22.2490 C   0  0  0  0  0  2  0  0  0  0  0  0
  -19.1390  -28.8370   23.3370 C   0  0  0  0  0  0  0  0  0  0  0  0
  -18.8940  -30.1030   23.9100 C   0  0  0  0  0  3  0  0  0  0  0  0
  -17.5790  -30.5870   24.0560 C   0  0  0  0  0  3  0  0  0  0  0  0
  -16.4930  -29.8030   23.6360 C   0  0  0  0  0  3  0  0  0  0  0  0
  -16.7210  -28.5370   23.0670 C   0  0  0  0  0  3  0  0  0  0  0  0
  -25.8790  -32.5200   23.8610 C   0  0  0  0  0  3  0  0  0  0  0  0
  -25.5610  -33.9200   24.1870 N   0  0  0  0  0  0  0  0  0  0  0  0
  -25.8900  -34.9750   23.4300 C   0  0  0  0  0  0  0  0  0  0  0  0
  -26.5590  -34.8720   22.3990 O   0  0  0  0  0  0  0  0  0  0  0  0
  -24.9730  -34.0730   24.9930 H   0  0  0  0  0  0  0  0  0  0  0  0
  -24.1610  -36.7690   23.0720 C   0  0  0  0  0  1  0  0  0  0  0  0
  -25.4000  -36.3630   23.8850 C   0  0  0  0  0  3  0  0  0  0  0  0
  -27.5320  -37.2540   24.7190 C   0  0  0  0  0  1  0  0  0  0  0  0
  -26.4310  -37.4190   23.7740 N   0  0  0  0  0  0  0  0  0  0  0  0
  -26.0220  -38.3370   23.9210 H   0  0  0  0  0  0  0  0  0  0  0  0
  -26.3890  -31.7580   25.1450 C   0  0  1  0  0  0  0  0  0  0  0  0
  -25.2920  -31.5260   26.2100 C   0  0  0  0  0  1  0  0  0  0  0  0
  -26.9760  -30.3780   24.7710 C   0  0  0  0  0  1  0  0  0  0  0  0
  -27.5370  -32.5580   25.8050 C   0  0  0  0  0  1  0  0  0  0  0  0
  -29.0940  -19.0780   20.1440 C   0  0  0  0  0  3  0  0  0  0  0  0
  -27.6750  -17.5620   18.5030 C   0  0  0  0  0  1  0  0  0  0  0  0
  -28.1790  -18.9680   18.8850 C   0  0  0  0  0  3  0  0  0  0  0  0
  -28.8980  -19.5220   17.7430 N   0  0  0  0  0  0  0  0  0  0  0  0
  -29.8070  -19.0830   17.6450 H   0  0  0  0  0  0  0  0  0  0  0  0
  -28.4120  -19.2550   16.8920 H   0  0  0  0  0  0  0  0  0  0  0  0
  -30.2120  -17.8300   20.1000 C   0  0  0  0  0  2  0  0  0  0  0  0
  -30.1330  -16.3100   22.2020 C   0  0  0  0  0  1  0  0  0  0  0  0
  -29.9330  -16.2800   20.6720 C   0  0  0  0  0  3  0  0  0  0  0  0
  -30.6640  -14.9190   20.1020 C   0  0  0  0  0  0  0  0  0  0  0  0
  -30.4170  -12.6690   18.9760 C   0  0  0  0  0  2  0  0  0  0  0  0
  -29.4160  -12.7810   17.8030 C   0  0  0  0  0  2  0  0  0  0  0  0
  -27.9700  -12.5820   18.2960 C   0  0  0  0  0  2  0  0  0  0  0  0
  -27.6580  -13.4210   19.5620 C   0  0  0  0  0  3  0  0  0  0  0  0
  -28.7680  -13.2890   20.6240 C   0  0  0  0  0  2  0  0  0  0  0  0
  -30.0390  -13.6850   19.9960 N   0  0  0  0  0  0  0  0  0  0  0  0
  -31.8130  -15.0200   19.6590 O   0  0  0  0  0  0  0  0  0  0  0  0
  -25.3090  -14.0040   20.4060 C   0  0  0  0  0  0  0  0  0  0  0  0
  -24.2550  -13.2330   20.8100 C   0  0  0  0  0  0  0  0  0  0  0  0
  -24.7090  -11.8800   20.7440 C   0  0  0  0  0  0  0  0  0  0  0  0
  -26.3350  -13.1260   20.1100 N   0  0  0  0  0  0  0  0  0  0  0  0
  -25.9860  -11.8400   20.3790 N   0  0  0  0  0  0  0  0  0  0  0  0
  -23.9850  -10.6180   20.9490 C   0  0  0  0  0  0  0  0  0  0  0  0
  -24.4320   -9.6530   21.8780 C   0  0  0  0  0  3  0  0  0  0  0  0
  -23.7100   -8.4550   22.0680 C   0  0  0  0  0  3  0  0  0  0  0  0
  -22.5230   -8.2170   21.3360 C   0  0  0  0  0  0  0  0  0  0  0  0
  -22.0960   -9.1700   20.3960 C   0  0  0  0  0  3  0  0  0  0  0  0
  -22.8190  -10.3590   20.2020 C   0  0  0  0  0  3  0  0  0  0  0  0
  -21.7720   -7.0710   21.4380 O   0  0  0  0  0  0  0  0  0  0  0  0
  -21.7100   -6.3520   22.6040 C   0  0  0  0  0  0  0  0  0  0  0  0
  -21.2790   -6.9340   23.8180 C   0  0  0  0  0  3  0  0  0  0  0  0
  -21.1650   -6.1430   24.9770 C   0  0  0  0  0  3  0  0  0  0  0  0
  -21.4720   -4.7690   24.9250 C   0  0  0  0  0  0  0  0  0  0  0  0
  -21.8950   -4.1870   23.7190 C   0  0  0  0  0  3  0  0  0  0  0  0
  -22.0110   -4.9770   22.5610 C   0  0  0  0  0  0  0  0  0  0  0  0
  -22.3970   -4.4050   21.3940 F   0  0  0  0  0  0  0  0  0  0  0  0
  -21.3560   -4.0060   26.0380 F   0  0  0  0  0  0  0  0  0  0  0  0
  -22.8710  -13.7140   21.1440 C   0  0  0  0  0  0  0  0  0  0  0  0
  -22.1810  -13.0150   22.0410 N   0  0  0  0  0  0  0  0  0  0  0  0
  -22.4120  -14.7380   20.6410 O   0  0  0  0  0  0  0  0  0  0  0  0
  -22.5690  -12.1870   22.4690 H   0  0  0  0  0  0  0  0  0  0  0  0
  -21.2510  -13.3110   22.2990 H   0  0  0  0  0  0  0  0  0  0  0  0
  -25.4770  -15.3750   20.2370 N   0  0  0  0  0  0  0  0  0  0  0  0
  -24.7310  -16.0450   20.3840 H   0  0  0  0  0  0  0  0  0  0  0  0
  -26.3230  -15.7940   19.8760 H   0  0  0  0  0  0  0  0  0  0  0  0
  1  4  1  0
  1  2  1  0
  3  1  1  0
  5  4  1  0
  6  7  1  0
  6  5  2  0
  8 19  2  0
  9  7  1  0
  9 14  1  0
 10 18  1  0
 10 20  1  0
 11 17  1  0
 11 13  1  0
 12 18  1  0
 13 14  2  0
 13 12  1  0
 15  9  2  0
 16 15  1  0
 16 11  2  0
 17 10  1  0
 18  8  1  0
 20 22  2  0
 21 20  1  0
 23 21  1  0
 24 33  2  0
 24 29  1  0
 25 21  1  0
 25 29  1  0
 26 25  1  0
 27 28  1  0
 27 26  1  0
 28 24  1  0
 29 30  2  0
 30 31  1  0
 32 31  2  0
 33 32  1  0
 34  8  1  0
 34 35  1  0
 34 44  1  0
 35 38  1  0
 36 40  1  0
 36 35  1  0
 37 36  2  0
 40 39  1  0
 42 40  1  0
 42 43  1  0
 42 41  1  0
 44 47  1  1
 44 45  1  0
 46 44  1  0
 48 54  1  0
 48  1  1  0
 50 49  1  0
 50 48  1  0
 51 50  1  0
 52 51  1  0
 53 51  1  0
 54 56  1  0
 56 55  1  0
 57 56  1  0
 58 63  1  0
 59 60  1  0
 59 58  1  0
 61 60  1  0
 61 68  1  0
 61 62  1  0
 63 57  1  0
 63 62  1  0
 64 57  2  0
 65 66  2  0
 66 85  1  0
 67 66  1  0
 67 70  1  0
 68 69  1  0
 68 65  1  0
 69 67  2  0
 70 71  1  0
 71 72  2  0
 73 76  1  0
 73 72  1  0
 74 73  2  0
 75 74  1  0
 75 70  2  0
 76 77  1  0
 77 78  1  0
 78 79  2  0
 80 79  1  0
 80 84  1  0
 81 80  2  0
 82 77  2  0
 82 81  1  0
 83 82  1  0
 85 86  1  0
 86 89  1  0
 86 88  1  0
 87 85  2  0
 90 91  1  0
 90 65  1  0
 92 90  1  0
M  ISO  4   6 101   7 101  56 100  57 100
M  END
>  <TORSDO>  (21) 
F 24

>  <SCORE>  (21) 
-12.397

>  <name>  (21) 
20

>  <ligand_id>  (21) 
20

>  <original_smiles>  (21) 
[H]c1c([H])c([H])c2c(c1[H])C([H])([H])C([H])([H])C([H])([H])C2([H])N([H])C(=O)C1([H])N(C(=O)C([H])(N([H])C(=O)C([H])(N([H])C([H])([H])[H])C([H])([H])[H])C(C([H])([H])[H])(C([H])([H])[H])C([H])([H])[H])C([H])([H])c2c([H])c(OC([H])([H])C([H])([H])C([H])([H])[N+]([H])([H])C([H])(C([H])([H])C([H])(C(=O)N3C([H])([H])C([H])([H])C([H])([H])C([H])(n4nc(-c5c([H])c([H])c(Oc6c([H])c([H])c(F)c([H])c6F)c([H])c5[H])c(C(=O)N([H])[H])c4N([H])[H])C3([H])[H])C([H])([H])[H])C([H])(N([H])[H])C([H])([H])[H])c([H])c([H])c2C1([H])[H]

>  <smiles>  (21) 
[H]c1c([H])c([H])c2c(c1[H])C([H])([H])C([H])([H])C([H])([H])C2([H])N([H])C(=O)C1([H])N(C(=O)C([H])(N([H])C(=O)C([H])(N([H])C([H])([H])[H])C([H])([H])[H])C(C([H])([H])[H])(C([H])([H])[H])C([H])([H])[H])C([H])([H])c2c([H])c(OC([H])([H])C([H])([H])C([H])([H])[N+]([H])([H])C([H])(C([H])([H])C([H])(C(=O)N3C([H])([H])C([H])([H])C([H])([H])C([H])(n4nc(-c5c([H])c([H])c(Oc6c([H])c([H])c(F)c([H])c6F)c([H])c5[H])c(C(=O)N([H])[H])c4N([H])[H])C3([H])[H])C([H])([H])[H])C([H])(N([H])[H])C([H])([H])[H])c([H])c([H])c2C1([H])[H]

$$$$
21:0:0
     RDKit          3D

 87 94  0  0  1  0  0  0  0  0999 V2000
  -29.1140  -21.1920   20.0000 C   0  0  0  0  0  2  0  0  0  0  0  0
  -29.0870  -19.5370   20.6790 C   0  0  0  0  0  2  0  0  0  0  0  0
  -30.4580  -15.2480   20.2630 C   0  0  0  0  0  0  0  0  0  0  0  0
  -30.4110  -12.8190   19.3790 C   0  0  0  0  0  2  0  0  0  0  0  0
  -29.4880  -12.6430   18.1470 C   0  0  0  0  0  2  0  0  0  0  0  0
  -28.0370  -12.3800   18.5850 C   0  0  0  0  0  2  0  0  0  0  0  0
  -27.5940  -13.3320   19.7250 C   0  0  0  0  0  3  0  0  0  0  0  0
  -28.6450  -13.4560   20.8510 C   0  0  0  0  0  2  0  0  0  0  0  0
  -29.8840  -13.9480   20.2300 N   0  0  0  0  0  0  0  0  0  0  0  0
  -31.6620  -15.2730   19.9480 O   0  0  0  0  0  0  0  0  0  0  0  0
  -29.9440  -18.1030   20.2280 C   0  0  0  0  0  0  0  0  0  0  0  0
  -29.6670  -16.6560   20.4710 N   0  0  0  0  0  0  0  0  0  0  0  0
  -31.0880  -18.3960   19.5780 N   0  0  0  0  0  4  0  0  0  0  0  0
  -28.7270  -16.5780   20.8230 H   0  0  0  0  0  0  0  0  0  0  0  0
  -31.3540  -19.3560   19.4040 H   0  0  0  0  0  0  0  0  0  0  0  0
  -31.7350  -17.6780   19.2770 H   0  0  0  0  0  0  0  0  0  0  0  0
  -25.2180  -13.8810   20.4730 C   0  0  0  0  0  0  0  0  0  0  0  0
  -24.1630  -13.0990   20.8480 C   0  0  0  0  0  0  0  0  0  0  0  0
  -24.6380  -11.7510   20.8220 C   0  0  0  0  0  0  0  0  0  0  0  0
  -26.2670  -13.0110   20.2330 N   0  0  0  0  0  0  0  0  0  0  0  0
  -25.9300  -11.7250   20.5110 N   0  0  0  0  0  0  0  0  0  0  0  0
  -23.9200  -10.4850   21.0160 C   0  0  0  0  0  0  0  0  0  0  0  0
  -24.3550   -9.5230   21.9540 C   0  0  0  0  0  3  0  0  0  0  0  0
  -23.6330   -8.3240   22.1370 C   0  0  0  0  0  3  0  0  0  0  0  0
  -22.4610   -8.0790   21.3830 C   0  0  0  0  0  0  0  0  0  0  0  0
  -22.0440   -9.0290   20.4340 C   0  0  0  0  0  3  0  0  0  0  0  0
  -22.7670  -10.2200   20.2490 C   0  0  0  0  0  3  0  0  0  0  0  0
  -21.7100   -6.9310   21.4750 O   0  0  0  0  0  0  0  0  0  0  0  0
  -21.6650   -6.1920   22.6300 C   0  0  0  0  0  0  0  0  0  0  0  0
  -21.2360   -6.7480   23.8540 C   0  0  0  0  0  3  0  0  0  0  0  0
  -21.1390   -5.9350   25.0010 C   0  0  0  0  0  3  0  0  0  0  0  0
  -21.4600   -4.5670   24.9240 C   0  0  0  0  0  0  0  0  0  0  0  0
  -21.8820   -4.0100   23.7040 C   0  0  0  0  0  3  0  0  0  0  0  0
  -21.9810   -4.8200   22.5600 C   0  0  0  0  0  0  0  0  0  0  0  0
  -22.3680   -4.2730   21.3820 F   0  0  0  0  0  0  0  0  0  0  0  0
  -21.3590   -3.7840   26.0250 F   0  0  0  0  0  0  0  0  0  0  0  0
  -22.7620  -13.5690   21.1130 C   0  0  0  0  0  0  0  0  0  0  0  0
  -22.0350  -12.8730   21.9790 N   0  0  0  0  0  0  0  0  0  0  0  0
  -22.3230  -14.5900   20.5860 O   0  0  0  0  0  0  0  0  0  0  0  0
  -22.4050  -12.0460   22.4270 H   0  0  0  0  0  0  0  0  0  0  0  0
  -21.0960  -13.1710   22.1990 H   0  0  0  0  0  0  0  0  0  0  0  0
  -25.3670  -15.2520   20.2840 N   0  0  0  0  0  0  0  0  0  0  0  0
  -24.5750  -15.8810   20.3620 H   0  0  0  0  0  0  0  0  0  0  0  0
  -26.1640  -15.6800   19.8330 H   0  0  0  0  0  0  0  0  0  0  0  0
  -28.6420  -22.7980   20.6400 C   0  0  0  0  0  2  0  0  0  0  0  0
  -28.1950  -24.3590   19.8890 C   0  0  0  0  0  2  0  0  0  0  0  0
  -28.2130  -25.9330   20.3440 O   0  0  0  0  0  0  0  0  0  0  0  0
  -24.6250  -31.8590   23.2150 C   0  0  0  0  0  0  0  0  0  0  0  0
  -27.1880  -26.9980   20.2190 C   0  0  0  0  0  0  0  0  0  0  0  0
  -23.4310  -30.4560   21.5820 C   0  0  0  0  0  3  0  0  0  0  0  0
  -24.8800  -28.8520   20.1610 C   0  0  0  0  0  0  0  0  0  0  0  0
  -25.9940  -30.6760   21.4330 C   0  0  0  0  0  2  0  0  0  0  0  0
  -26.0620  -29.2680   20.7830 C   0  0  0  0  0  0  0  0  0  0  0  0
  -27.2080  -28.3590   20.7910 C   0  0  0  0  0  3  0  0  0  0  0  0
  -25.9780  -26.7290   19.5390 C   0  0  0  0  0  3  0  0  0  0  0  0
  -24.8590  -27.6030   19.5200 C   0  0  0  0  0  3  0  0  0  0  0  0
  -23.6590  -29.7680   20.2070 C   0  0  0  0  0  2  0  0  0  0  0  0
  -24.7040  -31.0260   22.1290 N   0  0  0  0  0  0  0  0  0  0  0  0
  -23.5370  -32.1520   23.7360 O   0  0  0  0  0  0  0  0  0  0  0  0
  -22.7390  -29.4630   22.5520 C   0  0  0  0  0  0  0  0  0  0  0  0
  -21.4090  -29.3030   22.4310 N   0  0  0  0  0  0  0  0  0  0  0  0
  -23.4060  -28.8370   23.3810 O   0  0  0  0  0  0  0  0  0  0  0  0
  -20.9250  -29.8580   21.7390 H   0  0  0  0  0  0  0  0  0  0  0  0
  -18.0220  -28.1090   22.9500 C   0  0  0  0  0  0  0  0  0  0  0  0
  -20.5830  -28.3690   23.2060 C   0  0  0  0  0  3  0  0  0  0  0  0
  -20.6790  -26.9350   22.6350 C   0  0  0  0  0  2  0  0  0  0  0  0
  -19.5740  -26.6130   21.6240 C   0  0  0  0  0  2  0  0  0  0  0  0
  -18.1940  -26.7590   22.2730 C   0  0  0  0  0  2  0  0  0  0  0  0
  -19.1440  -28.8720   23.3730 C   0  0  0  0  0  0  0  0  0  0  0  0
  -18.9260  -30.1320   23.9700 C   0  0  0  0  0  3  0  0  0  0  0  0
  -17.6220  -30.6320   24.1440 C   0  0  0  0  0  3  0  0  0  0  0  0
  -16.5160  -29.8680   23.7350 C   0  0  0  0  0  3  0  0  0  0  0  0
  -16.7160  -28.6080   23.1440 C   0  0  0  0  0  3  0  0  0  0  0  0
  -25.8980  -32.5020   23.8460 C   0  0  0  0  0  3  0  0  0  0  0  0
  -26.4020  -31.7430   25.1360 C   0  0  1  0  0  0  0  0  0  0  0  0
  -25.3000  -31.5230   26.1990 C   0  0  0  0  0  1  0  0  0  0  0  0
  -26.9820  -30.3590   24.7710 C   0  0  0  0  0  1  0  0  0  0  0  0
  -27.5500  -32.5420   25.7970 C   0  0  0  0  0  1  0  0  0  0  0  0
  -25.5810  -33.9030   24.1730 N   0  0  0  0  0  0  0  0  0  0  0  0
  -25.9140  -34.9610   23.4220 C   0  0  0  0  0  0  0  0  0  0  0  0
  -26.5840  -34.8610   22.3900 O   0  0  0  0  0  0  0  0  0  0  0  0
  -24.9850  -34.0550   24.9740 H   0  0  0  0  0  0  0  0  0  0  0  0
  -24.1880  -36.7630   23.0840 C   0  0  0  0  0  1  0  0  0  0  0  0
  -25.4320  -36.3510   23.8860 C   0  0  0  0  0  3  0  0  0  0  0  0
  -27.5720  -37.2340   24.7100 C   0  0  0  0  0  1  0  0  0  0  0  0
  -26.4660  -37.4040   23.7710 N   0  0  0  0  0  0  0  0  0  0  0  0
  -26.0620  -38.3250   23.9210 H   0  0  0  0  0  0  0  0  0  0  0  0
  1 45  1  0
  1  2  1  0
  3 12  1  0
  4  9  1  0
  5  6  1  0
  5  4  1  0
  7  6  1  0
  7 20  1  0
  7  8  1  0
  9  3  1  0
  9  8  1  0
 10  3  2  0
 11 12  1  0
 11  2  1  0
 12 14  1  0
 13 11  2  0
 15 13  1  0
 16 13  1  0
 17 18  2  0
 18 37  1  0
 19 18  1  0
 19 22  1  0
 20 17  1  0
 20 21  1  0
 21 19  2  0
 22 23  1  0
 23 24  2  0
 25 28  1  0
 25 24  1  0
 26 25  2  0
 27 26  1  0
 27 22  2  0
 28 29  1  0
 29 30  1  0
 30 31  2  0
 32 31  1  0
 32 36  1  0
 33 32  2  0
 34 29  2  0
 34 33  1  0
 35 34  1  0
 37 38  1  0
 38 41  1  0
 38 40  1  0
 39 37  2  0
 42 43  1  0
 42 17  1  0
 44 42  1  0
 46 47  1  0
 46 45  1  0
 48 59  2  0
 49 47  1  0
 49 54  1  0
 50 58  1  0
 50 60  1  0
 51 57  1  0
 51 53  1  0
 52 58  1  0
 53 54  2  0
 53 52  1  0
 55 49  2  0
 56 55  1  0
 56 51  2  0
 57 50  1  0
 58 48  1  0
 60 62  2  0
 61 60  1  0
 63 61  1  0
 64 73  2  0
 64 69  1  0
 65 61  1  0
 65 69  1  0
 66 65  1  0
 67 68  1  0
 67 66  1  0
 68 64  1  0
 69 70  2  0
 70 71  1  0
 72 71  2  0
 73 72  1  0
 74 48  1  0
 74 79  1  0
 74 75  1  0
 75 78  1  1
 75 76  1  0
 77 75  1  0
 79 82  1  0
 80 84  1  0
 80 79  1  0
 81 80  2  0
 84 83  1  0
 86 84  1  0
 86 87  1  0
 86 85  1  0
M  ISO  4   3 100  12 100  46 101  47 101
M  END
>  <TORSDO>  (22) 
F 19

>  <SCORE>  (22) 
-15.847

>  <name>  (22) 
21

>  <ligand_id>  (22) 
21

>  <original_smiles>  (22) 
[H]c1c([H])c([H])c2c(c1[H])C([H])([H])C([H])([H])C([H])([H])C2([H])N([H])C(=O)C1([H])N(C(=O)C([H])(N([H])C(=O)C([H])(N([H])C([H])([H])[H])C([H])([H])[H])C(C([H])([H])[H])(C([H])([H])[H])C([H])([H])[H])C([H])([H])c2c([H])c(OC([H])([H])C([H])([H])C([H])([H])C([H])([H])C(N([H])C(=O)N3C([H])([H])C([H])([H])C([H])([H])C([H])(n4nc(-c5c([H])c([H])c(Oc6c([H])c([H])c(F)c([H])c6F)c([H])c5[H])c(C(=O)N([H])[H])c4N([H])[H])C3([H])[H])=[N+]([H])[H])c([H])c([H])c2C1([H])[H]

>  <smiles>  (22) 
[H]c1c([H])c([H])c2c(c1[H])C([H])([H])C([H])([H])C([H])([H])C2([H])N([H])C(=O)C1([H])N(C(=O)C([H])(N([H])C(=O)C([H])(N([H])C([H])([H])[H])C([H])([H])[H])C(C([H])([H])[H])(C([H])([H])[H])C([H])([H])[H])C([H])([H])c2c([H])c(OC([H])([H])C([H])([H])C([H])([H])C([H])([H])C(N([H])C(=O)N3C([H])([H])C([H])([H])C([H])([H])C([H])(n4nc(-c5c([H])c([H])c(Oc6c([H])c([H])c(F)c([H])c6F)c([H])c5[H])c(C(=O)N([H])[H])c4N([H])[H])C3([H])[H])=[N+]([H])[H])c([H])c([H])c2C1([H])[H]

$$$$
22:0:0
     RDKit          3D

 92100  0  0  1  0  0  0  0  0999 V2000
  -27.1900  -22.9590   20.8560 C   0  0  0  0  0  2  0  0  0  0  0  0
  -28.3170  -22.0140   21.3780 C   0  0  0  0  0  2  0  0  0  0  0  0
  -30.2000  -22.7630   19.9020 C   0  0  0  0  0  2  0  0  0  0  0  0
  -27.4330  -23.9490   19.6740 C   0  0  0  0  0  2  0  0  0  0  0  0
  -29.8380  -24.2840   20.3010 C   0  0  0  0  0  2  0  0  0  0  0  0
  -29.3230  -21.4900   20.3260 C   0  0  0  0  0  3  0  0  0  0  0  0
  -28.5680  -25.0310   19.7180 C   0  0  0  0  0  3  0  0  0  0  0  0
  -28.3990  -26.4260   20.2780 O   0  0  0  0  0  0  0  0  0  0  0  0
  -24.6060  -31.8560   23.2360 C   0  0  0  0  0  0  0  0  0  0  0  0
  -27.2750  -27.2850   20.1530 C   0  0  0  0  0  0  0  0  0  0  0  0
  -23.4260  -30.4600   21.5790 C   0  0  0  0  0  3  0  0  0  0  0  0
  -24.9030  -28.9220   20.1470 C   0  0  0  0  0  0  0  0  0  0  0  0
  -25.9770  -30.7570   21.4540 C   0  0  0  0  0  2  0  0  0  0  0  0
  -26.0580  -29.3830   20.7900 C   0  0  0  0  0  0  0  0  0  0  0  0
  -27.2370  -28.5700   20.7940 C   0  0  0  0  0  3  0  0  0  0  0  0
  -26.1220  -26.9280   19.4230 C   0  0  0  0  0  3  0  0  0  0  0  0
  -24.9420  -27.7050   19.4500 C   0  0  0  0  0  3  0  0  0  0  0  0
  -23.6620  -29.7930   20.1950 C   0  0  0  0  0  2  0  0  0  0  0  0
  -24.6860  -31.0420   22.1460 N   0  0  0  0  0  0  0  0  0  0  0  0
  -23.5150  -32.1360   23.7540 O   0  0  0  0  0  0  0  0  0  0  0  0
  -22.7510  -29.4420   22.5280 C   0  0  0  0  0  0  0  0  0  0  0  0
  -21.4290  -29.2540   22.3710 N   0  0  0  0  0  0  0  0  0  0  0  0
  -23.4140  -28.8250   23.3650 O   0  0  0  0  0  0  0  0  0  0  0  0
  -20.9580  -29.8110   21.6740 H   0  0  0  0  0  0  0  0  0  0  0  0
  -18.0640  -27.9850   22.7720 C   0  0  0  0  0  0  0  0  0  0  0  0
  -20.6020  -28.3140   23.1320 C   0  0  0  0  0  3  0  0  0  0  0  0
  -20.7570  -26.8740   22.5960 C   0  0  0  0  0  2  0  0  0  0  0  0
  -19.7090  -26.4990   21.5420 C   0  0  0  0  0  2  0  0  0  0  0  0
  -18.2960  -26.6330   22.1190 C   0  0  0  0  0  2  0  0  0  0  0  0
  -19.1470  -28.7830   23.2290 C   0  0  0  0  0  0  0  0  0  0  0  0
  -18.8740  -30.0490   23.7930 C   0  0  0  0  0  3  0  0  0  0  0  0
  -17.5530  -30.5240   23.8960 C   0  0  0  0  0  3  0  0  0  0  0  0
  -16.4840  -29.7240   23.4570 C   0  0  0  0  0  3  0  0  0  0  0  0
  -16.7400  -28.4570   22.9080 C   0  0  0  0  0  3  0  0  0  0  0  0
  -25.8780  -32.4900   23.8790 C   0  0  0  0  0  3  0  0  0  0  0  0
  -25.5640  -33.8890   24.2060 N   0  0  0  0  0  0  0  0  0  0  0  0
  -25.8970  -34.9450   23.4530 C   0  0  0  0  0  0  0  0  0  0  0  0
  -26.5660  -34.8430   22.4200 O   0  0  0  0  0  0  0  0  0  0  0  0
  -24.9630  -34.0420   25.0020 H   0  0  0  0  0  0  0  0  0  0  0  0
  -24.1540  -36.7270   23.1190 C   0  0  0  0  0  1  0  0  0  0  0  0
  -25.4100  -36.3330   23.9140 C   0  0  0  0  0  3  0  0  0  0  0  0
  -27.5560  -37.2250   24.7090 C   0  0  0  0  0  1  0  0  0  0  0  0
  -26.4350  -37.3920   23.7850 N   0  0  0  0  0  0  0  0  0  0  0  0
  -26.0310  -38.3100   23.9430 H   0  0  0  0  0  0  0  0  0  0  0  0
  -26.3830  -31.7210   25.1630 C   0  0  1  0  0  0  0  0  0  0  0  0
  -25.2740  -31.4820   26.2130 C   0  0  0  0  0  1  0  0  0  0  0  0
  -26.9700  -30.3410   24.7860 C   0  0  0  0  0  1  0  0  0  0  0  0
  -27.5300  -32.5160   25.8330 C   0  0  0  0  0  1  0  0  0  0  0  0
  -30.1460  -20.1430   20.7780 C   0  0  0  0  0  2  0  0  0  0  0  0
  -29.6340  -18.6860   20.5860 N   0  0  2  0  0  4  0  0  0  0  0  0
  -29.1770  -18.5390   21.4740 H   0  0  0  0  0  0  0  0  0  0  0  0
  -30.6310  -17.5040   20.5830 C   0  0  0  0  0  2  0  0  0  0  0  0
  -30.1400  -16.0600   21.1520 C   0  0  0  0  0  2  0  0  0  0  0  0
  -30.9060  -14.7240   20.7040 C   0  0  0  0  0  0  0  0  0  0  0  0
  -30.8010  -12.3660   19.8320 C   0  0  0  0  0  2  0  0  0  0  0  0
  -29.9630  -12.3480   18.5330 C   0  0  0  0  0  2  0  0  0  0  0  0
  -28.4680  -12.1840   18.8740 C   0  0  0  0  0  2  0  0  0  0  0  0
  -28.0010  -13.1490   20.0000 C   0  0  0  0  0  3  0  0  0  0  0  0
  -28.9840  -13.1480   21.1980 C   0  0  0  0  0  2  0  0  0  0  0  0
  -30.3080  -13.4810   20.6710 N   0  0  0  0  0  0  0  0  0  0  0  0
  -32.0700  -14.8350   20.3140 O   0  0  0  0  0  0  0  0  0  0  0  0
  -25.5790  -13.7820   20.5720 C   0  0  0  0  0  0  0  0  0  0  0  0
  -24.4850  -13.0290   20.9030 C   0  0  0  0  0  0  0  0  0  0  0  0
  -24.9330  -11.6740   20.9220 C   0  0  0  0  0  0  0  0  0  0  0  0
  -26.6240  -12.8860   20.4120 N   0  0  0  0  0  0  0  0  0  0  0  0
  -26.2370  -11.6130   20.6850 N   0  0  0  0  0  0  0  0  0  0  0  0
  -24.1870  -10.4210   21.0950 C   0  0  0  0  0  0  0  0  0  0  0  0
  -24.5690   -9.4560   22.0540 C   0  0  0  0  0  3  0  0  0  0  0  0
  -23.8180   -8.2720   22.2160 C   0  0  0  0  0  3  0  0  0  0  0  0
  -22.6760   -8.0400   21.4120 C   0  0  0  0  0  0  0  0  0  0  0  0
  -22.3140   -8.9940   20.4420 C   0  0  0  0  0  3  0  0  0  0  0  0
  -23.0640  -10.1700   20.2810 C   0  0  0  0  0  3  0  0  0  0  0  0
  -21.9090   -6.9020   21.4740 O   0  0  0  0  0  0  0  0  0  0  0  0
  -21.7950   -6.1710   22.6320 C   0  0  0  0  0  0  0  0  0  0  0  0
  -21.3390   -6.7540   23.8330 C   0  0  0  0  0  3  0  0  0  0  0  0
  -21.1720   -5.9560   24.9830 C   0  0  0  0  0  3  0  0  0  0  0  0
  -21.4530   -4.5790   24.9280 C   0  0  0  0  0  0  0  0  0  0  0  0
  -21.9010   -3.9950   23.7320 C   0  0  0  0  0  3  0  0  0  0  0  0
  -22.0710   -4.7910   22.5820 C   0  0  0  0  0  0  0  0  0  0  0  0
  -22.4850   -4.2210   21.4260 F   0  0  0  0  0  0  0  0  0  0  0  0
  -21.2870   -3.8110   26.0300 F   0  0  0  0  0  0  0  0  0  0  0  0
  -23.0840  -13.5320   21.0950 C   0  0  0  0  0  0  0  0  0  0  0  0
  -22.3050  -12.8640   21.9370 N   0  0  0  0  0  0  0  0  0  0  0  0
  -22.6840  -14.5510   20.5360 O   0  0  0  0  0  0  0  0  0  0  0  0
  -22.6400  -12.0350   22.4020 H   0  0  0  0  0  0  0  0  0  0  0  0
  -21.3750  -13.2070   22.1270 H   0  0  0  0  0  0  0  0  0  0  0  0
  -25.7620  -15.1430   20.3620 N   0  0  0  0  0  0  0  0  0  0  0  0
  -24.9680  -15.7710   20.3790 H   0  0  0  0  0  0  0  0  0  0  0  0
  -26.5890  -15.5550   19.9500 H   0  0  0  0  0  0  0  0  0  0  0  0
  -28.5210  -18.5120   19.6200 C   0  0  0  0  0  2  0  0  0  0  0  0
  -26.0210  -17.9780   19.4240 C   0  0  0  0  0  1  0  0  0  0  0  0
  -27.2670  -17.9490   20.3160 C   0  0  0  0  0  2  0  0  0  0  0  0
  1  2  1  0
  3  5  1  0
  3  6  1  0
  4  7  1  0
  4  1  1  0
  6 49  1  0
  6  2  1  0
  7  8  1  0
  7  5  1  0
  9 20  2  0
 10  8  1  0
 10 15  1  0
 11 19  1  0
 11 21  1  0
 12 18  1  0
 12 14  1  0
 13 19  1  0
 14 15  2  0
 14 13  1  0
 16 17  1  0
 16 10  2  0
 17 12  2  0
 18 11  1  0
 19  9  1  0
 21 23  2  0
 22 21  1  0
 24 22  1  0
 25 34  2  0
 25 30  1  0
 26 22  1  0
 26 30  1  0
 27 26  1  0
 28 29  1  0
 28 27  1  0
 29 25  1  0
 30 31  2  0
 31 32  1  0
 33 32  2  0
 34 33  1  0
 35  9  1  0
 35 36  1  0
 35 45  1  0
 36 39  1  0
 37 41  1  0
 37 36  1  0
 38 37  2  0
 41 40  1  0
 43 41  1  0
 43 44  1  0
 43 42  1  0
 45 48  1  1
 45 46  1  0
 47 45  1  0
 50 49  1  0
 50 51  1  1
 52 50  1  0
 52 53  1  0
 54 53  1  0
 55 60  1  0
 56 57  1  0
 56 55  1  0
 58 57  1  0
 58 65  1  0
 58 59  1  0
 60 54  1  0
 60 59  1  0
 61 54  2  0
 62 63  2  0
 63 64  1  0
 63 82  1  0
 64 67  1  0
 65 62  1  0
 65 66  1  0
 66 64  2  0
 67 68  1  0
 68 69  2  0
 70 73  1  0
 70 69  1  0
 71 70  2  0
 72 71  1  0
 72 67  2  0
 73 74  1  0
 74 75  1  0
 75 76  2  0
 77 76  1  0
 77 81  1  0
 78 77  2  0
 79 74  2  0
 79 78  1  0
 80 79  1  0
 82 83  1  0
 83 86  1  0
 83 85  1  0
 84 82  2  0
 87 88  1  0
 87 62  1  0
 89 87  1  0
 90 92  1  0
 90 50  1  0
 91 92  1  0
M  ISO  4   7 101   8 101  53 100  54 100
M  END
>  <TORSDO>  (23) 
F 22

>  <SCORE>  (23) 
-12.912

>  <name>  (23) 
22

>  <ligand_id>  (23) 
22

>  <original_smiles>  (23) 
[H]c1c([H])c([H])c2c(c1[H])C([H])([H])C([H])([H])C([H])([H])C2([H])N([H])C(=O)C1([H])N(C(=O)C([H])(N([H])C(=O)C([H])(N([H])C([H])([H])[H])C([H])([H])[H])C(C([H])([H])[H])(C([H])([H])[H])C([H])([H])[H])C([H])([H])c2c([H])c(OC3([H])C([H])([H])C([H])([H])C([H])([H])C([H])(C([H])([H])[N+]([H])(C([H])([H])C([H])([H])C(=O)N4C([H])([H])C([H])([H])C([H])([H])C([H])(n5nc(-c6c([H])c([H])c(Oc7c([H])c([H])c(F)c([H])c7F)c([H])c6[H])c(C(=O)N([H])[H])c5N([H])[H])C4([H])[H])C([H])([H])C([H])([H])C([H])([H])[H])C([H])([H])C3([H])[H])c([H])c([H])c2C1([H])[H]

>  <smiles>  (23) 
[H]c1c([H])c([H])c2c(c1[H])C([H])([H])C([H])([H])C([H])([H])C2([H])N([H])C(=O)C1([H])N(C(=O)C([H])(N([H])C(=O)C([H])(N([H])C([H])([H])[H])C([H])([H])[H])C(C([H])([H])[H])(C([H])([H])[H])C([H])([H])[H])C([H])([H])c2c([H])c(OC3([H])C([H])([H])C([H])([H])C([H])([H])C([H])(C([H])([H])[N+]([H])(C([H])([H])C([H])([H])C(=O)N4C([H])([H])C([H])([H])C([H])([H])C([H])(n5nc(-c6c([H])c([H])c(Oc7c([H])c([H])c(F)c([H])c7F)c([H])c6[H])c(C(=O)N([H])[H])c5N([H])[H])C4([H])[H])C([H])([H])C([H])([H])C([H])([H])[H])C([H])([H])C3([H])[H])c([H])c([H])c2C1([H])[H]

$$$$
23:0:0
     RDKit          3D

 91 99  0  0  1  0  0  0  0  0999 V2000
  -29.8150  -19.0730   21.3630 C   0  0  0  0  0  0  0  0  0  0  0  0
  -29.0710  -20.4890   18.9870 C   0  0  0  0  0  2  0  0  0  0  0  0
  -29.8990  -18.0780   20.1030 C   0  0  0  0  0  3  0  0  0  0  0  0
  -28.7870  -21.3680   20.3000 C   0  0  0  0  0  3  0  0  0  0  0  0
  -28.9540  -18.8410   19.0420 C   0  0  1  0  0  0  0  0  0  0  0  0
  -27.4780  -18.4760   19.3120 C   0  0  0  0  0  1  0  0  0  0  0  0
  -29.3140  -18.3040   17.6420 C   0  0  0  0  0  1  0  0  0  0  0  0
  -29.4510  -20.4380   21.3280 N   0  0  0  0  0  0  0  0  0  0  0  0
  -30.1420  -18.5950   22.4490 O   0  0  0  0  0  0  0  0  0  0  0  0
  -29.5500  -20.8750   22.2350 H   0  0  0  0  0  0  0  0  0  0  0  0
  -30.5400  -15.2620   20.0680 C   0  0  0  0  0  0  0  0  0  0  0  0
  -30.4750  -12.8650   19.1500 C   0  0  0  0  0  2  0  0  0  0  0  0
  -29.5010  -12.7480   17.9540 C   0  0  0  0  0  2  0  0  0  0  0  0
  -28.0660  -12.4800   18.4460 C   0  0  0  0  0  2  0  0  0  0  0  0
  -27.6730  -13.4010   19.6280 C   0  0  0  0  0  3  0  0  0  0  0  0
  -28.7700  -13.4800   20.7120 C   0  0  0  0  0  2  0  0  0  0  0  0
  -29.9890  -13.9660   20.0480 N   0  0  0  0  0  0  0  0  0  0  0  0
  -31.7310  -15.3250   19.7340 O   0  0  0  0  0  0  0  0  0  0  0  0
  -29.7470  -16.4600   20.2700 N   0  0  0  0  0  0  0  0  0  0  0  0
  -28.8150  -16.2210   20.5700 H   0  0  0  0  0  0  0  0  0  0  0  0
  -25.3310  -13.9240   20.5030 C   0  0  0  0  0  0  0  0  0  0  0  0
  -24.2920  -13.1290   20.8960 C   0  0  0  0  0  0  0  0  0  0  0  0
  -24.7650  -11.7830   20.7980 C   0  0  0  0  0  0  0  0  0  0  0  0
  -26.3670  -13.0660   20.1830 N   0  0  0  0  0  0  0  0  0  0  0  0
  -26.0410  -11.7690   20.4270 N   0  0  0  0  0  0  0  0  0  0  0  0
  -24.0550  -10.5090   20.9780 C   0  0  0  0  0  0  0  0  0  0  0  0
  -24.4830   -9.5520   21.9240 C   0  0  0  0  0  3  0  0  0  0  0  0
  -23.7690   -8.3450   22.0940 C   0  0  0  0  0  3  0  0  0  0  0  0
  -22.6130   -8.0890   21.3180 C   0  0  0  0  0  0  0  0  0  0  0  0
  -22.2050   -9.0360   20.3620 C   0  0  0  0  0  3  0  0  0  0  0  0
  -22.9200  -10.2340   20.1910 C   0  0  0  0  0  3  0  0  0  0  0  0
  -21.8730   -6.9330   21.3950 O   0  0  0  0  0  0  0  0  0  0  0  0
  -21.7400   -6.2410   22.5720 C   0  0  0  0  0  0  0  0  0  0  0  0
  -21.1490   -6.8210   23.7150 C   0  0  0  0  0  3  0  0  0  0  0  0
  -20.9690   -6.0510   24.8820 C   0  0  0  0  0  3  0  0  0  0  0  0
  -21.3730   -4.7020   24.9060 C   0  0  0  0  0  0  0  0  0  0  0  0
  -21.9570   -4.1220   23.7670 C   0  0  0  0  0  3  0  0  0  0  0  0
  -22.1380   -4.8880   22.6030 C   0  0  0  0  0  0  0  0  0  0  0  0
  -22.6830   -4.3180   21.5010 F   0  0  0  0  0  0  0  0  0  0  0  0
  -21.1940   -3.9600   26.0240 F   0  0  0  0  0  0  0  0  0  0  0  0
  -22.9050  -13.5860   21.2430 C   0  0  0  0  0  0  0  0  0  0  0  0
  -22.2230  -12.8620   22.1220 N   0  0  0  0  0  0  0  0  0  0  0  0
  -22.4380  -14.6220   20.7710 O   0  0  0  0  0  0  0  0  0  0  0  0
  -22.6150  -12.0240   22.5260 H   0  0  0  0  0  0  0  0  0  0  0  0
  -21.2950  -13.1520   22.3980 H   0  0  0  0  0  0  0  0  0  0  0  0
  -25.4750  -15.3010   20.3640 N   0  0  0  0  0  0  0  0  0  0  0  0
  -24.7010  -15.9370   20.5230 H   0  0  0  0  0  0  0  0  0  0  0  0
  -26.2810  -15.7560   19.9600 H   0  0  0  0  0  0  0  0  0  0  0  0
  -29.0370  -23.1160   20.3980 C   0  0  0  0  0  3  0  0  0  0  0  0
  -28.0210  -24.5200   20.1130 C   0  0  0  0  0  3  0  0  0  0  0  0
  -28.2550  -26.0980   20.3570 O   0  0  0  0  0  0  0  0  0  0  0  0
  -24.6100  -31.9170   23.3130 C   0  0  0  0  0  0  0  0  0  0  0  0
  -27.2270  -27.1470   20.2800 C   0  0  0  0  0  0  0  0  0  0  0  0
  -23.4440  -30.5460   21.6320 C   0  0  0  0  0  3  0  0  0  0  0  0
  -24.9180  -28.9700   20.2160 C   0  0  0  0  0  0  0  0  0  0  0  0
  -26.0080  -30.7780   21.5320 C   0  0  0  0  0  2  0  0  0  0  0  0
  -26.0900  -29.3840   20.8610 C   0  0  0  0  0  0  0  0  0  0  0  0
  -27.2420  -28.4920   20.8700 C   0  0  0  0  0  3  0  0  0  0  0  0
  -26.0250  -26.8600   19.5950 C   0  0  0  0  0  3  0  0  0  0  0  0
  -24.9050  -27.7270   19.5660 C   0  0  0  0  0  3  0  0  0  0  0  0
  -23.6960  -29.8830   20.2500 C   0  0  0  0  0  2  0  0  0  0  0  0
  -24.7070  -31.1040   22.2140 N   0  0  0  0  0  0  0  0  0  0  0  0
  -23.5120  -32.1980   23.8200 O   0  0  0  0  0  0  0  0  0  0  0  0
  -22.7360  -29.5330   22.5680 C   0  0  0  0  0  0  0  0  0  0  0  0
  -21.4120  -29.3510   22.3960 N   0  0  0  0  0  0  0  0  0  0  0  0
  -23.3810  -28.9130   23.4170 O   0  0  0  0  0  0  0  0  0  0  0  0
  -20.9460  -29.9040   21.6910 H   0  0  0  0  0  0  0  0  0  0  0  0
  -18.0260  -28.1210   22.7970 C   0  0  0  0  0  0  0  0  0  0  0  0
  -20.5750  -28.4020   23.1370 C   0  0  0  0  0  3  0  0  0  0  0  0
  -20.7040  -26.9750   22.5550 C   0  0  0  0  0  2  0  0  0  0  0  0
  -19.6330  -26.6530   21.5070 C   0  0  0  0  0  2  0  0  0  0  0  0
  -18.2320  -26.7800   22.1130 C   0  0  0  0  0  2  0  0  0  0  0  0
  -19.1260  -28.8900   23.2640 C   0  0  0  0  0  0  0  0  0  0  0  0
  -18.8780  -30.1420   23.8670 C   0  0  0  0  0  3  0  0  0  0  0  0
  -17.5630  -30.6270   24.0060 C   0  0  0  0  0  3  0  0  0  0  0  0
  -16.4790  -29.8560   23.5530 C   0  0  0  0  0  3  0  0  0  0  0  0
  -16.7100  -28.6050   22.9550 C   0  0  0  0  0  3  0  0  0  0  0  0
  -25.8720  -32.5450   23.9790 C   0  0  0  0  0  3  0  0  0  0  0  0
  -25.5670  -33.9540   24.2830 N   0  0  0  0  0  0  0  0  0  0  0  0
  -25.8960  -34.9950   23.5070 C   0  0  0  0  0  0  0  0  0  0  0  0
  -26.5520  -34.8700   22.4700 O   0  0  0  0  0  0  0  0  0  0  0  0
  -24.9820  -34.1220   25.0880 H   0  0  0  0  0  0  0  0  0  0  0  0
  -24.1500  -36.7800   23.1820 C   0  0  0  0  0  1  0  0  0  0  0  0
  -25.4250  -36.3950   23.9500 C   0  0  0  0  0  3  0  0  0  0  0  0
  -27.5830  -37.3180   24.6790 C   0  0  0  0  0  1  0  0  0  0  0  0
  -26.4490  -37.4480   23.7660 N   0  0  0  0  0  0  0  0  0  0  0  0
  -26.0450  -38.3710   23.8940 H   0  0  0  0  0  0  0  0  0  0  0  0
  -26.3230  -31.7890   25.2890 C   0  0  1  0  0  0  0  0  0  0  0  0
  -25.1820  -31.5820   26.3130 C   0  0  0  0  0  1  0  0  0  0  0  0
  -26.9070  -30.3970   24.9510 C   0  0  0  0  0  1  0  0  0  0  0  0
  -27.4540  -32.5800   25.9870 C   0  0  0  0  0  1  0  0  0  0  0  0
  1  9  2  0
  2  5  1  0
  2  4  1  0
  3 19  1  0
  3  1  1  0
  4 49  1  0
  4  8  1  0
  5  6  1  1
  5  3  1  0
  7  5  1  0
  8  1  1  0
  8 10  1  0
 11 19  1  0
 12 17  1  0
 13 14  1  0
 13 12  1  0
 15 14  1  0
 15 24  1  0
 15 16  1  0
 17 11  1  0
 17 16  1  0
 18 11  2  0
 19 20  1  0
 21 22  2  0
 22 41  1  0
 23 22  1  0
 23 26  1  0
 24 25  1  0
 24 21  1  0
 25 23  2  0
 26 27  1  0
 27 28  2  0
 29 32  1  0
 29 28  1  0
 30 29  2  0
 31 30  1  0
 31 26  2  0
 32 33  1  0
 33 38  2  0
 33 34  1  0
 34 35  2  0
 35 36  1  0
 36 40  1  0
 37 36  2  0
 38 37  1  0
 39 38  1  0
 41 42  1  0
 42 45  1  0
 42 44  1  0
 43 41  2  0
 46 21  1  0
 46 47  1  0
 48 46  1  0
 50 51  1  0
 50 49  2  0
 52 63  2  0
 53 51  1  0
 53 58  1  0
 54 62  1  0
 54 64  1  0
 55 61  1  0
 55 57  1  0
 56 62  1  0
 57 58  2  0
 57 56  1  0
 59 53  2  0
 60 59  1  0
 60 55  2  0
 61 54  1  0
 62 52  1  0
 64 66  2  0
 65 64  1  0
 67 65  1  0
 68 77  2  0
 68 73  1  0
 69 65  1  0
 69 73  1  0
 70 69  1  0
 71 72  1  0
 71 70  1  0
 72 68  1  0
 73 74  2  0
 74 75  1  0
 76 75  2  0
 77 76  1  0
 78 52  1  0
 78 79  1  0
 78 88  1  0
 79 82  1  0
 80 84  1  0
 80 79  1  0
 81 80  2  0
 84 83  1  0
 86 87  1  0
 86 84  1  0
 86 85  1  0
 88 91  1  1
 88 89  1  0
 90 88  1  0
M  ISO  4  11 100  19 100  50 101  51 101
M  END
>  <TORSDO>  (24) 
F 18

>  <SCORE>  (24) 
-15.221

>  <name>  (24) 
23

>  <ligand_id>  (24) 
23

>  <original_smiles>  (24) 
[H]c1c([H])c([H])c2c(c1[H])C([H])([H])C([H])([H])C([H])([H])C2([H])N([H])C(=O)C1([H])N(C(=O)C([H])(N([H])C(=O)C([H])(N([H])C([H])([H])[H])C([H])([H])[H])C(C([H])([H])[H])(C([H])([H])[H])C([H])([H])[H])C([H])([H])c2c([H])c(OC([H])([H])C([H])([H])C3([H])N([H])C(=O)C([H])(N([H])C(=O)N4C([H])([H])C([H])([H])C([H])([H])C([H])(n5nc(-c6c([H])c([H])c(Oc7c([H])c([H])c(F)c([H])c7F)c([H])c6[H])c(C(=O)N([H])[H])c5N([H])[H])C4([H])[H])C(C([H])([H])[H])(C([H])([H])[H])C3([H])[H])c([H])c([H])c2C1([H])[H]

>  <smiles>  (24) 
[H]c1c([H])c([H])c2c(c1[H])C([H])([H])C([H])([H])C([H])([H])C2([H])N([H])C(=O)C1([H])N(C(=O)C([H])(N([H])C(=O)C([H])(N([H])C([H])([H])[H])C([H])([H])[H])C(C([H])([H])[H])(C([H])([H])[H])C([H])([H])[H])C([H])([H])c2c([H])c(OC([H])([H])C([H])([H])C3([H])N([H])C(=O)C([H])(N([H])C(=O)N4C([H])([H])C([H])([H])C([H])([H])C([H])(n5nc(-c6c([H])c([H])c(Oc7c([H])c([H])c(F)c([H])c7F)c([H])c6[H])c(C(=O)N([H])[H])c5N([H])[H])C4([H])[H])C(C([H])([H])[H])(C([H])([H])[H])C3([H])[H])c([H])c([H])c2C1([H])[H]

$$$$
24:0:0
     RDKit          3D

 87 94  0  0  1  0  0  0  0  0999 V2000
  -29.3660  -20.3500   19.9820 C   0  0  0  0  0  2  0  0  0  0  0  0
  -28.6270  -22.0430   20.5230 C   0  0  0  0  0  2  0  0  0  0  0  0
  -28.1530  -23.7860   19.8830 C   0  0  0  0  0  2  0  0  0  0  0  0
  -28.1380  -25.4640   20.3530 O   0  0  0  0  0  0  0  0  0  0  0  0
  -24.6230  -31.7210   23.1370 C   0  0  0  0  0  0  0  0  0  0  0  0
  -27.1780  -26.6610   20.2030 C   0  0  0  0  0  0  0  0  0  0  0  0
  -23.4540  -30.3310   21.4740 C   0  0  0  0  0  3  0  0  0  0  0  0
  -24.9250  -28.6860   20.0780 C   0  0  0  0  0  0  0  0  0  0  0  0
  -26.0310  -30.4670   21.4020 C   0  0  0  0  0  2  0  0  0  0  0  0
  -26.0970  -29.0370   20.7540 C   0  0  0  0  0  0  0  0  0  0  0  0
  -27.2040  -28.0450   20.7970 C   0  0  0  0  0  3  0  0  0  0  0  0
  -25.9880  -26.5190   19.4440 C   0  0  0  0  0  3  0  0  0  0  0  0
  -24.9080  -27.4550   19.3960 C   0  0  0  0  0  3  0  0  0  0  0  0
  -23.7190  -29.6420   20.1010 C   0  0  0  0  0  2  0  0  0  0  0  0
  -24.7250  -30.8710   22.0590 N   0  0  0  0  0  0  0  0  0  0  0  0
  -23.5240  -32.0260   23.6320 O   0  0  0  0  0  0  0  0  0  0  0  0
  -22.7190  -29.3510   22.4310 C   0  0  0  0  0  0  0  0  0  0  0  0
  -21.3870  -29.2090   22.2890 N   0  0  0  0  0  0  0  0  0  0  0  0
  -23.3580  -28.7200   23.2780 O   0  0  0  0  0  0  0  0  0  0  0  0
  -20.9310  -29.7190   21.5460 H   0  0  0  0  0  0  0  0  0  0  0  0
  -17.9620  -28.1400   22.8600 C   0  0  0  0  0  0  0  0  0  0  0  0
  -20.5390  -28.3000   23.0710 C   0  0  0  0  0  3  0  0  0  0  0  0
  -20.5690  -26.8720   22.4770 C   0  0  0  0  0  2  0  0  0  0  0  0
  -19.4260  -26.5920   21.4930 C   0  0  0  0  0  2  0  0  0  0  0  0
  -18.0710  -26.7870   22.1800 C   0  0  0  0  0  2  0  0  0  0  0  0
  -19.1200  -28.8490   23.2800 C   0  0  0  0  0  0  0  0  0  0  0  0
  -18.9580  -30.0960   23.9210 C   0  0  0  0  0  3  0  0  0  0  0  0
  -17.6780  -30.6340   24.1440 C   0  0  0  0  0  3  0  0  0  0  0  0
  -16.5370  -29.9320   23.7210 C   0  0  0  0  0  3  0  0  0  0  0  0
  -16.6790  -28.6860   23.0830 C   0  0  0  0  0  3  0  0  0  0  0  0
  -25.8820  -32.3660   23.7930 C   0  0  0  0  0  3  0  0  0  0  0  0
  -25.5630  -33.7670   24.1300 N   0  0  0  0  0  0  0  0  0  0  0  0
  -25.9140  -34.8350   23.4010 C   0  0  0  0  0  0  0  0  0  0  0  0
  -26.6030  -34.7450   22.3820 O   0  0  0  0  0  0  0  0  0  0  0  0
  -24.9610  -33.9080   24.9270 H   0  0  0  0  0  0  0  0  0  0  0  0
  -24.1990  -36.6480   23.0540 C   0  0  0  0  0  1  0  0  0  0  0  0
  -25.4290  -36.2240   23.8730 C   0  0  0  0  0  3  0  0  0  0  0  0
  -27.5600  -37.0940   24.7350 C   0  0  0  0  0  1  0  0  0  0  0  0
  -26.4690  -37.2760   23.7800 N   0  0  0  0  0  0  0  0  0  0  0  0
  -26.0660  -38.1970   23.9340 H   0  0  0  0  0  0  0  0  0  0  0  0
  -26.3620  -31.5970   25.0860 C   0  0  1  0  0  0  0  0  0  0  0  0
  -25.2480  -31.3610   26.1320 C   0  0  0  0  0  1  0  0  0  0  0  0
  -26.9460  -30.2160   24.7220 C   0  0  0  0  0  1  0  0  0  0  0  0
  -27.5090  -32.3820   25.7680 C   0  0  0  0  0  1  0  0  0  0  0  0
  -29.1810  -18.4480   20.1840 C   0  0  0  0  0  3  0  0  0  0  0  0
  -30.6760  -15.5890   20.6610 C   0  0  0  0  0  0  0  0  0  0  0  0
  -30.7620  -12.9750   20.2220 C   0  0  0  0  0  2  0  0  0  0  0  0
  -30.0620  -12.3790   18.9800 C   0  0  0  0  0  2  0  0  0  0  0  0
  -28.6010  -12.0480   19.3060 C   0  0  0  0  0  2  0  0  0  0  0  0
  -27.9400  -13.1750   20.1320 C   0  0  0  0  0  3  0  0  0  0  0  0
  -28.8070  -13.7330   21.2900 C   0  0  0  0  0  2  0  0  0  0  0  0
  -30.0510  -14.2670   20.6810 N   0  0  0  0  0  0  0  0  0  0  0  0
  -31.9000  -15.3450   20.6660 O   0  0  0  0  0  0  0  0  0  0  0  0
  -31.2710  -17.9130   21.3500 C   0  0  0  0  0  1  0  0  0  0  0  0
  -30.2530  -17.1130   20.6190 N   0  0  0  0  0  0  0  0  0  0  0  0
  -25.5160  -13.7290   20.6280 C   0  0  0  0  0  0  0  0  0  0  0  0
  -24.4200  -12.9670   20.9180 C   0  0  0  0  0  0  0  0  0  0  0  0
  -24.8850  -11.6210   20.9910 C   0  0  0  0  0  0  0  0  0  0  0  0
  -26.5780  -12.8530   20.5350 N   0  0  0  0  0  0  0  0  0  0  0  0
  -26.2040  -11.5750   20.8150 N   0  0  0  0  0  0  0  0  0  0  0  0
  -24.1320  -10.3690   21.1620 C   0  0  0  0  0  0  0  0  0  0  0  0
  -24.5050   -9.4050   22.1230 C   0  0  0  0  0  3  0  0  0  0  0  0
  -23.7510   -8.2230   22.2840 C   0  0  0  0  0  3  0  0  0  0  0  0
  -22.6070   -7.9960   21.4830 C   0  0  0  0  0  0  0  0  0  0  0  0
  -22.2520   -8.9490   20.5100 C   0  0  0  0  0  3  0  0  0  0  0  0
  -23.0080  -10.1230   20.3470 C   0  0  0  0  0  3  0  0  0  0  0  0
  -21.8320   -6.8630   21.5500 O   0  0  0  0  0  0  0  0  0  0  0  0
  -21.7730   -6.0970   22.6860 C   0  0  0  0  0  0  0  0  0  0  0  0
  -21.3670   -6.6330   23.9280 C   0  0  0  0  0  3  0  0  0  0  0  0
  -21.2460   -5.7950   25.0540 C   0  0  0  0  0  3  0  0  0  0  0  0
  -21.5290   -4.4200   24.9440 C   0  0  0  0  0  0  0  0  0  0  0  0
  -21.9320   -3.8830   23.7080 C   0  0  0  0  0  3  0  0  0  0  0  0
  -22.0500   -4.7180   22.5840 C   0  0  0  0  0  0  0  0  0  0  0  0
  -22.4170   -4.1890   21.3920 F   0  0  0  0  0  0  0  0  0  0  0  0
  -21.4100   -3.6140   26.0240 F   0  0  0  0  0  0  0  0  0  0  0  0
  -23.0070  -13.4630   21.0190 C   0  0  0  0  0  0  0  0  0  0  0  0
  -22.1910  -12.8300   21.8550 N   0  0  0  0  0  0  0  0  0  0  0  0
  -22.6320  -14.4510   20.3930 O   0  0  0  0  0  0  0  0  0  0  0  0
  -22.5070  -12.0330   22.3870 H   0  0  0  0  0  0  0  0  0  0  0  0
  -21.2420  -13.1560   21.9720 H   0  0  0  0  0  0  0  0  0  0  0  0
  -25.6890  -15.0880   20.4070 N   0  0  0  0  0  0  0  0  0  0  0  0
  -24.9040  -15.7300   20.3940 H   0  0  0  0  0  0  0  0  0  0  0  0
  -26.5690  -15.5330   20.1810 H   0  0  0  0  0  0  0  0  0  0  0  0
  -28.3780  -17.9320   18.9610 C   0  0  0  0  0  2  0  0  0  0  0  0
  -26.6850  -19.7690   18.1060 C   0  0  0  0  0  1  0  0  0  0  0  0
  -26.0460  -18.2360   20.0120 C   0  0  0  0  0  1  0  0  0  0  0  0
  -26.9020  -18.3850   18.7490 C   0  0  0  0  0  3  0  0  0  0  0  0
  1 45  1  0
  1  2  1  0
  3  4  1  0
  3  2  1  0
  5 16  2  0
  6  4  1  0
  6 11  1  0
  7 15  1  0
  7 17  1  0
  8 14  1  0
  8 10  1  0
  9 15  1  0
 10 11  2  0
 10  9  1  0
 12  6  2  0
 13 12  1  0
 13  8  2  0
 14  7  1  0
 15  5  1  0
 17 19  2  0
 18 17  1  0
 20 18  1  0
 21 30  2  0
 21 26  1  0
 22 18  1  0
 22 26  1  0
 23 22  1  0
 24 25  1  0
 24 23  1  0
 25 21  1  0
 26 27  2  0
 27 28  1  0
 29 28  2  0
 30 29  1  0
 31  5  1  0
 31 32  1  0
 31 41  1  0
 32 35  1  0
 33 37  1  0
 33 32  1  0
 34 33  2  0
 37 36  1  0
 39 37  1  0
 39 40  1  0
 39 38  1  0
 41 44  1  1
 41 42  1  0
 43 41  1  0
 45 84  1  0
 45 55  1  0
 46 53  2  0
 46 52  1  0
 47 52  1  0
 48 49  1  0
 48 47  1  0
 50 49  1  0
 50 59  1  0
 50 51  1  0
 52 51  1  0
 55 46  1  0
 55 54  1  0
 56 57  2  0
 57 58  1  0
 57 76  1  0
 58 61  1  0
 59 56  1  0
 59 60  1  0
 60 58  2  0
 61 62  1  0
 62 63  2  0
 64 67  1  0
 64 63  1  0
 65 64  2  0
 66 65  1  0
 66 61  2  0
 67 68  1  0
 68 69  1  0
 69 70  2  0
 71 70  1  0
 71 75  1  0
 72 71  2  0
 73 68  2  0
 73 72  1  0
 74 73  1  0
 76 77  1  0
 77 80  1  0
 77 79  1  0
 78 76  2  0
 81 56  1  0
 82 81  1  0
 83 81  1  0
 85 87  1  0
 87 84  1  0
 87 86  1  0
M  ISO  4   3 101   4 101  46 100  55 100
M  END
>  <TORSDO>  (25) 
F 21

>  <SCORE>  (25) 
-14.720

>  <name>  (25) 
24

>  <ligand_id>  (25) 
24

>  <original_smiles>  (25) 
[H]c1c([H])c([H])c2c(c1[H])C([H])([H])C([H])([H])C([H])([H])C2([H])N([H])C(=O)C1([H])N(C(=O)C([H])(N([H])C(=O)C([H])(N([H])C([H])([H])[H])C([H])([H])[H])C(C([H])([H])[H])(C([H])([H])[H])C([H])([H])[H])C([H])([H])c2c([H])c(OC([H])([H])C([H])([H])C([H])([H])C([H])(N(C(=O)N3C([H])([H])C([H])([H])C([H])([H])C([H])(n4nc(-c5c([H])c([H])c(Oc6c([H])c([H])c(F)c([H])c6F)c([H])c5[H])c(C(=O)N([H])[H])c4N([H])[H])C3([H])[H])C([H])([H])[H])C([H])([H])C([H])(C([H])([H])[H])C([H])([H])[H])c([H])c([H])c2C1([H])[H]

>  <smiles>  (25) 
[H]c1c([H])c([H])c2c(c1[H])C([H])([H])C([H])([H])C([H])([H])C2([H])N([H])C(=O)C1([H])N(C(=O)C([H])(N([H])C(=O)C([H])(N([H])C([H])([H])[H])C([H])([H])[H])C(C([H])([H])[H])(C([H])([H])[H])C([H])([H])[H])C([H])([H])c2c([H])c(OC([H])([H])C([H])([H])C([H])([H])C([H])(N(C(=O)N3C([H])([H])C([H])([H])C([H])([H])C([H])(n4nc(-c5c([H])c([H])c(Oc6c([H])c([H])c(F)c([H])c6F)c([H])c5[H])c(C(=O)N([H])[H])c4N([H])[H])C3([H])[H])C([H])([H])[H])C([H])([H])C([H])(C([H])([H])[H])C([H])([H])[H])c([H])c([H])c2C1([H])[H]

$$$$
25:0:0
     RDKit          3D

 95103  0  0  1  0  0  0  0  0999 V2000
  -32.4010  -20.8160   19.8950 C   0  0  0  0  0  3  0  0  0  0  0  0
  -31.8270  -22.0200   20.3380 C   0  0  0  0  0  3  0  0  0  0  0  0
  -31.5860  -19.6940   19.6430 C   0  0  0  0  0  3  0  0  0  0  0  0
  -29.6210  -20.9830   20.2990 C   0  0  0  0  0  3  0  0  0  0  0  0
  -30.4320  -22.1250   20.5160 C   0  0  0  0  0  0  0  0  0  0  0  0
  -30.1920  -19.7620   19.8620 C   0  0  0  0  0  0  0  0  0  0  0  0
  -29.4910  -18.0410   18.3050 C   0  0  0  0  0  1  0  0  0  0  0  0
  -29.3680  -18.6460   19.6320 N   0  0  0  0  0  0  0  0  0  0  0  0
  -29.1360  -17.7540   20.7740 C   0  0  0  0  0  2  0  0  0  0  0  0
  -30.3480  -16.8570   21.1220 C   0  0  0  0  0  2  0  0  0  0  0  0
  -30.6700  -14.4600   20.5650 C   0  0  0  0  0  0  0  0  0  0  0  0
  -30.3570  -12.3390   19.3580 C   0  0  0  0  0  2  0  0  0  0  0  0
  -29.4360  -12.6240   18.1550 C   0  0  0  0  0  2  0  0  0  0  0  0
  -27.9530  -12.5030   18.5670 C   0  0  0  0  0  2  0  0  0  0  0  0
  -27.6160  -13.2830   19.8660 C   0  0  0  0  0  3  0  0  0  0  0  0
  -28.6620  -12.9980   20.9710 C   0  0  0  0  0  2  0  0  0  0  0  0
  -29.9970  -13.2920   20.4190 N   0  0  0  0  0  0  0  0  0  0  0  0
  -31.7810  -14.6660   20.0700 O   0  0  0  0  0  0  0  0  0  0  0  0
  -29.9850  -15.4420   21.1670 N   0  0  0  0  0  0  0  0  0  0  0  0
  -29.0910  -15.1950   21.5640 H   0  0  0  0  0  0  0  0  0  0  0  0
  -25.2080  -13.8790   20.5440 C   0  0  0  0  0  0  0  0  0  0  0  0
  -24.1390  -13.1020   20.9080 C   0  0  0  0  0  0  0  0  0  0  0  0
  -24.6060  -11.7540   20.8850 C   0  0  0  0  0  0  0  0  0  0  0  0
  -26.2580  -13.0030   20.3260 N   0  0  0  0  0  0  0  0  0  0  0  0
  -25.8980  -11.7190   20.5850 N   0  0  0  0  0  0  0  0  0  0  0  0
  -23.8840  -10.4860   21.0770 C   0  0  0  0  0  0  0  0  0  0  0  0
  -24.3240   -9.5190   22.0050 C   0  0  0  0  0  3  0  0  0  0  0  0
  -23.6060   -8.3180   22.1850 C   0  0  0  0  0  3  0  0  0  0  0  0
  -22.4310   -8.0780   21.4350 C   0  0  0  0  0  0  0  0  0  0  0  0
  -22.0090   -9.0350   20.4960 C   0  0  0  0  0  3  0  0  0  0  0  0
  -22.7280  -10.2270   20.3160 C   0  0  0  0  0  3  0  0  0  0  0  0
  -21.6840   -6.9290   21.5230 O   0  0  0  0  0  0  0  0  0  0  0  0
  -21.6610   -6.1720   22.6670 C   0  0  0  0  0  0  0  0  0  0  0  0
  -21.2640   -6.7100   23.9110 C   0  0  0  0  0  3  0  0  0  0  0  0
  -21.1820   -5.8780   25.0450 C   0  0  0  0  0  3  0  0  0  0  0  0
  -21.4890   -4.5080   24.9390 C   0  0  0  0  0  0  0  0  0  0  0  0
  -21.8840   -3.9690   23.7040 C   0  0  0  0  0  3  0  0  0  0  0  0
  -21.9640   -4.7990   22.5690 C   0  0  0  0  0  0  0  0  0  0  0  0
  -22.3210   -4.2670   21.3750 F   0  0  0  0  0  0  0  0  0  0  0  0
  -21.4070   -3.7100   26.0290 F   0  0  0  0  0  0  0  0  0  0  0  0
  -22.7360  -13.5710   21.1680 C   0  0  0  0  0  0  0  0  0  0  0  0
  -22.0080  -12.8700   22.0310 N   0  0  0  0  0  0  0  0  0  0  0  0
  -22.2920  -14.5910   20.6440 O   0  0  0  0  0  0  0  0  0  0  0  0
  -22.3860  -12.0480   22.4760 H   0  0  0  0  0  0  0  0  0  0  0  0
  -21.0620  -13.1550   22.2420 H   0  0  0  0  0  0  0  0  0  0  0  0
  -25.3680  -15.2490   20.3630 N   0  0  0  0  0  0  0  0  0  0  0  0
  -24.6030  -15.9030   20.4760 H   0  0  0  0  0  0  0  0  0  0  0  0
  -26.2250  -15.6840   20.0460 H   0  0  0  0  0  0  0  0  0  0  0  0
  -29.8380  -23.4490   20.9940 C   0  0  0  0  0  2  0  0  0  0  0  0
  -30.2030  -24.5830   20.1060 N   0  0  0  0  0  4  0  0  0  0  0  0
  -29.4400  -24.7290   19.4620 H   0  0  0  0  0  0  0  0  0  0  0  0
  -31.0010  -24.3000   19.5590 H   0  0  0  0  0  0  0  0  0  0  0  0
  -30.5120  -25.8770   20.7860 C   0  0  0  0  0  2  0  0  0  0  0  0
  -29.7040  -27.0630   20.2240 C   0  0  0  0  0  2  0  0  0  0  0  0
  -28.3590  -26.6120   20.1610 O   0  0  0  0  0  0  0  0  0  0  0  0
  -24.5930  -31.9020   23.2640 C   0  0  0  0  0  0  0  0  0  0  0  0
  -27.2790  -27.4670   20.2010 C   0  0  0  0  0  0  0  0  0  0  0  0
  -23.4030  -30.4870   21.6230 C   0  0  0  0  0  3  0  0  0  0  0  0
  -24.8720  -28.9510   20.2190 C   0  0  0  0  0  0  0  0  0  0  0  0
  -25.9290  -30.8570   21.4400 C   0  0  0  0  0  2  0  0  0  0  0  0
  -26.0280  -29.4860   20.8050 C   0  0  0  0  0  0  0  0  0  0  0  0
  -27.2420  -28.7540   20.7940 C   0  0  0  0  0  3  0  0  0  0  0  0
  -26.0990  -26.9430   19.6380 C   0  0  0  0  0  3  0  0  0  0  0  0
  -24.8990  -27.6750   19.6360 C   0  0  0  0  0  3  0  0  0  0  0  0
  -23.6230  -29.8000   20.2520 C   0  0  0  0  0  2  0  0  0  0  0  0
  -24.6610  -31.0970   22.1680 N   0  0  0  0  0  0  0  0  0  0  0  0
  -23.5080  -32.1720   23.7950 O   0  0  0  0  0  0  0  0  0  0  0  0
  -22.7470  -29.4680   22.5840 C   0  0  0  0  0  0  0  0  0  0  0  0
  -21.4250  -29.2790   22.4460 N   0  0  0  0  0  0  0  0  0  0  0  0
  -23.4260  -28.8530   23.4090 O   0  0  0  0  0  0  0  0  0  0  0  0
  -20.9400  -29.8240   21.7470 H   0  0  0  0  0  0  0  0  0  0  0  0
  -18.0510  -28.0790   22.9240 C   0  0  0  0  0  0  0  0  0  0  0  0
  -20.6050  -28.3450   23.2170 C   0  0  0  0  0  3  0  0  0  0  0  0
  -20.7170  -26.9110   22.6500 C   0  0  0  0  0  2  0  0  0  0  0  0
  -19.6230  -26.5760   21.6290 C   0  0  0  0  0  2  0  0  0  0  0  0
  -18.2360  -26.7240   22.2600 C   0  0  0  0  0  2  0  0  0  0  0  0
  -19.1640  -28.8460   23.3580 C   0  0  0  0  0  0  0  0  0  0  0  0
  -18.9350  -30.1140   23.9360 C   0  0  0  0  0  3  0  0  0  0  0  0
  -17.6290  -30.6130   24.0850 C   0  0  0  0  0  3  0  0  0  0  0  0
  -16.5300  -29.8400   23.6710 C   0  0  0  0  0  3  0  0  0  0  0  0
  -16.7400  -28.5760   23.0950 C   0  0  0  0  0  3  0  0  0  0  0  0
  -25.8730  -32.5410   23.8870 C   0  0  0  0  0  3  0  0  0  0  0  0
  -25.5600  -33.9400   24.2010 N   0  0  0  0  0  0  0  0  0  0  0  0
  -25.9000  -34.9870   23.4340 C   0  0  0  0  0  0  0  0  0  0  0  0
  -26.5820  -34.8740   22.4130 O   0  0  0  0  0  0  0  0  0  0  0  0
  -24.9570  -34.1020   24.9930 H   0  0  0  0  0  0  0  0  0  0  0  0
  -24.1770  -36.7770   23.0360 C   0  0  0  0  0  1  0  0  0  0  0  0
  -25.4030  -36.3770   23.8730 C   0  0  0  0  0  3  0  0  0  0  0  0
  -27.5220  -37.2700   24.7340 C   0  0  0  0  0  1  0  0  0  0  0  0
  -26.4370  -37.4310   23.7690 N   0  0  0  0  0  0  0  0  0  0  0  0
  -26.0270  -38.3510   23.9060 H   0  0  0  0  0  0  0  0  0  0  0  0
  -26.3850  -31.7790   25.1720 C   0  0  1  0  0  0  0  0  0  0  0  0
  -25.2860  -31.5430   26.2340 C   0  0  0  0  0  1  0  0  0  0  0  0
  -26.9760  -30.4020   24.7920 C   0  0  0  0  0  1  0  0  0  0  0  0
  -27.5250  -32.5850   25.8390 C   0  0  0  0  0  1  0  0  0  0  0  0
  1  2  1  0
  2  5  2  0
  3  6  1  0
  3  1  2  0
  4  5  1  0
  5 49  1  0
  6  4  2  0
  7  8  1  0
  8  6  1  0
  8  9  1  0
  9 10  1  0
 10 19  1  0
 11 19  1  0
 12 17  1  0
 13 14  1  0
 13 12  1  0
 15 14  1  0
 15 24  1  0
 15 16  1  0
 17 11  1  0
 17 16  1  0
 18 11  2  0
 19 20  1  0
 21 22  2  0
 22 41  1  0
 23 22  1  0
 23 26  1  0
 24 21  1  0
 24 25  1  0
 25 23  2  0
 26 27  1  0
 27 28  2  0
 29 32  1  0
 29 28  1  0
 30 29  2  0
 31 30  1  0
 31 26  2  0
 32 33  1  0
 33 34  1  0
 34 35  2  0
 36 35  1  0
 36 40  1  0
 37 36  2  0
 38 33  2  0
 38 37  1  0
 39 38  1  0
 41 42  1  0
 42 45  1  0
 42 44  1  0
 43 41  2  0
 46 47  1  0
 46 21  1  0
 48 46  1  0
 50 53  1  0
 50 49  1  0
 51 50  1  0
 52 50  1  0
 54 53  1  0
 55 57  1  0
 55 54  1  0
 56 67  2  0
 57 62  1  0
 58 66  1  0
 58 68  1  0
 59 65  1  0
 59 61  1  0
 60 66  1  0
 61 60  1  0
 62 61  2  0
 63 57  2  0
 64 63  1  0
 64 59  2  0
 65 58  1  0
 66 56  1  0
 68 70  2  0
 69 68  1  0
 71 69  1  0
 72 81  2  0
 72 77  1  0
 73 69  1  0
 73 77  1  0
 74 73  1  0
 75 76  1  0
 75 74  1  0
 76 72  1  0
 77 78  2  0
 78 79  1  0
 80 79  2  0
 81 80  1  0
 82 56  1  0
 82 83  1  0
 82 92  1  0
 83 86  1  0
 84 88  1  0
 84 83  1  0
 85 84  2  0
 88 87  1  0
 90 88  1  0
 90 91  1  0
 90 89  1  0
 92 95  1  1
 92 93  1  0
 94 92  1  0
M  ISO  4  11 100  19 100  54 101  55 101
M  END
>  <TORSDO>  (26) 
F 23

>  <SCORE>  (26) 
-13.023

>  <name>  (26) 
25

>  <ligand_id>  (26) 
25

>  <original_smiles>  (26) 
[H]c1c([H])c([H])c2c(c1[H])C([H])([H])C([H])([H])C([H])([H])C2([H])N([H])C(=O)C1([H])N(C(=O)C([H])(N([H])C(=O)C([H])(N([H])C([H])([H])[H])C([H])([H])[H])C(C([H])([H])[H])(C([H])([H])[H])C([H])([H])[H])C([H])([H])c2c([H])c(OC([H])([H])C([H])([H])[N+]([H])([H])C([H])([H])c3c([H])c([H])c([H])c(N(C([H])([H])[H])C([H])([H])C([H])([H])N([H])C(=O)N4C([H])([H])C([H])([H])C([H])([H])C([H])(n5nc(-c6c([H])c([H])c(Oc7c([H])c([H])c(F)c([H])c7F)c([H])c6[H])c(C(=O)N([H])[H])c5N([H])[H])C4([H])[H])c3[H])c([H])c([H])c2C1([H])[H]

>  <smiles>  (26) 
[H]c1c([H])c([H])c2c(c1[H])C([H])([H])C([H])([H])C([H])([H])C2([H])N([H])C(=O)C1([H])N(C(=O)C([H])(N([H])C(=O)C([H])(N([H])C([H])([H])[H])C([H])([H])[H])C(C([H])([H])[H])(C([H])([H])[H])C([H])([H])[H])C([H])([H])c2c([H])c(OC([H])([H])C([H])([H])[N+]([H])([H])C([H])([H])c3c([H])c([H])c([H])c(N(C([H])([H])[H])C([H])([H])C([H])([H])N([H])C(=O)N4C([H])([H])C([H])([H])C([H])([H])C([H])(n5nc(-c6c([H])c([H])c(Oc7c([H])c([H])c(F)c([H])c7F)c([H])c6[H])c(C(=O)N([H])[H])c5N([H])[H])C4([H])[H])c3[H])c([H])c([H])c2C1([H])[H]

$$$$
26:0:0
     RDKit          3D

 93101  0  0  1  0  0  0  0  0999 V2000
  -28.4750  -21.6600   18.7610 C   0  0  0  0  0  3  0  0  0  0  0  0
  -29.1770  -20.4590   18.9710 C   0  0  0  0  0  3  0  0  0  0  0  0
  -28.6540  -22.7480   19.6370 C   0  0  0  0  0  3  0  0  0  0  0  0
  -30.1910  -21.4170   20.9730 C   0  0  0  0  0  3  0  0  0  0  0  0
  -30.0450  -20.3330   20.0770 C   0  0  0  0  0  0  0  0  0  0  0  0
  -29.5160  -22.6390   20.7530 C   0  0  0  0  0  0  0  0  0  0  0  0
  -29.4750  -23.5090   23.0490 C   0  0  0  0  0  1  0  0  0  0  0  0
  -29.7270  -23.7230   21.6260 N   0  0  0  0  0  0  0  0  0  0  0  0
  -29.7910  -25.0750   21.0660 C   0  0  0  0  0  2  0  0  0  0  0  0
  -28.4500  -25.8250   21.1260 C   0  0  0  0  0  2  0  0  0  0  0  0
  -28.4300  -26.8080   20.0980 O   0  0  0  0  0  0  0  0  0  0  0  0
  -24.6070  -31.8920   23.2070 C   0  0  0  0  0  0  0  0  0  0  0  0
  -27.2630  -27.5210   20.0950 C   0  0  0  0  0  0  0  0  0  0  0  0
  -23.3970  -30.4900   21.5640 C   0  0  0  0  0  3  0  0  0  0  0  0
  -24.8530  -28.9710   20.1210 C   0  0  0  0  0  0  0  0  0  0  0  0
  -25.9110  -30.8840   21.3410 C   0  0  0  0  0  2  0  0  0  0  0  0
  -26.0050  -29.5170   20.7010 C   0  0  0  0  0  0  0  0  0  0  0  0
  -27.2180  -28.7990   20.6860 C   0  0  0  0  0  3  0  0  0  0  0  0
  -26.1020  -26.9750   19.5110 C   0  0  0  0  0  3  0  0  0  0  0  0
  -24.8930  -27.6980   19.5230 C   0  0  0  0  0  3  0  0  0  0  0  0
  -23.6000  -29.8150   20.1800 C   0  0  0  0  0  2  0  0  0  0  0  0
  -24.6570  -31.1010   22.0980 N   0  0  0  0  0  0  0  0  0  0  0  0
  -23.5290  -32.1560   23.7570 O   0  0  0  0  0  0  0  0  0  0  0  0
  -22.7590  -29.4610   22.5230 C   0  0  0  0  0  0  0  0  0  0  0  0
  -21.4340  -29.2820   22.4060 N   0  0  0  0  0  0  0  0  0  0  0  0
  -23.4530  -28.8280   23.3230 O   0  0  0  0  0  0  0  0  0  0  0  0
  -20.9380  -29.8460   21.7320 H   0  0  0  0  0  0  0  0  0  0  0  0
  -18.0640  -28.0880   22.9260 C   0  0  0  0  0  0  0  0  0  0  0  0
  -20.6240  -28.3370   23.1750 C   0  0  0  0  0  3  0  0  0  0  0  0
  -20.7200  -26.9110   22.5840 C   0  0  0  0  0  2  0  0  0  0  0  0
  -19.6060  -26.5990   21.5780 C   0  0  0  0  0  2  0  0  0  0  0  0
  -18.2310  -26.7430   22.2370 C   0  0  0  0  0  2  0  0  0  0  0  0
  -19.1880  -28.8430   23.3520 C   0  0  0  0  0  0  0  0  0  0  0  0
  -18.9800  -30.1030   23.9530 C   0  0  0  0  0  3  0  0  0  0  0  0
  -17.6800  -30.6090   24.1310 C   0  0  0  0  0  3  0  0  0  0  0  0
  -16.5680  -29.8500   23.7240 C   0  0  0  0  0  3  0  0  0  0  0  0
  -16.7610  -28.5900   23.1300 C   0  0  0  0  0  3  0  0  0  0  0  0
  -25.8960  -32.5250   23.8210 C   0  0  0  0  0  3  0  0  0  0  0  0
  -25.5850  -33.9200   24.1600 N   0  0  0  0  0  0  0  0  0  0  0  0
  -25.9100  -34.9780   23.4040 C   0  0  0  0  0  0  0  0  0  0  0  0
  -26.5750  -34.8830   22.3690 O   0  0  0  0  0  0  0  0  0  0  0  0
  -24.9980  -34.0700   24.9670 H   0  0  0  0  0  0  0  0  0  0  0  0
  -24.1750  -36.7620   23.0580 C   0  0  0  0  0  1  0  0  0  0  0  0
  -25.4170  -36.3600   23.8680 C   0  0  0  0  0  3  0  0  0  0  0  0
  -27.5480  -37.2430   24.7090 C   0  0  0  0  0  1  0  0  0  0  0  0
  -26.4440  -37.4200   23.7690 N   0  0  0  0  0  0  0  0  0  0  0  0
  -26.0330  -38.3350   23.9380 H   0  0  0  0  0  0  0  0  0  0  0  0
  -26.4320  -31.7460   25.0840 C   0  0  1  0  0  0  0  0  0  0  0  0
  -25.3480  -31.4860   26.1560 C   0  0  0  0  0  1  0  0  0  0  0  0
  -27.0230  -30.3790   24.6670 C   0  0  0  0  0  1  0  0  0  0  0  0
  -27.5790  -32.5430   25.7490 C   0  0  0  0  0  1  0  0  0  0  0  0
  -30.8340  -19.0480   20.2920 C   0  0  0  0  0  2  0  0  0  0  0  0
  -30.0420  -18.0520   21.0440 N   0  0  0  0  0  4  0  0  0  0  0  0
  -29.3200  -17.7140   20.4330 H   0  0  0  0  0  0  0  0  0  0  0  0
  -29.5920  -18.5390   21.8040 H   0  0  0  0  0  0  0  0  0  0  0  0
  -30.8180  -16.9180   21.6110 C   0  0  0  0  0  2  0  0  0  0  0  0
  -30.0810  -15.5490   21.5180 C   0  0  0  0  0  2  0  0  0  0  0  0
  -30.7100  -14.4760   20.5910 C   0  0  0  0  0  0  0  0  0  0  0  0
  -30.4120  -12.3760   19.3120 C   0  0  0  0  0  2  0  0  0  0  0  0
  -29.4840  -12.6210   18.1070 C   0  0  0  0  0  2  0  0  0  0  0  0
  -28.0020  -12.4860   18.5140 C   0  0  0  0  0  2  0  0  0  0  0  0
  -27.6590  -13.2860   19.7990 C   0  0  0  0  0  3  0  0  0  0  0  0
  -28.6960  -13.0120   20.9110 C   0  0  0  0  0  2  0  0  0  0  0  0
  -30.0320  -13.3200   20.3750 N   0  0  0  0  0  0  0  0  0  0  0  0
  -31.7860  -14.7150   20.0320 O   0  0  0  0  0  0  0  0  0  0  0  0
  -25.2470  -13.8990   20.4590 C   0  0  0  0  0  0  0  0  0  0  0  0
  -24.1740  -13.1280   20.8240 C   0  0  0  0  0  0  0  0  0  0  0  0
  -24.6410  -11.7780   20.8170 C   0  0  0  0  0  0  0  0  0  0  0  0
  -26.2970  -13.0160   20.2560 N   0  0  0  0  0  0  0  0  0  0  0  0
  -25.9340  -11.7360   20.5250 N   0  0  0  0  0  0  0  0  0  0  0  0
  -23.9150  -10.5160   21.0140 C   0  0  0  0  0  0  0  0  0  0  0  0
  -24.3380   -9.5590   21.9630 C   0  0  0  0  0  3  0  0  0  0  0  0
  -23.6120   -8.3620   22.1430 C   0  0  0  0  0  3  0  0  0  0  0  0
  -22.4510   -8.1130   21.3750 C   0  0  0  0  0  0  0  0  0  0  0  0
  -22.0480   -9.0580   20.4140 C   0  0  0  0  0  3  0  0  0  0  0  0
  -22.7740  -10.2460   20.2320 C   0  0  0  0  0  3  0  0  0  0  0  0
  -21.6970   -6.9670   21.4660 O   0  0  0  0  0  0  0  0  0  0  0  0
  -21.6380   -6.2340   22.6240 C   0  0  0  0  0  0  0  0  0  0  0  0
  -21.1950   -6.7970   23.8390 C   0  0  0  0  0  3  0  0  0  0  0  0
  -21.0820   -5.9890   24.9890 C   0  0  0  0  0  3  0  0  0  0  0  0
  -21.4050   -4.6210   24.9230 C   0  0  0  0  0  0  0  0  0  0  0  0
  -21.8420   -4.0580   23.7120 C   0  0  0  0  0  3  0  0  0  0  0  0
  -21.9540   -4.8620   22.5650 C   0  0  0  0  0  0  0  0  0  0  0  0
  -22.3560   -4.3090   21.3950 F   0  0  0  0  0  0  0  0  0  0  0  0
  -21.2900   -3.8430   26.0250 F   0  0  0  0  0  0  0  0  0  0  0  0
  -22.7730  -13.6040   21.0720 C   0  0  0  0  0  0  0  0  0  0  0  0
  -22.0350  -12.9110   21.9330 N   0  0  0  0  0  0  0  0  0  0  0  0
  -22.3390  -14.6250   20.5400 O   0  0  0  0  0  0  0  0  0  0  0  0
  -22.3950  -12.0800   22.3780 H   0  0  0  0  0  0  0  0  0  0  0  0
  -21.0940  -13.2100   22.1430 H   0  0  0  0  0  0  0  0  0  0  0  0
  -25.4140  -15.2670   20.2620 N   0  0  0  0  0  0  0  0  0  0  0  0
  -24.6550  -15.9340   20.3540 H   0  0  0  0  0  0  0  0  0  0  0  0
  -26.2720  -15.6900   19.9330 H   0  0  0  0  0  0  0  0  0  0  0  0
  1  2  2  0
  1  3  1  0
  2  5  1  0
  3  6  2  0
  5 52  1  0
  5  4  2  0
  6  4  1  0
  6  8  1  0
  8  7  1  0
  9 10  1  0
  9  8  1  0
 11 10  1  0
 12 23  2  0
 13 11  1  0
 13 18  1  0
 14 22  1  0
 14 24  1  0
 15 21  1  0
 15 17  1  0
 16 22  1  0
 17 16  1  0
 18 17  2  0
 19 20  1  0
 19 13  2  0
 20 15  2  0
 21 14  1  0
 22 12  1  0
 24 26  2  0
 25 24  1  0
 27 25  1  0
 28 37  2  0
 28 33  1  0
 29 25  1  0
 29 33  1  0
 30 29  1  0
 31 32  1  0
 31 30  1  0
 32 28  1  0
 33 34  2  0
 34 35  1  0
 36 35  2  0
 37 36  1  0
 38 12  1  0
 38 39  1  0
 38 48  1  0
 39 42  1  0
 40 44  1  0
 40 39  1  0
 41 40  2  0
 44 43  1  0
 46 44  1  0
 46 47  1  0
 46 45  1  0
 48 51  1  1
 48 49  1  0
 50 48  1  0
 52 53  1  0
 53 56  1  0
 53 55  1  0
 54 53  1  0
 57 56  1  0
 58 57  1  0
 59 64  1  0
 60 61  1  0
 60 59  1  0
 62 61  1  0
 62 69  1  0
 62 63  1  0
 64 58  1  0
 64 63  1  0
 65 58  2  0
 66 67  2  0
 67 86  1  0
 68 67  1  0
 68 71  1  0
 69 66  1  0
 69 70  1  0
 70 68  2  0
 71 72  1  0
 72 73  2  0
 74 77  1  0
 74 73  1  0
 75 74  2  0
 76 75  1  0
 76 71  2  0
 77 78  1  0
 78 79  1  0
 79 80  2  0
 81 80  1  0
 81 85  1  0
 82 81  2  0
 83 78  2  0
 83 82  1  0
 84 83  1  0
 86 87  1  0
 87 90  1  0
 87 89  1  0
 88 86  2  0
 91 92  1  0
 91 66  1  0
 93 91  1  0
M  ISO  4  10 101  11 101  57 100  58 100
M  END
>  <TORSDO>  (27) 
F 23

>  <SCORE>  (27) 
-12.903

>  <name>  (27) 
26

>  <ligand_id>  (27) 
26

>  <original_smiles>  (27) 
[H]c1c([H])c([H])c2c(c1[H])C([H])([H])C([H])([H])C([H])([H])C2([H])N([H])C(=O)C1([H])N(C(=O)C([H])(N([H])C(=O)C([H])(N([H])C([H])([H])[H])C([H])([H])[H])C(C([H])([H])[H])(C([H])([H])[H])C([H])([H])[H])C([H])([H])c2c([H])c(OC([H])([H])C([H])([H])N(c3c([H])c([H])c([H])c(C([H])([H])[N+]([H])([H])C([H])([H])C([H])([H])C(=O)N4C([H])([H])C([H])([H])C([H])([H])C([H])(n5nc(-c6c([H])c([H])c(Oc7c([H])c([H])c(F)c([H])c7F)c([H])c6[H])c(C(=O)N([H])[H])c5N([H])[H])C4([H])[H])c3[H])C([H])([H])[H])c([H])c([H])c2C1([H])[H]

>  <smiles>  (27) 
[H]c1c([H])c([H])c2c(c1[H])C([H])([H])C([H])([H])C([H])([H])C2([H])N([H])C(=O)C1([H])N(C(=O)C([H])(N([H])C(=O)C([H])(N([H])C([H])([H])[H])C([H])([H])[H])C(C([H])([H])[H])(C([H])([H])[H])C([H])([H])[H])C([H])([H])c2c([H])c(OC([H])([H])C([H])([H])N(c3c([H])c([H])c([H])c(C([H])([H])[N+]([H])([H])C([H])([H])C([H])([H])C(=O)N4C([H])([H])C([H])([H])C([H])([H])C([H])(n5nc(-c6c([H])c([H])c(Oc7c([H])c([H])c(F)c([H])c7F)c([H])c6[H])c(C(=O)N([H])[H])c5N([H])[H])C4([H])[H])c3[H])C([H])([H])[H])c([H])c([H])c2C1([H])[H]

$$$$
27:0:0
     RDKit          3D

 92100  0  0  1  0  0  0  0  0999 V2000
  -29.1240  -24.2000   17.4440 C   0  0  0  0  0  3  0  0  0  0  0  0
  -28.9010  -22.9750   18.1010 C   0  0  0  0  0  3  0  0  0  0  0  0
  -28.9530  -25.4200   18.1280 C   0  0  0  0  0  3  0  0  0  0  0  0
  -28.3390  -24.1910   20.1410 C   0  0  0  0  0  3  0  0  0  0  0  0
  -28.4980  -22.9510   19.4550 C   0  0  0  0  0  0  0  0  0  0  0  0
  -28.5580  -25.4330   19.4800 C   0  0  0  0  0  0  0  0  0  0  0  0
  -28.4410  -26.6510   20.1320 O   0  0  0  0  0  0  0  0  0  0  0  0
  -24.6330  -31.8540   23.1920 C   0  0  0  0  0  0  0  0  0  0  0  0
  -27.2650  -27.3820   20.1080 C   0  0  0  0  0  0  0  0  0  0  0  0
  -23.4220  -30.4480   21.5570 C   0  0  0  0  0  3  0  0  0  0  0  0
  -24.8700  -28.9050   20.1320 C   0  0  0  0  0  0  0  0  0  0  0  0
  -25.9480  -30.8030   21.3490 C   0  0  0  0  0  2  0  0  0  0  0  0
  -26.0320  -29.4270   20.7130 C   0  0  0  0  0  0  0  0  0  0  0  0
  -27.2300  -28.6720   20.6990 C   0  0  0  0  0  3  0  0  0  0  0  0
  -26.0780  -26.8790   19.5240 C   0  0  0  0  0  3  0  0  0  0  0  0
  -24.8880  -27.6330   19.5380 C   0  0  0  0  0  3  0  0  0  0  0  0
  -23.6290  -29.7690   20.1760 C   0  0  0  0  0  2  0  0  0  0  0  0
  -24.6870  -31.0480   22.0920 N   0  0  0  0  0  0  0  0  0  0  0  0
  -23.5530  -32.1270   23.7330 O   0  0  0  0  0  0  0  0  0  0  0  0
  -22.7740  -29.4280   22.5200 C   0  0  0  0  0  0  0  0  0  0  0  0
  -21.4460  -29.2600   22.4100 N   0  0  0  0  0  0  0  0  0  0  0  0
  -23.4620  -28.7920   23.3230 O   0  0  0  0  0  0  0  0  0  0  0  0
  -20.9500  -29.8280   21.7370 H   0  0  0  0  0  0  0  0  0  0  0  0
  -18.0670  -28.0970   22.9420 C   0  0  0  0  0  0  0  0  0  0  0  0
  -20.6300  -28.3260   23.1850 C   0  0  0  0  0  3  0  0  0  0  0  0
  -20.7120  -26.8970   22.6020 C   0  0  0  0  0  2  0  0  0  0  0  0
  -19.5940  -26.5900   21.6000 C   0  0  0  0  0  2  0  0  0  0  0  0
  -18.2220  -26.7490   22.2600 C   0  0  0  0  0  2  0  0  0  0  0  0
  -19.1990  -28.8450   23.3640 C   0  0  0  0  0  0  0  0  0  0  0  0
  -19.0010  -30.1080   23.9620 C   0  0  0  0  0  3  0  0  0  0  0  0
  -17.7030  -30.6230   24.1440 C   0  0  0  0  0  3  0  0  0  0  0  0
  -16.5860  -29.8720   23.7390 C   0  0  0  0  0  3  0  0  0  0  0  0
  -16.7690  -28.6110   23.1430 C   0  0  0  0  0  3  0  0  0  0  0  0
  -25.9200  -32.4860   23.8060 C   0  0  0  0  0  3  0  0  0  0  0  0
  -25.6060  -33.8790   24.1540 N   0  0  0  0  0  0  0  0  0  0  0  0
  -25.9230  -34.9400   23.4020 C   0  0  0  0  0  0  0  0  0  0  0  0
  -26.5830  -34.8520   22.3630 O   0  0  0  0  0  0  0  0  0  0  0  0
  -25.0180  -34.0230   24.9630 H   0  0  0  0  0  0  0  0  0  0  0  0
  -24.1780  -36.7230   23.0870 C   0  0  0  0  0  1  0  0  0  0  0  0
  -25.4330  -36.3200   23.8790 C   0  0  0  0  0  3  0  0  0  0  0  0
  -27.5700  -37.2120   24.6940 C   0  0  0  0  0  1  0  0  0  0  0  0
  -26.4550  -37.3820   23.7660 N   0  0  0  0  0  0  0  0  0  0  0  0
  -26.0430  -38.2960   23.9330 H   0  0  0  0  0  0  0  0  0  0  0  0
  -26.4560  -31.7040   25.0660 C   0  0  1  0  0  0  0  0  0  0  0  0
  -25.3780  -31.4460   26.1440 C   0  0  0  0  0  1  0  0  0  0  0  0
  -27.0410  -30.3340   24.6460 C   0  0  0  0  0  1  0  0  0  0  0  0
  -27.6090  -32.4950   25.7280 C   0  0  0  0  0  1  0  0  0  0  0  0
  -28.1340  -21.6000   20.1120 C   0  0  0  0  0  2  0  0  0  0  0  0
  -30.5150  -21.3910   20.8710 C   0  0  0  0  0  1  0  0  0  0  0  0
  -29.2410  -20.6920   20.5760 N   0  0  2  0  0  4  0  0  0  0  0  0
  -28.8960  -20.3850   21.4720 H   0  0  0  0  0  0  0  0  0  0  0  0
  -29.4320  -19.4140   19.8040 C   0  0  0  0  0  2  0  0  0  0  0  0
  -29.8360  -18.1810   20.6900 C   0  0  0  0  0  3  0  0  0  0  0  0
  -30.1130  -16.8460   19.9020 C   0  0  0  0  0  3  0  0  0  0  0  0
  -30.9920  -14.5220   20.1260 C   0  0  0  0  0  0  0  0  0  0  0  0
  -30.5980  -12.3960   18.9250 C   0  0  0  0  0  2  0  0  0  0  0  0
  -29.6070  -12.6480   17.7710 C   0  0  0  0  0  2  0  0  0  0  0  0
  -28.1550  -12.5100   18.2690 C   0  0  0  0  0  2  0  0  0  0  0  0
  -27.8900  -13.3150   19.5700 C   0  0  0  0  0  3  0  0  0  0  0  0
  -28.9900  -13.0470   20.6180 C   0  0  0  0  0  2  0  0  0  0  0  0
  -30.2900  -13.3570   20.0000 N   0  0  0  0  0  0  0  0  0  0  0  0
  -32.0770  -14.6920   19.5600 O   0  0  0  0  0  0  0  0  0  0  0  0
  -30.3210  -15.7050   22.1420 C   0  0  0  0  0  1  0  0  0  0  0  0
  -30.3300  -15.5830   20.6810 N   0  0  0  0  0  0  0  0  0  0  0  0
  -25.5420  -13.9510   20.4060 C   0  0  0  0  0  0  0  0  0  0  0  0
  -24.4760  -13.1910   20.8110 C   0  0  0  0  0  0  0  0  0  0  0  0
  -24.9090  -11.8310   20.7310 C   0  0  0  0  0  0  0  0  0  0  0  0
  -26.5570  -13.0540   20.1070 N   0  0  0  0  0  0  0  0  0  0  0  0
  -26.1810  -11.7730   20.3590 N   0  0  0  0  0  0  0  0  0  0  0  0
  -24.1670  -10.5800   20.9290 C   0  0  0  0  0  0  0  0  0  0  0  0
  -24.5940   -9.6060   21.8580 C   0  0  0  0  0  3  0  0  0  0  0  0
  -23.8530   -8.4190   22.0430 C   0  0  0  0  0  3  0  0  0  0  0  0
  -22.6700   -8.1980   21.2990 C   0  0  0  0  0  0  0  0  0  0  0  0
  -22.2630   -9.1590   20.3580 C   0  0  0  0  0  3  0  0  0  0  0  0
  -23.0040  -10.3370   20.1700 C   0  0  0  0  0  3  0  0  0  0  0  0
  -21.9000   -7.0640   21.3950 O   0  0  0  0  0  0  0  0  0  0  0  0
  -21.8050   -6.3530   22.5650 C   0  0  0  0  0  0  0  0  0  0  0  0
  -21.3590   -6.9470   23.7670 C   0  0  0  0  0  3  0  0  0  0  0  0
  -21.2170   -6.1620   24.9290 C   0  0  0  0  0  3  0  0  0  0  0  0
  -21.5070   -4.7860   24.8900 C   0  0  0  0  0  0  0  0  0  0  0  0
  -21.9440   -4.1920   23.6920 C   0  0  0  0  0  3  0  0  0  0  0  0
  -22.0910   -4.9730   22.5330 C   0  0  0  0  0  0  0  0  0  0  0  0
  -22.4920   -4.3920   21.3780 F   0  0  0  0  0  0  0  0  0  0  0  0
  -21.3640   -4.0300   26.0030 F   0  0  0  0  0  0  0  0  0  0  0  0
  -23.1030  -13.6890   21.1640 C   0  0  0  0  0  0  0  0  0  0  0  0
  -22.4060  -12.9960   22.0580 N   0  0  0  0  0  0  0  0  0  0  0  0
  -22.6560  -14.7290   20.6790 O   0  0  0  0  0  0  0  0  0  0  0  0
  -22.7770  -12.1540   22.4740 H   0  0  0  0  0  0  0  0  0  0  0  0
  -21.4850  -13.3090   22.3280 H   0  0  0  0  0  0  0  0  0  0  0  0
  -25.7260  -15.3220   20.2470 N   0  0  0  0  0  0  0  0  0  0  0  0
  -24.9860  -15.9950   20.4140 H   0  0  0  0  0  0  0  0  0  0  0  0
  -26.5870  -15.7490   19.9290 H   0  0  0  0  0  0  0  0  0  0  0  0
  1  2  2  0
  1  3  1  0
  2  5  1  0
  3  6  2  0
  5 48  1  0
  5  4  2  0
  6  7  1  0
  6  4  1  0
  8 19  2  0
  9  7  1  0
  9 14  1  0
 10 18  1  0
 10 20  1  0
 11 17  1  0
 11 13  1  0
 12 18  1  0
 13 12  1  0
 14 13  2  0
 15 16  1  0
 15  9  2  0
 16 11  2  0
 17 10  1  0
 18  8  1  0
 20 22  2  0
 21 20  1  0
 23 21  1  0
 24 33  2  0
 24 29  1  0
 25 21  1  0
 25 29  1  0
 26 25  1  0
 27 28  1  0
 27 26  1  0
 28 24  1  0
 29 30  2  0
 30 31  1  0
 32 31  2  0
 33 32  1  0
 34  8  1  0
 34 35  1  0
 34 44  1  0
 35 38  1  0
 36 40  1  0
 36 35  1  0
 37 36  2  0
 40 39  1  0
 42 40  1  0
 42 43  1  0
 42 41  1  0
 44 47  1  1
 44 45  1  0
 46 44  1  0
 48 50  1  0
 50 49  1  0
 50 51  1  1
 52 50  1  0
 52 53  1  0
 54 64  1  0
 54 53  2  0
 55 64  1  0
 56 61  1  0
 57 58  1  0
 57 56  1  0
 59 58  1  0
 59 68  1  0
 59 60  1  0
 61 55  1  0
 61 60  1  0
 62 55  2  0
 64 63  1  0
 65 66  2  0
 66 85  1  0
 67 66  1  0
 67 70  1  0
 68 69  1  0
 68 65  1  0
 69 67  2  0
 70 71  1  0
 71 72  2  0
 73 76  1  0
 73 72  1  0
 74 73  2  0
 75 74  1  0
 75 70  2  0
 76 77  1  0
 77 78  1  0
 78 79  2  0
 80 79  1  0
 80 84  1  0
 81 80  2  0
 82 77  2  0
 82 81  1  0
 83 82  1  0
 85 86  1  0
 86 89  1  0
 86 88  1  0
 87 85  2  0
 90 65  1  0
 90 91  1  0
 92 90  1  0
M  ISO  4   6 101   7 101  55 100  64 100
M  END
>  <TORSDO>  (28) 
F 21

>  <SCORE>  (28) 
-12.994

>  <name>  (28) 
27

>  <ligand_id>  (28) 
27

>  <original_smiles>  (28) 
[H]c1c([H])c([H])c2c(c1[H])C([H])([H])C([H])([H])C([H])([H])C2([H])N([H])C(=O)C1([H])N(C(=O)C([H])(N([H])C(=O)C([H])(N([H])C([H])([H])[H])C([H])([H])[H])C(C([H])([H])[H])(C([H])([H])[H])C([H])([H])[H])C([H])([H])c2c([H])c(Oc3c([H])c([H])c([H])c(C([H])([H])[N+]([H])(C([H])([H])[H])C([H])([H])C([H])([H])C([H])([H])N(C(=O)N4C([H])([H])C([H])([H])C([H])([H])C([H])(n5nc(-c6c([H])c([H])c(Oc7c([H])c([H])c(F)c([H])c7F)c([H])c6[H])c(C(=O)N([H])[H])c5N([H])[H])C4([H])[H])C([H])([H])[H])c3[H])c([H])c([H])c2C1([H])[H]

>  <smiles>  (28) 
[H]c1c([H])c([H])c2c(c1[H])C([H])([H])C([H])([H])C([H])([H])C2([H])N([H])C(=O)C1([H])N(C(=O)C([H])(N([H])C(=O)C([H])(N([H])C([H])([H])[H])C([H])([H])[H])C(C([H])([H])[H])(C([H])([H])[H])C([H])([H])[H])C([H])([H])c2c([H])c(Oc3c([H])c([H])c([H])c(C([H])([H])[N+]([H])(C([H])([H])[H])C([H])([H])C([H])([H])C([H])([H])N(C(=O)N4C([H])([H])C([H])([H])C([H])([H])C([H])(n5nc(-c6c([H])c([H])c(Oc7c([H])c([H])c(F)c([H])c7F)c([H])c6[H])c(C(=O)N([H])[H])c5N([H])[H])C4([H])[H])C([H])([H])[H])c3[H])c([H])c([H])c2C1([H])[H]

$$$$
28:0:0
     RDKit          3D

 95102  0  0  1  0  0  0  0  0999 V2000
  -29.5640  -22.1600   19.7240 C   0  0  0  0  0  3  0  0  0  0  0  0
  -29.8230  -22.6580   18.3580 N   0  0  0  0  0  4  0  0  0  0  0  0
  -29.1570  -23.3870   18.1690 H   0  0  0  0  0  0  0  0  0  0  0  0
  -29.5320  -21.8670   17.7940 H   0  0  0  0  0  0  0  0  0  0  0  0
  -31.1680  -23.2870   16.4190 C   0  0  0  0  0  1  0  0  0  0  0  0
  -31.5200  -24.4610   18.6160 C   0  0  0  0  0  1  0  0  0  0  0  0
  -32.3050  -22.0900   18.2980 C   0  0  0  0  0  1  0  0  0  0  0  0
  -31.1870  -23.1090   17.9520 C   0  0  1  0  0  0  0  0  0  0  0  0
  -29.4210  -20.5080   19.4480 C   0  0  0  0  0  3  0  0  0  0  0  0
  -28.3230  -20.3200   18.4900 N   0  0  0  0  0  0  0  0  0  0  0  0
  -27.6560  -19.6690   18.8970 H   0  0  0  0  0  0  0  0  0  0  0  0
  -27.5840  -19.0450   16.5270 C   0  0  0  0  0  1  0  0  0  0  0  0
  -28.7410  -19.8170   17.1760 C   0  0  0  0  0  2  0  0  0  0  0  0
  -29.4880  -19.1930   20.4490 C   0  0  0  0  0  2  0  0  0  0  0  0
  -29.9980  -17.7070   19.8990 C   0  0  0  0  0  3  0  0  0  0  0  0
  -29.8310  -16.2660   20.6940 C   0  0  0  0  0  3  0  0  0  0  0  0
  -30.5940  -14.8790   20.2600 C   0  0  0  0  0  0  0  0  0  0  0  0
  -30.4340  -12.5600   19.2720 C   0  0  0  0  0  2  0  0  0  0  0  0
  -29.4950  -12.6130   18.0430 C   0  0  0  0  0  2  0  0  0  0  0  0
  -28.0260  -12.4390   18.4690 C   0  0  0  0  0  2  0  0  0  0  0  0
  -27.6510  -13.3180   19.6900 C   0  0  0  0  0  3  0  0  0  0  0  0
  -28.7140  -13.2410   20.8070 C   0  0  0  0  0  2  0  0  0  0  0  0
  -30.0020  -13.6250   20.2180 N   0  0  0  0  0  0  0  0  0  0  0  0
  -31.7640  -14.9700   19.8740 O   0  0  0  0  0  0  0  0  0  0  0  0
  -25.2550  -13.8910   20.4020 C   0  0  0  0  0  0  0  0  0  0  0  0
  -24.1970  -13.1110   20.7780 C   0  0  0  0  0  0  0  0  0  0  0  0
  -24.6750  -11.7640   20.7750 C   0  0  0  0  0  0  0  0  0  0  0  0
  -26.3080  -13.0190   20.1840 N   0  0  0  0  0  0  0  0  0  0  0  0
  -25.9660  -11.7340   20.4710 N   0  0  0  0  0  0  0  0  0  0  0  0
  -23.9580  -10.4990   20.9820 C   0  0  0  0  0  0  0  0  0  0  0  0
  -24.3940   -9.5460   21.9300 C   0  0  0  0  0  3  0  0  0  0  0  0
  -23.6740   -8.3480   22.1230 C   0  0  0  0  0  3  0  0  0  0  0  0
  -22.5050   -8.0910   21.3640 C   0  0  0  0  0  0  0  0  0  0  0  0
  -22.0900   -9.0330   20.4040 C   0  0  0  0  0  3  0  0  0  0  0  0
  -22.8110  -10.2230   20.2110 C   0  0  0  0  0  3  0  0  0  0  0  0
  -21.7560   -6.9440   21.4640 O   0  0  0  0  0  0  0  0  0  0  0  0
  -21.7110   -6.2140   22.6250 C   0  0  0  0  0  0  0  0  0  0  0  0
  -21.2750   -6.7820   23.8420 C   0  0  0  0  0  3  0  0  0  0  0  0
  -21.1770   -5.9800   24.9970 C   0  0  0  0  0  3  0  0  0  0  0  0
  -21.5030   -4.6110   24.9320 C   0  0  0  0  0  0  0  0  0  0  0  0
  -21.9360   -4.0430   23.7210 C   0  0  0  0  0  3  0  0  0  0  0  0
  -22.0360   -4.8440   22.5690 C   0  0  0  0  0  0  0  0  0  0  0  0
  -22.4300   -4.2870   21.3970 F   0  0  0  0  0  0  0  0  0  0  0  0
  -21.4020   -3.8380   26.0400 F   0  0  0  0  0  0  0  0  0  0  0  0
  -22.7940  -13.5760   21.0410 C   0  0  0  0  0  0  0  0  0  0  0  0
  -22.0720  -12.8820   21.9120 N   0  0  0  0  0  0  0  0  0  0  0  0
  -22.3460  -14.5950   20.5150 O   0  0  0  0  0  0  0  0  0  0  0  0
  -22.4510  -12.0590   22.3550 H   0  0  0  0  0  0  0  0  0  0  0  0
  -21.1350  -13.1780   22.1420 H   0  0  0  0  0  0  0  0  0  0  0  0
  -25.4060  -15.2630   20.2050 N   0  0  0  0  0  0  0  0  0  0  0  0
  -24.6430  -15.9220   20.3080 H   0  0  0  0  0  0  0  0  0  0  0  0
  -26.2560  -15.6990   19.8730 H   0  0  0  0  0  0  0  0  0  0  0  0
  -28.5250  -23.2430   20.4380 C   0  0  0  0  0  2  0  0  0  0  0  0
  -27.9890  -24.7200   19.8340 C   0  0  0  0  0  2  0  0  0  0  0  0
  -28.2200  -26.1940   20.2670 O   0  0  0  0  0  0  0  0  0  0  0  0
  -24.6000  -31.8780   23.2470 C   0  0  0  0  0  0  0  0  0  0  0  0
  -27.1700  -27.1820   20.1890 C   0  0  0  0  0  0  0  0  0  0  0  0
  -23.3960  -30.4830   21.6140 C   0  0  0  0  0  3  0  0  0  0  0  0
  -24.8380  -28.9180   20.1770 C   0  0  0  0  0  0  0  0  0  0  0  0
  -25.9490  -30.7500   21.4420 C   0  0  0  0  0  2  0  0  0  0  0  0
  -26.0160  -29.3600   20.7910 C   0  0  0  0  0  0  0  0  0  0  0  0
  -27.1780  -28.4990   20.7980 C   0  0  0  0  0  3  0  0  0  0  0  0
  -25.9730  -26.8630   19.5020 C   0  0  0  0  0  3  0  0  0  0  0  0
  -24.8300  -27.6810   19.5180 C   0  0  0  0  0  3  0  0  0  0  0  0
  -23.6090  -29.8100   20.2340 C   0  0  0  0  0  2  0  0  0  0  0  0
  -24.6680  -31.0560   22.1560 N   0  0  0  0  0  0  0  0  0  0  0  0
  -23.5140  -32.1660   23.7760 O   0  0  0  0  0  0  0  0  0  0  0  0
  -22.7200  -29.4740   22.5750 C   0  0  0  0  0  0  0  0  0  0  0  0
  -21.3920  -29.3010   22.4440 N   0  0  0  0  0  0  0  0  0  0  0  0
  -23.3910  -28.8500   23.4000 O   0  0  0  0  0  0  0  0  0  0  0  0
  -20.9080  -29.8470   21.7460 H   0  0  0  0  0  0  0  0  0  0  0  0
  -18.0130  -28.1030   22.9580 C   0  0  0  0  0  0  0  0  0  0  0  0
  -20.5730  -28.3700   23.2210 C   0  0  0  0  0  3  0  0  0  0  0  0
  -20.6760  -26.9360   22.6500 C   0  0  0  0  0  2  0  0  0  0  0  0
  -19.5740  -26.6090   21.6380 C   0  0  0  0  0  2  0  0  0  0  0  0
  -18.1920  -26.7540   22.2820 C   0  0  0  0  0  2  0  0  0  0  0  0
  -19.1320  -28.8680   23.3840 C   0  0  0  0  0  0  0  0  0  0  0  0
  -18.9130  -30.1280   23.9780 C   0  0  0  0  0  3  0  0  0  0  0  0
  -17.6070  -30.6270   24.1470 C   0  0  0  0  0  3  0  0  0  0  0  0
  -16.5030  -29.8620   23.7340 C   0  0  0  0  0  3  0  0  0  0  0  0
  -16.7060  -28.6010   23.1480 C   0  0  0  0  0  3  0  0  0  0  0  0
  -25.8780  -32.5130   23.8710 C   0  0  0  0  0  3  0  0  0  0  0  0
  -26.3820  -31.7550   25.1620 C   0  0  1  0  0  0  0  0  0  0  0  0
  -25.2770  -31.5310   26.2220 C   0  0  0  0  0  1  0  0  0  0  0  0
  -26.9590  -30.3680   24.7990 C   0  0  0  0  0  1  0  0  0  0  0  0
  -27.5380  -32.5480   25.8170 C   0  0  0  0  0  1  0  0  0  0  0  0
  -25.5710  -33.9180   24.1820 N   0  0  0  0  0  0  0  0  0  0  0  0
  -25.9170  -34.9640   23.4190 C   0  0  0  0  0  0  0  0  0  0  0  0
  -26.5980  -34.8460   22.3980 O   0  0  0  0  0  0  0  0  0  0  0  0
  -24.9540  -34.0860   24.9630 H   0  0  0  0  0  0  0  0  0  0  0  0
  -24.2110  -36.7730   23.0340 C   0  0  0  0  0  1  0  0  0  0  0  0
  -25.4370  -36.3620   23.8620 C   0  0  0  0  0  3  0  0  0  0  0  0
  -27.5700  -37.2310   24.7110 C   0  0  0  0  0  1  0  0  0  0  0  0
  -26.4810  -37.4030   23.7540 N   0  0  0  0  0  0  0  0  0  0  0  0
  -26.0840  -38.3300   23.8890 H   0  0  0  0  0  0  0  0  0  0  0  0
  1 53  1  0
  2  1  1  0
  3  2  1  0
  4  2  1  0
  8  5  1  6
  8  7  1  0
  8  2  1  0
  8  6  1  0
  9  1  1  0
  9 14  1  0
 10 11  1  0
 10  9  1  0
 12 13  1  0
 13 10  1  0
 15 14  1  0
 15 16  2  0
 17 16  1  0
 18 23  1  0
 19 20  1  0
 19 18  1  0
 21 20  1  0
 21 28  1  0
 21 22  1  0
 23 17  1  0
 23 22  1  0
 24 17  2  0
 25 26  2  0
 26 45  1  0
 27 26  1  0
 27 30  1  0
 28 25  1  0
 28 29  1  0
 29 27  2  0
 30 31  1  0
 31 32  2  0
 33 36  1  0
 33 32  1  0
 34 33  2  0
 35 34  1  0
 35 30  2  0
 36 37  1  0
 37 38  1  0
 38 39  2  0
 40 39  1  0
 40 44  1  0
 41 40  2  0
 42 37  2  0
 42 41  1  0
 43 42  1  0
 45 46  1  0
 46 49  1  0
 46 48  1  0
 47 45  2  0
 50 51  1  0
 50 25  1  0
 52 50  1  0
 54 55  1  0
 54 53  1  0
 56 67  2  0
 57 55  1  0
 57 62  1  0
 58 66  1  0
 58 68  1  0
 59 65  1  0
 59 61  1  0
 60 66  1  0
 61 62  2  0
 61 60  1  0
 63 64  1  0
 63 57  2  0
 64 59  2  0
 65 58  1  0
 66 56  1  0
 68 70  2  0
 69 68  1  0
 71 69  1  0
 72 81  2  0
 72 77  1  0
 73 69  1  0
 73 77  1  0
 74 73  1  0
 75 76  1  0
 75 74  1  0
 76 72  1  0
 77 78  2  0
 78 79  1  0
 80 79  2  0
 81 80  1  0
 82 56  1  0
 82 87  1  0
 82 83  1  0
 83 86  1  1
 83 84  1  0
 85 83  1  0
 87 90  1  0
 88 92  1  0
 88 87  1  0
 89 88  2  0
 92 91  1  0
 94 92  1  0
 94 95  1  0
 94 93  1  0
M  ISO  4  16 100  17 100  54 101  55 101
M  END
>  <TORSDO>  (29) 
F 26

>  <SCORE>  (29) 
-11.826

>  <name>  (29) 
28

>  <ligand_id>  (29) 
28

>  <original_smiles>  (29) 
[H]c1c([H])c([H])c2c(c1[H])C([H])([H])C([H])([H])C([H])([H])C2([H])N([H])C(=O)C1([H])N(C(=O)C([H])(N([H])C(=O)C([H])(N([H])C([H])([H])[H])C([H])([H])[H])C(C([H])([H])[H])(C([H])([H])[H])C([H])([H])[H])C([H])([H])c2c([H])c(OC([H])([H])C([H])([H])C([H])(C([H])(N([H])C([H])([H])C([H])([H])[H])C([H])([H])C([H])([H])C([H])([H])C(=O)N3C([H])([H])C([H])([H])C([H])([H])C([H])(n4nc(-c5c([H])c([H])c(Oc6c([H])c([H])c(F)c([H])c6F)c([H])c5[H])c(C(=O)N([H])[H])c4N([H])[H])C3([H])[H])[N+]([H])([H])C(C([H])([H])[H])(C([H])([H])[H])C([H])([H])[H])c([H])c([H])c2C1([H])[H]

>  <smiles>  (29) 
[H]c1c([H])c([H])c2c(c1[H])C([H])([H])C([H])([H])C([H])([H])C2([H])N([H])C(=O)C1([H])N(C(=O)C([H])(N([H])C(=O)C([H])(N([H])C([H])([H])[H])C([H])([H])[H])C(C([H])([H])[H])(C([H])([H])[H])C([H])([H])[H])C([H])([H])c2c([H])c(OC([H])([H])C([H])([H])C([H])(C([H])(N([H])C([H])([H])C([H])([H])[H])C([H])([H])C([H])([H])C([H])([H])C(=O)N3C([H])([H])C([H])([H])C([H])([H])C([H])(n4nc(-c5c([H])c([H])c(Oc6c([H])c([H])c(F)c([H])c6F)c([H])c5[H])c(C(=O)N([H])[H])c4N([H])[H])C3([H])[H])[N+]([H])([H])C(C([H])([H])[H])(C([H])([H])[H])C([H])([H])[H])c([H])c([H])c2C1([H])[H]

$$$$
30:0:0
     RDKit          3D

 85 93  0  0  1  0  0  0  0  0999 V2000
  -27.8690  -20.5330   20.2500 C   0  0  0  0  0  3  0  0  0  0  0  0
  -29.9410  -20.9170   20.2420 C   0  0  0  0  0  3  0  0  0  0  0  0
  -27.5530  -22.1030   20.2650 C   0  0  0  0  0  3  0  0  0  0  0  0
  -29.6220  -22.4840   20.2590 C   0  0  0  0  0  3  0  0  0  0  0  0
  -29.1170  -19.6110   20.2350 C   0  0  0  0  0  0  0  0  0  0  0  0
  -28.3750  -23.4100   20.2720 C   0  0  0  0  0  0  0  0  0  0  0  0
  -30.1350  -16.2720   20.1640 C   0  0  0  0  0  0  0  0  0  0  0  0
  -30.4150  -13.6120   19.3740 C   0  0  0  0  0  2  0  0  0  0  0  0
  -29.5800  -12.9620   18.2160 C   0  0  0  0  0  2  0  0  0  0  0  0
  -28.2080  -12.4820   18.7050 C   0  0  0  0  0  2  0  0  0  0  0  0
  -27.6220  -13.4990   19.7000 C   0  0  0  0  0  3  0  0  0  0  0  0
  -28.6220  -14.0210   20.7740 C   0  0  0  0  0  2  0  0  0  0  0  0
  -29.6930  -14.8130   20.0790 N   0  0  0  0  0  0  0  0  0  0  0  0
  -31.3800  -16.1530   20.0280 O   0  0  0  0  0  0  0  0  0  0  0  0
  -29.3210  -17.7340   20.2220 N   0  0  0  0  0  0  0  0  0  0  0  0
  -28.3760  -17.3810   20.2740 H   0  0  0  0  0  0  0  0  0  0  0  0
  -25.2700  -13.9480   20.5120 C   0  0  0  0  0  0  0  0  0  0  0  0
  -24.2310  -13.1450   20.8780 C   0  0  0  0  0  0  0  0  0  0  0  0
  -24.7240  -11.8040   20.8200 C   0  0  0  0  0  0  0  0  0  0  0  0
  -26.3290  -13.1030   20.2440 N   0  0  0  0  0  0  0  0  0  0  0  0
  -26.0170  -11.8020   20.4920 N   0  0  0  0  0  0  0  0  0  0  0  0
  -24.0140  -10.5290   21.0000 C   0  0  0  0  0  0  0  0  0  0  0  0
  -24.4420   -9.5660   21.9410 C   0  0  0  0  0  3  0  0  0  0  0  0
  -23.7250   -8.3630   22.1140 C   0  0  0  0  0  3  0  0  0  0  0  0
  -22.5630   -8.1110   21.3470 C   0  0  0  0  0  0  0  0  0  0  0  0
  -22.1520   -9.0620   20.3960 C   0  0  0  0  0  3  0  0  0  0  0  0
  -22.8690  -10.2570   20.2220 C   0  0  0  0  0  3  0  0  0  0  0  0
  -21.8180   -6.9590   21.4280 O   0  0  0  0  0  0  0  0  0  0  0  0
  -21.7340   -6.2350   22.5910 C   0  0  0  0  0  0  0  0  0  0  0  0
  -21.2190   -6.7950   23.7800 C   0  0  0  0  0  3  0  0  0  0  0  0
  -21.0870   -5.9970   24.9340 C   0  0  0  0  0  3  0  0  0  0  0  0
  -21.4570   -4.6390   24.8980 C   0  0  0  0  0  0  0  0  0  0  0  0
  -21.9650   -4.0790   23.7130 C   0  0  0  0  0  3  0  0  0  0  0  0
  -22.1000   -4.8740   22.5620 C   0  0  0  0  0  0  0  0  0  0  0  0
  -22.5680   -4.3230   21.4150 F   0  0  0  0  0  0  0  0  0  0  0  0
  -21.3240   -3.8690   26.0030 F   0  0  0  0  0  0  0  0  0  0  0  0
  -22.8300  -13.5980   21.1600 C   0  0  0  0  0  0  0  0  0  0  0  0
  -22.1210  -12.8920   22.0330 N   0  0  0  0  0  0  0  0  0  0  0  0
  -22.3730  -14.6170   20.6430 O   0  0  0  0  0  0  0  0  0  0  0  0
  -22.5050  -12.0690   22.4740 H   0  0  0  0  0  0  0  0  0  0  0  0
  -21.1810  -13.1790   22.2660 H   0  0  0  0  0  0  0  0  0  0  0  0
  -25.4000  -15.3240   20.3460 N   0  0  0  0  0  0  0  0  0  0  0  0
  -24.6150  -15.9550   20.4640 H   0  0  0  0  0  0  0  0  0  0  0  0
  -26.2250  -15.7790   19.9790 H   0  0  0  0  0  0  0  0  0  0  0  0
  -28.2040  -25.1520   20.3060 O   0  0  0  0  0  0  0  0  0  0  0  0
  -24.6990  -31.8750   23.1860 C   0  0  0  0  0  0  0  0  0  0  0  0
  -27.2260  -26.4850   20.2890 C   0  0  0  0  0  0  0  0  0  0  0  0
  -23.5350  -30.4560   21.5570 C   0  0  0  0  0  3  0  0  0  0  0  0
  -24.9910  -28.7300   20.1880 C   0  0  0  0  0  0  0  0  0  0  0  0
  -26.1260  -30.4990   21.4920 C   0  0  0  0  0  2  0  0  0  0  0  0
  -26.1870  -29.0250   20.8520 C   0  0  0  0  0  0  0  0  0  0  0  0
  -27.2670  -27.9420   20.8620 C   0  0  0  0  0  3  0  0  0  0  0  0
  -25.9970  -26.4900   19.5550 C   0  0  0  0  0  3  0  0  0  0  0  0
  -24.9550  -27.4910   19.5150 C   0  0  0  0  0  3  0  0  0  0  0  0
  -23.8000  -29.7230   20.2050 C   0  0  0  0  0  2  0  0  0  0  0  0
  -24.8140  -30.9850   22.1290 N   0  0  0  0  0  0  0  0  0  0  0  0
  -23.5970  -32.1920   23.6700 O   0  0  0  0  0  0  0  0  0  0  0  0
  -22.7800  -29.5160   22.5370 C   0  0  0  0  0  0  0  0  0  0  0  0
  -21.4440  -29.3840   22.4100 N   0  0  0  0  0  0  0  0  0  0  0  0
  -23.4160  -28.8980   23.3940 O   0  0  0  0  0  0  0  0  0  0  0  0
  -20.9760  -29.9330   21.7010 H   0  0  0  0  0  0  0  0  0  0  0  0
  -18.0400  -28.2000   22.9360 C   0  0  0  0  0  0  0  0  0  0  0  0
  -20.6050  -28.4590   23.1850 C   0  0  0  0  0  3  0  0  0  0  0  0
  -20.6930  -27.0230   22.6170 C   0  0  0  0  0  2  0  0  0  0  0  0
  -19.5880  -26.7060   21.6050 C   0  0  0  0  0  2  0  0  0  0  0  0
  -18.2090  -26.8540   22.2510 C   0  0  0  0  0  2  0  0  0  0  0  0
  -19.1640  -28.9620   23.3590 C   0  0  0  0  0  0  0  0  0  0  0  0
  -18.9470  -30.2160   23.9670 C   0  0  0  0  0  3  0  0  0  0  0  0
  -17.6430  -30.7140   24.1500 C   0  0  0  0  0  3  0  0  0  0  0  0
  -16.5350  -29.9530   23.7380 C   0  0  0  0  0  3  0  0  0  0  0  0
  -16.7340  -28.6970   23.1370 C   0  0  0  0  0  3  0  0  0  0  0  0
  -25.9420  -32.5460   23.8440 C   0  0  0  0  0  3  0  0  0  0  0  0
  -25.6070  -33.9530   24.1650 N   0  0  0  0  0  0  0  0  0  0  0  0
  -25.9340  -35.0200   23.4240 C   0  0  0  0  0  0  0  0  0  0  0  0
  -26.5960  -34.9260   22.3880 O   0  0  0  0  0  0  0  0  0  0  0  0
  -25.0120  -34.0970   24.9680 H   0  0  0  0  0  0  0  0  0  0  0  0
  -24.1920  -36.8230   23.1260 C   0  0  0  0  0  1  0  0  0  0  0  0
  -25.4560  -36.4120   23.9000 C   0  0  0  0  0  3  0  0  0  0  0  0
  -27.5990  -37.3240   24.6860 C   0  0  0  0  0  1  0  0  0  0  0  0
  -26.4820  -37.4700   23.7570 N   0  0  0  0  0  0  0  0  0  0  0  0
  -26.0730  -38.3910   23.8940 H   0  0  0  0  0  0  0  0  0  0  0  0
  -26.4160  -31.8110   25.1610 C   0  0  1  0  0  0  0  0  0  0  0  0
  -25.2890  -31.6010   26.2010 C   0  0  0  0  0  1  0  0  0  0  0  0
  -27.0110  -30.4230   24.8420 C   0  0  0  0  0  1  0  0  0  0  0  0
  -27.5460  -32.6230   25.8390 C   0  0  0  0  0  1  0  0  0  0  0  0
  1  3  1  0
  2  4  2  0
  3  6  2  0
  4  6  1  0
  5  2  1  0
  5  1  2  0
  6 45  1  0
  7 15  1  0
  8 13  1  0
  9 10  1  0
  9  8  1  0
 11 10  1  0
 11 20  1  0
 11 12  1  0
 13  7  1  0
 13 12  1  0
 14  7  2  0
 15  5  1  0
 15 16  1  0
 17 18  2  0
 18 37  1  0
 19 18  1  0
 19 22  1  0
 20 21  1  0
 20 17  1  0
 21 19  2  0
 22 23  1  0
 23 24  2  0
 25 28  1  0
 25 24  1  0
 26 25  2  0
 27 26  1  0
 27 22  2  0
 28 29  1  0
 29 30  1  0
 30 31  2  0
 32 31  1  0
 32 36  1  0
 33 32  2  0
 34 29  2  0
 34 33  1  0
 35 34  1  0
 37 38  1  0
 38 41  1  0
 38 40  1  0
 39 37  2  0
 42 43  1  0
 42 17  1  0
 44 42  1  0
 46 57  2  0
 47 45  1  0
 47 52  1  0
 48 56  1  0
 48 58  1  0
 49 55  1  0
 49 51  1  0
 50 56  1  0
 51 52  2  0
 51 50  1  0
 53 47  2  0
 54 53  1  0
 54 49  2  0
 55 48  1  0
 56 46  1  0
 58 60  2  0
 59 58  1  0
 61 59  1  0
 62 71  2  0
 62 67  1  0
 63 59  1  0
 63 67  1  0
 64 63  1  0
 65 66  1  0
 65 64  1  0
 66 62  1  0
 67 68  2  0
 68 69  1  0
 70 69  2  0
 71 70  1  0
 72 46  1  0
 72 73  1  0
 72 82  1  0
 73 76  1  0
 74 78  1  0
 74 73  1  0
 75 74  2  0
 78 77  1  0
 80 81  1  0
 80 78  1  0
 80 79  1  0
 82 85  1  1
 82 83  1  0
 84 82  1  0
M  ISO  4   6 101   7 100  15 100  45 101
M  END
>  <TORSDO>  (30) 
F 16

>  <SCORE>  (30) 
-16.478

>  <name>  (30) 
30

>  <ligand_id>  (30) 
30

>  <original_smiles>  (30) 
[H]c1c([H])c([H])c2c(c1[H])C([H])([H])C([H])([H])C([H])([H])C2([H])N([H])C(=O)C1([H])N(C(=O)C([H])(N([H])C(=O)C([H])(N([H])C([H])([H])[H])C([H])([H])[H])C(C([H])([H])[H])(C([H])([H])[H])C([H])([H])[H])C([H])([H])c2c([H])c(Oc3c([H])c([H])c(N([H])C(=O)N4C([H])([H])C([H])([H])C([H])([H])C([H])(n5nc(-c6c([H])c([H])c(Oc7c([H])c([H])c(F)c([H])c7F)c([H])c6[H])c(C(=O)N([H])[H])c5N([H])[H])C4([H])[H])c([H])c3[H])c([H])c([H])c2C1([H])[H]

>  <smiles>  (30) 
[H]c1c([H])c([H])c2c(c1[H])C([H])([H])C([H])([H])C([H])([H])C2([H])N([H])C(=O)C1([H])N(C(=O)C([H])(N([H])C(=O)C([H])(N([H])C([H])([H])[H])C([H])([H])[H])C(C([H])([H])[H])(C([H])([H])[H])C([H])([H])[H])C([H])([H])c2c([H])c(Oc3c([H])c([H])c(N([H])C(=O)N4C([H])([H])C([H])([H])C([H])([H])C([H])(n5nc(-c6c([H])c([H])c(Oc7c([H])c([H])c(F)c([H])c7F)c([H])c6[H])c(C(=O)N([H])[H])c5N([H])[H])C4([H])[H])c([H])c3[H])c([H])c([H])c2C1([H])[H]

$$$$
31:0:0
     RDKit          3D

 88 95  0  0  1  0  0  0  0  0999 V2000
  -28.6310  -22.8620   19.8830 C   0  0  0  0  0  3  0  0  0  0  0  0
  -29.0080  -21.4230   20.6080 N   0  0  0  0  0  4  0  0  0  0  0  0
  -29.9210  -21.5360   21.0140 H   0  0  0  0  0  0  0  0  0  0  0  0
  -28.3880  -21.3600   21.4020 H   0  0  0  0  0  0  0  0  0  0  0  0
  -28.9840  -19.8990   19.9750 C   0  0  0  0  0  2  0  0  0  0  0  0
  -29.7920  -18.4080   20.5220 C   0  0  0  0  0  2  0  0  0  0  0  0
  -29.4590  -16.6910   20.2030 C   0  0  0  0  0  2  0  0  0  0  0  0
  -30.3810  -15.2170   20.2040 C   0  0  0  0  0  0  0  0  0  0  0  0
  -30.3890  -12.7880   19.3260 C   0  0  0  0  0  2  0  0  0  0  0  0
  -29.4470  -12.6380   18.1040 C   0  0  0  0  0  2  0  0  0  0  0  0
  -27.9960  -12.3760   18.5530 C   0  0  0  0  0  2  0  0  0  0  0  0
  -27.5670  -13.3160   19.7080 C   0  0  0  0  0  3  0  0  0  0  0  0
  -28.6300  -13.4090   20.8180 C   0  0  0  0  0  2  0  0  0  0  0  0
  -29.8710  -13.8960   20.1980 N   0  0  0  0  0  0  0  0  0  0  0  0
  -31.5990  -15.2650   19.9750 O   0  0  0  0  0  0  0  0  0  0  0  0
  -25.2000  -13.8580   20.4960 C   0  0  0  0  0  0  0  0  0  0  0  0
  -24.1480  -13.0730   20.8780 C   0  0  0  0  0  0  0  0  0  0  0  0
  -24.6240  -11.7260   20.8360 C   0  0  0  0  0  0  0  0  0  0  0  0
  -26.2460  -12.9920   20.2310 N   0  0  0  0  0  0  0  0  0  0  0  0
  -25.9120  -11.7030   20.5050 N   0  0  0  0  0  0  0  0  0  0  0  0
  -23.9090  -10.4580   21.0310 C   0  0  0  0  0  0  0  0  0  0  0  0
  -24.3560   -9.4920   21.9600 C   0  0  0  0  0  3  0  0  0  0  0  0
  -23.6370   -8.2900   22.1440 C   0  0  0  0  0  3  0  0  0  0  0  0
  -22.4580   -8.0470   21.4000 C   0  0  0  0  0  0  0  0  0  0  0  0
  -22.0310   -9.0010   20.4610 C   0  0  0  0  0  3  0  0  0  0  0  0
  -22.7500  -10.1930   20.2750 C   0  0  0  0  0  3  0  0  0  0  0  0
  -21.7120   -6.8960   21.4940 O   0  0  0  0  0  0  0  0  0  0  0  0
  -21.6780   -6.1520   22.6450 C   0  0  0  0  0  0  0  0  0  0  0  0
  -21.2510   -6.6990   23.8740 C   0  0  0  0  0  3  0  0  0  0  0  0
  -21.1650   -5.8800   25.0190 C   0  0  0  0  0  3  0  0  0  0  0  0
  -21.4960   -4.5150   24.9340 C   0  0  0  0  0  0  0  0  0  0  0  0
  -21.9170   -3.9670   23.7100 C   0  0  0  0  0  3  0  0  0  0  0  0
  -22.0040   -4.7830   22.5680 C   0  0  0  0  0  0  0  0  0  0  0  0
  -22.3890   -4.2450   21.3850 F   0  0  0  0  0  0  0  0  0  0  0  0
  -21.4070   -3.7260   26.0300 F   0  0  0  0  0  0  0  0  0  0  0  0
  -22.7510  -13.5390   21.1650 C   0  0  0  0  0  0  0  0  0  0  0  0
  -22.0380  -12.8360   22.0370 N   0  0  0  0  0  0  0  0  0  0  0  0
  -22.3010  -14.5630   20.6520 O   0  0  0  0  0  0  0  0  0  0  0  0
  -22.4150  -12.0070   22.4740 H   0  0  0  0  0  0  0  0  0  0  0  0
  -21.1010  -13.1300   22.2730 H   0  0  0  0  0  0  0  0  0  0  0  0
  -25.3510  -15.2320   20.3230 N   0  0  0  0  0  0  0  0  0  0  0  0
  -24.5830  -15.8810   20.4550 H   0  0  0  0  0  0  0  0  0  0  0  0
  -26.1930  -15.6790   19.9860 H   0  0  0  0  0  0  0  0  0  0  0  0
  -29.7050  -23.1770   18.9470 N   0  0  0  0  0  0  0  0  0  0  0  0
  -30.4200  -23.7190   19.4250 H   0  0  0  0  0  0  0  0  0  0  0  0
  -29.3440  -23.8400   18.2650 H   0  0  0  0  0  0  0  0  0  0  0  0
  -28.1270  -24.4030   20.6230 C   0  0  0  0  0  2  0  0  0  0  0  0
  -28.2550  -25.9760   20.2210 O   0  0  0  0  0  0  0  0  0  0  0  0
  -24.6140  -31.8670   23.1830 C   0  0  0  0  0  0  0  0  0  0  0  0
  -27.2020  -27.0120   20.2310 C   0  0  0  0  0  0  0  0  0  0  0  0
  -23.4270  -30.4480   21.5590 C   0  0  0  0  0  3  0  0  0  0  0  0
  -24.8830  -28.8380   20.1620 C   0  0  0  0  0  0  0  0  0  0  0  0
  -25.9890  -30.6860   21.4060 C   0  0  0  0  0  2  0  0  0  0  0  0
  -26.0670  -29.2720   20.7700 C   0  0  0  0  0  0  0  0  0  0  0  0
  -27.2260  -28.3810   20.7730 C   0  0  0  0  0  3  0  0  0  0  0  0
  -25.9830  -26.7080   19.5850 C   0  0  0  0  0  3  0  0  0  0  0  0
  -24.8610  -27.5740   19.5510 C   0  0  0  0  0  3  0  0  0  0  0  0
  -23.6590  -29.7480   20.1920 C   0  0  0  0  0  2  0  0  0  0  0  0
  -24.6980  -31.0260   22.1030 N   0  0  0  0  0  0  0  0  0  0  0  0
  -23.5240  -32.1570   23.7020 O   0  0  0  0  0  0  0  0  0  0  0  0
  -22.7390  -29.4590   22.5340 C   0  0  0  0  0  0  0  0  0  0  0  0
  -21.4100  -29.2910   22.4120 N   0  0  0  0  0  0  0  0  0  0  0  0
  -23.4080  -28.8410   23.3660 O   0  0  0  0  0  0  0  0  0  0  0  0
  -20.9250  -29.8390   21.7150 H   0  0  0  0  0  0  0  0  0  0  0  0
  -18.0270  -28.0940   22.9380 C   0  0  0  0  0  0  0  0  0  0  0  0
  -20.5880  -28.3610   23.1920 C   0  0  0  0  0  3  0  0  0  0  0  0
  -20.6870  -26.9250   22.6260 C   0  0  0  0  0  2  0  0  0  0  0  0
  -19.5810  -26.5950   21.6190 C   0  0  0  0  0  2  0  0  0  0  0  0
  -18.2020  -26.7420   22.2670 C   0  0  0  0  0  2  0  0  0  0  0  0
  -19.1470  -28.8610   23.3570 C   0  0  0  0  0  0  0  0  0  0  0  0
  -18.9270  -30.1240   23.9480 C   0  0  0  0  0  3  0  0  0  0  0  0
  -17.6230  -30.6210   24.1220 C   0  0  0  0  0  3  0  0  0  0  0  0
  -16.5170  -29.8530   23.7170 C   0  0  0  0  0  3  0  0  0  0  0  0
  -16.7210  -28.5900   23.1310 C   0  0  0  0  0  3  0  0  0  0  0  0
  -25.8840  -32.5200   23.8110 C   0  0  0  0  0  3  0  0  0  0  0  0
  -25.5620  -33.9210   24.1290 N   0  0  0  0  0  0  0  0  0  0  0  0
  -25.8940  -34.9750   23.3720 C   0  0  0  0  0  0  0  0  0  0  0  0
  -26.5690  -34.8700   22.3440 O   0  0  0  0  0  0  0  0  0  0  0  0
  -24.9610  -34.0750   24.9250 H   0  0  0  0  0  0  0  0  0  0  0  0
  -24.1670  -36.7700   23.0100 C   0  0  0  0  0  1  0  0  0  0  0  0
  -25.4050  -36.3660   23.8250 C   0  0  0  0  0  3  0  0  0  0  0  0
  -27.5350  -37.2590   24.6630 C   0  0  0  0  0  1  0  0  0  0  0  0
  -26.4380  -37.4200   23.7120 N   0  0  0  0  0  0  0  0  0  0  0  0
  -26.0290  -38.3410   23.8530 H   0  0  0  0  0  0  0  0  0  0  0  0
  -26.3880  -31.7700   25.1070 C   0  0  1  0  0  0  0  0  0  0  0  0
  -25.2860  -31.5510   26.1690 C   0  0  0  0  0  1  0  0  0  0  0  0
  -26.9760  -30.3870   24.7510 C   0  0  0  0  0  1  0  0  0  0  0  0
  -27.5330  -32.5780   25.7650 C   0  0  0  0  0  1  0  0  0  0  0  0
  1  2  1  0
  1 47  1  0
  2  3  1  0
  2  4  1  0
  5  6  1  0
  5  2  1  0
  7  8  1  0
  7  6  1  0
  9 14  1  0
 10 11  1  0
 10  9  1  0
 12 11  1  0
 12 19  1  0
 12 13  1  0
 14  8  1  0
 14 13  1  0
 15  8  2  0
 16 17  2  0
 17 36  1  0
 18 17  1  0
 18 21  1  0
 19 16  1  0
 19 20  1  0
 20 18  2  0
 21 22  1  0
 22 23  2  0
 24 27  1  0
 24 23  1  0
 25 24  2  0
 26 25  1  0
 26 21  2  0
 27 28  1  0
 28 29  1  0
 29 30  2  0
 31 30  1  0
 31 35  1  0
 32 31  2  0
 33 28  2  0
 33 32  1  0
 34 33  1  0
 36 37  1  0
 37 40  1  0
 37 39  1  0
 38 36  2  0
 41 42  1  0
 41 16  1  0
 43 41  1  0
 44 45  1  0
 44  1  1  0
 46 44  1  0
 48 50  1  0
 48 47  1  0
 49 60  2  0
 50 55  1  0
 51 59  1  0
 51 61  1  0
 52 58  1  0
 52 54  1  0
 53 59  1  0
 54 55  2  0
 54 53  1  0
 56 50  2  0
 57 56  1  0
 57 52  2  0
 58 51  1  0
 59 49  1  0
 61 63  2  0
 62 61  1  0
 64 62  1  0
 65 74  2  0
 65 70  1  0
 66 62  1  0
 66 70  1  0
 67 66  1  0
 68 69  1  0
 68 67  1  0
 69 65  1  0
 70 71  2  0
 71 72  1  0
 73 72  2  0
 74 73  1  0
 75 49  1  0
 75 76  1  0
 75 85  1  0
 76 79  1  0
 77 81  1  0
 77 76  1  0
 78 77  2  0
 81 80  1  0
 83 81  1  0
 83 84  1  0
 83 82  1  0
 85 88  1  1
 85 86  1  0
 87 85  1  0
M  ISO  4   7 100   8 100  47 101  48 101
M  END
>  <TORSDO>  (31) 
F 22

>  <SCORE>  (31) 
-14.918

>  <name>  (31) 
31

>  <ligand_id>  (31) 
31

>  <original_smiles>  (31) 
[H]c1c([H])c([H])c2c(c1[H])C([H])([H])C([H])([H])C([H])([H])C2([H])N([H])C(=O)C1([H])N(C(=O)C([H])(N([H])C(=O)C([H])(N([H])C([H])([H])[H])C([H])([H])[H])C(C([H])([H])[H])(C([H])([H])[H])C([H])([H])[H])C([H])([H])c2c([H])c(OC([H])([H])C([H])(N([H])[H])[N+]([H])([H])C([H])([H])C([H])([H])C([H])([H])C(=O)N3C([H])([H])C([H])([H])C([H])([H])C([H])(n4nc(-c5c([H])c([H])c(Oc6c([H])c([H])c(F)c([H])c6F)c([H])c5[H])c(C(=O)N([H])[H])c4N([H])[H])C3([H])[H])c([H])c([H])c2C1([H])[H]

>  <smiles>  (31) 
[H]c1c([H])c([H])c2c(c1[H])C([H])([H])C([H])([H])C([H])([H])C2([H])N([H])C(=O)C1([H])N(C(=O)C([H])(N([H])C(=O)C([H])(N([H])C([H])([H])[H])C([H])([H])[H])C(C([H])([H])[H])(C([H])([H])[H])C([H])([H])[H])C([H])([H])c2c([H])c(OC([H])([H])C([H])(N([H])[H])[N+]([H])([H])C([H])([H])C([H])([H])C([H])([H])C(=O)N3C([H])([H])C([H])([H])C([H])([H])C([H])(n4nc(-c5c([H])c([H])c(Oc6c([H])c([H])c(F)c([H])c6F)c([H])c5[H])c(C(=O)N([H])[H])c4N([H])[H])C3([H])[H])c([H])c([H])c2C1([H])[H]

$$$$
32:0:0
     RDKit          3D

 91 98  0  0  1  0  0  0  0  0999 V2000
  -30.7880  -21.1600   21.5870 C   0  0  0  0  0  1  0  0  0  0  0  0
  -29.6030  -21.0300   20.6100 C   0  0  0  0  0  3  0  0  0  0  0  0
  -29.6980  -19.8220   19.6540 N   0  0  0  0  0  4  0  0  0  0  0  0
  -28.7500  -19.5330   19.4650 H   0  0  0  0  0  0  0  0  0  0  0  0
  -29.9990  -20.2430   18.7890 H   0  0  0  0  0  0  0  0  0  0  0  0
  -32.0460  -18.7870   19.4660 C   0  0  0  0  0  1  0  0  0  0  0  0
  -30.5440  -18.5180   19.7020 C   0  0  0  0  0  3  0  0  0  0  0  0
  -29.0960  -17.6940   21.7150 C   0  0  0  0  0  1  0  0  0  0  0  0
  -30.3100  -17.3720   20.8220 C   0  0  0  0  0  3  0  0  0  0  0  0
  -30.9670  -14.8290   20.0290 C   0  0  0  0  0  0  0  0  0  0  0  0
  -30.6930  -12.5850   18.9340 C   0  0  0  0  0  2  0  0  0  0  0  0
  -29.7080  -12.7140   17.7500 C   0  0  0  0  0  2  0  0  0  0  0  0
  -28.2530  -12.5470   18.2330 C   0  0  0  0  0  2  0  0  0  0  0  0
  -27.9430  -13.4250   19.4770 C   0  0  0  0  0  3  0  0  0  0  0  0
  -29.0400  -13.2650   20.5540 C   0  0  0  0  0  2  0  0  0  0  0  0
  -30.3290  -13.6120   19.9310 N   0  0  0  0  0  0  0  0  0  0  0  0
  -32.1270  -14.9710   19.6330 O   0  0  0  0  0  0  0  0  0  0  0  0
  -30.1750  -15.8910   20.4220 N   0  0  0  0  0  0  0  0  0  0  0  0
  -29.2530  -15.5380   20.6220 H   0  0  0  0  0  0  0  0  0  0  0  0
  -25.5970  -14.0780   20.2960 C   0  0  0  0  0  0  0  0  0  0  0  0
  -24.5270  -13.3310   20.7030 C   0  0  0  0  0  0  0  0  0  0  0  0
  -24.9510  -11.9660   20.6450 C   0  0  0  0  0  0  0  0  0  0  0  0
  -26.6090  -13.1690   20.0120 N   0  0  0  0  0  0  0  0  0  0  0  0
  -26.2270  -11.8960   20.2830 N   0  0  0  0  0  0  0  0  0  0  0  0
  -24.2040  -10.7220   20.8570 C   0  0  0  0  0  0  0  0  0  0  0  0
  -24.6200   -9.7620   21.8050 C   0  0  0  0  0  3  0  0  0  0  0  0
  -23.8720   -8.5790   22.0020 C   0  0  0  0  0  3  0  0  0  0  0  0
  -22.6960   -8.3500   21.2510 C   0  0  0  0  0  0  0  0  0  0  0  0
  -22.2970   -9.3000   20.2940 C   0  0  0  0  0  3  0  0  0  0  0  0
  -23.0450  -10.4720   20.0960 C   0  0  0  0  0  3  0  0  0  0  0  0
  -21.9170   -7.2230   21.3580 O   0  0  0  0  0  0  0  0  0  0  0  0
  -21.8080   -6.5330   22.5370 C   0  0  0  0  0  0  0  0  0  0  0  0
  -21.3500   -7.1500   23.7230 C   0  0  0  0  0  3  0  0  0  0  0  0
  -21.1860   -6.3870   24.8950 C   0  0  0  0  0  3  0  0  0  0  0  0
  -21.4680   -5.0070   24.8870 C   0  0  0  0  0  0  0  0  0  0  0  0
  -21.9200   -4.3910   23.7080 C   0  0  0  0  0  3  0  0  0  0  0  0
  -22.0860   -5.1500   22.5370 C   0  0  0  0  0  0  0  0  0  0  0  0
  -22.4990   -4.5440   21.3980 F   0  0  0  0  0  0  0  0  0  0  0  0
  -21.3050   -4.2760   26.0140 F   0  0  0  0  0  0  0  0  0  0  0  0
  -23.1520  -13.8380   21.0330 C   0  0  0  0  0  0  0  0  0  0  0  0
  -22.4450  -13.1630   21.9320 N   0  0  0  0  0  0  0  0  0  0  0  0
  -22.7170  -14.8710   20.5270 O   0  0  0  0  0  0  0  0  0  0  0  0
  -22.8090  -12.3340   22.3760 H   0  0  0  0  0  0  0  0  0  0  0  0
  -21.5230  -13.4890   22.1910 H   0  0  0  0  0  0  0  0  0  0  0  0
  -25.7860  -15.4480   20.1170 N   0  0  0  0  0  0  0  0  0  0  0  0
  -25.0350  -16.1200   20.2500 H   0  0  0  0  0  0  0  0  0  0  0  0
  -26.6010  -15.8570   19.6810 H   0  0  0  0  0  0  0  0  0  0  0  0
  -29.3290  -22.4420   19.8490 C   0  0  0  0  0  2  0  0  0  0  0  0
  -28.7670  -23.7900   20.5510 C   0  0  0  0  0  3  0  0  0  0  0  0
  -28.6530  -25.1170   19.6360 C   0  0  0  0  0  3  0  0  0  0  0  0
  -28.5140  -26.4850   20.2180 O   0  0  0  0  0  0  0  0  0  0  0  0
  -24.6600  -31.7610   23.2250 C   0  0  0  0  0  0  0  0  0  0  0  0
  -27.3590  -27.2880   20.1260 C   0  0  0  0  0  0  0  0  0  0  0  0
  -23.4990  -30.3720   21.5620 C   0  0  0  0  0  3  0  0  0  0  0  0
  -24.9660  -28.8660   20.1120 C   0  0  0  0  0  0  0  0  0  0  0  0
  -26.0150  -30.7450   21.3750 C   0  0  0  0  0  2  0  0  0  0  0  0
  -26.1200  -29.3730   20.7180 C   0  0  0  0  0  0  0  0  0  0  0  0
  -27.3150  -28.5940   20.7190 C   0  0  0  0  0  3  0  0  0  0  0  0
  -26.1780  -26.8410   19.4890 C   0  0  0  0  0  3  0  0  0  0  0  0
  -24.9980  -27.6130   19.4820 C   0  0  0  0  0  3  0  0  0  0  0  0
  -23.7100  -29.7090   20.1700 C   0  0  0  0  0  2  0  0  0  0  0  0
  -24.7470  -30.9770   22.1120 N   0  0  0  0  0  0  0  0  0  0  0  0
  -23.5700  -32.0070   23.7590 O   0  0  0  0  0  0  0  0  0  0  0  0
  -22.8530  -29.3420   22.5130 C   0  0  0  0  0  0  0  0  0  0  0  0
  -21.5380  -29.2480   22.3660 N   0  0  0  0  0  0  0  0  0  0  0  0
  -23.5150  -28.6500   23.2890 O   0  0  0  0  0  0  0  0  0  0  0  0
  -21.1380  -29.9360   21.7430 H   0  0  0  0  0  0  0  0  0  0  0  0
  -18.1340  -27.7590   22.7700 C   0  0  0  0  0  0  0  0  0  0  0  0
  -20.5990  -28.2180   22.7330 C   0  0  0  0  0  3  0  0  0  0  0  0
  -20.8920  -26.7300   22.5200 C   0  0  0  0  0  2  0  0  0  0  0  0
  -19.8090  -26.1560   21.5830 C   0  0  0  0  0  2  0  0  0  0  0  0
  -18.3810  -26.3900   22.1270 C   0  0  0  0  0  2  0  0  0  0  0  0
  -19.2050  -28.5960   23.1680 C   0  0  0  0  0  0  0  0  0  0  0  0
  -18.9490  -29.8410   23.7710 C   0  0  0  0  0  3  0  0  0  0  0  0
  -17.6220  -30.2760   23.9420 C   0  0  0  0  0  3  0  0  0  0  0  0
  -16.5550  -29.4660   23.5210 C   0  0  0  0  0  3  0  0  0  0  0  0
  -16.8100  -28.2060   22.9470 C   0  0  0  0  0  3  0  0  0  0  0  0
  -25.9250  -32.4040   23.8610 C   0  0  0  0  0  3  0  0  0  0  0  0
  -26.4420  -31.6240   25.1290 C   0  0  1  0  0  0  0  0  0  0  0  0
  -25.3450  -31.3570   26.1830 C   0  0  0  0  0  1  0  0  0  0  0  0
  -27.0470  -30.2600   24.7210 C   0  0  0  0  0  1  0  0  0  0  0  0
  -27.5720  -32.4280   25.8140 C   0  0  0  0  0  1  0  0  0  0  0  0
  -25.5890  -33.7920   24.2070 N   0  0  0  0  0  0  0  0  0  0  0  0
  -25.8960  -34.8590   23.4570 C   0  0  0  0  0  0  0  0  0  0  0  0
  -26.5640  -34.7780   22.4240 O   0  0  0  0  0  0  0  0  0  0  0  0
  -24.9940  -33.9270   25.0110 H   0  0  0  0  0  0  0  0  0  0  0  0
  -24.1300  -36.6210   23.1230 C   0  0  0  0  0  1  0  0  0  0  0  0
  -25.3800  -36.2310   23.9290 C   0  0  0  0  0  3  0  0  0  0  0  0
  -27.4970  -37.1500   24.7660 C   0  0  0  0  0  1  0  0  0  0  0  0
  -26.3900  -37.3060   23.8260 N   0  0  0  0  0  0  0  0  0  0  0  0
  -25.9650  -38.2160   23.9860 H   0  0  0  0  0  0  0  0  0  0  0  0
  2  1  1  0
  3  7  1  0
  3  2  1  0
  4  3  1  0
  5  3  1  0
  7  6  1  0
  7  9  1  0
  9  8  1  0
 10 18  1  0
 11 16  1  0
 12 13  1  0
 12 11  1  0
 14 13  1  0
 14 23  1  0
 14 15  1  0
 16 10  1  0
 16 15  1  0
 17 10  2  0
 18 19  1  0
 18  9  1  0
 20 21  2  0
 21 40  1  0
 22 21  1  0
 22 25  1  0
 23 24  1  0
 23 20  1  0
 24 22  2  0
 25 26  1  0
 26 27  2  0
 28 31  1  0
 28 27  1  0
 29 28  2  0
 30 29  1  0
 30 25  2  0
 31 32  1  0
 32 37  2  0
 32 33  1  0
 33 34  2  0
 35 34  1  0
 35 39  1  0
 36 35  2  0
 37 36  1  0
 38 37  1  0
 40 41  1  0
 41 44  1  0
 41 43  1  0
 42 40  2  0
 45 46  1  0
 45 20  1  0
 47 45  1  0
 48 49  1  0
 48  2  1  0
 50 51  1  0
 50 49  2  0
 52 63  2  0
 53 51  1  0
 53 58  1  0
 54 62  1  0
 54 64  1  0
 55 61  1  0
 55 57  1  0
 56 62  1  0
 57 58  2  0
 57 56  1  0
 59 53  2  0
 60 59  1  0
 60 55  2  0
 61 54  1  0
 62 52  1  0
 64 66  2  0
 65 64  1  0
 67 65  1  0
 68 77  2  0
 68 73  1  0
 69 65  1  0
 69 73  1  0
 70 69  1  0
 71 72  1  0
 71 70  1  0
 72 68  1  0
 73 74  2  0
 74 75  1  0
 76 75  2  0
 77 76  1  0
 78 52  1  0
 78 83  1  0
 78 79  1  0
 79 82  1  1
 79 80  1  0
 81 79  1  0
 83 86  1  0
 84 88  1  0
 84 83  1  0
 85 84  2  0
 88 87  1  0
 90 88  1  0
 90 91  1  0
 90 89  1  0
M  ISO  4  10 100  18 100  50 101  51 101
M  END
>  <TORSDO>  (32) 
F 22

>  <SCORE>  (32) 
-11.933

>  <name>  (32) 
32

>  <ligand_id>  (32) 
32

>  <original_smiles>  (32) 
[H]c1c([H])c([H])c2c(c1[H])C([H])([H])C([H])([H])C([H])([H])C2([H])N([H])C(=O)C1([H])N(C(=O)C([H])(N([H])C(=O)C([H])(N([H])C([H])([H])[H])C([H])([H])[H])C(C([H])([H])[H])(C([H])([H])[H])C([H])([H])[H])C([H])([H])c2c([H])c(OC([H])([H])C([H])([H])C([H])([H])C([H])(C([H])([H])[H])[N+]([H])([H])C([H])(C([H])([H])[H])C([H])(N([H])C(=O)N3C([H])([H])C([H])([H])C([H])([H])C([H])(n4nc(-c5c([H])c([H])c(Oc6c([H])c([H])c(F)c([H])c6F)c([H])c5[H])c(C(=O)N([H])[H])c4N([H])[H])C3([H])[H])C([H])([H])[H])c([H])c([H])c2C1([H])[H]

>  <smiles>  (32) 
[H]c1c([H])c([H])c2c(c1[H])C([H])([H])C([H])([H])C([H])([H])C2([H])N([H])C(=O)C1([H])N(C(=O)C([H])(N([H])C(=O)C([H])(N([H])C([H])([H])[H])C([H])([H])[H])C(C([H])([H])[H])(C([H])([H])[H])C([H])([H])[H])C([H])([H])c2c([H])c(OC([H])([H])C([H])([H])C([H])([H])C([H])(C([H])([H])[H])[N+]([H])([H])C([H])(C([H])([H])[H])C([H])(N([H])C(=O)N3C([H])([H])C([H])([H])C([H])([H])C([H])(n4nc(-c5c([H])c([H])c(Oc6c([H])c([H])c(F)c([H])c6F)c([H])c5[H])c(C(=O)N([H])[H])c4N([H])[H])C3([H])[H])C([H])([H])[H])c([H])c([H])c2C1([H])[H]

$$$$
33:0:0
     RDKit          3D

 92100  0  0  1  0  0  0  0  0999 V2000
  -29.4540  -20.7980   20.1620 C   0  0  0  0  0  3  0  0  0  0  0  0
  -29.4470  -20.9330   21.6390 N   0  0  0  0  0  4  0  0  0  0  0  0
  -28.8060  -21.6690   21.8830 H   0  0  0  0  0  0  0  0  0  0  0  0
  -29.0800  -20.0800   22.0310 H   0  0  0  0  0  0  0  0  0  0  0  0
  -30.5700  -22.0600   23.5660 C   0  0  0  0  0  1  0  0  0  0  0  0
  -30.7550  -21.2310   22.2820 C   0  0  0  0  0  3  0  0  0  0  0  0
  -32.8760  -21.2980   20.7710 C   0  0  0  0  0  3  0  0  0  0  0  0
  -33.5710  -22.1080   19.9110 C   0  0  0  0  0  3  0  0  0  0  0  0
  -31.5700  -23.2120   20.8760 C   0  0  0  0  0  3  0  0  0  0  0  0
  -31.7070  -21.9180   21.3230 C   0  0  0  0  0  0  0  0  0  0  0  0
  -32.8290  -23.6720   19.7610 S   0  0  0  0  0  0  0  0  0  0  0  0
  -29.3780  -18.9470   19.7740 C   0  0  0  0  0  2  0  0  0  0  0  0
  -29.7780  -17.3040   20.6130 C   0  0  0  0  0  2  0  0  0  0  0  0
  -30.5480  -15.6830   20.2670 C   0  0  0  0  0  0  0  0  0  0  0  0
  -30.6340  -13.1530   19.4870 C   0  0  0  0  0  2  0  0  0  0  0  0
  -29.7610  -12.8480   18.2360 C   0  0  0  0  0  2  0  0  0  0  0  0
  -28.3150  -12.5320   18.6480 C   0  0  0  0  0  2  0  0  0  0  0  0
  -27.8030  -13.5270   19.7140 C   0  0  0  0  0  3  0  0  0  0  0  0
  -28.8110  -13.7730   20.8600 C   0  0  0  0  0  2  0  0  0  0  0  0
  -30.0420  -14.3250   20.2610 N   0  0  0  0  0  0  0  0  0  0  0  0
  -31.7550  -15.6540   19.9750 O   0  0  0  0  0  0  0  0  0  0  0  0
  -25.4360  -14.0810   20.4620 C   0  0  0  0  0  0  0  0  0  0  0  0
  -24.3600  -13.3080   20.7930 C   0  0  0  0  0  0  0  0  0  0  0  0
  -24.8100  -11.9520   20.7260 C   0  0  0  0  0  0  0  0  0  0  0  0
  -26.4680  -13.2010   20.1990 N   0  0  0  0  0  0  0  0  0  0  0  0
  -26.1040  -11.9120   20.4260 N   0  0  0  0  0  0  0  0  0  0  0  0
  -24.0600  -10.6960   20.8710 C   0  0  0  0  0  0  0  0  0  0  0  0
  -24.4760   -9.6840   21.7660 C   0  0  0  0  0  3  0  0  0  0  0  0
  -23.7260   -8.4970   21.9040 C   0  0  0  0  0  3  0  0  0  0  0  0
  -22.5460   -8.3090   21.1460 C   0  0  0  0  0  0  0  0  0  0  0  0
  -22.1470   -9.3100   20.2430 C   0  0  0  0  0  3  0  0  0  0  0  0
  -22.8970  -10.4890   20.1030 C   0  0  0  0  0  3  0  0  0  0  0  0
  -21.7700   -7.1770   21.1950 O   0  0  0  0  0  0  0  0  0  0  0  0
  -21.7180   -6.3850   22.3140 C   0  0  0  0  0  0  0  0  0  0  0  0
  -21.3130   -6.8950   23.5670 C   0  0  0  0  0  3  0  0  0  0  0  0
  -21.2080   -6.0330   24.6780 C   0  0  0  0  0  3  0  0  0  0  0  0
  -21.4950   -4.6620   24.5350 C   0  0  0  0  0  0  0  0  0  0  0  0
  -21.8930   -4.1530   23.2870 C   0  0  0  0  0  3  0  0  0  0  0  0
  -22.0000   -5.0120   22.1780 C   0  0  0  0  0  0  0  0  0  0  0  0
  -22.3640   -4.5100   20.9730 F   0  0  0  0  0  0  0  0  0  0  0  0
  -21.3860   -3.8330   25.5980 F   0  0  0  0  0  0  0  0  0  0  0  0
  -22.9670  -13.7970   21.0580 C   0  0  0  0  0  0  0  0  0  0  0  0
  -22.2240  -13.1040   21.9110 N   0  0  0  0  0  0  0  0  0  0  0  0
  -22.5480  -14.8330   20.5430 O   0  0  0  0  0  0  0  0  0  0  0  0
  -22.5760  -12.2670   22.3510 H   0  0  0  0  0  0  0  0  0  0  0  0
  -21.2880  -13.4170   22.1290 H   0  0  0  0  0  0  0  0  0  0  0  0
  -25.6150  -15.4560   20.3330 N   0  0  0  0  0  0  0  0  0  0  0  0
  -24.8490  -16.1080   20.4540 H   0  0  0  0  0  0  0  0  0  0  0  0
  -26.4680  -15.8950   20.0120 H   0  0  0  0  0  0  0  0  0  0  0  0
  -28.7220  -22.4110   19.5040 C   0  0  0  0  0  2  0  0  0  0  0  0
  -28.2760  -24.1370   20.1260 C   0  0  0  0  0  2  0  0  0  0  0  0
  -28.3270  -25.7880   19.6820 O   0  0  0  0  0  0  0  0  0  0  0  0
  -24.7470  -31.6130   23.2130 C   0  0  0  0  0  0  0  0  0  0  0  0
  -27.3130  -26.9180   19.8010 C   0  0  0  0  0  0  0  0  0  0  0  0
  -23.5690  -30.3710   21.4470 C   0  0  0  0  0  3  0  0  0  0  0  0
  -25.0260  -28.8690   19.9100 C   0  0  0  0  0  0  0  0  0  0  0  0
  -26.1420  -30.5550   21.3500 C   0  0  0  0  0  2  0  0  0  0  0  0
  -26.2150  -29.1940   20.5740 C   0  0  0  0  0  0  0  0  0  0  0  0
  -27.3510  -28.2490   20.4890 C   0  0  0  0  0  3  0  0  0  0  0  0
  -26.0860  -26.7730   19.1100 C   0  0  0  0  0  3  0  0  0  0  0  0
  -24.9930  -27.6830   19.1570 C   0  0  0  0  0  3  0  0  0  0  0  0
  -23.8150  -29.8040   20.0200 C   0  0  0  0  0  2  0  0  0  0  0  0
  -24.8420  -30.8700   22.0590 N   0  0  0  0  0  0  0  0  0  0  0  0
  -23.6510  -31.8630   23.7430 O   0  0  0  0  0  0  0  0  0  0  0  0
  -22.8540  -29.3040   22.3180 C   0  0  0  0  0  0  0  0  0  0  0  0
  -21.5310  -29.1260   22.1340 N   0  0  0  0  0  0  0  0  0  0  0  0
  -23.5000  -28.6330   23.1280 O   0  0  0  0  0  0  0  0  0  0  0  0
  -21.0600  -29.7220   21.4670 H   0  0  0  0  0  0  0  0  0  0  0  0
  -18.1790  -27.7480   22.3690 C   0  0  0  0  0  0  0  0  0  0  0  0
  -20.7030  -28.1170   22.8040 C   0  0  0  0  0  3  0  0  0  0  0  0
  -20.9070  -26.7190   22.1750 C   0  0  0  0  0  2  0  0  0  0  0  0
  -19.8860  -26.3970   21.0780 C   0  0  0  0  0  2  0  0  0  0  0  0
  -18.4630  -26.4460   21.6380 C   0  0  0  0  0  2  0  0  0  0  0  0
  -19.2310  -28.5410   22.9010 C   0  0  0  0  0  0  0  0  0  0  0  0
  -18.9120  -29.7560   23.5440 C   0  0  0  0  0  3  0  0  0  0  0  0
  -17.5760  -30.1840   23.6570 C   0  0  0  0  0  3  0  0  0  0  0  0
  -16.5380  -29.3900   23.1370 C   0  0  0  0  0  3  0  0  0  0  0  0
  -16.8410  -28.1730   22.5000 C   0  0  0  0  0  3  0  0  0  0  0  0
  -26.0080  -32.1990   23.9160 C   0  0  0  0  0  3  0  0  0  0  0  0
  -25.6890  -33.5680   24.3610 N   0  0  0  0  0  0  0  0  0  0  0  0
  -26.0470  -34.6890   23.7200 C   0  0  0  0  0  0  0  0  0  0  0  0
  -26.7390  -34.6780   22.6990 O   0  0  0  0  0  0  0  0  0  0  0  0
  -25.0720  -33.6490   25.1550 H   0  0  0  0  0  0  0  0  0  0  0  0
  -24.3270  -36.5220   23.5330 C   0  0  0  0  0  1  0  0  0  0  0  0
  -25.5670  -36.0360   24.3010 C   0  0  0  0  0  3  0  0  0  0  0  0
  -27.7000  -36.8430   25.2150 C   0  0  0  0  0  1  0  0  0  0  0  0
  -26.6030  -37.0930   24.2830 N   0  0  0  0  0  0  0  0  0  0  0  0
  -26.1990  -37.9980   24.5050 H   0  0  0  0  0  0  0  0  0  0  0  0
  -26.4870  -31.3310   25.1470 C   0  0  1  0  0  0  0  0  0  0  0  0
  -25.3680  -31.0340   26.1740 C   0  0  0  0  0  1  0  0  0  0  0  0
  -27.0580  -29.9730   24.6780 C   0  0  0  0  0  1  0  0  0  0  0  0
  -27.6360  -32.0600   25.8820 C   0  0  0  0  0  1  0  0  0  0  0  0
  1 50  1  0
  1  2  1  0
  2  3  1  0
  2  4  1  0
  2  6  1  0
  6  5  1  0
  7 10  1  0
  8  7  2  0
  9 10  2  0
 10  6  1  0
 11  8  1  0
 11  9  1  0
 12  1  1  0
 12 13  1  0
 14 13  1  0
 15 20  1  0
 16 17  1  0
 16 15  1  0
 18 17  1  0
 18 25  1  0
 18 19  1  0
 20 14  1  0
 20 19  1  0
 21 14  2  0
 22 23  2  0
 23 42  1  0
 24 23  1  0
 24 27  1  0
 25 26  1  0
 25 22  1  0
 26 24  2  0
 27 28  1  0
 28 29  2  0
 30 33  1  0
 30 29  1  0
 31 30  2  0
 32 31  1  0
 32 27  2  0
 33 34  1  0
 34 35  1  0
 35 36  2  0
 37 36  1  0
 37 41  1  0
 38 37  2  0
 39 34  2  0
 39 38  1  0
 40 39  1  0
 42 43  1  0
 43 46  1  0
 43 45  1  0
 44 42  2  0
 47 48  1  0
 47 22  1  0
 49 47  1  0
 50 51  1  0
 52 54  1  0
 52 51  1  0
 53 64  2  0
 54 59  1  0
 55 63  1  0
 55 65  1  0
 56 62  1  0
 56 58  1  0
 57 63  1  0
 58 57  1  0
 59 58  2  0
 60 61  1  0
 60 54  2  0
 61 56  2  0
 62 55  1  0
 63 53  1  0
 65 67  2  0
 66 65  1  0
 68 66  1  0
 69 78  2  0
 69 74  1  0
 70 66  1  0
 70 74  1  0
 71 70  1  0
 72 73  1  0
 72 71  1  0
 73 69  1  0
 74 75  2  0
 75 76  1  0
 77 76  2  0
 78 77  1  0
 79 53  1  0
 79 80  1  0
 79 89  1  0
 80 83  1  0
 81 85  1  0
 81 80  1  0
 82 81  2  0
 85 84  1  0
 87 85  1  0
 87 88  1  0
 87 86  1  0
 89 92  1  1
 89 90  1  0
 91 89  1  0
M  ISO  4  13 100  14 100  51 101  52 101
M  END
>  <TORSDO>  (33) 
F 23

>  <SCORE>  (33) 
-14.666

>  <name>  (33) 
33

>  <ligand_id>  (33) 
33

>  <original_smiles>  (33) 
[H]c1sc([H])c(C([H])(C([H])([H])[H])[N+]([H])([H])C([H])(C([H])([H])C([H])([H])Oc2c([H])c([H])c3c(c2[H])C([H])([H])N(C(=O)C([H])(N([H])C(=O)C([H])(N([H])C([H])([H])[H])C([H])([H])[H])C(C([H])([H])[H])(C([H])([H])[H])C([H])([H])[H])C([H])(C(=O)N([H])C2([H])c4c([H])c([H])c([H])c([H])c4C([H])([H])C([H])([H])C2([H])[H])C3([H])[H])C([H])([H])C([H])([H])C(=O)N2C([H])([H])C([H])([H])C([H])([H])C([H])(n3nc(-c4c([H])c([H])c(Oc5c([H])c([H])c(F)c([H])c5F)c([H])c4[H])c(C(=O)N([H])[H])c3N([H])[H])C2([H])[H])c1[H]

>  <smiles>  (33) 
[H]c1sc([H])c(C([H])(C([H])([H])[H])[N+]([H])([H])C([H])(C([H])([H])C([H])([H])Oc2c([H])c([H])c3c(c2[H])C([H])([H])N(C(=O)C([H])(N([H])C(=O)C([H])(N([H])C([H])([H])[H])C([H])([H])[H])C(C([H])([H])[H])(C([H])([H])[H])C([H])([H])[H])C([H])(C(=O)N([H])C2([H])c4c([H])c([H])c([H])c([H])c4C([H])([H])C([H])([H])C2([H])[H])C3([H])[H])C([H])([H])C([H])([H])C(=O)N2C([H])([H])C([H])([H])C([H])([H])C([H])(n3nc(-c4c([H])c([H])c(Oc5c([H])c([H])c(F)c([H])c5F)c([H])c4[H])c(C(=O)N([H])[H])c3N([H])[H])C2([H])[H])c1[H]

$$$$
34:0:0
     RDKit          3D

 93101  0  0  1  0  0  0  0  0999 V2000
  -29.2140  -21.2320   20.6160 N   0  0  0  0  0  4  0  0  0  0  0  0
  -29.6740  -21.4220   21.4920 H   0  0  0  0  0  0  0  0  0  0  0  0
  -28.2900  -20.9010   20.8480 H   0  0  0  0  0  0  0  0  0  0  0  0
  -29.5460  -18.5980   20.5420 C   0  0  0  0  0  0  0  0  0  0  0  0
  -32.7430  -18.5010   21.3070 C   0  0  0  0  0  2  0  0  0  0  0  0
  -32.2590  -19.9590   21.2190 C   0  0  0  0  0  2  0  0  0  0  0  0
  -31.6410  -17.4570   21.5530 C   0  0  0  0  0  2  0  0  0  0  0  0
  -31.4810  -20.2740   19.9240 C   0  0  0  0  0  2  0  0  0  0  0  0
  -30.5650  -17.3490   20.4380 C   0  0  0  0  0  3  0  0  0  0  0  0
  -29.9450  -20.0530   19.9580 C   0  0  0  0  0  3  0  0  0  0  0  0
  -28.4530  -18.4360   21.0890 O   0  0  0  0  0  0  0  0  0  0  0  0
  -30.6400  -14.7930   20.0000 C   0  0  0  0  0  0  0  0  0  0  0  0
  -30.3300  -12.5640   18.9360 C   0  0  0  0  0  2  0  0  0  0  0  0
  -29.3260  -12.6730   17.7700 C   0  0  0  0  0  2  0  0  0  0  0  0
  -27.8870  -12.4790   18.2850 C   0  0  0  0  0  2  0  0  0  0  0  0
  -27.5800  -13.3400   19.5390 C   0  0  0  0  0  3  0  0  0  0  0  0
  -28.7060  -13.2450   20.5950 C   0  0  0  0  0  2  0  0  0  0  0  0
  -29.9680  -13.5970   19.9350 N   0  0  0  0  0  0  0  0  0  0  0  0
  -31.7730  -14.8870   19.5280 O   0  0  0  0  0  0  0  0  0  0  0  0
  -29.9950  -15.9320   20.4420 N   0  0  0  0  0  0  0  0  0  0  0  0
  -29.0450  -15.8310   20.7700 H   0  0  0  0  0  0  0  0  0  0  0  0
  -25.2360  -13.8840   20.4310 C   0  0  0  0  0  0  0  0  0  0  0  0
  -24.2000  -13.0880   20.8390 C   0  0  0  0  0  0  0  0  0  0  0  0
  -24.6700  -11.7420   20.7340 C   0  0  0  0  0  0  0  0  0  0  0  0
  -26.2720  -13.0230   20.1030 N   0  0  0  0  0  0  0  0  0  0  0  0
  -25.9410  -11.7280   20.3470 N   0  0  0  0  0  0  0  0  0  0  0  0
  -23.9660  -10.4680   20.9280 C   0  0  0  0  0  0  0  0  0  0  0  0
  -24.4080   -9.5120   21.8690 C   0  0  0  0  0  3  0  0  0  0  0  0
  -23.6980   -8.3040   22.0490 C   0  0  0  0  0  3  0  0  0  0  0  0
  -22.5350   -8.0430   21.2890 C   0  0  0  0  0  0  0  0  0  0  0  0
  -22.1120   -8.9880   20.3370 C   0  0  0  0  0  3  0  0  0  0  0  0
  -22.8220  -10.1870   20.1540 C   0  0  0  0  0  3  0  0  0  0  0  0
  -21.7990   -6.8850   21.3760 O   0  0  0  0  0  0  0  0  0  0  0  0
  -21.6960   -6.1860   22.5520 C   0  0  0  0  0  0  0  0  0  0  0  0
  -21.1600   -6.7700   23.7210 C   0  0  0  0  0  3  0  0  0  0  0  0
  -21.0060   -5.9950   24.8880 C   0  0  0  0  0  3  0  0  0  0  0  0
  -21.3800   -4.6380   24.8860 C   0  0  0  0  0  0  0  0  0  0  0  0
  -21.9100   -4.0530   23.7240 C   0  0  0  0  0  3  0  0  0  0  0  0
  -22.0640   -4.8260   22.5590 C   0  0  0  0  0  0  0  0  0  0  0  0
  -22.5550   -4.2530   21.4340 F   0  0  0  0  0  0  0  0  0  0  0  0
  -21.2250   -3.8910   26.0060 F   0  0  0  0  0  0  0  0  0  0  0  0
  -22.8190  -13.5440   21.2100 C   0  0  0  0  0  0  0  0  0  0  0  0
  -22.1460  -12.8100   22.0900 N   0  0  0  0  0  0  0  0  0  0  0  0
  -22.3470  -14.5870   20.7590 O   0  0  0  0  0  0  0  0  0  0  0  0
  -22.5400  -11.9660   22.4790 H   0  0  0  0  0  0  0  0  0  0  0  0
  -21.2230  -13.0990   22.3830 H   0  0  0  0  0  0  0  0  0  0  0  0
  -25.3780  -15.2600   20.2890 N   0  0  0  0  0  0  0  0  0  0  0  0
  -24.6110  -15.9000   20.4640 H   0  0  0  0  0  0  0  0  0  0  0  0
  -26.1980  -15.7220   19.9160 H   0  0  0  0  0  0  0  0  0  0  0  0
  -29.0720  -22.5430   19.8270 C   0  0  0  0  0  2  0  0  0  0  0  0
  -28.6090  -23.9030   20.5680 C   0  0  0  0  0  3  0  0  0  0  0  0
  -28.4030  -25.2180   19.6600 C   0  0  0  0  0  3  0  0  0  0  0  0
  -28.2710  -26.5810   20.2510 O   0  0  0  0  0  0  0  0  0  0  0  0
  -24.5590  -31.9630   23.2790 C   0  0  0  0  0  0  0  0  0  0  0  0
  -27.1170  -27.3870   20.1850 C   0  0  0  0  0  0  0  0  0  0  0  0
  -23.3210  -30.5620   21.6650 C   0  0  0  0  0  3  0  0  0  0  0  0
  -24.7420  -29.0030   20.2140 C   0  0  0  0  0  0  0  0  0  0  0  0
  -25.8550  -30.8790   21.4270 C   0  0  0  0  0  2  0  0  0  0  0  0
  -25.9210  -29.4970   20.7820 C   0  0  0  0  0  0  0  0  0  0  0  0
  -27.1050  -28.7010   20.7570 C   0  0  0  0  0  3  0  0  0  0  0  0
  -25.9060  -26.9430   19.6010 C   0  0  0  0  0  3  0  0  0  0  0  0
  -24.7370  -27.7330   19.6160 C   0  0  0  0  0  3  0  0  0  0  0  0
  -23.5060  -29.8800   20.2820 C   0  0  0  0  0  2  0  0  0  0  0  0
  -24.5990  -31.1530   22.1810 N   0  0  0  0  0  0  0  0  0  0  0  0
  -23.4870  -32.2430   23.8360 O   0  0  0  0  0  0  0  0  0  0  0  0
  -22.6760  -29.5510   22.6420 C   0  0  0  0  0  0  0  0  0  0  0  0
  -21.3560  -29.3340   22.5050 N   0  0  0  0  0  0  0  0  0  0  0  0
  -23.3610  -28.9620   23.4820 O   0  0  0  0  0  0  0  0  0  0  0  0
  -20.8590  -29.8630   21.8030 H   0  0  0  0  0  0  0  0  0  0  0  0
  -18.0180  -28.0150   22.9590 C   0  0  0  0  0  0  0  0  0  0  0  0
  -20.5550  -28.3910   23.2870 C   0  0  0  0  0  3  0  0  0  0  0  0
  -20.7310  -26.9450   22.7680 C   0  0  0  0  0  2  0  0  0  0  0  0
  -19.6730  -26.5410   21.7360 C   0  0  0  0  0  2  0  0  0  0  0  0
  -18.2690  -26.6510   22.3380 C   0  0  0  0  0  2  0  0  0  0  0  0
  -19.0920  -28.8380   23.3920 C   0  0  0  0  0  0  0  0  0  0  0  0
  -18.8050  -30.1100   23.9330 C   0  0  0  0  0  3  0  0  0  0  0  0
  -17.4770  -30.5610   24.0450 C   0  0  0  0  0  3  0  0  0  0  0  0
  -16.4170  -29.7360   23.6280 C   0  0  0  0  0  3  0  0  0  0  0  0
  -16.6880  -28.4650   23.0920 C   0  0  0  0  0  3  0  0  0  0  0  0
  -25.8550  -32.5950   23.8750 C   0  0  0  0  0  3  0  0  0  0  0  0
  -26.3980  -31.8220   25.1390 C   0  0  1  0  0  0  0  0  0  0  0  0
  -25.3270  -31.5740   26.2260 C   0  0  0  0  0  1  0  0  0  0  0  0
  -26.9830  -30.4510   24.7310 C   0  0  0  0  0  1  0  0  0  0  0  0
  -27.5560  -32.6210   25.7840 C   0  0  0  0  0  1  0  0  0  0  0  0
  -25.5530  -33.9930   24.2160 N   0  0  0  0  0  0  0  0  0  0  0  0
  -25.8800  -35.0480   23.4590 C   0  0  0  0  0  0  0  0  0  0  0  0
  -26.5350  -34.9490   22.4200 O   0  0  0  0  0  0  0  0  0  0  0  0
  -24.9710  -34.1450   25.0270 H   0  0  0  0  0  0  0  0  0  0  0  0
  -24.1640  -36.8580   23.1260 C   0  0  0  0  0  1  0  0  0  0  0  0
  -25.4030  -36.4370   23.9310 C   0  0  0  0  0  3  0  0  0  0  0  0
  -27.5440  -37.3020   24.7690 C   0  0  0  0  0  1  0  0  0  0  0  0
  -26.4440  -37.4830   23.8250 N   0  0  0  0  0  0  0  0  0  0  0  0
  -26.0450  -38.4060   23.9770 H   0  0  0  0  0  0  0  0  0  0  0  0
  1  3  1  0
  1  2  1  0
  4 11  2  0
  5  7  1  0
  6  5  1  0
  8 10  1  0
  8  6  1  0
  9 20  1  0
  9  4  1  0
  9  7  1  0
 10  4  1  0
 10  1  1  0
 12 20  1  0
 13 18  1  0
 14 15  1  0
 14 13  1  0
 16 15  1  0
 16 25  1  0
 16 17  1  0
 18 12  1  0
 18 17  1  0
 19 12  2  0
 20 21  1  0
 22 23  2  0
 23 42  1  0
 24 23  1  0
 24 27  1  0
 25 26  1  0
 25 22  1  0
 26 24  2  0
 27 28  1  0
 28 29  2  0
 30 33  1  0
 30 29  1  0
 31 30  2  0
 32 31  1  0
 32 27  2  0
 33 34  1  0
 34 39  2  0
 34 35  1  0
 35 36  2  0
 37 36  1  0
 37 41  1  0
 38 37  2  0
 39 38  1  0
 40 39  1  0
 42 43  1  0
 43 46  1  0
 43 45  1  0
 44 42  2  0
 47 22  1  0
 47 48  1  0
 49 47  1  0
 50 51  1  0
 50  1  1  0
 52 53  1  0
 52 51  2  0
 54 65  2  0
 55 53  1  0
 55 60  1  0
 56 64  1  0
 56 66  1  0
 57 63  1  0
 57 59  1  0
 58 64  1  0
 59 58  1  0
 60 59  2  0
 61 62  1  0
 61 55  2  0
 62 57  2  0
 63 56  1  0
 64 54  1  0
 66 68  2  0
 67 66  1  0
 69 67  1  0
 70 79  2  0
 70 75  1  0
 71 67  1  0
 71 75  1  0
 72 71  1  0
 73 74  1  0
 73 72  1  0
 74 70  1  0
 75 76  2  0
 76 77  1  0
 78 77  2  0
 79 78  1  0
 80 54  1  0
 80 85  1  0
 80 81  1  0
 81 84  1  1
 81 82  1  0
 83 81  1  0
 85 88  1  0
 86 90  1  0
 86 85  1  0
 87 86  2  0
 90 89  1  0
 92 90  1  0
 92 93  1  0
 92 91  1  0
M  ISO  4  12 100  20 100  52 101  53 101
M  END
>  <TORSDO>  (34) 
F 20

>  <SCORE>  (34) 
-13.263

>  <name>  (34) 
34

>  <ligand_id>  (34) 
34

>  <original_smiles>  (34) 
[H]c1c([H])c([H])c2c(c1[H])C([H])([H])C([H])([H])C([H])([H])C2([H])N([H])C(=O)C1([H])N(C(=O)C([H])(N([H])C(=O)C([H])(N([H])C([H])([H])[H])C([H])([H])[H])C(C([H])([H])[H])(C([H])([H])[H])C([H])([H])[H])C([H])([H])c2c([H])c(OC([H])([H])C([H])([H])C([H])([H])[N+]([H])([H])C3([H])C(=O)C([H])(N([H])C(=O)N4C([H])([H])C([H])([H])C([H])([H])C([H])(n5nc(-c6c([H])c([H])c(Oc7c([H])c([H])c(F)c([H])c7F)c([H])c6[H])c(C(=O)N([H])[H])c5N([H])[H])C4([H])[H])C([H])([H])C([H])([H])C([H])([H])C3([H])[H])c([H])c([H])c2C1([H])[H]

>  <smiles>  (34) 
[H]c1c([H])c([H])c2c(c1[H])C([H])([H])C([H])([H])C([H])([H])C2([H])N([H])C(=O)C1([H])N(C(=O)C([H])(N([H])C(=O)C([H])(N([H])C([H])([H])[H])C([H])([H])[H])C(C([H])([H])[H])(C([H])([H])[H])C([H])([H])[H])C([H])([H])c2c([H])c(OC([H])([H])C([H])([H])C([H])([H])[N+]([H])([H])C3([H])C(=O)C([H])(N([H])C(=O)N4C([H])([H])C([H])([H])C([H])([H])C([H])(n5nc(-c6c([H])c([H])c(Oc7c([H])c([H])c(F)c([H])c7F)c([H])c6[H])c(C(=O)N([H])[H])c5N([H])[H])C4([H])[H])C([H])([H])C([H])([H])C([H])([H])C3([H])[H])c([H])c([H])c2C1([H])[H]

$$$$
35:0:0
     RDKit          3D

101108  0  0  1  0  0  0  0  0999 V2000
  -29.5910  -19.6850   20.2480 N   0  0  0  0  0  4  0  0  0  0  0  0
  -29.6740  -19.7650   19.2450 H   0  0  0  0  0  0  0  0  0  0  0  0
  -30.5240  -19.7470   20.6190 H   0  0  0  0  0  0  0  0  0  0  0  0
  -28.8060  -20.9010   20.7840 C   0  0  0  0  0  3  0  0  0  0  0  0
  -29.1140  -22.3610   20.1380 C   0  0  0  0  0  3  0  0  0  0  0  0
  -28.6680  -23.7610   20.8450 C   0  0  0  0  0  3  0  0  0  0  0  0
  -27.3250  -23.7200   21.4490 N   0  0  0  0  0  4  0  0  0  0  0  0
  -26.5970  -23.5060   20.7900 H   0  0  0  0  0  0  0  0  0  0  0  0
  -27.1310  -24.6330   21.8260 H   0  0  0  0  0  0  0  0  0  0  0  0
  -27.2890  -23.0780   22.2210 H   0  0  0  0  0  0  0  0  0  0  0  0
  -28.7950  -25.1230   20.0000 C   0  0  0  0  0  2  0  0  0  0  0  0
  -28.5440  -26.4310   20.6600 O   0  0  0  0  0  0  0  0  0  0  0  0
  -24.6950  -31.8700   23.3710 C   0  0  0  0  0  0  0  0  0  0  0  0
  -27.3930  -27.2310   20.5060 C   0  0  0  0  0  0  0  0  0  0  0  0
  -23.5220  -30.4280   21.7350 C   0  0  0  0  0  3  0  0  0  0  0  0
  -25.0110  -28.8270   20.3810 C   0  0  0  0  0  0  0  0  0  0  0  0
  -26.0580  -30.7360   21.6050 C   0  0  0  0  0  2  0  0  0  0  0  0
  -26.1550  -29.3390   21.0090 C   0  0  0  0  0  0  0  0  0  0  0  0
  -27.3380  -28.5430   21.0770 C   0  0  0  0  0  3  0  0  0  0  0  0
  -26.2430  -26.7830   19.8230 C   0  0  0  0  0  3  0  0  0  0  0  0
  -25.0620  -27.5600   19.7670 C   0  0  0  0  0  3  0  0  0  0  0  0
  -23.7550  -29.6880   20.3880 C   0  0  0  0  0  2  0  0  0  0  0  0
  -24.7760  -31.0250   22.2930 N   0  0  0  0  0  0  0  0  0  0  0  0
  -23.6010  -32.1670   23.8690 O   0  0  0  0  0  0  0  0  0  0  0  0
  -22.8290  -29.4530   22.7100 C   0  0  0  0  0  0  0  0  0  0  0  0
  -21.5100  -29.2720   22.5360 N   0  0  0  0  0  0  0  0  0  0  0  0
  -23.4740  -28.8550   23.5750 O   0  0  0  0  0  0  0  0  0  0  0  0
  -21.0480  -29.7880   21.8000 H   0  0  0  0  0  0  0  0  0  0  0  0
  -18.1210  -28.0920   22.9450 C   0  0  0  0  0  0  0  0  0  0  0  0
  -20.6680  -28.3580   23.3050 C   0  0  0  0  0  3  0  0  0  0  0  0
  -20.7910  -26.9130   22.7740 C   0  0  0  0  0  2  0  0  0  0  0  0
  -19.7260  -26.5620   21.7280 C   0  0  0  0  0  2  0  0  0  0  0  0
  -18.3230  -26.7260   22.3110 C   0  0  0  0  0  2  0  0  0  0  0  0
  -19.2240  -28.8670   23.3960 C   0  0  0  0  0  0  0  0  0  0  0  0
  -18.9830  -30.1510   23.9320 C   0  0  0  0  0  3  0  0  0  0  0  0
  -17.6740  -30.6610   24.0280 C   0  0  0  0  0  3  0  0  0  0  0  0
  -16.5870  -29.8820   23.5980 C   0  0  0  0  0  3  0  0  0  0  0  0
  -16.8100  -28.6010   23.0590 C   0  0  0  0  0  3  0  0  0  0  0  0
  -25.9660  -32.5110   24.0130 C   0  0  0  0  0  3  0  0  0  0  0  0
  -25.6570  -33.9210   24.2920 N   0  0  0  0  0  0  0  0  0  0  0  0
  -26.0050  -34.9500   23.5110 C   0  0  0  0  0  0  0  0  0  0  0  0
  -26.6870  -34.8120   22.4910 O   0  0  0  0  0  0  0  0  0  0  0  0
  -25.0590  -34.0950   25.0850 H   0  0  0  0  0  0  0  0  0  0  0  0
  -24.2880  -36.7350   23.0870 C   0  0  0  0  0  1  0  0  0  0  0  0
  -25.5200  -36.3540   23.9230 C   0  0  0  0  0  3  0  0  0  0  0  0
  -27.6390  -37.2630   24.7550 C   0  0  0  0  0  1  0  0  0  0  0  0
  -26.5540  -37.3970   23.7900 N   0  0  0  0  0  0  0  0  0  0  0  0
  -26.1520  -38.3240   23.8940 H   0  0  0  0  0  0  0  0  0  0  0  0
  -26.4330  -31.7750   25.3280 C   0  0  1  0  0  0  0  0  0  0  0  0
  -25.2960  -31.5760   26.3570 C   0  0  0  0  0  1  0  0  0  0  0  0
  -27.0240  -30.3860   24.9900 C   0  0  0  0  0  1  0  0  0  0  0  0
  -27.5570  -32.5860   26.0090 C   0  0  0  0  0  1  0  0  0  0  0  0
  -29.1040  -18.2570   20.5550 C   0  0  0  0  0  3  0  0  0  0  0  0
  -31.7340  -17.7120   21.0370 C   0  0  0  0  0  1  0  0  0  0  0  0
  -30.2620  -17.1230   20.8440 C   0  0  0  0  0  0  0  0  0  0  0  0
  -30.9220  -14.5910   20.2780 C   0  0  0  0  0  0  0  0  0  0  0  0
  -30.7590  -12.2950   19.2910 C   0  0  0  0  0  2  0  0  0  0  0  0
  -29.7820  -12.3280   18.0990 C   0  0  0  0  0  2  0  0  0  0  0  0
  -28.3260  -12.1500   18.5760 C   0  0  0  0  0  2  0  0  0  0  0  0
  -27.9730  -13.0190   19.8120 C   0  0  0  0  0  3  0  0  0  0  0  0
  -29.0710  -12.9650   20.8890 C   0  0  0  0  0  2  0  0  0  0  0  0
  -30.3200  -13.3550   20.2200 N   0  0  0  0  0  0  0  0  0  0  0  0
  -32.1370  -14.7000   20.1260 O   0  0  0  0  0  0  0  0  0  0  0  0
  -30.1000  -15.7040   20.2360 N   0  0  0  0  0  4  0  0  0  0  0  0
  -29.1960  -15.4740   19.7920 H   0  0  0  0  0  0  0  0  0  0  0  0
  -25.6350  -13.5940   20.6650 C   0  0  0  0  0  0  0  0  0  0  0  0
  -24.5640  -12.8320   21.0470 C   0  0  0  0  0  0  0  0  0  0  0  0
  -24.9930  -11.4850   20.9110 C   0  0  0  0  0  0  0  0  0  0  0  0
  -26.6530  -12.7160   20.3500 N   0  0  0  0  0  0  0  0  0  0  0  0
  -26.2730  -11.4330   20.5470 N   0  0  0  0  0  0  0  0  0  0  0  0
  -24.2430  -10.2370   21.0480 C   0  0  0  0  0  0  0  0  0  0  0  0
  -24.6710   -9.2200   21.9290 C   0  0  0  0  0  3  0  0  0  0  0  0
  -23.9270   -8.0330   22.0550 C   0  0  0  0  0  3  0  0  0  0  0  0
  -22.7440   -7.8560   21.2950 C   0  0  0  0  0  0  0  0  0  0  0  0
  -22.3340   -8.8670   20.4090 C   0  0  0  0  0  3  0  0  0  0  0  0
  -23.0780  -10.0470   20.2800 C   0  0  0  0  0  3  0  0  0  0  0  0
  -21.9750   -6.7220   21.3330 O   0  0  0  0  0  0  0  0  0  0  0  0
  -21.8390   -5.9720   22.4790 C   0  0  0  0  0  0  0  0  0  0  0  0
  -21.2830   -6.5140   23.6570 C   0  0  0  0  0  3  0  0  0  0  0  0
  -21.1020   -5.6920   24.7910 C   0  0  0  0  0  3  0  0  0  0  0  0
  -21.4740   -4.3380   24.7410 C   0  0  0  0  0  0  0  0  0  0  0  0
  -22.0260   -3.7970   23.5690 C   0  0  0  0  0  3  0  0  0  0  0  0
  -22.2100   -4.6150   22.4370 C   0  0  0  0  0  0  0  0  0  0  0  0
  -22.7210   -4.0830   21.3020 F   0  0  0  0  0  0  0  0  0  0  0  0
  -21.2950   -3.5500   25.8270 F   0  0  0  0  0  0  0  0  0  0  0  0
  -23.1990  -13.3540   21.4100 C   0  0  0  0  0  0  0  0  0  0  0  0
  -22.4990  -12.6620   22.3050 N   0  0  0  0  0  0  0  0  0  0  0  0
  -22.7770  -14.4120   20.9600 O   0  0  0  0  0  0  0  0  0  0  0  0
  -22.8430  -11.8010   22.6960 H   0  0  0  0  0  0  0  0  0  0  0  0
  -21.5880  -12.9980   22.5820 H   0  0  0  0  0  0  0  0  0  0  0  0
  -25.8130  -14.9480   20.5180 N   0  0  0  0  0  0  0  0  0  0  0  0
  -24.9950  -15.4220   20.1610 H   0  0  0  0  0  0  0  0  0  0  0  0
  -26.6290  -15.2390   20.0000 H   0  0  0  0  0  0  0  0  0  0  0  0
  -27.9090  -17.8350   19.6180 C   0  0  0  0  0  2  0  0  0  0  0  0
  -26.4880  -17.8200   20.2640 C   0  0  0  0  0  2  0  0  0  0  0  0
  -25.3570  -18.1300   19.2440 C   0  0  0  0  0  2  0  0  0  0  0  0
  -23.8930  -17.9220   19.7240 C   0  0  0  0  0  2  0  0  0  0  0  0
  -23.4650  -16.5360   20.0260 N   0  0  0  0  0  4  0  0  0  0  0  0
  -23.8900  -16.1760   20.8590 H   0  0  0  0  0  0  0  0  0  0  0  0
  -23.6100  -15.8910   19.2610 H   0  0  0  0  0  0  0  0  0  0  0  0
  -22.4690  -16.5610   20.1920 H   0  0  0  0  0  0  0  0  0  0  0  0
  1 53  1  0
  1  3  1  0
  1  4  1  0
  2  1  1  0
  5  4  2  0
  5  6  1  0
  6 11  1  0
  6  7  1  0
  7  9  1  0
  7 10  1  0
  8  7  1  0
 11 12  1  0
 13 24  2  0
 14 12  1  0
 14 19  1  0
 15 23  1  0
 15 25  1  0
 16 22  1  0
 16 18  1  0
 17 23  1  0
 18 19  2  0
 18 17  1  0
 20 14  2  0
 21 20  1  0
 21 16  2  0
 22 15  1  0
 23 13  1  0
 25 27  2  0
 26 25  1  0
 28 26  1  0
 29 38  2  0
 29 34  1  0
 30 26  1  0
 30 34  1  0
 31 30  1  0
 32 33  1  0
 32 31  1  0
 33 29  1  0
 34 35  2  0
 35 36  1  0
 37 36  2  0
 38 37  1  0
 39 13  1  0
 39 40  1  0
 39 49  1  0
 40 43  1  0
 41 45  1  0
 41 40  1  0
 42 41  2  0
 45 44  1  0
 47 48  1  0
 47 45  1  0
 47 46  1  0
 49 52  1  1
 49 50  1  0
 51 49  1  0
 53 94  1  0
 53 55  1  0
 55 54  1  0
 57 62  1  0
 58 59  1  0
 58 57  1  0
 60 59  1  0
 60 69  1  0
 60 61  1  0
 62 56  1  0
 62 61  1  0
 63 56  2  0
 64 56  1  0
 64 55  2  0
 65 64  1  0
 66 67  2  0
 67 86  1  0
 68 67  1  0
 68 71  1  0
 69 70  1  0
 69 66  1  0
 70 68  2  0
 71 72  1  0
 72 73  2  0
 74 77  1  0
 74 73  1  0
 75 74  2  0
 76 75  1  0
 76 71  2  0
 77 78  1  0
 78 79  1  0
 79 80  2  0
 81 80  1  0
 81 85  1  0
 82 81  2  0
 83 78  2  0
 83 82  1  0
 84 83  1  0
 86 87  1  0
 87 90  1  0
 87 89  1  0
 88 86  2  0
 91 66  1  0
 92 91  1  0
 93 91  1  0
 94 95  1  0
 96 97  1  0
 96 95  1  0
 97 98  1  0
 98101  1  0
 98 99  1  0
100 98  1  0
M  ISO  4  11 101  12 101  56 100  64 100
M  END
>  <TORSDO>  (35) 
F 28

>  <SCORE>  (35) 
-9.270

>  <name>  (35) 
35

>  <ligand_id>  (35) 
35

>  <original_smiles>  (35) 
[H]c1c([H])c([H])c2c(c1[H])C([H])([H])C([H])([H])C([H])([H])C2([H])N([H])C(=O)C1([H])N(C(=O)C([H])(N([H])C(=O)C([H])(N([H])C([H])([H])[H])C([H])([H])[H])C(C([H])([H])[H])(C([H])([H])[H])C([H])([H])[H])C([H])([H])c2c([H])c(OC([H])([H])C([H])(C([H])([H])C([H])([H])[N+]([H])([H])C([H])(C([H])([H])C([H])([H])C([H])([H])C([H])([H])[N+]([H])([H])[H])C([H])(N([H])C(=O)N3C([H])([H])C([H])([H])C([H])([H])C([H])(n4nc(-c5c([H])c([H])c(Oc6c([H])c([H])c(F)c([H])c6F)c([H])c5[H])c(C(=O)N([H])[H])c4N([H])[H])C3([H])[H])C([H])([H])[H])[N+]([H])([H])[H])c([H])c([H])c2C1([H])[H]

>  <smiles>  (35) 
[H]c1c([H])c([H])c2c(c1[H])C([H])([H])C([H])([H])C([H])([H])C2([H])N([H])C(=O)C1([H])N(C(=O)C([H])(N([H])C(=O)C([H])(N([H])C([H])([H])[H])C([H])([H])[H])C(C([H])([H])[H])(C([H])([H])[H])C([H])([H])[H])C([H])([H])c2c([H])c(OC([H])([H])C([H])(C([H])([H])C([H])([H])[N+]([H])([H])C([H])(C([H])([H])C([H])([H])C([H])([H])C([H])([H])[N+]([H])([H])[H])C([H])(N([H])C(=O)N3C([H])([H])C([H])([H])C([H])([H])C([H])(n4nc(-c5c([H])c([H])c(Oc6c([H])c([H])c(F)c([H])c6F)c([H])c5[H])c(C(=O)N([H])[H])c4N([H])[H])C3([H])[H])C([H])([H])[H])[N+]([H])([H])[H])c([H])c([H])c2C1([H])[H]

$$$$
36:0:0
     RDKit          3D

 91 99  0  0  1  0  0  0  0  0999 V2000
  -28.8060  -22.3330   20.0930 N   0  0  0  0  0  4  0  0  0  0  0  0
  -27.8190  -22.1460   20.0140 H   0  0  0  0  0  0  0  0  0  0  0  0
  -29.1800  -22.2910   19.1590 H   0  0  0  0  0  0  0  0  0  0  0  0
  -29.3980  -21.1580   20.8760 C   0  0  0  0  0  2  0  0  0  0  0  0
  -30.6170  -18.6380   18.1760 C   0  0  0  0  0  3  0  0  0  0  0  0
  -30.2290  -19.8150   18.8440 C   0  0  0  0  0  3  0  0  0  0  0  0
  -30.5050  -17.3740   18.7870 C   0  0  0  0  0  3  0  0  0  0  0  0
  -29.5680  -18.4530   20.7540 C   0  0  0  0  0  3  0  0  0  0  0  0
  -29.6920  -19.7730   20.1490 C   0  0  0  0  0  0  0  0  0  0  0  0
  -29.9920  -17.2250   20.0970 C   0  0  0  0  0  0  0  0  0  0  0  0
  -30.5920  -14.7170   20.3550 C   0  0  0  0  0  0  0  0  0  0  0  0
  -30.3570  -12.4470   19.3620 C   0  0  0  0  0  2  0  0  0  0  0  0
  -29.4210  -12.5500   18.1380 C   0  0  0  0  0  2  0  0  0  0  0  0
  -27.9490  -12.3960   18.5690 C   0  0  0  0  0  2  0  0  0  0  0  0
  -27.5890  -13.2780   19.7950 C   0  0  0  0  0  3  0  0  0  0  0  0
  -28.6500  -13.1710   20.9130 C   0  0  0  0  0  2  0  0  0  0  0  0
  -29.9530  -13.4990   20.3230 N   0  0  0  0  0  0  0  0  0  0  0  0
  -31.7660  -14.8030   19.9820 O   0  0  0  0  0  0  0  0  0  0  0  0
  -29.8580  -15.8560   20.6520 N   0  0  0  0  0  0  0  0  0  0  0  0
  -29.0050  -15.6830   21.1630 H   0  0  0  0  0  0  0  0  0  0  0  0
  -25.2050  -13.8800   20.5260 C   0  0  0  0  0  0  0  0  0  0  0  0
  -24.1370  -13.1120   20.9020 C   0  0  0  0  0  0  0  0  0  0  0  0
  -24.5940  -11.7590   20.8720 C   0  0  0  0  0  0  0  0  0  0  0  0
  -26.2450  -12.9960   20.2890 N   0  0  0  0  0  0  0  0  0  0  0  0
  -25.8840  -11.7150   20.5590 N   0  0  0  0  0  0  0  0  0  0  0  0
  -23.8630  -10.5000   21.0680 C   0  0  0  0  0  0  0  0  0  0  0  0
  -24.3070   -9.5210   21.9840 C   0  0  0  0  0  3  0  0  0  0  0  0
  -23.5750   -8.3280   22.1670 C   0  0  0  0  0  3  0  0  0  0  0  0
  -22.3850   -8.1050   21.4360 C   0  0  0  0  0  0  0  0  0  0  0  0
  -21.9600   -9.0720   20.5080 C   0  0  0  0  0  3  0  0  0  0  0  0
  -22.6920  -10.2570   20.3230 C   0  0  0  0  0  3  0  0  0  0  0  0
  -21.6230   -6.9650   21.5290 O   0  0  0  0  0  0  0  0  0  0  0  0
  -21.6070   -6.2020   22.6700 C   0  0  0  0  0  0  0  0  0  0  0  0
  -21.2440   -6.7420   23.9240 C   0  0  0  0  0  3  0  0  0  0  0  0
  -21.1740   -5.9070   25.0560 C   0  0  0  0  0  3  0  0  0  0  0  0
  -21.4550   -4.5330   24.9370 C   0  0  0  0  0  0  0  0  0  0  0  0
  -21.8110   -3.9920   23.6880 C   0  0  0  0  0  3  0  0  0  0  0  0
  -21.8830   -4.8250   22.5580 C   0  0  0  0  0  0  0  0  0  0  0  0
  -22.2060   -4.2950   21.3530 F   0  0  0  0  0  0  0  0  0  0  0  0
  -21.3810   -3.7290   26.0230 F   0  0  0  0  0  0  0  0  0  0  0  0
  -22.7430  -13.5960   21.1780 C   0  0  0  0  0  0  0  0  0  0  0  0
  -22.0150  -12.9070   22.0500 N   0  0  0  0  0  0  0  0  0  0  0  0
  -22.3070  -14.6210   20.6540 O   0  0  0  0  0  0  0  0  0  0  0  0
  -22.3800  -12.0790   22.4960 H   0  0  0  0  0  0  0  0  0  0  0  0
  -21.0790  -13.2130   22.2740 H   0  0  0  0  0  0  0  0  0  0  0  0
  -25.3740  -15.2510   20.3460 N   0  0  0  0  0  0  0  0  0  0  0  0
  -24.6090  -15.9070   20.4560 H   0  0  0  0  0  0  0  0  0  0  0  0
  -26.2200  -15.6830   19.9990 H   0  0  0  0  0  0  0  0  0  0  0  0
  -29.0010  -23.7770   20.6010 C   0  0  0  0  0  3  0  0  0  0  0  0
  -28.0720  -24.9320   19.9680 C   0  0  0  0  0  3  0  0  0  0  0  0
  -28.2800  -26.3930   20.2570 O   0  0  0  0  0  0  0  0  0  0  0  0
  -24.6130  -31.8780   23.2450 C   0  0  0  0  0  0  0  0  0  0  0  0
  -27.1830  -27.2830   20.1760 C   0  0  0  0  0  0  0  0  0  0  0  0
  -23.3940  -30.4830   21.6140 C   0  0  0  0  0  3  0  0  0  0  0  0
  -24.8310  -28.9310   20.1740 C   0  0  0  0  0  0  0  0  0  0  0  0
  -25.9360  -30.7850   21.4180 C   0  0  0  0  0  2  0  0  0  0  0  0
  -26.0070  -29.4040   20.7710 C   0  0  0  0  0  0  0  0  0  0  0  0
  -27.1840  -28.5910   20.7650 C   0  0  0  0  0  3  0  0  0  0  0  0
  -25.9890  -26.8870   19.5290 C   0  0  0  0  0  3  0  0  0  0  0  0
  -24.8270  -27.6790   19.5420 C   0  0  0  0  0  3  0  0  0  0  0  0
  -23.5980  -29.8100   20.2320 C   0  0  0  0  0  2  0  0  0  0  0  0
  -24.6670  -31.0670   22.1470 N   0  0  0  0  0  0  0  0  0  0  0  0
  -23.5330  -32.1590   23.7850 O   0  0  0  0  0  0  0  0  0  0  0  0
  -22.7350  -29.4680   22.5780 C   0  0  0  0  0  0  0  0  0  0  0  0
  -21.4080  -29.2920   22.4600 N   0  0  0  0  0  0  0  0  0  0  0  0
  -23.4170  -28.8410   23.3930 O   0  0  0  0  0  0  0  0  0  0  0  0
  -20.9160  -29.8500   21.7760 H   0  0  0  0  0  0  0  0  0  0  0  0
  -18.0330  -28.0900   22.9710 C   0  0  0  0  0  0  0  0  0  0  0  0
  -20.5920  -28.3560   23.2350 C   0  0  0  0  0  3  0  0  0  0  0  0
  -20.6950  -26.9220   22.6680 C   0  0  0  0  0  2  0  0  0  0  0  0
  -19.5920  -26.5910   21.6580 C   0  0  0  0  0  2  0  0  0  0  0  0
  -18.2110  -26.7370   22.3020 C   0  0  0  0  0  2  0  0  0  0  0  0
  -19.1510  -28.8580   23.3950 C   0  0  0  0  0  0  0  0  0  0  0  0
  -18.9300  -30.1230   23.9810 C   0  0  0  0  0  3  0  0  0  0  0  0
  -17.6230  -30.6210   24.1470 C   0  0  0  0  0  3  0  0  0  0  0  0
  -16.5210  -29.8520   23.7380 C   0  0  0  0  0  3  0  0  0  0  0  0
  -16.7260  -28.5880   23.1560 C   0  0  0  0  0  3  0  0  0  0  0  0
  -25.9000  -32.5080   23.8590 C   0  0  0  0  0  3  0  0  0  0  0  0
  -26.4260  -31.7330   25.1290 C   0  0  1  0  0  0  0  0  0  0  0  0
  -25.3420  -31.4970   26.2060 C   0  0  0  0  0  1  0  0  0  0  0  0
  -27.0020  -30.3550   24.7310 C   0  0  0  0  0  1  0  0  0  0  0  0
  -27.5850  -32.5230   25.7810 C   0  0  0  0  0  1  0  0  0  0  0  0
  -25.5930  -33.9060   24.1960 N   0  0  0  0  0  0  0  0  0  0  0  0
  -25.9130  -34.9610   23.4360 C   0  0  0  0  0  0  0  0  0  0  0  0
  -26.5680  -34.8610   22.3940 O   0  0  0  0  0  0  0  0  0  0  0  0
  -25.0100  -34.0580   25.0060 H   0  0  0  0  0  0  0  0  0  0  0  0
  -24.1740  -36.7520   23.1200 C   0  0  0  0  0  1  0  0  0  0  0  0
  -25.4320  -36.3480   23.9050 C   0  0  0  0  0  3  0  0  0  0  0  0
  -27.5840  -37.2360   24.6900 C   0  0  0  0  0  1  0  0  0  0  0  0
  -26.4610  -37.4040   23.7720 N   0  0  0  0  0  0  0  0  0  0  0  0
  -26.0560  -38.3220   23.9300 H   0  0  0  0  0  0  0  0  0  0  0  0
  1 49  1  0
  1  4  1  0
  2  1  1  0
  3  1  1  0
  5  7  2  0
  5  6  1  0
  6  9  2  0
  7 10  1  0
  9  8  1  0
  9  4  1  0
 10 19  1  0
 10  8  2  0
 11 19  1  0
 12 17  1  0
 13 14  1  0
 13 12  1  0
 15 14  1  0
 15 24  1  0
 15 16  1  0
 17 11  1  0
 17 16  1  0
 18 11  2  0
 19 20  1  0
 21 22  2  0
 22 41  1  0
 23 22  1  0
 23 26  1  0
 24 21  1  0
 24 25  1  0
 25 23  2  0
 26 27  1  0
 27 28  2  0
 29 32  1  0
 29 28  1  0
 30 29  2  0
 31 30  1  0
 31 26  2  0
 32 33  1  0
 33 34  1  0
 34 35  2  0
 36 35  1  0
 36 40  1  0
 37 36  2  0
 38 33  2  0
 38 37  1  0
 39 38  1  0
 41 42  1  0
 42 45  1  0
 42 44  1  0
 43 41  2  0
 46 47  1  0
 46 21  1  0
 48 46  1  0
 50 51  1  0
 50 49  2  0
 52 63  2  0
 53 51  1  0
 53 58  1  0
 54 62  1  0
 54 64  1  0
 55 61  1  0
 55 57  1  0
 56 62  1  0
 57 56  1  0
 58 57  2  0
 59 60  1  0
 59 53  2  0
 60 55  2  0
 61 54  1  0
 62 52  1  0
 64 66  2  0
 65 64  1  0
 67 65  1  0
 68 77  2  0
 68 73  1  0
 69 65  1  0
 69 73  1  0
 70 69  1  0
 71 72  1  0
 71 70  1  0
 72 68  1  0
 73 74  2  0
 74 75  1  0
 76 75  2  0
 77 76  1  0
 78 52  1  0
 78 83  1  0
 78 79  1  0
 79 82  1  1
 79 80  1  0
 81 79  1  0
 83 86  1  0
 84 88  1  0
 84 83  1  0
 85 84  2  0
 88 87  1  0
 90 88  1  0
 90 91  1  0
 90 89  1  0
M  ISO  4  11 100  19 100  50 101  51 101
M  END
>  <TORSDO>  (36) 
F 20

>  <SCORE>  (36) 
-13.766

>  <name>  (36) 
36

>  <ligand_id>  (36) 
36

>  <original_smiles>  (36) 
[H]c1c([H])c([H])c2c(c1[H])C([H])([H])C([H])([H])C([H])([H])C2([H])N([H])C(=O)C1([H])N(C(=O)C([H])(N([H])C(=O)C([H])(N([H])C([H])([H])[H])C([H])([H])[H])C(C([H])([H])[H])(C([H])([H])[H])C([H])([H])[H])C([H])([H])c2c([H])c(OC([H])([H])C([H])([H])[N+]([H])([H])C([H])([H])c3c([H])c([H])c([H])c(N([H])C(=O)N4C([H])([H])C([H])([H])C([H])([H])C([H])(n5nc(-c6c([H])c([H])c(Oc7c([H])c([H])c(F)c([H])c7F)c([H])c6[H])c(C(=O)N([H])[H])c5N([H])[H])C4([H])[H])c3[H])c([H])c([H])c2C1([H])[H]

>  <smiles>  (36) 
[H]c1c([H])c([H])c2c(c1[H])C([H])([H])C([H])([H])C([H])([H])C2([H])N([H])C(=O)C1([H])N(C(=O)C([H])(N([H])C(=O)C([H])(N([H])C([H])([H])[H])C([H])([H])[H])C(C([H])([H])[H])(C([H])([H])[H])C([H])([H])[H])C([H])([H])c2c([H])c(OC([H])([H])C([H])([H])[N+]([H])([H])C([H])([H])c3c([H])c([H])c([H])c(N([H])C(=O)N4C([H])([H])C([H])([H])C([H])([H])C([H])(n5nc(-c6c([H])c([H])c(Oc7c([H])c([H])c(F)c([H])c7F)c([H])c6[H])c(C(=O)N([H])[H])c5N([H])[H])C4([H])[H])c3[H])c([H])c([H])c2C1([H])[H]

$$$$
37:0:0
     RDKit          3D

 90 98  0  0  1  0  0  0  0  0999 V2000
  -29.1310  -21.3710   19.7710 N   0  0  0  0  0  0  0  0  0  0  0  0
  -25.6450  -20.8610   17.4390 C   0  0  0  0  0  3  0  0  0  0  0  0
  -26.8770  -20.3440   16.9930 C   0  0  0  0  0  3  0  0  0  0  0  0
  -25.5760  -21.5460   18.6680 C   0  0  0  0  0  3  0  0  0  0  0  0
  -28.0410  -20.5150   17.7700 C   0  0  0  0  0  3  0  0  0  0  0  0
  -26.7390  -21.7190   19.4420 C   0  0  0  0  0  3  0  0  0  0  0  0
  -27.9780  -21.2100   18.9950 C   0  0  0  0  0  0  0  0  0  0  0  0
  -29.4290  -19.8940   20.4440 C   0  0  0  0  0  3  0  0  0  0  0  0
  -29.7520  -18.2750   19.7180 C   0  0  0  0  0  3  0  0  0  0  0  0
  -30.5960  -15.4400   20.0450 C   0  0  0  0  0  0  0  0  0  0  0  0
  -30.5480  -13.0040   19.1270 C   0  0  0  0  0  2  0  0  0  0  0  0
  -29.5770  -12.8330   17.9290 C   0  0  0  0  0  2  0  0  0  0  0  0
  -28.1370  -12.5650   18.4060 C   0  0  0  0  0  2  0  0  0  0  0  0
  -27.7440  -13.4770   19.5950 C   0  0  0  0  0  3  0  0  0  0  0  0
  -28.8450  -13.5430   20.6740 C   0  0  0  0  0  2  0  0  0  0  0  0
  -30.0420  -14.1160   20.0220 N   0  0  0  0  0  0  0  0  0  0  0  0
  -31.7600  -15.4610   19.6160 O   0  0  0  0  0  0  0  0  0  0  0  0
  -28.9880  -16.6680   21.4990 C   0  0  0  0  0  1  0  0  0  0  0  0
  -29.8580  -16.7150   20.3280 N   0  0  0  0  0  0  0  0  0  0  0  0
  -25.4020  -14.0170   20.4540 C   0  0  0  0  0  0  0  0  0  0  0  0
  -24.3560  -13.2340   20.8510 C   0  0  0  0  0  0  0  0  0  0  0  0
  -24.8170  -11.8840   20.7620 C   0  0  0  0  0  0  0  0  0  0  0  0
  -26.4340  -13.1490   20.1450 N   0  0  0  0  0  0  0  0  0  0  0  0
  -26.0940  -11.8560   20.3920 N   0  0  0  0  0  0  0  0  0  0  0  0
  -24.0920  -10.6190   20.9500 C   0  0  0  0  0  0  0  0  0  0  0  0
  -24.5430   -9.6350   21.8570 C   0  0  0  0  0  3  0  0  0  0  0  0
  -23.8170   -8.4370   22.0340 C   0  0  0  0  0  3  0  0  0  0  0  0
  -22.6260   -8.2150   21.3030 C   0  0  0  0  0  0  0  0  0  0  0  0
  -22.1930   -9.1860   20.3840 C   0  0  0  0  0  3  0  0  0  0  0  0
  -22.9200  -10.3750   20.2060 C   0  0  0  0  0  3  0  0  0  0  0  0
  -21.8700   -7.0710   21.3920 O   0  0  0  0  0  0  0  0  0  0  0  0
  -21.8240   -6.3250   22.5420 C   0  0  0  0  0  0  0  0  0  0  0  0
  -21.4080   -6.8760   23.7730 C   0  0  0  0  0  3  0  0  0  0  0  0
  -21.3110   -6.0570   24.9160 C   0  0  0  0  0  3  0  0  0  0  0  0
  -21.6180   -4.6870   24.8290 C   0  0  0  0  0  0  0  0  0  0  0  0
  -22.0260   -4.1330   23.6010 C   0  0  0  0  0  3  0  0  0  0  0  0
  -22.1250   -4.9490   22.4610 C   0  0  0  0  0  0  0  0  0  0  0  0
  -22.5000   -4.4070   21.2780 F   0  0  0  0  0  0  0  0  0  0  0  0
  -21.5160   -3.8980   25.9230 F   0  0  0  0  0  0  0  0  0  0  0  0
  -22.9730  -13.7070   21.1940 C   0  0  0  0  0  0  0  0  0  0  0  0
  -22.2840  -12.9990   22.0810 N   0  0  0  0  0  0  0  0  0  0  0  0
  -22.5150  -14.7410   20.7100 O   0  0  0  0  0  0  0  0  0  0  0  0
  -22.6680  -12.1640   22.4970 H   0  0  0  0  0  0  0  0  0  0  0  0
  -21.3580  -13.2970   22.3510 H   0  0  0  0  0  0  0  0  0  0  0  0
  -25.5530  -15.3920   20.3030 N   0  0  0  0  0  0  0  0  0  0  0  0
  -24.7830  -16.0380   20.4450 H   0  0  0  0  0  0  0  0  0  0  0  0
  -26.3770  -15.8370   19.9210 H   0  0  0  0  0  0  0  0  0  0  0  0
  -29.1400  -22.9270   20.3250 C   0  0  0  0  0  3  0  0  0  0  0  0
  -28.3080  -24.4320   19.7570 C   0  0  0  0  0  3  0  0  0  0  0  0
  -28.4200  -26.0390   20.1250 O   0  0  0  0  0  0  0  0  0  0  0  0
  -24.6610  -31.8410   23.1460 C   0  0  0  0  0  0  0  0  0  0  0  0
  -27.3690  -27.0970   20.0610 C   0  0  0  0  0  0  0  0  0  0  0  0
  -23.5140  -30.4440   21.4750 C   0  0  0  0  0  3  0  0  0  0  0  0
  -25.0140  -28.9060   20.0300 C   0  0  0  0  0  0  0  0  0  0  0  0
  -26.0730  -30.7310   21.3440 C   0  0  0  0  0  2  0  0  0  0  0  0
  -26.1860  -29.3350   20.6660 C   0  0  0  0  0  0  0  0  0  0  0  0
  -27.3570  -28.4520   20.6570 C   0  0  0  0  0  3  0  0  0  0  0  0
  -26.1630  -26.8140   19.3820 C   0  0  0  0  0  3  0  0  0  0  0  0
  -25.0270  -27.6670   19.3680 C   0  0  0  0  0  3  0  0  0  0  0  0
  -23.7680  -29.7900   20.0880 C   0  0  0  0  0  2  0  0  0  0  0  0
  -24.7700  -31.0330   22.0420 N   0  0  0  0  0  0  0  0  0  0  0  0
  -23.5630  -32.0910   23.6680 O   0  0  0  0  0  0  0  0  0  0  0  0
  -22.8430  -29.4130   22.4220 C   0  0  0  0  0  0  0  0  0  0  0  0
  -21.5120  -29.2410   22.3110 N   0  0  0  0  0  0  0  0  0  0  0  0
  -23.5260  -28.7710   23.2220 O   0  0  0  0  0  0  0  0  0  0  0  0
  -21.0160  -29.8080   21.6380 H   0  0  0  0  0  0  0  0  0  0  0  0
  -18.1420  -28.0140   22.8540 C   0  0  0  0  0  0  0  0  0  0  0  0
  -20.7080  -28.2730   23.0640 C   0  0  0  0  0  3  0  0  0  0  0  0
  -20.7960  -26.8650   22.4290 C   0  0  0  0  0  2  0  0  0  0  0  0
  -19.6670  -26.5840   21.4330 C   0  0  0  0  0  2  0  0  0  0  0  0
  -18.3010  -26.6960   22.1160 C   0  0  0  0  0  2  0  0  0  0  0  0
  -19.2690  -28.7630   23.2850 C   0  0  0  0  0  0  0  0  0  0  0  0
  -19.0590  -29.9960   23.9380 C   0  0  0  0  0  3  0  0  0  0  0  0
  -17.7560  -30.4780   24.1670 C   0  0  0  0  0  3  0  0  0  0  0  0
  -16.6450  -29.7260   23.7500 C   0  0  0  0  0  3  0  0  0  0  0  0
  -16.8390  -28.4970   23.0950 C   0  0  0  0  0  3  0  0  0  0  0  0
  -25.9100  -32.5060   23.7980 C   0  0  0  0  0  3  0  0  0  0  0  0
  -25.5630  -33.9000   24.1300 N   0  0  0  0  0  0  0  0  0  0  0  0
  -25.8870  -34.9690   23.3910 C   0  0  0  0  0  0  0  0  0  0  0  0
  -26.5730  -34.8890   22.3690 O   0  0  0  0  0  0  0  0  0  0  0  0
  -24.9550  -34.0320   24.9230 H   0  0  0  0  0  0  0  0  0  0  0  0
  -24.1320  -36.7400   23.0420 C   0  0  0  0  0  1  0  0  0  0  0  0
  -25.3730  -36.3460   23.8580 C   0  0  0  0  0  3  0  0  0  0  0  0
  -27.4840  -37.2660   24.7130 C   0  0  0  0  0  1  0  0  0  0  0  0
  -26.3880  -37.4180   23.7600 N   0  0  0  0  0  0  0  0  0  0  0  0
  -25.9620  -38.3300   23.9100 H   0  0  0  0  0  0  0  0  0  0  0  0
  -26.4060  -31.7500   25.0930 C   0  0  1  0  0  0  0  0  0  0  0  0
  -25.2930  -31.5050   26.1400 C   0  0  0  0  0  1  0  0  0  0  0  0
  -27.0190  -30.3780   24.7300 C   0  0  0  0  0  1  0  0  0  0  0  0
  -27.5320  -32.5650   25.7730 C   0  0  0  0  0  1  0  0  0  0  0  0
  1 48  1  0
  1  8  1  0
  2  4  1  0
  3  2  2  0
  3  5  1  0
  4  6  2  0
  5  7  2  0
  7  6  1  0
  7  1  1  0
  9 19  1  0
  9  8  2  0
 10 19  1  0
 11 16  1  0
 12 13  1  0
 12 11  1  0
 14 13  1  0
 14 23  1  0
 14 15  1  0
 16 10  1  0
 16 15  1  0
 17 10  2  0
 19 18  1  0
 20 21  2  0
 21 40  1  0
 22 21  1  0
 22 25  1  0
 23 24  1  0
 23 20  1  0
 24 22  2  0
 25 26  1  0
 26 27  2  0
 28 31  1  0
 28 27  1  0
 29 28  2  0
 30 29  1  0
 30 25  2  0
 31 32  1  0
 32 33  1  0
 33 34  2  0
 35 34  1  0
 35 39  1  0
 36 35  2  0
 37 32  2  0
 37 36  1  0
 38 37  1  0
 40 41  1  0
 41 44  1  0
 41 43  1  0
 42 40  2  0
 45 46  1  0
 45 20  1  0
 47 45  1  0
 49 50  1  0
 49 48  2  0
 51 62  2  0
 52 50  1  0
 52 57  1  0
 53 61  1  0
 53 63  1  0
 54 60  1  0
 54 56  1  0
 55 61  1  0
 56 55  1  0
 57 56  2  0
 58 52  2  0
 59 58  1  0
 59 54  2  0
 60 53  1  0
 61 51  1  0
 63 65  2  0
 64 63  1  0
 66 64  1  0
 67 76  2  0
 67 72  1  0
 68 64  1  0
 68 72  1  0
 69 68  1  0
 70 71  1  0
 70 69  1  0
 71 67  1  0
 72 73  2  0
 73 74  1  0
 75 74  2  0
 76 75  1  0
 77 51  1  0
 77 78  1  0
 77 87  1  0
 78 81  1  0
 79 83  1  0
 79 78  1  0
 80 79  2  0
 83 82  1  0
 85 83  1  0
 85 86  1  0
 85 84  1  0
 87 90  1  1
 87 88  1  0
 89 87  1  0
M  ISO  4  10 100  19 100  49 101  50 101
M  END
>  <TORSDO>  (37) 
F 21

>  <SCORE>  (37) 
-14.903

>  <name>  (37) 
37

>  <ligand_id>  (37) 
37

>  <original_smiles>  (37) 
[H]c1c([H])c([H])c(N(C([H])([H])C([H])([H])Oc2c([H])c([H])c3c(c2[H])C([H])([H])N(C(=O)C([H])(N([H])C(=O)C([H])(N([H])C([H])([H])[H])C([H])([H])[H])C(C([H])([H])[H])(C([H])([H])[H])C([H])([H])[H])C([H])(C(=O)N([H])C2([H])c4c([H])c([H])c([H])c([H])c4C([H])([H])C([H])([H])C2([H])[H])C3([H])[H])C([H])([H])C([H])([H])N(C(=O)N2C([H])([H])C([H])([H])C([H])([H])C([H])(n3nc(-c4c([H])c([H])c(Oc5c([H])c([H])c(F)c([H])c5F)c([H])c4[H])c(C(=O)N([H])[H])c3N([H])[H])C2([H])[H])C([H])([H])[H])c([H])c1[H]

>  <smiles>  (37) 
[H]c1c([H])c([H])c(N(C([H])([H])C([H])([H])Oc2c([H])c([H])c3c(c2[H])C([H])([H])N(C(=O)C([H])(N([H])C(=O)C([H])(N([H])C([H])([H])[H])C([H])([H])[H])C(C([H])([H])[H])(C([H])([H])[H])C([H])([H])[H])C([H])(C(=O)N([H])C2([H])c4c([H])c([H])c([H])c([H])c4C([H])([H])C([H])([H])C2([H])[H])C3([H])[H])C([H])([H])C([H])([H])N(C(=O)N2C([H])([H])C([H])([H])C([H])([H])C([H])(n3nc(-c4c([H])c([H])c(Oc5c([H])c([H])c(F)c([H])c5F)c([H])c4[H])c(C(=O)N([H])[H])c3N([H])[H])C2([H])[H])C([H])([H])[H])c([H])c1[H]

$$$$
38:0:0
     RDKit          3D

 91 98  0  0  1  0  0  0  0  0999 V2000
  -29.5510  -23.4990   21.2710 N   0  0  0  0  0  4  0  0  0  0  0  0
  -30.3890  -23.6500   21.8110 H   0  0  0  0  0  0  0  0  0  0  0  0
  -28.7920  -23.8110   21.8570 H   0  0  0  0  0  0  0  0  0  0  0  0
  -28.2770  -21.4900   21.9560 C   0  0  0  0  0  1  0  0  0  0  0  0
  -29.4110  -22.0140   21.0610 C   0  0  0  0  0  3  0  0  0  0  0  0
  -30.7520  -21.2490   21.3490 C   0  0  0  0  0  2  0  0  0  0  0  0
  -30.7880  -19.6810   21.5640 C   0  0  0  0  0  2  0  0  0  0  0  0
  -30.8340  -19.2260   19.0400 C   0  0  0  0  0  1  0  0  0  0  0  0
  -30.3500  -18.7200   20.4130 C   0  0  0  0  0  3  0  0  0  0  0  0
  -30.7930  -17.2280   20.5710 C   0  0  0  0  0  3  0  0  0  0  0  0
  -30.1260  -16.1190   20.1210 C   0  0  0  0  0  0  0  0  0  0  0  0
  -28.7860  -16.3120   19.4470 C   0  0  0  0  0  1  0  0  0  0  0  0
  -30.7800  -14.7630   20.1260 C   0  0  0  0  0  0  0  0  0  0  0  0
  -30.4060  -12.5140   19.1390 C   0  0  0  0  0  2  0  0  0  0  0  0
  -29.4430  -12.5820   17.9360 C   0  0  0  0  0  2  0  0  0  0  0  0
  -27.9910  -12.3790   18.4060 C   0  0  0  0  0  2  0  0  0  0  0  0
  -27.6300  -13.2970   19.5950 C   0  0  0  0  0  3  0  0  0  0  0  0
  -28.7320  -13.3200   20.6890 C   0  0  0  0  0  2  0  0  0  0  0  0
  -30.0320  -13.6060   20.0640 N   0  0  0  0  0  0  0  0  0  0  0  0
  -31.9840  -14.7060   19.8800 O   0  0  0  0  0  0  0  0  0  0  0  0
  -25.2830  -13.9510   20.3950 C   0  0  0  0  0  0  0  0  0  0  0  0
  -24.2190  -13.1950   20.7970 C   0  0  0  0  0  0  0  0  0  0  0  0
  -24.6690  -11.8400   20.7660 C   0  0  0  0  0  0  0  0  0  0  0  0
  -26.3090  -13.0500   20.1400 N   0  0  0  0  0  0  0  0  0  0  0  0
  -25.9510  -11.7790   20.4320 N   0  0  0  0  0  0  0  0  0  0  0  0
  -23.9430  -10.5870   20.9730 C   0  0  0  0  0  0  0  0  0  0  0  0
  -24.3920   -9.6240   21.9020 C   0  0  0  0  0  3  0  0  0  0  0  0
  -23.6670   -8.4300   22.0970 C   0  0  0  0  0  3  0  0  0  0  0  0
  -22.4810   -8.1950   21.3610 C   0  0  0  0  0  0  0  0  0  0  0  0
  -22.0530   -9.1480   20.4200 C   0  0  0  0  0  3  0  0  0  0  0  0
  -22.7780  -10.3320   20.2220 C   0  0  0  0  0  3  0  0  0  0  0  0
  -21.7230   -7.0540   21.4680 O   0  0  0  0  0  0  0  0  0  0  0  0
  -21.6900   -6.3210   22.6260 C   0  0  0  0  0  0  0  0  0  0  0  0
  -21.2850   -6.8850   23.8550 C   0  0  0  0  0  3  0  0  0  0  0  0
  -21.1980   -6.0780   25.0070 C   0  0  0  0  0  3  0  0  0  0  0  0
  -21.5070   -4.7060   24.9300 C   0  0  0  0  0  0  0  0  0  0  0  0
  -21.9060   -4.1410   23.7050 C   0  0  0  0  0  3  0  0  0  0  0  0
  -21.9950   -4.9460   22.5570 C   0  0  0  0  0  0  0  0  0  0  0  0
  -22.3590   -4.3930   21.3740 F   0  0  0  0  0  0  0  0  0  0  0  0
  -21.4160   -3.9270   26.0330 F   0  0  0  0  0  0  0  0  0  0  0  0
  -22.8310  -13.6870   21.0870 C   0  0  0  0  0  0  0  0  0  0  0  0
  -22.1120  -13.0040   21.9710 N   0  0  0  0  0  0  0  0  0  0  0  0
  -22.3920  -14.7130   20.5670 O   0  0  0  0  0  0  0  0  0  0  0  0
  -22.4810  -12.1760   22.4160 H   0  0  0  0  0  0  0  0  0  0  0  0
  -21.1790  -13.3100   22.2050 H   0  0  0  0  0  0  0  0  0  0  0  0
  -25.4430  -15.3190   20.1960 N   0  0  0  0  0  0  0  0  0  0  0  0
  -24.6750  -15.9700   20.3170 H   0  0  0  0  0  0  0  0  0  0  0  0
  -26.2740  -15.7520   19.8150 H   0  0  0  0  0  0  0  0  0  0  0  0
  -29.6140  -24.4150   20.0840 C   0  0  0  0  0  2  0  0  0  0  0  0
  -28.3390  -25.2910   19.8420 C   0  0  0  0  0  2  0  0  0  0  0  0
  -28.4330  -26.6980   20.2040 O   0  0  0  0  0  0  0  0  0  0  0  0
  -24.5990  -31.9160   23.2560 C   0  0  0  0  0  0  0  0  0  0  0  0
  -27.2660  -27.4630   20.1580 C   0  0  0  0  0  0  0  0  0  0  0  0
  -23.4070  -30.5260   21.5970 C   0  0  0  0  0  3  0  0  0  0  0  0
  -24.8710  -29.0050   20.1640 C   0  0  0  0  0  0  0  0  0  0  0  0
  -25.9370  -30.8820   21.4170 C   0  0  0  0  0  2  0  0  0  0  0  0
  -26.0290  -29.5140   20.7620 C   0  0  0  0  0  0  0  0  0  0  0  0
  -27.2280  -28.7550   20.7510 C   0  0  0  0  0  3  0  0  0  0  0  0
  -26.0800  -26.9870   19.5460 C   0  0  0  0  0  3  0  0  0  0  0  0
  -24.8930  -27.7420   19.5530 C   0  0  0  0  0  3  0  0  0  0  0  0
  -23.6240  -29.8630   20.2120 C   0  0  0  0  0  2  0  0  0  0  0  0
  -24.6660  -31.1230   22.1480 N   0  0  0  0  0  0  0  0  0  0  0  0
  -23.5140  -32.1810   23.7910 O   0  0  0  0  0  0  0  0  0  0  0  0
  -22.7510  -29.4950   22.5440 C   0  0  0  0  0  0  0  0  0  0  0  0
  -21.4270  -29.3080   22.4080 N   0  0  0  0  0  0  0  0  0  0  0  0
  -23.4310  -28.8680   23.3600 O   0  0  0  0  0  0  0  0  0  0  0  0
  -20.9380  -29.8680   21.7230 H   0  0  0  0  0  0  0  0  0  0  0  0
  -18.0580  -28.0820   22.8670 C   0  0  0  0  0  0  0  0  0  0  0  0
  -20.6110  -28.3600   23.1650 C   0  0  0  0  0  3  0  0  0  0  0  0
  -20.7310  -26.9320   22.5850 C   0  0  0  0  0  2  0  0  0  0  0  0
  -19.6410  -26.6050   21.5580 C   0  0  0  0  0  2  0  0  0  0  0  0
  -18.2530  -26.7380   22.1880 C   0  0  0  0  0  2  0  0  0  0  0  0
  -19.1670  -28.8500   23.3120 C   0  0  0  0  0  0  0  0  0  0  0  0
  -18.9320  -30.1100   23.9060 C   0  0  0  0  0  3  0  0  0  0  0  0
  -17.6220  -30.6010   24.0610 C   0  0  0  0  0  3  0  0  0  0  0  0
  -16.5280  -29.8310   23.6320 C   0  0  0  0  0  3  0  0  0  0  0  0
  -16.7460  -28.5730   23.0410 C   0  0  0  0  0  3  0  0  0  0  0  0
  -25.8800  -32.5470   23.8870 C   0  0  0  0  0  3  0  0  0  0  0  0
  -25.5710  -33.9460   24.2100 N   0  0  0  0  0  0  0  0  0  0  0  0
  -25.9130  -34.9950   23.4510 C   0  0  0  0  0  0  0  0  0  0  0  0
  -26.5930  -34.8870   22.4260 O   0  0  0  0  0  0  0  0  0  0  0  0
  -24.9730  -34.1060   25.0070 H   0  0  0  0  0  0  0  0  0  0  0  0
  -24.1920  -36.7890   23.0740 C   0  0  0  0  0  1  0  0  0  0  0  0
  -25.4240  -36.3860   23.9000 C   0  0  0  0  0  3  0  0  0  0  0  0
  -27.5530  -37.2670   24.7490 C   0  0  0  0  0  1  0  0  0  0  0  0
  -26.4610  -37.4360   23.7950 N   0  0  0  0  0  0  0  0  0  0  0  0
  -26.0550  -38.3570   23.9350 H   0  0  0  0  0  0  0  0  0  0  0  0
  -26.3840  -31.7760   25.1680 C   0  0  1  0  0  0  0  0  0  0  0  0
  -25.2830  -31.5440   26.2280 C   0  0  0  0  0  1  0  0  0  0  0  0
  -26.9680  -30.3970   24.7820 C   0  0  0  0  0  1  0  0  0  0  0  0
  -27.5310  -32.5690   25.8390 C   0  0  0  0  0  1  0  0  0  0  0  0
  1  2  1  0
  1  3  1  0
  5  1  1  0
  5  6  1  0
  5  4  1  0
  6  7  1  0
  9  8  1  0
  9 10  1  0
  9  7  1  0
 11 13  1  0
 11 10  2  0
 12 11  1  0
 14 19  1  0
 15 16  1  0
 15 14  1  0
 17 16  1  0
 17 24  1  0
 17 18  1  0
 19 13  1  0
 19 18  1  0
 20 13  2  0
 21 22  2  0
 22 41  1  0
 23 22  1  0
 23 26  1  0
 24 21  1  0
 24 25  1  0
 25 23  2  0
 26 27  1  0
 27 28  2  0
 29 32  1  0
 29 28  1  0
 30 29  2  0
 31 30  1  0
 31 26  2  0
 32 33  1  0
 33 34  1  0
 34 35  2  0
 36 35  1  0
 36 40  1  0
 37 36  2  0
 38 33  2  0
 38 37  1  0
 39 38  1  0
 41 42  1  0
 42 45  1  0
 42 44  1  0
 43 41  2  0
 46 47  1  0
 46 21  1  0
 48 46  1  0
 49  1  1  0
 50 49  1  0
 50 51  1  0
 52 63  2  0
 53 51  1  0
 53 58  1  0
 54 62  1  0
 54 64  1  0
 55 61  1  0
 55 57  1  0
 56 62  1  0
 57 56  1  0
 58 57  2  0
 59 60  1  0
 59 53  2  0
 60 55  2  0
 61 54  1  0
 62 52  1  0
 64 66  2  0
 65 64  1  0
 67 65  1  0
 68 77  2  0
 68 73  1  0
 69 65  1  0
 69 73  1  0
 70 69  1  0
 71 72  1  0
 71 70  1  0
 72 68  1  0
 73 74  2  0
 74 75  1  0
 76 75  2  0
 77 76  1  0
 78 52  1  0
 78 79  1  0
 78 88  1  0
 79 82  1  0
 80 84  1  0
 80 79  1  0
 81 80  2  0
 84 83  1  0
 86 84  1  0
 86 87  1  0
 86 85  1  0
 88 91  1  1
 88 89  1  0
 90 88  1  0
M  ISO  4  11 100  13 100  50 101  51 101
M  END
>  <TORSDO>  (38) 
F 23

>  <SCORE>  (38) 
-12.637

>  <name>  (38) 
38

>  <ligand_id>  (38) 
38

>  <original_smiles>  (38) 
[H]C(=C(C(=O)N1C([H])([H])C([H])([H])C([H])([H])C([H])(n2nc(-c3c([H])c([H])c(Oc4c([H])c([H])c(F)c([H])c4F)c([H])c3[H])c(C(=O)N([H])[H])c2N([H])[H])C1([H])[H])C([H])([H])[H])C([H])(C([H])([H])[H])C([H])([H])C([H])([H])C([H])(C([H])([H])[H])[N+]([H])([H])C([H])([H])C([H])([H])Oc1c([H])c([H])c2c(c1[H])C([H])([H])N(C(=O)C([H])(N([H])C(=O)C([H])(N([H])C([H])([H])[H])C([H])([H])[H])C(C([H])([H])[H])(C([H])([H])[H])C([H])([H])[H])C([H])(C(=O)N([H])C1([H])c3c([H])c([H])c([H])c([H])c3C([H])([H])C([H])([H])C1([H])[H])C2([H])[H]

>  <smiles>  (38) 
[H]C(=C(C(=O)N1C([H])([H])C([H])([H])C([H])([H])C([H])(n2nc(-c3c([H])c([H])c(Oc4c([H])c([H])c(F)c([H])c4F)c([H])c3[H])c(C(=O)N([H])[H])c2N([H])[H])C1([H])[H])C([H])([H])[H])C([H])(C([H])([H])[H])C([H])([H])C([H])([H])C([H])(C([H])([H])[H])[N+]([H])([H])C([H])([H])C([H])([H])Oc1c([H])c([H])c2c(c1[H])C([H])([H])N(C(=O)C([H])(N([H])C(=O)C([H])(N([H])C([H])([H])[H])C([H])([H])[H])C(C([H])([H])[H])(C([H])([H])[H])C([H])([H])[H])C([H])(C(=O)N([H])C1([H])c3c([H])c([H])c([H])c([H])c3C([H])([H])C([H])([H])C1([H])[H])C2([H])[H]

$$$$
39:0:0
     RDKit          3D

 87 91  0  0  1  0  0  0  0  0999 V2000
  -29.0600  -20.0110   18.6900 C   0  0  0  0  0  0  0  0  0  0  0  0
  -28.5340  -21.3130   20.7920 C   0  0  0  0  0 15  0  0  0  0  0  0
  -29.1180  -22.7400   18.8570 C   0  0  0  0  0  2  0  0  0  0  0  0
  -29.3610  -19.5650   20.1640 C   0  0  0  0  0  1  0  0  0  0  0  0
  -28.1760  -23.1750   20.0550 C   0  0  0  0  0  1  0  0  0  0  0  0
  -28.9600  -21.3310   18.2620 N   0  0  0  0  0  0  0  0  0  0  0  0
  -28.8660  -19.1160   17.8690 O   0  0  0  0  0  0  0  0  0  0  0  0
  -28.7270  -21.3790   17.2800 H   0  0  0  0  0  0  0  0  0  0  0  0
  -30.0690  -16.1480   20.3030 C   0  0  0  0  0  0  0  0  0  0  0  0
  -30.3280  -13.4780   19.5660 C   0  0  0  0  0  2  0  0  0  0  0  0
  -29.5190  -12.8450   18.3810 C   0  0  0  0  0  2  0  0  0  0  0  0
  -28.1270  -12.3840   18.8300 C   0  0  0  0  0  2  0  0  0  0  0  0
  -27.5290  -13.4110   19.8100 C   0  0  0  0  0  3  0  0  0  0  0  0
  -28.5040  -13.9290   20.9090 C   0  0  0  0  0  2  0  0  0  0  0  0
  -29.6060  -14.6960   20.2400 N   0  0  0  0  0  0  0  0  0  0  0  0
  -31.3110  -16.0100   20.1560 O   0  0  0  0  0  0  0  0  0  0  0  0
  -29.3200  -17.6340   20.3660 N   0  0  0  0  0  2  0  0  0  0  0  0
  -28.3440  -17.4040   20.4900 H   0  0  0  0  0  0  0  0  0  0  0  0
  -25.1620  -13.8820   20.5570 C   0  0  0  0  0  0  0  0  0  0  0  0
  -24.1100  -13.0880   20.9080 C   0  0  0  0  0  0  0  0  0  0  0  0
  -24.5990  -11.7440   20.8840 C   0  0  0  0  0  0  0  0  0  0  0  0
  -26.2210  -13.0290   20.3260 N   0  0  0  0  0  0  0  0  0  0  0  0
  -25.8990  -11.7320   20.5870 N   0  0  0  0  0  0  0  0  0  0  0  0
  -23.8790  -10.4750   21.0660 C   0  0  0  0  0  0  0  0  0  0  0  0
  -24.3080   -9.5070   22.0010 C   0  0  0  0  0  3  0  0  0  0  0  0
  -23.5820   -8.3090   22.1780 C   0  0  0  0  0  3  0  0  0  0  0  0
  -22.4110   -8.0680   21.4190 C   0  0  0  0  0  0  0  0  0  0  0  0
  -22.0010   -9.0230   20.4740 C   0  0  0  0  0  3  0  0  0  0  0  0
  -22.7280  -10.2130   20.2950 C   0  0  0  0  0  3  0  0  0  0  0  0
  -21.6580   -6.9210   21.5030 O   0  0  0  0  0  0  0  0  0  0  0  0
  -21.6130   -6.1710   22.6510 C   0  0  0  0  0  0  0  0  0  0  0  0
  -21.1920   -6.7190   23.8840 C   0  0  0  0  0  3  0  0  0  0  0  0
  -21.0940   -5.8980   25.0240 C   0  0  0  0  0  3  0  0  0  0  0  0
  -21.4090   -4.5280   24.9330 C   0  0  0  0  0  0  0  0  0  0  0  0
  -21.8230   -3.9790   23.7070 C   0  0  0  0  0  3  0  0  0  0  0  0
  -21.9210   -4.7990   22.5690 C   0  0  0  0  0  0  0  0  0  0  0  0
  -22.3010   -4.2600   21.3850 F   0  0  0  0  0  0  0  0  0  0  0  0
  -21.3070   -3.7350   26.0260 F   0  0  0  0  0  0  0  0  0  0  0  0
  -22.7030  -13.5490   21.1480 C   0  0  0  0  0  0  0  0  0  0  0  0
  -21.9690  -12.8580   22.0120 N   0  0  0  0  0  0  0  0  0  0  0  0
  -22.2660  -14.5630   20.6050 O   0  0  0  0  0  0  0  0  0  0  0  0
  -22.3400  -12.0400   22.4730 H   0  0  0  0  0  0  0  0  0  0  0  0
  -21.0250  -13.1500   22.2150 H   0  0  0  0  0  0  0  0  0  0  0  0
  -25.3030  -15.2550   20.3770 N   0  0  0  0  0  0  0  0  0  0  0  0
  -24.5240  -15.8950   20.4820 H   0  0  0  0  0  0  0  0  0  0  0  0
  -26.1440  -15.7030   20.0400 H   0  0  0  0  0  0  0  0  0  0  0  0
  -28.0910  -25.0830   20.3390 O   0  0  0  0  0  1  0  0  0  0  0  0
  -24.6020  -31.7910   23.1020 C   0  0  0  0  0  0  0  0  0  0  0  0
  -27.1540  -26.4310   20.2190 C   0  0  0  0  0  0  0  0  0  0  0  0
  -23.4440  -30.3670   21.4700 C   0  0  0  0  0  3  0  0  0  0  0  0
  -24.9120  -28.6520   20.1010 C   0  0  0  0  0  0  0  0  0  0  0  0
  -26.0340  -30.4270   21.4090 C   0  0  0  0  0  2  0  0  0  0  0  0
  -26.1030  -28.9570   20.7670 C   0  0  0  0  0  0  0  0  0  0  0  0
  -27.1880  -27.8850   20.7870 C   0  0  0  0  0  3  0  0  0  0  0  0
  -25.9280  -26.4170   19.4810 C   0  0  0  0  0  3  0  0  0  0  0  0
  -24.8830  -27.4130   19.4290 C   0  0  0  0  0  3  0  0  0  0  0  0
  -23.7160  -29.6380   20.1170 C   0  0  0  0  0  2  0  0  0  0  0  0
  -24.7200  -30.9040   22.0460 N   0  0  0  0  0  0  0  0  0  0  0  0
  -23.4980  -32.1060   23.5840 O   0  0  0  0  0  0  0  0  0  0  0  0
  -22.6950  -29.4220   22.4520 C   0  0  0  0  0  0  0  0  0  0  0  0
  -21.3560  -29.3010   22.3380 N   0  0  0  0  0  0  0  0  0  0  0  0
  -23.3350  -28.7930   23.2980 O   0  0  0  0  0  0  0  0  0  0  0  0
  -20.8850  -29.8580   21.6390 H   0  0  0  0  0  0  0  0  0  0  0  0
  -17.9480  -28.1440   22.8950 C   0  0  0  0  0  0  0  0  0  0  0  0
  -20.5170  -28.3770   23.1170 C   0  0  0  0  0  3  0  0  0  0  0  0
  -20.5860  -26.9440   22.5370 C   0  0  0  0  0  2  0  0  0  0  0  0
  -19.4660  -26.6440   21.5350 C   0  0  0  0  0  2  0  0  0  0  0  0
  -18.0970  -26.8010   22.2000 C   0  0  0  0  0  2  0  0  0  0  0  0
  -19.0830  -28.8910   23.3120 C   0  0  0  0  0  0  0  0  0  0  0  0
  -18.8860  -30.1440   23.9300 C   0  0  0  0  0  3  0  0  0  0  0  0
  -17.5880  -30.6510   24.1310 C   0  0  0  0  0  3  0  0  0  0  0  0
  -16.4690  -29.9040   23.7260 C   0  0  0  0  0  3  0  0  0  0  0  0
  -16.6500  -28.6500   23.1140 C   0  0  0  0  0  3  0  0  0  0  0  0
  -25.8460  -32.4650   23.7580 C   0  0  0  0  0  3  0  0  0  0  0  0
  -25.5020  -33.8650   24.0960 N   0  0  0  0  0  0  0  0  0  0  0  0
  -25.8290  -34.9460   23.3750 C   0  0  0  0  0  0  0  0  0  0  0  0
  -26.5060  -34.8720   22.3470 O   0  0  0  0  0  0  0  0  0  0  0  0
  -24.9000  -33.9950   24.8970 H   0  0  0  0  0  0  0  0  0  0  0  0
  -24.0870  -36.7450   23.0710 C   0  0  0  0  0  1  0  0  0  0  0  0
  -25.3350  -36.3260   23.8650 C   0  0  0  0  0  3  0  0  0  0  0  0
  -27.4680  -37.2180   24.7000 C   0  0  0  0  0  1  0  0  0  0  0  0
  -26.3570  -37.3920   23.7700 N   0  0  0  0  0  0  0  0  0  0  0  0
  -25.9410  -38.3040   23.9410 H   0  0  0  0  0  0  0  0  0  0  0  0
  -26.3370  -31.7190   25.0610 C   0  0  1  0  0  0  0  0  0  0  0  0
  -25.2240  -31.4940   26.1110 C   0  0  0  0  0  1  0  0  0  0  0  0
  -26.9370  -30.3360   24.7210 C   0  0  0  0  0  1  0  0  0  0  0  0
  -27.4700  -32.5290   25.7350 C   0  0  0  0  0  1  0  0  0  0  0  0
  1  4  1  0
  3  5  1  0
  6  1  1  0
  6  3  1  0
  7  1  2  0
  8  6  1  0
  9 17  1  0
 10 15  1  0
 11 12  1  0
 11 10  1  0
 13 12  1  0
 13 22  1  0
 13 14  1  0
 15  9  1  0
 15 14  1  0
 16  9  2  0
 17 18  1  0
 19 20  2  0
 20 39  1  0
 21 20  1  0
 21 24  1  0
 22 19  1  0
 22 23  1  0
 23 21  2  0
 24 25  1  0
 25 26  2  0
 27 30  1  0
 27 26  1  0
 28 27  2  0
 29 28  1  0
 29 24  2  0
 30 31  1  0
 31 32  1  0
 32 33  2  0
 34 33  1  0
 34 38  1  0
 35 34  2  0
 36 31  2  0
 36 35  1  0
 37 36  1  0
 39 40  1  0
 40 43  1  0
 40 42  1  0
 41 39  2  0
 44 45  1  0
 44 19  1  0
 46 44  1  0
 48 59  2  0
 49 47  1  0
 49 54  1  0
 50 58  1  0
 50 60  1  0
 51 57  1  0
 51 53  1  0
 52 58  1  0
 53 54  2  0
 53 52  1  0
 55 49  2  0
 56 55  1  0
 56 51  2  0
 57 50  1  0
 58 48  1  0
 60 62  2  0
 61 60  1  0
 63 61  1  0
 64 73  2  0
 64 69  1  0
 65 61  1  0
 65 69  1  0
 66 65  1  0
 67 68  1  0
 67 66  1  0
 68 64  1  0
 69 70  2  0
 70 71  1  0
 72 71  2  0
 73 72  1  0
 74 48  1  0
 74 75  1  0
 74 84  1  0
 75 78  1  0
 76 80  1  0
 76 75  1  0
 77 76  2  0
 80 79  1  0
 82 80  1  0
 82 83  1  0
 82 81  1  0
 84 87  1  1
 84 85  1  0
 86 84  1  0
M  ISO  4   5 101   9 100  17 100  47 101
M  END
>  <TORSDO>  (39) 
F 16

>  <SCORE>  (39) 
-16.372

>  <name>  (39) 
39

>  <ligand_id>  (39) 
39

>  <original_smiles>  (39) 
[H]c1c([H])c([H])c2c(c1[H])C([H])([H])C([H])([H])C([H])([H])C2([H])N([H])C(=O)C1([H])N(C(=O)C([H])(N([H])C(=O)C([H])(N([H])C([H])([H])[H])C([H])([H])[H])C(C([H])([H])[H])(C([H])([H])[H])C([H])([H])[H])C([H])([H])c2c([H])c(OC3([H])C([H])([H])N([H])C(=O)C([H])(N([H])C(=O)N4C([H])([H])C([H])([H])C([H])([H])C([H])(n5nc(-c6c([H])c([H])c(Oc7c([H])c([H])c(F)c([H])c7F)c([H])c6[H])c(C(=O)N([H])[H])c5N([H])[H])C4([H])[H])C3([H])[H])c([H])c([H])c2C1([H])[H]

>  <smiles>  (39) 
[H]c1c([H])c([H])c2c(c1[H])C([H])([H])C([H])([H])C([H])([H])C2([H])N([H])C(=O)C1([H])N(C(=O)C([H])(N([H])C(=O)C([H])(N([H])C([H])([H])[H])C([H])([H])[H])C(C([H])([H])[H])(C([H])([H])[H])C([H])([H])[H])C([H])([H])c2c([H])c(OC3([H])C([H])([H])N([H])C(=O)C([H])(N([H])C(=O)N4C([H])([H])C([H])([H])C([H])([H])C([H])(n5nc(-c6c([H])c([H])c(Oc7c([H])c([H])c(F)c([H])c7F)c([H])c6[H])c(C(=O)N([H])[H])c5N([H])[H])C4([H])[H])C3([H])[H])c([H])c([H])c2C1([H])[H]

$$$$
40:0:0
     RDKit          3D

 88 96  0  0  1  0  0  0  0  0999 V2000
  -30.5300  -22.1760   19.3950 C   0  0  0  0  0  3  0  0  0  0  0  0
  -30.1680  -23.6510   19.3690 C   0  0  0  0  0  3  0  0  0  0  0  0
  -28.0310  -23.1340   19.6220 C   0  0  0  0  0  3  0  0  0  0  0  0
  -29.7220  -20.9380   19.5440 C   0  0  0  0  0  0  0  0  0  0  0  0
  -28.8750  -24.3710   19.4740 C   0  0  0  0  0  0  0  0  0  0  0  0
  -28.3850  -21.6150   19.6590 C   0  0  0  0  0  0  0  0  0  0  0  0
  -26.0340  -21.0870   19.8710 C   0  0  0  0  0  1  0  0  0  0  0  0
  -27.3930  -20.6740   19.8500 O   0  0  0  0  0  0  0  0  0  0  0  0
  -28.6900  -25.9830   19.5570 O   0  0  0  0  0  0  0  0  0  0  0  0
  -24.9470  -31.8580   22.9960 C   0  0  0  0  0  0  0  0  0  0  0  0
  -27.6240  -27.1070   19.6340 C   0  0  0  0  0  0  0  0  0  0  0  0
  -23.7970  -30.5530   21.2580 C   0  0  0  0  0  3  0  0  0  0  0  0
  -25.2890  -29.0580   19.7260 C   0  0  0  0  0  0  0  0  0  0  0  0
  -26.3670  -30.7850   21.1470 C   0  0  0  0  0  2  0  0  0  0  0  0
  -26.4720  -29.4060   20.3890 C   0  0  0  0  0  0  0  0  0  0  0  0
  -27.6190  -28.4590   20.3140 C   0  0  0  0  0  3  0  0  0  0  0  0
  -26.4020  -26.9690   18.9260 C   0  0  0  0  0  3  0  0  0  0  0  0
  -25.2910  -27.8670   18.9760 C   0  0  0  0  0  3  0  0  0  0  0  0
  -24.0540  -29.9670   19.8380 C   0  0  0  0  0  2  0  0  0  0  0  0
  -25.0600  -31.0950   21.8550 N   0  0  0  0  0  0  0  0  0  0  0  0
  -23.8470  -32.0850   23.5290 O   0  0  0  0  0  0  0  0  0  0  0  0
  -23.1140  -29.4860   22.1530 C   0  0  0  0  0  0  0  0  0  0  0  0
  -21.7840  -29.3090   22.0260 N   0  0  0  0  0  0  0  0  0  0  0  0
  -23.7920  -28.8130   22.9340 O   0  0  0  0  0  0  0  0  0  0  0  0
  -21.2860  -29.9020   21.3750 H   0  0  0  0  0  0  0  0  0  0  0  0
  -18.4130  -28.0760   22.5790 C   0  0  0  0  0  0  0  0  0  0  0  0
  -20.9870  -28.2950   22.7260 C   0  0  0  0  0  3  0  0  0  0  0  0
  -21.0380  -26.9410   21.9820 C   0  0  0  0  0  2  0  0  0  0  0  0
  -19.8770  -26.7490   21.0000 C   0  0  0  0  0  2  0  0  0  0  0  0
  -18.5350  -26.8200   21.7320 C   0  0  0  0  0  2  0  0  0  0  0  0
  -19.5620  -28.7770   23.0330 C   0  0  0  0  0  0  0  0  0  0  0  0
  -19.3890  -29.9530   23.7930 C   0  0  0  0  0  3  0  0  0  0  0  0
  -18.1000  -30.4300   24.1000 C   0  0  0  0  0  3  0  0  0  0  0  0
  -16.9660  -29.7250   23.6580 C   0  0  0  0  0  3  0  0  0  0  0  0
  -17.1240  -28.5490   22.9040 C   0  0  0  0  0  3  0  0  0  0  0  0
  -26.1930  -32.4960   23.6840 C   0  0  0  0  0  3  0  0  0  0  0  0
  -25.8420  -33.8700   24.0910 N   0  0  0  0  0  0  0  0  0  0  0  0
  -26.1170  -34.9770   23.3870 C   0  0  0  0  0  0  0  0  0  0  0  0
  -26.7500  -34.9510   22.3290 O   0  0  0  0  0  0  0  0  0  0  0  0
  -25.2700  -33.9610   24.9180 H   0  0  0  0  0  0  0  0  0  0  0  0
  -24.3060  -36.7250   23.2370 C   0  0  0  0  0  1  0  0  0  0  0  0
  -25.6140  -36.3280   23.9420 C   0  0  0  0  0  3  0  0  0  0  0  0
  -27.7540  -37.2770   24.6860 C   0  0  0  0  0  1  0  0  0  0  0  0
  -26.5970  -37.4260   23.8070 N   0  0  0  0  0  0  0  0  0  0  0  0
  -26.1640  -38.3240   24.0030 H   0  0  0  0  0  0  0  0  0  0  0  0
  -26.6880  -31.6780   24.9420 C   0  0  1  0  0  0  0  0  0  0  0  0
  -25.5730  -31.3820   25.9730 C   0  0  0  0  0  1  0  0  0  0  0  0
  -27.3020  -30.3250   24.5190 C   0  0  0  0  0  1  0  0  0  0  0  0
  -27.8120  -32.4590   25.6650 C   0  0  0  0  0  1  0  0  0  0  0  0
  -30.4450  -19.2080   19.6800 C   0  0  0  0  0  2  0  0  0  0  0  0
  -30.9180  -16.0950   19.7590 C   0  0  0  0  0  0  0  0  0  0  0  0
  -31.0070  -13.5300   19.0200 C   0  0  0  0  0  2  0  0  0  0  0  0
  -30.0810  -13.0810   17.8540 C   0  0  0  0  0  2  0  0  0  0  0  0
  -28.6800  -12.7270   18.3740 C   0  0  0  0  0  2  0  0  0  0  0  0
  -28.1940  -13.7590   19.4160 C   0  0  0  0  0  3  0  0  0  0  0  0
  -29.2570  -14.1220   20.4810 C   0  0  0  0  0  2  0  0  0  0  0  0
  -30.3980  -14.7280   19.7570 N   0  0  0  0  0  0  0  0  0  0  0  0
  -32.1450  -16.0310   19.5470 O   0  0  0  0  0  0  0  0  0  0  0  0
  -30.1670  -17.4610   19.8050 N   0  0  0  0  0  0  0  0  0  0  0  0
  -29.1830  -17.2820   19.9390 H   0  0  0  0  0  0  0  0  0  0  0  0
  -25.9000  -14.2960   20.3600 C   0  0  0  0  0  0  0  0  0  0  0  0
  -24.8420  -13.5180   20.7360 C   0  0  0  0  0  0  0  0  0  0  0  0
  -25.2710  -12.1630   20.5840 C   0  0  0  0  0  0  0  0  0  0  0  0
  -26.9020  -13.4190   19.9930 N   0  0  0  0  0  0  0  0  0  0  0  0
  -26.5420  -12.1240   20.1940 N   0  0  0  0  0  0  0  0  0  0  0  0
  -24.5210  -10.9080   20.7280 C   0  0  0  0  0  0  0  0  0  0  0  0
  -24.8780   -9.9390   21.6910 C   0  0  0  0  0  3  0  0  0  0  0  0
  -24.1230   -8.7530   21.8250 C   0  0  0  0  0  3  0  0  0  0  0  0
  -22.9980   -8.5270   20.9970 C   0  0  0  0  0  0  0  0  0  0  0  0
  -22.6620   -9.4860   20.0240 C   0  0  0  0  0  3  0  0  0  0  0  0
  -23.4150  -10.6630   19.8880 C   0  0  0  0  0  3  0  0  0  0  0  0
  -22.2240   -7.3930   21.0390 O   0  0  0  0  0  0  0  0  0  0  0  0
  -21.9480   -6.7530   22.2210 C   0  0  0  0  0  0  0  0  0  0  0  0
  -21.2450   -7.3900   23.2670 C   0  0  0  0  0  3  0  0  0  0  0  0
  -20.9230   -6.6740   24.4370 C   0  0  0  0  0  3  0  0  0  0  0  0
  -21.2910   -5.3210   24.5590 C   0  0  0  0  0  0  0  0  0  0  0  0
  -21.9850   -4.6830   23.5160 C   0  0  0  0  0  3  0  0  0  0  0  0
  -22.3090   -5.3970   22.3480 C   0  0  0  0  0  0  0  0  0  0  0  0
  -22.9590   -4.7710   21.3370 F   0  0  0  0  0  0  0  0  0  0  0  0
  -20.9750   -4.6300   25.6790 F   0  0  0  0  0  0  0  0  0  0  0  0
  -23.4760  -14.0090   21.1160 C   0  0  0  0  0  0  0  0  0  0  0  0
  -22.7740  -13.2700   21.9680 N   0  0  0  0  0  0  0  0  0  0  0  0
  -23.0450  -15.0810   20.6950 O   0  0  0  0  0  0  0  0  0  0  0  0
  -23.1390  -12.4000   22.3280 H   0  0  0  0  0  0  0  0  0  0  0  0
  -21.8610  -13.5800   22.2650 H   0  0  0  0  0  0  0  0  0  0  0  0
  -26.0850  -15.6720   20.2670 N   0  0  0  0  0  0  0  0  0  0  0  0
  -25.3400  -16.3310   20.4610 H   0  0  0  0  0  0  0  0  0  0  0  0
  -26.9150  -16.1120   19.8900 H   0  0  0  0  0  0  0  0  0  0  0  0
  1  4  1  0
  2  1  2  0
  2  5  1  0
  3  6  1  0
  4  6  2  0
  4 50  1  0
  5  9  1  0
  5  3  2  0
  6  8  1  0
  8  7  1  0
  9 11  1  0
 10 21  2  0
 11 16  1  0
 12 20  1  0
 12 22  1  0
 13 19  1  0
 13 15  1  0
 14 20  1  0
 15 14  1  0
 16 15  2  0
 17 18  1  0
 17 11  2  0
 18 13  2  0
 19 12  1  0
 20 10  1  0
 22 24  2  0
 23 22  1  0
 25 23  1  0
 26 35  2  0
 26 31  1  0
 27 23  1  0
 27 31  1  0
 28 27  1  0
 29 30  1  0
 29 28  1  0
 30 26  1  0
 31 32  2  0
 32 33  1  0
 34 33  2  0
 35 34  1  0
 36 10  1  0
 36 37  1  0
 36 46  1  0
 37 40  1  0
 38 42  1  0
 38 37  1  0
 39 38  2  0
 42 41  1  0
 44 42  1  0
 44 45  1  0
 44 43  1  0
 46 49  1  1
 46 47  1  0
 48 46  1  0
 50 59  1  0
 51 59  1  0
 52 57  1  0
 53 54  1  0
 53 52  1  0
 55 54  1  0
 55 64  1  0
 55 56  1  0
 57 51  1  0
 57 56  1  0
 58 51  2  0
 59 60  1  0
 61 62  2  0
 62 81  1  0
 63 66  1  0
 63 62  1  0
 64 65  1  0
 64 61  1  0
 65 63  2  0
 66 67  1  0
 67 68  2  0
 69 72  1  0
 69 68  1  0
 70 69  2  0
 71 70  1  0
 71 66  2  0
 72 73  1  0
 73 78  2  0
 73 74  1  0
 74 75  2  0
 75 76  1  0
 76 80  1  0
 77 76  2  0
 78 77  1  0
 79 78  1  0
 81 82  1  0
 82 85  1  0
 82 84  1  0
 83 81  2  0
 86 61  1  0
 86 87  1  0
 88 86  1  0
M  ISO  4   5 101   9 101  51 100  59 100
M  END
>  <TORSDO>  (40) 
F 18

>  <SCORE>  (40) 
-11.767

>  <name>  (40) 
40

>  <ligand_id>  (40) 
40

>  <original_smiles>  (40) 
[H]c1c([H])c([H])c2c(c1[H])C([H])([H])C([H])([H])C([H])([H])C2([H])N([H])C(=O)C1([H])N(C(=O)C([H])(N([H])C(=O)C([H])(N([H])C([H])([H])[H])C([H])([H])[H])C(C([H])([H])[H])(C([H])([H])[H])C([H])([H])[H])C([H])([H])c2c([H])c(Oc3c([H])c([H])c(C([H])([H])N([H])C(=O)N4C([H])([H])C([H])([H])C([H])([H])C([H])(n5nc(-c6c([H])c([H])c(Oc7c([H])c([H])c(F)c([H])c7F)c([H])c6[H])c(C(=O)N([H])[H])c5N([H])[H])C4([H])[H])c(OC([H])([H])[H])c3[H])c([H])c([H])c2C1([H])[H]

>  <smiles>  (40) 
[H]c1c([H])c([H])c2c(c1[H])C([H])([H])C([H])([H])C([H])([H])C2([H])N([H])C(=O)C1([H])N(C(=O)C([H])(N([H])C(=O)C([H])(N([H])C([H])([H])[H])C([H])([H])[H])C(C([H])([H])[H])(C([H])([H])[H])C([H])([H])[H])C([H])([H])c2c([H])c(Oc3c([H])c([H])c(C([H])([H])N([H])C(=O)N4C([H])([H])C([H])([H])C([H])([H])C([H])(n5nc(-c6c([H])c([H])c(Oc7c([H])c([H])c(F)c([H])c7F)c([H])c6[H])c(C(=O)N([H])[H])c5N([H])[H])C4([H])[H])c(OC([H])([H])[H])c3[H])c([H])c([H])c2C1([H])[H]

$$$$
41:0:0
     RDKit          3D

 84 91  0  0  1  0  0  0  0  0999 V2000
  -29.0960  -22.8810   20.3210 C   0  0  0  0  0  3  0  0  0  0  0  0
  -29.4640  -21.4220   20.3570 C   0  0  0  0  0  0  0  0  0  0  0  0
  -30.9700  -21.2180   20.4880 C   0  0  0  0  0  1  0  0  0  0  0  0
  -28.9060  -19.7620   20.3150 C   0  0  0  0  0  2  0  0  0  0  0  0
  -29.5190  -16.7690   20.3620 C   0  0  0  0  0  3  0  0  0  0  0  0
  -29.7960  -18.2280   20.2600 C   0  0  0  0  0  3  0  0  0  0  0  0
  -30.3840  -15.3770   20.2370 C   0  0  0  0  0  0  0  0  0  0  0  0
  -30.4070  -12.9080   19.3890 C   0  0  0  0  0  2  0  0  0  0  0  0
  -29.5040  -12.6900   18.1460 C   0  0  0  0  0  2  0  0  0  0  0  0
  -28.0500  -12.4080   18.5640 C   0  0  0  0  0  2  0  0  0  0  0  0
  -27.5790  -13.3560   19.6940 C   0  0  0  0  0  3  0  0  0  0  0  0
  -28.6150  -13.5240   20.8230 C   0  0  0  0  0  2  0  0  0  0  0  0
  -29.8480  -14.0490   20.2120 N   0  0  0  0  0  0  0  0  0  0  0  0
  -31.6030  -15.3630   20.0090 O   0  0  0  0  0  0  0  0  0  0  0  0
  -25.1950  -13.8720   20.4330 C   0  0  0  0  0  0  0  0  0  0  0  0
  -24.1460  -13.0800   20.8030 C   0  0  0  0  0  0  0  0  0  0  0  0
  -24.6370  -11.7380   20.7880 C   0  0  0  0  0  0  0  0  0  0  0  0
  -26.2550  -13.0140   20.2010 N   0  0  0  0  0  0  0  0  0  0  0  0
  -25.9320  -11.7240   20.4840 N   0  0  0  0  0  0  0  0  0  0  0  0
  -23.9300  -10.4640   20.9860 C   0  0  0  0  0  0  0  0  0  0  0  0
  -24.3680   -9.5120   21.9330 C   0  0  0  0  0  3  0  0  0  0  0  0
  -23.6560   -8.3080   22.1200 C   0  0  0  0  0  3  0  0  0  0  0  0
  -22.4910   -8.0460   21.3580 C   0  0  0  0  0  0  0  0  0  0  0  0
  -22.0720   -8.9870   20.4020 C   0  0  0  0  0  3  0  0  0  0  0  0
  -22.7850  -10.1830   20.2140 C   0  0  0  0  0  3  0  0  0  0  0  0
  -21.7520   -6.8920   21.4530 O   0  0  0  0  0  0  0  0  0  0  0  0
  -21.7040   -6.1590   22.6110 C   0  0  0  0  0  0  0  0  0  0  0  0
  -21.2550   -6.7180   23.8270 C   0  0  0  0  0  3  0  0  0  0  0  0
  -21.1550   -5.9110   24.9780 C   0  0  0  0  0  3  0  0  0  0  0  0
  -21.4940   -4.5470   24.9150 C   0  0  0  0  0  0  0  0  0  0  0  0
  -21.9360   -3.9870   23.7030 C   0  0  0  0  0  3  0  0  0  0  0  0
  -22.0370   -4.7910   22.5540 C   0  0  0  0  0  0  0  0  0  0  0  0
  -22.4440   -4.2400   21.3850 F   0  0  0  0  0  0  0  0  0  0  0  0
  -21.3910   -3.7700   26.0180 F   0  0  0  0  0  0  0  0  0  0  0  0
  -22.7380  -13.5350   21.0550 C   0  0  0  0  0  0  0  0  0  0  0  0
  -22.0150  -12.8430   21.9290 N   0  0  0  0  0  0  0  0  0  0  0  0
  -22.2870  -14.5430   20.5120 O   0  0  0  0  0  0  0  0  0  0  0  0
  -22.3940  -12.0300   22.3910 H   0  0  0  0  0  0  0  0  0  0  0  0
  -21.0730  -13.1350   22.1420 H   0  0  0  0  0  0  0  0  0  0  0  0
  -25.3320  -15.2440   20.2450 N   0  0  0  0  0  0  0  0  0  0  0  0
  -24.5490  -15.8810   20.3450 H   0  0  0  0  0  0  0  0  0  0  0  0
  -26.1710  -15.6990   19.9090 H   0  0  0  0  0  0  0  0  0  0  0  0
  -27.9340  -24.1850   20.2160 C   0  0  0  0  0  2  0  0  0  0  0  0
  -28.1850  -25.8340   20.2920 O   0  0  0  0  0  0  0  0  0  0  0  0
  -24.6560  -31.8800   23.2290 C   0  0  0  0  0  0  0  0  0  0  0  0
  -27.1800  -26.9490   20.2330 C   0  0  0  0  0  0  0  0  0  0  0  0
  -23.4550  -30.4860   21.5950 C   0  0  0  0  0  3  0  0  0  0  0  0
  -24.8940  -28.8630   20.1800 C   0  0  0  0  0  0  0  0  0  0  0  0
  -26.0250  -30.6720   21.4520 C   0  0  0  0  0  2  0  0  0  0  0  0
  -26.0860  -29.2570   20.7980 C   0  0  0  0  0  0  0  0  0  0  0  0
  -27.2230  -28.3240   20.7970 C   0  0  0  0  0  3  0  0  0  0  0  0
  -25.9550  -26.7120   19.5660 C   0  0  0  0  0  3  0  0  0  0  0  0
  -24.8570  -27.6120   19.5420 C   0  0  0  0  0  3  0  0  0  0  0  0
  -23.6830  -29.7960   20.2210 C   0  0  0  0  0  2  0  0  0  0  0  0
  -24.7340  -31.0410   22.1440 N   0  0  0  0  0  0  0  0  0  0  0  0
  -23.5680  -32.1770   23.7480 O   0  0  0  0  0  0  0  0  0  0  0  0
  -22.7510  -29.5000   22.5630 C   0  0  0  0  0  0  0  0  0  0  0  0
  -21.4200  -29.3440   22.4380 N   0  0  0  0  0  0  0  0  0  0  0  0
  -23.4130  -28.8740   23.3970 O   0  0  0  0  0  0  0  0  0  0  0  0
  -20.9400  -29.8980   21.7430 H   0  0  0  0  0  0  0  0  0  0  0  0
  -18.0330  -28.1430   22.9420 C   0  0  0  0  0  0  0  0  0  0  0  0
  -20.5920  -28.4130   23.2140 C   0  0  0  0  0  3  0  0  0  0  0  0
  -20.6960  -26.9750   22.6530 C   0  0  0  0  0  2  0  0  0  0  0  0
  -19.5980  -26.6440   21.6370 C   0  0  0  0  0  2  0  0  0  0  0  0
  -18.2140  -26.7900   22.2730 C   0  0  0  0  0  2  0  0  0  0  0  0
  -19.1490  -28.9110   23.3700 C   0  0  0  0  0  0  0  0  0  0  0  0
  -18.9220  -30.1740   23.9600 C   0  0  0  0  0  3  0  0  0  0  0  0
  -17.6150  -30.6680   24.1230 C   0  0  0  0  0  3  0  0  0  0  0  0
  -16.5140  -29.8990   23.7080 C   0  0  0  0  0  3  0  0  0  0  0  0
  -16.7240  -28.6370   23.1240 C   0  0  0  0  0  3  0  0  0  0  0  0
  -25.9280  -32.5180   23.8630 C   0  0  0  0  0  3  0  0  0  0  0  0
  -26.4340  -31.7490   25.1460 C   0  0  1  0  0  0  0  0  0  0  0  0
  -25.3350  -31.5230   26.2110 C   0  0  0  0  0  1  0  0  0  0  0  0
  -27.0110  -30.3660   24.7710 C   0  0  0  0  0  1  0  0  0  0  0  0
  -27.5860  -32.5400   25.8100 C   0  0  0  0  0  1  0  0  0  0  0  0
  -25.6130  -33.9170   24.2050 N   0  0  0  0  0  0  0  0  0  0  0  0
  -25.9230  -34.9820   23.4530 C   0  0  0  0  0  0  0  0  0  0  0  0
  -26.5660  -34.8900   22.4040 O   0  0  0  0  0  0  0  0  0  0  0  0
  -25.0330  -34.0610   25.0190 H   0  0  0  0  0  0  0  0  0  0  0  0
  -24.1690  -36.7700   23.1900 C   0  0  0  0  0  1  0  0  0  0  0  0
  -25.4490  -36.3680   23.9400 C   0  0  0  0  0  3  0  0  0  0  0  0
  -27.6110  -37.2700   24.6760 C   0  0  0  0  0  1  0  0  0  0  0  0
  -26.4680  -37.4290   23.7810 N   0  0  0  0  0  0  0  0  0  0  0  0
  -26.0610  -38.3460   23.9450 H   0  0  0  0  0  0  0  0  0  0  0  0
  1  2  2  0
  2  3  1  0
  4  2  1  0
  6  4  1  0
  6  5  2  0
  7  5  1  0
  8 13  1  0
  9 10  1  0
  9  8  1  0
 11 10  1  0
 11 18  1  0
 11 12  1  0
 13  7  1  0
 13 12  1  0
 14  7  2  0
 15 16  2  0
 16 35  1  0
 17 16  1  0
 17 20  1  0
 18 15  1  0
 18 19  1  0
 19 17  2  0
 20 21  1  0
 21 22  2  0
 23 26  1  0
 23 22  1  0
 24 23  2  0
 25 24  1  0
 25 20  2  0
 26 27  1  0
 27 28  1  0
 28 29  2  0
 30 29  1  0
 30 34  1  0
 31 30  2  0
 32 27  2  0
 32 31  1  0
 33 32  1  0
 35 36  1  0
 36 39  1  0
 36 38  1  0
 37 35  2  0
 40 41  1  0
 40 15  1  0
 42 40  1  0
 43 44  1  0
 43  1  1  0
 45 56  2  0
 46 44  1  0
 46 51  1  0
 47 55  1  0
 47 57  1  0
 48 54  1  0
 48 50  1  0
 49 55  1  0
 50 49  1  0
 51 50  2  0
 52 46  2  0
 53 52  1  0
 53 48  2  0
 54 47  1  0
 55 45  1  0
 57 59  2  0
 58 57  1  0
 60 58  1  0
 61 70  2  0
 61 66  1  0
 62 58  1  0
 62 66  1  0
 63 62  1  0
 64 65  1  0
 64 63  1  0
 65 61  1  0
 66 67  2  0
 67 68  1  0
 69 68  2  0
 70 69  1  0
 71 45  1  0
 71 76  1  0
 71 72  1  0
 72 75  1  1
 72 73  1  0
 74 72  1  0
 76 79  1  0
 77 81  1  0
 77 76  1  0
 78 77  2  0
 81 80  1  0
 83 81  1  0
 83 84  1  0
 83 82  1  0
M  ISO  4   5 100   7 100  43 101  44 101
M  END
>  <TORSDO>  (41) 
F 19

>  <SCORE>  (41) 
-15.877

>  <name>  (41) 
41

>  <ligand_id>  (41) 
41

>  <original_smiles>  (41) 
[H]C(C(=O)N1C([H])([H])C([H])([H])C([H])([H])C([H])(n2nc(-c3c([H])c([H])c(Oc4c([H])c([H])c(F)c([H])c4F)c([H])c3[H])c(C(=O)N([H])[H])c2N([H])[H])C1([H])[H])=C([H])C([H])([H])C(=C([H])C([H])([H])Oc1c([H])c([H])c2c(c1[H])C([H])([H])N(C(=O)C([H])(N([H])C(=O)C([H])(N([H])C([H])([H])[H])C([H])([H])[H])C(C([H])([H])[H])(C([H])([H])[H])C([H])([H])[H])C([H])(C(=O)N([H])C1([H])c3c([H])c([H])c([H])c([H])c3C([H])([H])C([H])([H])C1([H])[H])C2([H])[H])C([H])([H])[H]

>  <smiles>  (41) 
[H]C(C(=O)N1C([H])([H])C([H])([H])C([H])([H])C([H])(n2nc(-c3c([H])c([H])c(Oc4c([H])c([H])c(F)c([H])c4F)c([H])c3[H])c(C(=O)N([H])[H])c2N([H])[H])C1([H])[H])=C([H])C([H])([H])C(=C([H])C([H])([H])Oc1c([H])c([H])c2c(c1[H])C([H])([H])N(C(=O)C([H])(N([H])C(=O)C([H])(N([H])C([H])([H])[H])C([H])([H])[H])C(C([H])([H])[H])(C([H])([H])[H])C([H])([H])[H])C([H])(C(=O)N([H])C1([H])c3c([H])c([H])c([H])c([H])c3C([H])([H])C([H])([H])C1([H])[H])C2([H])[H])C([H])([H])[H]

$$$$
42:0:0
     RDKit          3D

 93100  0  0  1  0  0  0  0  0999 V2000
  -27.6790  -21.8290   21.4750 C   0  0  0  0  0  1  0  0  0  0  0  0
  -28.9790  -22.0370   20.6810 C   0  0  0  0  0  3  0  0  0  0  0  0
  -29.4480  -20.7550   19.8700 N   0  0  0  0  0  4  0  0  0  0  0  0
  -30.4480  -20.8630   19.8240 H   0  0  0  0  0  0  0  0  0  0  0  0
  -29.1360  -20.8820   18.9200 H   0  0  0  0  0  0  0  0  0  0  0  0
  -29.1700  -19.2360   20.2550 C   0  0  0  0  0  3  0  0  0  0  0  0
  -26.7160  -19.4190   19.2140 C   0  0  0  0  0  1  0  0  0  0  0  0
  -28.0290  -18.6520   19.3710 C   0  0  0  0  0  2  0  0  0  0  0  0
  -30.3490  -18.0400   20.1530 C   0  0  0  0  0  2  0  0  0  0  0  0
  -30.3200  -16.5850   22.3110 C   0  0  0  0  0  1  0  0  0  0  0  0
  -30.1590  -16.4890   20.7800 C   0  0  0  0  0  3  0  0  0  0  0  0
  -30.9370  -15.1250   20.2710 C   0  0  0  0  0  0  0  0  0  0  0  0
  -30.7770  -12.8170   19.2310 C   0  0  0  0  0  2  0  0  0  0  0  0
  -29.8300  -12.8520   18.0080 C   0  0  0  0  0  2  0  0  0  0  0  0
  -28.3600  -12.6790   18.4350 C   0  0  0  0  0  2  0  0  0  0  0  0
  -27.9890  -13.5750   19.6450 C   0  0  0  0  0  3  0  0  0  0  0  0
  -29.0470  -13.4790   20.7640 C   0  0  0  0  0  2  0  0  0  0  0  0
  -30.3390  -13.8710   20.1860 N   0  0  0  0  0  0  0  0  0  0  0  0
  -32.1030  -15.2220   19.8770 O   0  0  0  0  0  0  0  0  0  0  0  0
  -25.6090  -14.1990   20.3660 C   0  0  0  0  0  0  0  0  0  0  0  0
  -24.5320  -13.4420   20.7420 C   0  0  0  0  0  0  0  0  0  0  0  0
  -24.9780  -12.0850   20.7200 C   0  0  0  0  0  0  0  0  0  0  0  0
  -26.6410  -13.3050   20.1360 N   0  0  0  0  0  0  0  0  0  0  0  0
  -26.2700  -12.0280   20.4120 N   0  0  0  0  0  0  0  0  0  0  0  0
  -24.2330  -10.8350   20.9140 C   0  0  0  0  0  0  0  0  0  0  0  0
  -24.6130   -9.8930   21.8960 C   0  0  0  0  0  3  0  0  0  0  0  0
  -23.8690   -8.7070   22.0780 C   0  0  0  0  0  3  0  0  0  0  0  0
  -22.7290   -8.4550   21.2790 C   0  0  0  0  0  0  0  0  0  0  0  0
  -22.3690   -9.3840   20.2870 C   0  0  0  0  0  3  0  0  0  0  0  0
  -23.1130  -10.5610   20.1030 C   0  0  0  0  0  3  0  0  0  0  0  0
  -21.9610   -7.3200   21.3670 O   0  0  0  0  0  0  0  0  0  0  0  0
  -21.7970   -6.6530   22.5550 C   0  0  0  0  0  0  0  0  0  0  0  0
  -21.2650   -7.2870   23.6980 C   0  0  0  0  0  3  0  0  0  0  0  0
  -21.0460   -6.5480   24.8760 C   0  0  0  0  0  3  0  0  0  0  0  0
  -21.3520   -5.1740   24.9140 C   0  0  0  0  0  0  0  0  0  0  0  0
  -21.8780   -4.5390   23.7750 C   0  0  0  0  0  3  0  0  0  0  0  0
  -22.0970   -5.2760   22.5970 C   0  0  0  0  0  0  0  0  0  0  0  0
  -22.5840   -4.6550   21.4960 F   0  0  0  0  0  0  0  0  0  0  0  0
  -21.1360   -4.4600   26.0430 F   0  0  0  0  0  0  0  0  0  0  0  0
  -23.1410  -13.9400   21.0030 C   0  0  0  0  0  0  0  0  0  0  0  0
  -22.4060  -13.2700   21.8840 N   0  0  0  0  0  0  0  0  0  0  0  0
  -22.7140  -14.9580   20.4610 O   0  0  0  0  0  0  0  0  0  0  0  0
  -22.7640  -12.4480   22.3430 H   0  0  0  0  0  0  0  0  0  0  0  0
  -21.4720  -13.5860   22.1010 H   0  0  0  0  0  0  0  0  0  0  0  0
  -25.7870  -15.5670   20.1780 N   0  0  0  0  0  0  0  0  0  0  0  0
  -25.0180  -16.2210   20.2710 H   0  0  0  0  0  0  0  0  0  0  0  0
  -26.6260  -15.9870   19.8010 H   0  0  0  0  0  0  0  0  0  0  0  0
  -28.9130  -23.5550   19.9580 C   0  0  0  0  0  3  0  0  0  0  0  0
  -30.2800  -23.8930   19.5980 N   0  0  0  0  0  0  0  0  0  0  0  0
  -30.8170  -24.0380   20.4480 H   0  0  0  0  0  0  0  0  0  0  0  0
  -30.2730  -24.8140   19.1700 H   0  0  0  0  0  0  0  0  0  0  0  0
  -28.2650  -24.9190   20.6900 C   0  0  0  0  0  2  0  0  0  0  0  0
  -28.4670  -26.4010   20.3060 O   0  0  0  0  0  0  0  0  0  0  0  0
  -24.6340  -31.9480   23.2530 C   0  0  0  0  0  0  0  0  0  0  0  0
  -27.3740  -27.3240   20.2790 C   0  0  0  0  0  0  0  0  0  0  0  0
  -23.4930  -30.5250   21.5950 C   0  0  0  0  0  3  0  0  0  0  0  0
  -25.0020  -28.9840   20.1980 C   0  0  0  0  0  0  0  0  0  0  0  0
  -26.0380  -30.8580   21.4670 C   0  0  0  0  0  2  0  0  0  0  0  0
  -26.1580  -29.4690   20.8230 C   0  0  0  0  0  0  0  0  0  0  0  0
  -27.3490  -28.6570   20.8430 C   0  0  0  0  0  3  0  0  0  0  0  0
  -26.1930  -26.9240   19.6210 C   0  0  0  0  0  3  0  0  0  0  0  0
  -25.0300  -27.7230   19.5820 C   0  0  0  0  0  3  0  0  0  0  0  0
  -23.7520  -29.8500   20.2220 C   0  0  0  0  0  2  0  0  0  0  0  0
  -24.7400  -31.1330   22.1610 N   0  0  0  0  0  0  0  0  0  0  0  0
  -23.5320  -32.2120   23.7620 O   0  0  0  0  0  0  0  0  0  0  0  0
  -22.8210  -29.5030   22.5450 C   0  0  0  0  0  0  0  0  0  0  0  0
  -21.5030  -29.2930   22.3810 N   0  0  0  0  0  0  0  0  0  0  0  0
  -23.4880  -28.9010   23.3900 O   0  0  0  0  0  0  0  0  0  0  0  0
  -21.0230  -29.8330   21.6760 H   0  0  0  0  0  0  0  0  0  0  0  0
  -18.1520  -27.9750   22.7700 C   0  0  0  0  0  0  0  0  0  0  0  0
  -20.6870  -28.3370   23.1340 C   0  0  0  0  0  3  0  0  0  0  0  0
  -20.8650  -26.9010   22.5860 C   0  0  0  0  0  2  0  0  0  0  0  0
  -19.8160  -26.5230   21.5340 C   0  0  0  0  0  2  0  0  0  0  0  0
  -18.4040  -26.6240   22.1220 C   0  0  0  0  0  2  0  0  0  0  0  0
  -19.2240  -28.7860   23.2300 C   0  0  0  0  0  0  0  0  0  0  0  0
  -18.9340  -30.0460   23.7950 C   0  0  0  0  0  3  0  0  0  0  0  0
  -17.6060  -30.4990   23.9030 C   0  0  0  0  0  3  0  0  0  0  0  0
  -16.5490  -29.6860   23.4620 C   0  0  0  0  0  3  0  0  0  0  0  0
  -16.8220  -28.4260   22.8990 C   0  0  0  0  0  3  0  0  0  0  0  0
  -25.8870  -32.6090   23.9050 C   0  0  0  0  0  3  0  0  0  0  0  0
  -25.5490  -34.0090   24.2070 N   0  0  0  0  0  0  0  0  0  0  0  0
  -25.8880  -35.0590   23.4470 C   0  0  0  0  0  0  0  0  0  0  0  0
  -26.5880  -34.9530   22.4360 O   0  0  0  0  0  0  0  0  0  0  0  0
  -24.9310  -34.1650   24.9910 H   0  0  0  0  0  0  0  0  0  0  0  0
  -24.1430  -36.8270   23.0410 C   0  0  0  0  0  1  0  0  0  0  0  0
  -25.3760  -36.4470   23.8790 C   0  0  0  0  0  3  0  0  0  0  0  0
  -27.4830  -37.3710   24.7360 C   0  0  0  0  0  1  0  0  0  0  0  0
  -26.3960  -37.5130   23.7720 N   0  0  0  0  0  0  0  0  0  0  0  0
  -25.9730  -38.4270   23.9070 H   0  0  0  0  0  0  0  0  0  0  0  0
  -26.3740  -31.8650   25.2090 C   0  0  1  0  0  0  0  0  0  0  0  0
  -25.2490  -31.6210   26.2440 C   0  0  0  0  0  1  0  0  0  0  0  0
  -26.9960  -30.4930   24.8570 C   0  0  0  0  0  1  0  0  0  0  0  0
  -27.4910  -32.6870   25.8950 C   0  0  0  0  0  1  0  0  0  0  0  0
  2  1  1  0
  3  6  1  0
  3  2  1  0
  4  3  1  0
  5  3  1  0
  6  8  1  0
  7  8  1  0
  9  6  1  0
  9 11  1  0
 11 10  1  0
 12 11  1  0
 13 18  1  0
 14 15  1  0
 14 13  1  0
 16 15  1  0
 16 23  1  0
 16 17  1  0
 18 12  1  0
 18 17  1  0
 19 12  2  0
 20 21  2  0
 21 40  1  0
 22 21  1  0
 22 25  1  0
 23 20  1  0
 23 24  1  0
 24 22  2  0
 25 26  1  0
 26 27  2  0
 28 31  1  0
 28 27  1  0
 29 28  2  0
 30 29  1  0
 30 25  2  0
 31 32  1  0
 32 37  2  0
 32 33  1  0
 33 34  2  0
 34 35  1  0
 35 39  1  0
 36 35  2  0
 37 36  1  0
 38 37  1  0
 40 41  1  0
 41 44  1  0
 41 43  1  0
 42 40  2  0
 45 46  1  0
 45 20  1  0
 47 45  1  0
 48  2  1  0
 48 52  1  0
 49 48  1  0
 49 50  1  0
 51 49  1  0
 53 52  1  0
 54 65  2  0
 55 53  1  0
 55 60  1  0
 56 64  1  0
 56 66  1  0
 57 63  1  0
 57 59  1  0
 58 64  1  0
 59 60  2  0
 59 58  1  0
 61 55  2  0
 62 61  1  0
 62 57  2  0
 63 56  1  0
 64 54  1  0
 66 68  2  0
 67 66  1  0
 69 67  1  0
 70 79  2  0
 70 75  1  0
 71 67  1  0
 71 75  1  0
 72 71  1  0
 73 74  1  0
 73 72  1  0
 74 70  1  0
 75 76  2  0
 76 77  1  0
 78 77  2  0
 79 78  1  0
 80 54  1  0
 80 81  1  0
 80 90  1  0
 81 84  1  0
 82 86  1  0
 82 81  1  0
 83 82  2  0
 86 85  1  0
 88 86  1  0
 88 89  1  0
 88 87  1  0
 90 93  1  1
 90 91  1  0
 92 90  1  0
M  ISO  4  11 100  12 100  52 101  53 101
M  END
>  <TORSDO>  (42) 
F 24

>  <SCORE>  (42) 
-12.025

>  <name>  (42) 
42

>  <ligand_id>  (42) 
42

>  <original_smiles>  (42) 
[H]c1c([H])c([H])c2c(c1[H])C([H])([H])C([H])([H])C([H])([H])C2([H])N([H])C(=O)C1([H])N(C(=O)C([H])(N([H])C(=O)C([H])(N([H])C([H])([H])[H])C([H])([H])[H])C(C([H])([H])[H])(C([H])([H])[H])C([H])([H])[H])C([H])([H])c2c([H])c(OC([H])([H])C([H])(N([H])[H])C([H])(C([H])([H])[H])[N+]([H])([H])C([H])(C([H])([H])C([H])([H])[H])C([H])([H])C([H])(C(=O)N3C([H])([H])C([H])([H])C([H])([H])C([H])(n4nc(-c5c([H])c([H])c(Oc6c([H])c([H])c(F)c([H])c6F)c([H])c5[H])c(C(=O)N([H])[H])c4N([H])[H])C3([H])[H])C([H])([H])[H])c([H])c([H])c2C1([H])[H]

>  <smiles>  (42) 
[H]c1c([H])c([H])c2c(c1[H])C([H])([H])C([H])([H])C([H])([H])C2([H])N([H])C(=O)C1([H])N(C(=O)C([H])(N([H])C(=O)C([H])(N([H])C([H])([H])[H])C([H])([H])[H])C(C([H])([H])[H])(C([H])([H])[H])C([H])([H])[H])C([H])([H])c2c([H])c(OC([H])([H])C([H])(N([H])[H])C([H])(C([H])([H])[H])[N+]([H])([H])C([H])(C([H])([H])C([H])([H])[H])C([H])([H])C([H])(C(=O)N3C([H])([H])C([H])([H])C([H])([H])C([H])(n4nc(-c5c([H])c([H])c(Oc6c([H])c([H])c(F)c([H])c6F)c([H])c5[H])c(C(=O)N([H])[H])c4N([H])[H])C3([H])[H])C([H])([H])[H])c([H])c([H])c2C1([H])[H]

$$$$
43:0:0
     RDKit          3D

 97105  0  0  1  0  0  0  0  0999 V2000
  -29.8470  -20.4950   20.4790 C   0  0  0  0  0  2  0  0  0  0  0  0
  -30.5630  -21.8500   20.2370 C   0  0  0  0  0  2  0  0  0  0  0  0
  -30.2670  -22.2020   17.8070 C   0  0  0  0  0  1  0  0  0  0  0  0
  -29.9160  -22.6650   19.1710 N   0  0  2  0  0  4  0  0  0  0  0  0
  -28.9220  -22.5300   19.2850 H   0  0  0  0  0  0  0  0  0  0  0  0
  -30.1240  -24.1300   19.3230 C   0  0  0  0  0  2  0  0  0  0  0  0
  -28.9040  -24.9170   18.8080 C   0  0  0  0  0  2  0  0  0  0  0  0
  -29.0360  -26.4390   18.9590 C   0  0  0  0  0  2  0  0  0  0  0  0
  -28.5760  -26.8830   20.2370 O   0  0  0  0  0  0  0  0  0  0  0  0
  -24.5170  -31.8950   23.2470 C   0  0  0  0  0  0  0  0  0  0  0  0
  -27.3580  -27.5240   20.2450 C   0  0  0  0  0  0  0  0  0  0  0  0
  -23.3880  -30.4620   21.5740 C   0  0  0  0  0  3  0  0  0  0  0  0
  -24.9140  -28.9420   20.2070 C   0  0  0  0  0  0  0  0  0  0  0  0
  -25.9080  -30.8710   21.4500 C   0  0  0  0  0  2  0  0  0  0  0  0
  -26.0390  -29.4960   20.8330 C   0  0  0  0  0  0  0  0  0  0  0  0
  -27.2570  -28.7860   20.8660 C   0  0  0  0  0  3  0  0  0  0  0  0
  -26.2120  -26.9640   19.6350 C   0  0  0  0  0  3  0  0  0  0  0  0
  -24.9910  -27.6680   19.6170 C   0  0  0  0  0  3  0  0  0  0  0  0
  -23.6520  -29.7760   20.2070 C   0  0  0  0  0  2  0  0  0  0  0  0
  -24.6200  -31.0920   22.1500 N   0  0  0  0  0  0  0  0  0  0  0  0
  -23.4150  -32.1480   23.7520 O   0  0  0  0  0  0  0  0  0  0  0  0
  -22.7300  -29.4320   22.5200 C   0  0  0  0  0  0  0  0  0  0  0  0
  -21.4130  -29.2310   22.3570 N   0  0  0  0  0  0  0  0  0  0  0  0
  -23.4020  -28.8180   23.3530 O   0  0  0  0  0  0  0  0  0  0  0  0
  -20.9360  -29.7800   21.6560 H   0  0  0  0  0  0  0  0  0  0  0  0
  -18.0360  -28.0280   22.8000 C   0  0  0  0  0  0  0  0  0  0  0  0
  -20.5900  -28.2850   23.1070 C   0  0  0  0  0  3  0  0  0  0  0  0
  -20.7010  -26.8610   22.5160 C   0  0  0  0  0  2  0  0  0  0  0  0
  -19.6100  -26.5490   21.4850 C   0  0  0  0  0  2  0  0  0  0  0  0
  -18.2210  -26.6870   22.1120 C   0  0  0  0  0  2  0  0  0  0  0  0
  -19.1490  -28.7860   23.2530 C   0  0  0  0  0  0  0  0  0  0  0  0
  -18.9220  -30.0440   23.8540 C   0  0  0  0  0  3  0  0  0  0  0  0
  -17.6140  -30.5420   24.0090 C   0  0  0  0  0  3  0  0  0  0  0  0
  -16.5160  -29.7810   23.5720 C   0  0  0  0  0  3  0  0  0  0  0  0
  -16.7280  -28.5270   22.9730 C   0  0  0  0  0  3  0  0  0  0  0  0
  -25.7710  -32.5530   23.9020 C   0  0  0  0  0  3  0  0  0  0  0  0
  -25.4270  -33.9460   24.2110 N   0  0  0  0  0  0  0  0  0  0  0  0
  -25.7690  -35.0000   23.4560 C   0  0  0  0  0  0  0  0  0  0  0  0
  -26.4780  -34.9020   22.4500 O   0  0  0  0  0  0  0  0  0  0  0  0
  -24.8020  -34.0960   24.9900 H   0  0  0  0  0  0  0  0  0  0  0  0
  -24.0320  -36.7640   23.0180 C   0  0  0  0  0  1  0  0  0  0  0  0
  -25.2410  -36.3820   23.8870 C   0  0  0  0  0  3  0  0  0  0  0  0
  -27.3180  -37.3030   24.8160 C   0  0  0  0  0  1  0  0  0  0  0  0
  -26.2620  -37.4500   23.8170 N   0  0  0  0  0  0  0  0  0  0  0  0
  -25.8350  -38.3640   23.9420 H   0  0  0  0  0  0  0  0  0  0  0  0
  -26.2650  -31.7990   25.1950 C   0  0  1  0  0  0  0  0  0  0  0  0
  -25.1460  -31.5320   26.2290 C   0  0  0  0  0  1  0  0  0  0  0  0
  -26.8960  -30.4370   24.8200 C   0  0  0  0  0  1  0  0  0  0  0  0
  -27.3750  -32.6220   25.8900 C   0  0  0  0  0  1  0  0  0  0  0  0
  -30.6920  -19.2550   20.1040 C   0  0  0  0  0  2  0  0  0  0  0  0
  -30.0040  -17.9580   20.3930 N   0  0  1  0  0  4  0  0  0  0  0  0
  -29.2370  -18.1770   21.0060 H   0  0  0  0  0  0  0  0  0  0  0  0
  -29.3690  -17.3640   19.1820 C   0  0  0  0  0  2  0  0  0  0  0  0
  -26.5920  -20.2790   17.5390 C   0  0  0  0  0  3  0  0  0  0  0  0
  -26.2670  -19.5840   18.7180 C   0  0  0  0  0  3  0  0  0  0  0  0
  -27.7810  -19.9740   16.8500 C   0  0  0  0  0  3  0  0  0  0  0  0
  -27.1550  -18.6170   19.2330 C   0  0  0  0  0  3  0  0  0  0  0  0
  -28.6490  -18.9790   17.3450 C   0  0  0  0  0  3  0  0  0  0  0  0
  -28.3620  -18.3260   18.5610 C   0  0  0  0  0  0  0  0  0  0  0  0
  -30.8860  -17.0490   21.1910 C   0  0  0  0  0  2  0  0  0  0  0  0
  -30.3530  -15.6190   21.5180 C   0  0  0  0  0  2  0  0  0  0  0  0
  -30.9180  -14.5060   20.6010 C   0  0  0  0  0  0  0  0  0  0  0  0
  -30.5880  -12.4170   19.3270 C   0  0  0  0  0  2  0  0  0  0  0  0
  -29.6460  -12.6890   18.1380 C   0  0  0  0  0  2  0  0  0  0  0  0
  -28.1730  -12.5570   18.5600 C   0  0  0  0  0  2  0  0  0  0  0  0
  -27.8490  -13.3270   19.8660 C   0  0  0  0  0  3  0  0  0  0  0  0
  -28.9030  -13.0390   20.9580 C   0  0  0  0  0  2  0  0  0  0  0  0
  -30.2260  -13.3550   20.4020 N   0  0  0  0  0  0  0  0  0  0  0  0
  -31.9920  -14.7170   20.0320 O   0  0  0  0  0  0  0  0  0  0  0  0
  -25.4480  -13.9260   20.5710 C   0  0  0  0  0  0  0  0  0  0  0  0
  -24.3790  -13.1510   20.9300 C   0  0  0  0  0  0  0  0  0  0  0  0
  -24.8420  -11.8000   20.8790 C   0  0  0  0  0  0  0  0  0  0  0  0
  -26.4940  -13.0480   20.3320 N   0  0  0  0  0  0  0  0  0  0  0  0
  -26.1320  -11.7630   20.5680 N   0  0  0  0  0  0  0  0  0  0  0  0
  -24.1180  -10.5370   21.0530 C   0  0  0  0  0  0  0  0  0  0  0  0
  -24.5190   -9.5820   22.0120 C   0  0  0  0  0  3  0  0  0  0  0  0
  -23.7950   -8.3810   22.1700 C   0  0  0  0  0  3  0  0  0  0  0  0
  -22.6570   -8.1280   21.3660 C   0  0  0  0  0  0  0  0  0  0  0  0
  -22.2800   -9.0720   20.3930 C   0  0  0  0  0  3  0  0  0  0  0  0
  -23.0060  -10.2640   20.2350 C   0  0  0  0  0  3  0  0  0  0  0  0
  -21.9040   -6.9790   21.4330 O   0  0  0  0  0  0  0  0  0  0  0  0
  -21.7770   -6.2700   22.6010 C   0  0  0  0  0  0  0  0  0  0  0  0
  -21.2120   -6.8410   23.7620 C   0  0  0  0  0  3  0  0  0  0  0  0
  -21.0350   -6.0600   24.9190 C   0  0  0  0  0  3  0  0  0  0  0  0
  -21.4120   -4.7040   24.9160 C   0  0  0  0  0  0  0  0  0  0  0  0
  -21.9700   -4.1290   23.7610 C   0  0  0  0  0  3  0  0  0  0  0  0
  -22.1510   -4.9100   22.6080 C   0  0  0  0  0  0  0  0  0  0  0  0
  -22.6710   -4.3470   21.4900 F   0  0  0  0  0  0  0  0  0  0  0  0
  -21.2340   -3.9500   26.0250 F   0  0  0  0  0  0  0  0  0  0  0  0
  -22.9820  -13.6250   21.2040 C   0  0  0  0  0  0  0  0  0  0  0  0
  -22.2430  -12.9050   22.0430 N   0  0  0  0  0  0  0  0  0  0  0  0
  -22.5480  -14.6660   20.7100 O   0  0  0  0  0  0  0  0  0  0  0  0
  -22.6020  -12.0640   22.4680 H   0  0  0  0  0  0  0  0  0  0  0  0
  -21.3030  -13.1980   22.2650 H   0  0  0  0  0  0  0  0  0  0  0  0
  -25.6060  -15.2930   20.4030 N   0  0  0  0  0  0  0  0  0  0  0  0
  -24.8130  -15.9230   20.4610 H   0  0  0  0  0  0  0  0  0  0  0  0
  -26.4020  -15.7010   19.9370 H   0  0  0  0  0  0  0  0  0  0  0  0
  2  1  1  0
  3  4  1  0
  4  5  1  1
  4  6  1  0
  4  2  1  0
  7  8  1  0
  7  6  1  0
  8  9  1  0
  9 11  1  0
 10 21  2  0
 11 16  1  0
 12 20  1  0
 12 22  1  0
 13 15  1  0
 14 20  1  0
 15 16  2  0
 15 14  1  0
 17 11  2  0
 18 17  1  0
 18 13  2  0
 19 13  1  0
 19 12  1  0
 20 10  1  0
 22 24  2  0
 23 22  1  0
 25 23  1  0
 26 35  2  0
 26 31  1  0
 27 23  1  0
 27 31  1  0
 28 27  1  0
 29 30  1  0
 29 28  1  0
 30 26  1  0
 31 32  2  0
 32 33  1  0
 34 33  2  0
 35 34  1  0
 36 10  1  0
 36 37  1  0
 36 46  1  0
 37 40  1  0
 38 42  1  0
 38 37  1  0
 39 38  2  0
 42 41  1  0
 44 42  1  0
 44 45  1  0
 44 43  1  0
 46 49  1  1
 46 47  1  0
 48 46  1  0
 50 51  1  0
 50  1  1  0
 51 52  1  1
 51 60  1  0
 53 51  1  0
 54 55  1  0
 55 57  2  0
 56 58  1  0
 56 54  2  0
 58 59  2  0
 59 53  1  0
 59 57  1  0
 60 61  1  0
 62 61  1  0
 63 68  1  0
 64 65  1  0
 64 63  1  0
 66 65  1  0
 66 73  1  0
 66 67  1  0
 68 62  1  0
 68 67  1  0
 69 62  2  0
 70 71  2  0
 71 90  1  0
 72 71  1  0
 72 75  1  0
 73 74  1  0
 73 70  1  0
 74 72  2  0
 75 76  1  0
 76 77  2  0
 78 81  1  0
 78 77  1  0
 79 78  2  0
 80 79  1  0
 80 75  2  0
 81 82  1  0
 82 87  2  0
 82 83  1  0
 83 84  2  0
 85 84  1  0
 85 89  1  0
 86 85  2  0
 87 86  1  0
 88 87  1  0
 90 91  1  0
 91 94  1  0
 91 93  1  0
 92 90  2  0
 95 96  1  0
 95 70  1  0
 97 95  1  0
M  ISO  4   8 101   9 101  61 100  62 100
M  END
>  <TORSDO>  (43) 
F 27

>  <SCORE>  (43) 
-11.814

>  <name>  (43) 
43

>  <ligand_id>  (43) 
43

>  <original_smiles>  (43) 
[H]c1c([H])c([H])c(C([H])([H])[N+]([H])(C([H])([H])C([H])([H])C(=O)N2C([H])([H])C([H])([H])C([H])([H])C([H])(n3nc(-c4c([H])c([H])c(Oc5c([H])c([H])c(F)c([H])c5F)c([H])c4[H])c(C(=O)N([H])[H])c3N([H])[H])C2([H])[H])C([H])([H])C([H])([H])C([H])([H])[N+]([H])(C([H])([H])[H])C([H])([H])C([H])([H])C([H])([H])Oc2c([H])c([H])c3c(c2[H])C([H])([H])N(C(=O)C([H])(N([H])C(=O)C([H])(N([H])C([H])([H])[H])C([H])([H])[H])C(C([H])([H])[H])(C([H])([H])[H])C([H])([H])[H])C([H])(C(=O)N([H])C2([H])c4c([H])c([H])c([H])c([H])c4C([H])([H])C([H])([H])C2([H])[H])C3([H])[H])c([H])c1[H]

>  <smiles>  (43) 
[H]c1c([H])c([H])c(C([H])([H])[N+]([H])(C([H])([H])C([H])([H])C(=O)N2C([H])([H])C([H])([H])C([H])([H])C([H])(n3nc(-c4c([H])c([H])c(Oc5c([H])c([H])c(F)c([H])c5F)c([H])c4[H])c(C(=O)N([H])[H])c3N([H])[H])C2([H])[H])C([H])([H])C([H])([H])C([H])([H])[N+]([H])(C([H])([H])[H])C([H])([H])C([H])([H])C([H])([H])Oc2c([H])c([H])c3c(c2[H])C([H])([H])N(C(=O)C([H])(N([H])C(=O)C([H])(N([H])C([H])([H])[H])C([H])([H])[H])C(C([H])([H])[H])(C([H])([H])[H])C([H])([H])[H])C([H])(C(=O)N([H])C2([H])c4c([H])c([H])c([H])c([H])c4C([H])([H])C([H])([H])C2([H])[H])C3([H])[H])c([H])c1[H]

$$$$
44:0:0
     RDKit          3D

 89 97  0  0  1  0  0  0  0  0999 V2000
  -29.3740  -19.0620   19.8740 C   0  0  0  0  0  0  0  0  0  0  0  0
  -29.3700  -20.3960   20.3880 N   0  0  0  0  0  0  0  0  0  0  0  0
  -28.7760  -18.8500   18.8180 O   0  0  0  0  0  0  0  0  0  0  0  0
  -29.9010  -20.4990   21.2440 H   0  0  0  0  0  0  0  0  0  0  0  0
  -30.5870  -15.0250   20.0100 C   0  0  0  0  0  0  0  0  0  0  0  0
  -30.4010  -12.7180   18.9380 C   0  0  0  0  0  2  0  0  0  0  0  0
  -29.3860  -12.7170   17.7700 C   0  0  0  0  0  2  0  0  0  0  0  0
  -27.9530  -12.4860   18.2840 C   0  0  0  0  0  2  0  0  0  0  0  0
  -27.6310  -13.3560   19.5260 C   0  0  0  0  0  3  0  0  0  0  0  0
  -28.7540  -13.2940   20.5790 C   0  0  0  0  0  2  0  0  0  0  0  0
  -29.9870  -13.7620   19.9240 N   0  0  0  0  0  0  0  0  0  0  0  0
  -31.6990  -15.1480   19.4830 O   0  0  0  0  0  0  0  0  0  0  0  0
  -30.6940  -17.1610   22.7470 C   0  0  0  0  0  2  0  0  0  0  0  0
  -31.1850  -18.0300   21.5920 C   0  0  0  0  0  2  0  0  0  0  0  0
  -30.0700  -15.9090   22.0780 C   0  0  0  0  0  2  0  0  0  0  0  0
  -30.0890  -17.7380   20.5840 C   0  0  0  0  0  3  0  0  0  0  0  0
  -29.9120  -16.1430   20.6010 N   0  0  0  0  0  0  0  0  0  0  0  0
  -25.3040  -13.9100   20.4350 C   0  0  0  0  0  0  0  0  0  0  0  0
  -24.2640  -13.1220   20.8470 C   0  0  0  0  0  0  0  0  0  0  0  0
  -24.7230  -11.7730   20.7420 C   0  0  0  0  0  0  0  0  0  0  0  0
  -26.3270  -13.0410   20.0970 N   0  0  0  0  0  0  0  0  0  0  0  0
  -25.9920  -11.7480   20.3460 N   0  0  0  0  0  0  0  0  0  0  0  0
  -24.0100  -10.5040   20.9390 C   0  0  0  0  0  0  0  0  0  0  0  0
  -24.4520   -9.5430   21.8740 C   0  0  0  0  0  3  0  0  0  0  0  0
  -23.7360   -8.3410   22.0570 C   0  0  0  0  0  3  0  0  0  0  0  0
  -22.5630   -8.0910   21.3050 C   0  0  0  0  0  0  0  0  0  0  0  0
  -22.1400   -9.0410   20.3600 C   0  0  0  0  0  3  0  0  0  0  0  0
  -22.8560  -10.2350   20.1740 C   0  0  0  0  0  3  0  0  0  0  0  0
  -21.8170   -6.9400   21.3980 O   0  0  0  0  0  0  0  0  0  0  0  0
  -21.7050   -6.2490   22.5780 C   0  0  0  0  0  0  0  0  0  0  0  0
  -21.1900   -6.8490   23.7470 C   0  0  0  0  0  3  0  0  0  0  0  0
  -21.0260   -6.0820   24.9180 C   0  0  0  0  0  3  0  0  0  0  0  0
  -21.3680   -4.7170   24.9200 C   0  0  0  0  0  0  0  0  0  0  0  0
  -21.8760   -4.1160   23.7550 C   0  0  0  0  0  3  0  0  0  0  0  0
  -22.0420   -4.8800   22.5870 C   0  0  0  0  0  0  0  0  0  0  0  0
  -22.5100   -4.2910   21.4610 F   0  0  0  0  0  0  0  0  0  0  0  0
  -21.2040   -3.9790   26.0440 F   0  0  0  0  0  0  0  0  0  0  0  0
  -22.8880  -13.5890   21.2240 C   0  0  0  0  0  0  0  0  0  0  0  0
  -22.2240  -12.8730   22.1250 N   0  0  0  0  0  0  0  0  0  0  0  0
  -22.4150  -14.6240   20.7570 O   0  0  0  0  0  0  0  0  0  0  0  0
  -22.6220  -12.0360   22.5240 H   0  0  0  0  0  0  0  0  0  0  0  0
  -21.3040  -13.1660   22.4190 H   0  0  0  0  0  0  0  0  0  0  0  0
  -25.4600  -15.2860   20.2970 N   0  0  0  0  0  0  0  0  0  0  0  0
  -24.7110  -15.9420   20.4890 H   0  0  0  0  0  0  0  0  0  0  0  0
  -26.3000  -15.7330   19.9510 H   0  0  0  0  0  0  0  0  0  0  0  0
  -28.6130  -21.7200   19.9410 C   0  0  0  0  0  2  0  0  0  0  0  0
  -28.8850  -23.3010   20.5000 C   0  0  0  0  0  3  0  0  0  0  0  0
  -27.9580  -24.6680   20.1000 C   0  0  0  0  0  3  0  0  0  0  0  0
  -28.1900  -26.1780   20.4450 O   0  0  0  0  0  0  0  0  0  0  0  0
  -24.5860  -31.9290   23.3480 C   0  0  0  0  0  0  0  0  0  0  0  0
  -27.1450  -27.1750   20.3520 C   0  0  0  0  0  0  0  0  0  0  0  0
  -23.3850  -30.5350   21.7090 C   0  0  0  0  0  3  0  0  0  0  0  0
  -24.8300  -28.9430   20.2980 C   0  0  0  0  0  0  0  0  0  0  0  0
  -25.9430  -30.7780   21.5600 C   0  0  0  0  0  2  0  0  0  0  0  0
  -26.0100  -29.3810   20.9130 C   0  0  0  0  0  0  0  0  0  0  0  0
  -27.1660  -28.5120   20.9240 C   0  0  0  0  0  3  0  0  0  0  0  0
  -25.9420  -26.8450   19.6900 C   0  0  0  0  0  3  0  0  0  0  0  0
  -24.8100  -27.6890   19.6710 C   0  0  0  0  0  3  0  0  0  0  0  0
  -23.6090  -29.8490   20.3340 C   0  0  0  0  0  2  0  0  0  0  0  0
  -24.6580  -31.1030   22.2600 N   0  0  0  0  0  0  0  0  0  0  0  0
  -23.4980  -32.2260   23.8670 O   0  0  0  0  0  0  0  0  0  0  0  0
  -22.6910  -29.5390   22.6710 C   0  0  0  0  0  0  0  0  0  0  0  0
  -21.3670  -29.3570   22.5180 N   0  0  0  0  0  0  0  0  0  0  0  0
  -23.3480  -28.9300   23.5200 O   0  0  0  0  0  0  0  0  0  0  0  0
  -20.8940  -29.8990   21.8080 H   0  0  0  0  0  0  0  0  0  0  0  0
  -17.9880  -28.1240   22.9450 C   0  0  0  0  0  0  0  0  0  0  0  0
  -20.5340  -28.4280   23.2850 C   0  0  0  0  0  3  0  0  0  0  0  0
  -20.6720  -26.9840   22.7490 C   0  0  0  0  0  2  0  0  0  0  0  0
  -19.6070  -26.6220   21.7090 C   0  0  0  0  0  2  0  0  0  0  0  0
  -18.2040  -26.7620   22.3060 C   0  0  0  0  0  2  0  0  0  0  0  0
  -19.0820  -28.9130   23.3910 C   0  0  0  0  0  0  0  0  0  0  0  0
  -18.8270  -30.1830   23.9480 C   0  0  0  0  0  3  0  0  0  0  0  0
  -17.5100  -30.6680   24.0650 C   0  0  0  0  0  3  0  0  0  0  0  0
  -16.4300  -29.8770   23.6350 C   0  0  0  0  0  3  0  0  0  0  0  0
  -16.6700  -28.6070   23.0810 C   0  0  0  0  0  3  0  0  0  0  0  0
  -25.8640  -32.5580   23.9810 C   0  0  0  0  0  3  0  0  0  0  0  0
  -26.3490  -31.8030   25.2810 C   0  0  1  0  0  0  0  0  0  0  0  0
  -25.2340  -31.5960   26.3320 C   0  0  0  0  0  1  0  0  0  0  0  0
  -26.9240  -30.4130   24.9270 C   0  0  0  0  0  1  0  0  0  0  0  0
  -27.4960  -32.5960   25.9500 C   0  0  0  0  0  1  0  0  0  0  0  0
  -25.5660  -33.9660   24.2890 N   0  0  0  0  0  0  0  0  0  0  0  0
  -25.9010  -35.0060   23.5130 C   0  0  0  0  0  0  0  0  0  0  0  0
  -26.5580  -34.8800   22.4770 O   0  0  0  0  0  0  0  0  0  0  0  0
  -24.9800  -34.1380   25.0920 H   0  0  0  0  0  0  0  0  0  0  0  0
  -24.1710  -36.8030   23.1720 C   0  0  0  0  0  1  0  0  0  0  0  0
  -25.4330  -36.4070   23.9560 C   0  0  0  0  0  3  0  0  0  0  0  0
  -27.5920  -37.3020   24.7110 C   0  0  0  0  0  1  0  0  0  0  0  0
  -26.4660  -37.4530   23.7920 N   0  0  0  0  0  0  0  0  0  0  0  0
  -26.0680  -38.3780   23.9280 H   0  0  0  0  0  0  0  0  0  0  0  0
  1  2  1  0
  2  4  1  0
  3  1  2  0
  5 17  1  0
  6 11  1  0
  7  8  1  0
  7  6  1  0
  9  8  1  0
  9 21  1  0
  9 10  1  0
 11  5  1  0
 11 10  1  0
 12  5  2  0
 14 13  1  0
 15 13  1  0
 16  1  1  0
 16 17  1  0
 16 14  1  0
 17 15  1  0
 18 19  2  0
 19 38  1  0
 20 19  1  0
 20 23  1  0
 21 22  1  0
 21 18  1  0
 22 20  2  0
 23 24  1  0
 24 25  2  0
 26 29  1  0
 26 25  1  0
 27 26  2  0
 28 27  1  0
 28 23  2  0
 29 30  1  0
 30 35  2  0
 30 31  1  0
 31 32  2  0
 32 33  1  0
 33 37  1  0
 34 33  2  0
 35 34  1  0
 36 35  1  0
 38 39  1  0
 39 42  1  0
 39 41  1  0
 40 38  2  0
 43 18  1  0
 43 44  1  0
 45 43  1  0
 46  2  1  0
 46 47  1  0
 48 49  1  0
 48 47  2  0
 50 61  2  0
 51 49  1  0
 51 56  1  0
 52 60  1  0
 52 62  1  0
 53 59  1  0
 53 55  1  0
 54 60  1  0
 55 56  2  0
 55 54  1  0
 57 51  2  0
 58 57  1  0
 58 53  2  0
 59 52  1  0
 60 50  1  0
 62 64  2  0
 63 62  1  0
 65 63  1  0
 66 75  2  0
 66 71  1  0
 67 63  1  0
 67 71  1  0
 68 67  1  0
 69 70  1  0
 69 68  1  0
 70 66  1  0
 71 72  2  0
 72 73  1  0
 74 73  2  0
 75 74  1  0
 76 50  1  0
 76 81  1  0
 76 77  1  0
 77 80  1  1
 77 78  1  0
 79 77  1  0
 81 84  1  0
 82 86  1  0
 82 81  1  0
 83 82  2  0
 86 85  1  0
 88 89  1  0
 88 86  1  0
 88 87  1  0
M  ISO  4   5 100  17 100  48 101  49 101
M  END
>  <TORSDO>  (44) 
F 19

>  <SCORE>  (44) 
-14.861

>  <name>  (44) 
44

>  <ligand_id>  (44) 
44

>  <original_smiles>  (44) 
[H]c1c([H])c([H])c2c(c1[H])C([H])([H])C([H])([H])C([H])([H])C2([H])N([H])C(=O)C1([H])N(C(=O)C([H])(N([H])C(=O)C([H])(N([H])C([H])([H])[H])C([H])([H])[H])C(C([H])([H])[H])(C([H])([H])[H])C([H])([H])[H])C([H])([H])c2c([H])c(OC([H])([H])C([H])([H])C([H])([H])N([H])C(=O)C3([H])N(C(=O)N4C([H])([H])C([H])([H])C([H])([H])C([H])(n5nc(-c6c([H])c([H])c(Oc7c([H])c([H])c(F)c([H])c7F)c([H])c6[H])c(C(=O)N([H])[H])c5N([H])[H])C4([H])[H])C([H])([H])C([H])([H])C3([H])[H])c([H])c([H])c2C1([H])[H]

>  <smiles>  (44) 
[H]c1c([H])c([H])c2c(c1[H])C([H])([H])C([H])([H])C([H])([H])C2([H])N([H])C(=O)C1([H])N(C(=O)C([H])(N([H])C(=O)C([H])(N([H])C([H])([H])[H])C([H])([H])[H])C(C([H])([H])[H])(C([H])([H])[H])C([H])([H])[H])C([H])([H])c2c([H])c(OC([H])([H])C([H])([H])C([H])([H])N([H])C(=O)C3([H])N(C(=O)N4C([H])([H])C([H])([H])C([H])([H])C([H])(n5nc(-c6c([H])c([H])c(Oc7c([H])c([H])c(F)c([H])c7F)c([H])c6[H])c(C(=O)N([H])[H])c5N([H])[H])C4([H])[H])C([H])([H])C([H])([H])C3([H])[H])c([H])c([H])c2C1([H])[H]

$$$$
45:0:0
     RDKit          3D

 92100  0  0  1  0  0  0  0  0999 V2000
  -30.2650  -17.5540   22.6360 C   0  0  0  0  0  3  0  0  0  0  0  0
  -29.7210  -18.4440   21.6960 C   0  0  0  0  0  3  0  0  0  0  0  0
  -31.3550  -16.7420   22.2790 C   0  0  0  0  0  3  0  0  0  0  0  0
  -30.3950  -18.7030   20.4880 C   0  0  0  0  0  0  0  0  0  0  0  0
  -31.7900  -16.6990   20.9300 C   0  0  0  0  0  0  0  0  0  0  0  0
  -31.6400  -18.0480   20.2250 C   0  0  0  0  0  0  0  0  0  0  0  0
  -31.9910  -13.9520   20.6600 C   0  0  0  0  0  0  0  0  0  0  0  0
  -31.6090  -11.5160   19.9800 C   0  0  0  0  0  2  0  0  0  0  0  0
  -30.7550  -11.3990   18.6970 C   0  0  0  0  0  2  0  0  0  0  0  0
  -29.2510  -11.4460   19.0330 C   0  0  0  0  0  2  0  0  0  0  0  0
  -28.9090  -12.5760   20.0440 C   0  0  0  0  0  3  0  0  0  0  0  0
  -29.8740  -12.6080   21.2400 C   0  0  0  0  0  2  0  0  0  0  0  0
  -31.2220  -12.7810   20.6730 N   0  0  0  0  0  0  0  0  0  0  0  0
  -33.2160  -13.7840   20.5630 O   0  0  0  0  0  0  0  0  0  0  0  0
  -31.3980  -15.2620   20.4840 N   0  0  0  0  0  0  0  0  0  0  0  0
  -30.4240  -15.2030   20.2260 H   0  0  0  0  0  0  0  0  0  0  0  0
  -26.6680  -13.6080   20.7020 C   0  0  0  0  0  0  0  0  0  0  0  0
  -25.4460  -13.0580   20.9830 C   0  0  0  0  0  0  0  0  0  0  0  0
  -25.6260  -11.6440   20.9120 C   0  0  0  0  0  0  0  0  0  0  0  0
  -27.5160  -12.5400   20.4680 N   0  0  0  0  0  0  0  0  0  0  0  0
  -26.8950  -11.3490   20.6630 N   0  0  0  0  0  0  0  0  0  0  0  0
  -24.6450  -10.5560   21.0080 C   0  0  0  0  0  0  0  0  0  0  0  0
  -24.8270   -9.4750   21.9000 C   0  0  0  0  0  3  0  0  0  0  0  0
  -23.8600   -8.4510   21.9880 C   0  0  0  0  0  3  0  0  0  0  0  0
  -22.6970   -8.5020   21.1850 C   0  0  0  0  0  0  0  0  0  0  0  0
  -22.5310   -9.5690   20.2850 C   0  0  0  0  0  3  0  0  0  0  0  0
  -23.4960  -10.5860   20.1940 C   0  0  0  0  0  3  0  0  0  0  0  0
  -21.7130   -7.5420   21.1870 O   0  0  0  0  0  0  0  0  0  0  0  0
  -21.4090   -6.8230   22.3170 C   0  0  0  0  0  0  0  0  0  0  0  0
  -21.0300   -7.4540   23.5200 C   0  0  0  0  0  3  0  0  0  0  0  0
  -20.6610   -6.6750   24.6350 C   0  0  0  0  0  3  0  0  0  0  0  0
  -20.6590   -5.2710   24.5440 C   0  0  0  0  0  0  0  0  0  0  0  0
  -21.0330   -4.6420   23.3450 C   0  0  0  0  0  3  0  0  0  0  0  0
  -21.4070   -5.4170   22.2320 C   0  0  0  0  0  0  0  0  0  0  0  0
  -21.7440   -4.8050   21.0710 F   0  0  0  0  0  0  0  0  0  0  0  0
  -20.2970   -4.5240   25.6140 F   0  0  0  0  0  0  0  0  0  0  0  0
  -24.1680  -13.8100   21.2030 C   0  0  0  0  0  0  0  0  0  0  0  0
  -23.2700  -13.2610   22.0170 N   0  0  0  0  0  0  0  0  0  0  0  0
  -23.9770  -14.9100   20.6880 O   0  0  0  0  0  0  0  0  0  0  0  0
  -23.4460  -12.3710   22.4570 H   0  0  0  0  0  0  0  0  0  0  0  0
  -22.3990  -13.7360   22.2010 H   0  0  0  0  0  0  0  0  0  0  0  0
  -27.1180  -14.9170   20.6000 N   0  0  0  0  0  0  0  0  0  0  0  0
  -26.4930  -15.7060   20.7280 H   0  0  0  0  0  0  0  0  0  0  0  0
  -28.0540  -15.1950   20.3490 H   0  0  0  0  0  0  0  0  0  0  0  0
  -28.7710  -19.2620   18.5950 C   0  0  0  0  0  1  0  0  0  0  0  0
  -29.8070  -19.7910   19.5850 C   0  0  0  0  0  2  0  0  0  0  0  0
  -32.6680  -18.9910   19.6560 N   0  0  0  0  0  0  0  0  0  0  0  0
  -33.4570  -18.5280   19.2090 H   0  0  0  0  0  0  0  0  0  0  0  0
  -32.9330  -20.5170   20.0540 C   0  0  0  0  0  2  0  0  0  0  0  0
  -32.6110  -21.9400   19.1530 C   0  0  0  0  0  3  0  0  0  0  0  0
  -31.7360  -23.3190   19.6670 C   0  0  0  0  0  3  0  0  0  0  0  0
  -31.6310  -24.7620   19.0570 O   0  0  0  0  0  0  0  0  0  0  0  0
  -27.1750  -29.0230   23.1410 C   0  0  0  0  0  0  0  0  0  0  0  0
  -30.4780  -25.6170   19.2100 C   0  0  0  0  0  0  0  0  0  0  0  0
  -26.2720  -28.1030   21.0410 C   0  0  0  0  0  3  0  0  0  0  0  0
  -27.9970  -27.1290   19.4000 C   0  0  0  0  0  0  0  0  0  0  0  0
  -28.7910  -28.5910   21.2490 C   0  0  0  0  0  2  0  0  0  0  0  0
  -29.0670  -27.4650   20.2380 C   0  0  0  0  0  0  0  0  0  0  0  0
  -30.3160  -26.7400   20.1240 C   0  0  0  0  0  3  0  0  0  0  0  0
  -29.3780  -25.3890   18.3570 C   0  0  0  0  0  3  0  0  0  0  0  0
  -28.1670  -26.1130   18.4450 C   0  0  0  0  0  3  0  0  0  0  0  0
  -26.6800  -27.8770   19.5590 C   0  0  0  0  0  2  0  0  0  0  0  0
  -27.4290  -28.5760   21.8710 N   0  0  0  0  0  0  0  0  0  0  0  0
  -26.0220  -29.0540   23.5990 O   0  0  0  0  0  0  0  0  0  0  0  0
  -25.6190  -26.8090   21.5870 C   0  0  0  0  0  0  0  0  0  0  0  0
  -24.3670  -26.5390   21.1860 N   0  0  0  0  0  0  0  0  0  0  0  0
  -26.2500  -26.0600   22.3410 O   0  0  0  0  0  0  0  0  0  0  0  0
  -23.9020  -27.2090   20.5890 H   0  0  0  0  0  0  0  0  0  0  0  0
  -21.2140  -24.8240   20.6610 C   0  0  0  0  0  0  0  0  0  0  0  0
  -23.5930  -25.3440   21.5350 C   0  0  0  0  0  3  0  0  0  0  0  0
  -24.0530  -24.1240   20.7060 C   0  0  0  0  0  2  0  0  0  0  0  0
  -23.2280  -23.9140   19.4320 C   0  0  0  0  0  2  0  0  0  0  0  0
  -21.7510  -23.7140   19.7710 C   0  0  0  0  0  2  0  0  0  0  0  0
  -22.0830  -25.5950   21.4780 C   0  0  0  0  0  0  0  0  0  0  0  0
  -21.5390  -26.6340   22.2600 C   0  0  0  0  0  3  0  0  0  0  0  0
  -20.1590  -26.9080   22.2350 C   0  0  0  0  0  3  0  0  0  0  0  0
  -19.3020  -26.1310   21.4360 C   0  0  0  0  0  3  0  0  0  0  0  0
  -19.8290  -25.0880   20.6540 C   0  0  0  0  0  3  0  0  0  0  0  0
  -28.3200  -29.5320   24.0690 C   0  0  0  0  0  3  0  0  0  0  0  0
  -27.7800  -30.6290   24.8860 N   0  0  0  0  0  0  0  0  0  0  0  0
  -28.0280  -31.9320   24.6790 C   0  0  0  0  0  0  0  0  0  0  0  0
  -28.8000  -32.3290   23.8040 O   0  0  0  0  0  0  0  0  0  0  0  0
  -27.1050  -30.3790   25.5920 H   0  0  0  0  0  0  0  0  0  0  0  0
  -26.1390  -33.5830   24.8250 C   0  0  0  0  0  1  0  0  0  0  0  0
  -27.3120  -32.9490   25.5870 C   0  0  0  0  0  3  0  0  0  0  0  0
  -29.1860  -33.5270   27.0680 C   0  0  0  0  0  1  0  0  0  0  0  0
  -28.2030  -34.0110   26.1020 N   0  0  0  0  0  0  0  0  0  0  0  0
  -27.6650  -34.7540   26.5400 H   0  0  0  0  0  0  0  0  0  0  0  0
  -28.9200  -28.4010   24.9960 C   0  0  1  0  0  0  0  0  0  0  0  0
  -27.8530  -27.6180   25.7970 C   0  0  0  0  0  1  0  0  0  0  0  0
  -29.7220  -27.3730   24.1620 C   0  0  0  0  0  1  0  0  0  0  0  0
  -29.9150  -29.0230   26.0040 C   0  0  0  0  0  1  0  0  0  0  0  0
  2  1  2  0
  3  1  1  0
  4  2  1  0
  5  3  2  0
  6  4  2  0
  6  5  1  0
  7 13  1  0
  8 13  1  0
  9 10  1  0
  9  8  1  0
 11 10  1  0
 11 20  1  0
 11 12  1  0
 13 12  1  0
 14  7  2  0
 15  7  1  0
 15  5  1  0
 16 15  1  0
 17 18  2  0
 18 37  1  0
 19 18  1  0
 19 22  1  0
 20 21  1  0
 20 17  1  0
 21 19  2  0
 22 23  1  0
 23 24  2  0
 25 28  1  0
 25 24  1  0
 26 25  2  0
 27 26  1  0
 27 22  2  0
 28 29  1  0
 29 30  1  0
 30 31  2  0
 32 31  1  0
 32 36  1  0
 33 32  2  0
 34 29  2  0
 34 33  1  0
 35 34  1  0
 37 38  1  0
 38 41  1  0
 38 40  1  0
 39 37  2  0
 42 17  1  0
 42 43  1  0
 44 42  1  0
 45 46  1  0
 46  4  1  0
 47 49  1  0
 47  6  1  0
 48 47  1  0
 50 51  2  0
 50 49  1  0
 52 54  1  0
 52 51  1  0
 53 64  2  0
 54 59  1  0
 55 65  1  0
 55 63  1  0
 56 62  1  0
 56 58  1  0
 57 63  1  0
 58 57  1  0
 59 58  2  0
 60 61  1  0
 60 54  2  0
 61 56  2  0
 62 55  1  0
 63 53  1  0
 65 67  2  0
 66 65  1  0
 68 66  1  0
 69 74  1  0
 70 66  1  0
 71 70  1  0
 72 73  1  0
 72 71  1  0
 73 69  1  0
 74 70  1  0
 74 75  2  0
 76 75  1  0
 77 76  2  0
 78 69  2  0
 78 77  1  0
 79 53  1  0
 79 80  1  0
 79 89  1  0
 80 83  1  0
 81 80  1  0
 81 85  1  0
 82 81  2  0
 85 84  1  0
 85 87  1  0
 87 88  1  0
 87 86  1  0
 89 90  1  1
 89 92  1  0
 91 89  1  0
M  ISO  4   7 100  15 100  51 101  52 101
M  END
>  <TORSDO>  (45) 
F 21

>  <SCORE>  (45) 
-9.164

>  <name>  (45) 
45

>  <ligand_id>  (45) 
45

>  <original_smiles>  (45) 
[H]c1c([H])c(N([H])C(=O)N2C([H])([H])C([H])([H])C([H])([H])C([H])(n3nc(-c4c([H])c([H])c(Oc5c([H])c([H])c(F)c([H])c5F)c([H])c4[H])c(C(=O)N([H])[H])c3N([H])[H])C2([H])[H])c(N([H])C([H])([H])C([H])([H])C([H])([H])Oc2c([H])c([H])c3c(c2[H])C([H])([H])N(C(=O)C([H])(N([H])C(=O)C([H])(N([H])C([H])([H])[H])C([H])([H])[H])C(C([H])([H])[H])(C([H])([H])[H])C([H])([H])[H])C([H])(C(=O)N([H])C2([H])c4c([H])c([H])c([H])c([H])c4C([H])([H])C([H])([H])C2([H])[H])C3([H])[H])c(C([H])([H])C([H])([H])[H])c1[H]

>  <smiles>  (45) 
[H]c1c([H])c(N([H])C(=O)N2C([H])([H])C([H])([H])C([H])([H])C([H])(n3nc(-c4c([H])c([H])c(Oc5c([H])c([H])c(F)c([H])c5F)c([H])c4[H])c(C(=O)N([H])[H])c3N([H])[H])C2([H])[H])c(N([H])C([H])([H])C([H])([H])C([H])([H])Oc2c([H])c([H])c3c(c2[H])C([H])([H])N(C(=O)C([H])(N([H])C(=O)C([H])(N([H])C([H])([H])[H])C([H])([H])[H])C(C([H])([H])[H])(C([H])([H])[H])C([H])([H])[H])C([H])(C(=O)N([H])C2([H])c4c([H])c([H])c([H])c([H])c4C([H])([H])C([H])([H])C2([H])[H])C3([H])[H])c(C([H])([H])C([H])([H])[H])c1[H]

$$$$
46:0:0
     RDKit          3D

 93100  0  0  1  0  0  0  0  0999 V2000
  -28.6690  -22.3560   19.9220 C   0  0  0  0  0  3  0  0  0  0  0  0
  -27.8600  -22.3040   18.6770 N   0  0  0  0  0  4  0  0  0  0  0  0
  -28.2700  -21.5630   18.1290 H   0  0  0  0  0  0  0  0  0  0  0  0
  -28.0240  -23.1550   18.1650 H   0  0  0  0  0  0  0  0  0  0  0  0
  -25.6760  -23.0780   19.6660 C   0  0  0  0  0  1  0  0  0  0  0  0
  -25.8100  -22.2020   17.3330 C   0  0  0  0  0  1  0  0  0  0  0  0
  -26.0900  -20.6250   19.2510 C   0  0  0  0  0  1  0  0  0  0  0  0
  -26.3880  -22.0550   18.7540 C   0  0  1  0  0  0  0  0  0  0  0  0
  -28.6070  -24.1950   20.5140 C   0  0  0  0  0  2  0  0  0  0  0  0
  -28.4340  -25.9130   20.2270 O   0  0  0  0  0  0  0  0  0  0  0  0
  -24.6120  -31.9690   23.2720 C   0  0  0  0  0  0  0  0  0  0  0  0
  -27.3750  -27.0290   20.3200 C   0  0  0  0  0  0  0  0  0  0  0  0
  -23.5130  -30.5550   21.5900 C   0  0  0  0  0  3  0  0  0  0  0  0
  -25.0460  -28.9680   20.2130 C   0  0  0  0  0  0  0  0  0  0  0  0
  -26.0870  -30.7880   21.5380 C   0  0  0  0  0  2  0  0  0  0  0  0
  -26.2130  -29.3640   20.8790 C   0  0  0  0  0  0  0  0  0  0  0  0
  -27.3690  -28.4250   20.8910 C   0  0  0  0  0  3  0  0  0  0  0  0
  -26.1660  -26.8290   19.6110 C   0  0  0  0  0  3  0  0  0  0  0  0
  -25.0570  -27.7250   19.5590 C   0  0  0  0  0  3  0  0  0  0  0  0
  -23.8110  -29.8800   20.2220 C   0  0  0  0  0  2  0  0  0  0  0  0
  -24.7590  -31.1360   22.1870 N   0  0  0  0  0  0  0  0  0  0  0  0
  -23.4960  -32.2290   23.7550 O   0  0  0  0  0  0  0  0  0  0  0  0
  -22.8030  -29.5420   22.5290 C   0  0  0  0  0  0  0  0  0  0  0  0
  -21.4780  -29.3590   22.3740 N   0  0  0  0  0  0  0  0  0  0  0  0
  -23.4570  -28.9190   23.3680 O   0  0  0  0  0  0  0  0  0  0  0  0
  -20.9990  -29.9140   21.6780 H   0  0  0  0  0  0  0  0  0  0  0  0
  -18.0970  -28.1180   22.8490 C   0  0  0  0  0  0  0  0  0  0  0  0
  -20.6570  -28.3930   23.1130 C   0  0  0  0  0  3  0  0  0  0  0  0
  -20.7640  -26.9810   22.4900 C   0  0  0  0  0  2  0  0  0  0  0  0
  -19.6620  -26.6880   21.4680 C   0  0  0  0  0  2  0  0  0  0  0  0
  -18.2810  -26.7980   22.1200 C   0  0  0  0  0  2  0  0  0  0  0  0
  -19.2110  -28.8740   23.3020 C   0  0  0  0  0  0  0  0  0  0  0  0
  -18.9820  -30.1080   23.9490 C   0  0  0  0  0  3  0  0  0  0  0  0
  -17.6730  -30.5860   24.1440 C   0  0  0  0  0  3  0  0  0  0  0  0
  -16.5740  -29.8280   23.7050 C   0  0  0  0  0  3  0  0  0  0  0  0
  -16.7870  -28.5960   23.0630 C   0  0  0  0  0  3  0  0  0  0  0  0
  -25.8380  -32.6480   23.9560 C   0  0  0  0  0  3  0  0  0  0  0  0
  -25.4890  -34.0550   24.2310 N   0  0  0  0  0  0  0  0  0  0  0  0
  -25.8390  -35.0990   23.4690 C   0  0  0  0  0  0  0  0  0  0  0  0
  -26.5480  -34.9810   22.4670 O   0  0  0  0  0  0  0  0  0  0  0  0
  -24.8620  -34.2200   25.0050 H   0  0  0  0  0  0  0  0  0  0  0  0
  -24.0960  -36.8680   23.0350 C   0  0  0  0  0  1  0  0  0  0  0  0
  -25.3260  -36.4970   23.8800 C   0  0  0  0  0  3  0  0  0  0  0  0
  -27.4310  -37.4400   24.7280 C   0  0  0  0  0  1  0  0  0  0  0  0
  -26.3470  -37.5610   23.7560 N   0  0  0  0  0  0  0  0  0  0  0  0
  -25.9250  -38.4800   23.8650 H   0  0  0  0  0  0  0  0  0  0  0  0
  -26.2720  -31.9330   25.2960 C   0  0  1  0  0  0  0  0  0  0  0  0
  -25.1100  -31.7180   26.2950 C   0  0  0  0  0  1  0  0  0  0  0  0
  -26.8990  -30.5500   25.0090 C   0  0  0  0  0  1  0  0  0  0  0  0
  -27.3630  -32.7680   26.0050 C   0  0  0  0  0  1  0  0  0  0  0  0
  -29.6820  -20.7150   19.9000 C   0  0  0  0  0  3  0  0  0  0  0  0
  -30.0030  -20.4640   18.5020 N   0  0  0  0  0  0  0  0  0  0  0  0
  -29.3020  -19.9190   18.0110 H   0  0  0  0  0  0  0  0  0  0  0  0
  -30.1710  -21.3110   17.9670 H   0  0  0  0  0  0  0  0  0  0  0  0
  -29.6830  -18.9360   20.6150 C   0  0  0  0  0  2  0  0  0  0  0  0
  -30.5450  -15.9070   20.1920 C   0  0  0  0  0  0  0  0  0  0  0  0
  -30.6620  -13.3830   19.3480 C   0  0  0  0  0  2  0  0  0  0  0  0
  -29.7670  -12.9840   18.1430 C   0  0  0  0  0  2  0  0  0  0  0  0
  -28.3380  -12.6410   18.5980 C   0  0  0  0  0  2  0  0  0  0  0  0
  -27.8300  -13.6360   19.6670 C   0  0  0  0  0  3  0  0  0  0  0  0
  -28.8650  -13.9370   20.7710 C   0  0  0  0  0  2  0  0  0  0  0  0
  -30.0270  -14.5530   20.0930 N   0  0  0  0  0  0  0  0  0  0  0  0
  -31.7880  -15.8670   20.1290 O   0  0  0  0  0  0  0  0  0  0  0  0
  -29.7520  -17.2350   20.1530 N   0  0  0  0  0  0  0  0  0  0  0  0
  -28.8070  -16.9650   19.9240 H   0  0  0  0  0  0  0  0  0  0  0  0
  -25.4750  -14.1520   20.4720 C   0  0  0  0  0  0  0  0  0  0  0  0
  -24.4180  -13.3620   20.8240 C   0  0  0  0  0  0  0  0  0  0  0  0
  -24.8900  -12.0140   20.7520 C   0  0  0  0  0  0  0  0  0  0  0  0
  -26.5180  -13.2870   20.1930 N   0  0  0  0  0  0  0  0  0  0  0  0
  -26.1800  -11.9930   20.4310 N   0  0  0  0  0  0  0  0  0  0  0  0
  -24.1630  -10.7480   20.9100 C   0  0  0  0  0  0  0  0  0  0  0  0
  -24.5830   -9.7630   21.8310 C   0  0  0  0  0  3  0  0  0  0  0  0
  -23.8520   -8.5640   21.9810 C   0  0  0  0  0  3  0  0  0  0  0  0
  -22.6880   -8.3410   21.2070 C   0  0  0  0  0  0  0  0  0  0  0  0
  -22.2880   -9.3150   20.2750 C   0  0  0  0  0  3  0  0  0  0  0  0
  -23.0190  -10.5050   20.1240 C   0  0  0  0  0  3  0  0  0  0  0  0
  -21.9300   -7.1960   21.2670 O   0  0  0  0  0  0  0  0  0  0  0  0
  -21.8530   -6.4430   22.4100 C   0  0  0  0  0  0  0  0  0  0  0  0
  -21.3950   -6.9860   23.6310 C   0  0  0  0  0  3  0  0  0  0  0  0
  -21.2640   -6.1600   24.7650 C   0  0  0  0  0  3  0  0  0  0  0  0
  -21.5820   -4.7910   24.6800 C   0  0  0  0  0  0  0  0  0  0  0  0
  -22.0310   -4.2470   23.4640 C   0  0  0  0  0  3  0  0  0  0  0  0
  -22.1640   -5.0700   22.3320 C   0  0  0  0  0  0  0  0  0  0  0  0
  -22.5780   -4.5360   21.1590 F   0  0  0  0  0  0  0  0  0  0  0  0
  -21.4490   -3.9950   25.7660 F   0  0  0  0  0  0  0  0  0  0  0  0
  -23.0230  -13.8300   21.1080 C   0  0  0  0  0  0  0  0  0  0  0  0
  -22.2990  -13.1170   21.9630 N   0  0  0  0  0  0  0  0  0  0  0  0
  -22.5830  -14.8660   20.6090 O   0  0  0  0  0  0  0  0  0  0  0  0
  -22.6680  -12.2800   22.3900 H   0  0  0  0  0  0  0  0  0  0  0  0
  -21.3630  -13.4150   22.1980 H   0  0  0  0  0  0  0  0  0  0  0  0
  -25.6310  -15.5280   20.3330 N   0  0  0  0  0  0  0  0  0  0  0  0
  -24.8590  -16.1710   20.4740 H   0  0  0  0  0  0  0  0  0  0  0  0
  -26.4690  -15.9850   20.0000 H   0  0  0  0  0  0  0  0  0  0  0  0
  1  9  1  0
  2  8  1  0
  2  1  1  0
  3  2  1  0
  4  2  1  0
  8  6  1  6
  8  7  1  0
  8  5  1  0
 10 12  1  0
 10  9  1  0
 11 22  2  0
 12 17  1  0
 13 21  1  0
 13 23  1  0
 14 20  1  0
 14 16  1  0
 15 21  1  0
 16 17  2  0
 16 15  1  0
 18 12  2  0
 19 18  1  0
 19 14  2  0
 20 13  1  0
 21 11  1  0
 23 25  2  0
 24 23  1  0
 26 24  1  0
 27 36  2  0
 27 32  1  0
 28 24  1  0
 28 32  1  0
 29 28  1  0
 30 31  1  0
 30 29  1  0
 31 27  1  0
 32 33  2  0
 33 34  1  0
 35 34  2  0
 36 35  1  0
 37 11  1  0
 37 38  1  0
 37 47  1  0
 38 41  1  0
 39 43  1  0
 39 38  1  0
 40 39  2  0
 43 42  1  0
 45 46  1  0
 45 43  1  0
 45 44  1  0
 47 50  1  1
 47 48  1  0
 49 47  1  0
 51  1  1  0
 51 55  1  0
 52 51  1  0
 53 52  1  0
 54 52  1  0
 57 62  1  0
 58 59  1  0
 58 57  1  0
 60 59  1  0
 60 69  1  0
 60 61  1  0
 62 56  1  0
 62 61  1  0
 63 56  2  0
 64 56  1  0
 64 55  1  0
 65 64  1  0
 66 67  2  0
 67 86  1  0
 68 67  1  0
 68 71  1  0
 69 70  1  0
 69 66  1  0
 70 68  2  0
 71 72  1  0
 72 73  2  0
 74 77  1  0
 74 73  1  0
 75 74  2  0
 76 75  1  0
 76 71  2  0
 77 78  1  0
 78 79  1  0
 79 80  2  0
 81 80  1  0
 81 85  1  0
 82 81  2  0
 83 78  2  0
 83 82  1  0
 84 83  1  0
 86 87  1  0
 87 90  1  0
 87 89  1  0
 88 86  2  0
 91 66  1  0
 91 92  1  0
 93 91  1  0
M  ISO  4   9 101  10 101  56 100  64 100
M  END
>  <TORSDO>  (46) 
F 22

>  <SCORE>  (46) 
-14.678

>  <name>  (46) 
46

>  <ligand_id>  (46) 
46

>  <original_smiles>  (46) 
[H]c1c([H])c([H])c2c(c1[H])C([H])([H])C([H])([H])C([H])([H])C2([H])N([H])C(=O)C1([H])N(C(=O)C([H])(N([H])C(=O)C([H])(N([H])C([H])([H])[H])C([H])([H])[H])C(C([H])([H])[H])(C([H])([H])[H])C([H])([H])[H])C([H])([H])c2c([H])c(OC([H])([H])C([H])(C([H])(N([H])[H])C([H])([H])N([H])C(=O)N3C([H])([H])C([H])([H])C([H])([H])C([H])(n4nc(-c5c([H])c([H])c(Oc6c([H])c([H])c(F)c([H])c6F)c([H])c5[H])c(C(=O)N([H])[H])c4N([H])[H])C3([H])[H])[N+]([H])([H])C(C([H])([H])[H])(C([H])([H])[H])C([H])([H])[H])c([H])c([H])c2C1([H])[H]

>  <smiles>  (46) 
[H]c1c([H])c([H])c2c(c1[H])C([H])([H])C([H])([H])C([H])([H])C2([H])N([H])C(=O)C1([H])N(C(=O)C([H])(N([H])C(=O)C([H])(N([H])C([H])([H])[H])C([H])([H])[H])C(C([H])([H])[H])(C([H])([H])[H])C([H])([H])[H])C([H])([H])c2c([H])c(OC([H])([H])C([H])(C([H])(N([H])[H])C([H])([H])N([H])C(=O)N3C([H])([H])C([H])([H])C([H])([H])C([H])(n4nc(-c5c([H])c([H])c(Oc6c([H])c([H])c(F)c([H])c6F)c([H])c5[H])c(C(=O)N([H])[H])c4N([H])[H])C3([H])[H])[N+]([H])([H])C(C([H])([H])[H])(C([H])([H])[H])C([H])([H])[H])c([H])c([H])c2C1([H])[H]

$$$$
47:0:0
     RDKit          3D

 91100  0  0  1  0  0  0  0  0999 V2000
  -30.7170  -14.6790   20.3820 C   0  0  0  0  0  0  0  0  0  0  0  0
  -30.5020  -12.4150   19.3670 C   0  0  0  0  0  2  0  0  0  0  0  0
  -29.5780  -12.4640   18.1330 C   0  0  0  0  0  2  0  0  0  0  0  0
  -28.0980  -12.3100   18.5410 C   0  0  0  0  0  2  0  0  0  0  0  0
  -27.7130  -13.1980   19.7570 C   0  0  0  0  0  3  0  0  0  0  0  0
  -28.7640  -13.0560   20.8790 C   0  0  0  0  0  2  0  0  0  0  0  0
  -30.0450  -13.4750   20.2970 N   0  0  0  0  0  0  0  0  0  0  0  0
  -31.9130  -14.6920   20.0680 O   0  0  0  0  0  0  0  0  0  0  0  0
  -30.8400  -19.6740   19.4280 C   0  0  0  0  0  2  0  0  0  0  0  0
  -30.3010  -20.9910   19.5220 C   0  0  0  0  0  3  0  0  0  0  0  0
  -28.3460  -20.0740   20.5950 C   0  0  0  0  0  3  0  0  0  0  0  0
  -30.1440  -18.5330   19.9140 C   0  0  0  0  0  0  0  0  0  0  0  0
  -28.8850  -18.7520   20.4940 C   0  0  0  0  0  0  0  0  0  0  0  0
  -29.0360  -21.2270   20.1160 C   0  0  0  0  0  0  0  0  0  0  0  0
  -28.1220  -17.5280   20.9690 C   0  0  0  0  0  3  0  0  0  0  0  0
  -30.7490  -17.1010   19.8060 C   0  0  0  0  0  3  0  0  0  0  0  0
  -29.0110  -16.3190   21.3860 C   0  0  0  0  0  3  0  0  0  0  0  0
  -30.0420  -15.9050   20.4020 N   0  0  0  0  0  0  0  0  0  0  0  0
  -25.2970  -13.7870   20.3910 C   0  0  0  0  0  0  0  0  0  0  0  0
  -24.2320  -13.0140   20.7650 C   0  0  0  0  0  0  0  0  0  0  0  0
  -24.7120  -11.6690   20.7950 C   0  0  0  0  0  0  0  0  0  0  0  0
  -26.3590  -12.9140   20.2220 N   0  0  0  0  0  0  0  0  0  0  0  0
  -26.0110  -11.6370   20.5220 N   0  0  0  0  0  0  0  0  0  0  0  0
  -23.9970  -10.4050   21.0130 C   0  0  0  0  0  0  0  0  0  0  0  0
  -24.4290   -9.4710   21.9800 C   0  0  0  0  0  3  0  0  0  0  0  0
  -23.7130   -8.2710   22.1860 C   0  0  0  0  0  3  0  0  0  0  0  0
  -22.5520   -7.9990   21.4240 C   0  0  0  0  0  0  0  0  0  0  0  0
  -22.1400   -8.9220   20.4470 C   0  0  0  0  0  3  0  0  0  0  0  0
  -22.8570  -10.1120   20.2390 C   0  0  0  0  0  3  0  0  0  0  0  0
  -21.8080   -6.8500   21.5370 O   0  0  0  0  0  0  0  0  0  0  0  0
  -21.7550   -6.1390   22.7090 C   0  0  0  0  0  0  0  0  0  0  0  0
  -21.3210   -6.7270   23.9190 C   0  0  0  0  0  3  0  0  0  0  0  0
  -21.2160   -5.9420   25.0840 C   0  0  0  0  0  3  0  0  0  0  0  0
  -21.5340   -4.5720   25.0430 C   0  0  0  0  0  0  0  0  0  0  0  0
  -21.9610   -3.9840   23.8390 C   0  0  0  0  0  3  0  0  0  0  0  0
  -22.0680   -4.7650   22.6750 C   0  0  0  0  0  0  0  0  0  0  0  0
  -22.4600   -4.1890   21.5130 F   0  0  0  0  0  0  0  0  0  0  0  0
  -21.4260   -3.8160   26.1600 F   0  0  0  0  0  0  0  0  0  0  0  0
  -22.8230  -13.4820   20.9830 C   0  0  0  0  0  0  0  0  0  0  0  0
  -22.0870  -12.8190   21.8680 N   0  0  0  0  0  0  0  0  0  0  0  0
  -22.3820  -14.4750   20.4050 O   0  0  0  0  0  0  0  0  0  0  0  0
  -22.4560  -12.0180   22.3570 H   0  0  0  0  0  0  0  0  0  0  0  0
  -21.1400  -13.1170   22.0570 H   0  0  0  0  0  0  0  0  0  0  0  0
  -25.4450  -15.1510   20.1590 N   0  0  0  0  0  0  0  0  0  0  0  0
  -24.6620  -15.7930   20.2060 H   0  0  0  0  0  0  0  0  0  0  0  0
  -26.2880  -15.5750   19.7980 H   0  0  0  0  0  0  0  0  0  0  0  0
  -28.4430  -22.5240   20.2610 N   0  0  0  0  0  0  0  0  0  0  0  0
  -27.5360  -22.5530   20.7200 H   0  0  0  0  0  0  0  0  0  0  0  0
  -28.9120  -23.8390   19.7160 C   0  0  0  0  0  2  0  0  0  0  0  0
  -28.0890  -25.0940   20.2580 C   0  0  0  0  0  2  0  0  0  0  0  0
  -28.2860  -26.4490   19.6950 O   0  0  0  0  0  0  0  0  0  0  0  0
  -24.6910  -31.7290   23.0630 C   0  0  0  0  0  0  0  0  0  0  0  0
  -27.1800  -27.3080   19.7370 C   0  0  0  0  0  0  0  0  0  0  0  0
  -23.4270  -30.4040   21.4060 C   0  0  0  0  0  3  0  0  0  0  0  0
  -24.8230  -28.9140   19.8690 C   0  0  0  0  0  0  0  0  0  0  0  0
  -25.9580  -30.7270   21.1510 C   0  0  0  0  0  2  0  0  0  0  0  0
  -26.0120  -29.3780   20.4480 C   0  0  0  0  0  0  0  0  0  0  0  0
  -27.1960  -28.5860   20.3730 C   0  0  0  0  0  3  0  0  0  0  0  0
  -25.9740  -26.9050   19.1220 C   0  0  0  0  0  3  0  0  0  0  0  0
  -24.8050  -27.6830   19.1960 C   0  0  0  0  0  3  0  0  0  0  0  0
  -23.5910  -29.7860   19.9930 C   0  0  0  0  0  2  0  0  0  0  0  0
  -24.7120  -30.9680   21.9310 N   0  0  0  0  0  0  0  0  0  0  0  0
  -23.6280  -31.9880   23.6440 O   0  0  0  0  0  0  0  0  0  0  0  0
  -22.7920  -29.3510   22.3440 C   0  0  0  0  0  0  0  0  0  0  0  0
  -21.4620  -29.1830   22.2540 N   0  0  0  0  0  0  0  0  0  0  0  0
  -23.4940  -28.6870   23.1120 O   0  0  0  0  0  0  0  0  0  0  0  0
  -20.9530  -29.7710   21.6080 H   0  0  0  0  0  0  0  0  0  0  0  0
  -18.0950  -27.9900   22.8210 C   0  0  0  0  0  0  0  0  0  0  0  0
  -20.6630  -28.2190   23.0120 C   0  0  0  0  0  3  0  0  0  0  0  0
  -20.7330  -26.8130   22.3720 C   0  0  0  0  0  2  0  0  0  0  0  0
  -19.5930  -26.5430   21.3840 C   0  0  0  0  0  2  0  0  0  0  0  0
  -18.2360  -26.6700   22.0820 C   0  0  0  0  0  2  0  0  0  0  0  0
  -19.2350  -28.7250   23.2430 C   0  0  0  0  0  0  0  0  0  0  0  0
  -19.0470  -29.9630   23.8970 C   0  0  0  0  0  3  0  0  0  0  0  0
  -17.7530  -30.4660   24.1290 C   0  0  0  0  0  3  0  0  0  0  0  0
  -16.6290  -29.7270   23.7220 C   0  0  0  0  0  3  0  0  0  0  0  0
  -16.8000  -28.4910   23.0740 C   0  0  0  0  0  3  0  0  0  0  0  0
  -25.9970  -32.3300   23.6670 C   0  0  0  0  0  3  0  0  0  0  0  0
  -25.6900  -33.6930   24.1230 N   0  0  0  0  0  0  0  0  0  0  0  0
  -25.9680  -34.8070   23.4330 C   0  0  0  0  0  0  0  0  0  0  0  0
  -26.5810  -34.7960   22.3620 O   0  0  0  0  0  0  0  0  0  0  0  0
  -25.1400  -33.7740   24.9650 H   0  0  0  0  0  0  0  0  0  0  0  0
  -24.2000  -36.5940   23.3170 C   0  0  0  0  0  1  0  0  0  0  0  0
  -25.4900  -36.1480   24.0250 C   0  0  0  0  0  3  0  0  0  0  0  0
  -27.6580  -36.9990   24.8020 C   0  0  0  0  0  1  0  0  0  0  0  0
  -26.5010  -37.2230   23.9390 N   0  0  0  0  0  0  0  0  0  0  0  0
  -26.0940  -38.1210   24.1820 H   0  0  0  0  0  0  0  0  0  0  0  0
  -26.5880  -31.4690   24.8500 C   0  0  1  0  0  0  0  0  0  0  0  0
  -25.5550  -31.1350   25.9520 C   0  0  0  0  0  1  0  0  0  0  0  0
  -27.1590  -30.1320   24.3210 C   0  0  0  0  0  1  0  0  0  0  0  0
  -27.7670  -32.2210   25.5100 C   0  0  0  0  0  1  0  0  0  0  0  0
  1 18  1  0
  2  7  1  0
  3  4  1  0
  3  2  1  0
  5  4  1  0
  5 22  1  0
  5  6  1  0
  7  1  1  0
  7  6  1  0
  8  1  2  0
  9 10  1  0
  9 12  1  0
 10 14  2  0
 12 13  1  0
 13 11  2  0
 13 15  1  0
 14 47  1  0
 14 11  1  0
 15 17  2  0
 16 12  2  0
 16 18  1  0
 18 17  1  0
 19 20  2  0
 20 21  1  0
 20 39  1  0
 21 24  1  0
 22 19  1  0
 22 23  1  0
 23 21  2  0
 24 25  1  0
 25 26  2  0
 27 30  1  0
 27 26  1  0
 28 27  2  0
 29 28  1  0
 29 24  2  0
 30 31  1  0
 31 32  1  0
 32 33  2  0
 34 33  1  0
 34 38  1  0
 35 34  2  0
 36 31  2  0
 36 35  1  0
 37 36  1  0
 39 40  1  0
 40 43  1  0
 40 42  1  0
 41 39  2  0
 44 45  1  0
 44 19  1  0
 46 44  1  0
 47 48  1  0
 49 50  1  0
 49 47  1  0
 51 53  1  0
 51 50  1  0
 52 63  2  0
 53 58  1  0
 54 62  1  0
 54 64  1  0
 55 61  1  0
 55 57  1  0
 56 62  1  0
 57 56  1  0
 58 57  2  0
 59 60  1  0
 59 53  2  0
 60 55  2  0
 61 54  1  0
 62 52  1  0
 64 66  2  0
 65 64  1  0
 67 65  1  0
 68 77  2  0
 68 73  1  0
 69 65  1  0
 69 73  1  0
 70 69  1  0
 71 72  1  0
 71 70  1  0
 72 68  1  0
 73 74  2  0
 74 75  1  0
 76 75  2  0
 77 76  1  0
 78 52  1  0
 78 79  1  0
 78 88  1  0
 79 82  1  0
 80 84  1  0
 80 79  1  0
 81 80  2  0
 84 83  1  0
 86 84  1  0
 86 87  1  0
 86 85  1  0
 88 91  1  1
 88 89  1  0
 90 88  1  0
M  ISO  4   1 100  18 100  50 101  51 101
M  END
>  <TORSDO>  (47) 
F 18

>  <SCORE>  (47) 
-13.395

>  <name>  (47) 
47

>  <ligand_id>  (47) 
47

>  <original_smiles>  (47) 
[H]c1c([H])c([H])c2c(c1[H])C([H])([H])C([H])([H])C([H])([H])C2([H])N([H])C(=O)C1([H])N(C(=O)C([H])(N([H])C(=O)C([H])(N([H])C([H])([H])[H])C([H])([H])[H])C(C([H])([H])[H])(C([H])([H])[H])C([H])([H])[H])C([H])([H])c2c([H])c(OC([H])([H])C([H])([H])N([H])c3c([H])c([H])c4c(c3[H])C([H])([H])C([H])([H])N(C(=O)N3C([H])([H])C([H])([H])C([H])([H])C([H])(n5nc(-c6c([H])c([H])c(Oc7c([H])c([H])c(F)c([H])c7F)c([H])c6[H])c(C(=O)N([H])[H])c5N([H])[H])C3([H])[H])C4([H])[H])c([H])c([H])c2C1([H])[H]

>  <smiles>  (47) 
[H]c1c([H])c([H])c2c(c1[H])C([H])([H])C([H])([H])C([H])([H])C2([H])N([H])C(=O)C1([H])N(C(=O)C([H])(N([H])C(=O)C([H])(N([H])C([H])([H])[H])C([H])([H])[H])C(C([H])([H])[H])(C([H])([H])[H])C([H])([H])[H])C([H])([H])c2c([H])c(OC([H])([H])C([H])([H])N([H])c3c([H])c([H])c4c(c3[H])C([H])([H])C([H])([H])N(C(=O)N3C([H])([H])C([H])([H])C([H])([H])C([H])(n5nc(-c6c([H])c([H])c(Oc7c([H])c([H])c(F)c([H])c7F)c([H])c6[H])c(C(=O)N([H])[H])c5N([H])[H])C3([H])[H])C4([H])[H])c([H])c([H])c2C1([H])[H]

$$$$
48:0:0
     RDKit          3D

 93101  0  0  1  0  0  0  0  0999 V2000
  -29.5070  -20.6610   19.4510 C   0  0  0  0  0  2  0  0  0  0  0  0
  -28.6240  -21.1540   21.7630 C   0  0  0  0  0  2  0  0  0  0  0  0
  -28.7280  -21.9720   19.1440 C   0  0  0  0  0  2  0  0  0  0  0  0
  -28.7450  -22.6830   21.5280 C   0  0  0  0  0  2  0  0  0  0  0  0
  -29.6590  -20.3390   20.9610 C   0  0  0  0  0  3  0  0  0  0  0  0
  -29.0030  -23.0760   20.1080 N   0  0  2  0  0  4  0  0  0  0  0  0
  -29.9990  -23.2420   20.0430 H   0  0  0  0  0  0  0  0  0  0  0  0
  -29.5900  -18.8800   21.2830 N   0  0  0  0  0  4  0  0  0  0  0  0
  -28.6770  -18.5130   21.0650 H   0  0  0  0  0  0  0  0  0  0  0  0
  -29.7030  -18.7940   22.2810 H   0  0  0  0  0  0  0  0  0  0  0  0
  -30.6160  -17.9940   20.6690 C   0  0  0  0  0  2  0  0  0  0  0  0
  -30.9340  -16.7480   21.5440 C   0  0  0  0  0  2  0  0  0  0  0  0
  -30.9230  -14.5830   20.2620 C   0  0  0  0  0  0  0  0  0  0  0  0
  -30.5570  -12.4960   18.9890 C   0  0  0  0  0  2  0  0  0  0  0  0
  -29.5770  -12.7440   17.8260 C   0  0  0  0  0  2  0  0  0  0  0  0
  -28.1170  -12.5990   18.2970 C   0  0  0  0  0  2  0  0  0  0  0  0
  -27.8270  -13.3950   19.5970 C   0  0  0  0  0  3  0  0  0  0  0  0
  -28.9090  -13.1140   20.6630 C   0  0  0  0  0  2  0  0  0  0  0  0
  -30.2210  -13.4320   20.0720 N   0  0  0  0  0  0  0  0  0  0  0  0
  -31.9920  -14.8240   19.6960 O   0  0  0  0  0  0  0  0  0  0  0  0
  -30.3460  -15.4840   21.0760 N   0  0  0  0  0  0  0  0  0  0  0  0
  -29.4650  -15.2060   21.4850 H   0  0  0  0  0  0  0  0  0  0  0  0
  -25.4430  -14.0030   20.3580 C   0  0  0  0  0  0  0  0  0  0  0  0
  -24.3840  -13.2290   20.7520 C   0  0  0  0  0  0  0  0  0  0  0  0
  -24.8460  -11.8780   20.7100 C   0  0  0  0  0  0  0  0  0  0  0  0
  -26.4830  -13.1220   20.1040 N   0  0  0  0  0  0  0  0  0  0  0  0
  -26.1280  -11.8390   20.3720 N   0  0  0  0  0  0  0  0  0  0  0  0
  -24.1250  -10.6160   20.9160 C   0  0  0  0  0  0  0  0  0  0  0  0
  -24.5620   -9.6630   21.8630 C   0  0  0  0  0  3  0  0  0  0  0  0
  -23.8430   -8.4640   22.0560 C   0  0  0  0  0  3  0  0  0  0  0  0
  -22.6730   -8.2090   21.3020 C   0  0  0  0  0  0  0  0  0  0  0  0
  -22.2550   -9.1510   20.3450 C   0  0  0  0  0  3  0  0  0  0  0  0
  -22.9750  -10.3410   20.1500 C   0  0  0  0  0  3  0  0  0  0  0  0
  -21.9250   -7.0610   21.4040 O   0  0  0  0  0  0  0  0  0  0  0  0
  -21.8550   -6.3480   22.5740 C   0  0  0  0  0  0  0  0  0  0  0  0
  -21.3810   -6.9270   23.7710 C   0  0  0  0  0  3  0  0  0  0  0  0
  -21.2620   -6.1390   24.9340 C   0  0  0  0  0  3  0  0  0  0  0  0
  -21.6050   -4.7740   24.9000 C   0  0  0  0  0  0  0  0  0  0  0  0
  -22.0710   -4.1950   23.7060 C   0  0  0  0  0  3  0  0  0  0  0  0
  -22.1930   -4.9800   22.5450 C   0  0  0  0  0  0  0  0  0  0  0  0
  -22.6230   -4.4130   21.3930 F   0  0  0  0  0  0  0  0  0  0  0  0
  -21.4820   -4.0150   26.0130 F   0  0  0  0  0  0  0  0  0  0  0  0
  -22.9940  -13.7060   21.0570 C   0  0  0  0  0  0  0  0  0  0  0  0
  -22.2860  -13.0080   21.9390 N   0  0  0  0  0  0  0  0  0  0  0  0
  -22.5430  -14.7310   20.5480 O   0  0  0  0  0  0  0  0  0  0  0  0
  -22.6640  -12.1780   22.3730 H   0  0  0  0  0  0  0  0  0  0  0  0
  -21.3540  -13.3080   22.1850 H   0  0  0  0  0  0  0  0  0  0  0  0
  -25.6030  -15.3730   20.1740 N   0  0  0  0  0  0  0  0  0  0  0  0
  -24.8330  -16.0230   20.2840 H   0  0  0  0  0  0  0  0  0  0  0  0
  -26.4350  -15.8040   19.7920 H   0  0  0  0  0  0  0  0  0  0  0  0
  -28.3530  -24.3640   19.6950 C   0  0  0  0  0  2  0  0  0  0  0  0
  -28.6160  -25.5690   20.6400 C   0  0  0  0  0  2  0  0  0  0  0  0
  -28.5410  -26.8490   19.9900 O   0  0  0  0  0  0  0  0  0  0  0  0
  -24.6230  -31.8710   23.1970 C   0  0  0  0  0  0  0  0  0  0  0  0
  -27.3430  -27.5260   20.0490 C   0  0  0  0  0  0  0  0  0  0  0  0
  -23.4410  -30.4810   21.5260 C   0  0  0  0  0  3  0  0  0  0  0  0
  -24.9210  -28.9850   20.0840 C   0  0  0  0  0  0  0  0  0  0  0  0
  -25.9600  -30.8820   21.3390 C   0  0  0  0  0  2  0  0  0  0  0  0
  -26.0680  -29.5220   20.6810 C   0  0  0  0  0  0  0  0  0  0  0  0
  -27.2830  -28.8010   20.6560 C   0  0  0  0  0  3  0  0  0  0  0  0
  -26.1790  -26.9980   19.4500 C   0  0  0  0  0  3  0  0  0  0  0  0
  -24.9710  -27.7220   19.4670 C   0  0  0  0  0  3  0  0  0  0  0  0
  -23.6630  -29.8250   20.1380 C   0  0  0  0  0  2  0  0  0  0  0  0
  -24.6930  -31.0920   22.0810 N   0  0  0  0  0  0  0  0  0  0  0  0
  -23.5370  -32.1180   23.7390 O   0  0  0  0  0  0  0  0  0  0  0  0
  -22.8030  -29.4350   22.4670 C   0  0  0  0  0  0  0  0  0  0  0  0
  -21.4800  -29.2370   22.3330 N   0  0  0  0  0  0  0  0  0  0  0  0
  -23.4930  -28.8040   23.2720 O   0  0  0  0  0  0  0  0  0  0  0  0
  -20.9850  -29.8010   21.6560 H   0  0  0  0  0  0  0  0  0  0  0  0
  -18.1210  -27.9960   22.8030 C   0  0  0  0  0  0  0  0  0  0  0  0
  -20.6750  -28.2750   23.0830 C   0  0  0  0  0  3  0  0  0  0  0  0
  -20.7940  -26.8580   22.4770 C   0  0  0  0  0  2  0  0  0  0  0  0
  -19.6960  -26.5450   21.4560 C   0  0  0  0  0  2  0  0  0  0  0  0
  -18.3120  -26.6610   22.1010 C   0  0  0  0  0  2  0  0  0  0  0  0
  -19.2310  -28.7590   23.2510 C   0  0  0  0  0  0  0  0  0  0  0  0
  -18.9990  -30.0090   23.8670 C   0  0  0  0  0  3  0  0  0  0  0  0
  -17.6880  -30.4930   24.0400 C   0  0  0  0  0  3  0  0  0  0  0  0
  -16.5920  -29.7260   23.6110 C   0  0  0  0  0  3  0  0  0  0  0  0
  -16.8100  -28.4780   22.9970 C   0  0  0  0  0  3  0  0  0  0  0  0
  -25.8990  -32.5090   23.8320 C   0  0  0  0  0  3  0  0  0  0  0  0
  -25.5770  -33.9010   24.1670 N   0  0  0  0  0  0  0  0  0  0  0  0
  -25.9070  -34.9600   23.4150 C   0  0  0  0  0  0  0  0  0  0  0  0
  -26.5870  -34.8670   22.3890 O   0  0  0  0  0  0  0  0  0  0  0  0
  -24.9750  -34.0480   24.9640 H   0  0  0  0  0  0  0  0  0  0  0  0
  -24.1720  -36.7430   23.0500 C   0  0  0  0  0  1  0  0  0  0  0  0
  -25.4050  -36.3420   23.8750 C   0  0  0  0  0  3  0  0  0  0  0  0
  -27.5190  -37.2380   24.7440 C   0  0  0  0  0  1  0  0  0  0  0  0
  -26.4320  -37.4030   23.7820 N   0  0  0  0  0  0  0  0  0  0  0  0
  -26.0170  -38.3190   23.9250 H   0  0  0  0  0  0  0  0  0  0  0  0
  -26.4140  -31.7320   25.1050 C   0  0  1  0  0  0  0  0  0  0  0  0
  -25.3160  -31.4740   26.1630 C   0  0  0  0  0  1  0  0  0  0  0  0
  -27.0120  -30.3640   24.7030 C   0  0  0  0  0  1  0  0  0  0  0  0
  -27.5540  -32.5300   25.7800 C   0  0  0  0  0  1  0  0  0  0  0  0
  1  5  1  0
  3  1  1  0
  3  6  1  0
  4  2  1  0
  5  8  1  0
  5  2  1  0
  6  4  1  0
  6  7  1  1
  8 10  1  0
  9  8  1  0
 11  8  1  0
 11 12  1  0
 13 21  1  0
 14 19  1  0
 15 16  1  0
 15 14  1  0
 17 16  1  0
 17 26  1  0
 17 18  1  0
 19 13  1  0
 19 18  1  0
 20 13  2  0
 21 22  1  0
 21 12  1  0
 23 24  2  0
 24 43  1  0
 25 24  1  0
 25 28  1  0
 26 23  1  0
 26 27  1  0
 27 25  2  0
 28 29  1  0
 29 30  2  0
 31 34  1  0
 31 30  1  0
 32 31  2  0
 33 32  1  0
 33 28  2  0
 34 35  1  0
 35 36  1  0
 36 37  2  0
 38 37  1  0
 38 42  1  0
 39 38  2  0
 40 35  2  0
 40 39  1  0
 41 40  1  0
 43 44  1  0
 44 47  1  0
 44 46  1  0
 45 43  2  0
 48 49  1  0
 48 23  1  0
 50 48  1  0
 51  6  1  0
 51 52  1  0
 53 55  1  0
 53 52  1  0
 54 65  2  0
 55 60  1  0
 56 64  1  0
 56 66  1  0
 57 63  1  0
 57 59  1  0
 58 64  1  0
 59 58  1  0
 60 59  2  0
 61 62  1  0
 61 55  2  0
 62 57  2  0
 63 56  1  0
 64 54  1  0
 66 68  2  0
 67 66  1  0
 69 67  1  0
 70 79  2  0
 70 75  1  0
 71 67  1  0
 71 75  1  0
 72 71  1  0
 73 74  1  0
 73 72  1  0
 74 70  1  0
 75 76  2  0
 76 77  1  0
 78 77  2  0
 79 78  1  0
 80 54  1  0
 80 81  1  0
 80 90  1  0
 81 84  1  0
 82 86  1  0
 82 81  1  0
 83 82  2  0
 86 85  1  0
 88 86  1  0
 88 89  1  0
 88 87  1  0
 90 93  1  1
 90 91  1  0
 92 90  1  0
M  ISO  4  13 100  21 100  52 101  53 101
M  END
>  <TORSDO>  (48) 
F 21

>  <SCORE>  (48) 
-13.275

>  <name>  (48) 
48

>  <ligand_id>  (48) 
48

>  <original_smiles>  (48) 
[H]c1c([H])c([H])c2c(c1[H])C([H])([H])C([H])([H])C([H])([H])C2([H])N([H])C(=O)C1([H])N(C(=O)C([H])(N([H])C(=O)C([H])(N([H])C([H])([H])[H])C([H])([H])[H])C(C([H])([H])[H])(C([H])([H])[H])C([H])([H])[H])C([H])([H])c2c([H])c(OC([H])([H])C([H])([H])[N+]3([H])C([H])([H])C([H])([H])C([H])([N+]([H])([H])C([H])([H])C([H])([H])N([H])C(=O)N4C([H])([H])C([H])([H])C([H])([H])C([H])(n5nc(-c6c([H])c([H])c(Oc7c([H])c([H])c(F)c([H])c7F)c([H])c6[H])c(C(=O)N([H])[H])c5N([H])[H])C4([H])[H])C([H])([H])C3([H])[H])c([H])c([H])c2C1([H])[H]

>  <smiles>  (48) 
[H]c1c([H])c([H])c2c(c1[H])C([H])([H])C([H])([H])C([H])([H])C2([H])N([H])C(=O)C1([H])N(C(=O)C([H])(N([H])C(=O)C([H])(N([H])C([H])([H])[H])C([H])([H])[H])C(C([H])([H])[H])(C([H])([H])[H])C([H])([H])[H])C([H])([H])c2c([H])c(OC([H])([H])C([H])([H])[N+]3([H])C([H])([H])C([H])([H])C([H])([N+]([H])([H])C([H])([H])C([H])([H])N([H])C(=O)N4C([H])([H])C([H])([H])C([H])([H])C([H])(n5nc(-c6c([H])c([H])c(Oc7c([H])c([H])c(F)c([H])c7F)c([H])c6[H])c(C(=O)N([H])[H])c5N([H])[H])C4([H])[H])C([H])([H])C3([H])[H])c([H])c([H])c2C1([H])[H]

$$$$
49:0:0
     RDKit          3D

 93102  0  0  1  0  0  0  0  0999 V2000
  -31.3900  -18.3780   24.0400 C   0  0  0  0  0  3  0  0  0  0  0  0
  -30.5230  -17.3130   23.7410 C   0  0  0  0  0  3  0  0  0  0  0  0
  -31.7210  -19.3120   23.0420 C   0  0  0  0  0  3  0  0  0  0  0  0
  -29.9990  -17.1720   22.4430 C   0  0  0  0  0  3  0  0  0  0  0  0
  -31.1960  -19.1840   21.7390 C   0  0  0  0  0  0  0  0  0  0  0  0
  -30.3430  -18.0910   21.4220 C   0  0  0  0  0  0  0  0  0  0  0  0
  -29.3680  -19.5540   19.5440 C   0  0  0  0  0  3  0  0  0  0  0  0
  -31.5350  -20.2680   20.7100 C   0  0  0  0  0  2  0  0  0  0  0  0
  -30.7170  -20.2550   19.3960 C   0  0  0  0  0  2  0  0  0  0  0  0
  -29.8060  -17.9530   19.9920 C   0  0  0  0  0  3  0  0  0  0  0  0
  -28.2690  -20.3500   19.4780 N   0  0  0  0  0  2  0  0  0  0  0  0
  -30.1070  -15.2800   19.5120 C   0  0  0  0  0  0  0  0  0  0  0  0
  -30.0420  -12.8920   18.6340 C   0  0  0  0  0  2  0  0  0  0  0  0
  -28.9890  -12.7160   17.5180 C   0  0  0  0  0  2  0  0  0  0  0  0
  -27.6070  -12.4070   18.1220 C   0  0  0  0  0  2  0  0  0  0  0  0
  -27.2570  -13.3430   19.3080 C   0  0  0  0  0  3  0  0  0  0  0  0
  -28.4240  -13.4970   20.3040 C   0  0  0  0  0  2  0  0  0  0  0  0
  -29.5700  -13.9900   19.5310 N   0  0  0  0  0  0  0  0  0  0  0  0
  -31.2870  -15.3660   19.1550 O   0  0  0  0  0  0  0  0  0  0  0  0
  -29.3200  -16.4670   19.7040 N   0  0  0  0  0  0  0  0  0  0  0  0
  -28.3340  -16.3150   19.8490 H   0  0  0  0  0  0  0  0  0  0  0  0
  -24.9650  -13.7720   20.3550 C   0  0  0  0  0  0  0  0  0  0  0  0
  -23.9970  -12.9330   20.8330 C   0  0  0  0  0  0  0  0  0  0  0  0
  -24.5250  -11.6110   20.7130 C   0  0  0  0  0  0  0  0  0  0  0  0
  -26.0140  -12.9580   19.9660 N   0  0  0  0  0  0  0  0  0  0  0  0
  -25.7690  -11.6510   20.2460 N   0  0  0  0  0  0  0  0  0  0  0  0
  -23.8920  -10.3080   20.9560 C   0  0  0  0  0  0  0  0  0  0  0  0
  -24.3780   -9.4250   21.9470 C   0  0  0  0  0  3  0  0  0  0  0  0
  -23.7380   -8.1870   22.1770 C   0  0  0  0  0  3  0  0  0  0  0  0
  -22.6020   -7.8220   21.4160 C   0  0  0  0  0  0  0  0  0  0  0  0
  -22.1380   -8.6950   20.4160 C   0  0  0  0  0  3  0  0  0  0  0  0
  -22.7780   -9.9240   20.1850 C   0  0  0  0  0  3  0  0  0  0  0  0
  -21.9320   -6.6300   21.5520 O   0  0  0  0  0  0  0  0  0  0  0  0
  -21.7670   -6.0340   22.7770 C   0  0  0  0  0  0  0  0  0  0  0  0
  -21.0950   -6.6810   23.8360 C   0  0  0  0  0  3  0  0  0  0  0  0
  -20.8860   -6.0040   25.0540 C   0  0  0  0  0  3  0  0  0  0  0  0
  -21.3380   -4.6810   25.2120 C   0  0  0  0  0  0  0  0  0  0  0  0
  -22.0040   -4.0330   24.1570 C   0  0  0  0  0  3  0  0  0  0  0  0
  -22.2140   -4.7060   22.9410 C   0  0  0  0  0  0  0  0  0  0  0  0
  -22.8370   -4.0700   21.9190 F   0  0  0  0  0  0  0  0  0  0  0  0
  -21.1320   -4.0280   26.3800 F   0  0  0  0  0  0  0  0  0  0  0  0
  -22.6210  -13.3290   21.2800 C   0  0  0  0  0  0  0  0  0  0  0  0
  -22.0460  -12.5910   22.2220 N   0  0  0  0  0  0  0  0  0  0  0  0
  -22.0650  -14.3280   20.8260 O   0  0  0  0  0  0  0  0  0  0  0  0
  -22.5100  -11.7840   22.6100 H   0  0  0  0  0  0  0  0  0  0  0  0
  -21.1280  -12.8390   22.5630 H   0  0  0  0  0  0  0  0  0  0  0  0
  -25.0310  -15.1520   20.1910 N   0  0  0  0  0  0  0  0  0  0  0  0
  -24.2430  -15.7550   20.4050 H   0  0  0  0  0  0  0  0  0  0  0  0
  -25.7880  -15.6430   19.7340 H   0  0  0  0  0  0  0  0  0  0  0  0
  -28.2080  -21.9200   19.8370 C   0  0  0  0  0  3  0  0  0  0  0  0
  -27.6980  -23.2510   18.9010 C   0  0  0  0  0  3  0  0  0  0  0  0
  -27.2430  -24.7810   19.5290 C   0  0  0  0  0  2  0  0  0  0  0  0
  -27.3100  -26.2420   18.9480 O   0  0  0  0  0  0  0  0  0  0  0  0
  -24.5000  -31.7430   23.0680 C   0  0  0  0  0  0  0  0  0  0  0  0
  -26.3260  -27.2700   19.2170 C   0  0  0  0  0  0  0  0  0  0  0  0
  -23.0030  -30.6130   21.4710 C   0  0  0  0  0  3  0  0  0  0  0  0
  -24.1390  -29.1350   19.6980 C   0  0  0  0  0  0  0  0  0  0  0  0
  -25.5240  -30.7600   20.9790 C   0  0  0  0  0  2  0  0  0  0  0  0
  -25.4180  -29.4470   20.1780 C   0  0  0  0  0  0  0  0  0  0  0  0
  -26.5140  -28.5360   19.9140 C   0  0  0  0  0  3  0  0  0  0  0  0
  -25.0230  -27.0650   18.7210 C   0  0  0  0  0  3  0  0  0  0  0  0
  -23.9550  -27.9600   18.9520 C   0  0  0  0  0  3  0  0  0  0  0  0
  -22.9930  -30.0890   20.0100 C   0  0  0  0  0  2  0  0  0  0  0  0
  -24.3720  -31.0530   21.8930 N   0  0  0  0  0  0  0  0  0  0  0  0
  -23.5150  -32.0200   23.7710 O   0  0  0  0  0  0  0  0  0  0  0  0
  -22.3910  -29.5380   22.4040 C   0  0  0  0  0  0  0  0  0  0  0  0
  -21.0670  -29.3210   22.3050 N   0  0  0  0  0  0  0  0  0  0  0  0
  -23.1090  -28.9020   23.1790 O   0  0  0  0  0  0  0  0  0  0  0  0
  -20.5400  -29.8870   21.6550 H   0  0  0  0  0  0  0  0  0  0  0  0
  -17.7860  -27.8370   22.7100 C   0  0  0  0  0  0  0  0  0  0  0  0
  -20.3050  -28.3170   23.0540 C   0  0  0  0  0  3  0  0  0  0  0  0
  -20.5450  -26.8980   22.4860 C   0  0  0  0  0  2  0  0  0  0  0  0
  -19.5060  -26.4840   21.4390 C   0  0  0  0  0  2  0  0  0  0  0  0
  -18.0980  -26.5080   22.0420 C   0  0  0  0  0  2  0  0  0  0  0  0
  -18.8220  -28.6930   23.1710 C   0  0  0  0  0  0  0  0  0  0  0  0
  -18.4770  -29.9300   23.7580 C   0  0  0  0  0  3  0  0  0  0  0  0
  -17.1280  -30.3140   23.8870 C   0  0  0  0  0  3  0  0  0  0  0  0
  -16.1080  -29.4570   23.4420 C   0  0  0  0  0  3  0  0  0  0  0  0
  -16.4370  -28.2200   22.8590 C   0  0  0  0  0  3  0  0  0  0  0  0
  -25.8890  -32.2350   23.5790 C   0  0  0  0  0  3  0  0  0  0  0  0
  -26.4870  -31.3250   24.7220 C   0  0  1  0  0  0  0  0  0  0  0  0
  -25.4970  -31.0470   25.8780 C   0  0  0  0  0  1  0  0  0  0  0  0
  -26.9430  -29.9600   24.1580 C   0  0  0  0  0  1  0  0  0  0  0  0
  -27.7460  -31.9960   25.3210 C   0  0  0  0  0  1  0  0  0  0  0  0
  -25.7280  -33.6180   24.0570 N   0  0  0  0  0  0  0  0  0  0  0  0
  -26.0950  -34.7110   23.3760 C   0  0  0  0  0  0  0  0  0  0  0  0
  -26.6720  -34.6540   22.2860 O   0  0  0  0  0  0  0  0  0  0  0  0
  -25.2130  -33.7410   24.9170 H   0  0  0  0  0  0  0  0  0  0  0  0
  -24.5200  -36.6740   23.3330 C   0  0  0  0  0  1  0  0  0  0  0  0
  -25.7750  -36.0850   23.9990 C   0  0  0  0  0  3  0  0  0  0  0  0
  -28.0340  -36.7030   24.7370 C   0  0  0  0  0  1  0  0  0  0  0  0
  -26.8890  -37.0530   23.9000 N   0  0  0  0  0  0  0  0  0  0  0  0
  -26.5800  -37.9870   24.1590 H   0  0  0  0  0  0  0  0  0  0  0  0
  2  1  1  0
  3  1  2  0
  4  2  2  0
  5  3  1  0
  6  5  2  0
  6  4  1  0
  7 11  1  0
  7 10  1  0
  8  5  1  0
  9  7  1  0
  9  8  1  0
 10 20  1  0
 10  6  1  0
 11 50  1  0
 12 18  1  0
 12 20  1  0
 13 18  1  0
 14 15  1  0
 14 13  1  0
 16 15  1  0
 16 25  1  0
 16 17  1  0
 18 17  1  0
 19 12  2  0
 20 21  1  0
 22 23  2  0
 23 42  1  0
 24 23  1  0
 24 27  1  0
 25 26  1  0
 25 22  1  0
 26 24  2  0
 27 28  1  0
 28 29  2  0
 30 33  1  0
 30 29  1  0
 31 30  2  0
 32 31  1  0
 32 27  2  0
 33 34  1  0
 34 39  2  0
 34 35  1  0
 35 36  2  0
 36 37  1  0
 37 41  1  0
 38 37  2  0
 39 38  1  0
 40 39  1  0
 42 43  1  0
 43 46  1  0
 43 45  1  0
 44 42  2  0
 47 22  1  0
 47 48  1  0
 49 47  1  0
 51 52  1  0
 51 50  2  0
 53 55  1  0
 53 52  1  0
 54 65  2  0
 55 60  1  0
 56 64  1  0
 56 66  1  0
 57 63  1  0
 57 59  1  0
 58 64  1  0
 59 58  1  0
 60 59  2  0
 61 62  1  0
 61 55  2  0
 62 57  2  0
 63 56  1  0
 64 54  1  0
 66 68  2  0
 67 66  1  0
 69 67  1  0
 70 79  2  0
 70 75  1  0
 71 67  1  0
 71 75  1  0
 72 71  1  0
 73 74  1  0
 73 72  1  0
 74 70  1  0
 75 76  2  0
 76 77  1  0
 78 77  2  0
 79 78  1  0
 80 54  1  0
 80 85  1  0
 80 81  1  0
 81 84  1  1
 81 82  1  0
 83 81  1  0
 85 88  1  0
 86 90  1  0
 86 85  1  0
 87 86  2  0
 90 89  1  0
 92 90  1  0
 92 93  1  0
 92 91  1  0
M  ISO  4  12 100  20 100  52 101  53 101
M  END
>  <TORSDO>  (49) 
F 19

>  <SCORE>  (49) 
-10.944

>  <name>  (49) 
49

>  <ligand_id>  (49) 
49

>  <original_smiles>  (49) 
[H]c1c([H])c([H])c2c(c1[H])C([H])(N([H])C(=O)N1C([H])([H])C([H])([H])C([H])([H])C([H])(n3nc(-c4c([H])c([H])c(Oc5c([H])c([H])c(F)c([H])c5F)c([H])c4[H])c(C(=O)N([H])[H])c3N([H])[H])C1([H])[H])C(=NC([H])([H])C([H])([H])C([H])([H])Oc1c([H])c([H])c3c(c1[H])C([H])([H])N(C(=O)C([H])(N([H])C(=O)C([H])(N([H])C([H])([H])[H])C([H])([H])[H])C(C([H])([H])[H])(C([H])([H])[H])C([H])([H])[H])C([H])(C(=O)N([H])C1([H])c4c([H])c([H])c([H])c([H])c4C([H])([H])C([H])([H])C1([H])[H])C3([H])[H])C([H])([H])C2([H])[H]

>  <smiles>  (49) 
[H]c1c([H])c([H])c2c(c1[H])C([H])(N([H])C(=O)N1C([H])([H])C([H])([H])C([H])([H])C([H])(n3nc(-c4c([H])c([H])c(Oc5c([H])c([H])c(F)c([H])c5F)c([H])c4[H])c(C(=O)N([H])[H])c3N([H])[H])C1([H])[H])C(=NC([H])([H])C([H])([H])C([H])([H])Oc1c([H])c([H])c3c(c1[H])C([H])([H])N(C(=O)C([H])(N([H])C(=O)C([H])(N([H])C([H])([H])[H])C([H])([H])[H])C(C([H])([H])[H])(C([H])([H])[H])C([H])([H])[H])C([H])(C(=O)N([H])C1([H])c4c([H])c([H])c([H])c([H])c4C([H])([H])C([H])([H])C1([H])[H])C3([H])[H])C([H])([H])C2([H])[H]

$$$$
50:0:0
     RDKit          3D

 91 98  0  0  1  0  0  0  0  0999 V2000
  -29.4210  -20.5470   19.9440 N   0  0  1  0  0  4  0  0  0  0  0  0
  -30.2460  -20.7400   19.3950 H   0  0  0  0  0  0  0  0  0  0  0  0
  -27.2000  -19.3920   19.4270 C   0  0  0  0  0  1  0  0  0  0  0  0
  -28.7940  -20.0740   17.5350 C   0  0  0  0  0  1  0  0  0  0  0  0
  -28.2990  -20.3720   18.9630 C   0  0  0  0  0  3  0  0  0  0  0  0
  -29.2260  -21.7760   20.7920 C   0  0  0  0  0  2  0  0  0  0  0  0
  -29.3860  -23.1290   20.0780 C   0  0  0  0  0  3  0  0  0  0  0  0
  -28.5100  -24.1650   20.1140 C   0  0  0  0  0  3  0  0  0  0  0  0
  -28.7340  -25.5240   19.4400 C   0  0  0  0  0  2  0  0  0  0  0  0
  -28.5040  -26.6610   20.3040 O   0  0  0  0  0  0  0  0  0  0  0  0
  -24.5380  -31.7970   23.3020 C   0  0  0  0  0  0  0  0  0  0  0  0
  -27.3110  -27.3720   20.2590 C   0  0  0  0  0  0  0  0  0  0  0  0
  -23.4030  -30.4190   21.5920 C   0  0  0  0  0  3  0  0  0  0  0  0
  -24.9140  -28.8990   20.2080 C   0  0  0  0  0  0  0  0  0  0  0  0
  -25.9390  -30.7700   21.5110 C   0  0  0  0  0  2  0  0  0  0  0  0
  -26.0500  -29.4060   20.8520 C   0  0  0  0  0  0  0  0  0  0  0  0
  -27.2460  -28.6490   20.8760 C   0  0  0  0  0  3  0  0  0  0  0  0
  -26.1420  -26.8760   19.6350 C   0  0  0  0  0  3  0  0  0  0  0  0
  -24.9560  -27.6340   19.6020 C   0  0  0  0  0  3  0  0  0  0  0  0
  -23.6720  -29.7620   20.2120 C   0  0  0  0  0  2  0  0  0  0  0  0
  -24.6430  -31.0100   22.1930 N   0  0  0  0  0  0  0  0  0  0  0  0
  -23.4330  -32.0620   23.7980 O   0  0  0  0  0  0  0  0  0  0  0  0
  -22.7130  -29.3820   22.5090 C   0  0  0  0  0  0  0  0  0  0  0  0
  -21.3950  -29.2020   22.3240 N   0  0  0  0  0  0  0  0  0  0  0  0
  -23.3620  -28.7460   23.3430 O   0  0  0  0  0  0  0  0  0  0  0  0
  -20.9350  -29.7700   21.6260 H   0  0  0  0  0  0  0  0  0  0  0  0
  -17.9970  -28.0280   22.6890 C   0  0  0  0  0  0  0  0  0  0  0  0
  -20.5470  -28.2510   23.0440 C   0  0  0  0  0  3  0  0  0  0  0  0
  -20.6540  -26.8360   22.4330 C   0  0  0  0  0  2  0  0  0  0  0  0
  -19.5800  -26.5510   21.3790 C   0  0  0  0  0  2  0  0  0  0  0  0
  -18.1800  -26.6940   21.9840 C   0  0  0  0  0  2  0  0  0  0  0  0
  -19.1100  -28.7660   23.1720 C   0  0  0  0  0  0  0  0  0  0  0  0
  -18.8870  -30.0170   23.7890 C   0  0  0  0  0  3  0  0  0  0  0  0
  -17.5840  -30.5280   23.9310 C   0  0  0  0  0  3  0  0  0  0  0  0
  -16.4850  -29.7870   23.4650 C   0  0  0  0  0  3  0  0  0  0  0  0
  -16.6920  -28.5390   22.8490 C   0  0  0  0  0  3  0  0  0  0  0  0
  -25.7940  -32.4200   23.9850 C   0  0  0  0  0  3  0  0  0  0  0  0
  -25.5000  -33.8350   24.2460 N   0  0  0  0  0  0  0  0  0  0  0  0
  -25.9030  -34.8520   23.4720 C   0  0  0  0  0  0  0  0  0  0  0  0
  -26.6320  -34.6960   22.4880 O   0  0  0  0  0  0  0  0  0  0  0  0
  -24.8620  -34.0330   25.0030 H   0  0  0  0  0  0  0  0  0  0  0  0
  -24.2400  -36.6650   22.9520 C   0  0  0  0  0  1  0  0  0  0  0  0
  -25.4220  -36.2650   23.8490 C   0  0  0  0  0  3  0  0  0  0  0  0
  -27.5140  -37.1440   24.7850 C   0  0  0  0  0  1  0  0  0  0  0  0
  -26.4820  -37.2920   23.7620 N   0  0  0  0  0  0  0  0  0  0  0  0
  -26.0870  -38.2250   23.8420 H   0  0  0  0  0  0  0  0  0  0  0  0
  -26.2060  -31.6820   25.3190 C   0  0  1  0  0  0  0  0  0  0  0  0
  -25.0360  -31.5000   26.3150 C   0  0  0  0  0  1  0  0  0  0  0  0
  -26.7890  -30.2840   25.0110 C   0  0  0  0  0  1  0  0  0  0  0  0
  -27.3240  -32.4790   26.0340 C   0  0  0  0  0  1  0  0  0  0  0  0
  -29.7710  -19.3550   20.8040 C   0  0  0  0  0  2  0  0  0  0  0  0
  -29.9470  -17.9520   20.1260 C   0  0  0  0  0  2  0  0  0  0  0  0
  -30.4990  -16.8630   21.0970 C   0  0  0  0  0  2  0  0  0  0  0  0
  -30.7530  -14.4920   20.1970 C   0  0  0  0  0  0  0  0  0  0  0  0
  -30.3890  -12.3710   18.9810 C   0  0  0  0  0  2  0  0  0  0  0  0
  -29.3870  -12.6280   17.8350 C   0  0  0  0  0  2  0  0  0  0  0  0
  -27.9360  -12.4830   18.3360 C   0  0  0  0  0  2  0  0  0  0  0  0
  -27.6710  -13.2770   19.6440 C   0  0  0  0  0  3  0  0  0  0  0  0
  -28.7790  -13.0010   20.6850 C   0  0  0  0  0  2  0  0  0  0  0  0
  -30.0730  -13.3200   20.0600 N   0  0  0  0  0  0  0  0  0  0  0  0
  -31.8640  -14.6890   19.7000 O   0  0  0  0  0  0  0  0  0  0  0  0
  -30.0630  -15.4840   20.7950 N   0  0  0  0  0  0  0  0  0  0  0  0
  -29.1490  -15.2210   21.1320 H   0  0  0  0  0  0  0  0  0  0  0  0
  -25.3120  -13.8840   20.4740 C   0  0  0  0  0  0  0  0  0  0  0  0
  -24.2560  -13.1110   20.8730 C   0  0  0  0  0  0  0  0  0  0  0  0
  -24.7050  -11.7580   20.7940 C   0  0  0  0  0  0  0  0  0  0  0  0
  -26.3400  -13.0020   20.1780 N   0  0  0  0  0  0  0  0  0  0  0  0
  -25.9800  -11.7160   20.4270 N   0  0  0  0  0  0  0  0  0  0  0  0
  -23.9800  -10.4950   20.9900 C   0  0  0  0  0  0  0  0  0  0  0  0
  -24.4220   -9.5250   21.9160 C   0  0  0  0  0  3  0  0  0  0  0  0
  -23.6960   -8.3280   22.0990 C   0  0  0  0  0  3  0  0  0  0  0  0
  -22.5150   -8.0940   21.3560 C   0  0  0  0  0  0  0  0  0  0  0  0
  -22.0910   -9.0530   20.4200 C   0  0  0  0  0  3  0  0  0  0  0  0
  -22.8170  -10.2420   20.2340 C   0  0  0  0  0  3  0  0  0  0  0  0
  -21.7600   -6.9500   21.4490 O   0  0  0  0  0  0  0  0  0  0  0  0
  -21.7000   -6.2200   22.6090 C   0  0  0  0  0  0  0  0  0  0  0  0
  -21.2090   -6.7710   23.8120 C   0  0  0  0  0  3  0  0  0  0  0  0
  -21.1000   -5.9650   24.9620 C   0  0  0  0  0  3  0  0  0  0  0  0
  -21.4710   -4.6090   24.9110 C   0  0  0  0  0  0  0  0  0  0  0  0
  -21.9540   -4.0560   23.7130 C   0  0  0  0  0  3  0  0  0  0  0  0
  -22.0660   -4.8590   22.5630 C   0  0  0  0  0  0  0  0  0  0  0  0
  -22.5120   -4.3160   21.4050 F   0  0  0  0  0  0  0  0  0  0  0  0
  -21.3580   -3.8320   26.0140 F   0  0  0  0  0  0  0  0  0  0  0  0
  -22.8760  -13.5910   21.2190 C   0  0  0  0  0  0  0  0  0  0  0  0
  -22.1820  -12.8760   22.0990 N   0  0  0  0  0  0  0  0  0  0  0  0
  -22.4230  -14.6330   20.7460 O   0  0  0  0  0  0  0  0  0  0  0  0
  -22.5610  -12.0320   22.5000 H   0  0  0  0  0  0  0  0  0  0  0  0
  -21.2590  -13.1790   22.3760 H   0  0  0  0  0  0  0  0  0  0  0  0
  -25.4780  -15.2580   20.3190 N   0  0  0  0  0  0  0  0  0  0  0  0
  -24.7170  -15.9090   20.4740 H   0  0  0  0  0  0  0  0  0  0  0  0
  -26.3100  -15.7020   19.9550 H   0  0  0  0  0  0  0  0  0  0  0  0
  1  6  1  0
  1 51  1  0
  1  2  1  6
  4  5  1  0
  5  3  1  0
  5  1  1  0
  7  8  2  0
  7  6  1  0
  9  8  1  0
  9 10  1  0
 11 22  2  0
 12 10  1  0
 12 17  1  0
 13 21  1  0
 13 23  1  0
 14 20  1  0
 14 16  1  0
 15 21  1  0
 16 17  2  0
 16 15  1  0
 18 12  2  0
 19 18  1  0
 19 14  2  0
 20 13  1  0
 21 11  1  0
 23 25  2  0
 24 23  1  0
 26 24  1  0
 27 36  2  0
 27 32  1  0
 28 24  1  0
 28 32  1  0
 29 28  1  0
 30 31  1  0
 30 29  1  0
 31 27  1  0
 32 33  2  0
 33 34  1  0
 35 34  2  0
 36 35  1  0
 37 11  1  0
 37 38  1  0
 37 47  1  0
 38 41  1  0
 39 43  1  0
 39 38  1  0
 40 39  2  0
 43 42  1  0
 45 46  1  0
 45 43  1  0
 45 44  1  0
 47 50  1  1
 47 48  1  0
 49 47  1  0
 52 51  1  0
 52 53  1  0
 54 62  1  0
 55 60  1  0
 56 57  1  0
 56 55  1  0
 58 57  1  0
 58 67  1  0
 58 59  1  0
 60 54  1  0
 60 59  1  0
 61 54  2  0
 62 53  1  0
 62 63  1  0
 64 65  2  0
 65 84  1  0
 66 65  1  0
 66 69  1  0
 67 68  1  0
 67 64  1  0
 68 66  2  0
 69 70  1  0
 70 71  2  0
 72 75  1  0
 72 71  1  0
 73 72  2  0
 74 73  1  0
 74 69  2  0
 75 76  1  0
 76 77  1  0
 77 78  2  0
 79 78  1  0
 79 83  1  0
 80 79  2  0
 81 76  2  0
 81 80  1  0
 82 81  1  0
 84 85  1  0
 85 88  1  0
 85 87  1  0
 86 84  2  0
 89 64  1  0
 89 90  1  0
 91 89  1  0
M  ISO  4   9 101  10 101  54 100  62 100
M  END
>  <TORSDO>  (50) 
F 23

>  <SCORE>  (50) 
-12.571

>  <name>  (50) 
50

>  <ligand_id>  (50) 
50

>  <original_smiles>  (50) 
[H]C(=C([H])C([H])([H])[N+]([H])(C([H])([H])C([H])([H])C([H])([H])N([H])C(=O)N1C([H])([H])C([H])([H])C([H])([H])C([H])(n2nc(-c3c([H])c([H])c(Oc4c([H])c([H])c(F)c([H])c4F)c([H])c3[H])c(C(=O)N([H])[H])c2N([H])[H])C1([H])[H])C([H])(C([H])([H])[H])C([H])([H])[H])C([H])([H])Oc1c([H])c([H])c2c(c1[H])C([H])([H])N(C(=O)C([H])(N([H])C(=O)C([H])(N([H])C([H])([H])[H])C([H])([H])[H])C(C([H])([H])[H])(C([H])([H])[H])C([H])([H])[H])C([H])(C(=O)N([H])C1([H])c3c([H])c([H])c([H])c([H])c3C([H])([H])C([H])([H])C1([H])[H])C2([H])[H]

>  <smiles>  (50) 
[H]C(=C([H])C([H])([H])[N+]([H])(C([H])([H])C([H])([H])C([H])([H])N([H])C(=O)N1C([H])([H])C([H])([H])C([H])([H])C([H])(n2nc(-c3c([H])c([H])c(Oc4c([H])c([H])c(F)c([H])c4F)c([H])c3[H])c(C(=O)N([H])[H])c2N([H])[H])C1([H])[H])C([H])(C([H])([H])[H])C([H])([H])[H])C([H])([H])Oc1c([H])c([H])c2c(c1[H])C([H])([H])N(C(=O)C([H])(N([H])C(=O)C([H])(N([H])C([H])([H])[H])C([H])([H])[H])C(C([H])([H])[H])(C([H])([H])[H])C([H])([H])[H])C([H])(C(=O)N([H])C1([H])c3c([H])c([H])c([H])c([H])c3C([H])([H])C([H])([H])C1([H])[H])C2([H])[H]

$$$$
51:0:0
     RDKit          3D

 97102  0  0  1  0  0  0  0  0999 V2000
  -28.8810  -21.3470   20.1440 C   0  0  0  0  0  1  0  0  0  0  0  0
  -29.8280  -21.5190   21.2870 N   0  0  0  0  0  4  0  0  0  0  0  0
  -29.5270  -22.3340   21.7960 H   0  0  0  0  0  0  0  0  0  0  0  0
  -29.7330  -20.7410   21.9200 H   0  0  0  0  0  0  0  0  0  0  0  0
  -31.2680  -21.7240   20.9350 C   0  0  0  0  0  3  0  0  0  0  0  0
  -32.1850  -20.6650   21.6110 C   0  0  0  0  0  2  0  0  0  0  0  0
  -36.1570  -20.2860   19.8510 C   0  0  0  0  0  3  0  0  0  0  0  0
  -35.9510  -21.1130   20.9700 C   0  0  0  0  0  3  0  0  0  0  0  0
  -35.0810  -19.5690   19.3010 C   0  0  0  0  0  3  0  0  0  0  0  0
  -34.6660  -21.2300   21.5330 C   0  0  0  0  0  3  0  0  0  0  0  0
  -33.7890  -19.6820   19.8570 C   0  0  0  0  0  0  0  0  0  0  0  0
  -33.5710  -20.5280   20.9780 C   0  0  0  0  0  0  0  0  0  0  0  0
  -32.6620  -18.8670   19.2470 C   0  0  0  0  0  1  0  0  0  0  0  0
  -31.7310  -23.1570   21.2970 C   0  0  0  0  0  2  0  0  0  0  0  0
  -31.6650  -25.6480   20.7460 C   0  0  0  0  0  1  0  0  0  0  0  0
  -30.9760  -24.2850   20.5710 C   0  0  0  0  0  2  0  0  0  0  0  0
  -28.8390  -19.2710   19.7840 C   0  0  0  0  0  1  0  0  0  0  0  0
  -30.0070  -16.0200   20.1700 C   0  0  0  0  0  0  0  0  0  0  0  0
  -30.2980  -13.3550   19.5210 C   0  0  0  0  0  2  0  0  0  0  0  0
  -29.4780  -12.7270   18.3440 C   0  0  0  0  0  2  0  0  0  0  0  0
  -28.0920  -12.2700   18.8120 C   0  0  0  0  0  2  0  0  0  0  0  0
  -27.4920  -13.3030   19.7860 C   0  0  0  0  0  3  0  0  0  0  0  0
  -28.4760  -13.8220   20.8760 C   0  0  0  0  0  2  0  0  0  0  0  0
  -29.5820  -14.5680   20.1980 N   0  0  0  0  0  0  0  0  0  0  0  0
  -31.2300  -15.9350   19.9080 O   0  0  0  0  0  0  0  0  0  0  0  0
  -29.2110  -17.4560   20.2770 N   0  0  0  0  0  0  0  0  0  0  0  0
  -28.3390  -17.1560   20.6920 H   0  0  0  0  0  0  0  0  0  0  0  0
  -25.1270  -13.7460   20.5680 C   0  0  0  0  0  0  0  0  0  0  0  0
  -24.0890  -12.9380   20.9300 C   0  0  0  0  0  0  0  0  0  0  0  0
  -24.5910  -11.5990   20.8810 C   0  0  0  0  0  0  0  0  0  0  0  0
  -26.1930  -12.9080   20.3120 N   0  0  0  0  0  0  0  0  0  0  0  0
  -25.8860  -11.6060   20.5650 N   0  0  0  0  0  0  0  0  0  0  0  0
  -23.8870  -10.3210   21.0640 C   0  0  0  0  0  0  0  0  0  0  0  0
  -24.3340   -9.3560   21.9950 C   0  0  0  0  0  3  0  0  0  0  0  0
  -23.6260   -8.1480   22.1690 C   0  0  0  0  0  3  0  0  0  0  0  0
  -22.4550   -7.8950   21.4170 C   0  0  0  0  0  0  0  0  0  0  0  0
  -22.0250   -8.8480   20.4770 C   0  0  0  0  0  3  0  0  0  0  0  0
  -22.7330  -10.0490   20.2990 C   0  0  0  0  0  3  0  0  0  0  0  0
  -21.7170   -6.7400   21.5030 O   0  0  0  0  0  0  0  0  0  0  0  0
  -21.6880   -5.9860   22.6500 C   0  0  0  0  0  0  0  0  0  0  0  0
  -21.2650   -6.5240   23.8840 C   0  0  0  0  0  3  0  0  0  0  0  0
  -21.1810   -5.6960   25.0230 C   0  0  0  0  0  3  0  0  0  0  0  0
  -21.5140   -4.3320   24.9270 C   0  0  0  0  0  0  0  0  0  0  0  0
  -21.9310   -3.7920   23.6980 C   0  0  0  0  0  3  0  0  0  0  0  0
  -22.0130   -4.6170   22.5610 C   0  0  0  0  0  0  0  0  0  0  0  0
  -22.3910   -4.0870   21.3740 F   0  0  0  0  0  0  0  0  0  0  0  0
  -21.4270   -3.5360   26.0190 F   0  0  0  0  0  0  0  0  0  0  0  0
  -22.6830  -13.3800   21.2050 C   0  0  0  0  0  0  0  0  0  0  0  0
  -21.9800  -12.6780   22.0840 N   0  0  0  0  0  0  0  0  0  0  0  0
  -22.2210  -14.3900   20.6760 O   0  0  0  0  0  0  0  0  0  0  0  0
  -22.3770  -11.8650   22.5340 H   0  0  0  0  0  0  0  0  0  0  0  0
  -21.0340  -12.9510   22.3070 H   0  0  0  0  0  0  0  0  0  0  0  0
  -25.2500  -15.1230   20.3980 N   0  0  0  0  0  0  0  0  0  0  0  0
  -24.4700  -15.7570   20.5370 H   0  0  0  0  0  0  0  0  0  0  0  0
  -26.0790  -15.5890   20.0520 H   0  0  0  0  0  0  0  0  0  0  0  0
  -27.9170  -23.2210   19.9320 C   0  0  0  0  0 15  0  0  0  0  0  0
  -28.0070  -25.1190   19.9590 O   0  0  0  0  0  1  0  0  0  0  0  0
  -24.6350  -31.7370   22.9810 C   0  0  0  0  0  0  0  0  0  0  0  0
  -27.0570  -26.4460   19.9360 C   0  0  0  0  0  0  0  0  0  0  0  0
  -23.4110  -30.3520   21.3640 C   0  0  0  0  0  3  0  0  0  0  0  0
  -24.8190  -28.6510   19.9280 C   0  0  0  0  0  0  0  0  0  0  0  0
  -25.9970  -30.4050   21.2140 C   0  0  0  0  0  2  0  0  0  0  0  0
  -26.0350  -28.9490   20.5510 C   0  0  0  0  0  0  0  0  0  0  0  0
  -27.1230  -27.8840   20.5180 C   0  0  0  0  0  3  0  0  0  0  0  0
  -25.8020  -26.4230   19.2530 C   0  0  0  0  0  3  0  0  0  0  0  0
  -24.7560  -27.4160   19.2520 C   0  0  0  0  0  3  0  0  0  0  0  0
  -23.6280  -29.6380   19.9940 C   0  0  0  0  0  2  0  0  0  0  0  0
  -24.7100  -30.8700   21.9050 N   0  0  0  0  0  0  0  0  0  0  0  0
  -23.5510  -32.0540   23.5030 O   0  0  0  0  0  0  0  0  0  0  0  0
  -22.6870  -29.3970   22.3560 C   0  0  0  0  0  0  0  0  0  0  0  0
  -21.3490  -29.2500   22.2500 N   0  0  0  0  0  0  0  0  0  0  0  0
  -23.3440  -28.7800   23.1980 O   0  0  0  0  0  0  0  0  0  0  0  0
  -20.8640  -29.7960   21.5510 H   0  0  0  0  0  0  0  0  0  0  0  0
  -17.9770  -27.9940   22.7850 C   0  0  0  0  0  0  0  0  0  0  0  0
  -20.5330  -28.3160   23.0390 C   0  0  0  0  0  3  0  0  0  0  0  0
  -20.6580  -26.8740   22.4900 C   0  0  0  0  0  2  0  0  0  0  0  0
  -19.5630  -26.5150   21.4800 C   0  0  0  0  0  2  0  0  0  0  0  0
  -18.1800  -26.6420   22.1220 C   0  0  0  0  0  2  0  0  0  0  0  0
  -19.0810  -28.7870   23.2000 C   0  0  0  0  0  0  0  0  0  0  0  0
  -18.8330  -30.0470   23.7860 C   0  0  0  0  0  3  0  0  0  0  0  0
  -17.5170  -30.5150   23.9600 C   0  0  0  0  0  3  0  0  0  0  0  0
  -16.4290  -29.7220   23.5560 C   0  0  0  0  0  3  0  0  0  0  0  0
  -16.6600  -28.4630   22.9740 C   0  0  0  0  0  3  0  0  0  0  0  0
  -25.9090  -32.3880   23.6070 C   0  0  0  0  0  3  0  0  0  0  0  0
  -25.5850  -33.7800   23.9910 N   0  0  0  0  0  0  0  0  0  0  0  0
  -25.9630  -34.8790   23.3230 C   0  0  0  0  0  0  0  0  0  0  0  0
  -26.6730  -34.8290   22.3170 O   0  0  0  0  0  0  0  0  0  0  0  0
  -24.9630  -33.8940   24.7780 H   0  0  0  0  0  0  0  0  0  0  0  0
  -24.2740  -36.7310   23.0270 C   0  0  0  0  0  1  0  0  0  0  0  0
  -25.4810  -36.2490   23.8500 C   0  0  0  0  0  3  0  0  0  0  0  0
  -27.5970  -37.0590   24.8040 C   0  0  0  0  0  1  0  0  0  0  0  0
  -26.5300  -37.2930   23.8350 N   0  0  0  0  0  0  0  0  0  0  0  0
  -26.1280  -38.2070   24.0210 H   0  0  0  0  0  0  0  0  0  0  0  0
  -26.4410  -31.6060   24.8730 C   0  0  1  0  0  0  0  0  0  0  0  0
  -25.3640  -31.3660   25.9590 C   0  0  0  0  0  1  0  0  0  0  0  0
  -27.0170  -30.2280   24.4780 C   0  0  0  0  0  1  0  0  0  0  0  0
  -27.6010  -32.3940   25.5250 C   0  0  0  0  0  1  0  0  0  0  0  0
  1  2  1  0
  2  3  1  0
  2  4  1  0
  5  2  1  0
  5 14  1  0
  5  6  1  0
  7  8  1  0
  8 10  2  0
  9  7  2  0
  9 11  1  0
 11 12  2  0
 12 10  1  0
 12  6  1  0
 13 11  1  0
 16 15  1  0
 16 14  1  0
 17 26  1  0
 18 24  1  0
 18 26  1  0
 19 24  1  0
 20 21  1  0
 20 19  1  0
 22 21  1  0
 22 31  1  0
 22 23  1  0
 24 23  1  0
 25 18  2  0
 26 27  1  0
 28 29  2  0
 29 48  1  0
 30 29  1  0
 30 33  1  0
 31 32  1  0
 31 28  1  0
 32 30  2  0
 33 34  1  0
 34 35  2  0
 36 39  1  0
 36 35  1  0
 37 36  2  0
 38 37  1  0
 38 33  2  0
 39 40  1  0
 40 41  1  0
 41 42  2  0
 43 42  1  0
 43 47  1  0
 44 43  2  0
 45 40  2  0
 45 44  1  0
 46 45  1  0
 48 49  1  0
 49 52  1  0
 49 51  1  0
 50 48  2  0
 53 54  1  0
 53 28  1  0
 55 53  1  0
 58 69  2  0
 59 57  1  0
 59 64  1  0
 60 68  1  0
 60 70  1  0
 61 67  1  0
 61 63  1  0
 62 68  1  0
 63 62  1  0
 64 63  2  0
 65 59  2  0
 66 65  1  0
 66 61  2  0
 67 60  1  0
 68 58  1  0
 70 72  2  0
 71 70  1  0
 73 71  1  0
 74 83  2  0
 74 79  1  0
 75 71  1  0
 75 79  1  0
 76 75  1  0
 77 78  1  0
 77 76  1  0
 78 74  1  0
 79 80  2  0
 80 81  1  0
 82 81  2  0
 83 82  1  0
 84 58  1  0
 84 85  1  0
 84 94  1  0
 85 88  1  0
 86 90  1  0
 86 85  1  0
 87 86  2  0
 90 89  1  0
 92 90  1  0
 92 93  1  0
 92 91  1  0
 94 97  1  1
 94 95  1  0
 96 94  1  0
M  ISO  4  18 100  26 100  56 101  57 101
M  END
>  <TORSDO>  (51) 
F 24

>  <SCORE>  (51) 
-13.717

>  <name>  (51) 
51

>  <ligand_id>  (51) 
51

>  <original_smiles>  (51) 
[H]c1c([H])c([H])c(C([H])([H])C([H])(C([H])([H])C([H])([H])C([H])([H])[H])[N+]([H])([H])C([H])(C([H])([H])Oc2c([H])c([H])c3c(c2[H])C([H])([H])N(C(=O)C([H])(N([H])C(=O)C([H])(N([H])C([H])([H])[H])C([H])([H])[H])C(C([H])([H])[H])(C([H])([H])[H])C([H])([H])[H])C([H])(C(=O)N([H])C2([H])c4c([H])c([H])c([H])c([H])c4C([H])([H])C([H])([H])C2([H])[H])C3([H])[H])C([H])([H])N([H])C(=O)N2C([H])([H])C([H])([H])C([H])([H])C([H])(n3nc(-c4c([H])c([H])c(Oc5c([H])c([H])c(F)c([H])c5F)c([H])c4[H])c(C(=O)N([H])[H])c3N([H])[H])C2([H])[H])c(C([H])([H])[H])c1[H]

>  <smiles>  (51) 
[H]c1c([H])c([H])c(C([H])([H])C([H])(C([H])([H])C([H])([H])C([H])([H])[H])[N+]([H])([H])C([H])(C([H])([H])Oc2c([H])c([H])c3c(c2[H])C([H])([H])N(C(=O)C([H])(N([H])C(=O)C([H])(N([H])C([H])([H])[H])C([H])([H])[H])C(C([H])([H])[H])(C([H])([H])[H])C([H])([H])[H])C([H])(C(=O)N([H])C2([H])c4c([H])c([H])c([H])c([H])c4C([H])([H])C([H])([H])C2([H])[H])C3([H])[H])C([H])([H])N([H])C(=O)N2C([H])([H])C([H])([H])C([H])([H])C([H])(n3nc(-c4c([H])c([H])c(Oc5c([H])c([H])c(F)c([H])c5F)c([H])c4[H])c(C(=O)N([H])[H])c3N([H])[H])C2([H])[H])c(C([H])([H])[H])c1[H]

$$$$
52:0:0
     RDKit          3D

 96104  0  0  1  0  0  0  0  0999 V2000
  -33.1390  -21.5540   19.4390 C   0  0  0  0  0  3  0  0  0  0  0  0
  -32.1410  -21.8440   21.6440 C   0  0  0  0  0  3  0  0  0  0  0  0
  -32.9550  -22.9270   19.1750 C   0  0  0  0  0  3  0  0  0  0  0  0
  -31.9550  -23.2150   21.3810 C   0  0  0  0  0  3  0  0  0  0  0  0
  -32.7270  -21.0060   20.6720 C   0  0  0  0  0  0  0  0  0  0  0  0
  -32.3560  -23.7610   20.1430 C   0  0  0  0  0  0  0  0  0  0  0  0
  -32.8840  -19.5180   20.9430 C   0  0  0  0  0  2  0  0  0  0  0  0
  -31.6350  -18.8190   20.5940 N   0  0  0  0  0  4  0  0  0  0  0  0
  -31.4780  -18.9380   19.6060 H   0  0  0  0  0  0  0  0  0  0  0  0
  -30.8860  -19.2810   21.0820 H   0  0  0  0  0  0  0  0  0  0  0  0
  -31.6060  -17.3800   20.9270 C   0  0  0  0  0  2  0  0  0  0  0  0
  -30.2060  -16.7880   20.6580 C   0  0  0  0  0  2  0  0  0  0  0  0
  -29.9820  -15.3310   21.1250 C   0  0  0  0  0  2  0  0  0  0  0  0
  -30.4970  -14.2550   20.1480 C   0  0  0  0  0  0  0  0  0  0  0  0
  -30.1130  -12.1670   18.8870 C   0  0  0  0  0  2  0  0  0  0  0  0
  -29.0830  -12.4180   17.7670 C   0  0  0  0  0  2  0  0  0  0  0  0
  -27.6430  -12.2620   18.2960 C   0  0  0  0  0  2  0  0  0  0  0  0
  -27.4020  -13.0470   19.6150 C   0  0  0  0  0  3  0  0  0  0  0  0
  -28.5320  -12.7490   20.6270 C   0  0  0  0  0  2  0  0  0  0  0  0
  -29.8130  -13.0910   19.9880 N   0  0  0  0  0  0  0  0  0  0  0  0
  -31.5150  -14.5100   19.4970 O   0  0  0  0  0  0  0  0  0  0  0  0
  -25.0470  -13.6330   20.4800 C   0  0  0  0  0  0  0  0  0  0  0  0
  -24.0080  -12.8490   20.9040 C   0  0  0  0  0  0  0  0  0  0  0  0
  -24.4710  -11.5010   20.8180 C   0  0  0  0  0  0  0  0  0  0  0  0
  -26.0810  -12.7620   20.1700 N   0  0  0  0  0  0  0  0  0  0  0  0
  -25.7380  -11.4720   20.4240 N   0  0  0  0  0  0  0  0  0  0  0  0
  -23.7660  -10.2310   21.0330 C   0  0  0  0  0  0  0  0  0  0  0  0
  -24.2500   -9.2610   21.9390 C   0  0  0  0  0  3  0  0  0  0  0  0
  -23.5430   -8.0560   22.1430 C   0  0  0  0  0  3  0  0  0  0  0  0
  -22.3400   -7.8110   21.4390 C   0  0  0  0  0  0  0  0  0  0  0  0
  -21.8760   -8.7700   20.5210 C   0  0  0  0  0  3  0  0  0  0  0  0
  -22.5830   -9.9660   20.3160 C   0  0  0  0  0  3  0  0  0  0  0  0
  -21.6010   -6.6590   21.5520 O   0  0  0  0  0  0  0  0  0  0  0  0
  -21.6010   -5.9150   22.7050 C   0  0  0  0  0  0  0  0  0  0  0  0
  -21.2000   -6.4600   23.9440 C   0  0  0  0  0  3  0  0  0  0  0  0
  -21.1480   -5.6420   25.0910 C   0  0  0  0  0  3  0  0  0  0  0  0
  -21.4880   -4.2790   24.9990 C   0  0  0  0  0  0  0  0  0  0  0  0
  -21.8830   -3.7330   23.7640 C   0  0  0  0  0  3  0  0  0  0  0  0
  -21.9360   -4.5490   22.6210 C   0  0  0  0  0  0  0  0  0  0  0  0
  -22.2970   -4.0120   21.4300 F   0  0  0  0  0  0  0  0  0  0  0  0
  -21.4310   -3.4900   26.0970 F   0  0  0  0  0  0  0  0  0  0  0  0
  -22.6300  -13.3130   21.2790 C   0  0  0  0  0  0  0  0  0  0  0  0
  -21.9680  -12.5980   22.1830 N   0  0  0  0  0  0  0  0  0  0  0  0
  -22.1510  -14.3430   20.8070 O   0  0  0  0  0  0  0  0  0  0  0  0
  -22.3700  -11.7650   22.5850 H   0  0  0  0  0  0  0  0  0  0  0  0
  -21.0460  -12.8900   22.4770 H   0  0  0  0  0  0  0  0  0  0  0  0
  -25.1940  -15.0080   20.3170 N   0  0  0  0  0  0  0  0  0  0  0  0
  -24.4330  -15.6560   20.4870 H   0  0  0  0  0  0  0  0  0  0  0  0
  -26.0250  -15.4580   19.9540 H   0  0  0  0  0  0  0  0  0  0  0  0
  -32.1360  -25.2360   19.8580 C   0  0  0  0  0  2  0  0  0  0  0  0
  -30.7790  -25.4660   19.3260 N   0  0  0  0  0  4  0  0  0  0  0  0
  -30.1160  -25.0290   19.9470 H   0  0  0  0  0  0  0  0  0  0  0  0
  -30.7120  -25.0020   18.4350 H   0  0  0  0  0  0  0  0  0  0  0  0
  -30.4240  -26.8960   19.1780 C   0  0  0  0  0  2  0  0  0  0  0  0
  -28.9990  -27.0830   18.6400 C   0  0  0  0  0  2  0  0  0  0  0  0
  -28.0630  -26.5600   19.5820 O   0  0  0  0  0  0  0  0  0  0  0  0
  -24.5610  -31.6810   23.0850 C   0  0  0  0  0  0  0  0  0  0  0  0
  -26.9250  -27.3150   19.7110 C   0  0  0  0  0  0  0  0  0  0  0  0
  -23.2370  -30.3930   21.4360 C   0  0  0  0  0  3  0  0  0  0  0  0
  -24.5760  -28.8610   19.8980 C   0  0  0  0  0  0  0  0  0  0  0  0
  -25.7600  -30.6770   21.1480 C   0  0  0  0  0  2  0  0  0  0  0  0
  -25.7710  -29.3310   20.4580 C   0  0  0  0  0  0  0  0  0  0  0  0
  -26.9490  -28.5620   20.3710 C   0  0  0  0  0  3  0  0  0  0  0  0
  -25.7140  -26.8350   19.1750 C   0  0  0  0  0  3  0  0  0  0  0  0
  -24.5390  -27.6070   19.2610 C   0  0  0  0  0  3  0  0  0  0  0  0
  -23.3650  -29.7580   20.0250 C   0  0  0  0  0  2  0  0  0  0  0  0
  -24.5400  -30.9290   21.9480 N   0  0  0  0  0  0  0  0  0  0  0  0
  -23.5150  -31.9710   23.6800 O   0  0  0  0  0  0  0  0  0  0  0  0
  -22.5850  -29.3590   22.3810 C   0  0  0  0  0  0  0  0  0  0  0  0
  -21.2500  -29.2380   22.3020 N   0  0  0  0  0  0  0  0  0  0  0  0
  -23.2750  -28.6720   23.1380 O   0  0  0  0  0  0  0  0  0  0  0  0
  -20.7580  -29.8430   21.6610 H   0  0  0  0  0  0  0  0  0  0  0  0
  -17.8500  -28.1720   22.8910 C   0  0  0  0  0  0  0  0  0  0  0  0
  -20.4250  -28.3030   23.0660 C   0  0  0  0  0  3  0  0  0  0  0  0
  -20.4390  -26.8970   22.4220 C   0  0  0  0  0  2  0  0  0  0  0  0
  -19.2820  -26.6700   21.4430 C   0  0  0  0  0  2  0  0  0  0  0  0
  -17.9360  -26.8490   22.1510 C   0  0  0  0  0  2  0  0  0  0  0  0
  -19.0190  -28.8630   23.3060 C   0  0  0  0  0  0  0  0  0  0  0  0
  -18.8840  -30.1080   23.9580 C   0  0  0  0  0  3  0  0  0  0  0  0
  -17.6120  -30.6600   24.2000 C   0  0  0  0  0  3  0  0  0  0  0  0
  -16.4570  -29.9630   23.8020 C   0  0  0  0  0  3  0  0  0  0  0  0
  -16.5770  -28.7220   23.1520 C   0  0  0  0  0  3  0  0  0  0  0  0
  -25.8960  -32.2330   23.6760 C   0  0  0  0  0  3  0  0  0  0  0  0
  -26.4450  -31.3770   24.8830 C   0  0  1  0  0  0  0  0  0  0  0  0
  -25.3950  -31.1190   25.9880 C   0  0  0  0  0  1  0  0  0  0  0  0
  -26.9560  -30.0030   24.3880 C   0  0  0  0  0  1  0  0  0  0  0  0
  -27.6530  -32.0940   25.5290 C   0  0  0  0  0  1  0  0  0  0  0  0
  -25.6550  -33.6220   24.0890 N   0  0  0  0  0  0  0  0  0  0  0  0
  -26.0080  -34.6990   23.3750 C   0  0  0  0  0  0  0  0  0  0  0  0
  -26.6440  -34.6250   22.3200 O   0  0  0  0  0  0  0  0  0  0  0  0
  -25.0920  -33.7560   24.9160 H   0  0  0  0  0  0  0  0  0  0  0  0
  -24.3440  -36.5710   23.1660 C   0  0  0  0  0  1  0  0  0  0  0  0
  -25.5890  -36.0770   23.9190 C   0  0  0  0  0  3  0  0  0  0  0  0
  -27.7760  -36.8340   24.7370 C   0  0  0  0  0  1  0  0  0  0  0  0
  -26.6600  -37.0940   23.8330 N   0  0  0  0  0  0  0  0  0  0  0  0
  -26.2940  -38.0200   24.0380 H   0  0  0  0  0  0  0  0  0  0  0  0
  1  5  1  0
  3  1  2  0
  3  6  1  0
  4  2  1  0
  5  7  1  0
  5  2  2  0
  6  4  2  0
  8 11  1  0
  8  7  1  0
  8 10  1  0
  9  8  1  0
 12 11  1  0
 12 13  1  0
 14 13  1  0
 15 20  1  0
 16 17  1  0
 16 15  1  0
 18 17  1  0
 18 25  1  0
 18 19  1  0
 20 14  1  0
 20 19  1  0
 21 14  2  0
 22 23  2  0
 23 42  1  0
 24 23  1  0
 24 27  1  0
 25 26  1  0
 25 22  1  0
 26 24  2  0
 27 28  1  0
 28 29  2  0
 30 33  1  0
 30 29  1  0
 31 30  2  0
 32 31  1  0
 32 27  2  0
 33 34  1  0
 34 35  1  0
 35 36  2  0
 37 36  1  0
 37 41  1  0
 38 37  2  0
 39 34  2  0
 39 38  1  0
 40 39  1  0
 42 43  1  0
 43 46  1  0
 43 45  1  0
 44 42  2  0
 47 22  1  0
 47 48  1  0
 49 47  1  0
 50  6  1  0
 51 50  1  0
 51 52  1  0
 53 51  1  0
 54 51  1  0
 55 54  1  0
 55 56  1  0
 56 58  1  0
 57 68  2  0
 58 63  1  0
 59 67  1  0
 59 69  1  0
 60 66  1  0
 60 62  1  0
 61 67  1  0
 62 61  1  0
 63 62  2  0
 64 65  1  0
 64 58  2  0
 65 60  2  0
 66 59  1  0
 67 57  1  0
 69 71  2  0
 70 69  1  0
 72 70  1  0
 73 82  2  0
 73 78  1  0
 74 70  1  0
 74 78  1  0
 75 74  1  0
 76 77  1  0
 76 75  1  0
 77 73  1  0
 78 79  2  0
 79 80  1  0
 81 80  2  0
 82 81  1  0
 83 57  1  0
 83 88  1  0
 83 84  1  0
 84 87  1  1
 84 85  1  0
 86 84  1  0
 88 91  1  0
 89 93  1  0
 89 88  1  0
 90 89  2  0
 93 92  1  0
 95 93  1  0
 95 96  1  0
 95 94  1  0
M  ISO  4  13 100  14 100  55 101  56 101
M  END
>  <TORSDO>  (52) 
F 25

>  <SCORE>  (52) 
-10.718

>  <name>  (52) 
52

>  <ligand_id>  (52) 
52

>  <original_smiles>  (52) 
[H]c1c([H])c([H])c2c(c1[H])C([H])([H])C([H])([H])C([H])([H])C2([H])N([H])C(=O)C1([H])N(C(=O)C([H])(N([H])C(=O)C([H])(N([H])C([H])([H])[H])C([H])([H])[H])C(C([H])([H])[H])(C([H])([H])[H])C([H])([H])[H])C([H])([H])c2c([H])c(OC([H])([H])C([H])([H])[N+]([H])([H])C([H])([H])c3c([H])c([H])c(C([H])([H])[N+]([H])([H])C([H])([H])C([H])([H])C([H])([H])C(=O)N4C([H])([H])C([H])([H])C([H])([H])C([H])(n5nc(-c6c([H])c([H])c(Oc7c([H])c([H])c(F)c([H])c7F)c([H])c6[H])c(C(=O)N([H])[H])c5N([H])[H])C4([H])[H])c([H])c3[H])c([H])c([H])c2C1([H])[H]

>  <smiles>  (52) 
[H]c1c([H])c([H])c2c(c1[H])C([H])([H])C([H])([H])C([H])([H])C2([H])N([H])C(=O)C1([H])N(C(=O)C([H])(N([H])C(=O)C([H])(N([H])C([H])([H])[H])C([H])([H])[H])C(C([H])([H])[H])(C([H])([H])[H])C([H])([H])[H])C([H])([H])c2c([H])c(OC([H])([H])C([H])([H])[N+]([H])([H])C([H])([H])c3c([H])c([H])c(C([H])([H])[N+]([H])([H])C([H])([H])C([H])([H])C([H])([H])C(=O)N4C([H])([H])C([H])([H])C([H])([H])C([H])(n5nc(-c6c([H])c([H])c(Oc7c([H])c([H])c(F)c([H])c7F)c([H])c6[H])c(C(=O)N([H])[H])c5N([H])[H])C4([H])[H])c([H])c3[H])c([H])c([H])c2C1([H])[H]

$$$$
53:0:0
     RDKit          3D

 93100  0  0  1  0  0  0  0  0999 V2000
  -28.7360  -21.2840   20.2150 C   0  0  0  0  0  0  0  0  0  0  0  0
  -29.1010  -22.6150   20.1650 N   0  0  0  0  0  0  0  0  0  0  0  0
  -27.5460  -20.9670   20.2750 O   0  0  0  0  0  0  0  0  0  0  0  0
  -30.0980  -22.7810   20.1610 H   0  0  0  0  0  0  0  0  0  0  0  0
  -28.2630  -23.8430   19.8350 C   0  0  0  0  0  2  0  0  0  0  0  0
  -28.3920  -25.1610   20.7360 C   0  0  0  0  0  2  0  0  0  0  0  0
  -28.3800  -26.5250   20.1490 O   0  0  0  0  0  0  0  0  0  0  0  0
  -24.5990  -31.8740   23.2360 C   0  0  0  0  0  0  0  0  0  0  0  0
  -27.2310  -27.3250   20.1920 C   0  0  0  0  0  0  0  0  0  0  0  0
  -23.3990  -30.4690   21.5950 C   0  0  0  0  0  3  0  0  0  0  0  0
  -24.8550  -28.9140   20.1760 C   0  0  0  0  0  0  0  0  0  0  0  0
  -25.9340  -30.8000   21.4080 C   0  0  0  0  0  2  0  0  0  0  0  0
  -26.0200  -29.4180   20.7680 C   0  0  0  0  0  0  0  0  0  0  0  0
  -27.2130  -28.6370   20.7570 C   0  0  0  0  0  3  0  0  0  0  0  0
  -26.0430  -26.8600   19.5940 C   0  0  0  0  0  3  0  0  0  0  0  0
  -24.8680  -27.6400   19.5810 C   0  0  0  0  0  3  0  0  0  0  0  0
  -23.6150  -29.7860   20.2180 C   0  0  0  0  0  2  0  0  0  0  0  0
  -24.6630  -31.0660   22.1370 N   0  0  0  0  0  0  0  0  0  0  0  0
  -23.5160  -32.1480   23.7720 O   0  0  0  0  0  0  0  0  0  0  0  0
  -22.7390  -29.4540   22.5580 C   0  0  0  0  0  0  0  0  0  0  0  0
  -21.4130  -29.2770   22.4340 N   0  0  0  0  0  0  0  0  0  0  0  0
  -23.4200  -28.8270   23.3740 O   0  0  0  0  0  0  0  0  0  0  0  0
  -20.9230  -29.8350   21.7490 H   0  0  0  0  0  0  0  0  0  0  0  0
  -18.0360  -28.0830   22.9380 C   0  0  0  0  0  0  0  0  0  0  0  0
  -20.5950  -28.3390   23.2050 C   0  0  0  0  0  3  0  0  0  0  0  0
  -20.6940  -26.9080   22.6250 C   0  0  0  0  0  2  0  0  0  0  0  0
  -19.5900  -26.5900   21.6110 C   0  0  0  0  0  2  0  0  0  0  0  0
  -18.2100  -26.7350   22.2590 C   0  0  0  0  0  2  0  0  0  0  0  0
  -19.1560  -28.8430   23.3670 C   0  0  0  0  0  0  0  0  0  0  0  0
  -18.9400  -30.1050   23.9630 C   0  0  0  0  0  3  0  0  0  0  0  0
  -17.6360  -30.6070   24.1320 C   0  0  0  0  0  3  0  0  0  0  0  0
  -16.5300  -29.8440   23.7200 C   0  0  0  0  0  3  0  0  0  0  0  0
  -16.7310  -28.5840   23.1290 C   0  0  0  0  0  3  0  0  0  0  0  0
  -25.8800  -32.5090   23.8590 C   0  0  0  0  0  3  0  0  0  0  0  0
  -25.5680  -33.9080   24.1850 N   0  0  0  0  0  0  0  0  0  0  0  0
  -25.9000  -34.9600   23.4250 C   0  0  0  0  0  0  0  0  0  0  0  0
  -26.5690  -34.8550   22.3920 O   0  0  0  0  0  0  0  0  0  0  0  0
  -24.9730  -34.0640   24.9850 H   0  0  0  0  0  0  0  0  0  0  0  0
  -24.1710  -36.7520   23.0670 C   0  0  0  0  0  1  0  0  0  0  0  0
  -25.4130  -36.3490   23.8790 C   0  0  0  0  0  3  0  0  0  0  0  0
  -27.5480  -37.2360   24.7060 C   0  0  0  0  0  1  0  0  0  0  0  0
  -26.4440  -37.4020   23.7640 N   0  0  0  0  0  0  0  0  0  0  0  0
  -26.0380  -38.3230   23.9100 H   0  0  0  0  0  0  0  0  0  0  0  0
  -26.3950  -31.7430   25.1390 C   0  0  1  0  0  0  0  0  0  0  0  0
  -25.2990  -31.5080   26.2060 C   0  0  0  0  0  1  0  0  0  0  0  0
  -26.9780  -30.3640   24.7520 C   0  0  0  0  0  1  0  0  0  0  0  0
  -27.5450  -32.5380   25.8000 C   0  0  0  0  0  1  0  0  0  0  0  0
  -29.8170  -20.1110   20.0950 C   0  0  0  0  0  3  0  0  0  0  0  0
  -29.3560  -18.7100   20.5280 N   0  0  0  0  0  4  0  0  0  0  0  0
  -29.1380  -18.7850   21.5100 H   0  0  0  0  0  0  0  0  0  0  0  0
  -28.4770  -18.5510   20.0630 H   0  0  0  0  0  0  0  0  0  0  0  0
  -30.2640  -17.4830   20.3210 C   0  0  0  0  0  3  0  0  0  0  0  0
  -29.7930  -16.0410   20.8640 C   0  0  0  0  0  3  0  0  0  0  0  0
  -30.5930  -14.7250   20.4270 C   0  0  0  0  0  0  0  0  0  0  0  0
  -30.4010  -12.4710   19.3580 C   0  0  0  0  0  2  0  0  0  0  0  0
  -29.4690  -12.5970   18.1320 C   0  0  0  0  0  2  0  0  0  0  0  0
  -27.9930  -12.4320   18.5450 C   0  0  0  0  0  2  0  0  0  0  0  0
  -27.6220  -13.2910   19.7820 C   0  0  0  0  0  3  0  0  0  0  0  0
  -28.6720  -13.1560   20.9070 C   0  0  0  0  0  2  0  0  0  0  0  0
  -29.9830  -13.4950   20.3430 N   0  0  0  0  0  0  0  0  0  0  0  0
  -31.7590  -14.8510   20.0410 O   0  0  0  0  0  0  0  0  0  0  0  0
  -25.2280  -13.8950   20.4820 C   0  0  0  0  0  0  0  0  0  0  0  0
  -24.1580  -13.1250   20.8510 C   0  0  0  0  0  0  0  0  0  0  0  0
  -24.6200  -11.7730   20.8340 C   0  0  0  0  0  0  0  0  0  0  0  0
  -26.2720  -13.0110   20.2610 N   0  0  0  0  0  0  0  0  0  0  0  0
  -25.9130  -11.7310   20.5350 N   0  0  0  0  0  0  0  0  0  0  0  0
  -23.8920  -10.5130   21.0290 C   0  0  0  0  0  0  0  0  0  0  0  0
  -24.3210   -9.5490   21.9680 C   0  0  0  0  0  3  0  0  0  0  0  0
  -23.5930   -8.3540   22.1490 C   0  0  0  0  0  3  0  0  0  0  0  0
  -22.4220   -8.1130   21.3910 C   0  0  0  0  0  0  0  0  0  0  0  0
  -22.0130   -9.0660   20.4400 C   0  0  0  0  0  3  0  0  0  0  0  0
  -22.7410  -10.2540   20.2570 C   0  0  0  0  0  3  0  0  0  0  0  0
  -21.6650   -6.9700   21.4810 O   0  0  0  0  0  0  0  0  0  0  0  0
  -21.6190   -6.2280   22.6350 C   0  0  0  0  0  0  0  0  0  0  0  0
  -21.2030   -6.7850   23.8640 C   0  0  0  0  0  3  0  0  0  0  0  0
  -21.1030   -5.9690   25.0080 C   0  0  0  0  0  3  0  0  0  0  0  0
  -21.4080   -4.5970   24.9250 C   0  0  0  0  0  0  0  0  0  0  0  0
  -21.8160   -4.0400   23.7000 C   0  0  0  0  0  3  0  0  0  0  0  0
  -21.9190   -4.8540   22.5580 C   0  0  0  0  0  0  0  0  0  0  0  0
  -22.2910   -4.3070   21.3750 F   0  0  0  0  0  0  0  0  0  0  0  0
  -21.3060   -3.8110   26.0220 F   0  0  0  0  0  0  0  0  0  0  0  0
  -22.7580  -13.6040   21.1060 C   0  0  0  0  0  0  0  0  0  0  0  0
  -22.0230  -12.9140   21.9700 N   0  0  0  0  0  0  0  0  0  0  0  0
  -22.3250  -14.6240   20.5730 O   0  0  0  0  0  0  0  0  0  0  0  0
  -22.3880  -12.0890   22.4220 H   0  0  0  0  0  0  0  0  0  0  0  0
  -21.0810  -13.2140   22.1820 H   0  0  0  0  0  0  0  0  0  0  0  0
  -25.3950  -15.2630   20.2940 N   0  0  0  0  0  0  0  0  0  0  0  0
  -24.6250  -15.9180   20.3810 H   0  0  0  0  0  0  0  0  0  0  0  0
  -26.2400  -15.6900   19.9390 H   0  0  0  0  0  0  0  0  0  0  0  0
  -30.3400  -20.1050   18.6250 C   0  0  0  0  0  2  0  0  0  0  0  0
  -32.7230  -21.0270   18.7910 C   0  0  0  0  0  1  0  0  0  0  0  0
  -32.1260  -19.3640   16.9900 C   0  0  0  0  0  1  0  0  0  0  0  0
  -31.8480  -19.8140   18.4330 C   0  0  0  0  0  3  0  0  0  0  0  0
  1  3  2  0
  2  1  1  0
  4  2  1  0
  5  2  1  0
  5  6  1  0
  7  9  1  0
  7  6  1  0
  8 19  2  0
  9 14  1  0
 10 18  1  0
 10 20  1  0
 11 17  1  0
 11 13  1  0
 12 18  1  0
 13 12  1  0
 14 13  2  0
 15  9  2  0
 16 15  1  0
 16 11  2  0
 17 10  1  0
 18  8  1  0
 20 22  2  0
 21 20  1  0
 23 21  1  0
 24 33  2  0
 24 29  1  0
 25 21  1  0
 25 29  1  0
 26 25  1  0
 27 28  1  0
 27 26  1  0
 28 24  1  0
 29 30  2  0
 30 31  1  0
 32 31  2  0
 33 32  1  0
 34  8  1  0
 34 35  1  0
 34 44  1  0
 35 38  1  0
 36 40  1  0
 36 35  1  0
 37 36  2  0
 40 39  1  0
 42 40  1  0
 42 43  1  0
 42 41  1  0
 44 47  1  1
 44 45  1  0
 46 44  1  0
 48 90  1  0
 48  1  1  0
 48 49  1  0
 49 50  1  0
 51 49  1  0
 52 49  1  0
 52 53  2  0
 54 53  1  0
 55 60  1  0
 56 57  1  0
 56 55  1  0
 58 57  1  0
 58 65  1  0
 58 59  1  0
 60 54  1  0
 60 59  1  0
 61 54  2  0
 62 63  2  0
 63 82  1  0
 64 63  1  0
 64 67  1  0
 65 62  1  0
 65 66  1  0
 66 64  2  0
 67 68  1  0
 68 69  2  0
 70 73  1  0
 70 69  1  0
 71 70  2  0
 72 71  1  0
 72 67  2  0
 73 74  1  0
 74 75  1  0
 75 76  2  0
 77 76  1  0
 77 81  1  0
 78 77  2  0
 79 74  2  0
 79 78  1  0
 80 79  1  0
 82 83  1  0
 83 86  1  0
 83 85  1  0
 84 82  2  0
 87 88  1  0
 87 62  1  0
 89 87  1  0
 92 93  1  0
 93 90  1  0
 93 91  1  0
M  ISO  4   6 101   7 101  53 100  54 100
M  END
>  <TORSDO>  (53) 
F 24

>  <SCORE>  (53) 
-12.411

>  <name>  (53) 
53

>  <ligand_id>  (53) 
53

>  <original_smiles>  (53) 
[H]c1c([H])c([H])c2c(c1[H])C([H])([H])C([H])([H])C([H])([H])C2([H])N([H])C(=O)C1([H])N(C(=O)C([H])(N([H])C(=O)C([H])(N([H])C([H])([H])[H])C([H])([H])[H])C(C([H])([H])[H])(C([H])([H])[H])C([H])([H])[H])C([H])([H])c2c([H])c(OC([H])([H])C([H])([H])N([H])C(=O)C([H])(C([H])([H])C([H])(C([H])([H])[H])C([H])([H])[H])[N+]([H])([H])C([H])([H])C([H])([H])C(=O)N3C([H])([H])C([H])([H])C([H])([H])C([H])(n4nc(-c5c([H])c([H])c(Oc6c([H])c([H])c(F)c([H])c6F)c([H])c5[H])c(C(=O)N([H])[H])c4N([H])[H])C3([H])[H])c([H])c([H])c2C1([H])[H]

>  <smiles>  (53) 
[H]c1c([H])c([H])c2c(c1[H])C([H])([H])C([H])([H])C([H])([H])C2([H])N([H])C(=O)C1([H])N(C(=O)C([H])(N([H])C(=O)C([H])(N([H])C([H])([H])[H])C([H])([H])[H])C(C([H])([H])[H])(C([H])([H])[H])C([H])([H])[H])C([H])([H])c2c([H])c(OC([H])([H])C([H])([H])N([H])C(=O)C([H])(C([H])([H])C([H])(C([H])([H])[H])C([H])([H])[H])[N+]([H])([H])C([H])([H])C([H])([H])C(=O)N3C([H])([H])C([H])([H])C([H])([H])C([H])(n4nc(-c5c([H])c([H])c(Oc6c([H])c([H])c(F)c([H])c6F)c([H])c5[H])c(C(=O)N([H])[H])c4N([H])[H])C3([H])[H])c([H])c([H])c2C1([H])[H]

$$$$
54:0:0
     RDKit          3D

 88 96  0  0  1  0  0  0  0  0999 V2000
  -28.8550  -21.7200   20.8200 C   0  0  0  0  0  2  0  0  0  0  0  0
  -30.5240  -15.1130   20.2130 C   0  0  0  0  0  0  0  0  0  0  0  0
  -30.3650  -12.7260   19.3140 C   0  0  0  0  0  2  0  0  0  0  0  0
  -29.4330  -12.5870   18.0930 C   0  0  0  0  0  2  0  0  0  0  0  0
  -27.9980  -12.3020   18.5680 C   0  0  0  0  0  2  0  0  0  0  0  0
  -27.5560  -13.2850   19.6790 C   0  0  0  0  0  3  0  0  0  0  0  0
  -28.6220  -13.4320   20.7930 C   0  0  0  0  0  2  0  0  0  0  0  0
  -29.8650  -13.8700   20.1450 N   0  0  0  0  0  0  0  0  0  0  0  0
  -31.7380  -15.0570   19.9830 O   0  0  0  0  0  0  0  0  0  0  0  0
  -28.1740  -18.0420   19.2350 C   0  0  0  0  0  2  0  0  0  0  0  0
  -28.4790  -16.8540   20.2550 C   0  0  0  0  0  2  0  0  0  0  0  0
  -30.6470  -17.7980   20.4190 C   0  0  0  0  0  2  0  0  0  0  0  0
  -27.9800  -19.5270   19.7640 C   0  0  0  0  0  2  0  0  0  0  0  0
  -30.0180  -19.2330   21.0360 C   0  0  0  0  0  2  0  0  0  0  0  0
  -29.9020  -16.4320   20.3490 N   0  0  0  0  0  0  0  0  0  0  0  0
  -29.2100  -20.2750   20.1930 N   0  0  2  0  0  4  0  0  0  0  0  0
  -29.7770  -20.4540   19.3760 H   0  0  0  0  0  0  0  0  0  0  0  0
  -25.1970  -13.8690   20.4830 C   0  0  0  0  0  0  0  0  0  0  0  0
  -24.1460  -13.0940   20.8810 C   0  0  0  0  0  0  0  0  0  0  0  0
  -24.6170  -11.7440   20.8420 C   0  0  0  0  0  0  0  0  0  0  0  0
  -26.2360  -12.9920   20.2160 N   0  0  0  0  0  0  0  0  0  0  0  0
  -25.9000  -11.7110   20.5030 N   0  0  0  0  0  0  0  0  0  0  0  0
  -23.8990  -10.4780   21.0390 C   0  0  0  0  0  0  0  0  0  0  0  0
  -24.3570   -9.5030   21.9520 C   0  0  0  0  0  3  0  0  0  0  0  0
  -23.6380   -8.3030   22.1420 C   0  0  0  0  0  3  0  0  0  0  0  0
  -22.4500   -8.0650   21.4100 C   0  0  0  0  0  0  0  0  0  0  0  0
  -22.0090   -9.0290   20.4860 C   0  0  0  0  0  3  0  0  0  0  0  0
  -22.7290  -10.2220   20.2980 C   0  0  0  0  0  3  0  0  0  0  0  0
  -21.7010   -6.9160   21.5090 O   0  0  0  0  0  0  0  0  0  0  0  0
  -21.6840   -6.1640   22.6550 C   0  0  0  0  0  0  0  0  0  0  0  0
  -21.2880   -6.7050   23.8970 C   0  0  0  0  0  3  0  0  0  0  0  0
  -21.2230   -5.8760   25.0350 C   0  0  0  0  0  3  0  0  0  0  0  0
  -21.5370   -4.5090   24.9310 C   0  0  0  0  0  0  0  0  0  0  0  0
  -21.9260   -3.9680   23.6950 C   0  0  0  0  0  3  0  0  0  0  0  0
  -21.9970   -4.7930   22.5580 C   0  0  0  0  0  0  0  0  0  0  0  0
  -22.3490   -4.2620   21.3620 F   0  0  0  0  0  0  0  0  0  0  0  0
  -21.4680   -3.7100   26.0220 F   0  0  0  0  0  0  0  0  0  0  0  0
  -22.7500  -13.5640   21.1720 C   0  0  0  0  0  0  0  0  0  0  0  0
  -22.0430  -12.8710   22.0560 N   0  0  0  0  0  0  0  0  0  0  0  0
  -22.2940  -14.5820   20.6510 O   0  0  0  0  0  0  0  0  0  0  0  0
  -22.4130  -12.0460   22.4990 H   0  0  0  0  0  0  0  0  0  0  0  0
  -21.1040  -13.1680   22.2780 H   0  0  0  0  0  0  0  0  0  0  0  0
  -25.3490  -15.2390   20.2860 N   0  0  0  0  0  0  0  0  0  0  0  0
  -24.5780  -15.8930   20.3660 H   0  0  0  0  0  0  0  0  0  0  0  0
  -26.1560  -15.6410   19.8310 H   0  0  0  0  0  0  0  0  0  0  0  0
  -28.7940  -23.2360   20.0320 C   0  0  0  0  0  3  0  0  0  0  0  0
  -28.1690  -24.6840   20.6950 C   0  0  0  0  0  3  0  0  0  0  0  0
  -28.3260  -26.1880   20.2600 O   0  0  0  0  0  0  0  0  0  0  0  0
  -24.6210  -31.8750   23.2390 C   0  0  0  0  0  0  0  0  0  0  0  0
  -27.2480  -27.1520   20.2610 C   0  0  0  0  0  0  0  0  0  0  0  0
  -23.4390  -30.4670   21.5940 C   0  0  0  0  0  3  0  0  0  0  0  0
  -24.9060  -28.8840   20.1940 C   0  0  0  0  0  0  0  0  0  0  0  0
  -25.9930  -30.7470   21.4440 C   0  0  0  0  0  2  0  0  0  0  0  0
  -26.0820  -29.3460   20.8030 C   0  0  0  0  0  0  0  0  0  0  0  0
  -27.2570  -28.5020   20.8070 C   0  0  0  0  0  3  0  0  0  0  0  0
  -26.0480  -26.7890   19.6170 C   0  0  0  0  0  3  0  0  0  0  0  0
  -24.9040  -27.6200   19.5800 C   0  0  0  0  0  3  0  0  0  0  0  0
  -23.6740  -29.7750   20.2220 C   0  0  0  0  0  2  0  0  0  0  0  0
  -24.7040  -31.0530   22.1470 N   0  0  0  0  0  0  0  0  0  0  0  0
  -23.5320  -32.1550   23.7590 O   0  0  0  0  0  0  0  0  0  0  0  0
  -22.7530  -29.4700   22.5590 C   0  0  0  0  0  0  0  0  0  0  0  0
  -21.4250  -29.3000   22.4300 N   0  0  0  0  0  0  0  0  0  0  0  0
  -23.4180  -28.8470   23.3920 O   0  0  0  0  0  0  0  0  0  0  0  0
  -20.9420  -29.8550   21.7370 H   0  0  0  0  0  0  0  0  0  0  0  0
  -18.0410  -28.0940   22.9190 C   0  0  0  0  0  0  0  0  0  0  0  0
  -20.5980  -28.3660   23.1980 C   0  0  0  0  0  3  0  0  0  0  0  0
  -20.7060  -26.9310   22.6320 C   0  0  0  0  0  2  0  0  0  0  0  0
  -19.6110  -26.6000   21.6120 C   0  0  0  0  0  2  0  0  0  0  0  0
  -18.2250  -26.7430   22.2460 C   0  0  0  0  0  2  0  0  0  0  0  0
  -19.1550  -28.8630   23.3510 C   0  0  0  0  0  0  0  0  0  0  0  0
  -18.9270  -30.1250   23.9390 C   0  0  0  0  0  3  0  0  0  0  0  0
  -17.6180  -30.6190   24.1000 C   0  0  0  0  0  3  0  0  0  0  0  0
  -16.5190  -29.8480   23.6820 C   0  0  0  0  0  3  0  0  0  0  0  0
  -16.7320  -28.5880   23.0960 C   0  0  0  0  0  3  0  0  0  0  0  0
  -25.8930  -32.5200   23.8720 C   0  0  0  0  0  3  0  0  0  0  0  0
  -25.5740  -33.9210   24.1920 N   0  0  0  0  0  0  0  0  0  0  0  0
  -25.9110  -34.9770   23.4340 C   0  0  0  0  0  0  0  0  0  0  0  0
  -26.5870  -34.8710   22.4070 O   0  0  0  0  0  0  0  0  0  0  0  0
  -24.9780  -34.0740   24.9900 H   0  0  0  0  0  0  0  0  0  0  0  0
  -24.1860  -36.7760   23.0710 C   0  0  0  0  0  1  0  0  0  0  0  0
  -25.4230  -36.3680   23.8890 C   0  0  0  0  0  3  0  0  0  0  0  0
  -27.5550  -37.2580   24.7220 C   0  0  0  0  0  1  0  0  0  0  0  0
  -26.4570  -37.4210   23.7740 N   0  0  0  0  0  0  0  0  0  0  0  0
  -26.0490  -38.3410   23.9140 H   0  0  0  0  0  0  0  0  0  0  0  0
  -26.3910  -31.7640   25.1660 C   0  0  1  0  0  0  0  0  0  0  0  0
  -25.2870  -31.5410   26.2270 C   0  0  0  0  0  1  0  0  0  0  0  0
  -26.9730  -30.3780   24.8030 C   0  0  0  0  0  1  0  0  0  0  0  0
  -27.5330  -32.5640   25.8350 C   0  0  0  0  0  1  0  0  0  0  0  0
  2 15  1  0
  3  8  1  0
  4  5  1  0
  4  3  1  0
  6  5  1  0
  6 21  1  0
  6  7  1  0
  8  2  1  0
  8  7  1  0
  9  2  2  0
 10 13  1  0
 10 11  1  0
 11 15  1  0
 12 14  1  0
 13 16  1  0
 15 12  1  0
 16  1  1  0
 16 14  1  0
 16 17  1  6
 18 19  2  0
 19 38  1  0
 20 19  1  0
 20 23  1  0
 21 18  1  0
 21 22  1  0
 22 20  2  0
 23 24  1  0
 24 25  2  0
 26 29  1  0
 26 25  1  0
 27 26  2  0
 28 27  1  0
 28 23  2  0
 29 30  1  0
 30 31  1  0
 31 32  2  0
 33 32  1  0
 33 37  1  0
 34 33  2  0
 35 30  2  0
 35 34  1  0
 36 35  1  0
 38 39  1  0
 39 42  1  0
 39 41  1  0
 40 38  2  0
 43 44  1  0
 43 18  1  0
 45 43  1  0
 46 47  2  0
 46  1  1  0
 48 50  1  0
 48 47  1  0
 49 60  2  0
 50 55  1  0
 51 59  1  0
 51 61  1  0
 52 58  1  0
 52 54  1  0
 53 59  1  0
 54 55  2  0
 54 53  1  0
 56 50  2  0
 57 56  1  0
 57 52  2  0
 58 51  1  0
 59 49  1  0
 61 63  2  0
 62 61  1  0
 64 62  1  0
 65 74  2  0
 65 70  1  0
 66 62  1  0
 66 70  1  0
 67 66  1  0
 68 69  1  0
 68 67  1  0
 69 65  1  0
 70 71  2  0
 71 72  1  0
 73 72  2  0
 74 73  1  0
 75 49  1  0
 75 76  1  0
 75 85  1  0
 76 79  1  0
 77 81  1  0
 77 76  1  0
 78 77  2  0
 81 80  1  0
 83 81  1  0
 83 84  1  0
 83 82  1  0
 85 88  1  1
 85 86  1  0
 87 85  1  0
M  ISO  4   2 100  15 100  47 101  48 101
M  END
>  <TORSDO>  (54) 
F 18

>  <SCORE>  (54) 
-16.015

>  <name>  (54) 
54

>  <ligand_id>  (54) 
54

>  <original_smiles>  (54) 
[H]c1c([H])c([H])c2c(c1[H])C([H])([H])C([H])([H])C([H])([H])C2([H])N([H])C(=O)C1([H])N(C(=O)C([H])(N([H])C(=O)C([H])(N([H])C([H])([H])[H])C([H])([H])[H])C(C([H])([H])[H])(C([H])([H])[H])C([H])([H])[H])C([H])([H])c2c([H])c(OC([H])([H])C([H])([H])C([H])([H])[N+]3([H])C([H])([H])C([H])([H])N(C(=O)N4C([H])([H])C([H])([H])C([H])([H])C([H])(n5nc(-c6c([H])c([H])c(Oc7c([H])c([H])c(F)c([H])c7F)c([H])c6[H])c(C(=O)N([H])[H])c5N([H])[H])C4([H])[H])C([H])([H])C([H])([H])C3([H])[H])c([H])c([H])c2C1([H])[H]

>  <smiles>  (54) 
[H]c1c([H])c([H])c2c(c1[H])C([H])([H])C([H])([H])C([H])([H])C2([H])N([H])C(=O)C1([H])N(C(=O)C([H])(N([H])C(=O)C([H])(N([H])C([H])([H])[H])C([H])([H])[H])C(C([H])([H])[H])(C([H])([H])[H])C([H])([H])[H])C([H])([H])c2c([H])c(OC([H])([H])C([H])([H])C([H])([H])[N+]3([H])C([H])([H])C([H])([H])N(C(=O)N4C([H])([H])C([H])([H])C([H])([H])C([H])(n5nc(-c6c([H])c([H])c(Oc7c([H])c([H])c(F)c([H])c7F)c([H])c6[H])c(C(=O)N([H])[H])c5N([H])[H])C4([H])[H])C([H])([H])C([H])([H])C3([H])[H])c([H])c([H])c2C1([H])[H]

$$$$
55:0:0
     RDKit          3D

 98105  0  0  1  0  0  0  0  0999 V2000
  -28.7610  -22.4300   19.7110 C   0  0  0  0  0  0  0  0  0  0  0  0
  -29.5690  -21.4000   20.1380 N   0  0  0  0  0  0  0  0  0  0  0  0
  -28.0010  -22.2420   18.7590 O   0  0  0  0  0  0  0  0  0  0  0  0
  -30.1870  -21.6010   20.9140 H   0  0  0  0  0  0  0  0  0  0  0  0
  -29.5220  -19.9480   19.7060 C   0  0  0  0  0  2  0  0  0  0  0  0
  -30.7240  -18.9480   20.1140 C   0  0  0  0  0  3  0  0  0  0  0  0
  -30.4740  -17.4570   19.7860 N   0  0  0  0  0  4  0  0  0  0  0  0
  -29.4980  -17.3400   19.5690 H   0  0  0  0  0  0  0  0  0  0  0  0
  -30.9580  -17.2950   18.9150 H   0  0  0  0  0  0  0  0  0  0  0  0
  -30.0340  -16.1580   21.9510 C   0  0  0  0  0  1  0  0  0  0  0  0
  -30.9160  -16.2940   20.6920 C   0  0  0  0  0  3  0  0  0  0  0  0
  -31.3370  -14.9100   19.9830 C   0  0  0  0  0  0  0  0  0  0  0  0
  -31.0200  -12.6430   18.9760 C   0  0  0  0  0  2  0  0  0  0  0  0
  -30.0480  -12.7160   17.7710 C   0  0  0  0  0  2  0  0  0  0  0  0
  -28.5770  -12.6170   18.2180 C   0  0  0  0  0  2  0  0  0  0  0  0
  -28.2690  -13.5100   19.4460 C   0  0  0  0  0  3  0  0  0  0  0  0
  -29.3470  -13.3320   20.5350 C   0  0  0  0  0  2  0  0  0  0  0  0
  -30.6450  -13.7070   19.9430 N   0  0  0  0  0  0  0  0  0  0  0  0
  -32.4260  -14.9620   19.4020 O   0  0  0  0  0  0  0  0  0  0  0  0
  -25.9140  -14.1990   20.2030 C   0  0  0  0  0  0  0  0  0  0  0  0
  -24.8300  -13.4690   20.6030 C   0  0  0  0  0  0  0  0  0  0  0  0
  -25.2390  -12.1010   20.5660 C   0  0  0  0  0  0  0  0  0  0  0  0
  -26.9200  -13.2790   19.9520 N   0  0  0  0  0  0  0  0  0  0  0  0
  -26.5210  -12.0120   20.2290 N   0  0  0  0  0  0  0  0  0  0  0  0
  -24.4710  -10.8690   20.7760 C   0  0  0  0  0  0  0  0  0  0  0  0
  -24.8400   -9.9260   21.7610 C   0  0  0  0  0  3  0  0  0  0  0  0
  -24.0720   -8.7580   21.9550 C   0  0  0  0  0  3  0  0  0  0  0  0
  -22.9240   -8.5220   21.1610 C   0  0  0  0  0  0  0  0  0  0  0  0
  -22.5790   -9.4500   20.1620 C   0  0  0  0  0  3  0  0  0  0  0  0
  -23.3470  -10.6100   19.9680 C   0  0  0  0  0  3  0  0  0  0  0  0
  -22.1310   -7.4060   21.2640 O   0  0  0  0  0  0  0  0  0  0  0  0
  -21.9340   -6.7700   22.4630 C   0  0  0  0  0  0  0  0  0  0  0  0
  -21.3900   -7.4420   23.5790 C   0  0  0  0  0  3  0  0  0  0  0  0
  -21.1350   -6.7340   24.7700 C   0  0  0  0  0  3  0  0  0  0  0  0
  -21.4180   -5.3560   24.8490 C   0  0  0  0  0  0  0  0  0  0  0  0
  -21.9580   -4.6860   23.7360 C   0  0  0  0  0  3  0  0  0  0  0  0
  -22.2120   -5.3910   22.5460 C   0  0  0  0  0  0  0  0  0  0  0  0
  -22.7110   -4.7340   21.4710 F   0  0  0  0  0  0  0  0  0  0  0  0
  -21.1690   -4.6750   25.9920 F   0  0  0  0  0  0  0  0  0  0  0  0
  -23.4590  -13.9970   20.9110 C   0  0  0  0  0  0  0  0  0  0  0  0
  -22.7360  -13.3340   21.8050 N   0  0  0  0  0  0  0  0  0  0  0  0
  -23.0430  -15.0330   20.3910 O   0  0  0  0  0  0  0  0  0  0  0  0
  -23.0900  -12.4920   22.2330 H   0  0  0  0  0  0  0  0  0  0  0  0
  -21.8190  -13.6700   22.0640 H   0  0  0  0  0  0  0  0  0  0  0  0
  -26.1290  -15.5610   20.0110 N   0  0  0  0  0  0  0  0  0  0  0  0
  -25.3970  -16.2530   20.1290 H   0  0  0  0  0  0  0  0  0  0  0  0
  -26.9560  -15.9380   19.5690 H   0  0  0  0  0  0  0  0  0  0  0  0
  -32.2190  -20.4050   21.6830 C   0  0  0  0  0  1  0  0  0  0  0  0
  -31.2210  -19.2380   21.5600 C   0  0  0  0  0  2  0  0  0  0  0  0
  -28.7290  -23.8510   20.4420 C   0  0  0  0  0  3  0  0  0  0  0  0
  -27.5520  -22.5750   22.4330 C   0  0  0  0  0  1  0  0  0  0  0  0
  -27.6580  -23.8680   21.5840 C   0  0  0  0  0  3  0  0  0  0  0  0
  -27.8740  -25.0180   22.4910 N   0  0  0  0  0  4  0  0  0  0  0  0
  -28.7200  -24.9090   23.0250 H   0  0  0  0  0  0  0  0  0  0  0  0
  -27.1060  -25.1200   23.1340 H   0  0  0  0  0  0  0  0  0  0  0  0
  -27.9450  -25.8670   21.9530 H   0  0  0  0  0  0  0  0  0  0  0  0
  -28.4900  -25.1130   19.4660 C   0  0  0  0  0  2  0  0  0  0  0  0
  -28.4280  -26.5120   19.9960 O   0  0  0  0  0  0  0  0  0  0  0  0
  -24.6390  -31.8120   23.0990 C   0  0  0  0  0  0  0  0  0  0  0  0
  -27.2780  -27.3270   19.9380 C   0  0  0  0  0  0  0  0  0  0  0  0
  -23.4400  -30.4260   21.4460 C   0  0  0  0  0  3  0  0  0  0  0  0
  -24.8950  -28.9230   19.9770 C   0  0  0  0  0  0  0  0  0  0  0  0
  -25.9750  -30.7790   21.2480 C   0  0  0  0  0  2  0  0  0  0  0  0
  -26.0640  -29.4140   20.5720 C   0  0  0  0  0  0  0  0  0  0  0  0
  -27.2550  -28.6260   20.5430 C   0  0  0  0  0  3  0  0  0  0  0  0
  -26.0770  -26.8930   19.3280 C   0  0  0  0  0  3  0  0  0  0  0  0
  -24.9060  -27.6720   19.3450 C   0  0  0  0  0  3  0  0  0  0  0  0
  -23.6470  -29.7770   20.0520 C   0  0  0  0  0  2  0  0  0  0  0  0
  -24.7040  -31.0230   21.9870 N   0  0  0  0  0  0  0  0  0  0  0  0
  -23.5570  -32.0680   23.6480 O   0  0  0  0  0  0  0  0  0  0  0  0
  -22.8000  -29.3830   22.3950 C   0  0  0  0  0  0  0  0  0  0  0  0
  -21.4770  -29.1870   22.2700 N   0  0  0  0  0  0  0  0  0  0  0  0
  -23.4920  -28.7570   23.2010 O   0  0  0  0  0  0  0  0  0  0  0  0
  -20.9790  -29.7490   21.5940 H   0  0  0  0  0  0  0  0  0  0  0  0
  -18.1190  -27.9200   22.7490 C   0  0  0  0  0  0  0  0  0  0  0  0
  -20.6730  -28.2220   23.0240 C   0  0  0  0  0  3  0  0  0  0  0  0
  -20.8000  -26.8010   22.4280 C   0  0  0  0  0  2  0  0  0  0  0  0
  -19.7020  -26.4720   21.4110 C   0  0  0  0  0  2  0  0  0  0  0  0
  -18.3190  -26.5830   22.0570 C   0  0  0  0  0  2  0  0  0  0  0  0
  -19.2230  -28.6980   23.1880 C   0  0  0  0  0  0  0  0  0  0  0  0
  -18.9820  -29.9490   23.7940 C   0  0  0  0  0  3  0  0  0  0  0  0
  -17.6670  -30.4220   23.9710 C   0  0  0  0  0  3  0  0  0  0  0  0
  -16.5770  -29.6400   23.5470 C   0  0  0  0  0  3  0  0  0  0  0  0
  -16.8050  -28.3930   22.9410 C   0  0  0  0  0  3  0  0  0  0  0  0
  -25.9190  -32.4480   23.7260 C   0  0  0  0  0  3  0  0  0  0  0  0
  -26.4740  -31.6400   24.9650 C   0  0  1  0  0  0  0  0  0  0  0  0
  -25.4030  -31.3360   26.0410 C   0  0  0  0  0  1  0  0  0  0  0  0
  -27.0830  -30.2920   24.5130 C   0  0  0  0  0  1  0  0  0  0  0  0
  -27.6160  -32.4380   25.6380 C   0  0  0  0  0  1  0  0  0  0  0  0
  -25.5830  -33.8230   24.1160 N   0  0  0  0  0  0  0  0  0  0  0  0
  -25.8800  -34.9140   23.3980 C   0  0  0  0  0  0  0  0  0  0  0  0
  -26.5350  -34.8690   22.3540 O   0  0  0  0  0  0  0  0  0  0  0  0
  -24.9980  -33.9300   24.9320 H   0  0  0  0  0  0  0  0  0  0  0  0
  -24.1130  -36.6870   23.1430 C   0  0  0  0  0  1  0  0  0  0  0  0
  -25.3710  -36.2720   23.9210 C   0  0  0  0  0  3  0  0  0  0  0  0
  -27.4950  -37.1650   24.7680 C   0  0  0  0  0  1  0  0  0  0  0  0
  -26.3820  -37.3490   23.8420 N   0  0  0  0  0  0  0  0  0  0  0  0
  -25.9580  -38.2540   24.0300 H   0  0  0  0  0  0  0  0  0  0  0  0
  1  2  1  0
  1 50  1  0
  2  4  1  0
  3  1  2  0
  5  2  1  0
  6  5  1  0
  6 49  1  0
  7  6  1  0
  7 11  1  0
  8  7  1  0
  9  7  1  0
 11 10  1  0
 12 11  1  0
 13 18  1  0
 14 15  1  0
 14 13  1  0
 16 15  1  0
 16 23  1  0
 16 17  1  0
 18 12  1  0
 18 17  1  0
 19 12  2  0
 20 21  2  0
 21 40  1  0
 22 21  1  0
 22 25  1  0
 23 20  1  0
 23 24  1  0
 24 22  2  0
 25 26  1  0
 26 27  2  0
 28 31  1  0
 28 27  1  0
 29 28  2  0
 30 29  1  0
 30 25  2  0
 31 32  1  0
 32 37  2  0
 32 33  1  0
 33 34  2  0
 34 35  1  0
 35 39  1  0
 36 35  2  0
 37 36  1  0
 38 37  1  0
 40 41  1  0
 41 44  1  0
 41 43  1  0
 42 40  2  0
 45 46  1  0
 45 20  1  0
 47 45  1  0
 49 48  1  0
 50 57  1  0
 50 52  1  0
 52 51  1  0
 52 53  1  0
 53 54  1  0
 53 55  1  0
 56 53  1  0
 57 58  1  0
 59 70  2  0
 60 58  1  0
 60 65  1  0
 61 69  1  0
 61 71  1  0
 62 68  1  0
 62 64  1  0
 63 69  1  0
 64 63  1  0
 65 64  2  0
 66 67  1  0
 66 60  2  0
 67 62  2  0
 68 61  1  0
 69 59  1  0
 71 73  2  0
 72 71  1  0
 74 72  1  0
 75 84  2  0
 75 80  1  0
 76 72  1  0
 76 80  1  0
 77 76  1  0
 78 79  1  0
 78 77  1  0
 79 75  1  0
 80 81  2  0
 81 82  1  0
 83 82  2  0
 84 83  1  0
 85 59  1  0
 85 90  1  0
 85 86  1  0
 86 89  1  1
 86 87  1  0
 88 86  1  0
 90 93  1  0
 91 95  1  0
 91 90  1  0
 92 91  2  0
 95 94  1  0
 97 95  1  0
 97 98  1  0
 97 96  1  0
M  ISO  4  11 100  12 100  57 101  58 101
M  END
>  <TORSDO>  (55) 
F 25

>  <SCORE>  (55) 
-11.098

>  <name>  (55) 
55

>  <ligand_id>  (55) 
55

>  <original_smiles>  (55) 
[H]c1c([H])c([H])c2c(c1[H])C([H])([H])C([H])([H])C([H])([H])C2([H])N([H])C(=O)C1([H])N(C(=O)C([H])(N([H])C(=O)C([H])(N([H])C([H])([H])[H])C([H])([H])[H])C(C([H])([H])[H])(C([H])([H])[H])C([H])([H])[H])C([H])([H])c2c([H])c(OC([H])([H])C([H])(C(=O)N([H])C([H])([H])C([H])(C([H])([H])C([H])([H])[H])[N+]([H])([H])C([H])(C(=O)N3C([H])([H])C([H])([H])C([H])([H])C([H])(n4nc(-c5c([H])c([H])c(Oc6c([H])c([H])c(F)c([H])c6F)c([H])c5[H])c(C(=O)N([H])[H])c4N([H])[H])C3([H])[H])C([H])([H])[H])C([H])(C([H])([H])[H])[N+]([H])([H])[H])c([H])c([H])c2C1([H])[H]

>  <smiles>  (55) 
[H]c1c([H])c([H])c2c(c1[H])C([H])([H])C([H])([H])C([H])([H])C2([H])N([H])C(=O)C1([H])N(C(=O)C([H])(N([H])C(=O)C([H])(N([H])C([H])([H])[H])C([H])([H])[H])C(C([H])([H])[H])(C([H])([H])[H])C([H])([H])[H])C([H])([H])c2c([H])c(OC([H])([H])C([H])(C(=O)N([H])C([H])([H])C([H])(C([H])([H])C([H])([H])[H])[N+]([H])([H])C([H])(C(=O)N3C([H])([H])C([H])([H])C([H])([H])C([H])(n4nc(-c5c([H])c([H])c(Oc6c([H])c([H])c(F)c([H])c6F)c([H])c5[H])c(C(=O)N([H])[H])c4N([H])[H])C3([H])[H])C([H])([H])[H])C([H])(C([H])([H])[H])[N+]([H])([H])[H])c([H])c([H])c2C1([H])[H]

$$$$
56:0:0
     RDKit          3D

 84 88  0  0  1  0  0  0  0  0999 V2000
  -28.7090  -21.3450   20.5120 C   0  0  0  0  0 15  0  0  0  0  0  0
  -28.2540  -23.3410   19.9820 C   0  0  0  0  0 15  0  0  0  0  0  0
  -28.1070  -25.1880   20.4040 O   0  0  0  0  0  1  0  0  0  0  0  0
  -24.6110  -31.8300   23.1550 C   0  0  0  0  0  0  0  0  0  0  0  0
  -27.1700  -26.5140   20.2670 C   0  0  0  0  0  0  0  0  0  0  0  0
  -23.4510  -30.4030   21.5260 C   0  0  0  0  0  3  0  0  0  0  0  0
  -24.9200  -28.6960   20.1560 C   0  0  0  0  0  0  0  0  0  0  0  0
  -26.0400  -30.4810   21.4580 C   0  0  0  0  0  2  0  0  0  0  0  0
  -26.1100  -29.0150   20.8170 C   0  0  0  0  0  0  0  0  0  0  0  0
  -27.2020  -27.9570   20.8390 C   0  0  0  0  0  3  0  0  0  0  0  0
  -25.9470  -26.4740   19.5300 C   0  0  0  0  0  3  0  0  0  0  0  0
  -24.8930  -27.4560   19.4860 C   0  0  0  0  0  3  0  0  0  0  0  0
  -23.7180  -29.6730   20.1740 C   0  0  0  0  0  2  0  0  0  0  0  0
  -24.7270  -30.9460   22.0980 N   0  0  0  0  0  0  0  0  0  0  0  0
  -23.5070  -32.1430   23.6390 O   0  0  0  0  0  0  0  0  0  0  0  0
  -22.7060  -29.4580   22.5090 C   0  0  0  0  0  0  0  0  0  0  0  0
  -21.3700  -29.3220   22.3850 N   0  0  0  0  0  0  0  0  0  0  0  0
  -23.3470  -28.8380   23.3620 O   0  0  0  0  0  0  0  0  0  0  0  0
  -20.8990  -29.8700   21.6790 H   0  0  0  0  0  0  0  0  0  0  0  0
  -17.9680  -28.1420   22.9220 C   0  0  0  0  0  0  0  0  0  0  0  0
  -20.5330  -28.3980   23.1640 C   0  0  0  0  0  3  0  0  0  0  0  0
  -20.6190  -26.9610   22.5960 C   0  0  0  0  0  2  0  0  0  0  0  0
  -19.5100  -26.6450   21.5870 C   0  0  0  0  0  2  0  0  0  0  0  0
  -18.1330  -26.7960   22.2380 C   0  0  0  0  0  2  0  0  0  0  0  0
  -19.0940  -28.9020   23.3410 C   0  0  0  0  0  0  0  0  0  0  0  0
  -18.8810  -30.1590   23.9490 C   0  0  0  0  0  3  0  0  0  0  0  0
  -17.5780  -30.6580   24.1340 C   0  0  0  0  0  3  0  0  0  0  0  0
  -16.4680  -29.8980   23.7260 C   0  0  0  0  0  3  0  0  0  0  0  0
  -16.6640  -28.6410   23.1260 C   0  0  0  0  0  3  0  0  0  0  0  0
  -25.8550  -32.5050   23.8090 C   0  0  0  0  0  3  0  0  0  0  0  0
  -26.3290  -31.7760   25.1290 C   0  0  1  0  0  0  0  0  0  0  0  0
  -25.2020  -31.5720   26.1710 C   0  0  0  0  0  1  0  0  0  0  0  0
  -26.9250  -30.3860   24.8160 C   0  0  0  0  0  1  0  0  0  0  0  0
  -27.4580  -32.5920   25.8020 C   0  0  0  0  0  1  0  0  0  0  0  0
  -25.5170  -33.9110   24.1210 N   0  0  0  0  0  0  0  0  0  0  0  0
  -25.8620  -34.9760   23.3820 C   0  0  0  0  0  0  0  0  0  0  0  0
  -26.5470  -34.8780   22.3630 O   0  0  0  0  0  0  0  0  0  0  0  0
  -24.9070  -34.0600   24.9110 H   0  0  0  0  0  0  0  0  0  0  0  0
  -24.1410  -36.7870   23.0260 C   0  0  0  0  0  1  0  0  0  0  0  0
  -25.3750  -36.3680   23.8430 C   0  0  0  0  0  3  0  0  0  0  0  0
  -27.4990  -37.2610   24.6990 C   0  0  0  0  0  1  0  0  0  0  0  0
  -26.4090  -37.4240   23.7420 N   0  0  0  0  0  0  0  0  0  0  0  0
  -26.0000  -38.3430   23.8810 H   0  0  0  0  0  0  0  0  0  0  0  0
  -29.3850  -19.4380   19.9140 C   0  0  0  0  0  2  0  0  0  0  0  0
  -30.1540  -16.0890   20.1420 C   0  0  0  0  0  0  0  0  0  0  0  0
  -30.3400  -13.4520   19.3560 C   0  0  0  0  0  2  0  0  0  0  0  0
  -29.4750  -12.8920   18.1780 C   0  0  0  0  0  2  0  0  0  0  0  0
  -28.0890  -12.4540   18.6630 C   0  0  0  0  0  2  0  0  0  0  0  0
  -27.5430  -13.4660   19.6900 C   0  0  0  0  0  3  0  0  0  0  0  0
  -28.5620  -13.9190   20.7740 C   0  0  0  0  0  2  0  0  0  0  0  0
  -29.6710  -14.6580   20.0930 N   0  0  0  0  0  0  0  0  0  0  0  0
  -31.3800  -15.9650   19.9070 O   0  0  0  0  0  0  0  0  0  0  0  0
  -29.4180  -17.5590   20.2740 N   0  0  0  0  0  0  0  0  0  0  0  0
  -28.4820  -17.3230   20.5760 H   0  0  0  0  0  0  0  0  0  0  0  0
  -25.1990  -13.9490   20.5080 C   0  0  0  0  0  0  0  0  0  0  0  0
  -24.1510  -13.1570   20.8790 C   0  0  0  0  0  0  0  0  0  0  0  0
  -24.6290  -11.8110   20.8190 C   0  0  0  0  0  0  0  0  0  0  0  0
  -26.2450  -13.0910   20.2330 N   0  0  0  0  0  0  0  0  0  0  0  0
  -25.9180  -11.7930   20.4840 N   0  0  0  0  0  0  0  0  0  0  0  0
  -23.9060  -10.5430   21.0010 C   0  0  0  0  0  0  0  0  0  0  0  0
  -24.3430   -9.5660   21.9220 C   0  0  0  0  0  3  0  0  0  0  0  0
  -23.6140   -8.3700   22.0980 C   0  0  0  0  0  3  0  0  0  0  0  0
  -22.4330   -8.1410   21.3530 C   0  0  0  0  0  0  0  0  0  0  0  0
  -22.0130   -9.1060   20.4220 C   0  0  0  0  0  3  0  0  0  0  0  0
  -22.7420  -10.2940   20.2440 C   0  0  0  0  0  3  0  0  0  0  0  0
  -21.6750   -6.9970   21.4390 O   0  0  0  0  0  0  0  0  0  0  0  0
  -21.6300   -6.2470   22.5870 C   0  0  0  0  0  0  0  0  0  0  0  0
  -21.1920   -6.7890   23.8140 C   0  0  0  0  0  3  0  0  0  0  0  0
  -21.0950   -5.9660   24.9540 C   0  0  0  0  0  3  0  0  0  0  0  0
  -21.4270   -4.6000   24.8670 C   0  0  0  0  0  0  0  0  0  0  0  0
  -21.8570   -4.0560   23.6440 C   0  0  0  0  0  3  0  0  0  0  0  0
  -21.9560   -4.8770   22.5070 C   0  0  0  0  0  0  0  0  0  0  0  0
  -22.3500   -4.3440   21.3260 F   0  0  0  0  0  0  0  0  0  0  0  0
  -21.3270   -3.8060   25.9590 F   0  0  0  0  0  0  0  0  0  0  0  0
  -22.7560  -13.6250   21.1700 C   0  0  0  0  0  0  0  0  0  0  0  0
  -22.0390  -12.9150   22.0320 N   0  0  0  0  0  0  0  0  0  0  0  0
  -22.3130  -14.6580   20.6690 O   0  0  0  0  0  0  0  0  0  0  0  0
  -22.4130  -12.0810   22.4600 H   0  0  0  0  0  0  0  0  0  0  0  0
  -21.1030  -13.2110   22.2710 H   0  0  0  0  0  0  0  0  0  0  0  0
  -25.3460  -15.3240   20.3440 N   0  0  0  0  0  0  0  0  0  0  0  0
  -24.5730  -15.9690   20.4690 H   0  0  0  0  0  0  0  0  0  0  0  0
  -26.1790  -15.7680   19.9820 H   0  0  0  0  0  0  0  0  0  0  0  0
  -29.5700  -20.6040   17.6020 C   0  0  0  0  0  1  0  0  0  0  0  0
  -29.0390  -19.4130   18.4110 C   0  0  0  0  0  2  0  0  0  0  0  0
  4 15  2  0
  5  3  1  0
  5 10  1  0
  6 14  1  0
  6 16  1  0
  7 13  1  0
  7  9  1  0
  8 14  1  0
  9 10  2  0
  9  8  1  0
 11  5  2  0
 12 11  1  0
 12  7  2  0
 13  6  1  0
 14  4  1  0
 16 18  2  0
 17 16  1  0
 19 17  1  0
 20 29  2  0
 20 25  1  0
 21 17  1  0
 21 25  1  0
 22 21  1  0
 23 24  1  0
 23 22  1  0
 24 20  1  0
 25 26  2  0
 26 27  1  0
 28 27  2  0
 29 28  1  0
 30  4  1  0
 30 35  1  0
 30 31  1  0
 31 34  1  1
 31 32  1  0
 33 31  1  0
 35 38  1  0
 36 40  1  0
 36 35  1  0
 37 36  2  0
 40 39  1  0
 42 40  1  0
 42 43  1  0
 42 41  1  0
 44 53  1  0
 45 53  1  0
 46 51  1  0
 47 48  1  0
 47 46  1  0
 49 48  1  0
 49 58  1  0
 49 50  1  0
 51 45  1  0
 51 50  1  0
 52 45  2  0
 53 54  1  0
 55 56  2  0
 56 75  1  0
 57 56  1  0
 57 60  1  0
 58 59  1  0
 58 55  1  0
 59 57  2  0
 60 61  1  0
 61 62  2  0
 63 66  1  0
 63 62  1  0
 64 63  2  0
 65 64  1  0
 65 60  2  0
 66 67  1  0
 67 68  1  0
 68 69  2  0
 70 69  1  0
 70 74  1  0
 71 70  2  0
 72 67  2  0
 72 71  1  0
 73 72  1  0
 75 76  1  0
 76 79  1  0
 76 78  1  0
 77 75  2  0
 80 81  1  0
 80 55  1  0
 82 80  1  0
 83 84  1  0
 84 44  1  0
M  ISO  4   2 101   3 101  45 100  53 100
M  END
>  <TORSDO>  (56) 
F 19

>  <SCORE>  (56) 
-16.014

>  <name>  (56) 
56

>  <ligand_id>  (56) 
56

>  <original_smiles>  (56) 
[H]c1c([H])c([H])c2c(c1[H])C([H])([H])C([H])([H])C([H])([H])C2([H])N([H])C(=O)C1([H])N(C(=O)C([H])(N([H])C(=O)C([H])(N([H])C([H])([H])[H])C([H])([H])[H])C(C([H])([H])[H])(C([H])([H])[H])C([H])([H])[H])C([H])([H])c2c([H])c(OC([H])([H])C([H])([H])C([H])(N([H])C(=O)N3C([H])([H])C([H])([H])C([H])([H])C([H])(n4nc(-c5c([H])c([H])c(Oc6c([H])c([H])c(F)c([H])c6F)c([H])c5[H])c(C(=O)N([H])[H])c4N([H])[H])C3([H])[H])C([H])([H])C([H])([H])[H])c([H])c([H])c2C1([H])[H]

>  <smiles>  (56) 
[H]c1c([H])c([H])c2c(c1[H])C([H])([H])C([H])([H])C([H])([H])C2([H])N([H])C(=O)C1([H])N(C(=O)C([H])(N([H])C(=O)C([H])(N([H])C([H])([H])[H])C([H])([H])[H])C(C([H])([H])[H])(C([H])([H])[H])C([H])([H])[H])C([H])([H])c2c([H])c(OC([H])([H])C([H])([H])C([H])(N([H])C(=O)N3C([H])([H])C([H])([H])C([H])([H])C([H])(n4nc(-c5c([H])c([H])c(Oc6c([H])c([H])c(F)c([H])c6F)c([H])c5[H])c(C(=O)N([H])[H])c4N([H])[H])C3([H])[H])C([H])([H])C([H])([H])[H])c([H])c([H])c2C1([H])[H]

$$$$
57:0:0
     RDKit          3D

 89 98  0  0  1  0  0  0  0  0999 V2000
  -27.7610  -22.7150   21.7700 C   0  0  0  0  0  2  0  0  0  0  0  0
  -27.2980  -24.1160   21.1810 C   0  0  0  0  0  2  0  0  0  0  0  0
  -29.1050  -23.6940   19.4070 C   0  0  0  0  0  3  0  0  0  0  0  0
  -28.6340  -20.1430   21.1430 C   0  0  0  0  0  2  0  0  0  0  0  0
  -29.8190  -20.8210   19.2940 C   0  0  0  0  0  2  0  0  0  0  0  0
  -27.9880  -21.5620   20.7280 C   0  0  0  0  0  3  0  0  0  0  0  0
  -28.7820  -22.0600   19.5140 C   0  0  0  0  0  3  0  0  0  0  0  0
  -28.4090  -24.8380   20.3710 C   0  0  0  0  0  0  0  0  0  0  0  0
  -29.2890  -19.5170   19.9270 N   0  0  1  0  0  4  0  0  0  0  0  0
  -28.5300  -19.2290   19.3270 H   0  0  0  0  0  0  0  0  0  0  0  0
  -28.3790  -26.3880   20.1200 O   0  0  0  0  0  0  0  0  0  0  0  0
  -24.6370  -31.9650   23.2000 C   0  0  0  0  0  0  0  0  0  0  0  0
  -27.2580  -27.2920   20.1420 C   0  0  0  0  0  0  0  0  0  0  0  0
  -23.4410  -30.5540   21.5670 C   0  0  0  0  0  3  0  0  0  0  0  0
  -24.8970  -28.9950   20.1310 C   0  0  0  0  0  0  0  0  0  0  0  0
  -25.9850  -30.8610   21.3750 C   0  0  0  0  0  2  0  0  0  0  0  0
  -26.0730  -29.4690   20.7210 C   0  0  0  0  0  0  0  0  0  0  0  0
  -27.2510  -28.6350   20.7040 C   0  0  0  0  0  3  0  0  0  0  0  0
  -26.0520  -26.9100   19.5220 C   0  0  0  0  0  3  0  0  0  0  0  0
  -24.8970  -27.7270   19.5210 C   0  0  0  0  0  3  0  0  0  0  0  0
  -23.6560  -29.8760   20.1860 C   0  0  0  0  0  2  0  0  0  0  0  0
  -24.7080  -31.1490   22.1030 N   0  0  0  0  0  0  0  0  0  0  0  0
  -23.5540  -32.2310   23.7390 O   0  0  0  0  0  0  0  0  0  0  0  0
  -22.7900  -29.5360   22.5370 C   0  0  0  0  0  0  0  0  0  0  0  0
  -21.4680  -29.3270   22.4080 N   0  0  0  0  0  0  0  0  0  0  0  0
  -23.4780  -28.9370   23.3690 O   0  0  0  0  0  0  0  0  0  0  0  0
  -20.9700  -29.8690   21.7150 H   0  0  0  0  0  0  0  0  0  0  0  0
  -18.1200  -28.0340   22.8960 C   0  0  0  0  0  0  0  0  0  0  0  0
  -20.6690  -28.3690   23.1780 C   0  0  0  0  0  3  0  0  0  0  0  0
  -20.8150  -26.9370   22.6090 C   0  0  0  0  0  2  0  0  0  0  0  0
  -19.7290  -26.5800   21.5910 C   0  0  0  0  0  2  0  0  0  0  0  0
  -18.3390  -26.6860   22.2280 C   0  0  0  0  0  2  0  0  0  0  0  0
  -19.2140  -28.8290   23.3270 C   0  0  0  0  0  0  0  0  0  0  0  0
  -18.9580  -30.0880   23.9130 C   0  0  0  0  0  3  0  0  0  0  0  0
  -17.6400  -30.5480   24.0810 C   0  0  0  0  0  3  0  0  0  0  0  0
  -16.5580  -29.7480   23.6710 C   0  0  0  0  0  3  0  0  0  0  0  0
  -16.8000  -28.4960   23.0790 C   0  0  0  0  0  3  0  0  0  0  0  0
  -25.9110  -32.6190   23.8170 C   0  0  0  0  0  3  0  0  0  0  0  0
  -25.5880  -34.0180   24.1370 N   0  0  0  0  0  0  0  0  0  0  0  0
  -25.9020  -35.0700   23.3690 C   0  0  0  0  0  0  0  0  0  0  0  0
  -26.5600  -34.9670   22.3330 O   0  0  0  0  0  0  0  0  0  0  0  0
  -25.0080  -34.1790   24.9470 H   0  0  0  0  0  0  0  0  0  0  0  0
  -24.1560  -36.8510   23.0290 C   0  0  0  0  0  1  0  0  0  0  0  0
  -25.4070  -36.4580   23.8280 C   0  0  0  0  0  3  0  0  0  0  0  0
  -27.5340  -37.3790   24.6360 C   0  0  0  0  0  1  0  0  0  0  0  0
  -26.4260  -37.5200   23.6950 N   0  0  0  0  0  0  0  0  0  0  0  0
  -26.0090  -38.4360   23.8390 H   0  0  0  0  0  0  0  0  0  0  0  0
  -26.4310  -31.8700   25.1080 C   0  0  1  0  0  0  0  0  0  0  0  0
  -25.3310  -31.6220   26.1690 C   0  0  0  0  0  1  0  0  0  0  0  0
  -27.0500  -30.5030   24.7330 C   0  0  0  0  0  1  0  0  0  0  0  0
  -27.5580  -32.6980   25.7730 C   0  0  0  0  0  1  0  0  0  0  0  0
  -30.2430  -18.2270   20.0500 C   0  0  0  0  0  3  0  0  0  0  0  0
  -29.7530  -16.6030   20.2300 C   0  0  0  0  0  3  0  0  0  0  0  0
  -30.6460  -15.2070   19.9520 C   0  0  0  0  0  0  0  0  0  0  0  0
  -30.5700  -12.8240   19.0440 C   0  0  0  0  0  2  0  0  0  0  0  0
  -29.5780  -12.7450   17.8580 C   0  0  0  0  0  2  0  0  0  0  0  0
  -28.1380  -12.5210   18.3570 C   0  0  0  0  0  2  0  0  0  0  0  0
  -27.7750  -13.4600   19.5360 C   0  0  0  0  0  3  0  0  0  0  0  0
  -28.8750  -13.4860   20.6140 C   0  0  0  0  0  2  0  0  0  0  0  0
  -30.1180  -13.9120   19.9610 N   0  0  0  0  0  0  0  0  0  0  0  0
  -31.8230  -15.2980   19.5780 O   0  0  0  0  0  0  0  0  0  0  0  0
  -25.4450  -14.0430   20.4140 C   0  0  0  0  0  0  0  0  0  0  0  0
  -24.3950  -13.2690   20.8240 C   0  0  0  0  0  0  0  0  0  0  0  0
  -24.8420  -11.9150   20.7340 C   0  0  0  0  0  0  0  0  0  0  0  0
  -26.4630  -13.1620   20.0940 N   0  0  0  0  0  0  0  0  0  0  0  0
  -26.1150  -11.8770   20.3540 N   0  0  0  0  0  0  0  0  0  0  0  0
  -24.1160  -10.6550   20.9350 C   0  0  0  0  0  0  0  0  0  0  0  0
  -24.5300   -9.7050   21.8940 C   0  0  0  0  0  3  0  0  0  0  0  0
  -23.8010   -8.5100   22.0780 C   0  0  0  0  0  3  0  0  0  0  0  0
  -22.6430   -8.2580   21.3030 C   0  0  0  0  0  0  0  0  0  0  0  0
  -22.2490   -9.1970   20.3340 C   0  0  0  0  0  3  0  0  0  0  0  0
  -22.9780  -10.3830   20.1480 C   0  0  0  0  0  3  0  0  0  0  0  0
  -21.8870   -7.1140   21.3960 O   0  0  0  0  0  0  0  0  0  0  0  0
  -21.7410   -6.4450   22.5840 C   0  0  0  0  0  0  0  0  0  0  0  0
  -21.1660   -7.0570   23.7190 C   0  0  0  0  0  3  0  0  0  0  0  0
  -20.9680   -6.3110   24.8980 C   0  0  0  0  0  3  0  0  0  0  0  0
  -21.3380   -4.9530   24.9420 C   0  0  0  0  0  0  0  0  0  0  0  0
  -21.9030   -4.3400   23.8120 C   0  0  0  0  0  3  0  0  0  0  0  0
  -22.1020   -5.0830   22.6350 C   0  0  0  0  0  0  0  0  0  0  0  0
  -22.6290   -4.4820   21.5410 F   0  0  0  0  0  0  0  0  0  0  0  0
  -21.1410   -4.2330   26.0720 F   0  0  0  0  0  0  0  0  0  0  0  0
  -23.0190  -13.7540   21.1820 C   0  0  0  0  0  0  0  0  0  0  0  0
  -22.3330  -13.0420   22.0700 N   0  0  0  0  0  0  0  0  0  0  0  0
  -22.5660  -14.7960   20.7110 O   0  0  0  0  0  0  0  0  0  0  0  0
  -22.7100  -12.1940   22.4640 H   0  0  0  0  0  0  0  0  0  0  0  0
  -21.4160  -13.3520   22.3590 H   0  0  0  0  0  0  0  0  0  0  0  0
  -25.6150  -15.4170   20.2610 N   0  0  0  0  0  0  0  0  0  0  0  0
  -24.8630  -16.0770   20.4270 H   0  0  0  0  0  0  0  0  0  0  0  0
  -26.4460  -15.8510   19.8810 H   0  0  0  0  0  0  0  0  0  0  0  0
  2  1  1  0
  3  7  1  0
  3  8  2  0
  5  9  1  0
  6  4  1  0
  6  1  1  0
  7  5  1  0
  7  6  1  0
  8  2  1  0
  9 52  1  0
  9  4  1  0
  9 10  1  6
 11 13  1  0
 11  8  1  0
 12 23  2  0
 13 18  1  0
 14 22  1  0
 14 24  1  0
 15 21  1  0
 15 17  1  0
 16 22  1  0
 17 16  1  0
 18 17  2  0
 19 13  2  0
 20 19  1  0
 20 15  2  0
 21 14  1  0
 22 12  1  0
 24 26  2  0
 25 24  1  0
 27 25  1  0
 28 37  2  0
 28 33  1  0
 29 25  1  0
 29 33  1  0
 30 29  1  0
 31 32  1  0
 31 30  1  0
 32 28  1  0
 33 34  2  0
 34 35  1  0
 36 35  2  0
 37 36  1  0
 38 12  1  0
 38 39  1  0
 38 48  1  0
 39 42  1  0
 40 44  1  0
 40 39  1  0
 41 40  2  0
 44 43  1  0
 46 44  1  0
 46 47  1  0
 46 45  1  0
 48 51  1  1
 48 49  1  0
 50 48  1  0
 52 53  2  0
 54 60  1  0
 54 53  1  0
 55 60  1  0
 56 57  1  0
 56 55  1  0
 58 57  1  0
 58 65  1  0
 58 59  1  0
 60 59  1  0
 61 54  2  0
 62 63  2  0
 63 82  1  0
 64 63  1  0
 64 67  1  0
 65 66  1  0
 65 62  1  0
 66 64  2  0
 67 68  1  0
 68 69  2  0
 70 73  1  0
 70 69  1  0
 71 70  2  0
 72 71  1  0
 72 67  2  0
 73 74  1  0
 74 79  2  0
 74 75  1  0
 75 76  2  0
 76 77  1  0
 77 81  1  0
 78 77  2  0
 79 78  1  0
 80 79  1  0
 82 83  1  0
 83 86  1  0
 83 85  1  0
 84 82  2  0
 87 62  1  0
 87 88  1  0
 89 87  1  0
M  ISO  4   8 101  11 101  53 100  54 100
M  END
>  <TORSDO>  (57) 
F 18

>  <SCORE>  (57) 
-14.939

>  <name>  (57) 
57

>  <ligand_id>  (57) 
57

>  <original_smiles>  (57) 
[H]c1c([H])c([H])c2c(c1[H])C([H])([H])C([H])([H])C([H])([H])C2([H])N([H])C(=O)C1([H])N(C(=O)C([H])(N([H])C(=O)C([H])(N([H])C([H])([H])[H])C([H])([H])[H])C(C([H])([H])[H])(C([H])([H])[H])C([H])([H])[H])C([H])([H])c2c([H])c(OC3([H])C([H])([H])C([H])([H])C4([H])C([H])(C3([H])[H])C([H])([H])[N+]([H])(C([H])([H])C([H])([H])C(=O)N3C([H])([H])C([H])([H])C([H])([H])C([H])(n5nc(-c6c([H])c([H])c(Oc7c([H])c([H])c(F)c([H])c7F)c([H])c6[H])c(C(=O)N([H])[H])c5N([H])[H])C3([H])[H])C4([H])[H])c([H])c([H])c2C1([H])[H]

>  <smiles>  (57) 
[H]c1c([H])c([H])c2c(c1[H])C([H])([H])C([H])([H])C([H])([H])C2([H])N([H])C(=O)C1([H])N(C(=O)C([H])(N([H])C(=O)C([H])(N([H])C([H])([H])[H])C([H])([H])[H])C(C([H])([H])[H])(C([H])([H])[H])C([H])([H])[H])C([H])([H])c2c([H])c(OC3([H])C([H])([H])C([H])([H])C4([H])C([H])(C3([H])[H])C([H])([H])[N+]([H])(C([H])([H])C([H])([H])C(=O)N3C([H])([H])C([H])([H])C([H])([H])C([H])(n5nc(-c6c([H])c([H])c(Oc7c([H])c([H])c(F)c([H])c7F)c([H])c6[H])c(C(=O)N([H])[H])c5N([H])[H])C3([H])[H])C4([H])[H])c([H])c([H])c2C1([H])[H]

$$$$
58:0:0
     RDKit          3D

 88 96  0  0  1  0  0  0  0  0999 V2000
  -27.1720  -21.2980   19.6950 C   0  0  0  0  0  1  0  0  0  0  0  0
  -28.6280  -21.5230   19.5570 N   0  0  2  0  0  4  0  0  0  0  0  0
  -28.7260  -21.6770   18.5620 H   0  0  0  0  0  0  0  0  0  0  0  0
  -30.5700  -15.2260   19.8440 C   0  0  0  0  0  0  0  0  0  0  0  0
  -30.3960  -12.8220   18.9690 C   0  0  0  0  0  2  0  0  0  0  0  0
  -29.3920  -12.6800   17.8040 C   0  0  0  0  0  2  0  0  0  0  0  0
  -27.9750  -12.4360   18.3510 C   0  0  0  0  0  2  0  0  0  0  0  0
  -27.6170  -13.4000   19.5070 C   0  0  0  0  0  3  0  0  0  0  0  0
  -28.7410  -13.5310   20.5560 C   0  0  0  0  0  2  0  0  0  0  0  0
  -29.9420  -13.9650   19.8290 N   0  0  0  0  0  0  0  0  0  0  0  0
  -31.7810  -15.1860   19.5870 O   0  0  0  0  0  0  0  0  0  0  0  0
  -29.1820  -18.9370   18.5940 C   0  0  0  0  0  2  0  0  0  0  0  0
  -29.3210  -19.0740   20.9110 C   0  0  0  0  0  2  0  0  0  0  0  0
  -29.9220  -17.4590   18.6400 C   0  0  0  0  0  2  0  0  0  0  0  0
  -30.0840  -17.5970   20.9210 C   0  0  0  0  0  2  0  0  0  0  0  0
  -29.4660  -20.1050   19.6810 C   0  0  0  0  0  3  0  0  0  0  0  0
  -29.8770  -16.5220   19.8480 N   0  0  0  0  0  0  0  0  0  0  0  0
  -25.3100  -13.9590   20.4460 C   0  0  0  0  0  0  0  0  0  0  0  0
  -24.2680  -13.1770   20.8510 C   0  0  0  0  0  0  0  0  0  0  0  0
  -24.7190  -11.8260   20.7480 C   0  0  0  0  0  0  0  0  0  0  0  0
  -26.3270  -13.0840   20.1030 N   0  0  0  0  0  0  0  0  0  0  0  0
  -25.9880  -11.7950   20.3580 N   0  0  0  0  0  0  0  0  0  0  0  0
  -23.9940  -10.5630   20.9410 C   0  0  0  0  0  0  0  0  0  0  0  0
  -24.4310   -9.5940   21.8710 C   0  0  0  0  0  3  0  0  0  0  0  0
  -23.7020   -8.3980   22.0550 C   0  0  0  0  0  3  0  0  0  0  0  0
  -22.5240   -8.1630   21.3090 C   0  0  0  0  0  0  0  0  0  0  0  0
  -22.1070   -9.1210   20.3660 C   0  0  0  0  0  3  0  0  0  0  0  0
  -22.8350  -10.3060   20.1810 C   0  0  0  0  0  3  0  0  0  0  0  0
  -21.7660   -7.0200   21.4030 O   0  0  0  0  0  0  0  0  0  0  0  0
  -21.6620   -6.3200   22.5770 C   0  0  0  0  0  0  0  0  0  0  0  0
  -21.1300   -6.9050   23.7480 C   0  0  0  0  0  3  0  0  0  0  0  0
  -20.9770   -6.1290   24.9140 C   0  0  0  0  0  3  0  0  0  0  0  0
  -21.3440   -4.7700   24.9110 C   0  0  0  0  0  0  0  0  0  0  0  0
  -21.8690   -4.1850   23.7440 C   0  0  0  0  0  3  0  0  0  0  0  0
  -22.0230   -4.9580   22.5800 C   0  0  0  0  0  0  0  0  0  0  0  0
  -22.5090   -4.3840   21.4520 F   0  0  0  0  0  0  0  0  0  0  0  0
  -21.1900   -4.0220   26.0290 F   0  0  0  0  0  0  0  0  0  0  0  0
  -22.8910  -13.6530   21.2190 C   0  0  0  0  0  0  0  0  0  0  0  0
  -22.2150  -12.9350   22.1070 N   0  0  0  0  0  0  0  0  0  0  0  0
  -22.4320  -14.6970   20.7560 O   0  0  0  0  0  0  0  0  0  0  0  0
  -22.6060  -12.0900   22.4980 H   0  0  0  0  0  0  0  0  0  0  0  0
  -21.2940  -13.2300   22.4000 H   0  0  0  0  0  0  0  0  0  0  0  0
  -25.4750  -15.3340   20.3080 N   0  0  0  0  0  0  0  0  0  0  0  0
  -24.7270  -15.9880   20.5100 H   0  0  0  0  0  0  0  0  0  0  0  0
  -26.3180  -15.7870   19.9830 H   0  0  0  0  0  0  0  0  0  0  0  0
  -28.9850  -23.0250   20.1070 C   0  0  0  0  0  3  0  0  0  0  0  0
  -28.1550  -24.5190   19.6710 C   0  0  0  0  0  3  0  0  0  0  0  0
  -28.2870  -26.0640   20.1350 O   0  0  0  0  0  0  0  0  0  0  0  0
  -24.6430  -31.8250   23.2360 C   0  0  0  0  0  0  0  0  0  0  0  0
  -27.2480  -27.1060   20.0770 C   0  0  0  0  0  0  0  0  0  0  0  0
  -23.4570  -30.4570   21.5660 C   0  0  0  0  0  3  0  0  0  0  0  0
  -24.9160  -28.9110   20.1000 C   0  0  0  0  0  0  0  0  0  0  0  0
  -26.0180  -30.7070   21.4200 C   0  0  0  0  0  2  0  0  0  0  0  0
  -26.0970  -29.3230   20.7290 C   0  0  0  0  0  0  0  0  0  0  0  0
  -27.2560  -28.4390   20.7000 C   0  0  0  0  0  3  0  0  0  0  0  0
  -26.0390  -26.8350   19.3950 C   0  0  0  0  0  3  0  0  0  0  0  0
  -24.9070  -27.6860   19.4140 C   0  0  0  0  0  3  0  0  0  0  0  0
  -23.6860  -29.8090   20.1740 C   0  0  0  0  0  2  0  0  0  0  0  0
  -24.7270  -31.0200   22.1290 N   0  0  0  0  0  0  0  0  0  0  0  0
  -23.5520  -32.0960   23.7640 O   0  0  0  0  0  0  0  0  0  0  0  0
  -22.7750  -29.4320   22.5080 C   0  0  0  0  0  0  0  0  0  0  0  0
  -21.4510  -29.2470   22.3630 N   0  0  0  0  0  0  0  0  0  0  0  0
  -23.4440  -28.8060   23.3330 O   0  0  0  0  0  0  0  0  0  0  0  0
  -20.9680  -29.8090   21.6770 H   0  0  0  0  0  0  0  0  0  0  0  0
  -18.0850  -27.9700   22.8030 C   0  0  0  0  0  0  0  0  0  0  0  0
  -20.6350  -28.2840   23.1090 C   0  0  0  0  0  3  0  0  0  0  0  0
  -20.7740  -26.8630   22.5170 C   0  0  0  0  0  2  0  0  0  0  0  0
  -19.6940  -26.5340   21.4820 C   0  0  0  0  0  2  0  0  0  0  0  0
  -18.3010  -26.6360   22.1090 C   0  0  0  0  0  2  0  0  0  0  0  0
  -19.1810  -28.7510   23.2590 C   0  0  0  0  0  0  0  0  0  0  0  0
  -18.9280  -29.9980   23.8720 C   0  0  0  0  0  3  0  0  0  0  0  0
  -17.6100  -30.4660   24.0320 C   0  0  0  0  0  3  0  0  0  0  0  0
  -16.5280  -29.6840   23.5930 C   0  0  0  0  0  3  0  0  0  0  0  0
  -16.7670  -28.4370   22.9840 C   0  0  0  0  0  3  0  0  0  0  0  0
  -25.9120  -32.4570   23.8830 C   0  0  0  0  0  3  0  0  0  0  0  0
  -25.6040  -33.8620   24.2060 N   0  0  0  0  0  0  0  0  0  0  0  0
  -25.9320  -34.9150   23.4430 C   0  0  0  0  0  0  0  0  0  0  0  0
  -26.5930  -34.8060   22.4080 O   0  0  0  0  0  0  0  0  0  0  0  0
  -25.0190  -34.0220   25.0130 H   0  0  0  0  0  0  0  0  0  0  0  0
  -24.1960  -36.7100   23.1190 C   0  0  0  0  0  1  0  0  0  0  0  0
  -25.4540  -36.3080   23.9050 C   0  0  0  0  0  3  0  0  0  0  0  0
  -27.5970  -37.2100   24.6930 C   0  0  0  0  0  1  0  0  0  0  0  0
  -26.4830  -37.3600   23.7620 N   0  0  0  0  0  0  0  0  0  0  0  0
  -26.0760  -38.2810   23.9040 H   0  0  0  0  0  0  0  0  0  0  0  0
  -26.3950  -31.6950   25.1800 C   0  0  1  0  0  0  0  0  0  0  0  0
  -25.2740  -31.4730   26.2230 C   0  0  0  0  0  1  0  0  0  0  0  0
  -26.9790  -30.3090   24.8220 C   0  0  0  0  0  1  0  0  0  0  0  0
  -27.5360  -32.4870   25.8600 C   0  0  0  0  0  1  0  0  0  0  0  0
  2  1  1  0
  2 46  1  0
  2  3  1  6
  4 17  1  0
  5 10  1  0
  6  7  1  0
  6  5  1  0
  8  7  1  0
  8 21  1  0
  8  9  1  0
 10  4  1  0
 10  9  1  0
 11  4  2  0
 12 14  1  0
 12 16  1  0
 13 15  1  0
 14 17  1  0
 16  2  1  0
 16 13  1  0
 17 15  1  0
 18 19  2  0
 19 38  1  0
 20 19  1  0
 20 23  1  0
 21 22  1  0
 21 18  1  0
 22 20  2  0
 23 24  1  0
 24 25  2  0
 26 29  1  0
 26 25  1  0
 27 26  2  0
 28 27  1  0
 28 23  2  0
 29 30  1  0
 30 35  2  0
 30 31  1  0
 31 32  2  0
 33 32  1  0
 33 37  1  0
 34 33  2  0
 35 34  1  0
 36 35  1  0
 38 39  1  0
 39 42  1  0
 39 41  1  0
 40 38  2  0
 43 18  1  0
 43 44  1  0
 45 43  1  0
 47 46  2  0
 47 48  1  0
 49 60  2  0
 50 48  1  0
 50 55  1  0
 51 59  1  0
 51 61  1  0
 52 58  1  0
 52 54  1  0
 53 59  1  0
 54 53  1  0
 55 54  2  0
 56 57  1  0
 56 50  2  0
 57 52  2  0
 58 51  1  0
 59 49  1  0
 61 63  2  0
 62 61  1  0
 64 62  1  0
 65 74  2  0
 65 70  1  0
 66 62  1  0
 66 70  1  0
 67 66  1  0
 68 69  1  0
 68 67  1  0
 69 65  1  0
 70 71  2  0
 71 72  1  0
 73 72  2  0
 74 73  1  0
 75 49  1  0
 75 76  1  0
 75 85  1  0
 76 79  1  0
 77 81  1  0
 77 76  1  0
 78 77  2  0
 81 80  1  0
 83 84  1  0
 83 81  1  0
 83 82  1  0
 85 88  1  1
 85 86  1  0
 87 85  1  0
M  ISO  4   4 100  17 100  47 101  48 101
M  END
>  <TORSDO>  (58) 
F 18

>  <SCORE>  (58) 
-14.899

>  <name>  (58) 
58

>  <ligand_id>  (58) 
58

>  <original_smiles>  (58) 
[H]c1c([H])c([H])c2c(c1[H])C([H])([H])C([H])([H])C([H])([H])C2([H])N([H])C(=O)C1([H])N(C(=O)C([H])(N([H])C(=O)C([H])(N([H])C([H])([H])[H])C([H])([H])[H])C(C([H])([H])[H])(C([H])([H])[H])C([H])([H])[H])C([H])([H])c2c([H])c(OC([H])([H])C([H])([H])[N+]([H])(C([H])([H])[H])C3([H])C([H])([H])C([H])([H])N(C(=O)N4C([H])([H])C([H])([H])C([H])([H])C([H])(n5nc(-c6c([H])c([H])c(Oc7c([H])c([H])c(F)c([H])c7F)c([H])c6[H])c(C(=O)N([H])[H])c5N([H])[H])C4([H])[H])C([H])([H])C3([H])[H])c([H])c([H])c2C1([H])[H]

>  <smiles>  (58) 
[H]c1c([H])c([H])c2c(c1[H])C([H])([H])C([H])([H])C([H])([H])C2([H])N([H])C(=O)C1([H])N(C(=O)C([H])(N([H])C(=O)C([H])(N([H])C([H])([H])[H])C([H])([H])[H])C(C([H])([H])[H])(C([H])([H])[H])C([H])([H])[H])C([H])([H])c2c([H])c(OC([H])([H])C([H])([H])[N+]([H])(C([H])([H])[H])C3([H])C([H])([H])C([H])([H])N(C(=O)N4C([H])([H])C([H])([H])C([H])([H])C([H])(n5nc(-c6c([H])c([H])c(Oc7c([H])c([H])c(F)c([H])c7F)c([H])c6[H])c(C(=O)N([H])[H])c5N([H])[H])C4([H])[H])C([H])([H])C3([H])[H])c([H])c([H])c2C1([H])[H]

$$$$
59:0:0
     RDKit          3D

 93101  0  0  1  0  0  0  0  0999 V2000
  -29.3720  -20.7680   22.0360 C   0  0  0  0  0  3  0  0  0  0  0  0
  -28.5910  -20.2700   19.8000 C   0  0  0  0  0  3  0  0  0  0  0  0
  -28.9820  -22.1230   21.8730 C   0  0  0  0  0  3  0  0  0  0  0  0
  -28.2420  -21.6190   19.6260 C   0  0  0  0  0  3  0  0  0  0  0  0
  -29.1330  -19.8210   21.0140 C   0  0  0  0  0  0  0  0  0  0  0  0
  -28.3630  -22.5710   20.6750 C   0  0  0  0  0  0  0  0  0  0  0  0
  -26.6100  -23.9270   19.6890 C   0  0  0  0  0  1  0  0  0  0  0  0
  -27.8350  -23.8830   20.4920 N   0  0  0  0  0  0  0  0  0  0  0  0
  -27.9950  -24.9770   21.4760 C   0  0  0  0  0  2  0  0  0  0  0  0
  -28.9920  -26.1080   21.0840 C   0  0  0  0  0  2  0  0  0  0  0  0
  -28.6360  -26.9400   19.9710 O   0  0  0  0  0  0  0  0  0  0  0  0
  -24.6930  -31.9560   23.2660 C   0  0  0  0  0  0  0  0  0  0  0  0
  -27.4820  -27.6830   20.0670 C   0  0  0  0  0  0  0  0  0  0  0  0
  -23.5460  -30.5680   21.5740 C   0  0  0  0  0  3  0  0  0  0  0  0
  -25.0550  -29.1270   20.1130 C   0  0  0  0  0  0  0  0  0  0  0  0
  -26.0660  -30.9980   21.4200 C   0  0  0  0  0  2  0  0  0  0  0  0
  -26.1920  -29.6460   20.7470 C   0  0  0  0  0  0  0  0  0  0  0  0
  -27.4090  -28.9210   20.7420 C   0  0  0  0  0  3  0  0  0  0  0  0
  -26.3500  -27.2160   19.3760 C   0  0  0  0  0  3  0  0  0  0  0  0
  -25.1260  -27.9050   19.4270 C   0  0  0  0  0  3  0  0  0  0  0  0
  -23.7860  -29.9480   20.1750 C   0  0  0  0  0  2  0  0  0  0  0  0
  -24.7850  -31.1890   22.1440 N   0  0  0  0  0  0  0  0  0  0  0  0
  -23.5980  -32.1830   23.7990 O   0  0  0  0  0  0  0  0  0  0  0  0
  -22.9160  -29.4960   22.4940 C   0  0  0  0  0  0  0  0  0  0  0  0
  -21.5950  -29.2910   22.3580 N   0  0  0  0  0  0  0  0  0  0  0  0
  -23.6110  -28.8540   23.2850 O   0  0  0  0  0  0  0  0  0  0  0  0
  -21.0930  -29.8670   21.6960 H   0  0  0  0  0  0  0  0  0  0  0  0
  -18.2340  -28.0430   22.8360 C   0  0  0  0  0  0  0  0  0  0  0  0
  -20.7940  -28.3090   23.0910 C   0  0  0  0  0  3  0  0  0  0  0  0
  -20.9000  -26.9070   22.4450 C   0  0  0  0  0  2  0  0  0  0  0  0
  -19.7880  -26.6240   21.4320 C   0  0  0  0  0  2  0  0  0  0  0  0
  -18.4130  -26.7280   22.0980 C   0  0  0  0  0  2  0  0  0  0  0  0
  -19.3520  -28.7930   23.2880 C   0  0  0  0  0  0  0  0  0  0  0  0
  -19.1290  -30.0260   23.9380 C   0  0  0  0  0  3  0  0  0  0  0  0
  -17.8210  -30.5070   24.1420 C   0  0  0  0  0  3  0  0  0  0  0  0
  -16.7190  -29.7510   23.7060 C   0  0  0  0  0  3  0  0  0  0  0  0
  -16.9270  -28.5220   23.0590 C   0  0  0  0  0  3  0  0  0  0  0  0
  -25.9550  -32.6050   23.9150 C   0  0  0  0  0  3  0  0  0  0  0  0
  -25.6280  -34.0030   24.2230 N   0  0  0  0  0  0  0  0  0  0  0  0
  -25.9660  -35.0480   23.4550 C   0  0  0  0  0  0  0  0  0  0  0  0
  -26.6590  -34.9370   22.4390 O   0  0  0  0  0  0  0  0  0  0  0  0
  -25.0160  -34.1650   25.0100 H   0  0  0  0  0  0  0  0  0  0  0  0
  -24.2200  -36.8100   23.0470 C   0  0  0  0  0  1  0  0  0  0  0  0
  -25.4540  -36.4370   23.8830 C   0  0  0  0  0  3  0  0  0  0  0  0
  -27.5660  -37.3570   24.7310 C   0  0  0  0  0  1  0  0  0  0  0  0
  -26.4760  -37.5000   23.7680 N   0  0  0  0  0  0  0  0  0  0  0  0
  -26.0580  -38.4180   23.8980 H   0  0  0  0  0  0  0  0  0  0  0  0
  -26.4450  -31.8480   25.2080 C   0  0  1  0  0  0  0  0  0  0  0  0
  -25.3230  -31.5850   26.2410 C   0  0  0  0  0  1  0  0  0  0  0  0
  -27.0700  -30.4840   24.8350 C   0  0  0  0  0  1  0  0  0  0  0  0
  -27.5590  -32.6690   25.9000 C   0  0  0  0  0  1  0  0  0  0  0  0
  -29.3520  -18.4390   21.1510 N   0  0  0  0  0  0  0  0  0  0  0  0
  -28.8190  -17.8630   20.5050 H   0  0  0  0  0  0  0  0  0  0  0  0
  -30.6970  -17.9380   21.4150 C   0  0  0  0  0  2  0  0  0  0  0  0
  -30.7300  -16.3800   21.5050 C   0  0  0  0  0  2  0  0  0  0  0  0
  -31.5380  -14.5120   20.1120 C   0  0  0  0  0  0  0  0  0  0  0  0
  -31.1630  -12.2510   19.2050 C   0  0  0  0  0  2  0  0  0  0  0  0
  -30.2360  -12.3740   17.9760 C   0  0  0  0  0  2  0  0  0  0  0  0
  -28.7560  -12.3460   18.4070 C   0  0  0  0  0  2  0  0  0  0  0  0
  -28.4490  -13.3220   19.5710 C   0  0  0  0  0  3  0  0  0  0  0  0
  -29.4870  -13.1700   20.7050 C   0  0  0  0  0  2  0  0  0  0  0  0
  -30.8240  -13.3520   20.1190 N   0  0  0  0  0  0  0  0  0  0  0  0
  -32.6940  -14.5850   19.6800 O   0  0  0  0  0  0  0  0  0  0  0  0
  -30.5510  -16.3930   18.9840 C   0  0  0  0  0  1  0  0  0  0  0  0
  -30.7910  -15.6380   20.2240 N   0  0  0  0  0  0  0  0  0  0  0  0
  -26.1160  -14.1230   20.2970 C   0  0  0  0  0  0  0  0  0  0  0  0
  -24.9930  -13.4400   20.6780 C   0  0  0  0  0  0  0  0  0  0  0  0
  -25.3460  -12.0550   20.6480 C   0  0  0  0  0  0  0  0  0  0  0  0
  -27.0850  -13.1610   20.0630 N   0  0  0  0  0  0  0  0  0  0  0  0
  -26.6250  -11.9110   20.3280 N   0  0  0  0  0  0  0  0  0  0  0  0
  -24.5260  -10.8550   20.8520 C   0  0  0  0  0  0  0  0  0  0  0  0
  -24.8670   -9.8830   21.8170 C   0  0  0  0  0  3  0  0  0  0  0  0
  -24.0550   -8.7440   22.0050 C   0  0  0  0  0  3  0  0  0  0  0  0
  -22.8870   -8.5710   21.2250 C   0  0  0  0  0  0  0  0  0  0  0  0
  -22.5660   -9.5290   20.2480 C   0  0  0  0  0  3  0  0  0  0  0  0
  -23.3770  -10.6600   20.0600 C   0  0  0  0  0  3  0  0  0  0  0  0
  -22.0530   -7.4830   21.3190 O   0  0  0  0  0  0  0  0  0  0  0  0
  -21.8770   -6.8090   22.5010 C   0  0  0  0  0  0  0  0  0  0  0  0
  -21.4170   -7.4570   23.6670 C   0  0  0  0  0  3  0  0  0  0  0  0
  -21.1870   -6.7130   24.8420 C   0  0  0  0  0  3  0  0  0  0  0  0
  -21.4070   -5.3230   24.8490 C   0  0  0  0  0  0  0  0  0  0  0  0
  -21.8600   -4.6750   23.6870 C   0  0  0  0  0  3  0  0  0  0  0  0
  -22.0930   -5.4170   22.5150 C   0  0  0  0  0  0  0  0  0  0  0  0
  -22.5110   -4.7840   21.3910 F   0  0  0  0  0  0  0  0  0  0  0  0
  -21.1790   -4.6060   25.9740 F   0  0  0  0  0  0  0  0  0  0  0  0
  -23.6400  -14.0240   20.9630 C   0  0  0  0  0  0  0  0  0  0  0  0
  -22.8770  -13.3990   21.8540 N   0  0  0  0  0  0  0  0  0  0  0  0
  -23.2690  -15.0710   20.4330 O   0  0  0  0  0  0  0  0  0  0  0  0
  -23.1900  -12.5490   22.3010 H   0  0  0  0  0  0  0  0  0  0  0  0
  -21.9720  -13.7750   22.0910 H   0  0  0  0  0  0  0  0  0  0  0  0
  -26.3940  -15.4740   20.1090 N   0  0  0  0  0  0  0  0  0  0  0  0
  -25.6960  -16.2020   20.2230 H   0  0  0  0  0  0  0  0  0  0  0  0
  -27.2820  -15.8250   19.7770 H   0  0  0  0  0  0  0  0  0  0  0  0
  2  5  1  0
  3  1  1  0
  4  2  2  0
  4  6  1  0
  5 52  1  0
  5  1  2  0
  6  3  2  0
  7  8  1  0
  8  6  1  0
  8  9  1  0
 10  9  1  0
 11 13  1  0
 11 10  1  0
 12 23  2  0
 13 18  1  0
 14 22  1  0
 14 24  1  0
 15 21  1  0
 15 17  1  0
 16 22  1  0
 17 16  1  0
 18 17  2  0
 19 20  1  0
 19 13  2  0
 20 15  2  0
 21 14  1  0
 22 12  1  0
 24 26  2  0
 25 24  1  0
 27 25  1  0
 28 37  2  0
 28 33  1  0
 29 25  1  0
 29 33  1  0
 30 29  1  0
 31 32  1  0
 31 30  1  0
 32 28  1  0
 33 34  2  0
 34 35  1  0
 36 35  2  0
 37 36  1  0
 38 12  1  0
 38 39  1  0
 38 48  1  0
 39 42  1  0
 40 44  1  0
 40 39  1  0
 41 40  2  0
 44 43  1  0
 46 44  1  0
 46 47  1  0
 46 45  1  0
 48 51  1  1
 48 49  1  0
 50 48  1  0
 52 54  1  0
 53 52  1  0
 54 55  1  0
 56 62  1  0
 56 65  1  0
 57 62  1  0
 58 59  1  0
 58 57  1  0
 60 59  1  0
 60 69  1  0
 60 61  1  0
 62 61  1  0
 63 56  2  0
 64 65  1  0
 65 55  1  0
 66 67  2  0
 67 86  1  0
 68 67  1  0
 68 71  1  0
 69 66  1  0
 69 70  1  0
 70 68  2  0
 71 72  1  0
 72 73  2  0
 74 77  1  0
 74 73  1  0
 75 74  2  0
 76 75  1  0
 76 71  2  0
 77 78  1  0
 78 83  2  0
 78 79  1  0
 79 80  2  0
 80 81  1  0
 81 85  1  0
 82 81  2  0
 83 82  1  0
 84 83  1  0
 86 87  1  0
 87 90  1  0
 87 89  1  0
 88 86  2  0
 91 92  1  0
 91 66  1  0
 93 91  1  0
M  ISO  4  10 101  11 101  56 100  65 100
M  END
>  <TORSDO>  (59) 
F 22

>  <SCORE>  (59) 
-12.508

>  <name>  (59) 
59

>  <ligand_id>  (59) 
59

>  <original_smiles>  (59) 
[H]c1c([H])c([H])c2c(c1[H])C([H])([H])C([H])([H])C([H])([H])C2([H])N([H])C(=O)C1([H])N(C(=O)C([H])(N([H])C(=O)C([H])(N([H])C([H])([H])[H])C([H])([H])[H])C(C([H])([H])[H])(C([H])([H])[H])C([H])([H])[H])C([H])([H])c2c([H])c(OC([H])([H])C([H])([H])N(c3c([H])c([H])c(N([H])C([H])([H])C([H])([H])N(C(=O)N4C([H])([H])C([H])([H])C([H])([H])C([H])(n5nc(-c6c([H])c([H])c(Oc7c([H])c([H])c(F)c([H])c7F)c([H])c6[H])c(C(=O)N([H])[H])c5N([H])[H])C4([H])[H])C([H])([H])[H])c([H])c3[H])C([H])([H])[H])c([H])c([H])c2C1([H])[H]

>  <smiles>  (59) 
[H]c1c([H])c([H])c2c(c1[H])C([H])([H])C([H])([H])C([H])([H])C2([H])N([H])C(=O)C1([H])N(C(=O)C([H])(N([H])C(=O)C([H])(N([H])C([H])([H])[H])C([H])([H])[H])C(C([H])([H])[H])(C([H])([H])[H])C([H])([H])[H])C([H])([H])c2c([H])c(OC([H])([H])C([H])([H])N(c3c([H])c([H])c(N([H])C([H])([H])C([H])([H])N(C(=O)N4C([H])([H])C([H])([H])C([H])([H])C([H])(n5nc(-c6c([H])c([H])c(Oc7c([H])c([H])c(F)c([H])c7F)c([H])c6[H])c(C(=O)N([H])[H])c5N([H])[H])C4([H])[H])C([H])([H])[H])c([H])c3[H])C([H])([H])[H])c([H])c([H])c2C1([H])[H]

$$$$
60:0:0
     RDKit          3D

 97 98  0  0  1  0  0  0  0  0999 V2000
  -32.2120  -17.0330   17.2030 C   0  0  0  0  0  2  0  0  0  0  0  0
  -28.9920  -16.4890   21.4030 C   0  0  0  0  0  1  0  0  0  0  0  0
  -28.0100  -18.6320   20.6040 C   0  0  0  0  0 15  0  0  0  0  0  0
  -30.8720  -15.5880   19.7760 C   0  0  0  0  0 15  0  0  0  0  0  0
  -29.8060  -19.0290   18.0710 C   0  0  0  0  0 15  0  0  0  0  0  0
  -28.4840  -20.6160   19.4100 C   0  0  0  0  0 15  0  0  0  0  0  0
  -30.9880  -17.1430   18.0540 N   0  0  0  0  0  2  0  0  0  0  0  0
  -31.6540  -17.5800   18.6930 H   0  0  0  0  0  0  0  0  0  0  0  0
  -28.0380  -23.2500   19.6040 O   0  0  0  0  0 15  0  0  0  0  0  0
  -24.6560  -31.5140   22.6810 C   0  0  0  0  0  0  0  0  0  0  0  0
  -27.1410  -25.1210   19.6750 C   0  0  0  0  0  3  0  0  0  0  0  0
  -23.4890  -30.0220   21.1350 C   0  0  0  0  0  3  0  0  0  0  0  0
  -24.9170  -28.0540   19.7590 C   0  0  0  0  0  0  0  0  0  0  0  0
  -26.1010  -29.7660   21.0670 C   0  0  0  0  0  2  0  0  0  0  0  0
  -26.1600  -28.1570   20.3960 C   0  0  0  0  0  0  0  0  0  0  0  0
  -27.1590  -26.7930   20.2880 C   0  0  0  0  0  3  0  0  0  0  0  0
  -25.8540  -25.6320   19.0110 C   0  0  0  0  0  3  0  0  0  0  0  0
  -24.8910  -26.8180   19.0370 C   0  0  0  0  0  3  0  0  0  0  0  0
  -23.7600  -29.1760   19.8170 C   0  0  0  0  0  2  0  0  0  0  0  0
  -24.8010  -30.5040   21.6840 N   0  0  0  0  0  0  0  0  0  0  0  0
  -23.5450  -31.8570   23.1480 O   0  0  0  0  0  0  0  0  0  0  0  0
  -22.6880  -29.2000   22.1970 C   0  0  0  0  0  0  0  0  0  0  0  0
  -21.3350  -29.1430   22.1600 N   0  0  0  0  0  0  0  0  0  0  0  0
  -23.3260  -28.5890   23.0530 O   0  0  0  0  0  0  0  0  0  0  0  0
  -20.8470  -29.6850   21.4600 H   0  0  0  0  0  0  0  0  0  0  0  0
  -17.9470  -27.9580   22.9250 C   0  0  0  0  0  0  0  0  0  0  0  0
  -20.5250  -28.2240   22.9880 C   0  0  0  0  0  3  0  0  0  0  0  0
  -20.5680  -26.7930   22.4020 C   0  0  0  0  0  2  0  0  0  0  0  0
  -19.3990  -26.4960   21.4580 C   0  0  0  0  0  2  0  0  0  0  0  0
  -18.0660  -26.6300   22.1970 C   0  0  0  0  0  2  0  0  0  0  0  0
  -19.0970  -28.7180   23.2770 C   0  0  0  0  0  0  0  0  0  0  0  0
  -18.9180  -29.9530   23.9370 C   0  0  0  0  0  3  0  0  0  0  0  0
  -17.6270  -30.4310   24.2370 C   0  0  0  0  0  3  0  0  0  0  0  0
  -16.4960  -29.6730   23.8870 C   0  0  0  0  0  3  0  0  0  0  0  0
  -16.6580  -28.4360   23.2370 C   0  0  0  0  0  3  0  0  0  0  0  0
  -25.8440  -32.3080   23.3340 C   0  0  0  0  0  3  0  0  0  0  0  0
  -25.4200  -33.6880   23.7330 N   0  0  0  0  0  0  0  0  0  0  0  0
  -25.7950  -34.8410   23.1520 C   0  0  0  0  0  0  0  0  0  0  0  0
  -26.5360  -34.8640   22.1690 O   0  0  0  0  0  0  0  0  0  0  0  0
  -24.7510  -33.7480   24.4850 H   0  0  0  0  0  0  0  0  0  0  0  0
  -24.0630  -36.6730   22.9330 C   0  0  0  0  0  1  0  0  0  0  0  0
  -25.2770  -36.1840   23.7390 C   0  0  0  0  0  3  0  0  0  0  0  0
  -27.3610  -37.0230   24.7460 C   0  0  0  0  0  1  0  0  0  0  0  0
  -26.2990  -37.2590   23.7720 N   0  0  0  0  0  0  0  0  0  0  0  0
  -25.8750  -38.1600   23.9760 H   0  0  0  0  0  0  0  0  0  0  0  0
  -26.4150  -31.5900   24.6210 C   0  0  1  0  0  0  0  0  0  0  0  0
  -25.3500  -31.3080   25.7090 C   0  0  0  0  0  1  0  0  0  0  0  0
  -27.0580  -30.2400   24.2630 C   0  0  0  0  0  1  0  0  0  0  0  0
  -27.5460  -32.4460   25.2450 C   0  0  0  0  0  1  0  0  0  0  0  0
  -33.1350  -19.2660   18.0100 C   0  0  0  0  0  3  0  0  0  0  0  0
  -34.1020  -17.2320   18.9160 C   0  0  0  0  0  3  0  0  0  0  0  0
  -33.4850  -19.9510   19.1980 C   0  0  0  0  0  3  0  0  0  0  0  0
  -34.4330  -17.9200   20.1160 C   0  0  0  0  0  3  0  0  0  0  0  0
  -33.2760  -17.8640   17.9490 C   0  0  0  0  0  0  0  0  0  0  0  0
  -33.9460  -19.2370   20.3230 C   0  0  0  0  0  0  0  0  0  0  0  0
  -34.0320  -21.1220   21.8550 C   0  0  0  0  0  1  0  0  0  0  0  0
  -33.6380  -19.7370   21.6110 N   0  0  0  0  0  0  0  0  0  0  0  0
  -32.7100  -18.9880   22.5230 C   0  0  0  0  0  2  0  0  0  0  0  0
  -31.1100  -19.2250   22.5200 C   0  0  0  0  0  2  0  0  0  0  0  0
  -30.0180  -18.0660   20.4510 C   0  0  0  0  0  2  0  0  0  0  0  0
  -28.8380  -15.2770   18.4470 C   0  0  0  0  0  2  0  0  0  0  0  0
  -29.2690  -13.6550   18.3480 C   0  0  0  0  0  2  0  0  0  0  0  0
  -28.2480  -12.7550   19.0140 C   0  0  0  0  0  2  0  0  0  0  0  0
  -27.2750  -13.7400   19.6030 C   0  0  0  0  0  3  0  0  0  0  0  0
  -28.0530  -15.0400   20.3220 C   0  0  0  0  0  2  0  0  0  0  0  0
  -28.6190  -16.6110   19.7060 N   0  0  0  0  0  0  0  0  0  0  0  0
  -31.2840  -17.9710   20.3510 O   0  0  0  0  0  1  0  0  0  0  0  0
  -30.5280  -20.5690   20.7500 C   0  0  0  0  0  1  0  0  0  0  0  0
  -30.2060  -19.2080   21.2720 N   0  0  0  0  0  0  0  0  0  0  0  0
  -25.1100  -13.8340   20.7910 C   0  0  0  0  0  0  0  0  0  0  0  0
  -24.1670  -12.9340   21.1640 C   0  0  0  0  0  0  0  0  0  0  0  0
  -24.6840  -11.6380   20.8460 C   0  0  0  0  0  0  0  0  0  0  0  0
  -26.1730  -13.1090   20.3180 N   0  0  0  0  0  0  0  0  0  0  0  0
  -25.9210  -11.7600   20.3420 N   0  0  0  0  0  0  0  0  0  0  0  0
  -24.0060  -10.3270   20.9420 C   0  0  0  0  0  0  0  0  0  0  0  0
  -24.4590   -9.2890   21.7900 C   0  0  0  0  0  3  0  0  0  0  0  0
  -23.7380   -8.0740   21.8870 C   0  0  0  0  0  3  0  0  0  0  0  0
  -22.5530   -7.8810   21.1380 C   0  0  0  0  0  0  0  0  0  0  0  0
  -22.1210   -8.9080   20.2830 C   0  0  0  0  0  3  0  0  0  0  0  0
  -22.8400  -10.1120   20.1820 C   0  0  0  0  0  3  0  0  0  0  0  0
  -21.8080   -6.7240   21.1500 O   0  0  0  0  0  0  0  0  0  0  0  0
  -21.6720   -5.9630   22.2860 C   0  0  0  0  0  0  0  0  0  0  0  0
  -21.1240   -6.4950   23.4740 C   0  0  0  0  0  3  0  0  0  0  0  0
  -20.9420   -5.6660   24.6000 C   0  0  0  0  0  3  0  0  0  0  0  0
  -21.2930   -4.3040   24.5390 C   0  0  0  0  0  0  0  0  0  0  0  0
  -21.8290   -3.7690   23.3540 C   0  0  0  0  0  3  0  0  0  0  0  0
  -22.0190   -4.5970   22.2310 C   0  0  0  0  0  0  0  0  0  0  0  0
  -22.5210   -4.0700   21.0890 F   0  0  0  0  0  0  0  0  0  0  0  0
  -21.1110   -3.5080   25.6170 F   0  0  0  0  0  0  0  0  0  0  0  0
  -22.8060  -13.2970   21.6740 C   0  0  0  0  0  0  0  0  0  0  0  0
  -22.2360  -12.4840   22.5570 N   0  0  0  0  0  0  0  0  0  0  0  0
  -22.2730  -14.3520   21.3400 O   0  0  0  0  0  0  0  0  0  0  0  0
  -22.6980  -11.6430   22.8820 H   0  0  0  0  0  0  0  0  0  0  0  0
  -21.3290  -12.7130   22.9340 H   0  0  0  0  0  0  0  0  0  0  0  0
  -25.1090  -15.2280   20.7570 N   0  0  0  0  0  0  0  0  0  0  0  0
  -24.2900  -15.7570   21.0440 H   0  0  0  0  0  0  0  0  0  0  0  0
  -25.8380  -15.8080   20.3650 H   0  0  0  0  0  0  0  0  0  0  0  0
  1 54  1  0
  1  7  1  0
  7  8  1  0
 10 21  2  0
 11 16  1  0
 12 20  1  0
 12 22  1  0
 13 19  1  0
 13 15  1  0
 14 20  1  0
 15 14  1  0
 16 15  2  0
 17 18  1  0
 17 11  2  0
 18 13  2  0
 19 12  1  0
 20 10  1  0
 22 24  2  0
 23 22  1  0
 25 23  1  0
 26 35  2  0
 26 31  1  0
 27 23  1  0
 27 31  1  0
 28 27  1  0
 29 30  1  0
 29 28  1  0
 30 26  1  0
 31 32  2  0
 32 33  1  0
 34 33  2  0
 35 34  1  0
 36 10  1  0
 36 37  1  0
 36 46  1  0
 37 40  1  0
 38 37  1  0
 38 42  1  0
 39 38  2  0
 42 41  1  0
 42 44  1  0
 44 45  1  0
 44 43  1  0
 46 49  1  1
 46 47  1  0
 48 46  1  0
 50 52  1  0
 51 53  2  0
 52 55  2  0
 53 55  1  0
 54 50  2  0
 54 51  1  0
 55 57  1  0
 57 56  1  0
 57 58  1  0
 59 58  1  0
 60 69  1  0
 61 66  1  0
 62 61  1  0
 62 63  1  0
 64 63  1  0
 64 73  1  0
 64 65  1  0
 66 65  1  0
 66  2  1  0
 67 60  1  0
 68 69  1  0
 69 59  1  0
 70 71  2  0
 71 90  1  0
 72 75  1  0
 72 71  1  0
 73 74  1  0
 73 70  1  0
 74 72  2  0
 75 76  1  0
 76 77  2  0
 78 81  1  0
 78 77  1  0
 79 78  2  0
 80 79  1  0
 80 75  2  0
 81 82  1  0
 82 83  1  0
 83 84  2  0
 85 84  1  0
 85 89  1  0
 86 85  2  0
 87 82  2  0
 87 86  1  0
 88 87  1  0
 90 91  1  0
 91 93  1  0
 91 94  1  0
 92 90  2  0
 95 70  1  0
 95 96  1  0
 97 95  1  0
M  ISO  4   6 101   9 101  60 100  69 100
M  END
>  <TORSDO>  (60) 
F 21

>  <SCORE>  (60) 
-10.925

>  <name>  (60) 
60

>  <ligand_id>  (60) 
60

>  <original_smiles>  (60) 
[H]c1c([H])c([H])c2c(c1[H])C([H])([H])C([H])([H])C([H])([H])C2([H])N([H])C(=O)C1([H])N(C(=O)C([H])(N([H])C(=O)C([H])(N([H])C([H])([H])[H])C([H])([H])[H])C(C([H])([H])[H])(C([H])([H])[H])C([H])([H])[H])C([H])([H])c2c([H])c(OC3([H])C([H])([H])C([H])([H])C([H])([H])[N+]([H])(C([H])([H])c4c([H])c([H])c(N(C([H])([H])[H])C([H])([H])C([H])([H])N(C(=O)N5C([H])([H])C([H])([H])C([H])([H])C([H])(n6nc(-c7c([H])c([H])c(Oc8c([H])c([H])c(F)c([H])c8F)c([H])c7[H])c(C(=O)N([H])[H])c6N([H])[H])C5([H])[H])C([H])([H])[H])c([H])c4[H])C3([H])[H])c([H])c([H])c2C1([H])[H]

>  <smiles>  (60) 
[H]c1c([H])c([H])c2c(c1[H])C([H])([H])C([H])([H])C([H])([H])C2([H])N([H])C(=O)C1([H])N(C(=O)C([H])(N([H])C(=O)C([H])(N([H])C([H])([H])[H])C([H])([H])[H])C(C([H])([H])[H])(C([H])([H])[H])C([H])([H])[H])C([H])([H])c2c([H])c(OC3([H])C([H])([H])C([H])([H])C([H])([H])[N+]([H])(C([H])([H])c4c([H])c([H])c(N(C([H])([H])[H])C([H])([H])C([H])([H])N(C(=O)N5C([H])([H])C([H])([H])C([H])([H])C([H])(n6nc(-c7c([H])c([H])c(Oc8c([H])c([H])c(F)c([H])c8F)c([H])c7[H])c(C(=O)N([H])[H])c6N([H])[H])C5([H])[H])C([H])([H])[H])c([H])c4[H])C3([H])[H])c([H])c([H])c2C1([H])[H]

$$$$
61:0:0
     RDKit          3D

 93100  0  0  1  0  0  0  0  0999 V2000
  -28.2870  -22.6220   21.2740 C   0  0  0  0  0  0  0  0  0  0  0  0
  -28.7570  -23.7820   21.7480 N   0  0  0  0  0  0  0  0  0  0  0  0
  -27.0920  -22.3250   21.3330 O   0  0  0  0  0  0  0  0  0  0  0  0
  -29.7480  -23.9620   21.6700 H   0  0  0  0  0  0  0  0  0  0  0  0
  -29.3000  -21.6630   20.6450 C   0  0  0  0  0  2  0  0  0  0  0  0
  -28.8390  -20.1890   20.7390 C   0  0  0  0  0  2  0  0  0  0  0  0
  -30.4190  -19.3510   19.0130 C   0  0  0  0  0  1  0  0  0  0  0  0
  -29.8850  -19.1870   20.3910 N   0  0  2  0  0  4  0  0  0  0  0  0
  -30.6530  -19.3360   21.0300 H   0  0  0  0  0  0  0  0  0  0  0  0
  -29.4080  -17.7950   20.6170 C   0  0  0  0  0  2  0  0  0  0  0  0
  -30.5330  -16.8490   21.0710 C   0  0  0  0  0  2  0  0  0  0  0  0
  -30.7150  -14.4450   20.4750 C   0  0  0  0  0  0  0  0  0  0  0  0
  -30.3510  -12.3250   19.2920 C   0  0  0  0  0  2  0  0  0  0  0  0
  -29.4230  -12.5970   18.0930 C   0  0  0  0  0  2  0  0  0  0  0  0
  -27.9510  -12.4530   18.5230 C   0  0  0  0  0  2  0  0  0  0  0  0
  -27.6230  -13.2700   19.8000 C   0  0  0  0  0  3  0  0  0  0  0  0
  -28.6760  -13.0170   20.9030 C   0  0  0  0  0  2  0  0  0  0  0  0
  -30.0050  -13.2950   20.3370 N   0  0  0  0  0  0  0  0  0  0  0  0
  -31.8170  -14.6240   19.9500 O   0  0  0  0  0  0  0  0  0  0  0  0
  -30.0850  -15.4500   21.0930 N   0  0  0  0  0  0  0  0  0  0  0  0
  -29.1780  -15.2490   21.4890 H   0  0  0  0  0  0  0  0  0  0  0  0
  -25.2150  -13.8780   20.4770 C   0  0  0  0  0  0  0  0  0  0  0  0
  -24.1460  -13.1070   20.8480 C   0  0  0  0  0  0  0  0  0  0  0  0
  -24.6150  -11.7570   20.8340 C   0  0  0  0  0  0  0  0  0  0  0  0
  -26.2660  -13.0000   20.2670 N   0  0  0  0  0  0  0  0  0  0  0  0
  -25.9060  -11.7190   20.5360 N   0  0  0  0  0  0  0  0  0  0  0  0
  -23.8900  -10.4930   21.0320 C   0  0  0  0  0  0  0  0  0  0  0  0
  -24.3280   -9.5270   21.9660 C   0  0  0  0  0  3  0  0  0  0  0  0
  -23.6050   -8.3280   22.1510 C   0  0  0  0  0  3  0  0  0  0  0  0
  -22.4280   -8.0870   21.4000 C   0  0  0  0  0  0  0  0  0  0  0  0
  -22.0080   -9.0440   20.4550 C   0  0  0  0  0  3  0  0  0  0  0  0
  -22.7320  -10.2340   20.2710 C   0  0  0  0  0  3  0  0  0  0  0  0
  -21.6760   -6.9420   21.4930 O   0  0  0  0  0  0  0  0  0  0  0  0
  -21.6490   -6.1920   22.6430 C   0  0  0  0  0  0  0  0  0  0  0  0
  -21.2530   -6.7430   23.8820 C   0  0  0  0  0  3  0  0  0  0  0  0
  -21.1750   -5.9210   25.0230 C   0  0  0  0  0  3  0  0  0  0  0  0
  -21.4810   -4.5510   24.9270 C   0  0  0  0  0  0  0  0  0  0  0  0
  -21.8630   -3.9990   23.6910 C   0  0  0  0  0  3  0  0  0  0  0  0
  -21.9460   -4.8170   22.5520 C   0  0  0  0  0  0  0  0  0  0  0  0
  -22.3000   -4.2790   21.3610 F   0  0  0  0  0  0  0  0  0  0  0  0
  -21.3960   -3.7570   26.0210 F   0  0  0  0  0  0  0  0  0  0  0  0
  -22.7480  -13.5830   21.1130 C   0  0  0  0  0  0  0  0  0  0  0  0
  -22.0210  -12.8910   21.9840 N   0  0  0  0  0  0  0  0  0  0  0  0
  -22.3080  -14.6050   20.5870 O   0  0  0  0  0  0  0  0  0  0  0  0
  -22.3860  -12.0570   22.4190 H   0  0  0  0  0  0  0  0  0  0  0  0
  -21.0890  -13.1970   22.2220 H   0  0  0  0  0  0  0  0  0  0  0  0
  -25.3760  -15.2470   20.2860 N   0  0  0  0  0  0  0  0  0  0  0  0
  -24.6030  -15.8970   20.3600 H   0  0  0  0  0  0  0  0  0  0  0  0
  -26.2240  -15.6750   19.9370 H   0  0  0  0  0  0  0  0  0  0  0  0
  -27.9150  -24.8160   22.3410 C   0  0  0  0  0  2  0  0  0  0  0  0
  -28.6590  -26.1480   22.5450 C   0  0  0  0  0  2  0  0  0  0  0  0
  -29.3080  -26.7370   21.2730 C   0  0  0  0  0  2  0  0  0  0  0  0
  -28.4410  -26.7280   20.1330 O   0  0  0  0  0  0  0  0  0  0  0  0
  -24.6250  -31.9020   23.2330 C   0  0  0  0  0  0  0  0  0  0  0  0
  -27.2980  -27.4920   20.1720 C   0  0  0  0  0  0  0  0  0  0  0  0
  -23.4170  -30.4930   21.5920 C   0  0  0  0  0  3  0  0  0  0  0  0
  -24.8820  -28.9530   20.1750 C   0  0  0  0  0  0  0  0  0  0  0  0
  -25.9350  -30.8750   21.3820 C   0  0  0  0  0  2  0  0  0  0  0  0
  -26.0320  -29.4990   20.7590 C   0  0  0  0  0  0  0  0  0  0  0  0
  -27.2430  -28.7780   20.7590 C   0  0  0  0  0  3  0  0  0  0  0  0
  -26.1390  -26.9610   19.5750 C   0  0  0  0  0  3  0  0  0  0  0  0
  -24.9250  -27.6780   19.5810 C   0  0  0  0  0  3  0  0  0  0  0  0
  -23.6270  -29.7980   20.2160 C   0  0  0  0  0  2  0  0  0  0  0  0
  -24.6770  -31.1060   22.1270 N   0  0  0  0  0  0  0  0  0  0  0  0
  -23.5460  -32.1650   23.7810 O   0  0  0  0  0  0  0  0  0  0  0  0
  -22.7730  -29.4730   22.5570 C   0  0  0  0  0  0  0  0  0  0  0  0
  -21.4490  -29.2920   22.4370 N   0  0  0  0  0  0  0  0  0  0  0  0
  -23.4630  -28.8480   23.3680 O   0  0  0  0  0  0  0  0  0  0  0  0
  -20.9530  -29.8550   21.7590 H   0  0  0  0  0  0  0  0  0  0  0  0
  -18.0790  -28.0920   22.9350 C   0  0  0  0  0  0  0  0  0  0  0  0
  -20.6360  -28.3550   23.2080 C   0  0  0  0  0  3  0  0  0  0  0  0
  -20.7380  -26.9220   22.6340 C   0  0  0  0  0  2  0  0  0  0  0  0
  -19.6360  -26.5950   21.6200 C   0  0  0  0  0  2  0  0  0  0  0  0
  -18.2550  -26.7420   22.2650 C   0  0  0  0  0  2  0  0  0  0  0  0
  -19.1970  -28.8560   23.3650 C   0  0  0  0  0  0  0  0  0  0  0  0
  -18.9770  -30.1230   23.9490 C   0  0  0  0  0  3  0  0  0  0  0  0
  -17.6720  -30.6250   24.1140 C   0  0  0  0  0  3  0  0  0  0  0  0
  -16.5680  -29.8580   23.7030 C   0  0  0  0  0  3  0  0  0  0  0  0
  -16.7720  -28.5950   23.1170 C   0  0  0  0  0  3  0  0  0  0  0  0
  -25.9130  -32.5360   23.8450 C   0  0  0  0  0  3  0  0  0  0  0  0
  -25.6020  -33.9330   24.1790 N   0  0  0  0  0  0  0  0  0  0  0  0
  -25.9360  -34.9860   23.4190 C   0  0  0  0  0  0  0  0  0  0  0  0
  -26.6100  -34.8830   22.3900 O   0  0  0  0  0  0  0  0  0  0  0  0
  -25.0060  -34.0800   24.9780 H   0  0  0  0  0  0  0  0  0  0  0  0
  -24.2130  -36.7820   23.0580 C   0  0  0  0  0  1  0  0  0  0  0  0
  -25.4480  -36.3720   23.8750 C   0  0  0  0  0  3  0  0  0  0  0  0
  -27.5810  -37.2560   24.7190 C   0  0  0  0  0  1  0  0  0  0  0  0
  -26.4820  -37.4240   23.7720 N   0  0  0  0  0  0  0  0  0  0  0  0
  -26.0750  -38.3430   23.9190 H   0  0  0  0  0  0  0  0  0  0  0  0
  -26.4480  -31.7610   25.1150 C   0  0  1  0  0  0  0  0  0  0  0  0
  -25.3680  -31.5150   26.1940 C   0  0  0  0  0  1  0  0  0  0  0  0
  -27.0280  -30.3860   24.7080 C   0  0  0  0  0  1  0  0  0  0  0  0
  -27.5990  -32.5580   25.7720 C   0  0  0  0  0  1  0  0  0  0  0  0
  1  3  2  0
  1  2  1  0
  2 50  1  0
  4  2  1  0
  5  6  1  0
  5  1  1  0
  7  8  1  0
  8 10  1  0
  8  6  1  0
  8  9  1  1
 10 11  1  0
 11 20  1  0
 12 20  1  0
 13 18  1  0
 14 15  1  0
 14 13  1  0
 16 15  1  0
 16 25  1  0
 16 17  1  0
 18 12  1  0
 18 17  1  0
 19 12  2  0
 20 21  1  0
 22 23  2  0
 23 42  1  0
 24 23  1  0
 24 27  1  0
 25 22  1  0
 25 26  1  0
 26 24  2  0
 27 28  1  0
 28 29  2  0
 30 33  1  0
 30 29  1  0
 31 30  2  0
 32 31  1  0
 32 27  2  0
 33 34  1  0
 34 35  1  0
 35 36  2  0
 37 36  1  0
 37 41  1  0
 38 37  2  0
 39 34  2  0
 39 38  1  0
 40 39  1  0
 42 43  1  0
 43 46  1  0
 43 45  1  0
 44 42  2  0
 47 48  1  0
 47 22  1  0
 49 47  1  0
 50 51  1  0
 52 51  1  0
 53 55  1  0
 53 52  1  0
 54 65  2  0
 55 60  1  0
 56 64  1  0
 56 66  1  0
 57 63  1  0
 57 59  1  0
 58 64  1  0
 59 60  2  0
 59 58  1  0
 61 62  1  0
 61 55  2  0
 62 57  2  0
 63 56  1  0
 64 54  1  0
 66 68  2  0
 67 66  1  0
 69 67  1  0
 70 79  2  0
 70 75  1  0
 71 67  1  0
 71 75  1  0
 72 71  1  0
 73 74  1  0
 73 72  1  0
 74 70  1  0
 75 76  2  0
 76 77  1  0
 78 77  2  0
 79 78  1  0
 80 54  1  0
 80 81  1  0
 80 90  1  0
 81 84  1  0
 82 86  1  0
 82 81  1  0
 83 82  2  0
 86 85  1  0
 88 86  1  0
 88 89  1  0
 88 87  1  0
 90 93  1  1
 90 91  1  0
 92 90  1  0
M  ISO  4  12 100  20 100  52 101  53 101
M  END
>  <TORSDO>  (61) 
F 24

>  <SCORE>  (61) 
-12.592

>  <name>  (61) 
61

>  <ligand_id>  (61) 
61

>  <original_smiles>  (61) 
[H]c1c([H])c([H])c2c(c1[H])C([H])([H])C([H])([H])C([H])([H])C2([H])N([H])C(=O)C1([H])N(C(=O)C([H])(N([H])C(=O)C([H])(N([H])C([H])([H])[H])C([H])([H])[H])C(C([H])([H])[H])(C([H])([H])[H])C([H])([H])[H])C([H])([H])c2c([H])c(OC([H])([H])C([H])([H])C([H])([H])N([H])C(=O)C([H])([H])C([H])([H])[N+]([H])(C([H])([H])[H])C([H])([H])C([H])([H])N([H])C(=O)N3C([H])([H])C([H])([H])C([H])([H])C([H])(n4nc(-c5c([H])c([H])c(Oc6c([H])c([H])c(F)c([H])c6F)c([H])c5[H])c(C(=O)N([H])[H])c4N([H])[H])C3([H])[H])c([H])c([H])c2C1([H])[H]

>  <smiles>  (61) 
[H]c1c([H])c([H])c2c(c1[H])C([H])([H])C([H])([H])C([H])([H])C2([H])N([H])C(=O)C1([H])N(C(=O)C([H])(N([H])C(=O)C([H])(N([H])C([H])([H])[H])C([H])([H])[H])C(C([H])([H])[H])(C([H])([H])[H])C([H])([H])[H])C([H])([H])c2c([H])c(OC([H])([H])C([H])([H])C([H])([H])N([H])C(=O)C([H])([H])C([H])([H])[N+]([H])(C([H])([H])[H])C([H])([H])C([H])([H])N([H])C(=O)N3C([H])([H])C([H])([H])C([H])([H])C([H])(n4nc(-c5c([H])c([H])c(Oc6c([H])c([H])c(F)c([H])c6F)c([H])c5[H])c(C(=O)N([H])[H])c4N([H])[H])C3([H])[H])c([H])c([H])c2C1([H])[H]

$$$$
62:0:0
     RDKit          3D

 98105  0  0  1  0  0  0  0  0999 V2000
  -29.1320  -21.7440   22.5140 C   0  0  0  0  0  2  0  0  0  0  0  0
  -29.7350  -20.7060   21.6800 N   0  0  0  0  0  0  0  0  0  0  0  0
  -29.8300  -21.1180   20.7550 H   0  0  0  0  0  0  0  0  0  0  0  0
  -31.0520  -20.2390   22.1340 C   0  0  0  0  0  3  0  0  0  0  0  0
  -32.1460  -18.6440   23.8710 C   0  0  0  0  0  1  0  0  0  0  0  0
  -30.9110  -19.4680   23.4710 C   0  0  0  0  0  2  0  0  0  0  0  0
  -31.6740  -19.4220   20.9700 C   0  0  0  0  0  3  0  0  0  0  0  0
  -30.9140  -18.1600   20.8550 N   0  0  0  0  0  4  0  0  0  0  0  0
  -30.6710  -17.9000   21.7970 H   0  0  0  0  0  0  0  0  0  0  0  0
  -30.0400  -18.3780   20.3990 H   0  0  0  0  0  0  0  0  0  0  0  0
  -31.5970  -17.0240   20.2000 C   0  0  0  0  0  2  0  0  0  0  0  0
  -30.8240  -15.7140   20.4320 C   0  0  0  0  0  2  0  0  0  0  0  0
  -31.4700  -14.4680   19.8040 C   0  0  0  0  0  0  0  0  0  0  0  0
  -31.2380  -12.0810   19.1890 C   0  0  0  0  0  2  0  0  0  0  0  0
  -30.3030  -11.9280   17.9740 C   0  0  0  0  0  2  0  0  0  0  0  0
  -28.8260  -11.8680   18.4150 C   0  0  0  0  0  2  0  0  0  0  0  0
  -28.4530  -13.0050   19.4010 C   0  0  0  0  0  3  0  0  0  0  0  0
  -29.4950  -13.1000   20.5370 C   0  0  0  0  0  2  0  0  0  0  0  0
  -30.8240  -13.2800   19.9270 N   0  0  0  0  0  0  0  0  0  0  0  0
  -32.5240  -14.5860   19.1720 O   0  0  0  0  0  0  0  0  0  0  0  0
  -26.1130  -13.7890   20.1420 C   0  0  0  0  0  0  0  0  0  0  0  0
  -25.0120  -13.0990   20.5670 C   0  0  0  0  0  0  0  0  0  0  0  0
  -25.3880  -11.7210   20.5780 C   0  0  0  0  0  0  0  0  0  0  0  0
  -27.0980  -12.8380   19.9230 N   0  0  0  0  0  0  0  0  0  0  0  0
  -26.6640  -11.5910   20.2390 N   0  0  0  0  0  0  0  0  0  0  0  0
  -24.5940  -10.5150   20.8380 C   0  0  0  0  0  0  0  0  0  0  0  0
  -24.8870   -9.6570   21.9230 C   0  0  0  0  0  3  0  0  0  0  0  0
  -24.1000   -8.5110   22.1610 C   0  0  0  0  0  3  0  0  0  0  0  0
  -23.0050   -8.2120   21.3150 C   0  0  0  0  0  0  0  0  0  0  0  0
  -22.7340   -9.0550   20.2230 C   0  0  0  0  0  3  0  0  0  0  0  0
  -23.5200  -10.1940   19.9840 C   0  0  0  0  0  3  0  0  0  0  0  0
  -22.2000   -7.1090   21.4550 O   0  0  0  0  0  0  0  0  0  0  0  0
  -21.8860   -6.5990   22.6900 C   0  0  0  0  0  0  0  0  0  0  0  0
  -21.1960   -7.3590   23.6570 C   0  0  0  0  0  3  0  0  0  0  0  0
  -20.8350   -6.7720   24.8870 C   0  0  0  0  0  3  0  0  0  0  0  0
  -21.1530   -5.4260   25.1460 C   0  0  0  0  0  0  0  0  0  0  0  0
  -21.8350   -4.6650   24.1790 C   0  0  0  0  0  3  0  0  0  0  0  0
  -22.1980   -5.2500   22.9530 C   0  0  0  0  0  0  0  0  0  0  0  0
  -22.8370   -4.5070   22.0180 F   0  0  0  0  0  0  0  0  0  0  0  0
  -20.7990   -4.8580   26.3230 F   0  0  0  0  0  0  0  0  0  0  0  0
  -23.6540  -13.6690   20.8600 C   0  0  0  0  0  0  0  0  0  0  0  0
  -22.9170  -13.0580   21.7800 N   0  0  0  0  0  0  0  0  0  0  0  0
  -23.2570  -14.6920   20.3040 O   0  0  0  0  0  0  0  0  0  0  0  0
  -23.2520  -12.2320   22.2520 H   0  0  0  0  0  0  0  0  0  0  0  0
  -22.0060  -13.4240   22.0220 H   0  0  0  0  0  0  0  0  0  0  0  0
  -26.3560  -15.1410   19.9050 N   0  0  0  0  0  0  0  0  0  0  0  0
  -25.6300  -15.8420   20.0010 H   0  0  0  0  0  0  0  0  0  0  0  0
  -27.2220  -15.5100   19.5340 H   0  0  0  0  0  0  0  0  0  0  0  0
  -32.5950  -21.4770   19.6820 C   0  0  0  0  0  1  0  0  0  0  0  0
  -31.7260  -20.2120   19.6320 C   0  0  0  0  0  2  0  0  0  0  0  0
  -29.9510  -23.0410   22.4190 C   0  0  0  0  0  2  0  0  0  0  0  0
  -29.1170  -24.3180   22.6370 C   0  0  0  0  0  2  0  0  0  0  0  0
  -29.2990  -26.7510   23.0390 C   0  0  0  0  0  1  0  0  0  0  0  0
  -29.9230  -25.5530   22.4290 N   0  0  2  0  0  4  0  0  0  0  0  0
  -30.7610  -25.4090   22.9760 H   0  0  0  0  0  0  0  0  0  0  0  0
  -30.3940  -25.7710   21.0240 C   0  0  0  0  0  2  0  0  0  0  0  0
  -29.2760  -26.0650   20.0070 C   0  0  0  0  0  2  0  0  0  0  0  0
  -29.1840  -27.4800   19.8540 O   0  0  0  0  0  0  0  0  0  0  0  0
  -24.7650  -31.8560   23.2340 C   0  0  0  0  0  0  0  0  0  0  0  0
  -27.9220  -28.0200   19.8760 C   0  0  0  0  0  0  0  0  0  0  0  0
  -23.7370  -30.4530   21.4740 C   0  0  0  0  0  3  0  0  0  0  0  0
  -25.3680  -29.2030   19.9640 C   0  0  0  0  0  0  0  0  0  0  0  0
  -26.2000  -31.1250   21.3370 C   0  0  0  0  0  2  0  0  0  0  0  0
  -26.4480  -29.8260   20.6000 C   0  0  0  0  0  0  0  0  0  0  0  0
  -27.7310  -29.2440   20.5460 C   0  0  0  0  0  3  0  0  0  0  0  0
  -26.8260  -27.3990   19.2370 C   0  0  0  0  0  3  0  0  0  0  0  0
  -25.5490  -27.9860   19.2840 C   0  0  0  0  0  3  0  0  0  0  0  0
  -24.0300  -29.9020   20.0530 C   0  0  0  0  0  2  0  0  0  0  0  0
  -24.9160  -31.1560   22.0750 N   0  0  0  0  0  0  0  0  0  0  0  0
  -23.6580  -31.9560   23.7800 O   0  0  0  0  0  0  0  0  0  0  0  0
  -23.2060  -29.2930   22.3480 C   0  0  0  0  0  0  0  0  0  0  0  0
  -21.9210  -28.9520   22.1720 N   0  0  0  0  0  0  0  0  0  0  0  0
  -23.9510  -28.7080   23.1400 O   0  0  0  0  0  0  0  0  0  0  0  0
  -21.3760  -29.4850   21.5090 H   0  0  0  0  0  0  0  0  0  0  0  0
  -18.7210  -27.3070   22.4900 C   0  0  0  0  0  0  0  0  0  0  0  0
  -21.2170  -27.8700   22.8580 C   0  0  0  0  0  3  0  0  0  0  0  0
  -21.5170  -26.5040   22.1980 C   0  0  0  0  0  2  0  0  0  0  0  0
  -20.4900  -26.1110   21.1320 C   0  0  0  0  0  2  0  0  0  0  0  0
  -19.0860  -26.0380   21.7380 C   0  0  0  0  0  2  0  0  0  0  0  0
  -19.7220  -28.1750   23.0020 C   0  0  0  0  0  0  0  0  0  0  0  0
  -19.3300  -29.3580   23.6630 C   0  0  0  0  0  3  0  0  0  0  0  0
  -17.9680  -29.6810   23.8170 C   0  0  0  0  0  3  0  0  0  0  0  0
  -16.9810  -28.8110   23.3210 C   0  0  0  0  0  3  0  0  0  0  0  0
  -17.3570  -27.6260   22.6640 C   0  0  0  0  0  3  0  0  0  0  0  0
  -25.9670  -32.5800   23.9140 C   0  0  0  0  0  3  0  0  0  0  0  0
  -25.5360  -33.9470   24.2370 N   0  0  0  0  0  0  0  0  0  0  0  0
  -25.8260  -35.0280   23.5010 C   0  0  0  0  0  0  0  0  0  0  0  0
  -26.5580  -34.9860   22.5070 O   0  0  0  0  0  0  0  0  0  0  0  0
  -24.8850  -34.0460   25.0030 H   0  0  0  0  0  0  0  0  0  0  0  0
  -23.9840  -36.6810   23.0570 C   0  0  0  0  0  1  0  0  0  0  0  0
  -25.2080  -36.3710   23.9350 C   0  0  0  0  0  3  0  0  0  0  0  0
  -27.2110  -37.4190   24.8910 C   0  0  0  0  0  1  0  0  0  0  0  0
  -26.1600  -37.5020   23.8800 N   0  0  0  0  0  0  0  0  0  0  0  0
  -25.6760  -38.3880   23.9980 H   0  0  0  0  0  0  0  0  0  0  0  0
  -26.4900  -31.8410   25.2070 C   0  0  1  0  0  0  0  0  0  0  0  0
  -25.3720  -31.4940   26.2200 C   0  0  0  0  0  1  0  0  0  0  0  0
  -27.2050  -30.5230   24.8290 C   0  0  0  0  0  1  0  0  0  0  0  0
  -27.5380  -32.7210   25.9280 C   0  0  0  0  0  1  0  0  0  0  0  0
  2  4  1  0
  2  1  1  0
  3  2  1  0
  4  6  1  0
  6  5  1  0
  7 50  1  0
  7  4  1  0
  8  7  1  0
  8  9  1  0
 10  8  1  0
 11 12  1  0
 11  8  1  0
 13 19  1  0
 13 12  1  0
 14 19  1  0
 15 16  1  0
 15 14  1  0
 17 16  1  0
 17 24  1  0
 17 18  1  0
 19 18  1  0
 20 13  2  0
 21 22  2  0
 22 23  1  0
 22 41  1  0
 23 26  1  0
 24 21  1  0
 24 25  1  0
 25 23  2  0
 26 27  1  0
 27 28  2  0
 29 32  1  0
 29 28  1  0
 30 29  2  0
 31 30  1  0
 31 26  2  0
 32 33  1  0
 33 38  2  0
 33 34  1  0
 34 35  2  0
 35 36  1  0
 36 40  1  0
 37 36  2  0
 38 37  1  0
 39 38  1  0
 41 42  1  0
 42 45  1  0
 42 44  1  0
 43 41  2  0
 46 47  1  0
 46 21  1  0
 48 46  1  0
 50 49  1  0
 51  1  1  0
 51 52  1  0
 54 52  1  0
 54 55  1  1
 54 53  1  0
 56 54  1  0
 57 56  1  0
 58 60  1  0
 58 57  1  0
 59 70  2  0
 60 65  1  0
 61 69  1  0
 61 71  1  0
 62 68  1  0
 62 64  1  0
 63 69  1  0
 64 63  1  0
 65 64  2  0
 66 67  1  0
 66 60  2  0
 67 62  2  0
 68 61  1  0
 69 59  1  0
 71 73  2  0
 72 71  1  0
 74 72  1  0
 75 84  2  0
 75 80  1  0
 76 72  1  0
 76 80  1  0
 77 76  1  0
 78 79  1  0
 78 77  1  0
 79 75  1  0
 80 81  2  0
 81 82  1  0
 83 82  2  0
 84 83  1  0
 85 59  1  0
 85 86  1  0
 85 95  1  0
 86 89  1  0
 87 91  1  0
 87 86  1  0
 88 87  2  0
 91 90  1  0
 93 91  1  0
 93 94  1  0
 93 92  1  0
 95 98  1  1
 95 96  1  0
 97 95  1  0
M  ISO  4  12 100  13 100  57 101  58 101
M  END
>  <TORSDO>  (62) 
F 29

>  <SCORE>  (62) 
-7.575

>  <name>  (62) 
62

>  <ligand_id>  (62) 
62

>  <original_smiles>  (62) 
[H]c1c([H])c([H])c2c(c1[H])C([H])([H])C([H])([H])C([H])([H])C2([H])N([H])C(=O)C1([H])N(C(=O)C([H])(N([H])C(=O)C([H])(N([H])C([H])([H])[H])C([H])([H])[H])C(C([H])([H])[H])(C([H])([H])[H])C([H])([H])[H])C([H])([H])c2c([H])c(OC([H])([H])C([H])([H])[N+]([H])(C([H])([H])[H])C([H])([H])C([H])([H])C([H])([H])N([H])C([H])(C([H])([H])C([H])([H])[H])C([H])(C([H])([H])C([H])([H])[H])[N+]([H])([H])C([H])([H])C([H])([H])C(=O)N3C([H])([H])C([H])([H])C([H])([H])C([H])(n4nc(-c5c([H])c([H])c(Oc6c([H])c([H])c(F)c([H])c6F)c([H])c5[H])c(C(=O)N([H])[H])c4N([H])[H])C3([H])[H])c([H])c([H])c2C1([H])[H]

>  <smiles>  (62) 
[H]c1c([H])c([H])c2c(c1[H])C([H])([H])C([H])([H])C([H])([H])C2([H])N([H])C(=O)C1([H])N(C(=O)C([H])(N([H])C(=O)C([H])(N([H])C([H])([H])[H])C([H])([H])[H])C(C([H])([H])[H])(C([H])([H])[H])C([H])([H])[H])C([H])([H])c2c([H])c(OC([H])([H])C([H])([H])[N+]([H])(C([H])([H])[H])C([H])([H])C([H])([H])C([H])([H])N([H])C([H])(C([H])([H])C([H])([H])[H])C([H])(C([H])([H])C([H])([H])[H])[N+]([H])([H])C([H])([H])C([H])([H])C(=O)N3C([H])([H])C([H])([H])C([H])([H])C([H])(n4nc(-c5c([H])c([H])c(Oc6c([H])c([H])c(F)c([H])c6F)c([H])c5[H])c(C(=O)N([H])[H])c4N([H])[H])C3([H])[H])c([H])c([H])c2C1([H])[H]

$$$$
63:0:0
     RDKit          3D

 90 98  0  0  1  0  0  0  0  0999 V2000
  -29.6340  -21.4160   19.8200 N   0  0  0  0  0  0  0  0  0  0  0  0
  -30.1340  -21.7260   18.9900 H   0  0  0  0  0  0  0  0  0  0  0  0
  -30.8210  -17.8240   19.5300 C   0  0  0  0  0  3  0  0  0  0  0  0
  -29.1680  -17.9040   21.2760 C   0  0  0  0  0  3  0  0  0  0  0  0
  -30.6830  -19.2340   19.3600 C   0  0  0  0  0  3  0  0  0  0  0  0
  -29.0480  -19.3190   21.1230 C   0  0  0  0  0  3  0  0  0  0  0  0
  -30.0360  -17.1120   20.4730 C   0  0  0  0  0  0  0  0  0  0  0  0
  -29.7800  -20.0200   20.1280 C   0  0  0  0  0  0  0  0  0  0  0  0
  -30.7130  -14.6430   20.0390 C   0  0  0  0  0  0  0  0  0  0  0  0
  -30.4010  -12.4420   18.9220 C   0  0  0  0  0  2  0  0  0  0  0  0
  -29.3870  -12.6400   17.7730 C   0  0  0  0  0  2  0  0  0  0  0  0
  -27.9420  -12.4720   18.2850 C   0  0  0  0  0  2  0  0  0  0  0  0
  -27.6740  -13.2860   19.5790 C   0  0  0  0  0  3  0  0  0  0  0  0
  -28.8030  -13.0770   20.6150 C   0  0  0  0  0  2  0  0  0  0  0  0
  -30.0800  -13.4260   19.9720 N   0  0  0  0  0  0  0  0  0  0  0  0
  -31.8150  -14.8200   19.5110 O   0  0  0  0  0  0  0  0  0  0  0  0
  -30.0100  -15.6550   20.6290 N   0  0  0  0  0  0  0  0  0  0  0  0
  -29.2260  -15.3110   21.1620 H   0  0  0  0  0  0  0  0  0  0  0  0
  -25.3320  -13.8690   20.4670 C   0  0  0  0  0  0  0  0  0  0  0  0
  -24.2850  -13.0890   20.8770 C   0  0  0  0  0  0  0  0  0  0  0  0
  -24.7360  -11.7360   20.7720 C   0  0  0  0  0  0  0  0  0  0  0  0
  -26.3550  -12.9930   20.1360 N   0  0  0  0  0  0  0  0  0  0  0  0
  -26.0040  -11.7030   20.3790 N   0  0  0  0  0  0  0  0  0  0  0  0
  -24.0150  -10.4700   20.9660 C   0  0  0  0  0  0  0  0  0  0  0  0
  -24.4660   -9.5000   21.8880 C   0  0  0  0  0  3  0  0  0  0  0  0
  -23.7470   -8.2980   22.0690 C   0  0  0  0  0  3  0  0  0  0  0  0
  -22.5640   -8.0610   21.3300 C   0  0  0  0  0  0  0  0  0  0  0  0
  -22.1330   -9.0210   20.3970 C   0  0  0  0  0  3  0  0  0  0  0  0
  -22.8520  -10.2140   20.2140 C   0  0  0  0  0  3  0  0  0  0  0  0
  -21.8140   -6.9150   21.4240 O   0  0  0  0  0  0  0  0  0  0  0  0
  -21.7380   -6.1970   22.5900 C   0  0  0  0  0  0  0  0  0  0  0  0
  -21.2550   -6.7660   23.7890 C   0  0  0  0  0  3  0  0  0  0  0  0
  -21.1320   -5.9710   24.9450 C   0  0  0  0  0  3  0  0  0  0  0  0
  -21.4800   -4.6070   24.9050 C   0  0  0  0  0  0  0  0  0  0  0  0
  -21.9560   -4.0380   23.7120 C   0  0  0  0  0  3  0  0  0  0  0  0
  -22.0810   -4.8290   22.5560 C   0  0  0  0  0  0  0  0  0  0  0  0
  -22.5200   -4.2710   21.4040 F   0  0  0  0  0  0  0  0  0  0  0  0
  -21.3540   -3.8410   26.0150 F   0  0  0  0  0  0  0  0  0  0  0  0
  -22.9100  -13.5630   21.2480 C   0  0  0  0  0  0  0  0  0  0  0  0
  -22.2280  -12.8440   22.1330 N   0  0  0  0  0  0  0  0  0  0  0  0
  -22.4500  -14.6080   20.7900 O   0  0  0  0  0  0  0  0  0  0  0  0
  -22.6110  -12.0010   22.5340 H   0  0  0  0  0  0  0  0  0  0  0  0
  -21.3070  -13.1470   22.4170 H   0  0  0  0  0  0  0  0  0  0  0  0
  -25.5000  -15.2440   20.3270 N   0  0  0  0  0  0  0  0  0  0  0  0
  -24.7560  -15.9080   20.5120 H   0  0  0  0  0  0  0  0  0  0  0  0
  -26.3390  -15.6810   19.9680 H   0  0  0  0  0  0  0  0  0  0  0  0
  -29.1150  -22.5150   20.6920 C   0  0  0  0  0  2  0  0  0  0  0  0
  -28.9140  -23.9370   19.9780 C   0  0  0  0  0  3  0  0  0  0  0  0
  -28.3480  -25.1710   20.8140 C   0  0  0  0  0  3  0  0  0  0  0  0
  -28.4670  -26.5320   20.2450 O   0  0  0  0  0  0  0  0  0  0  0  0
  -24.6800  -31.9040   23.1960 C   0  0  0  0  0  0  0  0  0  0  0  0
  -27.3280  -27.3450   20.2220 C   0  0  0  0  0  0  0  0  0  0  0  0
  -23.4820  -30.4760   21.5730 C   0  0  0  0  0  3  0  0  0  0  0  0
  -24.9460  -28.9150   20.1720 C   0  0  0  0  0  0  0  0  0  0  0  0
  -26.0150  -30.8210   21.3810 C   0  0  0  0  0  2  0  0  0  0  0  0
  -26.1080  -29.4340   20.7580 C   0  0  0  0  0  0  0  0  0  0  0  0
  -27.3040  -28.6610   20.7690 C   0  0  0  0  0  3  0  0  0  0  0  0
  -26.1470  -26.8640   19.6190 C   0  0  0  0  0  3  0  0  0  0  0  0
  -24.9660  -27.6350   19.5950 C   0  0  0  0  0  3  0  0  0  0  0  0
  -23.7030  -29.7820   20.2010 C   0  0  0  0  0  2  0  0  0  0  0  0
  -24.7440  -31.0860   22.1060 N   0  0  0  0  0  0  0  0  0  0  0  0
  -23.5970  -32.1810   23.7320 O   0  0  0  0  0  0  0  0  0  0  0  0
  -22.8310  -29.4660   22.5470 C   0  0  0  0  0  0  0  0  0  0  0  0
  -21.5040  -29.2890   22.4330 N   0  0  0  0  0  0  0  0  0  0  0  0
  -23.5180  -28.8460   23.3610 O   0  0  0  0  0  0  0  0  0  0  0  0
  -21.0100  -29.8400   21.7450 H   0  0  0  0  0  0  0  0  0  0  0  0
  -18.1290  -28.1050   22.9700 C   0  0  0  0  0  0  0  0  0  0  0  0
  -20.6910  -28.3580   23.2160 C   0  0  0  0  0  3  0  0  0  0  0  0
  -20.7830  -26.9230   22.6480 C   0  0  0  0  0  2  0  0  0  0  0  0
  -19.6710  -26.5970   21.6460 C   0  0  0  0  0  2  0  0  0  0  0  0
  -18.2950  -26.7500   22.3010 C   0  0  0  0  0  2  0  0  0  0  0  0
  -19.2540  -28.8670   23.3850 C   0  0  0  0  0  0  0  0  0  0  0  0
  -19.0440  -30.1340   23.9690 C   0  0  0  0  0  3  0  0  0  0  0  0
  -17.7420  -30.6400   24.1460 C   0  0  0  0  0  3  0  0  0  0  0  0
  -16.6320  -29.8750   23.7490 C   0  0  0  0  0  3  0  0  0  0  0  0
  -16.8260  -28.6100   23.1660 C   0  0  0  0  0  3  0  0  0  0  0  0
  -25.9620  -32.5500   23.8110 C   0  0  0  0  0  3  0  0  0  0  0  0
  -26.5040  -31.7760   25.0750 C   0  0  1  0  0  0  0  0  0  0  0  0
  -25.4260  -31.5120   26.1530 C   0  0  0  0  0  1  0  0  0  0  0  0
  -27.1070  -30.4120   24.6660 C   0  0  0  0  0  1  0  0  0  0  0  0
  -27.6490  -32.5830   25.7320 C   0  0  0  0  0  1  0  0  0  0  0  0
  -25.6380  -33.9420   24.1540 N   0  0  0  0  0  0  0  0  0  0  0  0
  -25.9390  -35.0030   23.3950 C   0  0  0  0  0  0  0  0  0  0  0  0
  -26.5900  -34.9150   22.3490 O   0  0  0  0  0  0  0  0  0  0  0  0
  -25.0590  -34.0830   24.9690 H   0  0  0  0  0  0  0  0  0  0  0  0
  -24.1760  -36.7680   23.0860 C   0  0  0  0  0  1  0  0  0  0  0  0
  -25.4390  -36.3800   23.8690 C   0  0  0  0  0  3  0  0  0  0  0  0
  -27.5730  -37.2960   24.6640 C   0  0  0  0  0  1  0  0  0  0  0  0
  -26.4500  -37.4510   23.7420 N   0  0  0  0  0  0  0  0  0  0  0  0
  -26.0330  -38.3640   23.9020 H   0  0  0  0  0  0  0  0  0  0  0  0
  1  8  1  0
  1 47  1  0
  2  1  1  0
  3  7  1  0
  5  3  2  0
  5  8  1  0
  6  4  1  0
  7 17  1  0
  7  4  2  0
  8  6  2  0
  9 17  1  0
 10 15  1  0
 11 12  1  0
 11 10  1  0
 13 12  1  0
 13 22  1  0
 13 14  1  0
 15  9  1  0
 15 14  1  0
 16  9  2  0
 17 18  1  0
 19 20  2  0
 20 39  1  0
 21 20  1  0
 21 24  1  0
 22 23  1  0
 22 19  1  0
 23 21  2  0
 24 25  1  0
 25 26  2  0
 27 30  1  0
 27 26  1  0
 28 27  2  0
 29 28  1  0
 29 24  2  0
 30 31  1  0
 31 32  1  0
 32 33  2  0
 34 33  1  0
 34 38  1  0
 35 34  2  0
 36 31  2  0
 36 35  1  0
 37 36  1  0
 39 40  1  0
 40 43  1  0
 40 42  1  0
 41 39  2  0
 44 19  1  0
 44 45  1  0
 46 44  1  0
 48 47  1  0
 48 49  2  0
 50 49  1  0
 51 62  2  0
 52 50  1  0
 52 57  1  0
 53 61  1  0
 53 63  1  0
 54 60  1  0
 54 56  1  0
 55 61  1  0
 56 57  2  0
 56 55  1  0
 58 52  2  0
 59 58  1  0
 59 54  2  0
 60 53  1  0
 61 51  1  0
 63 65  2  0
 64 63  1  0
 66 64  1  0
 67 76  2  0
 67 72  1  0
 68 64  1  0
 68 72  1  0
 69 68  1  0
 70 71  1  0
 70 69  1  0
 71 67  1  0
 72 73  2  0
 73 74  1  0
 75 74  2  0
 76 75  1  0
 77 51  1  0
 77 82  1  0
 77 78  1  0
 78 81  1  1
 78 79  1  0
 80 78  1  0
 82 85  1  0
 83 87  1  0
 83 82  1  0
 84 83  2  0
 87 86  1  0
 89 87  1  0
 89 90  1  0
 89 88  1  0
M  ISO  4   9 100  17 100  49 101  50 101
M  END
>  <TORSDO>  (63) 
F 20

>  <SCORE>  (63) 
-13.017

>  <name>  (63) 
63

>  <ligand_id>  (63) 
63

>  <original_smiles>  (63) 
[H]c1c([H])c([H])c2c(c1[H])C([H])([H])C([H])([H])C([H])([H])C2([H])N([H])C(=O)C1([H])N(C(=O)C([H])(N([H])C(=O)C([H])(N([H])C([H])([H])[H])C([H])([H])[H])C(C([H])([H])[H])(C([H])([H])[H])C([H])([H])[H])C([H])([H])c2c([H])c(OC([H])([H])C([H])([H])C([H])([H])N([H])c3c([H])c([H])c(N([H])C(=O)N4C([H])([H])C([H])([H])C([H])([H])C([H])(n5nc(-c6c([H])c([H])c(Oc7c([H])c([H])c(F)c([H])c7F)c([H])c6[H])c(C(=O)N([H])[H])c5N([H])[H])C4([H])[H])c([H])c3[H])c([H])c([H])c2C1([H])[H]

>  <smiles>  (63) 
[H]c1c([H])c([H])c2c(c1[H])C([H])([H])C([H])([H])C([H])([H])C2([H])N([H])C(=O)C1([H])N(C(=O)C([H])(N([H])C(=O)C([H])(N([H])C([H])([H])[H])C([H])([H])[H])C(C([H])([H])[H])(C([H])([H])[H])C([H])([H])[H])C([H])([H])c2c([H])c(OC([H])([H])C([H])([H])C([H])([H])N([H])c3c([H])c([H])c(N([H])C(=O)N4C([H])([H])C([H])([H])C([H])([H])C([H])(n5nc(-c6c([H])c([H])c(Oc7c([H])c([H])c(F)c([H])c7F)c([H])c6[H])c(C(=O)N([H])[H])c5N([H])[H])C4([H])[H])c([H])c3[H])c([H])c([H])c2C1([H])[H]

$$$$
64:0:0
     RDKit          3D

 88 95  0  0  1  0  0  0  0  0999 V2000
  -29.3870  -20.4290   19.2310 C   0  0  0  0  0  2  0  0  0  0  0  0
  -29.1470  -22.2420   19.8310 C   0  0  0  0  0  2  0  0  0  0  0  0
  -28.3550  -23.9160   19.3230 C   0  0  0  0  0  2  0  0  0  0  0  0
  -28.4430  -25.6260   19.6460 O   0  0  0  0  0  0  0  0  0  0  0  0
  -24.7720  -31.5860   22.8790 C   0  0  0  0  0  0  0  0  0  0  0  0
  -27.4360  -26.7880   19.6150 C   0  0  0  0  0  0  0  0  0  0  0  0
  -23.6030  -30.1920   21.2270 C   0  0  0  0  0  3  0  0  0  0  0  0
  -25.0860  -28.6920   19.7030 C   0  0  0  0  0  0  0  0  0  0  0  0
  -26.1680  -30.4800   21.0360 C   0  0  0  0  0  2  0  0  0  0  0  0
  -26.2810  -29.0850   20.3160 C   0  0  0  0  0  0  0  0  0  0  0  0
  -27.4430  -28.1580   20.2470 C   0  0  0  0  0  3  0  0  0  0  0  0
  -26.2080  -26.6000   18.9450 C   0  0  0  0  0  3  0  0  0  0  0  0
  -25.0820  -27.4740   18.9990 C   0  0  0  0  0  3  0  0  0  0  0  0
  -23.8380  -29.5710   19.8190 C   0  0  0  0  0  2  0  0  0  0  0  0
  -24.8700  -30.7840   21.7630 N   0  0  0  0  0  0  0  0  0  0  0  0
  -23.6840  -31.8100   23.4370 O   0  0  0  0  0  0  0  0  0  0  0  0
  -22.9740  -29.1410   22.1770 C   0  0  0  0  0  0  0  0  0  0  0  0
  -21.6480  -28.9390   22.1040 N   0  0  0  0  0  0  0  0  0  0  0  0
  -23.6910  -28.5060   22.9540 O   0  0  0  0  0  0  0  0  0  0  0  0
  -21.1230  -29.4920   21.4370 H   0  0  0  0  0  0  0  0  0  0  0  0
  -18.3300  -27.6070   22.7400 C   0  0  0  0  0  0  0  0  0  0  0  0
  -20.8930  -27.9340   22.8600 C   0  0  0  0  0  3  0  0  0  0  0  0
  -20.9900  -26.5430   22.1970 C   0  0  0  0  0  2  0  0  0  0  0  0
  -19.8340  -26.2340   21.2410 C   0  0  0  0  0  2  0  0  0  0  0  0
  -18.4970  -26.3020   21.9820 C   0  0  0  0  0  2  0  0  0  0  0  0
  -19.4530  -28.3790   23.1420 C   0  0  0  0  0  0  0  0  0  0  0  0
  -19.2380  -29.5950   23.8290 C   0  0  0  0  0  3  0  0  0  0  0  0
  -17.9340  -30.0370   24.1180 C   0  0  0  0  0  3  0  0  0  0  0  0
  -16.8270  -29.2640   23.7280 C   0  0  0  0  0  3  0  0  0  0  0  0
  -17.0240  -28.0530   23.0440 C   0  0  0  0  0  3  0  0  0  0  0  0
  -26.0220  -32.2780   23.5050 C   0  0  0  0  0  3  0  0  0  0  0  0
  -25.6280  -33.6330   23.9390 N   0  0  0  0  0  0  0  0  0  0  0  0
  -25.8910  -34.7670   23.2740 C   0  0  0  0  0  0  0  0  0  0  0  0
  -26.5530  -34.7830   22.2320 O   0  0  0  0  0  0  0  0  0  0  0  0
  -25.0320  -33.6830   24.7510 H   0  0  0  0  0  0  0  0  0  0  0  0
  -24.0580  -36.4890   23.1040 C   0  0  0  0  0  1  0  0  0  0  0  0
  -25.3420  -36.0900   23.8490 C   0  0  0  0  0  3  0  0  0  0  0  0
  -27.4350  -37.0460   24.7100 C   0  0  0  0  0  1  0  0  0  0  0  0
  -26.3130  -37.2080   23.7890 N   0  0  0  0  0  0  0  0  0  0  0  0
  -25.8610  -38.0920   23.9930 H   0  0  0  0  0  0  0  0  0  0  0  0
  -26.6180  -31.4810   24.7310 C   0  0  1  0  0  0  0  0  0  0  0  0
  -25.5670  -31.1130   25.8070 C   0  0  0  0  0  1  0  0  0  0  0  0
  -27.2890  -30.1660   24.2710 C   0  0  0  0  0  1  0  0  0  0  0  0
  -27.7260  -32.3190   25.4150 C   0  0  0  0  0  1  0  0  0  0  0  0
  -29.6450  -18.6550   19.9180 C   0  0  0  0  0  0  0  0  0  0  0  0
  -30.8190  -15.6920   19.3920 C   0  0  0  0  0  0  0  0  0  0  0  0
  -30.8130  -13.1830   18.4690 C   0  0  0  0  0  2  0  0  0  0  0  0
  -29.7530  -12.8010   17.3920 C   0  0  0  0  0  2  0  0  0  0  0  0
  -28.3890  -12.4950   18.0370 C   0  0  0  0  0  2  0  0  0  0  0  0
  -28.0630  -13.4890   19.1750 C   0  0  0  0  0  3  0  0  0  0  0  0
  -29.2400  -13.7210   20.1360 C   0  0  0  0  0  2  0  0  0  0  0  0
  -30.2930  -14.3440   19.3130 N   0  0  0  0  0  0  0  0  0  0  0  0
  -32.0510  -15.6440   19.2420 O   0  0  0  0  0  0  0  0  0  0  0  0
  -30.0010  -17.0100   19.3570 N   0  0  0  0  0  4  0  0  0  0  0  0
  -29.1600  -16.7510   18.8620 H   0  0  0  0  0  0  0  0  0  0  0  0
  -25.9120  -14.1040   20.3620 C   0  0  0  0  0  0  0  0  0  0  0  0
  -24.8760  -13.3670   20.8540 C   0  0  0  0  0  0  0  0  0  0  0  0
  -25.2240  -11.9990   20.6200 C   0  0  0  0  0  0  0  0  0  0  0  0
  -26.8300  -13.1960   19.8750 N   0  0  0  0  0  0  0  0  0  0  0  0
  -26.4420  -11.9150   20.0900 N   0  0  0  0  0  0  0  0  0  0  0  0
  -24.4320  -10.7760   20.7890 C   0  0  0  0  0  0  0  0  0  0  0  0
  -24.8410   -9.7420   21.6580 C   0  0  0  0  0  3  0  0  0  0  0  0
  -24.0480   -8.5880   21.8140 C   0  0  0  0  0  3  0  0  0  0  0  0
  -22.8320   -8.4570   21.0980 C   0  0  0  0  0  0  0  0  0  0  0  0
  -22.4480   -9.4790   20.2150 C   0  0  0  0  0  3  0  0  0  0  0  0
  -23.2410  -10.6250   20.0530 C   0  0  0  0  0  3  0  0  0  0  0  0
  -22.0080   -7.3640   21.1720 O   0  0  0  0  0  0  0  0  0  0  0  0
  -21.8440   -6.6660   22.3460 C   0  0  0  0  0  0  0  0  0  0  0  0
  -21.3260   -7.2790   23.5080 C   0  0  0  0  0  3  0  0  0  0  0  0
  -21.1090   -6.5110   24.6710 C   0  0  0  0  0  3  0  0  0  0  0  0
  -21.4020   -5.1350   24.6710 C   0  0  0  0  0  0  0  0  0  0  0  0
  -21.9170   -4.5230   23.5130 C   0  0  0  0  0  3  0  0  0  0  0  0
  -22.1340   -5.2900   22.3550 C   0  0  0  0  0  0  0  0  0  0  0  0
  -22.6110   -4.6940   21.2350 F   0  0  0  0  0  0  0  0  0  0  0  0
  -21.1890   -4.3930   25.7830 F   0  0  0  0  0  0  0  0  0  0  0  0
  -23.5870  -13.9030   21.3920 C   0  0  0  0  0  0  0  0  0  0  0  0
  -22.9570  -13.1850   22.3120 N   0  0  0  0  0  0  0  0  0  0  0  0
  -23.1590  -14.9980   21.0230 O   0  0  0  0  0  0  0  0  0  0  0  0
  -23.3130  -12.2890   22.6170 H   0  0  0  0  0  0  0  0  0  0  0  0
  -22.0980  -13.5310   22.7170 H   0  0  0  0  0  0  0  0  0  0  0  0
  -26.1150  -15.4740   20.2170 N   0  0  0  0  0  0  0  0  0  0  0  0
  -25.2400  -15.9750   20.3290 H   0  0  0  0  0  0  0  0  0  0  0  0
  -26.4910  -15.6660   19.2960 H   0  0  0  0  0  0  0  0  0  0  0  0
  -29.5940  -18.6020   21.4970 C   0  0  0  0  0  2  0  0  0  0  0  0
  -28.9780  -19.7670   22.1950 N   0  0  0  0  0  4  0  0  0  0  0  0
  -29.0130  -19.6280   23.1960 H   0  0  0  0  0  0  0  0  0  0  0  0
  -28.0040  -19.8560   21.9650 H   0  0  0  0  0  0  0  0  0  0  0  0
  -29.4290  -20.6330   21.9900 H   0  0  0  0  0  0  0  0  0  0  0  0
  1  2  1  0
  1 45  1  0
  3  4  1  0
  3  2  1  0
  5 16  2  0
  6  4  1  0
  6 11  1  0
  7 15  1  0
  7 17  1  0
  8 14  1  0
  8 10  1  0
  9 15  1  0
 10  9  1  0
 11 10  2  0
 12 13  1  0
 12  6  2  0
 13  8  2  0
 14  7  1  0
 15  5  1  0
 17 19  2  0
 18 17  1  0
 20 18  1  0
 21 30  2  0
 21 26  1  0
 22 18  1  0
 22 26  1  0
 23 22  1  0
 24 25  1  0
 24 23  1  0
 25 21  1  0
 26 27  2  0
 27 28  1  0
 29 28  2  0
 30 29  1  0
 31  5  1  0
 31 32  1  0
 31 41  1  0
 32 35  1  0
 33 37  1  0
 33 32  1  0
 34 33  2  0
 37 36  1  0
 39 37  1  0
 39 40  1  0
 39 38  1  0
 41 44  1  1
 41 42  1  0
 43 41  1  0
 45 84  1  0
 47 52  1  0
 48 49  1  0
 48 47  1  0
 50 49  1  0
 50 59  1  0
 50 51  1  0
 52 46  1  0
 52 51  1  0
 53 46  2  0
 54 46  1  0
 54 45  2  0
 55 54  1  0
 56 57  2  0
 57 76  1  0
 58 61  1  0
 58 57  1  0
 59 60  1  0
 59 56  1  0
 60 58  2  0
 61 62  1  0
 62 63  2  0
 64 67  1  0
 64 63  1  0
 65 64  2  0
 66 65  1  0
 66 61  2  0
 67 68  1  0
 68 73  2  0
 68 69  1  0
 69 70  2  0
 71 70  1  0
 71 75  1  0
 72 71  2  0
 73 72  1  0
 74 73  1  0
 76 77  1  0
 77 79  1  0
 77 80  1  0
 78 76  2  0
 81 82  1  0
 81 56  1  0
 83 81  1  0
 84 85  1  0
 85 86  1  0
 87 85  1  0
 88 85  1  0
M  ISO  4   3 101   4 101  46 100  54 100
M  END
>  <TORSDO>  (64) 
F 21

>  <SCORE>  (64) 
-11.549

>  <name>  (64) 
64

>  <ligand_id>  (64) 
64

>  <original_smiles>  (64) 
[H]c1c([H])c([H])c2c(c1[H])C([H])([H])C([H])([H])C([H])([H])C2([H])N([H])C(=O)C1([H])N(C(=O)C([H])(N([H])C(=O)C([H])(N([H])C([H])([H])[H])C([H])([H])[H])C(C([H])([H])[H])(C([H])([H])[H])C([H])([H])[H])C([H])([H])c2c([H])c(OC([H])([H])C([H])([H])C([H])([H])C([H])(N([H])C(=O)N3C([H])([H])C([H])([H])C([H])([H])C([H])(n4nc(-c5c([H])c([H])c(Oc6c([H])c([H])c(F)c([H])c6F)c([H])c5[H])c(C(=O)N([H])[H])c4N([H])[H])C3([H])[H])C([H])([H])[N+]([H])([H])[H])c([H])c([H])c2C1([H])[H]

>  <smiles>  (64) 
[H]c1c([H])c([H])c2c(c1[H])C([H])([H])C([H])([H])C([H])([H])C2([H])N([H])C(=O)C1([H])N(C(=O)C([H])(N([H])C(=O)C([H])(N([H])C([H])([H])[H])C([H])([H])[H])C(C([H])([H])[H])(C([H])([H])[H])C([H])([H])[H])C([H])([H])c2c([H])c(OC([H])([H])C([H])([H])C([H])([H])C([H])(N([H])C(=O)N3C([H])([H])C([H])([H])C([H])([H])C([H])(n4nc(-c5c([H])c([H])c(Oc6c([H])c([H])c(F)c([H])c6F)c([H])c5[H])c(C(=O)N([H])[H])c4N([H])[H])C3([H])[H])C([H])([H])[N+]([H])([H])[H])c([H])c([H])c2C1([H])[H]

$$$$
65:0:0
     RDKit          3D

 86 94  0  0  1  0  0  0  0  0999 V2000
  -29.1870  -21.3180   21.2240 C   0  0  0  0  0  3  0  0  0  0  0  0
  -28.3800  -21.1180   19.1690 C   0  0  0  0  0  3  0  0  0  0  0  0
  -29.5320  -19.8170   21.2250 C   0  0  0  0  0  3  0  0  0  0  0  0
  -28.7130  -19.6270   19.1720 C   0  0  0  0  0  3  0  0  0  0  0  0
  -28.5590  -22.1940   20.1860 C   0  0  0  0  0  0  0  0  0  0  0  0
  -29.3450  -18.7470   20.1930 C   0  0  0  0  0  0  0  0  0  0  0  0
  -30.2600  -15.7190   20.1520 C   0  0  0  0  0  0  0  0  0  0  0  0
  -30.3680  -13.1860   19.3140 C   0  0  0  0  0  2  0  0  0  0  0  0
  -29.4450  -12.7990   18.1230 C   0  0  0  0  0  2  0  0  0  0  0  0
  -28.0320  -12.4420   18.6110 C   0  0  0  0  0  2  0  0  0  0  0  0
  -27.5460  -13.4280   19.6970 C   0  0  0  0  0  3  0  0  0  0  0  0
  -28.6050  -13.7230   20.7850 C   0  0  0  0  0  2  0  0  0  0  0  0
  -29.7610  -14.3480   20.1030 N   0  0  0  0  0  0  0  0  0  0  0  0
  -31.4880  -15.6960   19.9420 O   0  0  0  0  0  0  0  0  0  0  0  0
  -29.4300  -17.0280   20.2420 N   0  0  0  0  0  0  0  0  0  0  0  0
  -28.4830  -16.6860   20.3090 H   0  0  0  0  0  0  0  0  0  0  0  0
  -25.2060  -13.9340   20.5460 C   0  0  0  0  0  0  0  0  0  0  0  0
  -24.1600  -13.1410   20.9260 C   0  0  0  0  0  0  0  0  0  0  0  0
  -24.6350  -11.7950   20.8480 C   0  0  0  0  0  0  0  0  0  0  0  0
  -26.2460  -13.0750   20.2480 N   0  0  0  0  0  0  0  0  0  0  0  0
  -25.9180  -11.7780   20.4970 N   0  0  0  0  0  0  0  0  0  0  0  0
  -23.9180  -10.5250   21.0260 C   0  0  0  0  0  0  0  0  0  0  0  0
  -24.3490   -9.5550   21.9580 C   0  0  0  0  0  3  0  0  0  0  0  0
  -23.6270   -8.3540   22.1270 C   0  0  0  0  0  3  0  0  0  0  0  0
  -22.4590   -8.1140   21.3660 C   0  0  0  0  0  0  0  0  0  0  0  0
  -22.0470   -9.0720   20.4240 C   0  0  0  0  0  3  0  0  0  0  0  0
  -22.7690  -10.2640   20.2520 C   0  0  0  0  0  3  0  0  0  0  0  0
  -21.7100   -6.9650   21.4440 O   0  0  0  0  0  0  0  0  0  0  0  0
  -21.6210   -6.2410   22.6070 C   0  0  0  0  0  0  0  0  0  0  0  0
  -21.1120   -6.8040   23.7970 C   0  0  0  0  0  3  0  0  0  0  0  0
  -20.9720   -6.0060   24.9500 C   0  0  0  0  0  3  0  0  0  0  0  0
  -21.3310   -4.6460   24.9130 C   0  0  0  0  0  0  0  0  0  0  0  0
  -21.8340   -4.0820   23.7270 C   0  0  0  0  0  3  0  0  0  0  0  0
  -21.9740   -4.8770   22.5770 C   0  0  0  0  0  0  0  0  0  0  0  0
  -22.4380   -4.3230   21.4310 F   0  0  0  0  0  0  0  0  0  0  0  0
  -21.1910   -3.8770   26.0190 F   0  0  0  0  0  0  0  0  0  0  0  0
  -22.7690  -13.6060   21.2420 C   0  0  0  0  0  0  0  0  0  0  0  0
  -22.0680  -12.8890   22.1130 N   0  0  0  0  0  0  0  0  0  0  0  0
  -22.3150  -14.6380   20.7530 O   0  0  0  0  0  0  0  0  0  0  0  0
  -22.4500  -12.0540   22.5310 H   0  0  0  0  0  0  0  0  0  0  0  0
  -21.1340  -13.1820   22.3670 H   0  0  0  0  0  0  0  0  0  0  0  0
  -25.3510  -15.3100   20.3950 N   0  0  0  0  0  0  0  0  0  0  0  0
  -24.5750  -15.9490   20.5370 H   0  0  0  0  0  0  0  0  0  0  0  0
  -26.1650  -15.7610   20.0010 H   0  0  0  0  0  0  0  0  0  0  0  0
  -27.7930  -23.9010   20.1770 C   0  0  0  0  0  2  0  0  0  0  0  0
  -28.1150  -25.6130   20.3110 O   0  0  0  0  0  0  0  0  0  0  0  0
  -24.6620  -31.9150   23.2510 C   0  0  0  0  0  0  0  0  0  0  0  0
  -27.1570  -26.8350   20.2600 C   0  0  0  0  0  0  0  0  0  0  0  0
  -23.4600  -30.5190   21.6230 C   0  0  0  0  0  3  0  0  0  0  0  0
  -24.8950  -28.8660   20.2080 C   0  0  0  0  0  0  0  0  0  0  0  0
  -26.0380  -30.6560   21.4870 C   0  0  0  0  0  2  0  0  0  0  0  0
  -26.0950  -29.2230   20.8340 C   0  0  0  0  0  0  0  0  0  0  0  0
  -27.2120  -28.2350   20.8280 C   0  0  0  0  0  3  0  0  0  0  0  0
  -25.9230  -26.6850   19.5790 C   0  0  0  0  0  3  0  0  0  0  0  0
  -24.8460  -27.6220   19.5560 C   0  0  0  0  0  3  0  0  0  0  0  0
  -23.6900  -29.8190   20.2540 C   0  0  0  0  0  2  0  0  0  0  0  0
  -24.7450  -31.0630   22.1720 N   0  0  0  0  0  0  0  0  0  0  0  0
  -23.5730  -32.2210   23.7660 O   0  0  0  0  0  0  0  0  0  0  0  0
  -22.7450  -29.5460   22.5990 C   0  0  0  0  0  0  0  0  0  0  0  0
  -21.4140  -29.3860   22.4710 N   0  0  0  0  0  0  0  0  0  0  0  0
  -23.4000  -28.9330   23.4470 O   0  0  0  0  0  0  0  0  0  0  0  0
  -20.9350  -29.9310   21.7680 H   0  0  0  0  0  0  0  0  0  0  0  0
  -18.0320  -28.1550   22.9720 C   0  0  0  0  0  0  0  0  0  0  0  0
  -20.5870  -28.4540   23.2490 C   0  0  0  0  0  3  0  0  0  0  0  0
  -20.7060  -27.0130   22.6990 C   0  0  0  0  0  2  0  0  0  0  0  0
  -19.6170  -26.6650   21.6810 C   0  0  0  0  0  2  0  0  0  0  0  0
  -18.2280  -26.8010   22.3110 C   0  0  0  0  0  2  0  0  0  0  0  0
  -19.1380  -28.9370   23.3980 C   0  0  0  0  0  0  0  0  0  0  0  0
  -18.8970  -30.2000   23.9820 C   0  0  0  0  0  3  0  0  0  0  0  0
  -17.5830  -30.6820   24.1390 C   0  0  0  0  0  3  0  0  0  0  0  0
  -16.4920  -29.8990   23.7250 C   0  0  0  0  0  3  0  0  0  0  0  0
  -16.7170  -28.6360   23.1490 C   0  0  0  0  0  3  0  0  0  0  0  0
  -25.9320  -32.5610   23.8830 C   0  0  0  0  0  3  0  0  0  0  0  0
  -25.6160  -33.9640   24.2200 N   0  0  0  0  0  0  0  0  0  0  0  0
  -25.9160  -35.0270   23.4620 C   0  0  0  0  0  0  0  0  0  0  0  0
  -26.5470  -34.9310   22.4070 O   0  0  0  0  0  0  0  0  0  0  0  0
  -25.0470  -34.1100   25.0410 H   0  0  0  0  0  0  0  0  0  0  0  0
  -24.1590  -36.8170   23.2140 C   0  0  0  0  0  1  0  0  0  0  0  0
  -25.4490  -36.4160   23.9480 C   0  0  0  0  0  3  0  0  0  0  0  0
  -27.6160  -37.3300   24.6580 C   0  0  0  0  0  1  0  0  0  0  0  0
  -26.4640  -37.4780   23.7730 N   0  0  0  0  0  0  0  0  0  0  0  0
  -26.0580  -38.3960   23.9330 H   0  0  0  0  0  0  0  0  0  0  0  0
  -26.4320  -31.8030   25.1750 C   0  0  1  0  0  0  0  0  0  0  0  0
  -25.3290  -31.5820   26.2370 C   0  0  0  0  0  1  0  0  0  0  0  0
  -27.0120  -30.4160   24.8140 C   0  0  0  0  0  1  0  0  0  0  0  0
  -27.5810  -32.5990   25.8380 C   0  0  0  0  0  1  0  0  0  0  0  0
  1  3  1  0
  2  4  2  0
  2  5  1  0
  4  6  1  0
  5  1  2  0
  6 15  1  0
  6  3  2  0
  7 15  1  0
  8 13  1  0
  9 10  1  0
  9  8  1  0
 11 10  1  0
 11 20  1  0
 11 12  1  0
 13  7  1  0
 13 12  1  0
 14  7  2  0
 15 16  1  0
 17 18  2  0
 18 37  1  0
 19 18  1  0
 19 22  1  0
 20 21  1  0
 20 17  1  0
 21 19  2  0
 22 23  1  0
 23 24  2  0
 25 28  1  0
 25 24  1  0
 26 25  2  0
 27 26  1  0
 27 22  2  0
 28 29  1  0
 29 30  1  0
 30 31  2  0
 32 31  1  0
 32 36  1  0
 33 32  2  0
 34 29  2  0
 34 33  1  0
 35 34  1  0
 37 38  1  0
 38 41  1  0
 38 40  1  0
 39 37  2  0
 42 43  1  0
 42 17  1  0
 44 42  1  0
 45  5  1  0
 45 46  1  0
 47 58  2  0
 48 46  1  0
 48 53  1  0
 49 57  1  0
 49 59  1  0
 50 56  1  0
 50 52  1  0
 51 57  1  0
 52 51  1  0
 53 52  2  0
 54 48  2  0
 55 54  1  0
 55 50  2  0
 56 49  1  0
 57 47  1  0
 59 61  2  0
 60 59  1  0
 62 60  1  0
 63 72  2  0
 63 68  1  0
 64 60  1  0
 64 68  1  0
 65 64  1  0
 66 67  1  0
 66 65  1  0
 67 63  1  0
 68 69  2  0
 69 70  1  0
 71 70  2  0
 72 71  1  0
 73 47  1  0
 73 74  1  0
 73 83  1  0
 74 77  1  0
 75 79  1  0
 75 74  1  0
 76 75  2  0
 79 78  1  0
 81 82  1  0
 81 79  1  0
 81 80  1  0
 83 86  1  1
 83 84  1  0
 85 83  1  0
M  ISO  4   7 100  15 100  45 101  46 101
M  END
>  <TORSDO>  (65) 
F 17

>  <SCORE>  (65) 
-16.448

>  <name>  (65) 
65

>  <ligand_id>  (65) 
65

>  <original_smiles>  (65) 
[H]c1c([H])c([H])c2c(c1[H])C([H])([H])C([H])([H])C([H])([H])C2([H])N([H])C(=O)C1([H])N(C(=O)C([H])(N([H])C(=O)C([H])(N([H])C([H])([H])[H])C([H])([H])[H])C(C([H])([H])[H])(C([H])([H])[H])C([H])([H])[H])C([H])([H])c2c([H])c(OC([H])([H])c3c([H])c([H])c(N([H])C(=O)N4C([H])([H])C([H])([H])C([H])([H])C([H])(n5nc(-c6c([H])c([H])c(Oc7c([H])c([H])c(F)c([H])c7F)c([H])c6[H])c(C(=O)N([H])[H])c5N([H])[H])C4([H])[H])c([H])c3[H])c([H])c([H])c2C1([H])[H]

>  <smiles>  (65) 
[H]c1c([H])c([H])c2c(c1[H])C([H])([H])C([H])([H])C([H])([H])C2([H])N([H])C(=O)C1([H])N(C(=O)C([H])(N([H])C(=O)C([H])(N([H])C([H])([H])[H])C([H])([H])[H])C(C([H])([H])[H])(C([H])([H])[H])C([H])([H])[H])C([H])([H])c2c([H])c(OC([H])([H])c3c([H])c([H])c(N([H])C(=O)N4C([H])([H])C([H])([H])C([H])([H])C([H])(n5nc(-c6c([H])c([H])c(Oc7c([H])c([H])c(F)c([H])c7F)c([H])c6[H])c(C(=O)N([H])[H])c5N([H])[H])C4([H])[H])c([H])c3[H])c([H])c([H])c2C1([H])[H]

$$$$
66:0:0
     RDKit          3D

 88 96  0  0  1  0  0  0  0  0999 V2000
  -30.5810  -19.2010   20.7390 C   0  0  0  0  0  2  0  0  0  0  0  0
  -28.5630  -18.9160   19.4600 C   0  0  0  0  0  2  0  0  0  0  0  0
  -30.0840  -20.7350   21.1300 C   0  0  0  0  0  2  0  0  0  0  0  0
  -28.1050  -20.4830   19.7770 C   0  0  0  0  0  2  0  0  0  0  0  0
  -29.4620  -18.0610   20.5000 C   0  0  0  0  0  3  0  0  0  0  0  0
  -29.1430  -21.5440   20.2000 N   0  0  1  0  0  4  0  0  0  0  0  0
  -29.7000  -21.7290   19.3740 H   0  0  0  0  0  0  0  0  0  0  0  0
  -30.4360  -15.2140   20.2770 C   0  0  0  0  0  0  0  0  0  0  0  0
  -30.4010  -12.7930   19.3720 C   0  0  0  0  0  2  0  0  0  0  0  0
  -29.4660  -12.6360   18.1460 C   0  0  0  0  0  2  0  0  0  0  0  0
  -28.0210  -12.3660   18.6090 C   0  0  0  0  0  2  0  0  0  0  0  0
  -27.5830  -13.3360   19.7360 C   0  0  0  0  0  3  0  0  0  0  0  0
  -28.6410  -13.4250   20.8590 C   0  0  0  0  0  2  0  0  0  0  0  0
  -29.8800  -13.9150   20.2280 N   0  0  0  0  0  0  0  0  0  0  0  0
  -31.6460  -15.2680   20.0270 O   0  0  0  0  0  0  0  0  0  0  0  0
  -29.6000  -16.4080   20.4150 N   0  0  0  0  0  0  0  0  0  0  0  0
  -28.6760  -16.0330   20.5670 H   0  0  0  0  0  0  0  0  0  0  0  0
  -25.1970  -13.9060   20.4680 C   0  0  0  0  0  0  0  0  0  0  0  0
  -24.1370  -13.1320   20.8400 C   0  0  0  0  0  0  0  0  0  0  0  0
  -24.6030  -11.7780   20.8170 C   0  0  0  0  0  0  0  0  0  0  0  0
  -26.2470  -13.0310   20.2370 N   0  0  0  0  0  0  0  0  0  0  0  0
  -25.8990  -11.7460   20.5160 N   0  0  0  0  0  0  0  0  0  0  0  0
  -23.8790  -10.5160   21.0110 C   0  0  0  0  0  0  0  0  0  0  0  0
  -24.3130   -9.5540   21.9510 C   0  0  0  0  0  3  0  0  0  0  0  0
  -23.5890   -8.3560   22.1340 C   0  0  0  0  0  3  0  0  0  0  0  0
  -22.4200   -8.1100   21.3790 C   0  0  0  0  0  0  0  0  0  0  0  0
  -22.0020   -9.0600   20.4300 C   0  0  0  0  0  3  0  0  0  0  0  0
  -22.7250  -10.2500   20.2450 C   0  0  0  0  0  3  0  0  0  0  0  0
  -21.6710   -6.9600   21.4690 O   0  0  0  0  0  0  0  0  0  0  0  0
  -21.6260   -6.2210   22.6240 C   0  0  0  0  0  0  0  0  0  0  0  0
  -21.1950   -6.7780   23.8480 C   0  0  0  0  0  3  0  0  0  0  0  0
  -21.0980   -5.9660   24.9950 C   0  0  0  0  0  3  0  0  0  0  0  0
  -21.4210   -4.5970   24.9200 C   0  0  0  0  0  0  0  0  0  0  0  0
  -21.8440   -4.0390   23.6990 C   0  0  0  0  0  3  0  0  0  0  0  0
  -21.9420   -4.8490   22.5550 C   0  0  0  0  0  0  0  0  0  0  0  0
  -22.3310   -4.3030   21.3780 F   0  0  0  0  0  0  0  0  0  0  0  0
  -21.3200   -3.8150   26.0190 F   0  0  0  0  0  0  0  0  0  0  0  0
  -22.7350  -13.6010   21.1050 C   0  0  0  0  0  0  0  0  0  0  0  0
  -22.0090  -12.9080   21.9680 N   0  0  0  0  0  0  0  0  0  0  0  0
  -22.2960  -14.6240   20.5750 O   0  0  0  0  0  0  0  0  0  0  0  0
  -22.3780  -12.0790   22.4140 H   0  0  0  0  0  0  0  0  0  0  0  0
  -21.0720  -13.2090   22.1940 H   0  0  0  0  0  0  0  0  0  0  0  0
  -25.3590  -15.2770   20.2760 N   0  0  0  0  0  0  0  0  0  0  0  0
  -24.5800  -15.9260   20.3700 H   0  0  0  0  0  0  0  0  0  0  0  0
  -26.1730  -15.6910   19.8440 H   0  0  0  0  0  0  0  0  0  0  0  0
  -28.6640  -23.0240   20.7570 C   0  0  0  0  0  2  0  0  0  0  0  0
  -28.2830  -24.5010   19.9140 C   0  0  0  0  0  2  0  0  0  0  0  0
  -28.2590  -26.0460   20.3910 O   0  0  0  0  0  0  0  0  0  0  0  0
  -24.6190  -31.8780   23.2640 C   0  0  0  0  0  0  0  0  0  0  0  0
  -27.2130  -27.0730   20.2620 C   0  0  0  0  0  0  0  0  0  0  0  0
  -23.4290  -30.4760   21.6160 C   0  0  0  0  0  3  0  0  0  0  0  0
  -24.8930  -28.8870   20.2020 C   0  0  0  0  0  0  0  0  0  0  0  0
  -26.0050  -30.7060   21.4950 C   0  0  0  0  0  2  0  0  0  0  0  0
  -26.0740  -29.3200   20.8150 C   0  0  0  0  0  0  0  0  0  0  0  0
  -27.2340  -28.4380   20.8090 C   0  0  0  0  0  3  0  0  0  0  0  0
  -25.9950  -26.7590   19.6240 C   0  0  0  0  0  3  0  0  0  0  0  0
  -24.8750  -27.6260   19.5830 C   0  0  0  0  0  3  0  0  0  0  0  0
  -23.6620  -29.7830   20.2450 C   0  0  0  0  0  2  0  0  0  0  0  0
  -24.7020  -31.0520   22.1710 N   0  0  0  0  0  0  0  0  0  0  0  0
  -23.5300  -32.1690   23.7820 O   0  0  0  0  0  0  0  0  0  0  0  0
  -22.7430  -29.4810   22.5840 C   0  0  0  0  0  0  0  0  0  0  0  0
  -21.4160  -29.3080   22.4490 N   0  0  0  0  0  0  0  0  0  0  0  0
  -23.4070  -28.8660   23.4220 O   0  0  0  0  0  0  0  0  0  0  0  0
  -20.9500  -29.8460   21.7320 H   0  0  0  0  0  0  0  0  0  0  0  0
  -18.0170  -28.1240   22.9470 C   0  0  0  0  0  0  0  0  0  0  0  0
  -20.5780  -28.3780   23.2130 C   0  0  0  0  0  3  0  0  0  0  0  0
  -20.6650  -26.9440   22.6390 C   0  0  0  0  0  2  0  0  0  0  0  0
  -19.5670  -26.6350   21.6170 C   0  0  0  0  0  2  0  0  0  0  0  0
  -18.1860  -26.7770   22.2640 C   0  0  0  0  0  2  0  0  0  0  0  0
  -19.1390  -28.8880   23.3720 C   0  0  0  0  0  0  0  0  0  0  0  0
  -18.9210  -30.1480   23.9660 C   0  0  0  0  0  3  0  0  0  0  0  0
  -17.6150  -30.6500   24.1330 C   0  0  0  0  0  3  0  0  0  0  0  0
  -16.5100  -29.8830   23.7240 C   0  0  0  0  0  3  0  0  0  0  0  0
  -16.7120  -28.6190   23.1420 C   0  0  0  0  0  3  0  0  0  0  0  0
  -25.8920  -32.5100   23.9040 C   0  0  0  0  0  3  0  0  0  0  0  0
  -25.5790  -33.9160   24.2150 N   0  0  0  0  0  0  0  0  0  0  0  0
  -25.9130  -34.9660   23.4500 C   0  0  0  0  0  0  0  0  0  0  0  0
  -26.5890  -34.8540   22.4240 O   0  0  0  0  0  0  0  0  0  0  0  0
  -24.9700  -34.0740   25.0030 H   0  0  0  0  0  0  0  0  0  0  0  0
  -24.1830  -36.7540   23.0740 C   0  0  0  0  0  1  0  0  0  0  0  0
  -25.4220  -36.3590   23.8930 C   0  0  0  0  0  3  0  0  0  0  0  0
  -27.5550  -37.2570   24.7170 C   0  0  0  0  0  1  0  0  0  0  0  0
  -26.4530  -37.4150   23.7710 N   0  0  0  0  0  0  0  0  0  0  0  0
  -26.0420  -38.3350   23.9120 H   0  0  0  0  0  0  0  0  0  0  0  0
  -26.3880  -31.7550   25.2050 C   0  0  1  0  0  0  0  0  0  0  0  0
  -25.2980  -31.5220   26.2760 C   0  0  0  0  0  1  0  0  0  0  0  0
  -26.9740  -30.3620   24.8700 C   0  0  0  0  0  1  0  0  0  0  0  0
  -27.5340  -32.5600   25.8620 C   0  0  0  0  0  1  0  0  0  0  0  0
  1  3  1  0
  2  4  1  0
  2  5  1  0
  4  6  1  0
  5 16  1  0
  5  1  1  0
  6 46  1  0
  6  3  1  0
  6  7  1  6
  8 16  1  0
  9 14  1  0
 10 11  1  0
 10  9  1  0
 12 11  1  0
 12 21  1  0
 12 13  1  0
 14  8  1  0
 14 13  1  0
 15  8  2  0
 16 17  1  0
 18 19  2  0
 19 38  1  0
 20 19  1  0
 20 23  1  0
 21 18  1  0
 21 22  1  0
 22 20  2  0
 23 24  1  0
 24 25  2  0
 26 29  1  0
 26 25  1  0
 27 26  2  0
 28 27  1  0
 28 23  2  0
 29 30  1  0
 30 31  1  0
 31 32  2  0
 33 32  1  0
 33 37  1  0
 34 33  2  0
 35 30  2  0
 35 34  1  0
 36 35  1  0
 38 39  1  0
 39 42  1  0
 39 41  1  0
 40 38  2  0
 43 44  1  0
 43 18  1  0
 45 43  1  0
 47 48  1  0
 47 46  1  0
 49 60  2  0
 50 48  1  0
 50 55  1  0
 51 59  1  0
 51 61  1  0
 52 58  1  0
 52 54  1  0
 53 59  1  0
 54 53  1  0
 55 54  2  0
 56 50  2  0
 57 56  1  0
 57 52  2  0
 58 51  1  0
 59 49  1  0
 61 63  2  0
 62 61  1  0
 64 62  1  0
 65 74  2  0
 65 70  1  0
 66 62  1  0
 66 70  1  0
 67 66  1  0
 68 69  1  0
 68 67  1  0
 69 65  1  0
 70 71  2  0
 71 72  1  0
 73 72  2  0
 74 73  1  0
 75 49  1  0
 75 76  1  0
 75 85  1  0
 76 79  1  0
 77 81  1  0
 77 76  1  0
 78 77  2  0
 81 80  1  0
 83 81  1  0
 83 84  1  0
 83 82  1  0
 85 88  1  1
 85 86  1  0
 87 85  1  0
M  ISO  4   8 100  16 100  47 101  48 101
M  END
>  <TORSDO>  (66) 
F 18

>  <SCORE>  (66) 
-15.423

>  <name>  (66) 
66

>  <ligand_id>  (66) 
66

>  <original_smiles>  (66) 
[H]c1c([H])c([H])c2c(c1[H])C([H])([H])C([H])([H])C([H])([H])C2([H])N([H])C(=O)C1([H])N(C(=O)C([H])(N([H])C(=O)C([H])(N([H])C([H])([H])[H])C([H])([H])[H])C(C([H])([H])[H])(C([H])([H])[H])C([H])([H])[H])C([H])([H])c2c([H])c(OC([H])([H])C([H])([H])[N+]3([H])C([H])([H])C([H])([H])C([H])(N([H])C(=O)N4C([H])([H])C([H])([H])C([H])([H])C([H])(n5nc(-c6c([H])c([H])c(Oc7c([H])c([H])c(F)c([H])c7F)c([H])c6[H])c(C(=O)N([H])[H])c5N([H])[H])C4([H])[H])C([H])([H])C3([H])[H])c([H])c([H])c2C1([H])[H]

>  <smiles>  (66) 
[H]c1c([H])c([H])c2c(c1[H])C([H])([H])C([H])([H])C([H])([H])C2([H])N([H])C(=O)C1([H])N(C(=O)C([H])(N([H])C(=O)C([H])(N([H])C([H])([H])[H])C([H])([H])[H])C(C([H])([H])[H])(C([H])([H])[H])C([H])([H])[H])C([H])([H])c2c([H])c(OC([H])([H])C([H])([H])[N+]3([H])C([H])([H])C([H])([H])C([H])(N([H])C(=O)N4C([H])([H])C([H])([H])C([H])([H])C([H])(n5nc(-c6c([H])c([H])c(Oc7c([H])c([H])c(F)c([H])c7F)c([H])c6[H])c(C(=O)N([H])[H])c5N([H])[H])C4([H])[H])C([H])([H])C3([H])[H])c([H])c([H])c2C1([H])[H]

$$$$
67:0:0
     RDKit          3D

 87 90  0  0  1  0  0  0  0  0999 V2000
  -29.2760  -21.8500   19.4900 C   0  0  0  0  0  1  0  0  0  0  0  0
  -30.2280  -22.2230   18.4250 N   0  0  0  0  0  4  0  0  0  0  0  0
  -30.4520  -21.4340   17.8450 H   0  0  0  0  0  0  0  0  0  0  0  0
  -31.0810  -22.5800   18.8190 H   0  0  0  0  0  0  0  0  0  0  0  0
  -29.8390  -22.9390   17.8360 H   0  0  0  0  0  0  0  0  0  0  0  0
  -28.5760  -23.6840   20.1030 C   0  0  0  0  0  1  0  0  0  0  0  0
  -28.5070  -25.5210   19.8450 O   0  0  0  0  0  0  0  0  0  0  0  0
  -24.7180  -31.7640   23.0190 C   0  0  0  0  0  0  0  0  0  0  0  0
  -27.4710  -26.7430   19.9160 C   0  0  0  0  0  0  0  0  0  0  0  0
  -23.5960  -30.3450   21.3570 C   0  0  0  0  0  3  0  0  0  0  0  0
  -25.1170  -28.7700   19.9140 C   0  0  0  0  0  0  0  0  0  0  0  0
  -26.1740  -30.5710   21.2430 C   0  0  0  0  0  2  0  0  0  0  0  0
  -26.3050  -29.1400   20.5550 C   0  0  0  0  0  0  0  0  0  0  0  0
  -27.4580  -28.1630   20.5130 C   0  0  0  0  0  3  0  0  0  0  0  0
  -26.2290  -26.6260   19.2280 C   0  0  0  0  0  3  0  0  0  0  0  0
  -25.1270  -27.5440   19.2240 C   0  0  0  0  0  3  0  0  0  0  0  0
  -23.8720  -29.6800   19.9750 C   0  0  0  0  0  2  0  0  0  0  0  0
  -24.8540  -30.9310   21.9260 N   0  0  0  0  0  0  0  0  0  0  0  0
  -23.6110  -32.0060   23.5310 O   0  0  0  0  0  0  0  0  0  0  0  0
  -22.9190  -29.3250   22.3130 C   0  0  0  0  0  0  0  0  0  0  0  0
  -21.5940  -29.1100   22.1870 N   0  0  0  0  0  0  0  0  0  0  0  0
  -23.6010  -28.7220   23.1440 O   0  0  0  0  0  0  0  0  0  0  0  0
  -21.0880  -29.6520   21.5000 H   0  0  0  0  0  0  0  0  0  0  0  0
  -18.2800  -27.6860   22.6590 C   0  0  0  0  0  0  0  0  0  0  0  0
  -20.8160  -28.1160   22.9410 C   0  0  0  0  0  3  0  0  0  0  0  0
  -21.0100  -26.6990   22.3530 C   0  0  0  0  0  2  0  0  0  0  0  0
  -19.9390  -26.3180   21.3260 C   0  0  0  0  0  2  0  0  0  0  0  0
  -18.5480  -26.3630   21.9610 C   0  0  0  0  0  2  0  0  0  0  0  0
  -19.3430  -28.5170   23.1040 C   0  0  0  0  0  0  0  0  0  0  0  0
  -19.0340  -29.7460   23.7230 C   0  0  0  0  0  3  0  0  0  0  0  0
  -17.6970  -30.1520   23.8980 C   0  0  0  0  0  3  0  0  0  0  0  0
  -16.6490  -29.3210   23.4640 C   0  0  0  0  0  3  0  0  0  0  0  0
  -16.9410  -28.0900   22.8520 C   0  0  0  0  0  3  0  0  0  0  0  0
  -25.9430  -32.4690   23.6780 C   0  0  0  0  0  3  0  0  0  0  0  0
  -25.5510  -33.8480   24.0400 N   0  0  0  0  0  0  0  0  0  0  0  0
  -25.8610  -34.9510   23.3460 C   0  0  0  0  0  0  0  0  0  0  0  0
  -26.5600  -34.9190   22.3310 O   0  0  0  0  0  0  0  0  0  0  0  0
  -24.9260  -33.9420   24.8280 H   0  0  0  0  0  0  0  0  0  0  0  0
  -24.0700  -36.7010   23.0410 C   0  0  0  0  0  1  0  0  0  0  0  0
  -25.3140  -36.3040   23.8530 C   0  0  0  0  0  3  0  0  0  0  0  0
  -27.3940  -37.2480   24.7600 C   0  0  0  0  0  1  0  0  0  0  0  0
  -26.3060  -37.4020   23.7980 N   0  0  0  0  0  0  0  0  0  0  0  0
  -25.8600  -38.3000   23.9660 H   0  0  0  0  0  0  0  0  0  0  0  0
  -26.4710  -31.7160   24.9620 C   0  0  1  0  0  0  0  0  0  0  0  0
  -25.3710  -31.4190   26.0100 C   0  0  0  0  0  1  0  0  0  0  0  0
  -27.1260  -30.3680   24.5880 C   0  0  0  0  0  1  0  0  0  0  0  0
  -27.5720  -32.5600   25.6480 C   0  0  0  0  0  1  0  0  0  0  0  0
  -29.9710  -19.9990   20.0700 C   0  0  0  0  0  1  0  0  0  0  0  0
  -30.2740  -21.1490   22.3820 C   0  0  0  0  0  1  0  0  0  0  0  0
  -29.7160  -19.9590   21.5900 C   0  0  0  0  0  2  0  0  0  0  0  0
  -29.9350  -17.9890   19.6660 C   0  0  0  0  0 15  0  0  0  0  0  0
  -30.6800  -16.1810   19.9060 C   0  0  0  0  0  2  0  0  0  0  0  0
  -30.8150  -13.5550   19.1670 C   0  0  0  0  0  2  0  0  0  0  0  0
  -29.9190  -13.0370   17.9950 C   0  0  0  0  0  2  0  0  0  0  0  0
  -28.5100  -12.6640   18.4830 C   0  0  0  0  0  2  0  0  0  0  0  0
  -27.9980  -13.7010   19.5050 C   0  0  0  0  0  3  0  0  0  0  0  0
  -29.0400  -14.1090   20.5760 C   0  0  0  0  0  2  0  0  0  0  0  0
  -30.1810  -14.7730   19.8810 N   0  0  0  0  0  0  0  0  0  0  0  0
  -31.9200  -16.0320   19.8120 O   0  0  0  0  0  1  0  0  0  0  0  0
  -25.6880  -14.2490   20.3850 C   0  0  0  0  0  0  0  0  0  0  0  0
  -24.6220  -13.4830   20.7610 C   0  0  0  0  0  0  0  0  0  0  0  0
  -25.0550  -12.1240   20.6670 C   0  0  0  0  0  0  0  0  0  0  0  0
  -26.6990  -13.3630   20.0710 N   0  0  0  0  0  0  0  0  0  0  0  0
  -26.3380  -12.0730   20.3080 N   0  0  0  0  0  0  0  0  0  0  0  0
  -24.2970  -10.8760   20.8380 C   0  0  0  0  0  0  0  0  0  0  0  0
  -24.6760   -9.9030   21.7900 C   0  0  0  0  0  3  0  0  0  0  0  0
  -23.9150   -8.7240   21.9540 C   0  0  0  0  0  3  0  0  0  0  0  0
  -22.7590   -8.5100   21.1640 C   0  0  0  0  0  0  0  0  0  0  0  0
  -22.3980   -9.4700   20.2040 C   0  0  0  0  0  3  0  0  0  0  0  0
  -23.1600  -10.6400   20.0380 C   0  0  0  0  0  3  0  0  0  0  0  0
  -21.9740   -7.3840   21.2360 O   0  0  0  0  0  0  0  0  0  0  0  0
  -21.8110   -6.6910   22.4090 C   0  0  0  0  0  0  0  0  0  0  0  0
  -21.2610   -7.2960   23.5610 C   0  0  0  0  0  3  0  0  0  0  0  0
  -21.0460   -6.5300   24.7240 C   0  0  0  0  0  3  0  0  0  0  0  0
  -21.3730   -5.1610   24.7350 C   0  0  0  0  0  0  0  0  0  0  0  0
  -21.9150   -4.5560   23.5870 C   0  0  0  0  0  3  0  0  0  0  0  0
  -22.1300   -5.3190   22.4270 C   0  0  0  0  0  0  0  0  0  0  0  0
  -22.6330   -4.7260   21.3160 F   0  0  0  0  0  0  0  0  0  0  0  0
  -21.1600   -4.4230   25.8490 F   0  0  0  0  0  0  0  0  0  0  0  0
  -23.2460  -13.9870   21.0850 C   0  0  0  0  0  0  0  0  0  0  0  0
  -22.5290  -13.2930   21.9600 N   0  0  0  0  0  0  0  0  0  0  0  0
  -22.8210  -15.0340   20.5980 O   0  0  0  0  0  0  0  0  0  0  0  0
  -22.8890  -12.4460   22.3750 H   0  0  0  0  0  0  0  0  0  0  0  0
  -21.6070  -13.6110   22.2180 H   0  0  0  0  0  0  0  0  0  0  0  0
  -25.8770  -15.6210   20.2490 N   0  0  0  0  0  0  0  0  0  0  0  0
  -25.1330  -16.2900   20.4170 H   0  0  0  0  0  0  0  0  0  0  0  0
  -26.7280  -16.0530   19.9110 H   0  0  0  0  0  0  0  0  0  0  0  0
  2  4  1  0
  2  1  1  0
  3  2  1  0
  5  2  1  0
  7  9  1  0
  7  6  1  0
  8 19  2  0
  9 14  1  0
 10 18  1  0
 10 20  1  0
 11 17  1  0
 11 13  1  0
 12 18  1  0
 13 12  1  0
 14 13  2  0
 15  9  2  0
 16 15  1  0
 16 11  2  0
 17 10  1  0
 18  8  1  0
 20 22  2  0
 21 20  1  0
 23 21  1  0
 24 33  2  0
 24 29  1  0
 25 21  1  0
 25 29  1  0
 26 25  1  0
 27 28  1  0
 27 26  1  0
 28 24  1  0
 29 30  2  0
 30 31  1  0
 32 31  2  0
 33 32  1  0
 34  8  1  0
 34 35  1  0
 34 44  1  0
 35 38  1  0
 36 40  1  0
 36 35  1  0
 37 36  2  0
 40 39  1  0
 42 40  1  0
 42 43  1  0
 42 41  1  0
 44 47  1  1
 44 45  1  0
 46 44  1  0
 48 50  1  0
 50 49  1  0
 53 58  1  0
 54 55  1  0
 54 53  1  0
 56 55  1  0
 56 63  1  0
 56 57  1  0
 58 52  1  0
 58 57  1  0
 59 52  1  0
 60 61  2  0
 61 80  1  0
 62 61  1  0
 62 65  1  0
 63 64  1  0
 63 60  1  0
 64 62  2  0
 65 66  1  0
 66 67  2  0
 68 71  1  0
 68 67  1  0
 69 68  2  0
 70 69  1  0
 70 65  2  0
 71 72  1  0
 72 77  2  0
 72 73  1  0
 73 74  2  0
 74 75  1  0
 75 79  1  0
 76 75  2  0
 77 76  1  0
 78 77  1  0
 80 81  1  0
 81 84  1  0
 81 83  1  0
 82 80  2  0
 85 60  1  0
 85 86  1  0
 87 85  1  0
M  ISO  4   6 101   7 101  51 100  52 100
M  END
>  <TORSDO>  (67) 
F 21

>  <SCORE>  (67) 
-15.101

>  <name>  (67) 
67

>  <ligand_id>  (67) 
67

>  <original_smiles>  (67) 
[H]c1c([H])c([H])c2c(c1[H])C([H])([H])C([H])([H])C([H])([H])C2([H])N([H])C(=O)C1([H])N(C(=O)C([H])(N([H])C(=O)C([H])(N([H])C([H])([H])[H])C([H])([H])[H])C(C([H])([H])[H])(C([H])([H])[H])C([H])([H])[H])C([H])([H])c2c([H])c(OC([H])([H])C([H])(C([H])(C([H])([H])C(=O)N3C([H])([H])C([H])([H])C([H])([H])C([H])(n4nc(-c5c([H])c([H])c(Oc6c([H])c([H])c(F)c([H])c6F)c([H])c5[H])c(C(=O)N([H])[H])c4N([H])[H])C3([H])[H])C([H])([H])C([H])([H])[H])[N+]([H])([H])[H])c([H])c([H])c2C1([H])[H]

>  <smiles>  (67) 
[H]c1c([H])c([H])c2c(c1[H])C([H])([H])C([H])([H])C([H])([H])C2([H])N([H])C(=O)C1([H])N(C(=O)C([H])(N([H])C(=O)C([H])(N([H])C([H])([H])[H])C([H])([H])[H])C(C([H])([H])[H])(C([H])([H])[H])C([H])([H])[H])C([H])([H])c2c([H])c(OC([H])([H])C([H])(C([H])(C([H])([H])C(=O)N3C([H])([H])C([H])([H])C([H])([H])C([H])(n4nc(-c5c([H])c([H])c(Oc6c([H])c([H])c(F)c([H])c6F)c([H])c5[H])c(C(=O)N([H])[H])c4N([H])[H])C3([H])[H])C([H])([H])C([H])([H])[H])[N+]([H])([H])[H])c([H])c([H])c2C1([H])[H]

$$$$
68:0:0
     RDKit          3D

 87 96  0  0  1  0  0  0  0  0999 V2000
  -30.2920  -15.8420   20.2730 C   0  0  0  0  0  0  0  0  0  0  0  0
  -30.4170  -13.2540   19.4950 C   0  0  0  0  0  2  0  0  0  0  0  0
  -29.5670  -12.7380   18.2960 C   0  0  0  0  0  2  0  0  0  0  0  0
  -28.1550  -12.3470   18.7510 C   0  0  0  0  0  2  0  0  0  0  0  0
  -27.6000  -13.3750   19.7610 C   0  0  0  0  0  3  0  0  0  0  0  0
  -28.6030  -13.7970   20.8660 C   0  0  0  0  0  2  0  0  0  0  0  0
  -29.7460  -14.4650   20.1870 N   0  0  0  0  0  0  0  0  0  0  0  0
  -31.5290  -15.6910   20.1510 O   0  0  0  0  0  0  0  0  0  0  0  0
  -30.3640  -21.8070   20.1540 C   0  0  0  0  0  2  0  0  0  0  0  0
  -29.8280  -23.2170   20.1460 C   0  0  0  0  0  3  0  0  0  0  0  0
  -27.7450  -22.3850   20.2000 C   0  0  0  0  0  3  0  0  0  0  0  0
  -29.6670  -20.5120   20.1880 C   0  0  0  0  0  0  0  0  0  0  0  0
  -28.2950  -20.8850   20.2150 C   0  0  0  0  0  0  0  0  0  0  0  0
  -28.4600  -23.7760   20.1640 C   0  0  0  0  0  0  0  0  0  0  0  0
  -27.5740  -19.4340   20.1670 C   0  0  0  0  0  3  0  0  0  0  0  0
  -30.3180  -18.8580   20.1470 C   0  0  0  0  0  3  0  0  0  0  0  0
  -28.2420  -17.8930   20.5690 C   0  0  0  0  0  3  0  0  0  0  0  0
  -29.6620  -17.3220   20.2640 N   0  0  0  0  0  0  0  0  0  0  0  0
  -25.2300  -13.8750   20.5010 C   0  0  0  0  0  0  0  0  0  0  0  0
  -24.1770  -13.0850   20.8610 C   0  0  0  0  0  0  0  0  0  0  0  0
  -24.6650  -11.7410   20.8480 C   0  0  0  0  0  0  0  0  0  0  0  0
  -26.2890  -13.0170   20.2780 N   0  0  0  0  0  0  0  0  0  0  0  0
  -25.9640  -11.7250   20.5530 N   0  0  0  0  0  0  0  0  0  0  0  0
  -23.9490  -10.4720   21.0380 C   0  0  0  0  0  0  0  0  0  0  0  0
  -24.3710   -9.5170   21.9890 C   0  0  0  0  0  3  0  0  0  0  0  0
  -23.6480   -8.3190   22.1700 C   0  0  0  0  0  3  0  0  0  0  0  0
  -22.4890   -8.0640   21.4000 C   0  0  0  0  0  0  0  0  0  0  0  0
  -22.0850   -9.0080   20.4380 C   0  0  0  0  0  3  0  0  0  0  0  0
  -22.8080  -10.1970   20.2560 C   0  0  0  0  0  3  0  0  0  0  0  0
  -21.7390   -6.9160   21.4890 O   0  0  0  0  0  0  0  0  0  0  0  0
  -21.6690   -6.1900   22.6520 C   0  0  0  0  0  0  0  0  0  0  0  0
  -21.2010   -6.7570   23.8570 C   0  0  0  0  0  3  0  0  0  0  0  0
  -21.0800   -5.9590   25.0100 C   0  0  0  0  0  3  0  0  0  0  0  0
  -21.4150   -4.5920   24.9600 C   0  0  0  0  0  0  0  0  0  0  0  0
  -21.8770   -4.0240   23.7590 C   0  0  0  0  0  3  0  0  0  0  0  0
  -21.9990   -4.8210   22.6080 C   0  0  0  0  0  0  0  0  0  0  0  0
  -22.4240   -4.2630   21.4480 F   0  0  0  0  0  0  0  0  0  0  0  0
  -21.2920   -3.8220   26.0660 F   0  0  0  0  0  0  0  0  0  0  0  0
  -22.7710  -13.5470   21.0990 C   0  0  0  0  0  0  0  0  0  0  0  0
  -22.0390  -12.8630   21.9700 N   0  0  0  0  0  0  0  0  0  0  0  0
  -22.3300  -14.5560   20.5480 O   0  0  0  0  0  0  0  0  0  0  0  0
  -22.4110  -12.0490   22.4370 H   0  0  0  0  0  0  0  0  0  0  0  0
  -21.0950  -13.1570   22.1750 H   0  0  0  0  0  0  0  0  0  0  0  0
  -25.3720  -15.2450   20.3080 N   0  0  0  0  0  0  0  0  0  0  0  0
  -24.5890  -15.8850   20.3950 H   0  0  0  0  0  0  0  0  0  0  0  0
  -26.2110  -15.6870   19.9610 H   0  0  0  0  0  0  0  0  0  0  0  0
  -28.2330  -25.4270   20.1620 O   0  0  0  0  0  0  0  0  0  0  0  0
  -24.6900  -31.8170   23.0990 C   0  0  0  0  0  0  0  0  0  0  0  0
  -27.2120  -26.6370   20.1440 C   0  0  0  0  0  0  0  0  0  0  0  0
  -23.5110  -30.4180   21.4580 C   0  0  0  0  0  3  0  0  0  0  0  0
  -24.9590  -28.7390   20.0640 C   0  0  0  0  0  0  0  0  0  0  0  0
  -26.0930  -30.5220   21.3640 C   0  0  0  0  0  2  0  0  0  0  0  0
  -26.1510  -29.0750   20.7130 C   0  0  0  0  0  0  0  0  0  0  0  0
  -27.2540  -28.0540   20.7190 C   0  0  0  0  0  3  0  0  0  0  0  0
  -25.9880  -26.5380   19.4290 C   0  0  0  0  0  3  0  0  0  0  0  0
  -24.9220  -27.4990   19.3990 C   0  0  0  0  0  3  0  0  0  0  0  0
  -23.7600  -29.7080   20.0940 C   0  0  0  0  0  2  0  0  0  0  0  0
  -24.7890  -30.9550   22.0260 N   0  0  0  0  0  0  0  0  0  0  0  0
  -23.5940  -32.1250   23.5990 O   0  0  0  0  0  0  0  0  0  0  0  0
  -22.7780  -29.4520   22.4300 C   0  0  0  0  0  0  0  0  0  0  0  0
  -21.4410  -29.3280   22.3170 N   0  0  0  0  0  0  0  0  0  0  0  0
  -23.4260  -28.8110   23.2610 O   0  0  0  0  0  0  0  0  0  0  0  0
  -20.9660  -29.8950   21.6280 H   0  0  0  0  0  0  0  0  0  0  0  0
  -18.0310  -28.1970   22.8820 C   0  0  0  0  0  0  0  0  0  0  0  0
  -20.6030  -28.4000   23.0900 C   0  0  0  0  0  3  0  0  0  0  0  0
  -20.6540  -26.9760   22.4880 C   0  0  0  0  0  2  0  0  0  0  0  0
  -19.5240  -26.7010   21.4910 C   0  0  0  0  0  2  0  0  0  0  0  0
  -18.1600  -26.8620   22.1690 C   0  0  0  0  0  2  0  0  0  0  0  0
  -19.1770  -28.9270   23.2990 C   0  0  0  0  0  0  0  0  0  0  0  0
  -18.9980  -30.1750   23.9330 C   0  0  0  0  0  3  0  0  0  0  0  0
  -17.7070  -30.6950   24.1490 C   0  0  0  0  0  3  0  0  0  0  0  0
  -16.5770  -29.9650   23.7430 C   0  0  0  0  0  3  0  0  0  0  0  0
  -16.7400  -28.7170   23.1160 C   0  0  0  0  0  3  0  0  0  0  0  0
  -25.9470  -32.4700   23.7490 C   0  0  0  0  0  3  0  0  0  0  0  0
  -25.6110  -33.8610   24.1180 N   0  0  0  0  0  0  0  0  0  0  0  0
  -25.9260  -34.9500   23.4040 C   0  0  0  0  0  0  0  0  0  0  0  0
  -26.5850  -34.8910   22.3640 O   0  0  0  0  0  0  0  0  0  0  0  0
  -25.0190  -33.9780   24.9270 H   0  0  0  0  0  0  0  0  0  0  0  0
  -24.1750  -36.7480   23.1530 C   0  0  0  0  0  1  0  0  0  0  0  0
  -25.4370  -36.3210   23.9220 C   0  0  0  0  0  3  0  0  0  0  0  0
  -27.5780  -37.2070   24.7410 C   0  0  0  0  0  1  0  0  0  0  0  0
  -26.4550  -37.3910   23.8250 N   0  0  0  0  0  0  0  0  0  0  0  0
  -26.0410  -38.3000   24.0110 H   0  0  0  0  0  0  0  0  0  0  0  0
  -26.4560  -31.6930   25.0280 C   0  0  1  0  0  0  0  0  0  0  0  0
  -25.3540  -31.4430   26.0860 C   0  0  0  0  0  1  0  0  0  0  0  0
  -27.0480  -30.3180   24.6450 C   0  0  0  0  0  1  0  0  0  0  0  0
  -27.5980  -32.4860   25.7050 C   0  0  0  0  0  1  0  0  0  0  0  0
  2  7  1  0
  3  4  1  0
  3  2  1  0
  5  4  1  0
  5 22  1  0
  5  6  1  0
  7  1  1  0
  7  6  1  0
  8  1  2  0
  9 12  1  0
 10  9  1  0
 10 14  2  0
 11 13  2  0
 12 13  1  0
 14 11  1  0
 15 13  1  0
 15 17  2  0
 16 12  2  0
 16 18  1  0
 18  1  1  0
 18 17  1  0
 19 20  2  0
 20 39  1  0
 21 20  1  0
 21 24  1  0
 22 19  1  0
 22 23  1  0
 23 21  2  0
 24 25  1  0
 25 26  2  0
 27 30  1  0
 27 26  1  0
 28 27  2  0
 29 28  1  0
 29 24  2  0
 30 31  1  0
 31 32  1  0
 32 33  2  0
 34 33  1  0
 34 38  1  0
 35 34  2  0
 36 31  2  0
 36 35  1  0
 37 36  1  0
 39 40  1  0
 40 43  1  0
 40 42  1  0
 41 39  2  0
 44 45  1  0
 44 19  1  0
 46 44  1  0
 47 14  1  0
 48 59  2  0
 49 47  1  0
 49 54  1  0
 50 58  1  0
 50 60  1  0
 51 57  1  0
 51 53  1  0
 52 58  1  0
 53 54  2  0
 53 52  1  0
 55 49  2  0
 56 55  1  0
 56 51  2  0
 57 50  1  0
 58 48  1  0
 60 62  2  0
 61 60  1  0
 63 61  1  0
 64 73  2  0
 64 69  1  0
 65 61  1  0
 65 69  1  0
 66 65  1  0
 67 68  1  0
 67 66  1  0
 68 64  1  0
 69 70  2  0
 70 71  1  0
 72 71  2  0
 73 72  1  0
 74 48  1  0
 74 75  1  0
 74 84  1  0
 75 78  1  0
 76 80  1  0
 76 75  1  0
 77 76  2  0
 80 79  1  0
 82 80  1  0
 82 83  1  0
 82 81  1  0
 84 87  1  1
 84 85  1  0
 86 84  1  0
M  ISO  4   1 100  14 101  18 100  47 101
M  END
>  <TORSDO>  (68) 
F 15

>  <SCORE>  (68) 
-16.379

>  <name>  (68) 
68

>  <ligand_id>  (68) 
68

>  <original_smiles>  (68) 
[H]c1c([H])c([H])c2c(c1[H])C([H])([H])C([H])([H])C([H])([H])C2([H])N([H])C(=O)C1([H])N(C(=O)C([H])(N([H])C(=O)C([H])(N([H])C([H])([H])[H])C([H])([H])[H])C(C([H])([H])[H])(C([H])([H])[H])C([H])([H])[H])C([H])([H])c2c([H])c(Oc3c([H])c([H])c4c(c3[H])C([H])([H])C([H])([H])N(C(=O)N3C([H])([H])C([H])([H])C([H])([H])C([H])(n5nc(-c6c([H])c([H])c(Oc7c([H])c([H])c(F)c([H])c7F)c([H])c6[H])c(C(=O)N([H])[H])c5N([H])[H])C3([H])[H])C4([H])[H])c([H])c([H])c2C1([H])[H]

>  <smiles>  (68) 
[H]c1c([H])c([H])c2c(c1[H])C([H])([H])C([H])([H])C([H])([H])C2([H])N([H])C(=O)C1([H])N(C(=O)C([H])(N([H])C(=O)C([H])(N([H])C([H])([H])[H])C([H])([H])[H])C(C([H])([H])[H])(C([H])([H])[H])C([H])([H])[H])C([H])([H])c2c([H])c(Oc3c([H])c([H])c4c(c3[H])C([H])([H])C([H])([H])N(C(=O)N3C([H])([H])C([H])([H])C([H])([H])C([H])(n5nc(-c6c([H])c([H])c(Oc7c([H])c([H])c(F)c([H])c7F)c([H])c6[H])c(C(=O)N([H])[H])c5N([H])[H])C3([H])[H])C4([H])[H])c([H])c([H])c2C1([H])[H]

$$$$
69:0:0
     RDKit          3D

 89 97  0  0  1  0  0  0  0  0999 V2000
  -31.5320  -18.8580   19.5460 C   0  0  0  0  0  2  0  0  0  0  0  0
  -31.3510  -17.7220   20.6550 C   0  0  0  0  0  2  0  0  0  0  0  0
  -29.0020  -17.6660   20.1410 C   0  0  0  0  0  2  0  0  0  0  0  0
  -30.4450  -19.8940   18.9840 C   0  0  0  0  0  2  0  0  0  0  0  0
  -28.8870  -19.2460   20.7230 C   0  0  0  0  0  2  0  0  0  0  0  0
  -30.1740  -16.6450   20.6540 C   0  0  2  0  0  0  0  0  0  0  0  0
  -29.8690  -16.3220   22.1400 C   0  0  0  0  0  1  0  0  0  0  0  0
  -29.3510  -20.4500   19.8610 N   0  0  1  0  0  4  0  0  0  0  0  0
  -28.5990  -20.5740   19.1990 H   0  0  0  0  0  0  0  0  0  0  0  0
  -30.6460  -15.1500   19.9770 C   0  0  0  0  0  0  0  0  0  0  0  0
  -30.4280  -12.8100   18.9740 C   0  0  0  0  0  2  0  0  0  0  0  0
  -29.4300  -12.7980   17.7930 C   0  0  0  0  0  2  0  0  0  0  0  0
  -27.9970  -12.5660   18.3020 C   0  0  0  0  0  2  0  0  0  0  0  0
  -27.6660  -13.4510   19.5300 C   0  0  0  0  0  3  0  0  0  0  0  0
  -28.7860  -13.4330   20.5900 C   0  0  0  0  0  2  0  0  0  0  0  0
  -30.0210  -13.8900   19.9370 N   0  0  0  0  0  0  0  0  0  0  0  0
  -31.7650  -15.1490   19.4510 O   0  0  0  0  0  0  0  0  0  0  0  0
  -25.3400  -13.9970   20.4390 C   0  0  0  0  0  0  0  0  0  0  0  0
  -24.3020  -13.2090   20.8530 C   0  0  0  0  0  0  0  0  0  0  0  0
  -24.7630  -11.8600   20.7500 C   0  0  0  0  0  0  0  0  0  0  0  0
  -26.3640  -13.1300   20.1030 N   0  0  0  0  0  0  0  0  0  0  0  0
  -26.0310  -11.8370   20.3550 N   0  0  0  0  0  0  0  0  0  0  0  0
  -24.0480  -10.5920   20.9460 C   0  0  0  0  0  0  0  0  0  0  0  0
  -24.5010   -9.6220   21.8670 C   0  0  0  0  0  3  0  0  0  0  0  0
  -23.7830   -8.4210   22.0540 C   0  0  0  0  0  3  0  0  0  0  0  0
  -22.5980   -8.1810   21.3190 C   0  0  0  0  0  0  0  0  0  0  0  0
  -22.1640   -9.1390   20.3870 C   0  0  0  0  0  3  0  0  0  0  0  0
  -22.8820  -10.3320   20.1980 C   0  0  0  0  0  3  0  0  0  0  0  0
  -21.8510   -7.0310   21.4150 O   0  0  0  0  0  0  0  0  0  0  0  0
  -21.7830   -6.3120   22.5810 C   0  0  0  0  0  0  0  0  0  0  0  0
  -21.2740   -6.8720   23.7730 C   0  0  0  0  0  3  0  0  0  0  0  0
  -21.1570   -6.0760   24.9300 C   0  0  0  0  0  3  0  0  0  0  0  0
  -21.5390   -4.7220   24.8960 C   0  0  0  0  0  0  0  0  0  0  0  0
  -22.0410   -4.1610   23.7080 C   0  0  0  0  0  3  0  0  0  0  0  0
  -22.1590   -4.9540   22.5530 C   0  0  0  0  0  0  0  0  0  0  0  0
  -22.6230   -4.4030   21.4060 F   0  0  0  0  0  0  0  0  0  0  0  0
  -21.4200   -3.9550   26.0060 F   0  0  0  0  0  0  0  0  0  0  0  0
  -22.9260  -13.6770   21.2250 C   0  0  0  0  0  0  0  0  0  0  0  0
  -22.2520  -12.9540   22.1130 N   0  0  0  0  0  0  0  0  0  0  0  0
  -22.4590  -14.7180   20.7660 O   0  0  0  0  0  0  0  0  0  0  0  0
  -22.6450  -12.1110   22.5060 H   0  0  0  0  0  0  0  0  0  0  0  0
  -21.3300  -13.2480   22.4040 H   0  0  0  0  0  0  0  0  0  0  0  0
  -25.4920  -15.3720   20.2940 N   0  0  0  0  0  0  0  0  0  0  0  0
  -24.7330  -16.0210   20.4720 H   0  0  0  0  0  0  0  0  0  0  0  0
  -26.3120  -15.8170   19.9030 H   0  0  0  0  0  0  0  0  0  0  0  0
  -29.5790  -21.9630   20.3800 C   0  0  0  0  0  2  0  0  0  0  0  0
  -28.4880  -23.2810   20.4120 C   0  0  0  0  0  2  0  0  0  0  0  0
  -28.7210  -24.8860   19.8600 C   0  0  0  0  0  2  0  0  0  0  0  0
  -28.5220  -26.3210   20.4700 O   0  0  0  0  0  0  0  0  0  0  0  0
  -24.7140  -31.9620   23.2740 C   0  0  0  0  0  0  0  0  0  0  0  0
  -27.4370  -27.2660   20.3110 C   0  0  0  0  0  0  0  0  0  0  0  0
  -23.5700  -30.5330   21.6210 C   0  0  0  0  0  3  0  0  0  0  0  0
  -25.0740  -28.9750   20.2220 C   0  0  0  0  0  0  0  0  0  0  0  0
  -26.1190  -30.8440   21.4990 C   0  0  0  0  0  2  0  0  0  0  0  0
  -26.2300  -29.4470   20.8540 C   0  0  0  0  0  0  0  0  0  0  0  0
  -27.4060  -28.6070   20.8840 C   0  0  0  0  0  3  0  0  0  0  0  0
  -26.2570  -26.8970   19.6340 C   0  0  0  0  0  3  0  0  0  0  0  0
  -25.1020  -27.7150   19.5970 C   0  0  0  0  0  3  0  0  0  0  0  0
  -23.8270  -29.8490   20.2490 C   0  0  0  0  0  2  0  0  0  0  0  0
  -24.8200  -31.1370   22.1860 N   0  0  0  0  0  0  0  0  0  0  0  0
  -23.6130  -32.2280   23.7820 O   0  0  0  0  0  0  0  0  0  0  0  0
  -22.8940  -29.5210   22.5800 C   0  0  0  0  0  0  0  0  0  0  0  0
  -21.5730  -29.3190   22.4280 N   0  0  0  0  0  0  0  0  0  0  0  0
  -23.5620  -28.9200   23.4240 O   0  0  0  0  0  0  0  0  0  0  0  0
  -21.0880  -29.8570   21.7220 H   0  0  0  0  0  0  0  0  0  0  0  0
  -18.2110  -28.0440   22.8720 C   0  0  0  0  0  0  0  0  0  0  0  0
  -20.7570  -28.3690   23.1890 C   0  0  0  0  0  3  0  0  0  0  0  0
  -20.9040  -26.9350   22.6290 C   0  0  0  0  0  2  0  0  0  0  0  0
  -19.8310  -26.5790   21.5940 C   0  0  0  0  0  2  0  0  0  0  0  0
  -18.4330  -26.6950   22.2080 C   0  0  0  0  0  2  0  0  0  0  0  0
  -19.3020  -28.8360   23.3180 C   0  0  0  0  0  0  0  0  0  0  0  0
  -19.0390  -30.0950   23.8990 C   0  0  0  0  0  3  0  0  0  0  0  0
  -17.7190  -30.5640   24.0380 C   0  0  0  0  0  3  0  0  0  0  0  0
  -16.6430  -29.7700   23.6070 C   0  0  0  0  0  3  0  0  0  0  0  0
  -16.8890  -28.5110   23.0300 C   0  0  0  0  0  3  0  0  0  0  0  0
  -25.9680  -32.6270   23.9190 C   0  0  0  0  0  3  0  0  0  0  0  0
  -26.4580  -31.8890   25.2280 C   0  0  1  0  0  0  0  0  0  0  0  0
  -25.3350  -31.6460   26.2630 C   0  0  0  0  0  1  0  0  0  0  0  0
  -27.0810  -30.5170   24.8840 C   0  0  0  0  0  1  0  0  0  0  0  0
  -27.5690  -32.7190   25.9110 C   0  0  0  0  0  1  0  0  0  0  0  0
  -25.6280  -34.0270   24.2210 N   0  0  0  0  0  0  0  0  0  0  0  0
  -25.9400  -35.0740   23.4450 C   0  0  0  0  0  0  0  0  0  0  0  0
  -26.6080  -34.9640   22.4140 O   0  0  0  0  0  0  0  0  0  0  0  0
  -25.0310  -34.1840   25.0190 H   0  0  0  0  0  0  0  0  0  0  0  0
  -24.1690  -36.8260   23.0810 C   0  0  0  0  0  1  0  0  0  0  0  0
  -25.4320  -36.4640   23.8810 C   0  0  0  0  0  3  0  0  0  0  0  0
  -27.5520  -37.4220   24.6680 C   0  0  0  0  0  1  0  0  0  0  0  0
  -26.4390  -37.5350   23.7280 N   0  0  0  0  0  0  0  0  0  0  0  0
  -26.0140  -38.4510   23.8490 H   0  0  0  0  0  0  0  0  0  0  0  0
  1  2  1  0
  3  6  1  0
  3  5  1  0
  4  1  1  0
  4  8  1  0
  6  2  1  0
  6  7  1  1
  8 46  1  0
  8  5  1  0
  8  9  1  6
 10  6  1  0
 11 16  1  0
 12 13  1  0
 12 11  1  0
 14 13  1  0
 14 21  1  0
 14 15  1  0
 16 10  1  0
 16 15  1  0
 17 10  2  0
 18 19  2  0
 19 38  1  0
 20 19  1  0
 20 23  1  0
 21 22  1  0
 21 18  1  0
 22 20  2  0
 23 24  1  0
 24 25  2  0
 26 29  1  0
 26 25  1  0
 27 26  2  0
 28 27  1  0
 28 23  2  0
 29 30  1  0
 30 31  1  0
 31 32  2  0
 33 32  1  0
 33 37  1  0
 34 33  2  0
 35 30  2  0
 35 34  1  0
 36 35  1  0
 38 39  1  0
 39 42  1  0
 39 41  1  0
 40 38  2  0
 43 18  1  0
 43 44  1  0
 45 43  1  0
 46 47  1  0
 48 47  1  0
 48 49  1  0
 50 61  2  0
 51 49  1  0
 51 56  1  0
 52 60  1  0
 52 62  1  0
 53 59  1  0
 53 55  1  0
 54 60  1  0
 55 56  2  0
 55 54  1  0
 57 51  2  0
 58 57  1  0
 58 53  2  0
 59 52  1  0
 60 50  1  0
 62 64  2  0
 63 62  1  0
 65 63  1  0
 66 75  2  0
 66 71  1  0
 67 63  1  0
 67 71  1  0
 68 67  1  0
 69 70  1  0
 69 68  1  0
 70 66  1  0
 71 72  2  0
 72 73  1  0
 74 73  2  0
 75 74  1  0
 76 50  1  0
 76 81  1  0
 76 77  1  0
 77 80  1  1
 77 78  1  0
 79 77  1  0
 81 84  1  0
 82 86  1  0
 82 81  1  0
 83 82  2  0
 86 85  1  0
 88 89  1  0
 88 86  1  0
 88 87  1  0
M  ISO  4   6 100  10 100  48 101  49 101
M  END
>  <TORSDO>  (69) 
F 19

>  <SCORE>  (69) 
-15.404

>  <name>  (69) 
69

>  <ligand_id>  (69) 
69

>  <original_smiles>  (69) 
[H]c1c([H])c([H])c2c(c1[H])C([H])([H])C([H])([H])C([H])([H])C2([H])N([H])C(=O)C1([H])N(C(=O)C([H])(N([H])C(=O)C([H])(N([H])C([H])([H])[H])C([H])([H])[H])C(C([H])([H])[H])(C([H])([H])[H])C([H])([H])[H])C([H])([H])c2c([H])c(OC([H])([H])C([H])([H])C([H])([H])[N+]3([H])C([H])([H])C([H])([H])C([H])([H])C(C(=O)N4C([H])([H])C([H])([H])C([H])([H])C([H])(n5nc(-c6c([H])c([H])c(Oc7c([H])c([H])c(F)c([H])c7F)c([H])c6[H])c(C(=O)N([H])[H])c5N([H])[H])C4([H])[H])(C([H])([H])[H])C([H])([H])C3([H])[H])c([H])c([H])c2C1([H])[H]

>  <smiles>  (69) 
[H]c1c([H])c([H])c2c(c1[H])C([H])([H])C([H])([H])C([H])([H])C2([H])N([H])C(=O)C1([H])N(C(=O)C([H])(N([H])C(=O)C([H])(N([H])C([H])([H])[H])C([H])([H])[H])C(C([H])([H])[H])(C([H])([H])[H])C([H])([H])[H])C([H])([H])c2c([H])c(OC([H])([H])C([H])([H])C([H])([H])[N+]3([H])C([H])([H])C([H])([H])C([H])([H])C(C(=O)N4C([H])([H])C([H])([H])C([H])([H])C([H])(n5nc(-c6c([H])c([H])c(Oc7c([H])c([H])c(F)c([H])c7F)c([H])c6[H])c(C(=O)N([H])[H])c5N([H])[H])C4([H])[H])(C([H])([H])[H])C([H])([H])C3([H])[H])c([H])c([H])c2C1([H])[H]

$$$$
70:0:0
     RDKit          3D

 87 94  0  0  1  0  0  0  0  0999 V2000
  -29.0220  -22.5490   20.8820 C   0  0  0  0  0  2  0  0  0  0  0  0
  -29.3560  -21.1790   20.1240 C   0  0  0  0  0  3  0  0  0  0  0  0
  -29.6340  -19.8820   21.0130 C   0  0  0  0  0  3  0  0  0  0  0  0
  -30.0470  -17.3250   20.8800 C   0  0  0  0  0  0  0  0  0  0  0  0
  -29.6890  -18.5360   20.3340 N   0  0  0  0  0  0  0  0  0  0  0  0
  -30.5600  -17.2690   22.0010 O   0  0  0  0  0  0  0  0  0  0  0  0
  -29.3130  -18.5000   19.3960 H   0  0  0  0  0  0  0  0  0  0  0  0
  -29.6570  -15.9980   20.1180 C   0  0  0  0  0  2  0  0  0  0  0  0
  -30.5540  -14.6900   20.3020 C   0  0  0  0  0  0  0  0  0  0  0  0
  -30.3460  -12.4080   19.3530 C   0  0  0  0  0  2  0  0  0  0  0  0
  -29.3950  -12.4950   18.1380 C   0  0  0  0  0  2  0  0  0  0  0  0
  -27.9300  -12.3200   18.5820 C   0  0  0  0  0  2  0  0  0  0  0  0
  -27.5670  -13.2300   19.7830 C   0  0  0  0  0  3  0  0  0  0  0  0
  -28.6350  -13.1610   20.8980 C   0  0  0  0  0  2  0  0  0  0  0  0
  -29.9510  -13.4570   20.3130 N   0  0  0  0  0  0  0  0  0  0  0  0
  -31.7630  -14.7830   20.0630 O   0  0  0  0  0  0  0  0  0  0  0  0
  -25.1980  -13.8470   20.5630 C   0  0  0  0  0  0  0  0  0  0  0  0
  -24.1320  -13.0800   20.9500 C   0  0  0  0  0  0  0  0  0  0  0  0
  -24.5860  -11.7260   20.9080 C   0  0  0  0  0  0  0  0  0  0  0  0
  -26.2290  -12.9580   20.3000 N   0  0  0  0  0  0  0  0  0  0  0  0
  -25.8690  -11.6790   20.5750 N   0  0  0  0  0  0  0  0  0  0  0  0
  -23.8570  -10.4670   21.1040 C   0  0  0  0  0  0  0  0  0  0  0  0
  -24.3210   -9.4800   22.0020 C   0  0  0  0  0  3  0  0  0  0  0  0
  -23.5950   -8.2840   22.1850 C   0  0  0  0  0  3  0  0  0  0  0  0
  -22.3930   -8.0680   21.4700 C   0  0  0  0  0  0  0  0  0  0  0  0
  -21.9480   -9.0430   20.5610 C   0  0  0  0  0  3  0  0  0  0  0  0
  -22.6740  -10.2320   20.3760 C   0  0  0  0  0  3  0  0  0  0  0  0
  -21.6320   -6.9280   21.5680 O   0  0  0  0  0  0  0  0  0  0  0  0
  -21.6460   -6.1480   22.6960 C   0  0  0  0  0  0  0  0  0  0  0  0
  -21.3240   -6.6690   23.9690 C   0  0  0  0  0  3  0  0  0  0  0  0
  -21.2840   -5.8160   25.0890 C   0  0  0  0  0  3  0  0  0  0  0  0
  -21.5540   -4.4430   24.9390 C   0  0  0  0  0  0  0  0  0  0  0  0
  -21.8700   -3.9210   23.6720 C   0  0  0  0  0  3  0  0  0  0  0  0
  -21.9130   -4.7720   22.5540 C   0  0  0  0  0  0  0  0  0  0  0  0
  -22.1970   -4.2610   21.3320 F   0  0  0  0  0  0  0  0  0  0  0  0
  -21.5070   -3.6200   26.0130 F   0  0  0  0  0  0  0  0  0  0  0  0
  -22.7420  -13.5630   21.2430 C   0  0  0  0  0  0  0  0  0  0  0  0
  -22.0230  -12.8680   22.1170 N   0  0  0  0  0  0  0  0  0  0  0  0
  -22.3020  -14.5910   20.7310 O   0  0  0  0  0  0  0  0  0  0  0  0
  -22.3900  -12.0360   22.5550 H   0  0  0  0  0  0  0  0  0  0  0  0
  -21.0880  -13.1740   22.3530 H   0  0  0  0  0  0  0  0  0  0  0  0
  -25.3670  -15.2170   20.3830 N   0  0  0  0  0  0  0  0  0  0  0  0
  -24.5990  -15.8700   20.4890 H   0  0  0  0  0  0  0  0  0  0  0  0
  -26.1980  -15.6460   19.9950 H   0  0  0  0  0  0  0  0  0  0  0  0
  -28.9010  -23.9190   20.0620 C   0  0  0  0  0  3  0  0  0  0  0  0
  -28.3000  -25.1930   20.8160 C   0  0  0  0  0  3  0  0  0  0  0  0
  -28.3840  -26.5290   20.1870 O   0  0  0  0  0  0  0  0  0  0  0  0
  -24.6240  -31.8870   23.2230 C   0  0  0  0  0  0  0  0  0  0  0  0
  -27.2440  -27.3400   20.1950 C   0  0  0  0  0  0  0  0  0  0  0  0
  -23.4140  -30.4780   21.5900 C   0  0  0  0  0  3  0  0  0  0  0  0
  -24.8650  -28.9210   20.1740 C   0  0  0  0  0  0  0  0  0  0  0  0
  -25.9500  -30.8140   21.3910 C   0  0  0  0  0  2  0  0  0  0  0  0
  -26.0340  -29.4300   20.7560 C   0  0  0  0  0  0  0  0  0  0  0  0
  -27.2250  -28.6520   20.7550 C   0  0  0  0  0  3  0  0  0  0  0  0
  -26.0570  -26.8690   19.5990 C   0  0  0  0  0  3  0  0  0  0  0  0
  -24.8780  -27.6410   19.5880 C   0  0  0  0  0  3  0  0  0  0  0  0
  -23.6250  -29.7880   20.2150 C   0  0  0  0  0  2  0  0  0  0  0  0
  -24.6810  -31.0780   22.1250 N   0  0  0  0  0  0  0  0  0  0  0  0
  -23.5460  -32.1640   23.7680 O   0  0  0  0  0  0  0  0  0  0  0  0
  -22.7610  -29.4670   22.5610 C   0  0  0  0  0  0  0  0  0  0  0  0
  -21.4330  -29.2870   22.4460 N   0  0  0  0  0  0  0  0  0  0  0  0
  -23.4460  -28.8460   23.3780 O   0  0  0  0  0  0  0  0  0  0  0  0
  -20.9380  -29.8390   21.7590 H   0  0  0  0  0  0  0  0  0  0  0  0
  -18.0630  -28.0800   22.9600 C   0  0  0  0  0  0  0  0  0  0  0  0
  -20.6210  -28.3510   23.2270 C   0  0  0  0  0  3  0  0  0  0  0  0
  -20.7290  -26.9150   22.6650 C   0  0  0  0  0  2  0  0  0  0  0  0
  -19.6280  -26.5810   21.6530 C   0  0  0  0  0  2  0  0  0  0  0  0
  -18.2450  -26.7260   22.2950 C   0  0  0  0  0  2  0  0  0  0  0  0
  -19.1800  -28.8490   23.3840 C   0  0  0  0  0  0  0  0  0  0  0  0
  -18.9550  -30.1150   23.9650 C   0  0  0  0  0  3  0  0  0  0  0  0
  -17.6480  -30.6130   24.1270 C   0  0  0  0  0  3  0  0  0  0  0  0
  -16.5470  -29.8390   23.7230 C   0  0  0  0  0  3  0  0  0  0  0  0
  -16.7550  -28.5750   23.1440 C   0  0  0  0  0  3  0  0  0  0  0  0
  -25.9120  -32.5210   23.8370 C   0  0  0  0  0  3  0  0  0  0  0  0
  -25.6020  -33.9160   24.1790 N   0  0  0  0  0  0  0  0  0  0  0  0
  -25.9230  -34.9740   23.4240 C   0  0  0  0  0  0  0  0  0  0  0  0
  -26.5800  -34.8790   22.3850 O   0  0  0  0  0  0  0  0  0  0  0  0
  -25.0110  -34.0640   24.9840 H   0  0  0  0  0  0  0  0  0  0  0  0
  -24.1780  -36.7580   23.1100 C   0  0  0  0  0  1  0  0  0  0  0  0
  -25.4350  -36.3580   23.8980 C   0  0  0  0  0  3  0  0  0  0  0  0
  -27.5800  -37.2480   24.6900 C   0  0  0  0  0  1  0  0  0  0  0  0
  -26.4600  -37.4160   23.7700 N   0  0  0  0  0  0  0  0  0  0  0  0
  -26.0530  -38.3330   23.9320 H   0  0  0  0  0  0  0  0  0  0  0  0
  -26.4450  -31.7470   25.1040 C   0  0  1  0  0  0  0  0  0  0  0  0
  -25.3640  -31.5060   26.1820 C   0  0  0  0  0  1  0  0  0  0  0  0
  -27.0270  -30.3730   24.6980 C   0  0  0  0  0  1  0  0  0  0  0  0
  -27.6040  -32.5390   25.7540 C   0  0  0  0  0  1  0  0  0  0  0  0
  2  1  1  0
  2  3  2  0
  4  6  2  0
  5  4  1  0
  5  3  1  0
  7  5  1  0
  8  9  1  0
  8  4  1  0
  9 15  1  0
 10 15  1  0
 11 12  1  0
 11 10  1  0
 13 12  1  0
 13 20  1  0
 13 14  1  0
 15 14  1  0
 16  9  2  0
 17 18  2  0
 18 37  1  0
 19 18  1  0
 19 22  1  0
 20 17  1  0
 20 21  1  0
 21 19  2  0
 22 23  1  0
 23 24  2  0
 25 28  1  0
 25 24  1  0
 26 25  2  0
 27 26  1  0
 27 22  2  0
 28 29  1  0
 29 30  1  0
 30 31  2  0
 32 31  1  0
 32 36  1  0
 33 32  2  0
 34 29  2  0
 34 33  1  0
 35 34  1  0
 37 38  1  0
 38 41  1  0
 38 40  1  0
 39 37  2  0
 42 43  1  0
 42 17  1  0
 44 42  1  0
 45 46  2  0
 45  1  1  0
 47 49  1  0
 47 46  1  0
 48 59  2  0
 49 54  1  0
 50 58  1  0
 50 60  1  0
 51 57  1  0
 51 53  1  0
 52 58  1  0
 53 52  1  0
 54 53  2  0
 55 49  2  0
 56 55  1  0
 56 51  2  0
 57 50  1  0
 58 48  1  0
 60 62  2  0
 61 60  1  0
 63 61  1  0
 64 73  2  0
 64 69  1  0
 65 61  1  0
 65 69  1  0
 66 65  1  0
 67 68  1  0
 67 66  1  0
 68 64  1  0
 69 70  2  0
 70 71  1  0
 72 71  2  0
 73 72  1  0
 74 48  1  0
 74 75  1  0
 74 84  1  0
 75 78  1  0
 76 80  1  0
 76 75  1  0
 77 76  2  0
 80 79  1  0
 82 80  1  0
 82 83  1  0
 82 81  1  0
 84 87  1  1
 84 85  1  0
 86 84  1  0
M  ISO  4   8 100   9 100  46 101  47 101
M  END
>  <TORSDO>  (70) 
F 22

>  <SCORE>  (70) 
-12.928

>  <name>  (70) 
70

>  <ligand_id>  (70) 
70

>  <original_smiles>  (70) 
[H]c1c([H])c([H])c2c(c1[H])C([H])([H])C([H])([H])C([H])([H])C2([H])N([H])C(=O)C1([H])N(C(=O)C([H])(N([H])C(=O)C([H])(N([H])C([H])([H])[H])C([H])([H])[H])C(C([H])([H])[H])(C([H])([H])[H])C([H])([H])[H])C([H])([H])c2c([H])c(OC([H])([H])C([H])([H])C([H])([H])C([H])([H])C([H])([H])N([H])C(=O)C([H])([H])C(=O)N3C([H])([H])C([H])([H])C([H])([H])C([H])(n4nc(-c5c([H])c([H])c(Oc6c([H])c([H])c(F)c([H])c6F)c([H])c5[H])c(C(=O)N([H])[H])c4N([H])[H])C3([H])[H])c([H])c([H])c2C1([H])[H]

>  <smiles>  (70) 
[H]c1c([H])c([H])c2c(c1[H])C([H])([H])C([H])([H])C([H])([H])C2([H])N([H])C(=O)C1([H])N(C(=O)C([H])(N([H])C(=O)C([H])(N([H])C([H])([H])[H])C([H])([H])[H])C(C([H])([H])[H])(C([H])([H])[H])C([H])([H])[H])C([H])([H])c2c([H])c(OC([H])([H])C([H])([H])C([H])([H])C([H])([H])C([H])([H])N([H])C(=O)C([H])([H])C(=O)N3C([H])([H])C([H])([H])C([H])([H])C([H])(n4nc(-c5c([H])c([H])c(Oc6c([H])c([H])c(F)c([H])c6F)c([H])c5[H])c(C(=O)N([H])[H])c4N([H])[H])C3([H])[H])c([H])c([H])c2C1([H])[H]

$$$$
71:0:0
     RDKit          3D

 92100  0  0  1  0  0  0  0  0999 V2000
  -30.2290  -24.7730   22.4800 C   0  0  0  0  0  3  0  0  0  0  0  0
  -29.8060  -23.4570   22.2100 C   0  0  0  0  0  3  0  0  0  0  0  0
  -29.7010  -25.8540   21.7490 C   0  0  0  0  0  3  0  0  0  0  0  0
  -28.3240  -24.3040   20.4650 C   0  0  0  0  0  3  0  0  0  0  0  0
  -28.8480  -23.1970   21.2050 C   0  0  0  0  0  0  0  0  0  0  0  0
  -28.7480  -25.6420   20.7350 C   0  0  0  0  0  0  0  0  0  0  0  0
  -28.3990  -26.7370   19.9610 O   0  0  0  0  0  0  0  0  0  0  0  0
  -24.6010  -31.9010   23.2340 C   0  0  0  0  0  0  0  0  0  0  0  0
  -27.2210  -27.4400   20.1310 C   0  0  0  0  0  0  0  0  0  0  0  0
  -23.3820  -30.5020   21.5980 C   0  0  0  0  0  3  0  0  0  0  0  0
  -24.8270  -28.9570   20.1710 C   0  0  0  0  0  0  0  0  0  0  0  0
  -25.9080  -30.8540   21.3840 C   0  0  0  0  0  2  0  0  0  0  0  0
  -25.9900  -29.4760   20.7540 C   0  0  0  0  0  0  0  0  0  0  0  0
  -27.1920  -28.7230   20.7340 C   0  0  0  0  0  3  0  0  0  0  0  0
  -26.0400  -26.9380   19.5500 C   0  0  0  0  0  3  0  0  0  0  0  0
  -24.8450  -27.6850   19.5710 C   0  0  0  0  0  3  0  0  0  0  0  0
  -23.5850  -29.8220   20.2180 C   0  0  0  0  0  2  0  0  0  0  0  0
  -24.6500  -31.1030   22.1290 N   0  0  0  0  0  0  0  0  0  0  0  0
  -23.5250  -32.1710   23.7840 O   0  0  0  0  0  0  0  0  0  0  0  0
  -22.7390  -29.4800   22.5630 C   0  0  0  0  0  0  0  0  0  0  0  0
  -21.4150  -29.2960   22.4460 N   0  0  0  0  0  0  0  0  0  0  0  0
  -23.4300  -28.8530   23.3720 O   0  0  0  0  0  0  0  0  0  0  0  0
  -20.9190  -29.8540   21.7640 H   0  0  0  0  0  0  0  0  0  0  0  0
  -18.0470  -28.0800   22.9530 C   0  0  0  0  0  0  0  0  0  0  0  0
  -20.6050  -28.3530   23.2160 C   0  0  0  0  0  3  0  0  0  0  0  0
  -20.7140  -26.9230   22.6390 C   0  0  0  0  0  2  0  0  0  0  0  0
  -19.6100  -26.5950   21.6290 C   0  0  0  0  0  2  0  0  0  0  0  0
  -18.2290  -26.7320   22.2770 C   0  0  0  0  0  2  0  0  0  0  0  0
  -19.1630  -28.8490   23.3800 C   0  0  0  0  0  0  0  0  0  0  0  0
  -18.9410  -30.1110   23.9710 C   0  0  0  0  0  3  0  0  0  0  0  0
  -17.6350  -30.6070   24.1400 C   0  0  0  0  0  3  0  0  0  0  0  0
  -16.5330  -29.8360   23.7310 C   0  0  0  0  0  3  0  0  0  0  0  0
  -16.7400  -28.5750   23.1430 C   0  0  0  0  0  3  0  0  0  0  0  0
  -25.8920  -32.5330   23.8450 C   0  0  0  0  0  3  0  0  0  0  0  0
  -25.5850  -33.9280   24.1850 N   0  0  0  0  0  0  0  0  0  0  0  0
  -25.9060  -34.9850   23.4270 C   0  0  0  0  0  0  0  0  0  0  0  0
  -26.5650  -34.8870   22.3890 O   0  0  0  0  0  0  0  0  0  0  0  0
  -25.0020  -34.0780   24.9960 H   0  0  0  0  0  0  0  0  0  0  0  0
  -24.1690  -36.7730   23.0970 C   0  0  0  0  0  1  0  0  0  0  0  0
  -25.4200  -36.3700   23.8940 C   0  0  0  0  0  3  0  0  0  0  0  0
  -27.5620  -37.2540   24.7050 C   0  0  0  0  0  1  0  0  0  0  0  0
  -26.4480  -37.4270   23.7750 N   0  0  0  0  0  0  0  0  0  0  0  0
  -26.0410  -38.3440   23.9340 H   0  0  0  0  0  0  0  0  0  0  0  0
  -26.4260  -31.7540   25.1110 C   0  0  1  0  0  0  0  0  0  0  0  0
  -25.3450  -31.5090   26.1890 C   0  0  0  0  0  1  0  0  0  0  0  0
  -27.0050  -30.3800   24.7030 C   0  0  0  0  0  1  0  0  0  0  0  0
  -27.5810  -32.5480   25.7650 C   0  0  0  0  0  1  0  0  0  0  0  0
  -28.3340  -21.7450   21.0460 C   0  0  0  0  0  2  0  0  0  0  0  0
  -28.7660  -20.5150   18.9510 C   0  0  0  0  0  1  0  0  0  0  0  0
  -29.2390  -20.7710   20.3330 N   0  0  2  0  0  4  0  0  0  0  0  0
  -30.1050  -21.2750   20.2160 H   0  0  0  0  0  0  0  0  0  0  0  0
  -29.6140  -19.5290   21.1250 C   0  0  0  0  0  3  0  0  0  0  0  0
  -29.6890  -18.1300   20.3860 C   0  0  0  0  0  3  0  0  0  0  0  0
  -30.3210  -16.9620   21.2270 C   0  0  0  0  0  2  0  0  0  0  0  0
  -30.6650  -14.5830   20.2820 C   0  0  0  0  0  0  0  0  0  0  0  0
  -30.3790  -12.4120   19.1120 C   0  0  0  0  0  2  0  0  0  0  0  0
  -29.4010  -12.5970   17.9310 C   0  0  0  0  0  2  0  0  0  0  0  0
  -27.9350  -12.4580   18.3950 C   0  0  0  0  0  2  0  0  0  0  0  0
  -27.6310  -13.2960   19.6660 C   0  0  0  0  0  3  0  0  0  0  0  0
  -28.7100  -13.0630   20.7440 C   0  0  0  0  0  2  0  0  0  0  0  0
  -30.0130  -13.3930   20.1470 N   0  0  0  0  0  0  0  0  0  0  0  0
  -31.7940  -14.7790   19.8230 O   0  0  0  0  0  0  0  0  0  0  0  0
  -29.9320  -15.5790   20.8380 N   0  0  0  0  0  0  0  0  0  0  0  0
  -29.0060  -15.2960   21.1230 H   0  0  0  0  0  0  0  0  0  0  0  0
  -25.2580  -13.9280   20.4310 C   0  0  0  0  0  0  0  0  0  0  0  0
  -24.1910  -13.1690   20.8260 C   0  0  0  0  0  0  0  0  0  0  0  0
  -24.6370  -11.8120   20.7850 C   0  0  0  0  0  0  0  0  0  0  0  0
  -26.2880  -13.0360   20.1770 N   0  0  0  0  0  0  0  0  0  0  0  0
  -25.9200  -11.7580   20.4470 N   0  0  0  0  0  0  0  0  0  0  0  0
  -23.9030  -10.5580   20.9940 C   0  0  0  0  0  0  0  0  0  0  0  0
  -24.3560   -9.5820   21.9070 C   0  0  0  0  0  3  0  0  0  0  0  0
  -23.6250   -8.3910   22.1040 C   0  0  0  0  0  3  0  0  0  0  0  0
  -22.4270   -8.1680   21.3850 C   0  0  0  0  0  0  0  0  0  0  0  0
  -21.9920   -9.1330   20.4600 C   0  0  0  0  0  3  0  0  0  0  0  0
  -22.7220  -10.3170   20.2630 C   0  0  0  0  0  3  0  0  0  0  0  0
  -21.6650   -7.0310   21.4910 O   0  0  0  0  0  0  0  0  0  0  0  0
  -21.6530   -6.2760   22.6360 C   0  0  0  0  0  0  0  0  0  0  0  0
  -21.2950   -6.8250   23.8870 C   0  0  0  0  0  3  0  0  0  0  0  0
  -21.2290   -5.9980   25.0260 C   0  0  0  0  0  3  0  0  0  0  0  0
  -21.5100   -4.6240   24.9150 C   0  0  0  0  0  0  0  0  0  0  0  0
  -21.8590   -4.0730   23.6690 C   0  0  0  0  0  3  0  0  0  0  0  0
  -21.9270   -4.8980   22.5330 C   0  0  0  0  0  0  0  0  0  0  0  0
  -22.2430   -4.3590   21.3310 F   0  0  0  0  0  0  0  0  0  0  0  0
  -21.4380   -3.8260   26.0070 F   0  0  0  0  0  0  0  0  0  0  0  0
  -22.8060  -13.6610   21.1310 C   0  0  0  0  0  0  0  0  0  0  0  0
  -22.0930  -12.9740   22.0170 N   0  0  0  0  0  0  0  0  0  0  0  0
  -22.3660  -14.6910   20.6190 O   0  0  0  0  0  0  0  0  0  0  0  0
  -22.4620  -12.1440   22.4540 H   0  0  0  0  0  0  0  0  0  0  0  0
  -21.1640  -13.2870   22.2590 H   0  0  0  0  0  0  0  0  0  0  0  0
  -25.4330  -15.2970   20.2480 N   0  0  0  0  0  0  0  0  0  0  0  0
  -24.6720  -15.9560   20.3660 H   0  0  0  0  0  0  0  0  0  0  0  0
  -26.2740  -15.7260   19.8820 H   0  0  0  0  0  0  0  0  0  0  0  0
  2  1  1  0
  3  1  2  0
  4  6  2  0
  4  5  1  0
  5  2  2  0
  6  3  1  0
  7  9  1  0
  7  6  1  0
  8 19  2  0
  9 14  1  0
 10 18  1  0
 10 20  1  0
 11 17  1  0
 11 13  1  0
 12 18  1  0
 13 12  1  0
 14 13  2  0
 15 16  1  0
 15  9  2  0
 16 11  2  0
 17 10  1  0
 18  8  1  0
 20 22  2  0
 21 20  1  0
 23 21  1  0
 24 33  2  0
 24 29  1  0
 25 21  1  0
 25 29  1  0
 26 25  1  0
 27 28  1  0
 27 26  1  0
 28 24  1  0
 29 30  2  0
 30 31  1  0
 32 31  2  0
 33 32  1  0
 34  8  1  0
 34 35  1  0
 34 44  1  0
 35 38  1  0
 36 40  1  0
 36 35  1  0
 37 36  2  0
 40 39  1  0
 42 40  1  0
 42 43  1  0
 42 41  1  0
 44 47  1  1
 44 45  1  0
 46 44  1  0
 48  5  1  0
 49 50  1  0
 50 48  1  0
 50 52  1  0
 50 51  1  6
 53 52  2  0
 53 54  1  0
 55 63  1  0
 56 61  1  0
 57 58  1  0
 57 56  1  0
 59 58  1  0
 59 68  1  0
 59 60  1  0
 61 55  1  0
 61 60  1  0
 62 55  2  0
 63 64  1  0
 63 54  1  0
 65 66  2  0
 66 85  1  0
 67 66  1  0
 67 70  1  0
 68 65  1  0
 68 69  1  0
 69 67  2  0
 70 71  1  0
 71 72  2  0
 73 76  1  0
 73 72  1  0
 74 73  2  0
 75 74  1  0
 75 70  2  0
 76 77  1  0
 77 78  1  0
 78 79  2  0
 80 79  1  0
 80 84  1  0
 81 80  2  0
 82 77  2  0
 82 81  1  0
 83 82  1  0
 85 86  1  0
 86 89  1  0
 86 88  1  0
 87 85  2  0
 90 91  1  0
 90 65  1  0
 92 90  1  0
M  ISO  4   6 101   7 101  55 100  63 100
M  END
>  <TORSDO>  (71) 
F 21

>  <SCORE>  (71) 
-13.363

>  <name>  (71) 
71

>  <ligand_id>  (71) 
71

>  <original_smiles>  (71) 
[H]c1c([H])c([H])c2c(c1[H])C([H])([H])C([H])([H])C([H])([H])C2([H])N([H])C(=O)C1([H])N(C(=O)C([H])(N([H])C(=O)C([H])(N([H])C([H])([H])[H])C([H])([H])[H])C(C([H])([H])[H])(C([H])([H])[H])C([H])([H])[H])C([H])([H])c2c([H])c(Oc3c([H])c([H])c([H])c(C([H])([H])[N+]([H])(C([H])([H])[H])C([H])([H])C([H])([H])C([H])([H])N([H])C(=O)N4C([H])([H])C([H])([H])C([H])([H])C([H])(n5nc(-c6c([H])c([H])c(Oc7c([H])c([H])c(F)c([H])c7F)c([H])c6[H])c(C(=O)N([H])[H])c5N([H])[H])C4([H])[H])c3[H])c([H])c([H])c2C1([H])[H]

>  <smiles>  (71) 
[H]c1c([H])c([H])c2c(c1[H])C([H])([H])C([H])([H])C([H])([H])C2([H])N([H])C(=O)C1([H])N(C(=O)C([H])(N([H])C(=O)C([H])(N([H])C([H])([H])[H])C([H])([H])[H])C(C([H])([H])[H])(C([H])([H])[H])C([H])([H])[H])C([H])([H])c2c([H])c(Oc3c([H])c([H])c([H])c(C([H])([H])[N+]([H])(C([H])([H])[H])C([H])([H])C([H])([H])C([H])([H])N([H])C(=O)N4C([H])([H])C([H])([H])C([H])([H])C([H])(n5nc(-c6c([H])c([H])c(Oc7c([H])c([H])c(F)c([H])c7F)c([H])c6[H])c(C(=O)N([H])[H])c5N([H])[H])C4([H])[H])c3[H])c([H])c([H])c2C1([H])[H]

$$$$
72:0:0
     RDKit          3D

 89 96  0  0  1  0  0  0  0  0999 V2000
  -29.7610  -19.2620   20.7360 C   0  0  0  0  0  0  0  0  0  0  0  0
  -29.7010  -20.5590   20.1550 N   0  0  0  0  0  0  0  0  0  0  0  0
  -29.2550  -19.1480   21.8530 O   0  0  0  0  0  0  0  0  0  0  0  0
  -30.1360  -20.6400   19.2450 H   0  0  0  0  0  0  0  0  0  0  0  0
  -31.1670  -18.1520   18.7800 C   0  0  0  0  0  1  0  0  0  0  0  0
  -30.4920  -17.8810   20.1400 C   0  0  0  0  0  3  0  0  0  0  0  0
  -30.5590  -15.1170   20.0800 C   0  0  0  0  0  0  0  0  0  0  0  0
  -30.3690  -12.8010   19.0200 C   0  0  0  0  0  2  0  0  0  0  0  0
  -29.3610  -12.7380   17.8490 C   0  0  0  0  0  2  0  0  0  0  0  0
  -27.9340  -12.4560   18.3600 C   0  0  0  0  0  2  0  0  0  0  0  0
  -27.5740  -13.3430   19.5730 C   0  0  0  0  0  3  0  0  0  0  0  0
  -28.7060  -13.3430   20.6370 C   0  0  0  0  0  2  0  0  0  0  0  0
  -29.9120  -13.8680   19.9640 N   0  0  0  0  0  0  0  0  0  0  0  0
  -31.7760  -15.0870   19.8620 O   0  0  0  0  0  0  0  0  0  0  0  0
  -29.8850  -16.4060   20.1680 N   0  0  0  0  0  0  0  0  0  0  0  0
  -25.2260  -13.9350   20.4280 C   0  0  0  0  0  0  0  0  0  0  0  0
  -24.1810  -13.1570   20.8360 C   0  0  0  0  0  0  0  0  0  0  0  0
  -24.6480  -11.8110   20.7700 C   0  0  0  0  0  0  0  0  0  0  0  0
  -26.2630  -13.0580   20.1340 N   0  0  0  0  0  0  0  0  0  0  0  0
  -25.9240  -11.7750   20.4050 N   0  0  0  0  0  0  0  0  0  0  0  0
  -23.9350  -10.5470   20.9700 C   0  0  0  0  0  0  0  0  0  0  0  0
  -24.3920   -9.5830   21.8930 C   0  0  0  0  0  3  0  0  0  0  0  0
  -23.6790   -8.3800   22.0810 C   0  0  0  0  0  3  0  0  0  0  0  0
  -22.4950   -8.1360   21.3440 C   0  0  0  0  0  0  0  0  0  0  0  0
  -22.0600   -9.0900   20.4070 C   0  0  0  0  0  3  0  0  0  0  0  0
  -22.7750  -10.2820   20.2160 C   0  0  0  0  0  3  0  0  0  0  0  0
  -21.7490   -6.9860   21.4440 O   0  0  0  0  0  0  0  0  0  0  0  0
  -21.7090   -6.2560   22.6050 C   0  0  0  0  0  0  0  0  0  0  0  0
  -21.2560   -6.8120   23.8220 C   0  0  0  0  0  3  0  0  0  0  0  0
  -21.1650   -6.0050   24.9730 C   0  0  0  0  0  3  0  0  0  0  0  0
  -21.5160   -4.6430   24.9080 C   0  0  0  0  0  0  0  0  0  0  0  0
  -21.9640   -4.0880   23.6980 C   0  0  0  0  0  3  0  0  0  0  0  0
  -22.0570   -4.8920   22.5490 C   0  0  0  0  0  0  0  0  0  0  0  0
  -22.4680   -4.3470   21.3780 F   0  0  0  0  0  0  0  0  0  0  0  0
  -21.4200   -3.8650   26.0120 F   0  0  0  0  0  0  0  0  0  0  0  0
  -22.7960  -13.6320   21.1650 C   0  0  0  0  0  0  0  0  0  0  0  0
  -22.0990  -12.9230   22.0460 N   0  0  0  0  0  0  0  0  0  0  0  0
  -22.3390  -14.6650   20.6750 O   0  0  0  0  0  0  0  0  0  0  0  0
  -22.4830  -12.0870   22.4630 H   0  0  0  0  0  0  0  0  0  0  0  0
  -21.1710  -13.2210   22.3090 H   0  0  0  0  0  0  0  0  0  0  0  0
  -25.3530  -15.3090   20.2620 N   0  0  0  0  0  0  0  0  0  0  0  0
  -24.5680  -15.9320   20.4130 H   0  0  0  0  0  0  0  0  0  0  0  0
  -26.1630  -15.7810   19.8850 H   0  0  0  0  0  0  0  0  0  0  0  0
  -27.9380  -16.8970   18.7050 C   0  0  0  0  0  1  0  0  0  0  0  0
  -28.4260  -16.5340   20.1240 C   0  0  0  0  0  2  0  0  0  0  0  0
  -29.0020  -21.8780   20.6920 C   0  0  0  0  0  2  0  0  0  0  0  0
  -29.1200  -23.4410   20.0600 C   0  0  0  0  0  3  0  0  0  0  0  0
  -28.1930  -24.7580   20.5710 C   0  0  0  0  0  3  0  0  0  0  0  0
  -28.3890  -26.2770   20.2870 O   0  0  0  0  0  0  0  0  0  0  0  0
  -24.6250  -31.9010   23.2540 C   0  0  0  0  0  0  0  0  0  0  0  0
  -27.2930  -27.2170   20.2670 C   0  0  0  0  0  0  0  0  0  0  0  0
  -23.4530  -30.4880   21.6060 C   0  0  0  0  0  3  0  0  0  0  0  0
  -24.9350  -28.9210   20.2060 C   0  0  0  0  0  0  0  0  0  0  0  0
  -26.0050  -30.7830   21.4660 C   0  0  0  0  0  2  0  0  0  0  0  0
  -26.1020  -29.3880   20.8230 C   0  0  0  0  0  0  0  0  0  0  0  0
  -27.2810  -28.5520   20.8350 C   0  0  0  0  0  3  0  0  0  0  0  0
  -26.0970  -26.8430   19.6140 C   0  0  0  0  0  3  0  0  0  0  0  0
  -24.9450  -27.6620   19.5870 C   0  0  0  0  0  3  0  0  0  0  0  0
  -23.6970  -29.8040   20.2330 C   0  0  0  0  0  2  0  0  0  0  0  0
  -24.7130  -31.0790   22.1650 N   0  0  0  0  0  0  0  0  0  0  0  0
  -23.5310  -32.1780   23.7720 O   0  0  0  0  0  0  0  0  0  0  0  0
  -22.7750  -29.4800   22.5670 C   0  0  0  0  0  0  0  0  0  0  0  0
  -21.4520  -29.2860   22.4180 N   0  0  0  0  0  0  0  0  0  0  0  0
  -23.4400  -28.8700   23.4070 O   0  0  0  0  0  0  0  0  0  0  0  0
  -20.9700  -29.8280   21.7130 H   0  0  0  0  0  0  0  0  0  0  0  0
  -18.0830  -28.0370   22.8690 C   0  0  0  0  0  0  0  0  0  0  0  0
  -20.6320  -28.3450   23.1840 C   0  0  0  0  0  3  0  0  0  0  0  0
  -20.7680  -26.9090   22.6260 C   0  0  0  0  0  2  0  0  0  0  0  0
  -19.6930  -26.5580   21.5940 C   0  0  0  0  0  2  0  0  0  0  0  0
  -18.2960  -26.6850   22.2100 C   0  0  0  0  0  2  0  0  0  0  0  0
  -19.1790  -28.8220   23.3120 C   0  0  0  0  0  0  0  0  0  0  0  0
  -18.9260  -30.0860   23.8910 C   0  0  0  0  0  3  0  0  0  0  0  0
  -17.6100  -30.5630   24.0290 C   0  0  0  0  0  3  0  0  0  0  0  0
  -16.5280  -29.7740   23.6000 C   0  0  0  0  0  3  0  0  0  0  0  0
  -16.7650  -28.5130   23.0250 C   0  0  0  0  0  3  0  0  0  0  0  0
  -25.8920  -32.5490   23.8930 C   0  0  0  0  0  3  0  0  0  0  0  0
  -25.5710  -33.9510   24.2020 N   0  0  0  0  0  0  0  0  0  0  0  0
  -25.9140  -34.9980   23.4400 C   0  0  0  0  0  0  0  0  0  0  0  0
  -26.5990  -34.8850   22.4210 O   0  0  0  0  0  0  0  0  0  0  0  0
  -24.9620  -34.1120   24.9900 H   0  0  0  0  0  0  0  0  0  0  0  0
  -24.1960  -36.7910   23.0330 C   0  0  0  0  0  1  0  0  0  0  0  0
  -25.4180  -36.3910   23.8760 C   0  0  0  0  0  3  0  0  0  0  0  0
  -27.5310  -37.2840   24.7520 C   0  0  0  0  0  1  0  0  0  0  0  0
  -26.4540  -37.4430   23.7780 N   0  0  0  0  0  0  0  0  0  0  0  0
  -26.0460  -38.3650   23.9050 H   0  0  0  0  0  0  0  0  0  0  0  0
  -26.3820  -31.8000   25.1930 C   0  0  1  0  0  0  0  0  0  0  0  0
  -25.2660  -31.5800   26.2410 C   0  0  0  0  0  1  0  0  0  0  0  0
  -26.9780  -30.4180   24.8430 C   0  0  0  0  0  1  0  0  0  0  0  0
  -27.5190  -32.6070   25.8640 C   0  0  0  0  0  1  0  0  0  0  0  0
  1  3  2  0
  2 46  1  0
  2  1  1  0
  4  2  1  0
  6  5  1  0
  6 15  1  0
  6  1  1  0
  7 15  1  0
  8 13  1  0
  9 10  1  0
  9  8  1  0
 11 10  1  0
 11 19  1  0
 11 12  1  0
 13  7  1  0
 13 12  1  0
 14  7  2  0
 16 17  2  0
 17 36  1  0
 18 17  1  0
 18 21  1  0
 19 20  1  0
 19 16  1  0
 20 18  2  0
 21 22  1  0
 22 23  2  0
 24 27  1  0
 24 23  1  0
 25 24  2  0
 26 25  1  0
 26 21  2  0
 27 28  1  0
 28 29  1  0
 29 30  2  0
 31 30  1  0
 31 35  1  0
 32 31  2  0
 33 28  2  0
 33 32  1  0
 34 33  1  0
 36 37  1  0
 37 40  1  0
 37 39  1  0
 38 36  2  0
 41 42  1  0
 41 16  1  0
 43 41  1  0
 44 45  1  0
 45 15  1  0
 47 48  2  0
 47 46  1  0
 49 48  1  0
 50 61  2  0
 51 49  1  0
 51 56  1  0
 52 60  1  0
 52 62  1  0
 53 59  1  0
 53 55  1  0
 54 60  1  0
 55 56  2  0
 55 54  1  0
 57 51  2  0
 58 57  1  0
 58 53  2  0
 59 52  1  0
 60 50  1  0
 62 64  2  0
 63 62  1  0
 65 63  1  0
 66 75  2  0
 66 71  1  0
 67 63  1  0
 67 71  1  0
 68 67  1  0
 69 70  1  0
 69 68  1  0
 70 66  1  0
 71 72  2  0
 72 73  1  0
 74 73  2  0
 75 74  1  0
 76 50  1  0
 76 77  1  0
 76 86  1  0
 77 80  1  0
 78 82  1  0
 78 77  1  0
 79 78  2  0
 82 81  1  0
 84 82  1  0
 84 85  1  0
 84 83  1  0
 86 89  1  1
 86 87  1  0
 88 86  1  0
M  ISO  4   7 100  15 100  48 101  49 101
M  END
>  <TORSDO>  (72) 
F 21

>  <SCORE>  (72) 
-12.743

>  <name>  (72) 
72

>  <ligand_id>  (72) 
72

>  <original_smiles>  (72) 
[H]c1c([H])c([H])c2c(c1[H])C([H])([H])C([H])([H])C([H])([H])C2([H])N([H])C(=O)C1([H])N(C(=O)C([H])(N([H])C(=O)C([H])(N([H])C([H])([H])[H])C([H])([H])[H])C(C([H])([H])[H])(C([H])([H])[H])C([H])([H])[H])C([H])([H])c2c([H])c(OC([H])([H])C([H])([H])C([H])([H])N([H])C(=O)C([H])(N(C(=O)N3C([H])([H])C([H])([H])C([H])([H])C([H])(n4nc(-c5c([H])c([H])c(Oc6c([H])c([H])c(F)c([H])c6F)c([H])c5[H])c(C(=O)N([H])[H])c4N([H])[H])C3([H])[H])C([H])([H])C([H])([H])[H])C([H])([H])[H])c([H])c([H])c2C1([H])[H]

>  <smiles>  (72) 
[H]c1c([H])c([H])c2c(c1[H])C([H])([H])C([H])([H])C([H])([H])C2([H])N([H])C(=O)C1([H])N(C(=O)C([H])(N([H])C(=O)C([H])(N([H])C([H])([H])[H])C([H])([H])[H])C(C([H])([H])[H])(C([H])([H])[H])C([H])([H])[H])C([H])([H])c2c([H])c(OC([H])([H])C([H])([H])C([H])([H])N([H])C(=O)C([H])(N(C(=O)N3C([H])([H])C([H])([H])C([H])([H])C([H])(n4nc(-c5c([H])c([H])c(Oc6c([H])c([H])c(F)c([H])c6F)c([H])c5[H])c(C(=O)N([H])[H])c4N([H])[H])C3([H])[H])C([H])([H])C([H])([H])[H])C([H])([H])[H])c([H])c([H])c2C1([H])[H]

$$$$
73:0:0
     RDKit          3D

 91 98  0  0  1  0  0  0  0  0999 V2000
  -29.4640  -20.3580   20.3100 C   0  0  0  0  0  3  0  0  0  0  0  0
  -30.8260  -20.4040   19.7370 N   0  0  0  0  0  4  0  0  0  0  0  0
  -31.1600  -21.3530   19.7790 H   0  0  0  0  0  0  0  0  0  0  0  0
  -31.4390  -19.8440   20.3090 H   0  0  0  0  0  0  0  0  0  0  0  0
  -30.9150  -19.9120   18.3440 C   0  0  0  0  0  2  0  0  0  0  0  0
  -32.0040  -19.9910   16.0940 C   0  0  0  0  0  1  0  0  0  0  0  0
  -31.7010  -22.1190   17.3720 C   0  0  0  0  0  1  0  0  0  0  0  0
  -33.4090  -20.4130   18.1190 C   0  0  0  0  0  1  0  0  0  0  0  0
  -32.0090  -20.6150   17.5030 C   0  0  1  0  0  0  0  0  0  0  0  0
  -29.3100  -17.0570   20.1150 C   0  0  0  0  0  0  0  0  0  0  0  0
  -28.9800  -18.5810   20.1990 C   0  0  0  0  0  0  0  0  0  0  0  0
  -27.4700  -18.8020   20.2190 C   0  0  0  0  0  1  0  0  0  0  0  0
  -30.2940  -15.6680   20.0300 C   0  0  0  0  0  0  0  0  0  0  0  0
  -30.4380  -13.1090   19.2660 C   0  0  0  0  0  2  0  0  0  0  0  0
  -29.5160  -12.7110   18.0740 C   0  0  0  0  0  2  0  0  0  0  0  0
  -28.0960  -12.3660   18.5540 C   0  0  0  0  0  2  0  0  0  0  0  0
  -27.6060  -13.3730   19.6210 C   0  0  0  0  0  3  0  0  0  0  0  0
  -28.6580  -13.6740   20.7100 C   0  0  0  0  0  2  0  0  0  0  0  0
  -29.8320  -14.2800   20.0410 N   0  0  0  0  0  0  0  0  0  0  0  0
  -31.5190  -15.6530   19.8010 O   0  0  0  0  0  0  0  0  0  0  0  0
  -25.2680  -13.9050   20.4630 C   0  0  0  0  0  0  0  0  0  0  0  0
  -24.2170  -13.1250   20.8560 C   0  0  0  0  0  0  0  0  0  0  0  0
  -24.6830  -11.7750   20.7960 C   0  0  0  0  0  0  0  0  0  0  0  0
  -26.3010  -13.0340   20.1730 N   0  0  0  0  0  0  0  0  0  0  0  0
  -25.9660  -11.7450   20.4430 N   0  0  0  0  0  0  0  0  0  0  0  0
  -23.9590  -10.5110   20.9940 C   0  0  0  0  0  0  0  0  0  0  0  0
  -24.4030   -9.5400   21.9170 C   0  0  0  0  0  3  0  0  0  0  0  0
  -23.6740   -8.3450   22.1060 C   0  0  0  0  0  3  0  0  0  0  0  0
  -22.4870   -8.1140   21.3720 C   0  0  0  0  0  0  0  0  0  0  0  0
  -22.0610   -9.0740   20.4390 C   0  0  0  0  0  3  0  0  0  0  0  0
  -22.7890  -10.2590   20.2480 C   0  0  0  0  0  3  0  0  0  0  0  0
  -21.7300   -6.9710   21.4700 O   0  0  0  0  0  0  0  0  0  0  0  0
  -21.6800   -6.2350   22.6260 C   0  0  0  0  0  0  0  0  0  0  0  0
  -21.2270   -6.7910   23.8440 C   0  0  0  0  0  3  0  0  0  0  0  0
  -21.1270   -5.9830   24.9930 C   0  0  0  0  0  3  0  0  0  0  0  0
  -21.4700   -4.6190   24.9270 C   0  0  0  0  0  0  0  0  0  0  0  0
  -21.9150   -4.0620   23.7140 C   0  0  0  0  0  3  0  0  0  0  0  0
  -22.0160   -4.8680   22.5680 C   0  0  0  0  0  0  0  0  0  0  0  0
  -22.4250   -4.3220   21.3970 F   0  0  0  0  0  0  0  0  0  0  0  0
  -21.3660   -3.8400   26.0290 F   0  0  0  0  0  0  0  0  0  0  0  0
  -22.8290  -13.6030   21.1640 C   0  0  0  0  0  0  0  0  0  0  0  0
  -22.1210  -12.9030   22.0420 N   0  0  0  0  0  0  0  0  0  0  0  0
  -22.3830  -14.6350   20.6640 O   0  0  0  0  0  0  0  0  0  0  0  0
  -22.4950  -12.0710   22.4720 H   0  0  0  0  0  0  0  0  0  0  0  0
  -21.1900  -13.2070   22.2920 H   0  0  0  0  0  0  0  0  0  0  0  0
  -25.4240  -15.2770   20.2940 N   0  0  0  0  0  0  0  0  0  0  0  0
  -24.6590  -15.9280   20.4380 H   0  0  0  0  0  0  0  0  0  0  0  0
  -26.2450  -15.7110   19.8950 H   0  0  0  0  0  0  0  0  0  0  0  0
  -28.6490  -22.0850   19.9070 C   0  0  0  0  0  2  0  0  0  0  0  0
  -28.3280  -23.8750   20.5870 C   0  0  0  0  0  2  0  0  0  0  0  0
  -28.2900  -25.6040   20.2360 O   0  0  0  0  0  0  0  0  0  0  0  0
  -24.6170  -31.8230   23.1770 C   0  0  0  0  0  0  0  0  0  0  0  0
  -27.2630  -26.7660   20.2710 C   0  0  0  0  0  0  0  0  0  0  0  0
  -23.4770  -30.4030   21.5260 C   0  0  0  0  0  3  0  0  0  0  0  0
  -24.9680  -28.7620   20.1600 C   0  0  0  0  0  0  0  0  0  0  0  0
  -26.0560  -30.5790   21.4500 C   0  0  0  0  0  2  0  0  0  0  0  0
  -26.1500  -29.1410   20.8090 C   0  0  0  0  0  0  0  0  0  0  0  0
  -27.2850  -28.1750   20.8220 C   0  0  0  0  0  3  0  0  0  0  0  0
  -26.0380  -26.5880   19.5780 C   0  0  0  0  0  3  0  0  0  0  0  0
  -24.9500  -27.5100   19.5220 C   0  0  0  0  0  3  0  0  0  0  0  0
  -23.7520  -29.7010   20.1670 C   0  0  0  0  0  2  0  0  0  0  0  0
  -24.7400  -30.9690   22.1040 N   0  0  0  0  0  0  0  0  0  0  0  0
  -23.5110  -32.1130   23.6650 O   0  0  0  0  0  0  0  0  0  0  0  0
  -22.7540  -29.4230   22.4890 C   0  0  0  0  0  0  0  0  0  0  0  0
  -21.4210  -29.2770   22.3600 N   0  0  0  0  0  0  0  0  0  0  0  0
  -23.4030  -28.7910   23.3260 O   0  0  0  0  0  0  0  0  0  0  0  0
  -20.9470  -29.8380   21.6650 H   0  0  0  0  0  0  0  0  0  0  0  0
  -18.0170  -28.1240   22.8940 C   0  0  0  0  0  0  0  0  0  0  0  0
  -20.5850  -28.3400   23.1230 C   0  0  0  0  0  3  0  0  0  0  0  0
  -20.6510  -26.9200   22.5160 C   0  0  0  0  0  2  0  0  0  0  0  0
  -19.5290  -26.6400   21.5110 C   0  0  0  0  0  2  0  0  0  0  0  0
  -18.1590  -26.7900   22.1800 C   0  0  0  0  0  2  0  0  0  0  0  0
  -19.1540  -28.8590   23.3220 C   0  0  0  0  0  0  0  0  0  0  0  0
  -18.9630  -30.1060   23.9560 C   0  0  0  0  0  3  0  0  0  0  0  0
  -17.6670  -30.6170   24.1630 C   0  0  0  0  0  3  0  0  0  0  0  0
  -16.5460  -29.8790   23.7490 C   0  0  0  0  0  3  0  0  0  0  0  0
  -16.7210  -28.6340   23.1200 C   0  0  0  0  0  3  0  0  0  0  0  0
  -25.8600  -32.4910   23.8400 C   0  0  0  0  0  3  0  0  0  0  0  0
  -25.5220  -33.8960   24.1440 N   0  0  0  0  0  0  0  0  0  0  0  0
  -25.8760  -34.9540   23.4020 C   0  0  0  0  0  0  0  0  0  0  0  0
  -26.5770  -34.8500   22.3920 O   0  0  0  0  0  0  0  0  0  0  0  0
  -24.8990  -34.0480   24.9230 H   0  0  0  0  0  0  0  0  0  0  0  0
  -24.1660  -36.7590   22.9920 C   0  0  0  0  0  1  0  0  0  0  0  0
  -25.3770  -36.3460   23.8440 C   0  0  0  0  0  3  0  0  0  0  0  0
  -27.4780  -37.2380   24.7550 C   0  0  0  0  0  1  0  0  0  0  0  0
  -26.4150  -37.3990   23.7670 N   0  0  0  0  0  0  0  0  0  0  0  0
  -26.0040  -38.3200   23.8910 H   0  0  0  0  0  0  0  0  0  0  0  0
  -26.3250  -31.7570   25.1590 C   0  0  1  0  0  0  0  0  0  0  0  0
  -25.1910  -31.5460   26.1910 C   0  0  0  0  0  1  0  0  0  0  0  0
  -26.9260  -30.3690   24.8400 C   0  0  0  0  0  1  0  0  0  0  0  0
  -27.4480  -32.5710   25.8420 C   0  0  0  0  0  1  0  0  0  0  0  0
  1 49  1  0
  2  3  1  0
  2  4  1  0
  2  1  1  0
  5  2  1  0
  9  6  1  6
  7  9  1  0
  9  8  1  0
  9  5  1  0
 10 11  2  0
 11 12  1  0
 11  1  1  0
 13 19  1  0
 13 10  2  0
 14 19  1  0
 15 16  1  0
 15 14  1  0
 17 16  1  0
 17 24  1  0
 17 18  1  0
 19 18  1  0
 20 13  2  0
 21 22  2  0
 22 41  1  0
 23 22  1  0
 23 26  1  0
 24 25  1  0
 24 21  1  0
 25 23  2  0
 26 27  1  0
 27 28  2  0
 29 32  1  0
 29 28  1  0
 30 29  2  0
 31 30  1  0
 31 26  2  0
 32 33  1  0
 33 34  1  0
 34 35  2  0
 36 35  1  0
 36 40  1  0
 37 36  2  0
 38 33  2  0
 38 37  1  0
 39 38  1  0
 41 42  1  0
 42 45  1  0
 42 44  1  0
 43 41  2  0
 46 47  1  0
 46 21  1  0
 48 46  1  0
 49 50  1  0
 51 53  1  0
 51 50  1  0
 52 63  2  0
 53 58  1  0
 54 62  1  0
 54 64  1  0
 55 61  1  0
 55 57  1  0
 56 62  1  0
 57 58  2  0
 57 56  1  0
 59 53  2  0
 60 59  1  0
 60 55  2  0
 61 54  1  0
 62 52  1  0
 64 66  2  0
 65 64  1  0
 67 65  1  0
 68 77  2  0
 68 73  1  0
 69 65  1  0
 69 73  1  0
 70 69  1  0
 71 72  1  0
 71 70  1  0
 72 68  1  0
 73 74  2  0
 74 75  1  0
 76 75  2  0
 77 76  1  0
 78 52  1  0
 78 79  1  0
 78 88  1  0
 79 82  1  0
 80 84  1  0
 80 79  1  0
 81 80  2  0
 84 83  1  0
 86 84  1  0
 86 87  1  0
 86 85  1  0
 88 91  1  1
 88 89  1  0
 90 88  1  0
M  ISO  4  10 100  13 100  50 101  51 101
M  END
>  <TORSDO>  (73) 
F 22

>  <SCORE>  (73) 
-15.321

>  <name>  (73) 
73

>  <ligand_id>  (73) 
73

>  <original_smiles>  (73) 
[H]C(C(=O)N1C([H])([H])C([H])([H])C([H])([H])C([H])(n2nc(-c3c([H])c([H])c(Oc4c([H])c([H])c(F)c([H])c4F)c([H])c3[H])c(C(=O)N([H])[H])c2N([H])[H])C1([H])[H])=C(C([H])([H])[H])C([H])(C([H])([H])C([H])([H])Oc1c([H])c([H])c2c(c1[H])C([H])([H])N(C(=O)C([H])(N([H])C(=O)C([H])(N([H])C([H])([H])[H])C([H])([H])[H])C(C([H])([H])[H])(C([H])([H])[H])C([H])([H])[H])C([H])(C(=O)N([H])C1([H])c3c([H])c([H])c([H])c([H])c3C([H])([H])C([H])([H])C1([H])[H])C2([H])[H])[N+]([H])([H])C([H])([H])C(C([H])([H])[H])(C([H])([H])[H])C([H])([H])[H]

>  <smiles>  (73) 
[H]C(C(=O)N1C([H])([H])C([H])([H])C([H])([H])C([H])(n2nc(-c3c([H])c([H])c(Oc4c([H])c([H])c(F)c([H])c4F)c([H])c3[H])c(C(=O)N([H])[H])c2N([H])[H])C1([H])[H])=C(C([H])([H])[H])C([H])(C([H])([H])C([H])([H])Oc1c([H])c([H])c2c(c1[H])C([H])([H])N(C(=O)C([H])(N([H])C(=O)C([H])(N([H])C([H])([H])[H])C([H])([H])[H])C(C([H])([H])[H])(C([H])([H])[H])C([H])([H])[H])C([H])(C(=O)N([H])C1([H])c3c([H])c([H])c([H])c([H])c3C([H])([H])C([H])([H])C1([H])[H])C2([H])[H])[N+]([H])([H])C([H])([H])C(C([H])([H])[H])(C([H])([H])[H])C([H])([H])[H]

$$$$
74:0:0
     RDKit          3D

 87 94  0  0  1  0  0  0  0  0999 V2000
  -28.9190  -23.4270   20.3720 C   0  0  0  0  0  3  0  0  0  0  0  0
  -28.7490  -22.0280   20.1760 C   0  0  0  0  0  3  0  0  0  0  0  0
  -30.7150  -21.0320   21.5630 C   0  0  0  0  0  1  0  0  0  0  0  0
  -29.7280  -20.7210   20.4210 C   0  0  0  0  0  3  0  0  0  0  0  0
  -29.2050  -19.2260   20.5430 N   0  0  0  0  0  4  0  0  0  0  0  0
  -28.6980  -19.1640   21.4110 H   0  0  0  0  0  0  0  0  0  0  0  0
  -28.5190  -19.1130   19.8140 H   0  0  0  0  0  0  0  0  0  0  0  0
  -30.1490  -17.9470   20.4530 C   0  0  0  0  0  3  0  0  0  0  0  0
  -29.6110  -16.3630   20.6700 C   0  0  0  0  0  3  0  0  0  0  0  0
  -30.4640  -14.9700   20.3760 C   0  0  0  0  0  0  0  0  0  0  0  0
  -30.3460  -12.6430   19.3730 C   0  0  0  0  0  2  0  0  0  0  0  0
  -29.4030  -12.6670   18.1450 C   0  0  0  0  0  2  0  0  0  0  0  0
  -27.9370  -12.4600   18.5710 C   0  0  0  0  0  2  0  0  0  0  0  0
  -27.5470  -13.3460   19.7810 C   0  0  0  0  0  3  0  0  0  0  0  0
  -28.6060  -13.2980   20.9010 C   0  0  0  0  0  2  0  0  0  0  0  0
  -29.8920  -13.7010   20.3170 N   0  0  0  0  0  0  0  0  0  0  0  0
  -31.6550  -15.0550   20.0550 O   0  0  0  0  0  0  0  0  0  0  0  0
  -25.1630  -13.9210   20.5190 C   0  0  0  0  0  0  0  0  0  0  0  0
  -24.0990  -13.1440   20.8860 C   0  0  0  0  0  0  0  0  0  0  0  0
  -24.5670  -11.7940   20.8550 C   0  0  0  0  0  0  0  0  0  0  0  0
  -26.2080  -13.0460   20.2770 N   0  0  0  0  0  0  0  0  0  0  0  0
  -25.8580  -11.7610   20.5460 N   0  0  0  0  0  0  0  0  0  0  0  0
  -23.8420  -10.5300   21.0430 C   0  0  0  0  0  0  0  0  0  0  0  0
  -24.2750   -9.5620   21.9760 C   0  0  0  0  0  3  0  0  0  0  0  0
  -23.5500   -8.3630   22.1520 C   0  0  0  0  0  3  0  0  0  0  0  0
  -22.3780   -8.1250   21.3950 C   0  0  0  0  0  0  0  0  0  0  0  0
  -21.9640   -9.0830   20.4510 C   0  0  0  0  0  3  0  0  0  0  0  0
  -22.6910  -10.2730   20.2740 C   0  0  0  0  0  3  0  0  0  0  0  0
  -21.6230   -6.9800   21.4800 O   0  0  0  0  0  0  0  0  0  0  0  0
  -21.5740   -6.2340   22.6320 C   0  0  0  0  0  0  0  0  0  0  0  0
  -21.1410   -6.7840   23.8580 C   0  0  0  0  0  3  0  0  0  0  0  0
  -21.0410   -5.9640   24.9990 C   0  0  0  0  0  3  0  0  0  0  0  0
  -21.3640   -4.5960   24.9160 C   0  0  0  0  0  0  0  0  0  0  0  0
  -21.7910   -4.0470   23.6940 C   0  0  0  0  0  3  0  0  0  0  0  0
  -21.8920   -4.8630   22.5550 C   0  0  0  0  0  0  0  0  0  0  0  0
  -22.2830   -4.3240   21.3740 F   0  0  0  0  0  0  0  0  0  0  0  0
  -21.2600   -3.8070   26.0100 F   0  0  0  0  0  0  0  0  0  0  0  0
  -22.7000  -13.6180   21.1540 C   0  0  0  0  0  0  0  0  0  0  0  0
  -21.9730  -12.9220   22.0200 N   0  0  0  0  0  0  0  0  0  0  0  0
  -22.2610  -14.6410   20.6310 O   0  0  0  0  0  0  0  0  0  0  0  0
  -22.3420  -12.0950   22.4660 H   0  0  0  0  0  0  0  0  0  0  0  0
  -21.0350  -13.2220   22.2440 H   0  0  0  0  0  0  0  0  0  0  0  0
  -25.3250  -15.2930   20.3460 N   0  0  0  0  0  0  0  0  0  0  0  0
  -24.5550  -15.9450   20.4570 H   0  0  0  0  0  0  0  0  0  0  0  0
  -26.1730  -15.7330   20.0150 H   0  0  0  0  0  0  0  0  0  0  0  0
  -27.9200  -24.6880   20.0440 C   0  0  0  0  0  2  0  0  0  0  0  0
  -28.2360  -26.1960   20.2580 O   0  0  0  0  0  0  0  0  0  0  0  0
  -24.6250  -31.8900   23.2410 C   0  0  0  0  0  0  0  0  0  0  0  0
  -27.1860  -27.1850   20.1890 C   0  0  0  0  0  0  0  0  0  0  0  0
  -23.4170  -30.4980   21.6050 C   0  0  0  0  0  3  0  0  0  0  0  0
  -24.8570  -28.9290   20.1690 C   0  0  0  0  0  0  0  0  0  0  0  0
  -25.9700  -30.7630   21.4300 C   0  0  0  0  0  2  0  0  0  0  0  0
  -26.0400  -29.3720   20.7750 C   0  0  0  0  0  0  0  0  0  0  0  0
  -27.2050  -28.5170   20.7680 C   0  0  0  0  0  3  0  0  0  0  0  0
  -25.9760  -26.8440   19.5420 C   0  0  0  0  0  3  0  0  0  0  0  0
  -24.8390  -27.6780   19.5370 C   0  0  0  0  0  3  0  0  0  0  0  0
  -23.6310  -29.8240   20.2240 C   0  0  0  0  0  2  0  0  0  0  0  0
  -24.6910  -31.0710   22.1460 N   0  0  0  0  0  0  0  0  0  0  0  0
  -23.5420  -32.1750   23.7740 O   0  0  0  0  0  0  0  0  0  0  0  0
  -22.7410  -29.4890   22.5670 C   0  0  0  0  0  0  0  0  0  0  0  0
  -21.4130  -29.3180   22.4430 N   0  0  0  0  0  0  0  0  0  0  0  0
  -23.4140  -28.8640   23.3900 O   0  0  0  0  0  0  0  0  0  0  0  0
  -20.9270  -29.8730   21.7520 H   0  0  0  0  0  0  0  0  0  0  0  0
  -18.0330  -28.1120   22.9440 C   0  0  0  0  0  0  0  0  0  0  0  0
  -20.5910  -28.3820   23.2160 C   0  0  0  0  0  3  0  0  0  0  0  0
  -20.6980  -26.9490   22.6480 C   0  0  0  0  0  2  0  0  0  0  0  0
  -19.6000  -26.6180   21.6320 C   0  0  0  0  0  2  0  0  0  0  0  0
  -18.2150  -26.7620   22.2730 C   0  0  0  0  0  2  0  0  0  0  0  0
  -19.1490  -28.8800   23.3720 C   0  0  0  0  0  0  0  0  0  0  0  0
  -18.9250  -30.1430   23.9620 C   0  0  0  0  0  3  0  0  0  0  0  0
  -17.6170  -30.6380   24.1270 C   0  0  0  0  0  3  0  0  0  0  0  0
  -16.5160  -29.8690   23.7140 C   0  0  0  0  0  3  0  0  0  0  0  0
  -16.7260  -28.6080   23.1280 C   0  0  0  0  0  3  0  0  0  0  0  0
  -25.9070  -32.5230   23.8620 C   0  0  0  0  0  3  0  0  0  0  0  0
  -25.5980  -33.9220   24.2010 N   0  0  0  0  0  0  0  0  0  0  0  0
  -25.9100  -34.9790   23.4390 C   0  0  0  0  0  0  0  0  0  0  0  0
  -26.5550  -34.8800   22.3920 O   0  0  0  0  0  0  0  0  0  0  0  0
  -25.0220  -34.0720   25.0160 H   0  0  0  0  0  0  0  0  0  0  0  0
  -24.1600  -36.7650   23.1460 C   0  0  0  0  0  1  0  0  0  0  0  0
  -25.4310  -36.3660   23.9130 C   0  0  0  0  0  3  0  0  0  0  0  0
  -27.5870  -37.2650   24.6730 C   0  0  0  0  0  1  0  0  0  0  0  0
  -26.4540  -37.4250   23.7650 N   0  0  0  0  0  0  0  0  0  0  0  0
  -26.0480  -38.3420   23.9230 H   0  0  0  0  0  0  0  0  0  0  0  0
  -26.4230  -31.7510   25.1390 C   0  0  1  0  0  0  0  0  0  0  0  0
  -25.3300  -31.5160   26.2090 C   0  0  0  0  0  1  0  0  0  0  0  0
  -27.0000  -30.3700   24.7510 C   0  0  0  0  0  1  0  0  0  0  0  0
  -27.5780  -32.5410   25.7980 C   0  0  0  0  0  1  0  0  0  0  0  0
  2  1  2  0
  2  4  1  0
  4  5  1  0
  4  3  1  0
  5  6  1  0
  7  5  1  0
  8  5  1  0
  8  9  2  0
 10  9  1  0
 11 16  1  0
 12 13  1  0
 12 11  1  0
 14 13  1  0
 14 21  1  0
 14 15  1  0
 16 10  1  0
 16 15  1  0
 17 10  2  0
 18 19  2  0
 19 38  1  0
 20 19  1  0
 20 23  1  0
 21 18  1  0
 21 22  1  0
 22 20  2  0
 23 24  1  0
 24 25  2  0
 26 29  1  0
 26 25  1  0
 27 26  2  0
 28 27  1  0
 28 23  2  0
 29 30  1  0
 30 31  1  0
 31 32  2  0
 33 32  1  0
 33 37  1  0
 34 33  2  0
 35 30  2  0
 35 34  1  0
 36 35  1  0
 38 39  1  0
 39 42  1  0
 39 41  1  0
 40 38  2  0
 43 44  1  0
 43 18  1  0
 45 43  1  0
 46 47  1  0
 46  1  1  0
 48 59  2  0
 49 47  1  0
 49 54  1  0
 50 58  1  0
 50 60  1  0
 51 57  1  0
 51 53  1  0
 52 58  1  0
 53 52  1  0
 54 53  2  0
 55 49  2  0
 56 55  1  0
 56 51  2  0
 57 50  1  0
 58 48  1  0
 60 62  2  0
 61 60  1  0
 63 61  1  0
 64 73  2  0
 64 69  1  0
 65 61  1  0
 65 69  1  0
 66 65  1  0
 67 68  1  0
 67 66  1  0
 68 64  1  0
 69 70  2  0
 70 71  1  0
 72 71  2  0
 73 72  1  0
 74 48  1  0
 74 75  1  0
 74 84  1  0
 75 78  1  0
 76 80  1  0
 76 75  1  0
 77 76  2  0
 80 79  1  0
 82 80  1  0
 82 83  1  0
 82 81  1  0
 84 87  1  1
 84 85  1  0
 86 84  1  0
M  ISO  4   9 100  10 100  46 101  47 101
M  END
>  <TORSDO>  (74) 
F 21

>  <SCORE>  (74) 
-13.353

>  <name>  (74) 
74

>  <ligand_id>  (74) 
74

>  <original_smiles>  (74) 
[H]C(=C([H])C([H])(C([H])([H])[H])[N+]([H])([H])C([H])([H])C([H])([H])C(=O)N1C([H])([H])C([H])([H])C([H])([H])C([H])(n2nc(-c3c([H])c([H])c(Oc4c([H])c([H])c(F)c([H])c4F)c([H])c3[H])c(C(=O)N([H])[H])c2N([H])[H])C1([H])[H])C([H])([H])Oc1c([H])c([H])c2c(c1[H])C([H])([H])N(C(=O)C([H])(N([H])C(=O)C([H])(N([H])C([H])([H])[H])C([H])([H])[H])C(C([H])([H])[H])(C([H])([H])[H])C([H])([H])[H])C([H])(C(=O)N([H])C1([H])c3c([H])c([H])c([H])c([H])c3C([H])([H])C([H])([H])C1([H])[H])C2([H])[H]

>  <smiles>  (74) 
[H]C(=C([H])C([H])(C([H])([H])[H])[N+]([H])([H])C([H])([H])C([H])([H])C(=O)N1C([H])([H])C([H])([H])C([H])([H])C([H])(n2nc(-c3c([H])c([H])c(Oc4c([H])c([H])c(F)c([H])c4F)c([H])c3[H])c(C(=O)N([H])[H])c2N([H])[H])C1([H])[H])C([H])([H])Oc1c([H])c([H])c2c(c1[H])C([H])([H])N(C(=O)C([H])(N([H])C(=O)C([H])(N([H])C([H])([H])[H])C([H])([H])[H])C(C([H])([H])[H])(C([H])([H])[H])C([H])([H])[H])C([H])(C(=O)N([H])C1([H])c3c([H])c([H])c([H])c([H])c3C([H])([H])C([H])([H])C1([H])[H])C2([H])[H]

$$$$
75:0:0
     RDKit          3D

 88 96  0  0  1  0  0  0  0  0999 V2000
  -28.4270  -21.4570   20.6390 N   0  0  0  0  0  4  0  0  0  0  0  0
  -28.2940  -21.4350   21.6380 H   0  0  0  0  0  0  0  0  0  0  0  0
  -27.4940  -21.3950   20.2590 H   0  0  0  0  0  0  0  0  0  0  0  0
  -30.5160  -15.1950   20.2960 C   0  0  0  0  0  0  0  0  0  0  0  0
  -30.3760  -12.8050   19.3580 C   0  0  0  0  0  2  0  0  0  0  0  0
  -29.4420  -12.6300   18.1390 C   0  0  0  0  0  2  0  0  0  0  0  0
  -28.0000  -12.3760   18.6050 C   0  0  0  0  0  2  0  0  0  0  0  0
  -27.5710  -13.3400   19.7410 C   0  0  0  0  0  3  0  0  0  0  0  0
  -28.6350  -13.4810   20.8520 C   0  0  0  0  0  2  0  0  0  0  0  0
  -29.8640  -13.9450   20.1990 N   0  0  0  0  0  0  0  0  0  0  0  0
  -31.7380  -15.1150   20.0970 O   0  0  0  0  0  0  0  0  0  0  0  0
  -28.1280  -18.6930   20.2560 C   0  0  0  0  0  2  0  0  0  0  0  0
  -30.2020  -19.2830   21.1030 C   0  0  0  0  0  2  0  0  0  0  0  0
  -28.6400  -17.1440   19.9250 C   0  0  0  0  0  2  0  0  0  0  0  0
  -30.7830  -17.7880   20.6990 C   0  0  0  0  0  2  0  0  0  0  0  0
  -29.0780  -20.0060   20.2220 C   0  0  0  0  0  3  0  0  0  0  0  0
  -29.9200  -16.5350   20.4850 N   0  0  0  0  0  0  0  0  0  0  0  0
  -25.2100  -13.8850   20.5360 C   0  0  0  0  0  0  0  0  0  0  0  0
  -24.1560  -13.0990   20.9110 C   0  0  0  0  0  0  0  0  0  0  0  0
  -24.6290  -11.7530   20.8590 C   0  0  0  0  0  0  0  0  0  0  0  0
  -26.2540  -13.0170   20.2680 N   0  0  0  0  0  0  0  0  0  0  0  0
  -25.9160  -11.7270   20.5310 N   0  0  0  0  0  0  0  0  0  0  0  0
  -23.9100  -10.4840   21.0380 C   0  0  0  0  0  0  0  0  0  0  0  0
  -24.3360   -9.5180   21.9740 C   0  0  0  0  0  3  0  0  0  0  0  0
  -23.6120   -8.3180   22.1450 C   0  0  0  0  0  3  0  0  0  0  0  0
  -22.4470   -8.0770   21.3780 C   0  0  0  0  0  0  0  0  0  0  0  0
  -22.0410   -9.0330   20.4290 C   0  0  0  0  0  3  0  0  0  0  0  0
  -22.7670  -10.2230   20.2570 C   0  0  0  0  0  3  0  0  0  0  0  0
  -21.6950   -6.9310   21.4580 O   0  0  0  0  0  0  0  0  0  0  0  0
  -21.6090   -6.2030   22.6180 C   0  0  0  0  0  0  0  0  0  0  0  0
  -21.1110   -6.7650   23.8140 C   0  0  0  0  0  3  0  0  0  0  0  0
  -20.9780   -5.9650   24.9660 C   0  0  0  0  0  3  0  0  0  0  0  0
  -21.3310   -4.6010   24.9220 C   0  0  0  0  0  0  0  0  0  0  0  0
  -21.8220   -4.0400   23.7300 C   0  0  0  0  0  3  0  0  0  0  0  0
  -21.9590   -4.8400   22.5810 C   0  0  0  0  0  0  0  0  0  0  0  0
  -22.4130   -4.2870   21.4290 F   0  0  0  0  0  0  0  0  0  0  0  0
  -21.1950   -3.8300   26.0250 F   0  0  0  0  0  0  0  0  0  0  0  0
  -22.7620  -13.5680   21.1990 C   0  0  0  0  0  0  0  0  0  0  0  0
  -22.0420  -12.8590   22.0640 N   0  0  0  0  0  0  0  0  0  0  0  0
  -22.3200  -14.6000   20.6990 O   0  0  0  0  0  0  0  0  0  0  0  0
  -22.4100  -12.0190   22.4860 H   0  0  0  0  0  0  0  0  0  0  0  0
  -21.1090  -13.1610   22.3050 H   0  0  0  0  0  0  0  0  0  0  0  0
  -25.3570  -15.2570   20.3670 N   0  0  0  0  0  0  0  0  0  0  0  0
  -24.5770  -15.8960   20.4770 H   0  0  0  0  0  0  0  0  0  0  0  0
  -26.1810  -15.7050   19.9920 H   0  0  0  0  0  0  0  0  0  0  0  0
  -28.8550  -22.9880   20.2630 C   0  0  0  0  0  3  0  0  0  0  0  0
  -27.8740  -24.4330   20.4390 C   0  0  0  0  0  3  0  0  0  0  0  0
  -28.1840  -26.0100   20.2860 O   0  0  0  0  0  0  0  0  0  0  0  0
  -24.6290  -31.8790   23.2430 C   0  0  0  0  0  0  0  0  0  0  0  0
  -27.1660  -27.0670   20.2330 C   0  0  0  0  0  0  0  0  0  0  0  0
  -23.4250  -30.4880   21.6050 C   0  0  0  0  0  3  0  0  0  0  0  0
  -24.8690  -28.9010   20.1770 C   0  0  0  0  0  0  0  0  0  0  0  0
  -25.9870  -30.7190   21.4480 C   0  0  0  0  0  2  0  0  0  0  0  0
  -26.0540  -29.3170   20.7940 C   0  0  0  0  0  0  0  0  0  0  0  0
  -27.2030  -28.4200   20.7990 C   0  0  0  0  0  3  0  0  0  0  0  0
  -25.9560  -26.7870   19.5580 C   0  0  0  0  0  3  0  0  0  0  0  0
  -24.8400  -27.6530   19.5370 C   0  0  0  0  0  3  0  0  0  0  0  0
  -23.6500  -29.8160   20.2250 C   0  0  0  0  0  2  0  0  0  0  0  0
  -24.7010  -31.0510   22.1550 N   0  0  0  0  0  0  0  0  0  0  0  0
  -23.5430  -32.1690   23.7710 O   0  0  0  0  0  0  0  0  0  0  0  0
  -22.7390  -29.4820   22.5690 C   0  0  0  0  0  0  0  0  0  0  0  0
  -21.4120  -29.3120   22.4440 N   0  0  0  0  0  0  0  0  0  0  0  0
  -23.4090  -28.8590   23.3970 O   0  0  0  0  0  0  0  0  0  0  0  0
  -20.9280  -29.8700   21.7540 H   0  0  0  0  0  0  0  0  0  0  0  0
  -18.0310  -28.1040   22.9440 C   0  0  0  0  0  0  0  0  0  0  0  0
  -20.5910  -28.3750   23.2140 C   0  0  0  0  0  3  0  0  0  0  0  0
  -20.6950  -26.9410   22.6460 C   0  0  0  0  0  2  0  0  0  0  0  0
  -19.5970  -26.6140   21.6300 C   0  0  0  0  0  2  0  0  0  0  0  0
  -18.2130  -26.7540   22.2710 C   0  0  0  0  0  2  0  0  0  0  0  0
  -19.1470  -28.8710   23.3720 C   0  0  0  0  0  0  0  0  0  0  0  0
  -18.9230  -30.1300   23.9670 C   0  0  0  0  0  3  0  0  0  0  0  0
  -17.6160  -30.6260   24.1360 C   0  0  0  0  0  3  0  0  0  0  0  0
  -16.5140  -29.8560   23.7250 C   0  0  0  0  0  3  0  0  0  0  0  0
  -16.7230  -28.5980   23.1330 C   0  0  0  0  0  3  0  0  0  0  0  0
  -25.9060  -32.5150   23.8690 C   0  0  0  0  0  3  0  0  0  0  0  0
  -25.5950  -33.9160   24.2010 N   0  0  0  0  0  0  0  0  0  0  0  0
  -25.9230  -34.9730   23.4460 C   0  0  0  0  0  0  0  0  0  0  0  0
  -26.5810  -34.8730   22.4080 O   0  0  0  0  0  0  0  0  0  0  0  0
  -25.0150  -34.0710   25.0110 H   0  0  0  0  0  0  0  0  0  0  0  0
  -24.1990  -36.7790   23.1070 C   0  0  0  0  0  1  0  0  0  0  0  0
  -25.4390  -36.3620   23.9130 C   0  0  0  0  0  3  0  0  0  0  0  0
  -27.5750  -37.2430   24.7420 C   0  0  0  0  0  1  0  0  0  0  0  0
  -26.4730  -37.4130   23.8000 N   0  0  0  0  0  0  0  0  0  0  0  0
  -26.0700  -38.3340   23.9520 H   0  0  0  0  0  0  0  0  0  0  0  0
  -26.4140  -31.7510   25.1560 C   0  0  1  0  0  0  0  0  0  0  0  0
  -25.3150  -31.5280   26.2200 C   0  0  0  0  0  1  0  0  0  0  0  0
  -26.9950  -30.3690   24.7820 C   0  0  0  0  0  1  0  0  0  0  0  0
  -27.5610  -32.5500   25.8190 C   0  0  0  0  0  1  0  0  0  0  0  0
  1  2  1  0
  3  1  1  0
  4 17  1  0
  5 10  1  0
  6  7  1  0
  6  5  1  0
  8  7  1  0
  8 21  1  0
  8  9  1  0
 10  4  1  0
 10  9  1  0
 11  4  2  0
 14 12  1  0
 14 17  1  0
 15 13  1  0
 16 12  1  0
 16  1  1  0
 16 13  1  0
 17 15  1  0
 18 19  2  0
 19 38  1  0
 20 19  1  0
 20 23  1  0
 21 22  1  0
 21 18  1  0
 22 20  2  0
 23 24  1  0
 24 25  2  0
 26 29  1  0
 26 25  1  0
 27 26  2  0
 28 27  1  0
 28 23  2  0
 29 30  1  0
 30 31  1  0
 31 32  2  0
 33 32  1  0
 33 37  1  0
 34 33  2  0
 35 30  2  0
 35 34  1  0
 36 35  1  0
 38 39  1  0
 39 42  1  0
 39 41  1  0
 40 38  2  0
 43 44  1  0
 43 18  1  0
 45 43  1  0
 46 47  2  0
 46  1  1  0
 48 47  1  0
 49 60  2  0
 50 48  1  0
 50 55  1  0
 51 59  1  0
 51 61  1  0
 52 58  1  0
 52 54  1  0
 53 59  1  0
 54 55  2  0
 54 53  1  0
 56 50  2  0
 57 56  1  0
 57 52  2  0
 58 51  1  0
 59 49  1  0
 61 63  2  0
 62 61  1  0
 64 62  1  0
 65 74  2  0
 65 70  1  0
 66 62  1  0
 66 70  1  0
 67 66  1  0
 68 69  1  0
 68 67  1  0
 69 65  1  0
 70 71  2  0
 71 72  1  0
 73 72  2  0
 74 73  1  0
 75 49  1  0
 75 76  1  0
 75 85  1  0
 76 79  1  0
 77 81  1  0
 77 76  1  0
 78 77  2  0
 81 80  1  0
 83 81  1  0
 83 84  1  0
 83 82  1  0
 85 88  1  1
 85 86  1  0
 87 85  1  0
M  ISO  4   4 100  17 100  47 101  48 101
M  END
>  <TORSDO>  (75) 
F 18

>  <SCORE>  (75) 
-15.515

>  <name>  (75) 
75

>  <ligand_id>  (75) 
75

>  <original_smiles>  (75) 
[H]c1c([H])c([H])c2c(c1[H])C([H])([H])C([H])([H])C([H])([H])C2([H])N([H])C(=O)C1([H])N(C(=O)C([H])(N([H])C(=O)C([H])(N([H])C([H])([H])[H])C([H])([H])[H])C(C([H])([H])[H])(C([H])([H])[H])C([H])([H])[H])C([H])([H])c2c([H])c(OC([H])([H])C([H])([H])[N+]([H])([H])C3([H])C([H])([H])C([H])([H])N(C(=O)N4C([H])([H])C([H])([H])C([H])([H])C([H])(n5nc(-c6c([H])c([H])c(Oc7c([H])c([H])c(F)c([H])c7F)c([H])c6[H])c(C(=O)N([H])[H])c5N([H])[H])C4([H])[H])C([H])([H])C3([H])[H])c([H])c([H])c2C1([H])[H]

>  <smiles>  (75) 
[H]c1c([H])c([H])c2c(c1[H])C([H])([H])C([H])([H])C([H])([H])C2([H])N([H])C(=O)C1([H])N(C(=O)C([H])(N([H])C(=O)C([H])(N([H])C([H])([H])[H])C([H])([H])[H])C(C([H])([H])[H])(C([H])([H])[H])C([H])([H])[H])C([H])([H])c2c([H])c(OC([H])([H])C([H])([H])[N+]([H])([H])C3([H])C([H])([H])C([H])([H])N(C(=O)N4C([H])([H])C([H])([H])C([H])([H])C([H])(n5nc(-c6c([H])c([H])c(Oc7c([H])c([H])c(F)c([H])c7F)c([H])c6[H])c(C(=O)N([H])[H])c5N([H])[H])C4([H])[H])C([H])([H])C3([H])[H])c([H])c([H])c2C1([H])[H]

$$$$
76:0:0
     RDKit          3D

 95103  0  0  1  0  0  0  0  0999 V2000
  -30.1670  -20.5150   19.1030 C   0  0  0  0  0  2  0  0  0  0  0  0
  -28.5660  -21.3800   17.3920 C   0  0  0  0  0  1  0  0  0  0  0  0
  -29.9870  -21.1630   17.7690 N   0  0  2  0  0  4  0  0  0  0  0  0
  -30.3970  -22.0810   17.8590 H   0  0  0  0  0  0  0  0  0  0  0  0
  -30.7400  -20.4560   16.6900 C   0  0  0  0  0  2  0  0  0  0  0  0
  -32.0330  -21.1660   16.2310 C   0  0  0  0  0  2  0  0  0  0  0  0
  -31.8780  -22.6530   15.8720 C   0  0  0  0  0  2  0  0  0  0  0  0
  -32.3590  -22.9000   14.5430 O   0  0  0  0  0  0  0  0  0  0  0  0
  -30.4810  -28.6870   10.8660 C   0  0  0  0  0  0  0  0  0  0  0  0
  -31.4650  -23.4530   13.6520 C   0  0  0  0  0  0  0  0  0  0  0  0
  -28.8250  -26.8520   10.9050 C   0  0  0  0  0  3  0  0  0  0  0  0
  -29.6620  -24.6270   11.8180 C   0  0  0  0  0  0  0  0  0  0  0  0
  -31.3250  -26.3600   11.1350 C   0  0  0  0  0  2  0  0  0  0  0  0
  -30.9490  -25.1550   11.9700 C   0  0  0  0  0  0  0  0  0  0  0  0
  -31.8560  -24.5680   12.8810 C   0  0  0  0  0  3  0  0  0  0  0  0
  -30.1710  -22.9130   13.4620 C   0  0  0  0  0  3  0  0  0  0  0  0
  -29.2670  -23.5040   12.5630 C   0  0  0  0  0  3  0  0  0  0  0  0
  -28.7500  -25.3060   10.8220 C   0  0  0  0  0  2  0  0  0  0  0  0
  -30.2350  -27.3540   10.9910 N   0  0  0  0  0  0  0  0  0  0  0  0
  -29.5650  -29.4900   10.6420 O   0  0  0  0  0  0  0  0  0  0  0  0
  -27.9310  -27.3300   12.0730 C   0  0  0  0  0  0  0  0  0  0  0  0
  -26.6100  -27.1450   11.9300 N   0  0  0  0  0  0  0  0  0  0  0  0
  -28.4290  -27.8270   13.0870 O   0  0  0  0  0  0  0  0  0  0  0  0
  -26.2800  -26.7370   11.0660 H   0  0  0  0  0  0  0  0  0  0  0  0
  -23.0440  -27.2120   12.5080 C   0  0  0  0  0  0  0  0  0  0  0  0
  -25.5830  -27.4850   12.9130 C   0  0  0  0  0  3  0  0  0  0  0  0
  -25.4310  -26.3650   13.9700 C   0  0  0  0  0  2  0  0  0  0  0  0
  -24.3450  -25.3450   13.6140 C   0  0  0  0  0  2  0  0  0  0  0  0
  -22.9860  -26.0350   13.4660 C   0  0  0  0  0  2  0  0  0  0  0  0
  -24.2660  -27.8830   12.2360 C   0  0  0  0  0  0  0  0  0  0  0  0
  -24.2720  -28.9480   11.3100 C   0  0  0  0  0  3  0  0  0  0  0  0
  -23.0870  -29.3480   10.6650 C   0  0  0  0  0  3  0  0  0  0  0  0
  -21.8770  -28.6900   10.9490 C   0  0  0  0  0  3  0  0  0  0  0  0
  -21.8570  -27.6290   11.8710 C   0  0  0  0  0  3  0  0  0  0  0  0
  -31.9260  -29.2650   10.9730 C   0  0  0  0  0  3  0  0  0  0  0  0
  -32.2720  -29.8190   12.4110 C   0  0  1  0  0  0  0  0  0  0  0  0
  -31.0280  -30.2090   13.2420 C   0  0  0  0  0  1  0  0  0  0  0  0
  -33.0710  -28.7720   13.2190 C   0  0  0  0  0  1  0  0  0  0  0  0
  -33.1780  -31.0670   12.2870 C   0  0  0  0  0  1  0  0  0  0  0  0
  -32.0530  -30.3250    9.9640 N   0  0  0  0  0  0  0  0  0  0  0  0
  -32.4220  -30.1230    8.6920 C   0  0  0  0  0  0  0  0  0  0  0  0
  -32.7650  -29.0180    8.2610 O   0  0  0  0  0  0  0  0  0  0  0  0
  -31.7320  -31.2440   10.2300 H   0  0  0  0  0  0  0  0  0  0  0  0
  -31.1380  -31.3120    6.8840 C   0  0  0  0  0  1  0  0  0  0  0  0
  -32.4080  -31.3410    7.7490 C   0  0  0  0  0  3  0  0  0  0  0  0
  -34.8020  -31.8620    7.5800 C   0  0  0  0  0  1  0  0  0  0  0  0
  -33.5990  -31.4240    6.8750 N   0  0  0  0  0  0  0  0  0  0  0  0
  -33.4350  -32.0630    6.1030 H   0  0  0  0  0  0  0  0  0  0  0  0
  -28.9090  -20.5020   20.0070 C   0  0  0  0  0  2  0  0  0  0  0  0
  -28.4360  -19.0790   20.3650 C   0  0  0  0  0  2  0  0  0  0  0  0
  -29.1320  -17.9690   19.5550 C   0  0  0  0  0  2  0  0  0  0  0  0
  -29.7170  -16.8670   20.4640 C   0  0  0  0  0  2  0  0  0  0  0  0
  -32.0600  -17.1890   19.8730 C   0  0  0  0  0  0  0  0  0  0  0  0
  -34.3480  -17.5740   19.0180 C   0  0  0  0  0  2  0  0  0  0  0  0
  -34.3930  -18.6680   17.9360 C   0  0  0  0  0  2  0  0  0  0  0  0
  -34.1470  -18.0590   16.5460 C   0  0  0  0  0  2  0  0  0  0  0  0
  -32.8770  -17.1730   16.5160 C   0  0  0  0  0  3  0  0  0  0  0  0
  -32.8570  -16.1750   17.6920 C   0  0  0  0  0  2  0  0  0  0  0  0
  -33.0390  -16.9000   18.9660 N   0  0  0  0  0  0  0  0  0  0  0  0
  -32.1750  -18.1280   20.6700 O   0  0  0  0  0  0  0  0  0  0  0  0
  -31.0050  -16.3310   19.9700 N   0  0  0  0  0  0  0  0  0  0  0  0
  -31.4200  -12.0820   19.9530 C   0  0  0  0  0  3  0  0  0  0  0  0
  -32.2310  -12.8560   20.8010 C   0  0  0  0  0  3  0  0  0  0  0  0
  -30.4680  -12.7100   19.1270 C   0  0  0  0  0  3  0  0  0  0  0  0
  -32.1000  -14.2580   20.8170 C   0  0  0  0  0  3  0  0  0  0  0  0
  -30.3360  -14.1110   19.1410 C   0  0  0  0  0  3  0  0  0  0  0  0
  -31.1560  -14.9030   19.9800 C   0  0  0  0  0  0  0  0  0  0  0  0
  -31.9680  -16.8300   14.1290 C   0  0  0  0  0  0  0  0  0  0  0  0
  -32.2500  -15.8980   13.1680 C   0  0  0  0  0  0  0  0  0  0  0  0
  -33.2090  -15.0110   13.7470 C   0  0  0  0  0  0  0  0  0  0  0  0
  -32.7380  -16.4880   15.2310 N   0  0  0  0  0  0  0  0  0  0  0  0
  -33.4470  -15.3510   15.0070 N   0  0  0  0  0  0  0  0  0  0  0  0
  -33.9560  -13.8930   13.1570 C   0  0  0  0  0  0  0  0  0  0  0  0
  -33.9130  -12.5970   13.7190 C   0  0  0  0  0  3  0  0  0  0  0  0
  -34.6260  -11.5350   13.1230 C   0  0  0  0  0  3  0  0  0  0  0  0
  -35.3870  -11.7590   11.9510 C   0  0  0  0  0  0  0  0  0  0  0  0
  -35.4440  -13.0560   11.4080 C   0  0  0  0  0  3  0  0  0  0  0  0
  -34.7370  -14.1130   12.0060 C   0  0  0  0  0  3  0  0  0  0  0  0
  -36.1330  -10.7940   11.3180 O   0  0  0  0  0  0  0  0  0  0  0  0
  -35.6470   -9.5260   11.1180 C   0  0  0  0  0  0  0  0  0  0  0  0
  -34.6990   -9.2410   10.1120 C   0  0  0  0  0  3  0  0  0  0  0  0
  -34.2800   -7.9140    9.8950 C   0  0  0  0  0  3  0  0  0  0  0  0
  -34.8140   -6.8700   10.6750 C   0  0  0  0  0  0  0  0  0  0  0  0
  -35.7620   -7.1510   11.6740 C   0  0  0  0  0  3  0  0  0  0  0  0
  -36.1800   -8.4760   11.8920 C   0  0  0  0  0  0  0  0  0  0  0  0
  -37.1090   -8.7390   12.8420 F   0  0  0  0  0  0  0  0  0  0  0  0
  -34.4180   -5.5930   10.4620 F   0  0  0  0  0  0  0  0  0  0  0  0
  -31.7330  -15.8810   11.7580 C   0  0  0  0  0  0  0  0  0  0  0  0
  -31.2380  -14.7360   11.3010 N   0  0  0  0  0  0  0  0  0  0  0  0
  -31.7210  -16.9000   11.0680 O   0  0  0  0  0  0  0  0  0  0  0  0
  -31.2280  -13.9050   11.8730 H   0  0  0  0  0  0  0  0  0  0  0  0
  -30.8620  -14.6900   10.3640 H   0  0  0  0  0  0  0  0  0  0  0  0
  -31.1390  -17.9490   14.1540 N   0  0  0  0  0  0  0  0  0  0  0  0
  -30.6100  -18.2470   13.3410 H   0  0  0  0  0  0  0  0  0  0  0  0
  -31.0430  -18.5750   14.9430 H   0  0  0  0  0  0  0  0  0  0  0  0
  1 49  1  0
  2  3  1  0
  3  4  1  1
  3  1  1  0
  5  3  1  0
  6  5  1  0
  7  6  1  0
  8  7  1  0
  9 19  1  0
 10  8  1  0
 11 19  1  0
 11 21  1  0
 12 14  2  0
 12 17  1  0
 13 14  1  0
 14 15  1  0
 15 10  2  0
 16 10  1  0
 17 16  2  0
 18 11  1  0
 18 12  1  0
 19 13  1  0
 20  9  2  0
 21 23  2  0
 22 21  1  0
 24 22  1  0
 25 29  1  0
 26 22  1  0
 26 27  1  0
 28 27  1  0
 29 28  1  0
 30 25  1  0
 30 26  1  0
 31 30  2  0
 32 33  2  0
 32 31  1  0
 33 34  1  0
 34 25  2  0
 35  9  1  0
 35 36  1  0
 36 38  1  1
 36 37  1  0
 39 36  1  0
 40 43  1  0
 40 35  1  0
 41 40  1  0
 42 41  2  0
 45 44  1  0
 45 41  1  0
 47 46  1  0
 47 45  1  0
 48 47  1  0
 49 50  1  0
 51 50  1  0
 51 52  1  0
 53 61  1  0
 53 60  2  0
 55 54  1  0
 56 55  1  0
 57 71  1  0
 57 56  1  0
 57 58  1  0
 58 59  1  0
 59 54  1  0
 59 53  1  0
 61 67  1  0
 61 52  1  0
 62 63  1  0
 63 65  2  0
 64 66  1  0
 64 62  2  0
 66 67  2  0
 67 65  1  0
 68 93  1  0
 68 71  1  0
 69 70  1  0
 69 68  2  0
 70 72  2  0
 72 71  1  0
 73 74  1  0
 73 70  1  0
 75 74  2  0
 76 75  1  0
 77 76  2  0
 77 78  1  0
 78 73  2  0
 79 76  1  0
 80 79  1  0
 80 85  1  0
 81 80  2  0
 82 81  1  0
 82 83  2  0
 83 84  1  0
 84 85  2  0
 85 86  1  0
 87 83  1  0
 88 69  1  0
 89 88  1  0
 89 91  1  0
 90 88  2  0
 92 89  1  0
 93 95  1  0
 94 93  1  0
M  ISO  4   7 101   8 101  53 100  61 100
M  END
>  <TORSDO>  (76) 
F 25

>  <SCORE>  (76) 
-4.931

>  <name>  (76) 
76

>  <ligand_id>  (76) 
76

>  <original_smiles>  (76) 
[H]c1c([H])c([H])c(N(C(=O)N2C([H])([H])C([H])([H])C([H])([H])C([H])(n3nc(-c4c([H])c([H])c(Oc5c([H])c([H])c(F)c([H])c5F)c([H])c4[H])c(C(=O)N([H])[H])c3N([H])[H])C2([H])[H])C([H])([H])C([H])([H])C([H])([H])C([H])([H])C([H])([H])[N+]([H])(C([H])([H])[H])C([H])([H])C([H])([H])C([H])([H])Oc2c([H])c([H])c3c(c2[H])C([H])([H])N(C(=O)C([H])(N([H])C(=O)C([H])(N([H])C([H])([H])[H])C([H])([H])[H])C(C([H])([H])[H])(C([H])([H])[H])C([H])([H])[H])C([H])(C(=O)N([H])C2([H])c4c([H])c([H])c([H])c([H])c4C([H])([H])C([H])([H])C2([H])[H])C3([H])[H])c([H])c1[H]

>  <smiles>  (76) 
[H]c1c([H])c([H])c(N(C(=O)N2C([H])([H])C([H])([H])C([H])([H])C([H])(n3nc(-c4c([H])c([H])c(Oc5c([H])c([H])c(F)c([H])c5F)c([H])c4[H])c(C(=O)N([H])[H])c3N([H])[H])C2([H])[H])C([H])([H])C([H])([H])C([H])([H])C([H])([H])C([H])([H])[N+]([H])(C([H])([H])[H])C([H])([H])C([H])([H])C([H])([H])Oc2c([H])c([H])c3c(c2[H])C([H])([H])N(C(=O)C([H])(N([H])C(=O)C([H])(N([H])C([H])([H])[H])C([H])([H])[H])C(C([H])([H])[H])(C([H])([H])[H])C([H])([H])[H])C([H])(C(=O)N([H])C2([H])c4c([H])c([H])c([H])c([H])c4C([H])([H])C([H])([H])C2([H])[H])C3([H])[H])c([H])c1[H]

$$$$
77:0:0
     RDKit          3D

 95102  0  0  1  0  0  0  0  0999 V2000
  -28.0130  -21.7270   21.8260 C   0  0  0  0  0  1  0  0  0  0  0  0
  -29.4760  -21.7600   21.3030 C   0  0  0  0  0  3  0  0  0  0  0  0
  -30.3420  -20.6480   21.8060 N   0  0  0  0  0  4  0  0  0  0  0  0
  -31.2060  -20.7080   21.2890 H   0  0  0  0  0  0  0  0  0  0  0  0
  -30.5700  -20.8020   22.7750 H   0  0  0  0  0  0  0  0  0  0  0  0
  -29.8120  -19.2660   21.6300 C   0  0  0  0  0  2  0  0  0  0  0  0
  -30.8960  -18.1470   21.5190 C   0  0  0  0  0  2  0  0  0  0  0  0
  -30.2980  -16.7140   21.2780 C   0  0  0  0  0  2  0  0  0  0  0  0
  -31.5710  -14.7450   20.5020 C   0  0  0  0  0  0  0  0  0  0  0  0
  -31.2550  -12.4680   19.6110 C   0  0  0  0  0  2  0  0  0  0  0  0
  -30.3700  -12.4620   18.3440 C   0  0  0  0  0  2  0  0  0  0  0  0
  -28.8750  -12.4550   18.7030 C   0  0  0  0  0  2  0  0  0  0  0  0
  -28.4970  -13.4910   19.7900 C   0  0  0  0  0  3  0  0  0  0  0  0
  -29.4750  -13.4050   20.9840 C   0  0  0  0  0  2  0  0  0  0  0  0
  -30.8340  -13.5990   20.4580 N   0  0  0  0  0  0  0  0  0  0  0  0
  -32.7930  -14.7370   20.3380 O   0  0  0  0  0  0  0  0  0  0  0  0
  -30.8870  -15.8860   20.1830 N   0  0  0  0  0  0  0  0  0  0  0  0
  -26.1130  -14.2920   20.3530 C   0  0  0  0  0  0  0  0  0  0  0  0
  -24.9690  -13.6090   20.6660 C   0  0  0  0  0  0  0  0  0  0  0  0
  -25.3310  -12.2260   20.6930 C   0  0  0  0  0  0  0  0  0  0  0  0
  -27.1040  -13.3340   20.2060 N   0  0  0  0  0  0  0  0  0  0  0  0
  -26.6330  -12.0900   20.4770 N   0  0  0  0  0  0  0  0  0  0  0  0
  -24.5060  -11.0240   20.8490 C   0  0  0  0  0  0  0  0  0  0  0  0
  -24.8240  -10.0340   21.8060 C   0  0  0  0  0  3  0  0  0  0  0  0
  -24.0100   -8.8900   21.9500 C   0  0  0  0  0  3  0  0  0  0  0  0
  -22.8600   -8.7310   21.1410 C   0  0  0  0  0  0  0  0  0  0  0  0
  -22.5630   -9.7070   20.1730 C   0  0  0  0  0  3  0  0  0  0  0  0
  -23.3780  -10.8400   20.0270 C   0  0  0  0  0  3  0  0  0  0  0  0
  -22.0240   -7.6440   21.1980 O   0  0  0  0  0  0  0  0  0  0  0  0
  -21.8610   -6.9210   22.3540 C   0  0  0  0  0  0  0  0  0  0  0  0
  -21.4030   -7.5160   23.5490 C   0  0  0  0  0  3  0  0  0  0  0  0
  -21.1840   -6.7230   24.6930 C   0  0  0  0  0  3  0  0  0  0  0  0
  -21.4090   -5.3340   24.6400 C   0  0  0  0  0  0  0  0  0  0  0  0
  -21.8600   -4.7370   23.4490 C   0  0  0  0  0  3  0  0  0  0  0  0
  -22.0800   -5.5280   22.3080 C   0  0  0  0  0  0  0  0  0  0  0  0
  -22.4950   -4.9440   21.1570 F   0  0  0  0  0  0  0  0  0  0  0  0
  -21.1900   -4.5720   25.7360 F   0  0  0  0  0  0  0  0  0  0  0  0
  -23.5920  -14.1890   20.8320 C   0  0  0  0  0  0  0  0  0  0  0  0
  -22.7640  -13.5830   21.6720 N   0  0  0  0  0  0  0  0  0  0  0  0
  -23.2590  -15.2190   20.2440 O   0  0  0  0  0  0  0  0  0  0  0  0
  -23.0360  -12.7500   22.1750 H   0  0  0  0  0  0  0  0  0  0  0  0
  -21.8380  -13.9620   21.8170 H   0  0  0  0  0  0  0  0  0  0  0  0
  -26.3930  -15.6410   20.1570 N   0  0  0  0  0  0  0  0  0  0  0  0
  -25.6760  -16.3570   20.1950 H   0  0  0  0  0  0  0  0  0  0  0  0
  -27.2970  -15.9980   19.8740 H   0  0  0  0  0  0  0  0  0  0  0  0
  -31.6110  -15.7260   17.7030 C   0  0  0  0  0  1  0  0  0  0  0  0
  -30.0360  -17.4740   18.3690 C   0  0  0  0  0  1  0  0  0  0  0  0
  -31.2010  -16.6140   18.9040 C   0  0  0  0  0  3  0  0  0  0  0  0
  -30.1220  -23.1320   21.6160 C   0  0  0  0  0  2  0  0  0  0  0  0
  -28.9890  -25.3460   21.4310 C   0  0  0  0  0  0  0  0  0  0  0  0
  -29.5700  -24.2720   20.8590 N   0  0  0  0  0  0  0  0  0  0  0  0
  -28.4740  -25.2630   22.5470 O   0  0  0  0  0  0  0  0  0  0  0  0
  -29.8450  -24.3380   19.8860 H   0  0  0  0  0  0  0  0  0  0  0  0
  -29.0860  -26.7330   20.7530 C   0  0  0  0  0  2  0  0  0  0  0  0
  -28.1760  -26.8700   19.6570 O   0  0  0  0  0  0  0  0  0  0  0  0
  -24.5520  -31.9710   23.1950 C   0  0  0  0  0  0  0  0  0  0  0  0
  -27.0530  -27.6520   19.8260 C   0  0  0  0  0  0  0  0  0  0  0  0
  -23.2700  -30.6230   21.5680 C   0  0  0  0  0  3  0  0  0  0  0  0
  -24.6570  -29.1520   20.0100 C   0  0  0  0  0  0  0  0  0  0  0  0
  -25.7800  -31.0090   21.2430 C   0  0  0  0  0  2  0  0  0  0  0  0
  -25.8410  -29.6550   20.5640 C   0  0  0  0  0  0  0  0  0  0  0  0
  -27.0440  -28.9150   20.4740 C   0  0  0  0  0  3  0  0  0  0  0  0
  -25.8540  -27.1710   19.2660 C   0  0  0  0  0  3  0  0  0  0  0  0
  -24.6580  -27.9090   19.3580 C   0  0  0  0  0  3  0  0  0  0  0  0
  -23.4080  -29.9960   20.1550 C   0  0  0  0  0  2  0  0  0  0  0  0
  -24.5580  -31.2120   22.0620 N   0  0  0  0  0  0  0  0  0  0  0  0
  -23.4990  -32.2140   23.8010 O   0  0  0  0  0  0  0  0  0  0  0  0
  -22.6770  -29.5600   22.5210 C   0  0  0  0  0  0  0  0  0  0  0  0
  -21.3570  -29.3370   22.4220 N   0  0  0  0  0  0  0  0  0  0  0  0
  -23.4000  -28.9410   23.3050 O   0  0  0  0  0  0  0  0  0  0  0  0
  -20.8300  -29.8890   21.7600 H   0  0  0  0  0  0  0  0  0  0  0  0
  -18.0480  -27.9720   22.9160 C   0  0  0  0  0  0  0  0  0  0  0  0
  -20.5900  -28.3570   23.1910 C   0  0  0  0  0  3  0  0  0  0  0  0
  -20.7640  -26.9340   22.6110 C   0  0  0  0  0  2  0  0  0  0  0  0
  -19.6790  -26.5620   21.5960 C   0  0  0  0  0  2  0  0  0  0  0  0
  -18.2920  -26.6360   22.2360 C   0  0  0  0  0  2  0  0  0  0  0  0
  -19.1270  -28.7860   23.3510 C   0  0  0  0  0  0  0  0  0  0  0  0
  -18.8420  -30.0390   23.9410 C   0  0  0  0  0  3  0  0  0  0  0  0
  -17.5130  -30.4720   24.1050 C   0  0  0  0  0  3  0  0  0  0  0  0
  -16.4490  -29.6530   23.6890 C   0  0  0  0  0  3  0  0  0  0  0  0
  -16.7190  -28.4050   23.0980 C   0  0  0  0  0  3  0  0  0  0  0  0
  -25.8650  -32.5880   23.7690 C   0  0  0  0  0  3  0  0  0  0  0  0
  -25.5760  -33.9820   24.1350 N   0  0  0  0  0  0  0  0  0  0  0  0
  -25.9080  -35.0460   23.3890 C   0  0  0  0  0  0  0  0  0  0  0  0
  -26.5570  -34.9540   22.3440 O   0  0  0  0  0  0  0  0  0  0  0  0
  -24.9960  -34.1290   24.9470 H   0  0  0  0  0  0  0  0  0  0  0  0
  -24.1920  -36.8620   23.0950 C   0  0  0  0  0  1  0  0  0  0  0  0
  -25.4400  -36.4290   23.8800 C   0  0  0  0  0  3  0  0  0  0  0  0
  -27.6000  -37.2740   24.6900 C   0  0  0  0  0  1  0  0  0  0  0  0
  -26.4820  -37.4730   23.7720 N   0  0  0  0  0  0  0  0  0  0  0  0
  -26.0870  -38.3940   23.9490 H   0  0  0  0  0  0  0  0  0  0  0  0
  -26.4330  -31.7940   25.0080 C   0  0  1  0  0  0  0  0  0  0  0  0
  -25.3870  -31.5440   26.1200 C   0  0  0  0  0  1  0  0  0  0  0  0
  -26.9890  -30.4210   24.5610 C   0  0  0  0  0  1  0  0  0  0  0  0
  -27.6150  -32.5730   25.6320 C   0  0  0  0  0  1  0  0  0  0  0  0
  2 49  1  0
  2  3  1  0
  2  1  1  0
  3  5  1  0
  4  3  1  0
  6  3  1  0
  7  6  1  0
  8  7  1  0
 10 15  1  0
 11 12  1  0
 11 10  1  0
 13 12  1  0
 13 21  1  0
 13 14  1  0
 15  9  1  0
 15 14  1  0
 16  9  2  0
 17  9  1  0
 17  8  1  0
 18 19  2  0
 19 20  1  0
 19 38  1  0
 20 23  1  0
 21 18  1  0
 21 22  1  0
 22 20  2  0
 23 24  1  0
 24 25  2  0
 26 29  1  0
 26 25  1  0
 27 26  2  0
 28 27  1  0
 28 23  2  0
 29 30  1  0
 30 31  1  0
 31 32  2  0
 33 32  1  0
 33 37  1  0
 34 33  2  0
 35 30  2  0
 35 34  1  0
 36 35  1  0
 38 39  1  0
 39 42  1  0
 39 41  1  0
 40 38  2  0
 43 44  1  0
 43 18  1  0
 45 43  1  0
 46 48  1  0
 47 48  1  0
 48 17  1  0
 50 52  2  0
 51 50  1  0
 51 49  1  0
 53 51  1  0
 54 50  1  0
 55 57  1  0
 55 54  1  0
 56 67  2  0
 57 62  1  0
 58 66  1  0
 58 68  1  0
 59 65  1  0
 59 61  1  0
 60 66  1  0
 61 60  1  0
 62 61  2  0
 63 64  1  0
 63 57  2  0
 64 59  2  0
 65 58  1  0
 66 56  1  0
 68 70  2  0
 69 68  1  0
 71 69  1  0
 72 81  2  0
 72 77  1  0
 73 69  1  0
 73 77  1  0
 74 73  1  0
 75 76  1  0
 75 74  1  0
 76 72  1  0
 77 78  2  0
 78 79  1  0
 80 79  2  0
 81 80  1  0
 82 56  1  0
 82 83  1  0
 82 92  1  0
 83 86  1  0
 84 88  1  0
 84 83  1  0
 85 84  2  0
 88 87  1  0
 90 88  1  0
 90 91  1  0
 90 89  1  0
 92 95  1  1
 92 93  1  0
 94 92  1  0
M  ISO  4   9 100  17 100  54 101  55 101
M  END
>  <TORSDO>  (77) 
F 24

>  <SCORE>  (77) 
-11.268

>  <name>  (77) 
77

>  <ligand_id>  (77) 
77

>  <original_smiles>  (77) 
[H]c1c([H])c([H])c2c(c1[H])C([H])([H])C([H])([H])C([H])([H])C2([H])N([H])C(=O)C1([H])N(C(=O)C([H])(N([H])C(=O)C([H])(N([H])C([H])([H])[H])C([H])([H])[H])C(C([H])([H])[H])(C([H])([H])[H])C([H])([H])[H])C([H])([H])c2c([H])c(OC([H])([H])C(=O)N([H])C([H])([H])C([H])(C([H])([H])[H])[N+]([H])([H])C([H])([H])C([H])([H])C([H])([H])N(C(=O)N3C([H])([H])C([H])([H])C([H])([H])C([H])(n4nc(-c5c([H])c([H])c(Oc6c([H])c([H])c(F)c([H])c6F)c([H])c5[H])c(C(=O)N([H])[H])c4N([H])[H])C3([H])[H])C([H])(C([H])([H])[H])C([H])([H])[H])c([H])c([H])c2C1([H])[H]

>  <smiles>  (77) 
[H]c1c([H])c([H])c2c(c1[H])C([H])([H])C([H])([H])C([H])([H])C2([H])N([H])C(=O)C1([H])N(C(=O)C([H])(N([H])C(=O)C([H])(N([H])C([H])([H])[H])C([H])([H])[H])C(C([H])([H])[H])(C([H])([H])[H])C([H])([H])[H])C([H])([H])c2c([H])c(OC([H])([H])C(=O)N([H])C([H])([H])C([H])(C([H])([H])[H])[N+]([H])([H])C([H])([H])C([H])([H])C([H])([H])N(C(=O)N3C([H])([H])C([H])([H])C([H])([H])C([H])(n4nc(-c5c([H])c([H])c(Oc6c([H])c([H])c(F)c([H])c6F)c([H])c5[H])c(C(=O)N([H])[H])c4N([H])[H])C3([H])[H])C([H])(C([H])([H])[H])C([H])([H])[H])c([H])c([H])c2C1([H])[H]

$$$$
78:0:0
     RDKit          3D

 97104  0  0  1  0  0  0  0  0999 V2000
  -29.7860  -20.8290   19.7790 C   0  0  0  0  0  3  0  0  0  0  0  0
  -29.9340  -21.0980   18.3250 N   0  0  0  0  0  4  0  0  0  0  0  0
  -29.4630  -20.3490   17.8440 H   0  0  0  0  0  0  0  0  0  0  0  0
  -29.4170  -21.9380   18.1220 H   0  0  0  0  0  0  0  0  0  0  0  0
  -31.2180  -21.3220   16.2070 C   0  0  0  0  0  1  0  0  0  0  0  0
  -31.2950  -21.2390   17.7430 C   0  0  0  0  0  3  0  0  0  0  0  0
  -32.0740  -22.4540   18.3030 C   0  0  0  0  0  2  0  0  0  0  0  0
  -33.5080  -22.2250   18.2070 N   0  0  0  0  0  0  0  0  0  0  0  0
  -33.7670  -21.4340   18.7900 H   0  0  0  0  0  0  0  0  0  0  0  0
  -34.0060  -23.0080   18.6190 H   0  0  0  0  0  0  0  0  0  0  0  0
  -28.8220  -22.0690   20.3140 C   0  0  0  0  0  2  0  0  0  0  0  0
  -29.1840  -23.6840   20.1640 C   0  0  0  0  0  3  0  0  0  0  0  0
  -28.0810  -24.8790   20.4250 C   0  0  0  0  0  3  0  0  0  0  0  0
  -28.3470  -26.3830   20.3260 O   0  0  0  0  0  0  0  0  0  0  0  0
  -24.5790  -31.9200   23.2880 C   0  0  0  0  0  0  0  0  0  0  0  0
  -27.2540  -27.3030   20.2720 C   0  0  0  0  0  0  0  0  0  0  0  0
  -23.4150  -30.5200   21.6260 C   0  0  0  0  0  3  0  0  0  0  0  0
  -24.8990  -28.9770   20.2150 C   0  0  0  0  0  0  0  0  0  0  0  0
  -25.9630  -30.8260   21.4940 C   0  0  0  0  0  2  0  0  0  0  0  0
  -26.0610  -29.4440   20.8410 C   0  0  0  0  0  0  0  0  0  0  0  0
  -27.2420  -28.6240   20.8540 C   0  0  0  0  0  3  0  0  0  0  0  0
  -26.0690  -26.9240   19.6020 C   0  0  0  0  0  3  0  0  0  0  0  0
  -24.9120  -27.7260   19.5810 C   0  0  0  0  0  3  0  0  0  0  0  0
  -23.6610  -29.8540   20.2470 C   0  0  0  0  0  2  0  0  0  0  0  0
  -24.6710  -31.1090   22.1920 N   0  0  0  0  0  0  0  0  0  0  0  0
  -23.4830  -32.1910   23.8010 O   0  0  0  0  0  0  0  0  0  0  0  0
  -22.7340  -29.4980   22.5690 C   0  0  0  0  0  0  0  0  0  0  0  0
  -21.4110  -29.3150   22.4180 N   0  0  0  0  0  0  0  0  0  0  0  0
  -23.4000  -28.8760   23.4010 O   0  0  0  0  0  0  0  0  0  0  0  0
  -20.9330  -29.8700   21.7220 H   0  0  0  0  0  0  0  0  0  0  0  0
  -18.0250  -28.1250   22.8900 C   0  0  0  0  0  0  0  0  0  0  0  0
  -20.5840  -28.3700   23.1710 C   0  0  0  0  0  3  0  0  0  0  0  0
  -20.6810  -26.9470   22.5750 C   0  0  0  0  0  2  0  0  0  0  0  0
  -19.5820  -26.6460   21.5510 C   0  0  0  0  0  2  0  0  0  0  0  0
  -18.1990  -26.7870   22.1920 C   0  0  0  0  0  2  0  0  0  0  0  0
  -19.1460  -28.8760   23.3350 C   0  0  0  0  0  0  0  0  0  0  0  0
  -18.9290  -30.1290   23.9490 C   0  0  0  0  0  3  0  0  0  0  0  0
  -17.6260  -30.6330   24.1170 C   0  0  0  0  0  3  0  0  0  0  0  0
  -16.5200  -29.8790   23.6890 C   0  0  0  0  0  3  0  0  0  0  0  0
  -16.7210  -28.6260   23.0810 C   0  0  0  0  0  3  0  0  0  0  0  0
  -25.8430  -32.5610   23.9360 C   0  0  0  0  0  3  0  0  0  0  0  0
  -25.5330  -33.9690   24.2220 N   0  0  0  0  0  0  0  0  0  0  0  0
  -25.8880  -35.0020   23.4480 C   0  0  0  0  0  0  0  0  0  0  0  0
  -26.5810  -34.8710   22.4340 O   0  0  0  0  0  0  0  0  0  0  0  0
  -24.9200  -34.1460   25.0050 H   0  0  0  0  0  0  0  0  0  0  0  0
  -24.1970  -36.8090   22.9960 C   0  0  0  0  0  1  0  0  0  0  0  0
  -25.4020  -36.4050   23.8610 C   0  0  0  0  0  3  0  0  0  0  0  0
  -27.5030  -37.2940   24.7710 C   0  0  0  0  0  1  0  0  0  0  0  0
  -26.4510  -37.4440   23.7690 N   0  0  0  0  0  0  0  0  0  0  0  0
  -26.0480  -38.3720   23.8710 H   0  0  0  0  0  0  0  0  0  0  0  0
  -26.3120  -31.8190   25.2490 C   0  0  1  0  0  0  0  0  0  0  0  0
  -25.1780  -31.5950   26.2770 C   0  0  0  0  0  1  0  0  0  0  0  0
  -26.9170  -30.4360   24.9130 C   0  0  0  0  0  1  0  0  0  0  0  0
  -27.4300  -32.6340   25.9390 C   0  0  0  0  0  1  0  0  0  0  0  0
  -29.3470  -19.2170   19.9490 C   0  0  0  0  0  3  0  0  0  0  0  0
  -28.2460  -19.1630   20.8930 N   0  0  0  0  0  0  0  0  0  0  0  0
  -28.5970  -19.3510   21.8270 H   0  0  0  0  0  0  0  0  0  0  0  0
  -27.8870  -18.2170   20.9470 H   0  0  0  0  0  0  0  0  0  0  0  0
  -31.6880  -18.0930   19.6080 C   0  0  0  0  0  1  0  0  0  0  0  0
  -30.3420  -17.9290   20.3190 C   0  0  0  0  0  3  0  0  0  0  0  0
  -29.7860  -16.3590   20.2280 C   0  0  0  0  0  2  0  0  0  0  0  0
  -30.6730  -14.9760   20.1540 C   0  0  0  0  0  0  0  0  0  0  0  0
  -30.5630  -12.5910   19.3510 C   0  0  0  0  0  2  0  0  0  0  0  0
  -29.6200  -12.5290   18.1270 C   0  0  0  0  0  2  0  0  0  0  0  0
  -28.1610  -12.3360   18.5770 C   0  0  0  0  0  2  0  0  0  0  0  0
  -27.7620  -13.3090   19.7160 C   0  0  0  0  0  3  0  0  0  0  0  0
  -28.8260  -13.3630   20.8330 C   0  0  0  0  0  2  0  0  0  0  0  0
  -30.1100  -13.7110   20.2140 N   0  0  0  0  0  0  0  0  0  0  0  0
  -31.8650  -15.0430   19.8410 O   0  0  0  0  0  0  0  0  0  0  0  0
  -25.4100  -13.9070   20.5310 C   0  0  0  0  0  0  0  0  0  0  0  0
  -24.3450  -13.1360   20.9090 C   0  0  0  0  0  0  0  0  0  0  0  0
  -24.7880  -11.7810   20.8370 C   0  0  0  0  0  0  0  0  0  0  0  0
  -26.4320  -13.0190   20.2410 N   0  0  0  0  0  0  0  0  0  0  0  0
  -26.0690  -11.7340   20.4910 N   0  0  0  0  0  0  0  0  0  0  0  0
  -24.0500  -10.5240   21.0180 C   0  0  0  0  0  0  0  0  0  0  0  0
  -24.4460   -9.5650   21.9760 C   0  0  0  0  0  3  0  0  0  0  0  0
  -23.7080   -8.3740   22.1440 C   0  0  0  0  0  3  0  0  0  0  0  0
  -22.5590   -8.1340   21.3530 C   0  0  0  0  0  0  0  0  0  0  0  0
  -22.1830   -9.0810   20.3840 C   0  0  0  0  0  3  0  0  0  0  0  0
  -22.9210  -10.2640   20.2170 C   0  0  0  0  0  3  0  0  0  0  0  0
  -21.7950   -6.9950   21.4280 O   0  0  0  0  0  0  0  0  0  0  0  0
  -21.6640   -6.2910   22.5990 C   0  0  0  0  0  0  0  0  0  0  0  0
  -21.0760   -6.8620   23.7490 C   0  0  0  0  0  3  0  0  0  0  0  0
  -20.9000   -6.0820   24.9100 C   0  0  0  0  0  3  0  0  0  0  0  0
  -21.3020   -4.7330   24.9210 C   0  0  0  0  0  0  0  0  0  0  0  0
  -21.8840   -4.1620   23.7750 C   0  0  0  0  0  3  0  0  0  0  0  0
  -22.0630   -4.9380   22.6160 C   0  0  0  0  0  0  0  0  0  0  0  0
  -22.6040   -4.3780   21.5080 F   0  0  0  0  0  0  0  0  0  0  0  0
  -21.1240   -3.9800   26.0320 F   0  0  0  0  0  0  0  0  0  0  0  0
  -22.9620  -13.6250   21.2300 C   0  0  0  0  0  0  0  0  0  0  0  0
  -22.2420  -12.9060   22.0840 N   0  0  0  0  0  0  0  0  0  0  0  0
  -22.5320  -14.6770   20.7590 O   0  0  0  0  0  0  0  0  0  0  0  0
  -22.6030  -12.0490   22.4780 H   0  0  0  0  0  0  0  0  0  0  0  0
  -21.3190  -13.2180   22.3480 H   0  0  0  0  0  0  0  0  0  0  0  0
  -25.5930  -15.2780   20.3830 N   0  0  0  0  0  0  0  0  0  0  0  0
  -24.8440  -15.9430   20.5370 H   0  0  0  0  0  0  0  0  0  0  0  0
  -26.4420  -15.7090   20.0410 H   0  0  0  0  0  0  0  0  0  0  0  0
  1 55  1  0
  1 11  1  0
  2  1  1  0
  3  2  1  0
  4  2  1  0
  6  5  1  0
  6  7  1  0
  6  2  1  0
  8  7  1  0
  8 10  1  0
  8  9  1  0
 12 11  1  0
 12 13  2  0
 14 13  1  0
 15 26  2  0
 16 14  1  0
 16 21  1  0
 17 25  1  0
 17 27  1  0
 18 24  1  0
 18 20  1  0
 19 25  1  0
 20 21  2  0
 20 19  1  0
 22 16  2  0
 23 22  1  0
 23 18  2  0
 24 17  1  0
 25 15  1  0
 27 29  2  0
 28 27  1  0
 30 28  1  0
 31 40  2  0
 31 36  1  0
 32 28  1  0
 32 36  1  0
 33 32  1  0
 34 35  1  0
 34 33  1  0
 35 31  1  0
 36 37  2  0
 37 38  1  0
 39 38  2  0
 40 39  1  0
 41 15  1  0
 41 42  1  0
 41 51  1  0
 42 45  1  0
 43 47  1  0
 43 42  1  0
 44 43  2  0
 47 46  1  0
 49 47  1  0
 49 50  1  0
 49 48  1  0
 51 54  1  1
 51 52  1  0
 53 51  1  0
 55 60  1  0
 55 56  1  0
 56 58  1  0
 56 57  1  0
 60 59  1  0
 61 60  1  0
 62 68  1  0
 62 61  1  0
 63 68  1  0
 64 65  1  0
 64 63  1  0
 66 65  1  0
 66 73  1  0
 66 67  1  0
 68 67  1  0
 69 62  2  0
 70 71  2  0
 71 90  1  0
 72 71  1  0
 72 75  1  0
 73 74  1  0
 73 70  1  0
 74 72  2  0
 75 76  1  0
 76 77  2  0
 78 81  1  0
 78 77  1  0
 79 78  2  0
 80 79  1  0
 80 75  2  0
 81 82  1  0
 82 87  2  0
 82 83  1  0
 83 84  2  0
 84 85  1  0
 85 89  1  0
 86 85  2  0
 87 86  1  0
 88 87  1  0
 90 91  1  0
 91 94  1  0
 91 93  1  0
 92 90  2  0
 95 70  1  0
 95 96  1  0
 97 95  1  0
M  ISO  4  13 101  14 101  61 100  62 100
M  END
>  <TORSDO>  (78) 
F 27

>  <SCORE>  (78) 
-11.826

>  <name>  (78) 
78

>  <ligand_id>  (78) 
78

>  <original_smiles>  (78) 
[H]c1c([H])c([H])c2c(c1[H])C([H])([H])C([H])([H])C([H])([H])C2([H])N([H])C(=O)C1([H])N(C(=O)C([H])(N([H])C(=O)C([H])(N([H])C([H])([H])[H])C([H])([H])[H])C(C([H])([H])[H])(C([H])([H])[H])C([H])([H])[H])C([H])([H])c2c([H])c(OC([H])([H])C([H])([H])C([H])([H])C([H])(C([H])(N([H])[H])C([H])(C([H])([H])[H])C([H])([H])C(=O)N3C([H])([H])C([H])([H])C([H])([H])C([H])(n4nc(-c5c([H])c([H])c(Oc6c([H])c([H])c(F)c([H])c6F)c([H])c5[H])c(C(=O)N([H])[H])c4N([H])[H])C3([H])[H])[N+]([H])([H])C([H])(C([H])([H])[H])C([H])([H])N([H])[H])c([H])c([H])c2C1([H])[H]

>  <smiles>  (78) 
[H]c1c([H])c([H])c2c(c1[H])C([H])([H])C([H])([H])C([H])([H])C2([H])N([H])C(=O)C1([H])N(C(=O)C([H])(N([H])C(=O)C([H])(N([H])C([H])([H])[H])C([H])([H])[H])C(C([H])([H])[H])(C([H])([H])[H])C([H])([H])[H])C([H])([H])c2c([H])c(OC([H])([H])C([H])([H])C([H])([H])C([H])(C([H])(N([H])[H])C([H])(C([H])([H])[H])C([H])([H])C(=O)N3C([H])([H])C([H])([H])C([H])([H])C([H])(n4nc(-c5c([H])c([H])c(Oc6c([H])c([H])c(F)c([H])c6F)c([H])c5[H])c(C(=O)N([H])[H])c4N([H])[H])C3([H])[H])[N+]([H])([H])C([H])(C([H])([H])[H])C([H])([H])N([H])[H])c([H])c([H])c2C1([H])[H]

$$$$
79:0:0
     RDKit          3D

 85 88  0  0  1  0  0  0  0  0999 V2000
  -29.0290  -21.6910   20.2840 C   0  0  0  0  0  2  0  0  0  0  0  0
  -29.5570  -21.7260   21.4480 N   0  0  0  0  0  0  0  0  0  0  0  0
  -28.1990  -23.2620   22.7940 C   0  0  0  0  0  1  0  0  0  0  0  0
  -30.5820  -22.6760   23.4180 C   0  0  0  0  0  1  0  0  0  0  0  0
  -29.6050  -22.9280   22.2630 C   0  0  0  0  0  3  0  0  0  0  0  0
  -29.3200  -19.7660   19.6900 C   0  0  0  0  0 15  0  0  0  0  0  0
  -29.5770  -17.8280   20.3500 C   0  0  0  0  0 15  0  0  0  0  0  0
  -30.3130  -16.0200   20.0260 C   0  0  0  0  0  2  0  0  0  0  0  0
  -30.5000  -13.3780   19.2960 C   0  0  0  0  0  2  0  0  0  0  0  0
  -29.6250  -12.8600   18.1070 C   0  0  0  0  0  2  0  0  0  0  0  0
  -28.2230  -12.4570   18.5790 C   0  0  0  0  0  2  0  0  0  0  0  0
  -27.6880  -13.4800   19.6020 C   0  0  0  0  0  3  0  0  0  0  0  0
  -28.7090  -13.9010   20.6920 C   0  0  0  0  0  2  0  0  0  0  0  0
  -29.8550  -14.5880   20.0290 N   0  0  0  0  0  0  0  0  0  0  0  0
  -31.5290  -15.9030   19.7480 O   0  0  0  0  0  1  0  0  0  0  0  0
  -25.3410  -13.9950   20.4040 C   0  0  0  0  0  0  0  0  0  0  0  0
  -24.2870  -13.2160   20.7840 C   0  0  0  0  0  0  0  0  0  0  0  0
  -24.7570  -11.8650   20.7480 C   0  0  0  0  0  0  0  0  0  0  0  0
  -26.3820  -13.1260   20.1440 N   0  0  0  0  0  0  0  0  0  0  0  0
  -26.0480  -11.8350   20.4170 N   0  0  0  0  0  0  0  0  0  0  0  0
  -24.0280  -10.6040   20.9500 C   0  0  0  0  0  0  0  0  0  0  0  0
  -24.4590   -9.6420   21.8910 C   0  0  0  0  0  3  0  0  0  0  0  0
  -23.7240   -8.4510   22.0840 C   0  0  0  0  0  3  0  0  0  0  0  0
  -22.5450   -8.2130   21.3390 C   0  0  0  0  0  0  0  0  0  0  0  0
  -22.1330   -9.1640   20.3880 C   0  0  0  0  0  3  0  0  0  0  0  0
  -22.8660  -10.3460   20.1940 C   0  0  0  0  0  3  0  0  0  0  0  0
  -21.7830   -7.0740   21.4420 O   0  0  0  0  0  0  0  0  0  0  0  0
  -21.7380   -6.3380   22.6000 C   0  0  0  0  0  0  0  0  0  0  0  0
  -21.2930   -6.8950   23.8190 C   0  0  0  0  0  3  0  0  0  0  0  0
  -21.1970   -6.0860   24.9690 C   0  0  0  0  0  3  0  0  0  0  0  0
  -21.5350   -4.7200   24.8990 C   0  0  0  0  0  0  0  0  0  0  0  0
  -21.9700   -4.1640   23.6840 C   0  0  0  0  0  3  0  0  0  0  0  0
  -22.0680   -4.9700   22.5370 C   0  0  0  0  0  0  0  0  0  0  0  0
  -22.4700   -4.4230   21.3640 F   0  0  0  0  0  0  0  0  0  0  0  0
  -21.4360   -3.9410   26.0010 F   0  0  0  0  0  0  0  0  0  0  0  0
  -22.8940  -13.6940   21.0650 C   0  0  0  0  0  0  0  0  0  0  0  0
  -22.1720  -13.0070   21.9410 N   0  0  0  0  0  0  0  0  0  0  0  0
  -22.4550  -14.7190   20.5410 O   0  0  0  0  0  0  0  0  0  0  0  0
  -22.5410  -12.1790   22.3870 H   0  0  0  0  0  0  0  0  0  0  0  0
  -21.2360  -13.3090   22.1700 H   0  0  0  0  0  0  0  0  0  0  0  0
  -25.4980  -15.3660   20.2230 N   0  0  0  0  0  0  0  0  0  0  0  0
  -24.7300  -16.0170   20.3450 H   0  0  0  0  0  0  0  0  0  0  0  0
  -26.3420  -15.8070   19.8800 H   0  0  0  0  0  0  0  0  0  0  0  0
  -28.2390  -23.4820   19.6900 C   0  0  0  0  0  1  0  0  0  0  0  0
  -28.2640  -25.3070   20.0530 O   0  0  0  0  0  0  0  0  0  0  0  0
  -24.6830  -31.7380   23.0240 C   0  0  0  0  0  0  0  0  0  0  0  0
  -27.3070  -26.6000   19.9690 C   0  0  0  0  0  0  0  0  0  0  0  0
  -23.5340  -30.3450   21.3580 C   0  0  0  0  0  3  0  0  0  0  0  0
  -25.0200  -28.7130   19.9300 C   0  0  0  0  0  0  0  0  0  0  0  0
  -26.1180  -30.4820   21.2720 C   0  0  0  0  0  2  0  0  0  0  0  0
  -26.2090  -29.0420   20.5910 C   0  0  0  0  0  0  0  0  0  0  0  0
  -27.3230  -28.0180   20.5760 C   0  0  0  0  0  3  0  0  0  0  0  0
  -26.0820  -26.5350   19.2440 C   0  0  0  0  0  3  0  0  0  0  0  0
  -25.0060  -27.4900   19.2320 C   0  0  0  0  0  3  0  0  0  0  0  0
  -23.8010  -29.6630   19.9830 C   0  0  0  0  0  2  0  0  0  0  0  0
  -24.8050  -30.8920   21.9380 N   0  0  0  0  0  0  0  0  0  0  0  0
  -23.5790  -32.0190   23.5240 O   0  0  0  0  0  0  0  0  0  0  0  0
  -22.8110  -29.3560   22.3130 C   0  0  0  0  0  0  0  0  0  0  0  0
  -21.4780  -29.2030   22.1890 N   0  0  0  0  0  0  0  0  0  0  0  0
  -23.4660  -28.7220   23.1450 O   0  0  0  0  0  0  0  0  0  0  0  0
  -20.9950  -29.7670   21.5040 H   0  0  0  0  0  0  0  0  0  0  0  0
  -18.0950  -27.9620   22.7010 C   0  0  0  0  0  0  0  0  0  0  0  0
  -20.6570  -28.2430   22.9420 C   0  0  0  0  0  3  0  0  0  0  0  0
  -20.7590  -26.8270   22.3290 C   0  0  0  0  0  2  0  0  0  0  0  0
  -19.6510  -26.5260   21.3150 C   0  0  0  0  0  2  0  0  0  0  0  0
  -18.2750  -26.6380   21.9770 C   0  0  0  0  0  2  0  0  0  0  0  0
  -19.2130  -28.7230   23.1400 C   0  0  0  0  0  0  0  0  0  0  0  0
  -18.9860  -29.9570   23.7860 C   0  0  0  0  0  3  0  0  0  0  0  0
  -17.6760  -30.4340   23.9910 C   0  0  0  0  0  3  0  0  0  0  0  0
  -16.5750  -29.6720   23.5630 C   0  0  0  0  0  3  0  0  0  0  0  0
  -16.7860  -28.4370   22.9250 C   0  0  0  0  0  3  0  0  0  0  0  0
  -25.9230  -32.4060   23.6940 C   0  0  0  0  0  3  0  0  0  0  0  0
  -26.4230  -31.6330   24.9770 C   0  0  1  0  0  0  0  0  0  0  0  0
  -25.3130  -31.3720   26.0220 C   0  0  0  0  0  1  0  0  0  0  0  0
  -27.0320  -30.2630   24.6000 C   0  0  0  0  0  1  0  0  0  0  0  0
  -27.5500  -32.4360   25.6670 C   0  0  0  0  0  1  0  0  0  0  0  0
  -25.5670  -33.7950   24.0610 N   0  0  0  0  0  0  0  0  0  0  0  0
  -25.8940  -34.8910   23.3640 C   0  0  0  0  0  0  0  0  0  0  0  0
  -26.5800  -34.8420   22.3410 O   0  0  0  0  0  0  0  0  0  0  0  0
  -24.9530  -33.9030   24.8550 H   0  0  0  0  0  0  0  0  0  0  0  0
  -24.1450  -36.6860   23.0760 C   0  0  0  0  0  1  0  0  0  0  0  0
  -25.3850  -36.2570   23.8760 C   0  0  0  0  0  3  0  0  0  0  0  0
  -27.4950  -37.1500   24.7690 C   0  0  0  0  0  1  0  0  0  0  0  0
  -26.4030  -37.3300   23.8150 N   0  0  0  0  0  0  0  0  0  0  0  0
  -25.9810  -38.2390   23.9850 H   0  0  0  0  0  0  0  0  0  0  0  0
  1  2  2  0
  2  5  1  0
  5  3  1  0
  5  4  1  0
  8 14  1  0
  9 14  1  0
 10 11  1  0
 10  9  1  0
 12 11  1  0
 12 19  1  0
 12 13  1  0
 14 13  1  0
 15  8  1  0
 16 17  2  0
 17 36  1  0
 18 17  1  0
 18 21  1  0
 19 16  1  0
 19 20  1  0
 20 18  2  0
 21 22  1  0
 22 23  2  0
 24 27  1  0
 24 23  1  0
 25 24  2  0
 26 25  1  0
 26 21  2  0
 27 28  1  0
 28 29  1  0
 29 30  2  0
 31 30  1  0
 31 35  1  0
 32 31  2  0
 33 28  2  0
 33 32  1  0
 34 33  1  0
 36 37  1  0
 37 40  1  0
 37 39  1  0
 38 36  2  0
 41 42  1  0
 41 16  1  0
 43 41  1  0
 44 45  1  0
 46 57  2  0
 47 45  1  0
 47 52  1  0
 48 56  1  0
 48 58  1  0
 49 55  1  0
 49 51  1  0
 50 56  1  0
 51 50  1  0
 52 51  2  0
 53 47  2  0
 54 53  1  0
 54 49  2  0
 55 48  1  0
 56 46  1  0
 58 60  2  0
 59 58  1  0
 61 59  1  0
 62 71  2  0
 62 67  1  0
 63 59  1  0
 63 67  1  0
 64 63  1  0
 65 66  1  0
 65 64  1  0
 66 62  1  0
 67 68  2  0
 68 69  1  0
 70 69  2  0
 71 70  1  0
 72 46  1  0
 72 77  1  0
 72 73  1  0
 73 76  1  1
 73 74  1  0
 75 73  1  0
 77 80  1  0
 78 82  1  0
 78 77  1  0
 79 78  2  0
 82 81  1  0
 84 82  1  0
 84 85  1  0
 84 83  1  0
M  ISO  4   7 100   8 100  44 101  45 101
M  END
>  <TORSDO>  (79) 
F 20

>  <SCORE>  (79) 
-14.954

>  <name>  (79) 
79

>  <ligand_id>  (79) 
79

>  <original_smiles>  (79) 
[H]c1c([H])c([H])c2c(c1[H])C([H])([H])C([H])([H])C([H])([H])C2([H])N([H])C(=O)C1([H])N(C(=O)C([H])(N([H])C(=O)C([H])(N([H])C([H])([H])[H])C([H])([H])[H])C(C([H])([H])[H])(C([H])([H])[H])C([H])([H])[H])C([H])([H])c2c([H])c(OC([H])([H])C(=NC([H])(C([H])([H])[H])C([H])([H])[H])C([H])([H])C([H])([H])C(=O)N3C([H])([H])C([H])([H])C([H])([H])C([H])(n4nc(-c5c([H])c([H])c(Oc6c([H])c([H])c(F)c([H])c6F)c([H])c5[H])c(C(=O)N([H])[H])c4N([H])[H])C3([H])[H])c([H])c([H])c2C1([H])[H]

>  <smiles>  (79) 
[H]c1c([H])c([H])c2c(c1[H])C([H])([H])C([H])([H])C([H])([H])C2([H])N([H])C(=O)C1([H])N(C(=O)C([H])(N([H])C(=O)C([H])(N([H])C([H])([H])[H])C([H])([H])[H])C(C([H])([H])[H])(C([H])([H])[H])C([H])([H])[H])C([H])([H])c2c([H])c(OC([H])([H])C(=NC([H])(C([H])([H])[H])C([H])([H])[H])C([H])([H])C([H])([H])C(=O)N3C([H])([H])C([H])([H])C([H])([H])C([H])(n4nc(-c5c([H])c([H])c(Oc6c([H])c([H])c(F)c([H])c6F)c([H])c5[H])c(C(=O)N([H])[H])c4N([H])[H])C3([H])[H])c([H])c([H])c2C1([H])[H]

$$$$
80:0:0
     RDKit          3D

 83 91  0  0  1  0  0  0  0  0999 V2000
  -29.9870  -16.5140   20.2640 C   0  0  0  0  0  0  0  0  0  0  0  0
  -30.2930  -13.7860   19.4650 C   0  0  0  0  0  2  0  0  0  0  0  0
  -29.5280  -12.9700   18.3500 C   0  0  0  0  0  2  0  0  0  0  0  0
  -28.1880  -12.4250   18.8480 C   0  0  0  0  0  2  0  0  0  0  0  0
  -27.5430  -13.4650   19.7750 C   0  0  0  0  0  3  0  0  0  0  0  0
  -28.5010  -14.1380   20.8220 C   0  0  0  0  0  2  0  0  0  0  0  0
  -29.5090  -15.0270   20.0970 N   0  0  0  0  0  0  0  0  0  0  0  0
  -31.2260  -16.2390   20.3020 O   0  0  0  0  0  0  0  0  0  0  0  0
  -29.8780  -19.6970   20.9570 C   0  0  0  0  0  2  0  0  0  0  0  0
  -28.2210  -19.3340   19.8240 C   0  0  0  0  0  2  0  0  0  0  0  0
  -29.5210  -21.5870   20.7890 C   0  0  0  0  0  3  0  0  0  0  0  0
  -28.0570  -21.2510   19.5830 C   0  0  0  0  0  3  0  0  0  0  0  0
  -29.4060  -18.1820   20.3050 N   0  0  0  0  0  0  0  0  0  0  0  0
  -28.2100  -22.5970   20.5660 N   0  0  0  0  0  2  0  0  0  0  0  0
  -25.1790  -13.8950   20.5370 C   0  0  0  0  0  0  0  0  0  0  0  0
  -24.1330  -13.0920   20.8870 C   0  0  0  0  0  0  0  0  0  0  0  0
  -24.6310  -11.7520   20.8580 C   0  0  0  0  0  0  0  0  0  0  0  0
  -26.2490  -13.0540   20.3100 N   0  0  0  0  0  0  0  0  0  0  0  0
  -25.9330  -11.7510   20.5590 N   0  0  0  0  0  0  0  0  0  0  0  0
  -23.9140  -10.4780   21.0400 C   0  0  0  0  0  0  0  0  0  0  0  0
  -24.3380   -9.5130   21.9820 C   0  0  0  0  0  3  0  0  0  0  0  0
  -23.6130   -8.3140   22.1590 C   0  0  0  0  0  3  0  0  0  0  0  0
  -22.4460   -8.0700   21.3960 C   0  0  0  0  0  0  0  0  0  0  0  0
  -22.0380   -9.0230   20.4450 C   0  0  0  0  0  3  0  0  0  0  0  0
  -22.7660  -10.2120   20.2660 C   0  0  0  0  0  3  0  0  0  0  0  0
  -21.6940   -6.9220   21.4820 O   0  0  0  0  0  0  0  0  0  0  0  0
  -21.6380   -6.1790   22.6340 C   0  0  0  0  0  0  0  0  0  0  0  0
  -21.2010   -6.7330   23.8560 C   0  0  0  0  0  3  0  0  0  0  0  0
  -21.0940   -5.9180   25.0010 C   0  0  0  0  0  3  0  0  0  0  0  0
  -21.4140   -4.5490   24.9240 C   0  0  0  0  0  0  0  0  0  0  0  0
  -21.8440   -3.9940   23.7070 C   0  0  0  0  0  3  0  0  0  0  0  0
  -21.9530   -4.8070   22.5640 C   0  0  0  0  0  0  0  0  0  0  0  0
  -22.3470   -4.2620   21.3870 F   0  0  0  0  0  0  0  0  0  0  0  0
  -21.3050   -3.7640   26.0220 F   0  0  0  0  0  0  0  0  0  0  0  0
  -22.7250  -13.5470   21.1290 C   0  0  0  0  0  0  0  0  0  0  0  0
  -21.9970  -12.8540   21.9950 N   0  0  0  0  0  0  0  0  0  0  0  0
  -22.2830  -14.5600   20.5870 O   0  0  0  0  0  0  0  0  0  0  0  0
  -22.3710  -12.0380   22.4560 H   0  0  0  0  0  0  0  0  0  0  0  0
  -21.0520  -13.1440   22.2010 H   0  0  0  0  0  0  0  0  0  0  0  0
  -25.3090  -15.2680   20.3520 N   0  0  0  0  0  0  0  0  0  0  0  0
  -24.5240  -15.9030   20.4470 H   0  0  0  0  0  0  0  0  0  0  0  0
  -26.1540  -15.7250   20.0340 H   0  0  0  0  0  0  0  0  0  0  0  0
  -28.1890  -24.7480   20.2230 O   0  0  0  0  0  1  0  0  0  0  0  0
  -24.7200  -31.7990   23.1150 C   0  0  0  0  0  0  0  0  0  0  0  0
  -27.2290  -26.1750   20.3160 C   0  0  0  0  0  0  0  0  0  0  0  0
  -23.5630  -30.3560   21.5040 C   0  0  0  0  0  3  0  0  0  0  0  0
  -25.0190  -28.5630   20.1820 C   0  0  0  0  0  0  0  0  0  0  0  0
  -26.1620  -30.3290   21.4710 C   0  0  0  0  0  2  0  0  0  0  0  0
  -26.2190  -28.8200   20.8560 C   0  0  0  0  0  0  0  0  0  0  0  0
  -27.2780  -27.6750   20.8740 C   0  0  0  0  0  3  0  0  0  0  0  0
  -25.9970  -26.2810   19.5660 C   0  0  0  0  0  3  0  0  0  0  0  0
  -24.9800  -27.3220   19.5130 C   0  0  0  0  0  3  0  0  0  0  0  0
  -23.8420  -29.5860   20.1720 C   0  0  0  0  0  2  0  0  0  0  0  0
  -24.8460  -30.8770   22.0800 N   0  0  0  0  0  0  0  0  0  0  0  0
  -23.6120  -32.1340   23.5790 O   0  0  0  0  0  0  0  0  0  0  0  0
  -22.7860  -29.4500   22.5010 C   0  0  0  0  0  0  0  0  0  0  0  0
  -21.4460  -29.3410   22.3810 N   0  0  0  0  0  0  0  0  0  0  0  0
  -23.4110  -28.8340   23.3660 O   0  0  0  0  0  0  0  0  0  0  0  0
  -20.9830  -29.8860   21.6670 H   0  0  0  0  0  0  0  0  0  0  0  0
  -18.0300  -28.1890   22.9360 C   0  0  0  0  0  0  0  0  0  0  0  0
  -20.5980  -28.4310   23.1690 C   0  0  0  0  0  3  0  0  0  0  0  0
  -20.6720  -26.9890   22.6120 C   0  0  0  0  0  2  0  0  0  0  0  0
  -19.5590  -26.6740   21.6060 C   0  0  0  0  0  2  0  0  0  0  0  0
  -18.1850  -26.8380   22.2590 C   0  0  0  0  0  2  0  0  0  0  0  0
  -19.1620  -28.9450   23.3470 C   0  0  0  0  0  0  0  0  0  0  0  0
  -18.9570  -30.2050   23.9500 C   0  0  0  0  0  3  0  0  0  0  0  0
  -17.6560  -30.7110   24.1380 C   0  0  0  0  0  3  0  0  0  0  0  0
  -16.5420  -29.9550   23.7370 C   0  0  0  0  0  3  0  0  0  0  0  0
  -16.7300  -28.6950   23.1430 C   0  0  0  0  0  3  0  0  0  0  0  0
  -25.9530  -32.4910   23.7750 C   0  0  0  0  0  3  0  0  0  0  0  0
  -25.5970  -33.8900   24.1150 N   0  0  0  0  0  0  0  0  0  0  0  0
  -25.9220  -34.9780   23.4010 C   0  0  0  0  0  0  0  0  0  0  0  0
  -26.5950  -34.9110   22.3710 O   0  0  0  0  0  0  0  0  0  0  0  0
  -24.9920  -34.0120   24.9140 H   0  0  0  0  0  0  0  0  0  0  0  0
  -24.1720  -36.7780   23.1250 C   0  0  0  0  0  1  0  0  0  0  0  0
  -25.4300  -36.3570   23.9020 C   0  0  0  0  0  3  0  0  0  0  0  0
  -27.5650  -37.2620   24.7210 C   0  0  0  0  0  1  0  0  0  0  0  0
  -26.4490  -37.4260   23.7930 N   0  0  0  0  0  0  0  0  0  0  0  0
  -26.0330  -38.3390   23.9560 H   0  0  0  0  0  0  0  0  0  0  0  0
  -26.4420  -31.7530   25.0850 C   0  0  1  0  0  0  0  0  0  0  0  0
  -25.3270  -31.5320   26.1340 C   0  0  0  0  0  1  0  0  0  0  0  0
  -27.0430  -30.3690   24.7570 C   0  0  0  0  0  1  0  0  0  0  0  0
  -27.5750  -32.5670   25.7540 C   0  0  0  0  0  1  0  0  0  0  0  0
  1  8  2  0
  1 13  1  0
  2  7  1  0
  3  4  1  0
  3  2  1  0
  5  4  1  0
  5 18  1  0
  5  6  1  0
  7  1  1  0
  7  6  1  0
 10 13  1  0
 11  9  1  0
 12 10  1  0
 12 14  1  0
 12 11  1  0
 13  9  1  0
 14 11  1  0
 15 16  2  0
 16 35  1  0
 17 16  1  0
 17 20  1  0
 18 15  1  0
 18 19  1  0
 19 17  2  0
 20 21  1  0
 21 22  2  0
 23 26  1  0
 23 22  1  0
 24 23  2  0
 25 24  1  0
 25 20  2  0
 26 27  1  0
 27 28  1  0
 28 29  2  0
 30 29  1  0
 30 34  1  0
 31 30  2  0
 32 27  2  0
 32 31  1  0
 33 32  1  0
 35 36  1  0
 36 39  1  0
 36 38  1  0
 37 35  2  0
 40 41  1  0
 40 15  1  0
 42 40  1  0
 43 45  1  0
 44 55  2  0
 45 50  1  0
 46 54  1  0
 46 56  1  0
 47 49  1  0
 48 54  1  0
 49 50  2  0
 49 48  1  0
 51 45  2  0
 52 51  1  0
 52 47  2  0
 53 47  1  0
 53 46  1  0
 54 44  1  0
 56 58  2  0
 57 56  1  0
 59 57  1  0
 60 69  2  0
 60 65  1  0
 61 57  1  0
 61 65  1  0
 62 61  1  0
 63 64  1  0
 63 62  1  0
 64 60  1  0
 65 66  2  0
 66 67  1  0
 68 67  2  0
 69 68  1  0
 70 44  1  0
 70 71  1  0
 70 80  1  0
 71 74  1  0
 72 76  1  0
 72 71  1  0
 73 72  2  0
 76 75  1  0
 78 76  1  0
 78 79  1  0
 78 77  1  0
 80 83  1  1
 80 81  1  0
 82 80  1  0
M  ISO  4   1 100  13 100  14 101  43 101
M  END
>  <TORSDO>  (80) 
F 15

>  <SCORE>  (80) 
-16.463

>  <name>  (80) 
80

>  <ligand_id>  (80) 
80

>  <original_smiles>  (80) 
[H]c1c([H])c([H])c2c(c1[H])C([H])([H])C([H])([H])C([H])([H])C2([H])N([H])C(=O)C1([H])N(C(=O)C([H])(N([H])C(=O)C([H])(N([H])C([H])([H])[H])C([H])([H])[H])C(C([H])([H])[H])(C([H])([H])[H])C([H])([H])[H])C([H])([H])c2c([H])c(ON3C([H])([H])C([H])([H])N(C(=O)N4C([H])([H])C([H])([H])C([H])([H])C([H])(n5nc(-c6c([H])c([H])c(Oc7c([H])c([H])c(F)c([H])c7F)c([H])c6[H])c(C(=O)N([H])[H])c5N([H])[H])C4([H])[H])C([H])([H])C3([H])[H])c([H])c([H])c2C1([H])[H]

>  <smiles>  (80) 
[H]c1c([H])c([H])c2c(c1[H])C([H])([H])C([H])([H])C([H])([H])C2([H])N([H])C(=O)C1([H])N(C(=O)C([H])(N([H])C(=O)C([H])(N([H])C([H])([H])[H])C([H])([H])[H])C(C([H])([H])[H])(C([H])([H])[H])C([H])([H])[H])C([H])([H])c2c([H])c(ON3C([H])([H])C([H])([H])N(C(=O)N4C([H])([H])C([H])([H])C([H])([H])C([H])(n5nc(-c6c([H])c([H])c(Oc7c([H])c([H])c(F)c([H])c7F)c([H])c6[H])c(C(=O)N([H])[H])c5N([H])[H])C4([H])[H])C([H])([H])C3([H])[H])c([H])c([H])c2C1([H])[H]

$$$$
81:0:0
     RDKit          3D

 94101  0  0  1  0  0  0  0  0999 V2000
  -29.9470  -19.7280   20.3870 C   0  0  0  0  0  3  0  0  0  0  0  0
  -30.4160  -19.5560   21.7730 N   0  0  0  0  0  4  0  0  0  0  0  0
  -29.6590  -19.5660   22.4370 H   0  0  0  0  0  0  0  0  0  0  0  0
  -30.8620  -18.6460   21.8340 H   0  0  0  0  0  0  0  0  0  0  0  0
  -31.5230  -20.4140   22.2210 C   0  0  0  0  0  2  0  0  0  0  0  0
  -32.8080  -19.6390   21.9530 C   0  0  0  0  0  0  0  0  0  0  0  0
  -33.9010  -19.9750   22.6220 N   0  0  0  0  0  0  0  0  0  0  0  0
  -32.8100  -18.7130   21.1400 O   0  0  0  0  0  0  0  0  0  0  0  0
  -33.8870  -20.7270   23.2980 H   0  0  0  0  0  0  0  0  0  0  0  0
  -34.7590  -19.4650   22.4740 H   0  0  0  0  0  0  0  0  0  0  0  0
  -30.1990  -18.0020   18.3300 C   0  0  0  0  0  1  0  0  0  0  0  0
  -29.6600  -18.0790   19.7640 C   0  0  0  0  0  0  0  0  0  0  0  0
  -30.6100  -15.3580   20.3660 C   0  0  0  0  0  0  0  0  0  0  0  0
  -30.6930  -12.8710   19.6840 C   0  0  0  0  0  2  0  0  0  0  0  0
  -29.8100  -12.5920   18.4400 C   0  0  0  0  0  2  0  0  0  0  0  0
  -28.3540  -12.3160   18.8520 C   0  0  0  0  0  2  0  0  0  0  0  0
  -27.8500  -13.3340   19.9040 C   0  0  0  0  0  3  0  0  0  0  0  0
  -28.8580  -13.5590   21.0520 C   0  0  0  0  0  2  0  0  0  0  0  0
  -30.1070  -14.0360   20.4400 N   0  0  0  0  0  0  0  0  0  0  0  0
  -31.8120  -15.4140   20.0700 O   0  0  0  0  0  0  0  0  0  0  0  0
  -29.7750  -16.5650   20.4420 N   0  0  0  0  0  4  0  0  0  0  0  0
  -28.8830  -16.2860   20.8210 H   0  0  0  0  0  0  0  0  0  0  0  0
  -25.4700  -13.8820   20.6400 C   0  0  0  0  0  0  0  0  0  0  0  0
  -24.4060  -13.0980   20.9920 C   0  0  0  0  0  0  0  0  0  0  0  0
  -24.8750  -11.7490   20.9410 C   0  0  0  0  0  0  0  0  0  0  0  0
  -26.5160  -13.0130   20.3910 N   0  0  0  0  0  0  0  0  0  0  0  0
  -26.1700  -11.7220   20.6380 N   0  0  0  0  0  0  0  0  0  0  0  0
  -24.1510  -10.4820   21.0980 C   0  0  0  0  0  0  0  0  0  0  0  0
  -24.5430   -9.5180   22.0520 C   0  0  0  0  0  3  0  0  0  0  0  0
  -23.8130   -8.3180   22.2020 C   0  0  0  0  0  3  0  0  0  0  0  0
  -22.6730   -8.0740   21.3960 C   0  0  0  0  0  0  0  0  0  0  0  0
  -22.3020   -9.0260   20.4310 C   0  0  0  0  0  3  0  0  0  0  0  0
  -23.0340  -10.2170   20.2810 C   0  0  0  0  0  3  0  0  0  0  0  0
  -21.9210   -6.9270   21.4500 O   0  0  0  0  0  0  0  0  0  0  0  0
  -21.7830   -6.2120   22.6120 C   0  0  0  0  0  0  0  0  0  0  0  0
  -21.2400   -6.7890   23.7810 C   0  0  0  0  0  3  0  0  0  0  0  0
  -21.0530   -6.0000   24.9340 C   0  0  0  0  0  3  0  0  0  0  0  0
  -21.3960   -4.6330   24.9160 C   0  0  0  0  0  0  0  0  0  0  0  0
  -21.9290   -4.0570   23.7500 C   0  0  0  0  0  3  0  0  0  0  0  0
  -22.1180   -4.8430   22.6000 C   0  0  0  0  0  0  0  0  0  0  0  0
  -22.6130   -4.2780   21.4730 F   0  0  0  0  0  0  0  0  0  0  0  0
  -21.2090   -3.8730   26.0200 F   0  0  0  0  0  0  0  0  0  0  0  0
  -23.0040  -13.5680   21.2520 C   0  0  0  0  0  0  0  0  0  0  0  0
  -22.2740  -12.8640   22.1110 N   0  0  0  0  0  0  0  0  0  0  0  0
  -22.5680  -14.5940   20.7370 O   0  0  0  0  0  0  0  0  0  0  0  0
  -22.6430  -12.0320   22.5470 H   0  0  0  0  0  0  0  0  0  0  0  0
  -21.3340  -13.1610   22.3310 H   0  0  0  0  0  0  0  0  0  0  0  0
  -25.6300  -15.2550   20.4820 N   0  0  0  0  0  0  0  0  0  0  0  0
  -24.8480  -15.8950   20.5590 H   0  0  0  0  0  0  0  0  0  0  0  0
  -26.4440  -15.6810   20.0560 H   0  0  0  0  0  0  0  0  0  0  0  0
  -28.9160  -21.1940   20.3390 C   0  0  0  0  0  2  0  0  0  0  0  0
  -29.1710  -22.9250   20.7070 C   0  0  0  0  0  3  0  0  0  0  0  0
  -28.1370  -24.3720   20.5560 C   0  0  0  0  0  3  0  0  0  0  0  0
  -28.3760  -25.9820   20.6680 O   0  0  0  0  0  0  0  0  0  0  0  0
  -24.7290  -31.9340   23.3710 C   0  0  0  0  0  0  0  0  0  0  0  0
  -27.3560  -27.0470   20.5230 C   0  0  0  0  0  0  0  0  0  0  0  0
  -23.5680  -30.5040   21.7350 C   0  0  0  0  0  3  0  0  0  0  0  0
  -25.0490  -28.8880   20.3680 C   0  0  0  0  0  0  0  0  0  0  0  0
  -26.1320  -30.7360   21.6300 C   0  0  0  0  0  2  0  0  0  0  0  0
  -26.2190  -29.3190   21.0060 C   0  0  0  0  0  0  0  0  0  0  0  0
  -27.3690  -28.4190   21.0580 C   0  0  0  0  0  3  0  0  0  0  0  0
  -26.1620  -26.7500   19.8300 C   0  0  0  0  0  3  0  0  0  0  0  0
  -25.0470  -27.6240   19.7520 C   0  0  0  0  0  3  0  0  0  0  0  0
  -23.8240  -29.8000   20.3750 C   0  0  0  0  0  2  0  0  0  0  0  0
  -24.8280  -31.0850   22.2980 N   0  0  0  0  0  0  0  0  0  0  0  0
  -23.6330  -32.2320   23.8690 O   0  0  0  0  0  0  0  0  0  0  0  0
  -22.8610  -29.5240   22.7060 C   0  0  0  0  0  0  0  0  0  0  0  0
  -21.5500  -29.2970   22.5130 N   0  0  0  0  0  0  0  0  0  0  0  0
  -23.5010  -28.9660   23.6010 O   0  0  0  0  0  0  0  0  0  0  0  0
  -21.0850  -29.8040   21.7740 H   0  0  0  0  0  0  0  0  0  0  0  0
  -18.2100  -27.9120   22.8290 C   0  0  0  0  0  0  0  0  0  0  0  0
  -20.7190  -28.3620   23.2790 C   0  0  0  0  0  3  0  0  0  0  0  0
  -20.9510  -26.9040   22.8200 C   0  0  0  0  0  2  0  0  0  0  0  0
  -19.9600  -26.4430   21.7450 C   0  0  0  0  0  2  0  0  0  0  0  0
  -18.5230  -26.5370   22.2630 C   0  0  0  0  0  2  0  0  0  0  0  0
  -19.2410  -28.7760   23.2890 C   0  0  0  0  0  0  0  0  0  0  0  0
  -18.8960  -30.0550   23.7760 C   0  0  0  0  0  3  0  0  0  0  0  0
  -17.5520  -30.4750   23.8070 C   0  0  0  0  0  3  0  0  0  0  0  0
  -16.5370  -29.6130   23.3570 C   0  0  0  0  0  3  0  0  0  0  0  0
  -16.8650  -28.3340   22.8760 C   0  0  0  0  0  3  0  0  0  0  0  0
  -25.9900  -32.5870   24.0150 C   0  0  0  0  0  3  0  0  0  0  0  0
  -25.6760  -34.0000   24.2920 N   0  0  0  0  0  0  0  0  0  0  0  0
  -26.0280  -35.0300   23.5110 C   0  0  0  0  0  0  0  0  0  0  0  0
  -26.7160  -34.8920   22.4950 O   0  0  0  0  0  0  0  0  0  0  0  0
  -25.0640  -34.1820   25.0750 H   0  0  0  0  0  0  0  0  0  0  0  0
  -24.3060  -36.8200   23.0890 C   0  0  0  0  0  1  0  0  0  0  0  0
  -25.5430  -36.4370   23.9180 C   0  0  0  0  0  3  0  0  0  0  0  0
  -27.6740  -37.3490   24.7320 C   0  0  0  0  0  1  0  0  0  0  0  0
  -26.5790  -37.4850   23.7740 N   0  0  0  0  0  0  0  0  0  0  0  0
  -26.1740  -38.4110   23.8840 H   0  0  0  0  0  0  0  0  0  0  0  0
  -26.4540  -31.8630   25.3410 C   0  0  1  0  0  0  0  0  0  0  0  0
  -25.3200  -31.6720   26.3760 C   0  0  0  0  0  1  0  0  0  0  0  0
  -27.0420  -30.4660   25.0320 C   0  0  0  0  0  1  0  0  0  0  0  0
  -27.5820  -32.6780   26.0130 C   0  0  0  0  0  1  0  0  0  0  0  0
  1 51  1  0
  1  2  1  0
  2  4  1  0
  2  5  1  0
  2  3  1  0
  6  5  1  0
  6  7  1  0
  7  9  1  0
  8  6  2  0
 10  7  1  0
 11 12  1  0
 12  1  1  0
 12 21  2  3
 13 19  1  0
 13 21  1  0
 14 19  1  0
 15 16  1  0
 15 14  1  0
 17 16  1  0
 17 26  1  0
 17 18  1  0
 19 18  1  0
 20 13  2  0
 21 22  1  0
 23 24  2  0
 24 43  1  0
 25 24  1  0
 25 28  1  0
 26 27  1  0
 26 23  1  0
 27 25  2  0
 28 29  1  0
 29 30  2  0
 31 34  1  0
 31 30  1  0
 32 31  2  0
 33 32  1  0
 33 28  2  0
 34 35  1  0
 35 36  1  0
 36 37  2  0
 38 37  1  0
 38 42  1  0
 39 38  2  0
 40 35  2  0
 40 39  1  0
 41 40  1  0
 43 44  1  0
 44 47  1  0
 44 46  1  0
 45 43  2  0
 48 49  1  0
 48 23  1  0
 50 48  1  0
 51 52  1  0
 53 54  1  0
 53 52  2  0
 55 66  2  0
 56 54  1  0
 56 61  1  0
 57 65  1  0
 57 67  1  0
 58 64  1  0
 58 60  1  0
 59 65  1  0
 60 61  2  0
 60 59  1  0
 62 56  2  0
 63 62  1  0
 63 58  2  0
 64 57  1  0
 65 55  1  0
 67 69  2  0
 68 67  1  0
 70 68  1  0
 71 80  2  0
 71 76  1  0
 72 68  1  0
 72 76  1  0
 73 72  1  0
 74 75  1  0
 74 73  1  0
 75 71  1  0
 76 77  2  0
 77 78  1  0
 79 78  2  0
 80 79  1  0
 81 55  1  0
 81 82  1  0
 81 91  1  0
 82 85  1  0
 83 87  1  0
 83 82  1  0
 84 83  2  0
 87 86  1  0
 89 90  1  0
 89 87  1  0
 89 88  1  0
 91 94  1  1
 91 92  1  0
 93 91  1  0
M  ISO  4  13 100  21 100  53 101  54 101
M  END
>  <TORSDO>  (81) 
F 23

>  <SCORE>  (81) 
-14.450

>  <name>  (81) 
81

>  <ligand_id>  (81) 
81

>  <original_smiles>  (81) 
[H]c1c([H])c([H])c2c(c1[H])C([H])([H])C([H])([H])C([H])([H])C2([H])N([H])C(=O)C1([H])N(C(=O)C([H])(N([H])C(=O)C([H])(N([H])C([H])([H])[H])C([H])([H])[H])C(C([H])([H])[H])(C([H])([H])[H])C([H])([H])[H])C([H])([H])c2c([H])c(OC([H])([H])C([H])([H])C([H])([H])C([H])(C([H])(N([H])C(=O)N3C([H])([H])C([H])([H])C([H])([H])C([H])(n4nc(-c5c([H])c([H])c(Oc6c([H])c([H])c(F)c([H])c6F)c([H])c5[H])c(C(=O)N([H])[H])c4N([H])[H])C3([H])[H])C([H])([H])[H])[N+]([H])([H])C([H])([H])C(=O)N([H])[H])c([H])c([H])c2C1([H])[H]

>  <smiles>  (81) 
[H]c1c([H])c([H])c2c(c1[H])C([H])([H])C([H])([H])C([H])([H])C2([H])N([H])C(=O)C1([H])N(C(=O)C([H])(N([H])C(=O)C([H])(N([H])C([H])([H])[H])C([H])([H])[H])C(C([H])([H])[H])(C([H])([H])[H])C([H])([H])[H])C([H])([H])c2c([H])c(OC([H])([H])C([H])([H])C([H])([H])C([H])(C([H])(N([H])C(=O)N3C([H])([H])C([H])([H])C([H])([H])C([H])(n4nc(-c5c([H])c([H])c(Oc6c([H])c([H])c(F)c([H])c6F)c([H])c5[H])c(C(=O)N([H])[H])c4N([H])[H])C3([H])[H])C([H])([H])[H])[N+]([H])([H])C([H])([H])C(=O)N([H])[H])c([H])c([H])c2C1([H])[H]

$$$$
82:0:0
     RDKit          3D

 86 94  0  0  1  0  0  0  0  0999 V2000
  -28.5900  -21.4750   21.3230 C   0  0  0  0  0  3  0  0  0  0  0  0
  -29.0570  -21.6180   19.1640 C   0  0  0  0  0  3  0  0  0  0  0  0
  -28.2500  -22.9760   21.3400 C   0  0  0  0  0  3  0  0  0  0  0  0
  -28.7180  -23.1120   19.1850 C   0  0  0  0  0  3  0  0  0  0  0  0
  -29.0510  -20.5670   20.2250 C   0  0  0  0  0  0  0  0  0  0  0  0
  -28.2540  -24.0250   20.2710 C   0  0  0  0  0  0  0  0  0  0  0  0
  -28.1860  -25.6470   20.3160 O   0  0  0  0  0  0  0  0  0  0  0  0
  -24.6620  -31.9280   23.2350 C   0  0  0  0  0  0  0  0  0  0  0  0
  -27.1690  -26.8190   20.2920 C   0  0  0  0  0  0  0  0  0  0  0  0
  -23.4650  -30.5190   21.6140 C   0  0  0  0  0  3  0  0  0  0  0  0
  -24.9030  -28.8490   20.2170 C   0  0  0  0  0  0  0  0  0  0  0  0
  -26.0410  -30.6540   21.4840 C   0  0  0  0  0  2  0  0  0  0  0  0
  -26.0980  -29.2130   20.8480 C   0  0  0  0  0  0  0  0  0  0  0  0
  -27.2130  -28.2240   20.8550 C   0  0  0  0  0  3  0  0  0  0  0  0
  -25.9420  -26.6630   19.5990 C   0  0  0  0  0  3  0  0  0  0  0  0
  -24.8620  -27.6010   19.5720 C   0  0  0  0  0  3  0  0  0  0  0  0
  -23.6990  -29.8040   20.2510 C   0  0  0  0  0  2  0  0  0  0  0  0
  -24.7480  -31.0670   22.1630 N   0  0  0  0  0  0  0  0  0  0  0  0
  -23.5730  -32.2380   23.7460 O   0  0  0  0  0  0  0  0  0  0  0  0
  -22.7490  -29.5540   22.5970 C   0  0  0  0  0  0  0  0  0  0  0  0
  -21.4170  -29.3950   22.4680 N   0  0  0  0  0  0  0  0  0  0  0  0
  -23.4020  -28.9450   23.4470 O   0  0  0  0  0  0  0  0  0  0  0  0
  -20.9400  -29.9360   21.7590 H   0  0  0  0  0  0  0  0  0  0  0  0
  -18.0330  -28.1730   22.9750 C   0  0  0  0  0  0  0  0  0  0  0  0
  -20.5890  -28.4690   23.2500 C   0  0  0  0  0  3  0  0  0  0  0  0
  -20.7050  -27.0260   22.7040 C   0  0  0  0  0  2  0  0  0  0  0  0
  -19.6150  -26.6760   21.6860 C   0  0  0  0  0  2  0  0  0  0  0  0
  -18.2280  -26.8170   22.3180 C   0  0  0  0  0  2  0  0  0  0  0  0
  -19.1420  -28.9550   23.3970 C   0  0  0  0  0  0  0  0  0  0  0  0
  -18.9030  -30.2210   23.9760 C   0  0  0  0  0  3  0  0  0  0  0  0
  -17.5900  -30.7070   24.1320 C   0  0  0  0  0  3  0  0  0  0  0  0
  -16.4970  -29.9240   23.7210 C   0  0  0  0  0  3  0  0  0  0  0  0
  -16.7200  -28.6580   23.1500 C   0  0  0  0  0  3  0  0  0  0  0  0
  -25.9300  -32.5800   23.8670 C   0  0  0  0  0  3  0  0  0  0  0  0
  -25.6140  -33.9850   24.1920 N   0  0  0  0  0  0  0  0  0  0  0  0
  -25.9280  -35.0440   23.4330 C   0  0  0  0  0  0  0  0  0  0  0  0
  -26.5710  -34.9400   22.3850 O   0  0  0  0  0  0  0  0  0  0  0  0
  -25.0360  -34.1380   25.0060 H   0  0  0  0  0  0  0  0  0  0  0  0
  -24.1800  -36.8370   23.1440 C   0  0  0  0  0  1  0  0  0  0  0  0
  -25.4570  -36.4370   23.9020 C   0  0  0  0  0  3  0  0  0  0  0  0
  -27.6160  -37.3430   24.6430 C   0  0  0  0  0  1  0  0  0  0  0  0
  -26.4800  -37.4950   23.7380 N   0  0  0  0  0  0  0  0  0  0  0  0
  -26.0760  -38.4150   23.8880 H   0  0  0  0  0  0  0  0  0  0  0  0
  -26.4270  -31.8300   25.1660 C   0  0  1  0  0  0  0  0  0  0  0  0
  -25.3220  -31.6200   26.2280 C   0  0  0  0  0  1  0  0  0  0  0  0
  -27.0070  -30.4420   24.8160 C   0  0  0  0  0  1  0  0  0  0  0  0
  -27.5770  -32.6300   25.8250 C   0  0  0  0  0  1  0  0  0  0  0  0
  -29.8100  -18.8500   20.1940 C   0  0  0  0  0  2  0  0  0  0  0  0
  -30.2800  -15.7320   20.1460 C   0  0  0  0  0  0  0  0  0  0  0  0
  -30.3600  -13.2040   19.2870 C   0  0  0  0  0  2  0  0  0  0  0  0
  -29.4450  -12.8240   18.0890 C   0  0  0  0  0  2  0  0  0  0  0  0
  -28.0330  -12.4610   18.5730 C   0  0  0  0  0  2  0  0  0  0  0  0
  -27.5440  -13.4400   19.6650 C   0  0  0  0  0  3  0  0  0  0  0  0
  -28.6000  -13.7350   20.7550 C   0  0  0  0  0  2  0  0  0  0  0  0
  -29.7540  -14.3690   20.0780 N   0  0  0  0  0  0  0  0  0  0  0  0
  -31.5060  -15.6750   19.9330 O   0  0  0  0  0  0  0  0  0  0  0  0
  -29.5360  -17.0970   20.2570 N   0  0  0  0  0  0  0  0  0  0  0  0
  -28.5510  -16.9140   20.3940 H   0  0  0  0  0  0  0  0  0  0  0  0
  -25.1960  -13.9340   20.4960 C   0  0  0  0  0  0  0  0  0  0  0  0
  -24.1560  -13.1360   20.8780 C   0  0  0  0  0  0  0  0  0  0  0  0
  -24.6420  -11.7930   20.8150 C   0  0  0  0  0  0  0  0  0  0  0  0
  -26.2440  -13.0790   20.2120 N   0  0  0  0  0  0  0  0  0  0  0  0
  -25.9270  -11.7830   20.4710 N   0  0  0  0  0  0  0  0  0  0  0  0
  -23.9330  -10.5190   21.0010 C   0  0  0  0  0  0  0  0  0  0  0  0
  -24.3800   -9.5520   21.9290 C   0  0  0  0  0  3  0  0  0  0  0  0
  -23.6660   -8.3470   22.1050 C   0  0  0  0  0  3  0  0  0  0  0  0
  -22.4910   -8.1000   21.3570 C   0  0  0  0  0  0  0  0  0  0  0  0
  -22.0630   -9.0560   20.4180 C   0  0  0  0  0  3  0  0  0  0  0  0
  -22.7780  -10.2520   20.2390 C   0  0  0  0  0  3  0  0  0  0  0  0
  -21.7480   -6.9480   21.4430 O   0  0  0  0  0  0  0  0  0  0  0  0
  -21.6920   -6.2130   22.6010 C   0  0  0  0  0  0  0  0  0  0  0  0
  -21.2140   -6.7660   23.8100 C   0  0  0  0  0  3  0  0  0  0  0  0
  -21.1080   -5.9560   24.9590 C   0  0  0  0  0  3  0  0  0  0  0  0
  -21.4670   -4.5960   24.8990 C   0  0  0  0  0  0  0  0  0  0  0  0
  -21.9370   -4.0440   23.6940 C   0  0  0  0  0  3  0  0  0  0  0  0
  -22.0450   -4.8500   22.5480 C   0  0  0  0  0  0  0  0  0  0  0  0
  -22.4780   -4.3080   21.3830 F   0  0  0  0  0  0  0  0  0  0  0  0
  -21.3590   -3.8160   26.0000 F   0  0  0  0  0  0  0  0  0  0  0  0
  -22.7590  -13.5920   21.1800 C   0  0  0  0  0  0  0  0  0  0  0  0
  -22.0590  -12.8810   22.0560 N   0  0  0  0  0  0  0  0  0  0  0  0
  -22.3000  -14.6170   20.6770 O   0  0  0  0  0  0  0  0  0  0  0  0
  -22.4470  -12.0530   22.4850 H   0  0  0  0  0  0  0  0  0  0  0  0
  -21.1210  -13.1660   22.3000 H   0  0  0  0  0  0  0  0  0  0  0  0
  -25.3340  -15.3090   20.3330 N   0  0  0  0  0  0  0  0  0  0  0  0
  -24.5570  -15.9470   20.4650 H   0  0  0  0  0  0  0  0  0  0  0  0
  -26.1550  -15.7600   19.9510 H   0  0  0  0  0  0  0  0  0  0  0  0
  1  3  1  0
  2  4  2  0
  2  5  1  0
  4  6  1  0
  5  1  2  0
  6  7  1  0
  6  3  2  0
  8 19  2  0
  9  7  1  0
  9 14  1  0
 10 18  1  0
 10 20  1  0
 11 17  1  0
 11 13  1  0
 12 18  1  0
 13 14  2  0
 13 12  1  0
 15  9  2  0
 16 15  1  0
 16 11  2  0
 17 10  1  0
 18  8  1  0
 20 22  2  0
 21 20  1  0
 23 21  1  0
 24 33  2  0
 24 29  1  0
 25 21  1  0
 25 29  1  0
 26 25  1  0
 27 28  1  0
 27 26  1  0
 28 24  1  0
 29 30  2  0
 30 31  1  0
 32 31  2  0
 33 32  1  0
 34  8  1  0
 34 35  1  0
 34 44  1  0
 35 38  1  0
 36 40  1  0
 36 35  1  0
 37 36  2  0
 40 39  1  0
 42 43  1  0
 42 40  1  0
 42 41  1  0
 44 47  1  1
 44 45  1  0
 46 44  1  0
 48  5  1  0
 48 57  1  0
 49 57  1  0
 50 55  1  0
 51 52  1  0
 51 50  1  0
 53 52  1  0
 53 62  1  0
 53 54  1  0
 55 49  1  0
 55 54  1  0
 56 49  2  0
 57 58  1  0
 59 60  2  0
 60 79  1  0
 61 60  1  0
 61 64  1  0
 62 63  1  0
 62 59  1  0
 63 61  2  0
 64 65  1  0
 65 66  2  0
 67 70  1  0
 67 66  1  0
 68 67  2  0
 69 68  1  0
 69 64  2  0
 70 71  1  0
 71 72  1  0
 72 73  2  0
 74 73  1  0
 74 78  1  0
 75 74  2  0
 76 71  2  0
 76 75  1  0
 77 76  1  0
 79 80  1  0
 80 83  1  0
 80 82  1  0
 81 79  2  0
 84 85  1  0
 84 59  1  0
 86 84  1  0
M  ISO  4   6 101   7 101  49 100  57 100
M  END
>  <TORSDO>  (82) 
F 17

>  <SCORE>  (82) 
-15.844

>  <name>  (82) 
82

>  <ligand_id>  (82) 
82

>  <original_smiles>  (82) 
[H]c1c([H])c([H])c2c(c1[H])C([H])([H])C([H])([H])C([H])([H])C2([H])N([H])C(=O)C1([H])N(C(=O)C([H])(N([H])C(=O)C([H])(N([H])C([H])([H])[H])C([H])([H])[H])C(C([H])([H])[H])(C([H])([H])[H])C([H])([H])[H])C([H])([H])c2c([H])c(Oc3c([H])c([H])c(C([H])([H])N([H])C(=O)N4C([H])([H])C([H])([H])C([H])([H])C([H])(n5nc(-c6c([H])c([H])c(Oc7c([H])c([H])c(F)c([H])c7F)c([H])c6[H])c(C(=O)N([H])[H])c5N([H])[H])C4([H])[H])c([H])c3[H])c([H])c([H])c2C1([H])[H]

>  <smiles>  (82) 
[H]c1c([H])c([H])c2c(c1[H])C([H])([H])C([H])([H])C([H])([H])C2([H])N([H])C(=O)C1([H])N(C(=O)C([H])(N([H])C(=O)C([H])(N([H])C([H])([H])[H])C([H])([H])[H])C(C([H])([H])[H])(C([H])([H])[H])C([H])([H])[H])C([H])([H])c2c([H])c(Oc3c([H])c([H])c(C([H])([H])N([H])C(=O)N4C([H])([H])C([H])([H])C([H])([H])C([H])(n5nc(-c6c([H])c([H])c(Oc7c([H])c([H])c(F)c([H])c7F)c([H])c6[H])c(C(=O)N([H])[H])c5N([H])[H])C4([H])[H])c([H])c3[H])c([H])c([H])c2C1([H])[H]

$$$$
83:0:0
     RDKit          3D

 97105  0  0  1  0  0  0  0  0999 V2000
  -27.2010  -21.0400   22.3730 C   0  0  0  0  0  3  0  0  0  0  0  0
  -26.6980  -22.4580   22.0260 C   0  0  0  0  0  0  0  0  0  0  0  0
  -27.5810  -23.4650   21.9140 N   0  0  0  0  0  0  0  0  0  0  0  0
  -25.4930  -22.6340   21.8100 O   0  0  0  0  0  0  0  0  0  0  0  0
  -28.5510  -23.3010   22.1530 H   0  0  0  0  0  0  0  0  0  0  0  0
  -27.2520  -24.7320   21.2580 C   0  0  0  0  0  2  0  0  0  0  0  0
  -28.4440  -25.7160   21.1690 C   0  0  0  0  0  2  0  0  0  0  0  0
  -28.3530  -26.6810   20.1080 O   0  0  0  0  0  0  0  0  0  0  0  0
  -24.6110  -31.8690   23.2170 C   0  0  0  0  0  0  0  0  0  0  0  0
  -27.2180  -27.4530   20.1130 C   0  0  0  0  0  0  0  0  0  0  0  0
  -23.3980  -30.4960   21.5550 C   0  0  0  0  0  3  0  0  0  0  0  0
  -24.8440  -28.9720   20.1150 C   0  0  0  0  0  0  0  0  0  0  0  0
  -25.9230  -30.8480   21.3660 C   0  0  0  0  0  2  0  0  0  0  0  0
  -26.0030  -29.4800   20.7200 C   0  0  0  0  0  0  0  0  0  0  0  0
  -27.1960  -28.7230   20.7260 C   0  0  0  0  0  3  0  0  0  0  0  0
  -26.0610  -26.9770   19.4650 C   0  0  0  0  0  3  0  0  0  0  0  0
  -24.8670  -27.7190   19.4830 C   0  0  0  0  0  3  0  0  0  0  0  0
  -23.6050  -29.8360   20.1660 C   0  0  0  0  0  2  0  0  0  0  0  0
  -24.6630  -31.0830   22.1060 N   0  0  0  0  0  0  0  0  0  0  0  0
  -23.5320  -32.1400   23.7610 O   0  0  0  0  0  0  0  0  0  0  0  0
  -22.7380  -29.4650   22.4980 C   0  0  0  0  0  0  0  0  0  0  0  0
  -21.4110  -29.3020   22.3770 N   0  0  0  0  0  0  0  0  0  0  0  0
  -23.4160  -28.8150   23.2990 O   0  0  0  0  0  0  0  0  0  0  0  0
  -20.9230  -29.8910   21.7160 H   0  0  0  0  0  0  0  0  0  0  0  0
  -18.0250  -28.1330   22.8460 C   0  0  0  0  0  0  0  0  0  0  0  0
  -20.5840  -28.3610   23.1330 C   0  0  0  0  0  3  0  0  0  0  0  0
  -20.6740  -26.9350   22.5420 C   0  0  0  0  0  2  0  0  0  0  0  0
  -19.5740  -26.6340   21.5190 C   0  0  0  0  0  2  0  0  0  0  0  0
  -18.1900  -26.7880   22.1600 C   0  0  0  0  0  2  0  0  0  0  0  0
  -19.1500  -28.8780   23.2880 C   0  0  0  0  0  0  0  0  0  0  0  0
  -18.9440  -30.1390   23.8890 C   0  0  0  0  0  3  0  0  0  0  0  0
  -17.6450  -30.6540   24.0530 C   0  0  0  0  0  3  0  0  0  0  0  0
  -16.5330  -29.9050   23.6330 C   0  0  0  0  0  3  0  0  0  0  0  0
  -16.7250  -28.6470   23.0340 C   0  0  0  0  0  3  0  0  0  0  0  0
  -25.9000  -32.4850   23.8430 C   0  0  0  0  0  3  0  0  0  0  0  0
  -25.5890  -33.8650   24.2330 N   0  0  0  0  0  0  0  0  0  0  0  0
  -25.9040  -34.9490   23.5120 C   0  0  0  0  0  0  0  0  0  0  0  0
  -26.5590  -34.8920   22.4670 O   0  0  0  0  0  0  0  0  0  0  0  0
  -25.0080  -33.9840   25.0500 H   0  0  0  0  0  0  0  0  0  0  0  0
  -24.1490  -36.7340   23.2630 C   0  0  0  0  0  1  0  0  0  0  0  0
  -25.4120  -36.3130   24.0320 C   0  0  0  0  0  3  0  0  0  0  0  0
  -27.5570  -37.1830   24.8440 C   0  0  0  0  0  1  0  0  0  0  0  0
  -26.4290  -37.3830   23.9380 N   0  0  0  0  0  0  0  0  0  0  0  0
  -26.0180  -38.2890   24.1440 H   0  0  0  0  0  0  0  0  0  0  0  0
  -26.4430  -31.6650   25.0750 C   0  0  1  0  0  0  0  0  0  0  0  0
  -25.3720  -31.3760   26.1520 C   0  0  0  0  0  1  0  0  0  0  0  0
  -27.0240  -30.3110   24.6070 C   0  0  0  0  0  1  0  0  0  0  0  0
  -27.6000  -32.4380   25.7530 C   0  0  0  0  0  1  0  0  0  0  0  0
  -25.9840  -19.0030   23.1850 C   0  0  0  0  0  1  0  0  0  0  0  0
  -26.0490  -20.1230   22.2240 N   0  0  0  0  0  4  0  0  0  0  0  0
  -25.2500  -20.7300   22.3510 H   0  0  0  0  0  0  0  0  0  0  0  0
  -26.0050  -19.7870   21.2770 H   0  0  0  0  0  0  0  0  0  0  0  0
  -28.3790  -20.6440   21.4440 C   0  0  0  0  0  2  0  0  0  0  0  0
  -29.4930  -18.3970   21.9810 C   0  0  0  0  0  3  0  0  0  0  0  0
  -28.1030  -18.6020   19.9920 C   0  0  0  0  0  3  0  0  0  0  0  0
  -29.8960  -17.1070   21.5700 C   0  0  0  0  0  3  0  0  0  0  0  0
  -28.5060  -17.3220   19.5810 C   0  0  0  0  0  3  0  0  0  0  0  0
  -28.6390  -19.1700   21.1630 C   0  0  0  0  0  0  0  0  0  0  0  0
  -29.4570  -16.5880   20.3260 C   0  0  0  0  0  0  0  0  0  0  0  0
  -30.7190  -14.4750   20.3690 C   0  0  0  0  0  0  0  0  0  0  0  0
  -30.4110  -12.2510   19.4280 C   0  0  0  0  0  2  0  0  0  0  0  0
  -29.4780  -12.3830   18.2050 C   0  0  0  0  0  2  0  0  0  0  0  0
  -27.9990  -12.3120   18.6310 C   0  0  0  0  0  2  0  0  0  0  0  0
  -27.6510  -13.2100   19.8490 C   0  0  0  0  0  3  0  0  0  0  0  0
  -28.7090  -13.0870   20.9700 C   0  0  0  0  0  2  0  0  0  0  0  0
  -30.0340  -13.3050   20.3750 N   0  0  0  0  0  0  0  0  0  0  0  0
  -31.9490  -14.5350   20.3340 O   0  0  0  0  0  0  0  0  0  0  0  0
  -30.4970  -15.6940   18.3140 C   0  0  0  0  0  1  0  0  0  0  0  0
  -30.0510  -15.4490   19.7040 N   0  0  0  0  0  0  0  0  0  0  0  0
  -25.2580  -13.8210   20.5730 C   0  0  0  0  0  0  0  0  0  0  0  0
  -24.1830  -13.0470   20.9220 C   0  0  0  0  0  0  0  0  0  0  0  0
  -24.6390  -11.6950   20.8810 C   0  0  0  0  0  0  0  0  0  0  0  0
  -26.3000  -12.9380   20.3370 N   0  0  0  0  0  0  0  0  0  0  0  0
  -25.9320  -11.6540   20.5850 N   0  0  0  0  0  0  0  0  0  0  0  0
  -23.9060  -10.4320   21.0450 C   0  0  0  0  0  0  0  0  0  0  0  0
  -24.3610   -9.4230   21.9210 C   0  0  0  0  0  3  0  0  0  0  0  0
  -23.6300   -8.2250   22.0750 C   0  0  0  0  0  3  0  0  0  0  0  0
  -22.4280   -8.0300   21.3550 C   0  0  0  0  0  0  0  0  0  0  0  0
  -21.9920   -9.0280   20.4650 C   0  0  0  0  0  3  0  0  0  0  0  0
  -22.7240  -10.2160   20.3080 C   0  0  0  0  0  3  0  0  0  0  0  0
  -21.6640   -6.8900   21.4240 O   0  0  0  0  0  0  0  0  0  0  0  0
  -21.6850   -6.0760   22.5290 C   0  0  0  0  0  0  0  0  0  0  0  0
  -21.4010   -6.5660   23.8230 C   0  0  0  0  0  3  0  0  0  0  0  0
  -21.3660   -5.6800   24.9190 C   0  0  0  0  0  3  0  0  0  0  0  0
  -21.6040   -4.3060   24.7230 C   0  0  0  0  0  0  0  0  0  0  0  0
  -21.8810   -3.8160   23.4340 C   0  0  0  0  0  3  0  0  0  0  0  0
  -21.9190   -4.6990   22.3410 C   0  0  0  0  0  0  0  0  0  0  0  0
  -22.1660   -4.2180   21.0980 F   0  0  0  0  0  0  0  0  0  0  0  0
  -21.5630   -3.4540   25.7740 F   0  0  0  0  0  0  0  0  0  0  0  0
  -22.7850  -13.5270   21.1890 C   0  0  0  0  0  0  0  0  0  0  0  0
  -22.0470  -12.8250   22.0420 N   0  0  0  0  0  0  0  0  0  0  0  0
  -22.3560  -14.5600   20.6770 O   0  0  0  0  0  0  0  0  0  0  0  0
  -22.4040  -11.9870   22.4770 H   0  0  0  0  0  0  0  0  0  0  0  0
  -21.1080  -13.1290   22.2620 H   0  0  0  0  0  0  0  0  0  0  0  0
  -25.4330  -15.1920   20.4130 N   0  0  0  0  0  0  0  0  0  0  0  0
  -24.6660  -15.8490   20.5030 H   0  0  0  0  0  0  0  0  0  0  0  0
  -26.3010  -15.6270   20.1260 H   0  0  0  0  0  0  0  0  0  0  0  0
  1 53  1  0
  2  1  1  0
  3  2  1  0
  3  5  1  0
  4  2  2  0
  6  3  1  0
  7  6  1  0
  8 10  1  0
  8  7  1  0
  9 20  2  0
 10 15  1  0
 11 19  1  0
 11 21  1  0
 12 18  1  0
 12 14  1  0
 13 19  1  0
 14 15  2  0
 14 13  1  0
 16 17  1  0
 16 10  2  0
 17 12  2  0
 18 11  1  0
 19  9  1  0
 21 23  2  0
 22 21  1  0
 24 22  1  0
 25 34  2  0
 25 30  1  0
 26 22  1  0
 26 30  1  0
 27 26  1  0
 28 29  1  0
 28 27  1  0
 29 25  1  0
 30 31  2  0
 31 32  1  0
 33 32  2  0
 34 33  1  0
 35  9  1  0
 35 36  1  0
 35 45  1  0
 36 39  1  0
 37 41  1  0
 37 36  1  0
 38 37  2  0
 41 40  1  0
 43 41  1  0
 43 44  1  0
 43 42  1  0
 45 48  1  1
 45 46  1  0
 47 45  1  0
 50 51  1  0
 50  1  1  0
 50 49  1  0
 52 50  1  0
 55 58  1  0
 56 54  1  0
 57 55  2  0
 57 59  1  0
 58 53  1  0
 58 54  2  0
 59 56  2  0
 60 66  1  0
 61 66  1  0
 62 63  1  0
 62 61  1  0
 64 63  1  0
 64 73  1  0
 64 65  1  0
 66 65  1  0
 67 60  2  0
 68 69  1  0
 69 59  1  0
 69 60  1  0
 70 71  2  0
 71 90  1  0
 72 71  1  0
 72 75  1  0
 73 70  1  0
 73 74  1  0
 74 72  2  0
 75 76  1  0
 76 77  2  0
 78 81  1  0
 78 77  1  0
 79 78  2  0
 80 79  1  0
 80 75  2  0
 81 82  1  0
 82 83  1  0
 83 84  2  0
 85 84  1  0
 85 89  1  0
 86 85  2  0
 87 82  2  0
 87 86  1  0
 88 87  1  0
 90 91  1  0
 91 94  1  0
 91 93  1  0
 92 90  2  0
 95 96  1  0
 95 70  1  0
 97 95  1  0
M  ISO  4   7 101   8 101  60 100  69 100
M  END
>  <TORSDO>  (83) 
F 22

>  <SCORE>  (83) 
10.843

>  <name>  (83) 
83

>  <ligand_id>  (83) 
83

>  <original_smiles>  (83) 
[H]c1c([H])c([H])c2c(c1[H])C([H])([H])C([H])([H])C([H])([H])C2([H])N([H])C(=O)C1([H])N(C(=O)C([H])(N([H])C(=O)C([H])(N([H])C([H])([H])[H])C([H])([H])[H])C(C([H])([H])[H])(C([H])([H])[H])C([H])([H])[H])C([H])([H])c2c([H])c(OC([H])([H])C([H])([H])N([H])C(=O)C([H])(C([H])([H])c3c([H])c([H])c(N(C(=O)N4C([H])([H])C([H])([H])C([H])([H])C([H])(n5nc(-c6c([H])c([H])c(Oc7c([H])c([H])c(F)c([H])c7F)c([H])c6[H])c(C(=O)N([H])[H])c5N([H])[H])C4([H])[H])C([H])([H])[H])c([H])c3[H])[N+]([H])([H])C([H])([H])[H])c([H])c([H])c2C1([H])[H]

>  <smiles>  (83) 
[H]c1c([H])c([H])c2c(c1[H])C([H])([H])C([H])([H])C([H])([H])C2([H])N([H])C(=O)C1([H])N(C(=O)C([H])(N([H])C(=O)C([H])(N([H])C([H])([H])[H])C([H])([H])[H])C(C([H])([H])[H])(C([H])([H])[H])C([H])([H])[H])C([H])([H])c2c([H])c(OC([H])([H])C([H])([H])N([H])C(=O)C([H])(C([H])([H])c3c([H])c([H])c(N(C(=O)N4C([H])([H])C([H])([H])C([H])([H])C([H])(n5nc(-c6c([H])c([H])c(Oc7c([H])c([H])c(F)c([H])c7F)c([H])c6[H])c(C(=O)N([H])[H])c5N([H])[H])C4([H])[H])C([H])([H])[H])c([H])c3[H])[N+]([H])([H])C([H])([H])[H])c([H])c([H])c2C1([H])[H]

$$$$
84:0:0
     RDKit          3D

 87 94  0  0  1  0  0  0  0  0999 V2000
  -29.1920  -20.0810   19.6480 C   0  0  0  0  0  3  0  0  0  0  0  0
  -28.0290  -20.0460   18.6780 C   0  0  0  0  0  1  0  0  0  0  0  0
  -29.4900  -21.3550   20.1620 N   0  0  0  0  0  2  0  0  0  0  0  0
  -29.9530  -18.4730   19.7430 C   0  0  0  0  0  3  0  0  0  0  0  0
  -29.3720  -16.7750   19.7260 C   0  0  0  0  0  0  0  0  0  0  0  0
  -30.1990  -15.2060   19.6050 C   0  0  0  0  0  0  0  0  0  0  0  0
  -30.3910  -12.6510   19.1400 C   0  0  0  0  0  2  0  0  0  0  0  0
  -29.4330  -12.1580   18.0200 C   0  0  0  0  0  2  0  0  0  0  0  0
  -28.0100  -11.8820   18.5380 C   0  0  0  0  0  2  0  0  0  0  0  0
  -27.5450  -12.9770   19.5320 C   0  0  0  0  0  3  0  0  0  0  0  0
  -28.6370  -13.2930   20.5770 C   0  0  0  0  0  2  0  0  0  0  0  0
  -29.7820  -13.8510   19.8300 N   0  0  0  0  0  0  0  0  0  0  0  0
  -31.3790  -15.2320   19.2200 O   0  0  0  0  0  0  0  0  0  0  0  0
  -25.2170  -13.5520   20.4110 C   0  0  0  0  0  0  0  0  0  0  0  0
  -24.1790  -12.7810   20.8610 C   0  0  0  0  0  0  0  0  0  0  0  0
  -24.6380  -11.4310   20.8060 C   0  0  0  0  0  0  0  0  0  0  0  0
  -26.2460  -12.6710   20.1200 N   0  0  0  0  0  0  0  0  0  0  0  0
  -25.9090  -11.3890   20.4160 N   0  0  0  0  0  0  0  0  0  0  0  0
  -23.9190  -10.1710   21.0470 C   0  0  0  0  0  0  0  0  0  0  0  0
  -24.3950   -9.2160   21.9720 C   0  0  0  0  0  3  0  0  0  0  0  0
  -23.6770   -8.0250   22.2070 C   0  0  0  0  0  3  0  0  0  0  0  0
  -22.4660   -7.7780   21.5170 C   0  0  0  0  0  0  0  0  0  0  0  0
  -22.0080   -8.7210   20.5800 C   0  0  0  0  0  3  0  0  0  0  0  0
  -22.7280   -9.9050   20.3430 C   0  0  0  0  0  3  0  0  0  0  0  0
  -21.7120   -6.6380   21.6660 O   0  0  0  0  0  0  0  0  0  0  0  0
  -21.6810   -5.9410   22.8470 C   0  0  0  0  0  0  0  0  0  0  0  0
  -21.2770   -6.5430   24.0600 C   0  0  0  0  0  3  0  0  0  0  0  0
  -21.1980   -5.7710   25.2370 C   0  0  0  0  0  3  0  0  0  0  0  0
  -21.5090   -4.3990   25.2000 C   0  0  0  0  0  0  0  0  0  0  0  0
  -21.9070   -3.7970   23.9930 C   0  0  0  0  0  3  0  0  0  0  0  0
  -21.9900   -4.5660   22.8200 C   0  0  0  0  0  0  0  0  0  0  0  0
  -22.3510   -3.9770   21.6550 F   0  0  0  0  0  0  0  0  0  0  0  0
  -21.4250   -3.6540   26.3280 F   0  0  0  0  0  0  0  0  0  0  0  0
  -22.8050  -13.2670   21.2160 C   0  0  0  0  0  0  0  0  0  0  0  0
  -22.1440  -12.6030   22.1570 N   0  0  0  0  0  0  0  0  0  0  0  0
  -22.3270  -14.2730   20.6990 O   0  0  0  0  0  0  0  0  0  0  0  0
  -22.5440  -11.7950   22.6100 H   0  0  0  0  0  0  0  0  0  0  0  0
  -21.2240  -12.9170   22.4320 H   0  0  0  0  0  0  0  0  0  0  0  0
  -25.3590  -14.9170   20.2030 N   0  0  0  0  0  0  0  0  0  0  0  0
  -24.5990  -15.5640   20.3860 H   0  0  0  0  0  0  0  0  0  0  0  0
  -26.1880  -15.3620   19.8330 H   0  0  0  0  0  0  0  0  0  0  0  0
  -27.8700  -16.8050   19.3410 C   0  0  0  0  0  2  0  0  0  0  0  0
  -27.0510  -17.8040   20.2040 C   0  0  0  0  0  2  0  0  0  0  0  0
  -25.7480  -17.6960   19.9420 F   0  0  0  0  0  0  0  0  0  0  0  0
  -28.9880  -22.8710   19.6840 C   0  0  0  0  0  2  0  0  0  0  0  0
  -28.7280  -24.3760   20.6070 C   0  0  0  0  0  2  0  0  0  0  0  0
  -28.6780  -25.9860   20.2960 O   0  0  0  0  0  0  0  0  0  0  0  0
  -24.7240  -31.7190   23.2230 C   0  0  0  0  0  0  0  0  0  0  0  0
  -27.5640  -26.9670   20.3220 C   0  0  0  0  0  0  0  0  0  0  0  0
  -23.6280  -30.2860   21.5460 C   0  0  0  0  0  3  0  0  0  0  0  0
  -25.1790  -28.7210   20.1970 C   0  0  0  0  0  0  0  0  0  0  0  0
  -26.1880  -30.5960   21.4790 C   0  0  0  0  0  2  0  0  0  0  0  0
  -26.3320  -29.1890   20.8400 C   0  0  0  0  0  0  0  0  0  0  0  0
  -27.5220  -28.3370   20.8700 C   0  0  0  0  0  3  0  0  0  0  0  0
  -26.3720  -26.6300   19.6460 C   0  0  0  0  0  3  0  0  0  0  0  0
  -25.2170  -27.4560   19.5880 C   0  0  0  0  0  3  0  0  0  0  0  0
  -23.9280  -29.5990   20.1850 C   0  0  0  0  0  2  0  0  0  0  0  0
  -24.8650  -30.8930   22.1370 N   0  0  0  0  0  0  0  0  0  0  0  0
  -23.6090  -31.9720   23.7070 O   0  0  0  0  0  0  0  0  0  0  0  0
  -22.9340  -29.2690   22.4880 C   0  0  0  0  0  0  0  0  0  0  0  0
  -21.6150  -29.0610   22.3160 N   0  0  0  0  0  0  0  0  0  0  0  0
  -23.5900  -28.6640   23.3390 O   0  0  0  0  0  0  0  0  0  0  0  0
  -21.1300  -29.5990   21.6110 H   0  0  0  0  0  0  0  0  0  0  0  0
  -18.2580  -27.7590   22.7280 C   0  0  0  0  0  0  0  0  0  0  0  0
  -20.8010  -28.1000   23.0660 C   0  0  0  0  0  3  0  0  0  0  0  0
  -20.9610  -26.6720   22.4930 C   0  0  0  0  0  2  0  0  0  0  0  0
  -19.9010  -26.3180   21.4460 C   0  0  0  0  0  2  0  0  0  0  0  0
  -18.4970  -26.4200   22.0510 C   0  0  0  0  0  2  0  0  0  0  0  0
  -19.3420  -28.5540   23.1900 C   0  0  0  0  0  0  0  0  0  0  0  0
  -19.0680  -29.8040   23.7860 C   0  0  0  0  0  3  0  0  0  0  0  0
  -17.7450  -30.2620   23.9260 C   0  0  0  0  0  3  0  0  0  0  0  0
  -16.6760  -29.4670   23.4800 C   0  0  0  0  0  3  0  0  0  0  0  0
  -16.9320  -28.2190   22.8850 C   0  0  0  0  0  3  0  0  0  0  0  0
  -25.9520  -32.4030   23.8980 C   0  0  0  0  0  3  0  0  0  0  0  0
  -25.5980  -33.8070   24.1710 N   0  0  0  0  0  0  0  0  0  0  0  0
  -25.9330  -34.8480   23.3950 C   0  0  0  0  0  0  0  0  0  0  0  0
  -26.6350  -34.7320   22.3870 O   0  0  0  0  0  0  0  0  0  0  0  0
  -24.9790  -33.9750   24.9510 H   0  0  0  0  0  0  0  0  0  0  0  0
  -24.1740  -36.5970   22.9630 C   0  0  0  0  0  1  0  0  0  0  0  0
  -25.4120  -36.2410   23.8020 C   0  0  0  0  0  3  0  0  0  0  0  0
  -27.5100  -37.2050   24.6380 C   0  0  0  0  0  1  0  0  0  0  0  0
  -26.4220  -37.3140   23.6690 N   0  0  0  0  0  0  0  0  0  0  0  0
  -25.9920  -38.2290   23.7790 H   0  0  0  0  0  0  0  0  0  0  0  0
  -26.4090  -31.6860   25.2300 C   0  0  1  0  0  0  0  0  0  0  0  0
  -25.2590  -31.4650   26.2410 C   0  0  0  0  0  1  0  0  0  0  0  0
  -27.0360  -30.3060   24.9330 C   0  0  0  0  0  1  0  0  0  0  0  0
  -27.5060  -32.5230   25.9290 C   0  0  0  0  0  1  0  0  0  0  0  0
  1  2  1  0
  1  4  1  0
  1  3  1  0
  5  4  2  0
  6  5  1  0
  6 12  1  0
  7 12  1  0
  8  9  1  0
  8  7  1  0
 10  9  1  0
 10 17  1  0
 10 11  1  0
 12 11  1  0
 13  6  2  0
 14 15  2  0
 15 34  1  0
 16 15  1  0
 16 19  1  0
 17 14  1  0
 17 18  1  0
 18 16  2  0
 19 20  1  0
 20 21  2  0
 22 25  1  0
 22 21  1  0
 23 22  2  0
 24 23  1  0
 24 19  2  0
 25 26  1  0
 26 27  1  0
 27 28  2  0
 29 28  1  0
 29 33  1  0
 30 29  2  0
 31 26  2  0
 31 30  1  0
 32 31  1  0
 34 35  1  0
 35 38  1  0
 35 37  1  0
 36 34  2  0
 39 40  1  0
 39 14  1  0
 41 39  1  0
 42  5  1  0
 42 43  1  0
 44 43  1  0
 45  3  1  0
 45 46  1  0
 47 49  1  0
 47 46  1  0
 48 59  2  0
 49 54  1  0
 50 58  1  0
 50 60  1  0
 51 53  1  0
 52 58  1  0
 53 54  2  0
 53 52  1  0
 55 49  2  0
 56 55  1  0
 56 51  2  0
 57 51  1  0
 57 50  1  0
 58 48  1  0
 60 62  2  0
 61 60  1  0
 63 61  1  0
 64 73  2  0
 64 69  1  0
 65 61  1  0
 65 69  1  0
 66 65  1  0
 67 68  1  0
 67 66  1  0
 68 64  1  0
 69 70  2  0
 70 71  1  0
 72 71  2  0
 73 72  1  0
 74 48  1  0
 74 75  1  0
 74 84  1  0
 75 78  1  0
 76 80  1  0
 76 75  1  0
 77 76  2  0
 80 79  1  0
 82 83  1  0
 82 80  1  0
 82 81  1  0
 84 87  1  1
 84 85  1  0
 86 84  1  0
M  ISO  4   5 100   6 100  46 101  47 101
M  END
>  <TORSDO>  (84) 
F 22

>  <SCORE>  (84) 
-14.851

>  <name>  (84) 
84

>  <ligand_id>  (84) 
84

>  <original_smiles>  (84) 
[H]c1c([H])c([H])c2c(c1[H])C([H])([H])C([H])([H])C([H])([H])C2([H])N([H])C(=O)C1([H])N(C(=O)C([H])(N([H])C(=O)C([H])(N([H])C([H])([H])[H])C([H])([H])[H])C(C([H])([H])[H])(C([H])([H])[H])C([H])([H])[H])C([H])([H])c2c([H])c(OC([H])([H])C([H])([H])N=C(C([H])([H])[H])C([H])([H])C([H])(C(=O)N3C([H])([H])C([H])([H])C([H])([H])C([H])(n4nc(-c5c([H])c([H])c(Oc6c([H])c([H])c(F)c([H])c6F)c([H])c5[H])c(C(=O)N([H])[H])c4N([H])[H])C3([H])[H])C([H])([H])C([H])([H])F)c([H])c([H])c2C1([H])[H]

>  <smiles>  (84) 
[H]c1c([H])c([H])c2c(c1[H])C([H])([H])C([H])([H])C([H])([H])C2([H])N([H])C(=O)C1([H])N(C(=O)C([H])(N([H])C(=O)C([H])(N([H])C([H])([H])[H])C([H])([H])[H])C(C([H])([H])[H])(C([H])([H])[H])C([H])([H])[H])C([H])([H])c2c([H])c(OC([H])([H])C([H])([H])N=C(C([H])([H])[H])C([H])([H])C([H])(C(=O)N3C([H])([H])C([H])([H])C([H])([H])C([H])(n4nc(-c5c([H])c([H])c(Oc6c([H])c([H])c(F)c([H])c6F)c([H])c5[H])c(C(=O)N([H])[H])c4N([H])[H])C3([H])[H])C([H])([H])C([H])([H])F)c([H])c([H])c2C1([H])[H]

$$$$
85:0:0
     RDKit          3D

 91 99  0  0  1  0  0  0  0  0999 V2000
  -28.9330  -20.4120   20.4670 C   0  0  0  0  0  0  0  0  0  0  0  0
  -29.1820  -21.8210   20.2670 N   0  0  0  0  0  0  0  0  0  0  0  0
  -27.7880  -20.0570   20.7440 O   0  0  0  0  0  0  0  0  0  0  0  0
  -30.0980  -22.0030   19.8860 H   0  0  0  0  0  0  0  0  0  0  0  0
  -31.9230  -17.8580   20.5750 C   0  0  0  0  0  3  0  0  0  0  0  0
  -32.3790  -19.1340   20.5850 C   0  0  0  0  0  3  0  0  0  0  0  0
  -30.4900  -17.8240   20.4410 C   0  0  0  0  0  0  0  0  0  0  0  0
  -30.0760  -19.2550   20.4310 C   0  0  0  0  0  0  0  0  0  0  0  0
  -31.2810  -19.9360   20.4970 N   0  0  0  0  0  0  0  0  0  0  0  0
  -31.3360  -20.9470   20.5450 H   0  0  0  0  0  0  0  0  0  0  0  0
  -30.5640  -15.0830   20.2140 C   0  0  0  0  0  0  0  0  0  0  0  0
  -30.3490  -12.7390   19.2310 C   0  0  0  0  0  2  0  0  0  0  0  0
  -29.3960  -12.6990   18.0170 C   0  0  0  0  0  2  0  0  0  0  0  0
  -27.9500  -12.4680   18.4850 C   0  0  0  0  0  2  0  0  0  0  0  0
  -27.5680  -13.3750   19.6840 C   0  0  0  0  0  3  0  0  0  0  0  0
  -28.6540  -13.4200   20.7820 C   0  0  0  0  0  2  0  0  0  0  0  0
  -29.8990  -13.8490   20.1340 N   0  0  0  0  0  0  0  0  0  0  0  0
  -31.7590  -15.0160   19.9090 O   0  0  0  0  0  0  0  0  0  0  0  0
  -29.9140  -16.3690   20.4020 N   0  0  0  0  0  0  0  0  0  0  0  0
  -28.9140  -16.3000   20.5190 H   0  0  0  0  0  0  0  0  0  0  0  0
  -25.2070  -13.9160   20.4910 C   0  0  0  0  0  0  0  0  0  0  0  0
  -24.1580  -13.1270   20.8730 C   0  0  0  0  0  0  0  0  0  0  0  0
  -24.6350  -11.7810   20.8220 C   0  0  0  0  0  0  0  0  0  0  0  0
  -26.2520  -13.0510   20.2190 N   0  0  0  0  0  0  0  0  0  0  0  0
  -25.9200  -11.7600   20.4860 N   0  0  0  0  0  0  0  0  0  0  0  0
  -23.9240  -10.5100   21.0170 C   0  0  0  0  0  0  0  0  0  0  0  0
  -24.3730   -9.5430   21.9420 C   0  0  0  0  0  3  0  0  0  0  0  0
  -23.6590   -8.3400   22.1260 C   0  0  0  0  0  3  0  0  0  0  0  0
  -22.4790   -8.0940   21.3830 C   0  0  0  0  0  0  0  0  0  0  0  0
  -22.0480   -9.0500   20.4460 C   0  0  0  0  0  3  0  0  0  0  0  0
  -22.7640  -10.2450   20.2610 C   0  0  0  0  0  3  0  0  0  0  0  0
  -21.7330   -6.9440   21.4780 O   0  0  0  0  0  0  0  0  0  0  0  0
  -21.6960   -6.2030   22.6310 C   0  0  0  0  0  0  0  0  0  0  0  0
  -21.2540   -6.7520   23.8560 C   0  0  0  0  0  3  0  0  0  0  0  0
  -21.1650   -5.9370   25.0010 C   0  0  0  0  0  3  0  0  0  0  0  0
  -21.5050   -4.5730   24.9240 C   0  0  0  0  0  0  0  0  0  0  0  0
  -21.9390   -4.0230   23.7040 C   0  0  0  0  0  3  0  0  0  0  0  0
  -22.0310   -4.8360   22.5610 C   0  0  0  0  0  0  0  0  0  0  0  0
  -22.4290   -4.2960   21.3840 F   0  0  0  0  0  0  0  0  0  0  0  0
  -21.4130   -3.7870   26.0220 F   0  0  0  0  0  0  0  0  0  0  0  0
  -22.7630  -13.5900   21.1720 C   0  0  0  0  0  0  0  0  0  0  0  0
  -22.0550  -12.8800   22.0430 N   0  0  0  0  0  0  0  0  0  0  0  0
  -22.3100  -14.6170   20.6670 O   0  0  0  0  0  0  0  0  0  0  0  0
  -22.4350  -12.0490   22.4720 H   0  0  0  0  0  0  0  0  0  0  0  0
  -21.1190  -13.1720   22.2850 H   0  0  0  0  0  0  0  0  0  0  0  0
  -25.3530  -15.2890   20.3230 N   0  0  0  0  0  0  0  0  0  0  0  0
  -24.5850  -15.9360   20.4660 H   0  0  0  0  0  0  0  0  0  0  0  0
  -26.1930  -15.7440   19.9860 H   0  0  0  0  0  0  0  0  0  0  0  0
  -28.4460  -23.1850   20.6930 C   0  0  0  0  0  2  0  0  0  0  0  0
  -28.4210  -24.6890   19.8660 C   0  0  0  0  0  2  0  0  0  0  0  0
  -28.3150  -26.1790   20.3890 O   0  0  0  0  0  0  0  0  0  0  0  0
  -24.6150  -31.8880   23.2530 C   0  0  0  0  0  0  0  0  0  0  0  0
  -27.2410  -27.1480   20.2570 C   0  0  0  0  0  0  0  0  0  0  0  0
  -23.4350  -30.4810   21.6080 C   0  0  0  0  0  3  0  0  0  0  0  0
  -24.9030  -28.9020   20.1930 C   0  0  0  0  0  0  0  0  0  0  0  0
  -25.9890  -30.7500   21.4630 C   0  0  0  0  0  2  0  0  0  0  0  0
  -26.0740  -29.3530   20.8150 C   0  0  0  0  0  0  0  0  0  0  0  0
  -27.2370  -28.4910   20.8290 C   0  0  0  0  0  3  0  0  0  0  0  0
  -26.0430  -26.8050   19.5920 C   0  0  0  0  0  3  0  0  0  0  0  0
  -24.9040  -27.6450   19.5650 C   0  0  0  0  0  3  0  0  0  0  0  0
  -23.6700  -29.7960   20.2320 C   0  0  0  0  0  2  0  0  0  0  0  0
  -24.6990  -31.0640   22.1630 N   0  0  0  0  0  0  0  0  0  0  0  0
  -23.5230  -32.1690   23.7730 O   0  0  0  0  0  0  0  0  0  0  0  0
  -22.7520  -29.4780   22.5710 C   0  0  0  0  0  0  0  0  0  0  0  0
  -21.4240  -29.3070   22.4410 N   0  0  0  0  0  0  0  0  0  0  0  0
  -23.4200  -28.8520   23.3980 O   0  0  0  0  0  0  0  0  0  0  0  0
  -20.9400  -29.8650   21.7520 H   0  0  0  0  0  0  0  0  0  0  0  0
  -18.0410  -28.1080   22.9410 C   0  0  0  0  0  0  0  0  0  0  0  0
  -20.6000  -28.3700   23.2100 C   0  0  0  0  0  3  0  0  0  0  0  0
  -20.7000  -26.9380   22.6320 C   0  0  0  0  0  2  0  0  0  0  0  0
  -19.5990  -26.6190   21.6160 C   0  0  0  0  0  2  0  0  0  0  0  0
  -18.2170  -26.7620   22.2590 C   0  0  0  0  0  2  0  0  0  0  0  0
  -19.1590  -28.8710   23.3720 C   0  0  0  0  0  0  0  0  0  0  0  0
  -18.9390  -30.1290   23.9720 C   0  0  0  0  0  3  0  0  0  0  0  0
  -17.6330  -30.6280   24.1410 C   0  0  0  0  0  3  0  0  0  0  0  0
  -16.5300  -29.8630   23.7240 C   0  0  0  0  0  3  0  0  0  0  0  0
  -16.7340  -28.6060   23.1290 C   0  0  0  0  0  3  0  0  0  0  0  0
  -25.8840  -32.5330   23.8910 C   0  0  0  0  0  3  0  0  0  0  0  0
  -26.3740  -31.7830   25.1920 C   0  0  1  0  0  0  0  0  0  0  0  0
  -25.2610  -31.5730   26.2450 C   0  0  0  0  0  1  0  0  0  0  0  0
  -26.9610  -30.3960   24.8410 C   0  0  0  0  0  1  0  0  0  0  0  0
  -27.5150  -32.5850   25.8610 C   0  0  0  0  0  1  0  0  0  0  0  0
  -25.5660  -33.9370   24.2010 N   0  0  0  0  0  0  0  0  0  0  0  0
  -25.9060  -34.9850   23.4410 C   0  0  0  0  0  0  0  0  0  0  0  0
  -26.5860  -34.8740   22.4180 O   0  0  0  0  0  0  0  0  0  0  0  0
  -24.9630  -34.0960   24.9960 H   0  0  0  0  0  0  0  0  0  0  0  0
  -24.1820  -36.7820   23.0630 C   0  0  0  0  0  1  0  0  0  0  0  0
  -25.4170  -36.3790   23.8860 C   0  0  0  0  0  3  0  0  0  0  0  0
  -27.5440  -37.2730   24.7270 C   0  0  0  0  0  1  0  0  0  0  0  0
  -26.4510  -37.4320   23.7720 N   0  0  0  0  0  0  0  0  0  0  0  0
  -26.0430  -38.3520   23.9060 H   0  0  0  0  0  0  0  0  0  0  0  0
  1  3  2  0
  2  1  1  0
  2 49  1  0
  4  2  1  0
  5  6  2  0
  7  5  1  0
  8  7  2  0
  8  1  1  0
  8  9  1  0
  9 10  1  0
  9  6  1  0
 11 19  1  0
 12 17  1  0
 13 14  1  0
 13 12  1  0
 15 14  1  0
 15 24  1  0
 15 16  1  0
 17 11  1  0
 17 16  1  0
 18 11  2  0
 19  7  1  0
 19 20  1  0
 21 22  2  0
 22 41  1  0
 23 22  1  0
 23 26  1  0
 24 25  1  0
 24 21  1  0
 25 23  2  0
 26 27  1  0
 27 28  2  0
 29 32  1  0
 29 28  1  0
 30 29  2  0
 31 30  1  0
 31 26  2  0
 32 33  1  0
 33 34  1  0
 34 35  2  0
 36 35  1  0
 36 40  1  0
 37 36  2  0
 38 33  2  0
 38 37  1  0
 39 38  1  0
 41 42  1  0
 42 45  1  0
 42 44  1  0
 43 41  2  0
 46 47  1  0
 46 21  1  0
 48 46  1  0
 50 51  1  0
 50 49  1  0
 52 63  2  0
 53 51  1  0
 53 58  1  0
 54 62  1  0
 54 64  1  0
 55 61  1  0
 55 57  1  0
 56 62  1  0
 57 58  2  0
 57 56  1  0
 59 53  2  0
 60 59  1  0
 60 55  2  0
 61 54  1  0
 62 52  1  0
 64 66  2  0
 65 64  1  0
 67 65  1  0
 68 77  2  0
 68 73  1  0
 69 65  1  0
 69 73  1  0
 70 69  1  0
 71 72  1  0
 71 70  1  0
 72 68  1  0
 73 74  2  0
 74 75  1  0
 76 75  2  0
 77 76  1  0
 78 52  1  0
 78 83  1  0
 78 79  1  0
 79 82  1  1
 79 80  1  0
 81 79  1  0
 83 86  1  0
 84 88  1  0
 84 83  1  0
 85 84  2  0
 88 87  1  0
 90 88  1  0
 90 91  1  0
 90 89  1  0
M  ISO  4  11 100  19 100  50 101  51 101
M  END
>  <TORSDO>  (85) 
F 19

>  <SCORE>  (85) 
-15.062

>  <name>  (85) 
85

>  <ligand_id>  (85) 
85

>  <original_smiles>  (85) 
[H]c1c([H])c([H])c2c(c1[H])C([H])([H])C([H])([H])C([H])([H])C2([H])N([H])C(=O)C1([H])N(C(=O)C([H])(N([H])C(=O)C([H])(N([H])C([H])([H])[H])C([H])([H])[H])C(C([H])([H])[H])(C([H])([H])[H])C([H])([H])[H])C([H])([H])c2c([H])c(OC([H])([H])C([H])([H])N([H])C(=O)c3c(N([H])C(=O)N4C([H])([H])C([H])([H])C([H])([H])C([H])(n5nc(-c6c([H])c([H])c(Oc7c([H])c([H])c(F)c([H])c7F)c([H])c6[H])c(C(=O)N([H])[H])c5N([H])[H])C4([H])[H])c([H])c([H])n3[H])c([H])c([H])c2C1([H])[H]

>  <smiles>  (85) 
[H]c1c([H])c([H])c2c(c1[H])C([H])([H])C([H])([H])C([H])([H])C2([H])N([H])C(=O)C1([H])N(C(=O)C([H])(N([H])C(=O)C([H])(N([H])C([H])([H])[H])C([H])([H])[H])C(C([H])([H])[H])(C([H])([H])[H])C([H])([H])[H])C([H])([H])c2c([H])c(OC([H])([H])C([H])([H])N([H])C(=O)c3c(N([H])C(=O)N4C([H])([H])C([H])([H])C([H])([H])C([H])(n5nc(-c6c([H])c([H])c(Oc7c([H])c([H])c(F)c([H])c7F)c([H])c6[H])c(C(=O)N([H])[H])c5N([H])[H])C4([H])[H])c([H])c([H])n3[H])c([H])c([H])c2C1([H])[H]

$$$$
86:0:0
     RDKit          3D

 96103  0  0  1  0  0  0  0  0999 V2000
  -27.4130  -23.8420   20.3750 C   0  0  0  0  0  2  0  0  0  0  0  0
  -26.6840  -22.8520   19.4350 C   0  0  0  0  0  2  0  0  0  0  0  0
  -26.3040  -21.5080   20.1090 C   0  0  0  0  0  2  0  0  0  0  0  0
  -27.4790  -20.7760   20.7890 C   0  0  0  0  0  2  0  0  0  0  0  0
  -28.4410  -20.3050   19.7780 N   0  0  0  0  0  4  0  0  0  0  0  0
  -28.0650  -19.4840   19.3290 H   0  0  0  0  0  0  0  0  0  0  0  0
  -28.5230  -21.0320   19.0890 H   0  0  0  0  0  0  0  0  0  0  0  0
  -29.7870  -20.0140   20.3060 C   0  0  0  0  0  2  0  0  0  0  0  0
  -30.6410  -19.2480   19.2790 C   0  0  0  0  0  2  0  0  0  0  0  0
  -30.0820  -17.8480   18.9600 C   0  0  0  0  0  2  0  0  0  0  0  0
  -31.1620  -16.7660   18.7670 C   0  0  0  0  0  2  0  0  0  0  0  0
  -31.6980  -16.1750   20.0920 C   0  0  0  0  0  2  0  0  0  0  0  0
  -32.3480  -14.7900   19.8810 C   0  0  0  0  0  0  0  0  0  0  0  0
  -31.9840  -12.3920   19.4430 C   0  0  0  0  0  2  0  0  0  0  0  0
  -31.0610  -12.2250   18.2180 C   0  0  0  0  0  2  0  0  0  0  0  0
  -29.5770  -12.2960   18.6200 C   0  0  0  0  0  2  0  0  0  0  0  0
  -29.2670  -13.5150   19.5260 C   0  0  0  0  0  3  0  0  0  0  0  0
  -30.2800  -13.5850   20.6890 C   0  0  0  0  0  2  0  0  0  0  0  0
  -31.6300  -13.6570   20.1070 N   0  0  0  0  0  0  0  0  0  0  0  0
  -33.4810  -14.7680   19.3910 O   0  0  0  0  0  0  0  0  0  0  0  0
  -27.0160  -14.5360   20.2410 C   0  0  0  0  0  0  0  0  0  0  0  0
  -25.8320  -13.9610   20.6120 C   0  0  0  0  0  0  0  0  0  0  0  0
  -26.0480  -12.5480   20.5670 C   0  0  0  0  0  0  0  0  0  0  0  0
  -27.8890  -13.4840   20.0060 N   0  0  0  0  0  0  0  0  0  0  0  0
  -27.3090  -12.2850   20.2570 N   0  0  0  0  0  0  0  0  0  0  0  0
  -25.1200  -11.4280   20.7490 C   0  0  0  0  0  0  0  0  0  0  0  0
  -25.3760  -10.4040   21.6880 C   0  0  0  0  0  3  0  0  0  0  0  0
  -24.4600   -9.3430   21.8550 C   0  0  0  0  0  3  0  0  0  0  0  0
  -23.2720   -9.3040   21.0880 C   0  0  0  0  0  0  0  0  0  0  0  0
  -23.0330  -10.3160   20.1410 C   0  0  0  0  0  3  0  0  0  0  0  0
  -23.9470  -11.3670   19.9710 C   0  0  0  0  0  3  0  0  0  0  0  0
  -22.3360   -8.3000   21.1690 O   0  0  0  0  0  0  0  0  0  0  0  0
  -22.1160   -7.6150   22.3370 C   0  0  0  0  0  0  0  0  0  0  0  0
  -21.7430   -8.2740   23.5290 C   0  0  0  0  0  3  0  0  0  0  0  0
  -21.4570   -7.5250   24.6880 C   0  0  0  0  0  3  0  0  0  0  0  0
  -21.5320   -6.1200   24.6550 C   0  0  0  0  0  0  0  0  0  0  0  0
  -21.8950   -5.4610   23.4670 C   0  0  0  0  0  3  0  0  0  0  0  0
  -22.1810   -6.2080   22.3100 C   0  0  0  0  0  0  0  0  0  0  0  0
  -22.5100   -5.5680   21.1620 F   0  0  0  0  0  0  0  0  0  0  0  0
  -21.2480   -5.3980   25.7650 F   0  0  0  0  0  0  0  0  0  0  0  0
  -24.5390  -14.6650   20.9020 C   0  0  0  0  0  0  0  0  0  0  0  0
  -23.7200  -14.0990   21.7790 N   0  0  0  0  0  0  0  0  0  0  0  0
  -24.2730  -15.7510   20.3850 O   0  0  0  0  0  0  0  0  0  0  0  0
  -23.9490  -13.2150   22.2120 H   0  0  0  0  0  0  0  0  0  0  0  0
  -22.8490  -14.5480   22.0240 H   0  0  0  0  0  0  0  0  0  0  0  0
  -27.4290  -15.8540   20.0610 N   0  0  0  0  0  0  0  0  0  0  0  0
  -26.8080  -16.6500   20.1550 H   0  0  0  0  0  0  0  0  0  0  0  0
  -28.3450  -16.0990   19.7090 H   0  0  0  0  0  0  0  0  0  0  0  0
  -28.4530  -24.7690   19.6970 C   0  0  0  0  0  3  0  0  0  0  0  0
  -29.7160  -23.6210   17.8670 C   0  0  0  0  0  0  0  0  0  0  0  0
  -30.7990  -22.6060   17.5240 C   0  0  0  0  0  1  0  0  0  0  0  0
  -29.5650  -23.9620   19.1580 N   0  0  0  0  0  0  0  0  0  0  0  0
  -28.9910  -24.0550   16.9710 O   0  0  0  0  0  0  0  0  0  0  0  0
  -30.2570  -23.6120   19.8080 H   0  0  0  0  0  0  0  0  0  0  0  0
  -28.9480  -25.8670   20.6830 C   0  0  0  0  0  2  0  0  0  0  0  0
  -28.7790  -27.2290   20.2630 O   0  0  0  0  0  0  0  0  0  0  0  0
  -24.7690  -31.9260   23.8650 C   0  0  0  0  0  0  0  0  0  0  0  0
  -27.5610  -27.8650   20.4000 C   0  0  0  0  0  0  0  0  0  0  0  0
  -23.6490  -30.7600   21.9970 C   0  0  0  0  0  3  0  0  0  0  0  0
  -25.1690  -29.3850   20.4830 C   0  0  0  0  0  0  0  0  0  0  0  0
  -26.1890  -31.1000   21.9870 C   0  0  0  0  0  2  0  0  0  0  0  0
  -26.2980  -29.8170   21.1910 C   0  0  0  0  0  0  0  0  0  0  0  0
  -27.4940  -29.0650   21.1460 C   0  0  0  0  0  3  0  0  0  0  0  0
  -26.4110  -27.4440   19.6950 C   0  0  0  0  0  3  0  0  0  0  0  0
  -25.2220  -28.1980   19.7360 C   0  0  0  0  0  3  0  0  0  0  0  0
  -23.9320  -30.2560   20.5580 C   0  0  0  0  0  2  0  0  0  0  0  0
  -24.8840  -31.2720   22.6730 N   0  0  0  0  0  0  0  0  0  0  0  0
  -23.6610  -32.1420   24.3730 O   0  0  0  0  0  0  0  0  0  0  0  0
  -22.9420  -29.6290   22.7830 C   0  0  0  0  0  0  0  0  0  0  0  0
  -21.6410  -29.4410   22.5160 N   0  0  0  0  0  0  0  0  0  0  0  0
  -23.5640  -28.9320   23.5870 O   0  0  0  0  0  0  0  0  0  0  0  0
  -21.2050  -30.0620   21.8490 H   0  0  0  0  0  0  0  0  0  0  0  0
  -18.2790  -28.1210   22.5320 C   0  0  0  0  0  0  0  0  0  0  0  0
  -20.7780  -28.4240   23.1150 C   0  0  0  0  0  3  0  0  0  0  0  0
  -20.9910  -27.0460   22.4520 C   0  0  0  0  0  2  0  0  0  0  0  0
  -20.0310  -26.7960   21.2840 C   0  0  0  0  0  2  0  0  0  0  0  0
  -18.5830  -26.8370   21.7820 C   0  0  0  0  0  2  0  0  0  0  0  0
  -19.3150  -28.8750   23.1450 C   0  0  0  0  0  0  0  0  0  0  0  0
  -18.9930  -30.0810   23.7980 C   0  0  0  0  0  3  0  0  0  0  0  0
  -17.6630  -30.5350   23.8520 C   0  0  0  0  0  3  0  0  0  0  0  0
  -16.6370  -29.7760   23.2650 C   0  0  0  0  0  3  0  0  0  0  0  0
  -16.9420  -28.5700   22.6110 C   0  0  0  0  0  3  0  0  0  0  0  0
  -26.0220  -32.4570   24.6310 C   0  0  0  0  0  3  0  0  0  0  0  0
  -25.7430  -33.8450   25.0250 N   0  0  0  0  0  0  0  0  0  0  0  0
  -26.1950  -34.9250   24.3750 C   0  0  0  0  0  0  0  0  0  0  0  0
  -26.9570  -34.8520   23.4050 O   0  0  0  0  0  0  0  0  0  0  0  0
  -25.0780  -33.9780   25.7730 H   0  0  0  0  0  0  0  0  0  0  0  0
  -24.5890  -36.8200   23.9710 C   0  0  0  0  0  1  0  0  0  0  0  0
  -25.7240  -36.3040   24.8730 C   0  0  0  0  0  3  0  0  0  0  0  0
  -27.8040  -37.0140   25.9650 C   0  0  0  0  0  1  0  0  0  0  0  0
  -26.8070  -37.3080   24.9380 N   0  0  0  0  0  0  0  0  0  0  0  0
  -26.4340  -38.2390   25.1060 H   0  0  0  0  0  0  0  0  0  0  0  0
  -26.3950  -31.5860   25.8910 C   0  0  1  0  0  0  0  0  0  0  0  0
  -25.2030  -31.3070   26.8360 C   0  0  0  0  0  1  0  0  0  0  0  0
  -26.9750  -30.2190   25.4570 C   0  0  0  0  0  1  0  0  0  0  0  0
  -27.5030  -32.2950   26.7060 C   0  0  0  0  0  1  0  0  0  0  0  0
  2  3  1  0
  2  1  1  0
  3  4  1  0
  5  8  1  0
  5  4  1  0
  6  5  1  0
  7  5  1  0
  9  8  1  0
 10  9  1  0
 11 10  1  0
 11 12  1  0
 13 12  1  0
 13 19  1  0
 14 19  1  0
 15 16  1  0
 15 14  1  0
 17 16  1  0
 17 24  1  0
 17 18  1  0
 19 18  1  0
 20 13  2  0
 21 22  2  0
 22 41  1  0
 23 22  1  0
 23 26  1  0
 24 21  1  0
 24 25  1  0
 25 23  2  0
 26 27  1  0
 27 28  2  0
 29 32  1  0
 29 28  1  0
 30 29  2  0
 31 30  1  0
 31 26  2  0
 32 33  1  0
 33 34  1  0
 34 35  2  0
 36 35  1  0
 36 40  1  0
 37 36  2  0
 38 33  2  0
 38 37  1  0
 39 38  1  0
 41 42  1  0
 42 45  1  0
 42 44  1  0
 43 41  2  0
 46 47  1  0
 46 21  1  0
 48 46  1  0
 49  1  1  0
 49 55  1  0
 50 52  1  0
 51 50  1  0
 52 49  1  0
 52 54  1  0
 53 50  2  0
 56 58  1  0
 56 55  1  0
 57 68  2  0
 58 63  1  0
 59 67  1  0
 59 69  1  0
 60 66  1  0
 60 62  1  0
 61 67  1  0
 62 61  1  0
 63 62  2  0
 64 65  1  0
 64 58  2  0
 65 60  2  0
 66 59  1  0
 67 57  1  0
 69 71  2  0
 70 69  1  0
 72 70  1  0
 73 82  2  0
 73 78  1  0
 74 70  1  0
 74 78  1  0
 75 74  1  0
 76 77  1  0
 76 75  1  0
 77 73  1  0
 78 79  2  0
 79 80  1  0
 81 80  2  0
 82 81  1  0
 83 57  1  0
 83 84  1  0
 83 93  1  0
 84 87  1  0
 85 89  1  0
 85 84  1  0
 86 85  2  0
 89 88  1  0
 89 91  1  0
 91 92  1  0
 91 90  1  0
 93 96  1  1
 93 94  1  0
 95 93  1  0
M  ISO  4  12 100  13 100  55 101  56 101
M  END
>  <TORSDO>  (86) 
F 28

>  <SCORE>  (86) 
-7.732

>  <name>  (86) 
86

>  <ligand_id>  (86) 
86

>  <original_smiles>  (86) 
[H]c1c([H])c([H])c2c(c1[H])C([H])([H])C([H])([H])C([H])([H])C2([H])N([H])C(=O)C1([H])N(C(=O)C([H])(N([H])C(=O)C([H])(N([H])C([H])([H])[H])C([H])([H])[H])C(C([H])([H])[H])(C([H])([H])[H])C([H])([H])[H])C([H])([H])c2c([H])c(OC([H])([H])C([H])(N([H])C(=O)C([H])([H])[H])C([H])([H])C([H])([H])C([H])([H])C([H])([H])[N+]([H])([H])C([H])([H])C([H])([H])C([H])([H])C([H])([H])C([H])([H])C(=O)N3C([H])([H])C([H])([H])C([H])([H])C([H])(n4nc(-c5c([H])c([H])c(Oc6c([H])c([H])c(F)c([H])c6F)c([H])c5[H])c(C(=O)N([H])[H])c4N([H])[H])C3([H])[H])c([H])c([H])c2C1([H])[H]

>  <smiles>  (86) 
[H]c1c([H])c([H])c2c(c1[H])C([H])([H])C([H])([H])C([H])([H])C2([H])N([H])C(=O)C1([H])N(C(=O)C([H])(N([H])C(=O)C([H])(N([H])C([H])([H])[H])C([H])([H])[H])C(C([H])([H])[H])(C([H])([H])[H])C([H])([H])[H])C([H])([H])c2c([H])c(OC([H])([H])C([H])(N([H])C(=O)C([H])([H])[H])C([H])([H])C([H])([H])C([H])([H])C([H])([H])[N+]([H])([H])C([H])([H])C([H])([H])C([H])([H])C([H])([H])C([H])([H])C(=O)N3C([H])([H])C([H])([H])C([H])([H])C([H])(n4nc(-c5c([H])c([H])c(Oc6c([H])c([H])c(F)c([H])c6F)c([H])c5[H])c(C(=O)N([H])[H])c4N([H])[H])C3([H])[H])c([H])c([H])c2C1([H])[H]

$$$$
87:0:0
     RDKit          3D

 89 96  0  0  1  0  0  0  0  0999 V2000
  -29.0080  -23.3780   19.9140 C   0  0  0  0  0  3  0  0  0  0  0  0
  -28.6980  -21.8680   20.3220 N   0  0  0  0  0  4  0  0  0  0  0  0
  -28.6430  -21.8470   21.3270 H   0  0  0  0  0  0  0  0  0  0  0  0
  -27.7680  -21.6800   19.9810 H   0  0  0  0  0  0  0  0  0  0  0  0
  -29.5800  -20.6150   19.8970 C   0  0  0  0  0  2  0  0  0  0  0  0
  -29.2420  -19.0260   20.3530 C   0  0  0  0  0  3  0  0  0  0  0  0
  -30.1230  -17.6460   19.9010 C   0  0  0  0  0  3  0  0  0  0  0  0
  -30.5550  -14.9500   20.0140 C   0  0  0  0  0  0  0  0  0  0  0  0
  -30.3560  -12.6490   18.9530 C   0  0  0  0  0  2  0  0  0  0  0  0
  -29.3490  -12.6590   17.7770 C   0  0  0  0  0  2  0  0  0  0  0  0
  -27.9080  -12.4340   18.2780 C   0  0  0  0  0  2  0  0  0  0  0  0
  -27.5810  -13.3020   19.5190 C   0  0  0  0  0  3  0  0  0  0  0  0
  -28.6970  -13.2090   20.5750 C   0  0  0  0  0  2  0  0  0  0  0  0
  -29.9360  -13.6940   19.9380 N   0  0  0  0  0  0  0  0  0  0  0  0
  -31.6920  -15.0250   19.5270 O   0  0  0  0  0  0  0  0  0  0  0  0
  -29.1610  -16.1750   21.6710 C   0  0  0  0  0  1  0  0  0  0  0  0
  -29.8600  -16.1560   20.3820 N   0  0  0  0  0  0  0  0  0  0  0  0
  -25.2430  -13.8680   20.3950 C   0  0  0  0  0  0  0  0  0  0  0  0
  -24.2020  -13.0870   20.8120 C   0  0  0  0  0  0  0  0  0  0  0  0
  -24.6630  -11.7370   20.7320 C   0  0  0  0  0  0  0  0  0  0  0  0
  -26.2710  -12.9950   20.0800 N   0  0  0  0  0  0  0  0  0  0  0  0
  -25.9340  -11.7060   20.3460 N   0  0  0  0  0  0  0  0  0  0  0  0
  -23.9490  -10.4710   20.9440 C   0  0  0  0  0  0  0  0  0  0  0  0
  -24.4160   -9.5020   21.8590 C   0  0  0  0  0  3  0  0  0  0  0  0
  -23.7020   -8.3000   22.0570 C   0  0  0  0  0  3  0  0  0  0  0  0
  -22.5050   -8.0600   21.3400 C   0  0  0  0  0  0  0  0  0  0  0  0
  -22.0570   -9.0180   20.4130 C   0  0  0  0  0  3  0  0  0  0  0  0
  -22.7730  -10.2100   20.2130 C   0  0  0  0  0  3  0  0  0  0  0  0
  -21.7590   -6.9110   21.4480 O   0  0  0  0  0  0  0  0  0  0  0  0
  -21.7290   -6.1790   22.6080 C   0  0  0  0  0  0  0  0  0  0  0  0
  -21.3350   -6.7510   23.8380 C   0  0  0  0  0  3  0  0  0  0  0  0
  -21.2500   -5.9450   24.9910 C   0  0  0  0  0  3  0  0  0  0  0  0
  -21.5500   -4.5720   24.9160 C   0  0  0  0  0  0  0  0  0  0  0  0
  -21.9370   -4.0020   23.6920 C   0  0  0  0  0  3  0  0  0  0  0  0
  -22.0240   -4.8030   22.5400 C   0  0  0  0  0  0  0  0  0  0  0  0
  -22.3790   -4.2440   21.3580 F   0  0  0  0  0  0  0  0  0  0  0  0
  -21.4610   -3.7980   26.0230 F   0  0  0  0  0  0  0  0  0  0  0  0
  -22.8210  -13.5590   21.1690 C   0  0  0  0  0  0  0  0  0  0  0  0
  -22.1440  -12.8530   22.0660 N   0  0  0  0  0  0  0  0  0  0  0  0
  -22.3550  -14.5920   20.6890 O   0  0  0  0  0  0  0  0  0  0  0  0
  -22.5350  -12.0190   22.4790 H   0  0  0  0  0  0  0  0  0  0  0  0
  -21.2220  -13.1540   22.3470 H   0  0  0  0  0  0  0  0  0  0  0  0
  -25.3990  -15.2420   20.2360 N   0  0  0  0  0  0  0  0  0  0  0  0
  -24.6430  -15.8950   20.4030 H   0  0  0  0  0  0  0  0  0  0  0  0
  -26.2310  -15.6870   19.8680 H   0  0  0  0  0  0  0  0  0  0  0  0
  -29.0070  -23.4070   18.3880 C   0  0  0  0  0  3  0  0  0  0  0  0
  -28.1250  -22.8870   17.6980 O   0  0  0  0  0  0  0  0  0  0  0  0
  -28.0520  -24.6680   20.4170 C   0  0  0  0  0  2  0  0  0  0  0  0
  -28.3080  -26.1960   20.2250 O   0  0  0  0  0  0  0  0  0  0  0  0
  -24.6560  -31.8760   23.2000 C   0  0  0  0  0  0  0  0  0  0  0  0
  -27.2370  -27.1600   20.1930 C   0  0  0  0  0  0  0  0  0  0  0  0
  -23.4550  -30.4690   21.5690 C   0  0  0  0  0  3  0  0  0  0  0  0
  -24.9050  -28.8910   20.1520 C   0  0  0  0  0  0  0  0  0  0  0  0
  -26.0070  -30.7410   21.3990 C   0  0  0  0  0  2  0  0  0  0  0  0
  -26.0820  -29.3450   20.7600 C   0  0  0  0  0  0  0  0  0  0  0  0
  -27.2510  -28.4960   20.7610 C   0  0  0  0  0  3  0  0  0  0  0  0
  -26.0370  -26.8080   19.5390 C   0  0  0  0  0  3  0  0  0  0  0  0
  -24.8940  -27.6370   19.5250 C   0  0  0  0  0  3  0  0  0  0  0  0
  -23.6760  -29.7850   20.1940 C   0  0  0  0  0  2  0  0  0  0  0  0
  -24.7260  -31.0500   22.1110 N   0  0  0  0  0  0  0  0  0  0  0  0
  -23.5690  -32.1610   23.7280 O   0  0  0  0  0  0  0  0  0  0  0  0
  -22.7820  -29.4640   22.5370 C   0  0  0  0  0  0  0  0  0  0  0  0
  -21.4510  -29.3020   22.4240 N   0  0  0  0  0  0  0  0  0  0  0  0
  -23.4580  -28.8310   23.3520 O   0  0  0  0  0  0  0  0  0  0  0  0
  -20.9620  -29.8630   21.7410 H   0  0  0  0  0  0  0  0  0  0  0  0
  -18.0680  -28.1220   22.9570 C   0  0  0  0  0  0  0  0  0  0  0  0
  -20.6310  -28.3700   23.2030 C   0  0  0  0  0  3  0  0  0  0  0  0
  -20.7190  -26.9360   22.6300 C   0  0  0  0  0  2  0  0  0  0  0  0
  -19.6080  -26.6180   21.6250 C   0  0  0  0  0  2  0  0  0  0  0  0
  -18.2320  -26.7720   22.2810 C   0  0  0  0  0  2  0  0  0  0  0  0
  -19.1950  -28.8790   23.3770 C   0  0  0  0  0  0  0  0  0  0  0  0
  -18.9860  -30.1430   23.9710 C   0  0  0  0  0  3  0  0  0  0  0  0
  -17.6850  -30.6500   24.1490 C   0  0  0  0  0  3  0  0  0  0  0  0
  -16.5740  -29.8900   23.7430 C   0  0  0  0  0  3  0  0  0  0  0  0
  -16.7670  -28.6270   23.1530 C   0  0  0  0  0  3  0  0  0  0  0  0
  -25.9330  -32.5160   23.8220 C   0  0  0  0  0  3  0  0  0  0  0  0
  -26.4530  -31.7480   25.1000 C   0  0  1  0  0  0  0  0  0  0  0  0
  -25.3640  -31.5130   26.1720 C   0  0  0  0  0  1  0  0  0  0  0  0
  -27.0380  -30.3700   24.7110 C   0  0  0  0  0  1  0  0  0  0  0  0
  -27.6040  -32.5450   25.7580 C   0  0  0  0  0  1  0  0  0  0  0  0
  -25.6160  -33.9120   24.1590 N   0  0  0  0  0  0  0  0  0  0  0  0
  -25.9420  -34.9730   23.4090 C   0  0  0  0  0  0  0  0  0  0  0  0
  -26.6100  -34.8800   22.3760 O   0  0  0  0  0  0  0  0  0  0  0  0
  -25.0250  -34.0570   24.9640 H   0  0  0  0  0  0  0  0  0  0  0  0
  -24.2070  -36.7650   23.0710 C   0  0  0  0  0  1  0  0  0  0  0  0
  -25.4500  -36.3580   23.8780 C   0  0  0  0  0  3  0  0  0  0  0  0
  -27.5850  -37.2440   24.7100 C   0  0  0  0  0  1  0  0  0  0  0  0
  -26.4790  -37.4150   23.7720 N   0  0  0  0  0  0  0  0  0  0  0  0
  -26.0700  -38.3330   23.9290 H   0  0  0  0  0  0  0  0  0  0  0  0
  1 46  1  0
  1  2  1  0
  1 48  1  0
  2  3  1  0
  4  2  1  0
  5  2  1  0
  5  6  1  0
  7  6  2  0
  7 17  1  0
  8 17  1  0
  9 14  1  0
 10 11  1  0
 10  9  1  0
 12 11  1  0
 12 21  1  0
 12 13  1  0
 14  8  1  0
 14 13  1  0
 15  8  2  0
 17 16  1  0
 18 19  2  0
 19 38  1  0
 20 19  1  0
 20 23  1  0
 21 22  1  0
 21 18  1  0
 22 20  2  0
 23 24  1  0
 24 25  2  0
 26 29  1  0
 26 25  1  0
 27 26  2  0
 28 27  1  0
 28 23  2  0
 29 30  1  0
 30 31  1  0
 31 32  2  0
 33 32  1  0
 33 37  1  0
 34 33  2  0
 35 30  2  0
 35 34  1  0
 36 35  1  0
 38 39  1  0
 39 42  1  0
 39 41  1  0
 40 38  2  0
 43 18  1  0
 43 44  1  0
 45 43  1  0
 47 46  2  0
 49 48  1  0
 50 61  2  0
 51 49  1  0
 51 56  1  0
 52 60  1  0
 52 62  1  0
 53 59  1  0
 53 55  1  0
 54 60  1  0
 55 56  2  0
 55 54  1  0
 57 51  2  0
 58 57  1  0
 58 53  2  0
 59 52  1  0
 60 50  1  0
 62 64  2  0
 63 62  1  0
 65 63  1  0
 66 75  2  0
 66 71  1  0
 67 63  1  0
 67 71  1  0
 68 67  1  0
 69 70  1  0
 69 68  1  0
 70 66  1  0
 71 72  2  0
 72 73  1  0
 74 73  2  0
 75 74  1  0
 76 50  1  0
 76 81  1  0
 76 77  1  0
 77 80  1  1
 77 78  1  0
 79 77  1  0
 81 84  1  0
 82 86  1  0
 82 81  1  0
 83 82  2  0
 86 85  1  0
 88 86  1  0
 88 89  1  0
 88 87  1  0
M  ISO  4   8 100  17 100  48 101  49 101
M  END
>  <TORSDO>  (87) 
F 22

>  <SCORE>  (87) 
-13.115

>  <name>  (87) 
87

>  <ligand_id>  (87) 
87

>  <original_smiles>  (87) 
[H]C(=O)C([H])(C([H])([H])Oc1c([H])c([H])c2c(c1[H])C([H])([H])N(C(=O)C([H])(N([H])C(=O)C([H])(N([H])C([H])([H])[H])C([H])([H])[H])C(C([H])([H])[H])(C([H])([H])[H])C([H])([H])[H])C([H])(C(=O)N([H])C1([H])c3c([H])c([H])c([H])c([H])c3C([H])([H])C([H])([H])C1([H])[H])C2([H])[H])[N+]([H])([H])C([H])([H])C([H])([H])C([H])([H])N(C(=O)N1C([H])([H])C([H])([H])C([H])([H])C([H])(n2nc(-c3c([H])c([H])c(Oc4c([H])c([H])c(F)c([H])c4F)c([H])c3[H])c(C(=O)N([H])[H])c2N([H])[H])C1([H])[H])C([H])([H])[H]

>  <smiles>  (87) 
[H]C(=O)C([H])(C([H])([H])Oc1c([H])c([H])c2c(c1[H])C([H])([H])N(C(=O)C([H])(N([H])C(=O)C([H])(N([H])C([H])([H])[H])C([H])([H])[H])C(C([H])([H])[H])(C([H])([H])[H])C([H])([H])[H])C([H])(C(=O)N([H])C1([H])c3c([H])c([H])c([H])c([H])c3C([H])([H])C([H])([H])C1([H])[H])C2([H])[H])[N+]([H])([H])C([H])([H])C([H])([H])C([H])([H])N(C(=O)N1C([H])([H])C([H])([H])C([H])([H])C([H])(n2nc(-c3c([H])c([H])c(Oc4c([H])c([H])c(F)c([H])c4F)c([H])c3[H])c(C(=O)N([H])[H])c2N([H])[H])C1([H])[H])C([H])([H])[H]

$$$$
88:0:0
     RDKit          3D

 96104  0  0  1  0  0  0  0  0999 V2000
  -30.5890  -23.7550   23.2420 C   0  0  0  0  0  3  0  0  0  0  0  0
  -29.5770  -24.6800   22.9350 C   0  0  0  0  0  3  0  0  0  0  0  0
  -31.2310  -23.0510   22.2080 C   0  0  0  0  0  3  0  0  0  0  0  0
  -29.8070  -24.1590   20.5650 C   0  0  0  0  0  3  0  0  0  0  0  0
  -29.1830  -24.8990   21.5970 C   0  0  0  0  0  0  0  0  0  0  0  0
  -30.8430  -23.2320   20.8610 C   0  0  0  0  0  0  0  0  0  0  0  0
  -33.0990  -22.6570   19.7560 C   0  0  0  0  0  1  0  0  0  0  0  0
  -31.5660  -22.4710   19.7380 C   0  0  0  0  0  3  0  0  0  0  0  0
  -29.8040  -21.0490   18.7860 C   0  0  0  0  0  1  0  0  0  0  0  0
  -31.1080  -21.0520   19.5080 N   0  0  2  0  0  4  0  0  0  0  0  0
  -31.7500  -20.6940   18.8170 H   0  0  0  0  0  0  0  0  0  0  0  0
  -32.6290  -19.7750   21.0870 C   0  0  0  0  0  1  0  0  0  0  0  0
  -31.1720  -20.0700   20.6630 C   0  0  0  0  0  3  0  0  0  0  0  0
  -30.4470  -18.7200   20.3490 C   0  0  0  0  0  3  0  0  0  0  0  0
  -30.5550  -17.5740   21.3910 C   0  0  0  0  0  3  0  0  0  0  0  0
  -29.5160  -16.4270   21.2420 C   0  0  0  0  0  2  0  0  0  0  0  0
  -30.5040  -14.5110   19.9960 C   0  0  0  0  0  0  0  0  0  0  0  0
  -30.1800  -12.3360   18.9100 C   0  0  0  0  0  2  0  0  0  0  0  0
  -29.1640  -12.5470   17.7690 C   0  0  0  0  0  2  0  0  0  0  0  0
  -27.7160  -12.4040   18.2860 C   0  0  0  0  0  2  0  0  0  0  0  0
  -27.4490  -13.2080   19.5870 C   0  0  0  0  0  3  0  0  0  0  0  0
  -28.5810  -13.0100   20.6200 C   0  0  0  0  0  2  0  0  0  0  0  0
  -29.8570  -13.3160   19.9550 N   0  0  0  0  0  0  0  0  0  0  0  0
  -31.6640  -14.6610   19.5980 O   0  0  0  0  0  0  0  0  0  0  0  0
  -29.2740  -16.2270   18.7830 C   0  0  0  0  0  1  0  0  0  0  0  0
  -29.6770  -15.5860   20.0450 N   0  0  0  0  0  0  0  0  0  0  0  0
  -25.0940  -13.7930   20.4270 C   0  0  0  0  0  0  0  0  0  0  0  0
  -24.0580  -13.0120   20.8610 C   0  0  0  0  0  0  0  0  0  0  0  0
  -24.5360  -11.6660   20.8170 C   0  0  0  0  0  0  0  0  0  0  0  0
  -26.1350  -12.9220   20.1460 N   0  0  0  0  0  0  0  0  0  0  0  0
  -25.8080  -11.6390   20.4380 N   0  0  0  0  0  0  0  0  0  0  0  0
  -23.8420  -10.3950   21.0570 C   0  0  0  0  0  0  0  0  0  0  0  0
  -24.3210   -9.4600   22.0030 C   0  0  0  0  0  3  0  0  0  0  0  0
  -23.6260   -8.2530   22.2280 C   0  0  0  0  0  3  0  0  0  0  0  0
  -22.4380   -7.9740   21.5110 C   0  0  0  0  0  0  0  0  0  0  0  0
  -21.9800   -8.8970   20.5540 C   0  0  0  0  0  3  0  0  0  0  0  0
  -22.6750  -10.0960   20.3280 C   0  0  0  0  0  3  0  0  0  0  0  0
  -21.7130   -6.8160   21.6470 O   0  0  0  0  0  0  0  0  0  0  0  0
  -21.6900   -6.1160   22.8270 C   0  0  0  0  0  0  0  0  0  0  0  0
  -21.2510   -6.7050   24.0320 C   0  0  0  0  0  3  0  0  0  0  0  0
  -21.1770   -5.9310   25.2070 C   0  0  0  0  0  3  0  0  0  0  0  0
  -21.5320   -4.5690   25.1770 C   0  0  0  0  0  0  0  0  0  0  0  0
  -21.9650   -3.9810   23.9750 C   0  0  0  0  0  3  0  0  0  0  0  0
  -22.0410   -4.7520   22.8030 C   0  0  0  0  0  0  0  0  0  0  0  0
  -22.4400   -4.1760   21.6430 F   0  0  0  0  0  0  0  0  0  0  0  0
  -21.4530   -3.8210   26.3020 F   0  0  0  0  0  0  0  0  0  0  0  0
  -22.6690  -13.4720   21.2040 C   0  0  0  0  0  0  0  0  0  0  0  0
  -21.9960  -12.7790   22.1120 N   0  0  0  0  0  0  0  0  0  0  0  0
  -22.1930  -14.4880   20.6980 O   0  0  0  0  0  0  0  0  0  0  0  0
  -22.3910  -11.9590   22.5520 H   0  0  0  0  0  0  0  0  0  0  0  0
  -21.0680  -13.0790   22.3790 H   0  0  0  0  0  0  0  0  0  0  0  0
  -25.2300  -15.1640   20.2270 N   0  0  0  0  0  0  0  0  0  0  0  0
  -24.4650  -15.8130   20.3780 H   0  0  0  0  0  0  0  0  0  0  0  0
  -26.0680  -15.6080   19.8770 H   0  0  0  0  0  0  0  0  0  0  0  0
  -28.0140  -25.8430   21.3230 C   0  0  0  0  0  2  0  0  0  0  0  0
  -28.1760  -26.7700   20.2400 O   0  0  0  0  0  0  0  0  0  0  0  0
  -24.4790  -31.9790   23.3740 C   0  0  0  0  0  0  0  0  0  0  0  0
  -27.0670  -27.5800   20.1730 C   0  0  0  0  0  0  0  0  0  0  0  0
  -23.2870  -30.6170   21.7180 C   0  0  0  0  0  3  0  0  0  0  0  0
  -24.7020  -29.1020   20.2450 C   0  0  0  0  0  0  0  0  0  0  0  0
  -25.8050  -30.9950   21.4840 C   0  0  0  0  0  2  0  0  0  0  0  0
  -25.8750  -29.6190   20.8220 C   0  0  0  0  0  0  0  0  0  0  0  0
  -27.0650  -28.8590   20.7790 C   0  0  0  0  0  3  0  0  0  0  0  0
  -25.8860  -27.0830   19.5870 C   0  0  0  0  0  3  0  0  0  0  0  0
  -24.6990  -27.8380   19.6260 C   0  0  0  0  0  3  0  0  0  0  0  0
  -23.4640  -29.9620   20.3270 C   0  0  0  0  0  2  0  0  0  0  0  0
  -24.5590  -31.2090   22.2520 N   0  0  0  0  0  0  0  0  0  0  0  0
  -23.3680  -32.2420   23.8590 O   0  0  0  0  0  0  0  0  0  0  0  0
  -22.6500  -29.5890   22.6840 C   0  0  0  0  0  0  0  0  0  0  0  0
  -21.3370  -29.3610   22.5300 N   0  0  0  0  0  0  0  0  0  0  0  0
  -23.3340  -29.0080   23.5330 O   0  0  0  0  0  0  0  0  0  0  0  0
  -20.8460  -29.8850   21.8200 H   0  0  0  0  0  0  0  0  0  0  0  0
  -18.0260  -27.9600   22.8670 C   0  0  0  0  0  0  0  0  0  0  0  0
  -20.5330  -28.4160   23.3040 C   0  0  0  0  0  3  0  0  0  0  0  0
  -20.7760  -26.9650   22.8320 C   0  0  0  0  0  2  0  0  0  0  0  0
  -19.7810  -26.5070   21.7620 C   0  0  0  0  0  2  0  0  0  0  0  0
  -18.3460  -26.5900   22.2920 C   0  0  0  0  0  2  0  0  0  0  0  0
  -19.0550  -28.8250   23.3280 C   0  0  0  0  0  0  0  0  0  0  0  0
  -18.7080  -30.1020   23.8180 C   0  0  0  0  0  3  0  0  0  0  0  0
  -17.3640  -30.5180   23.8570 C   0  0  0  0  0  3  0  0  0  0  0  0
  -16.3490  -29.6530   23.4150 C   0  0  0  0  0  3  0  0  0  0  0  0
  -16.6800  -28.3760   22.9260 C   0  0  0  0  0  3  0  0  0  0  0  0
  -25.7180  -32.5870   24.1030 C   0  0  0  0  0  0  0  0  0  0  0  0
  -25.6620  -34.0320   24.2730 N   0  0  0  0  0  4  0  0  0  0  0  0
  -26.0210  -35.0120   23.4550 C   0  0  0  0  0  0  0  0  0  0  0  0
  -26.6240  -34.8300   22.3980 O   0  0  0  0  0  0  0  0  0  0  0  0
  -25.1570  -34.3290   25.0950 H   0  0  0  0  0  0  0  0  0  0  0  0
  -24.2980  -36.8390   23.1910 C   0  0  0  0  0  1  0  0  0  0  0  0
  -25.5920  -36.4220   23.9110 C   0  0  0  0  0  3  0  0  0  0  0  0
  -27.7710  -37.2650   24.6280 C   0  0  0  0  0  1  0  0  0  0  0  0
  -26.6340  -37.4490   23.7280 N   0  0  0  0  0  0  0  0  0  0  0  0
  -26.2570  -38.3790   23.8800 H   0  0  0  0  0  0  0  0  0  0  0  0
  -26.4260  -31.7470   25.2440 C   0  0  1  0  0  0  0  0  0  0  0  0
  -25.4590  -31.4020   26.4210 C   0  0  0  0  0  1  0  0  0  0  0  0
  -26.9840  -30.4020   24.7360 C   0  0  0  0  0  1  0  0  0  0  0  0
  -27.6160  -32.5360   25.8340 C   0  0  0  0  0  1  0  0  0  0  0  0
  2  1  1  0
  3  1  2  0
  4  6  2  0
  4  5  1  0
  5  2  2  0
  6  3  1  0
  8  7  1  0
  8  6  1  0
  9 10  1  0
 10  8  1  0
 10 13  1  0
 10 11  1  6
 13 12  1  0
 14 13  1  0
 14 15  2  0
 16 15  1  0
 17 26  1  0
 18 23  1  0
 19 20  1  0
 19 18  1  0
 21 20  1  0
 21 30  1  0
 21 22  1  0
 23 17  1  0
 23 22  1  0
 24 17  2  0
 25 26  1  0
 26 16  1  0
 27 28  2  0
 28 47  1  0
 29 28  1  0
 29 32  1  0
 30 27  1  0
 30 31  1  0
 31 29  2  0
 32 33  1  0
 33 34  2  0
 35 38  1  0
 35 34  1  0
 36 35  2  0
 37 36  1  0
 37 32  2  0
 38 39  1  0
 39 40  1  0
 40 41  2  0
 42 41  1  0
 42 46  1  0
 43 42  2  0
 44 39  2  0
 44 43  1  0
 45 44  1  0
 47 48  1  0
 48 51  1  0
 48 50  1  0
 49 47  2  0
 52 53  1  0
 52 27  1  0
 54 52  1  0
 55  5  1  0
 56 55  1  0
 57 68  2  0
 57 83  1  0
 58 56  1  0
 58 63  1  0
 59 67  1  0
 59 69  1  0
 60 66  1  0
 60 62  1  0
 61 67  1  0
 62 61  1  0
 63 62  2  0
 64 65  1  0
 64 58  2  0
 65 60  2  0
 66 59  1  0
 67 57  1  0
 69 71  2  0
 70 69  1  0
 72 70  1  0
 73 82  2  0
 73 78  1  0
 74 70  1  0
 74 78  1  0
 75 74  1  0
 76 77  1  0
 76 75  1  0
 77 73  1  0
 78 79  2  0
 79 80  1  0
 81 80  2  0
 82 81  1  0
 83 84  2  3
 83 93  1  0
 84 87  1  0
 85 89  1  0
 85 84  1  0
 86 85  2  0
 89 88  1  0
 91 92  1  0
 91 89  1  0
 91 90  1  0
 93 96  1  1
 93 94  1  0
 95 93  1  0
M  ISO  4  17 100  26 100  55 101  56 101
M  END
>  <TORSDO>  (88) 
F 23

>  <SCORE>  (88) 
-11.275

>  <name>  (88) 
88

>  <ligand_id>  (88) 
88

>  <original_smiles>  (88) 
[H]c1c([H])c([H])c2c(c1[H])C([H])([H])C([H])([H])C([H])([H])C2([H])N([H])C(=O)C1([H])N(C(=O)C([H])(N([H])C(=O)C([H])(N([H])C([H])([H])[H])C([H])([H])[H])C(C([H])([H])[H])(C([H])([H])[H])C([H])([H])[H])C([H])([H])c2c([H])c(OC([H])([H])c3c([H])c([H])c([H])c(C([H])(C([H])([H])[H])[N+]([H])(C([H])([H])[H])C([H])(C([H])([H])[H])C([H])([H])C([H])([H])C([H])([H])N(C(=O)N4C([H])([H])C([H])([H])C([H])([H])C([H])(n5nc(-c6c([H])c([H])c(Oc7c([H])c([H])c(F)c([H])c7F)c([H])c6[H])c(C(=O)N([H])[H])c5N([H])[H])C4([H])[H])C([H])([H])[H])c3[H])c([H])c([H])c2C1([H])[H]

>  <smiles>  (88) 
[H]c1c([H])c([H])c2c(c1[H])C([H])([H])C([H])([H])C([H])([H])C2([H])N([H])C(=O)C1([H])N(C(=O)C([H])(N([H])C(=O)C([H])(N([H])C([H])([H])[H])C([H])([H])[H])C(C([H])([H])[H])(C([H])([H])[H])C([H])([H])[H])C([H])([H])c2c([H])c(OC([H])([H])c3c([H])c([H])c([H])c(C([H])(C([H])([H])[H])[N+]([H])(C([H])([H])[H])C([H])(C([H])([H])[H])C([H])([H])C([H])([H])C([H])([H])N(C(=O)N4C([H])([H])C([H])([H])C([H])([H])C([H])(n5nc(-c6c([H])c([H])c(Oc7c([H])c([H])c(F)c([H])c7F)c([H])c6[H])c(C(=O)N([H])[H])c5N([H])[H])C4([H])[H])C([H])([H])[H])c3[H])c([H])c([H])c2C1([H])[H]

$$$$
89:0:0
     RDKit          3D

 94103  0  0  1  0  0  0  0  0999 V2000
  -29.7250  -18.6920   22.1450 C   0  0  0  0  0  3  0  0  0  0  0  0
  -29.9040  -17.3120   21.9350 C   0  0  0  0  0  3  0  0  0  0  0  0
  -30.5790  -17.7400   19.6380 C   0  0  0  0  0  3  0  0  0  0  0  0
  -29.9720  -19.6170   21.1110 C   0  0  0  0  0  0  0  0  0  0  0  0
  -30.3830  -19.1360   19.8420 C   0  0  0  0  0  0  0  0  0  0  0  0
  -30.3470  -16.8140   20.6930 C   0  0  0  0  0  0  0  0  0  0  0  0
  -29.8360  -21.1110   21.4220 C   0  0  0  0  0  2  0  0  0  0  0  0
  -30.5620  -20.1180   18.6880 C   0  0  0  0  0  2  0  0  0  0  0  0
  -30.8470  -21.5710   19.1350 C   0  0  0  0  0  2  0  0  0  0  0  0
  -29.8390  -22.0690   20.1960 C   0  0  0  0  0  3  0  0  0  0  0  0
  -30.9450  -14.5670   19.6570 C   0  0  0  0  0  0  0  0  0  0  0  0
  -30.5500  -12.4090   18.5030 C   0  0  0  0  0  2  0  0  0  0  0  0
  -29.4570  -12.5940   17.4270 C   0  0  0  0  0  2  0  0  0  0  0  0
  -28.0490  -12.4400   18.0360 C   0  0  0  0  0  2  0  0  0  0  0  0
  -27.8600  -13.2890   19.3210 C   0  0  0  0  0  3  0  0  0  0  0  0
  -29.0370  -13.0430   20.2910 C   0  0  0  0  0  2  0  0  0  0  0  0
  -30.2960  -13.3700   19.5880 N   0  0  0  0  0  0  0  0  0  0  0  0
  -31.9120  -14.8550   18.9430 O   0  0  0  0  0  0  0  0  0  0  0  0
  -30.4530  -15.3900   20.6040 N   0  0  0  0  0  0  0  0  0  0  0  0
  -29.8760  -14.8980   21.2660 H   0  0  0  0  0  0  0  0  0  0  0  0
  -25.5890  -13.9180   20.3660 C   0  0  0  0  0  0  0  0  0  0  0  0
  -24.5500  -13.1510   20.8230 C   0  0  0  0  0  0  0  0  0  0  0  0
  -24.9590  -11.7940   20.6550 C   0  0  0  0  0  0  0  0  0  0  0  0
  -26.5680  -13.0250   19.9530 N   0  0  0  0  0  0  0  0  0  0  0  0
  -26.1950  -11.7390   20.1780 N   0  0  0  0  0  0  0  0  0  0  0  0
  -24.2210  -10.5410   20.8640 C   0  0  0  0  0  0  0  0  0  0  0  0
  -24.6820   -9.5560   21.7630 C   0  0  0  0  0  3  0  0  0  0  0  0
  -23.9480   -8.3660   21.9610 C   0  0  0  0  0  3  0  0  0  0  0  0
  -22.7390   -8.1550   21.2590 C   0  0  0  0  0  0  0  0  0  0  0  0
  -22.2940   -9.1290   20.3470 C   0  0  0  0  0  3  0  0  0  0  0  0
  -23.0300  -10.3100   20.1490 C   0  0  0  0  0  3  0  0  0  0  0  0
  -21.9730   -7.0200   21.3690 O   0  0  0  0  0  0  0  0  0  0  0  0
  -21.8680   -6.3330   22.5500 C   0  0  0  0  0  0  0  0  0  0  0  0
  -21.3520   -6.9340   23.7190 C   0  0  0  0  0  3  0  0  0  0  0  0
  -21.1990   -6.1710   24.8930 C   0  0  0  0  0  3  0  0  0  0  0  0
  -21.5500   -4.8080   24.8990 C   0  0  0  0  0  0  0  0  0  0  0  0
  -22.0590   -4.2060   23.7350 C   0  0  0  0  0  3  0  0  0  0  0  0
  -22.2130   -4.9660   22.5630 C   0  0  0  0  0  0  0  0  0  0  0  0
  -22.6850   -4.3760   21.4380 F   0  0  0  0  0  0  0  0  0  0  0  0
  -21.3940   -4.0740   26.0250 F   0  0  0  0  0  0  0  0  0  0  0  0
  -23.2170  -13.6450   21.3070 C   0  0  0  0  0  0  0  0  0  0  0  0
  -22.5910  -12.9220   22.2270 N   0  0  0  0  0  0  0  0  0  0  0  0
  -22.7470  -14.7110   20.9090 O   0  0  0  0  0  0  0  0  0  0  0  0
  -22.9820  -12.0540   22.5680 H   0  0  0  0  0  0  0  0  0  0  0  0
  -21.7050  -13.2350   22.5970 H   0  0  0  0  0  0  0  0  0  0  0  0
  -25.7730  -15.2920   20.2520 N   0  0  0  0  0  0  0  0  0  0  0  0
  -25.0490  -15.9540   20.5120 H   0  0  0  0  0  0  0  0  0  0  0  0
  -26.5980  -15.7390   19.8700 H   0  0  0  0  0  0  0  0  0  0  0  0
  -31.3710  -23.8750   21.0500 C   0  0  0  0  0  1  0  0  0  0  0  0
  -30.0000  -23.5150   20.5960 N   0  0  1  0  0  4  0  0  0  0  0  0
  -29.4180  -23.6090   21.4140 H   0  0  0  0  0  0  0  0  0  0  0  0
  -29.4700  -24.5290   19.6210 C   0  0  0  0  0  2  0  0  0  0  0  0
  -28.5750  -25.6190   20.2820 C   0  0  0  0  0  2  0  0  0  0  0  0
  -28.4670  -26.7850   19.4430 O   0  0  0  0  0  0  0  0  0  0  0  0
  -24.6870  -31.5710   23.1260 C   0  0  0  0  0  0  0  0  0  0  0  0
  -27.2890  -27.4900   19.5690 C   0  0  0  0  0  0  0  0  0  0  0  0
  -23.4340  -30.2830   21.4230 C   0  0  0  0  0  3  0  0  0  0  0  0
  -24.8570  -28.9120   19.8090 C   0  0  0  0  0  0  0  0  0  0  0  0
  -25.9330  -30.7390   21.1310 C   0  0  0  0  0  2  0  0  0  0  0  0
  -26.0280  -29.4270   20.3790 C   0  0  0  0  0  0  0  0  0  0  0  0
  -27.2520  -28.7270   20.2480 C   0  0  0  0  0  3  0  0  0  0  0  0
  -26.1040  -26.9870   18.9930 C   0  0  0  0  0  3  0  0  0  0  0  0
  -24.8890  -27.6910   19.1120 C   0  0  0  0  0  3  0  0  0  0  0  0
  -23.5940  -29.7290   19.9830 C   0  0  0  0  0  2  0  0  0  0  0  0
  -24.7050  -30.8730   21.9530 N   0  0  0  0  0  0  0  0  0  0  0  0
  -23.6280  -31.7620   23.7380 O   0  0  0  0  0  0  0  0  0  0  0  0
  -22.8580  -29.1650   22.3230 C   0  0  0  0  0  0  0  0  0  0  0  0
  -21.5450  -28.9140   22.1980 N   0  0  0  0  0  0  0  0  0  0  0  0
  -23.5890  -28.5280   23.0870 O   0  0  0  0  0  0  0  0  0  0  0  0
  -21.0110  -29.4880   21.5600 H   0  0  0  0  0  0  0  0  0  0  0  0
  -18.2650  -27.4580   22.6170 C   0  0  0  0  0  0  0  0  0  0  0  0
  -20.7980  -27.8800   22.9130 C   0  0  0  0  0  3  0  0  0  0  0  0
  -21.0030  -26.4930   22.2610 C   0  0  0  0  0  2  0  0  0  0  0  0
  -19.9280  -26.1470   21.2250 C   0  0  0  0  0  2  0  0  0  0  0  0
  -18.5380  -26.1610   21.8690 C   0  0  0  0  0  2  0  0  0  0  0  0
  -19.3290  -28.2720   23.0920 C   0  0  0  0  0  0  0  0  0  0  0  0
  -19.0230  -29.4840   23.7480 C   0  0  0  0  0  3  0  0  0  0  0  0
  -17.6880  -29.8840   23.9370 C   0  0  0  0  0  3  0  0  0  0  0  0
  -16.6400  -29.0670   23.4790 C   0  0  0  0  0  3  0  0  0  0  0  0
  -16.9290  -27.8590   22.8210 C   0  0  0  0  0  3  0  0  0  0  0  0
  -25.9870  -32.1850   23.7360 C   0  0  0  0  0  3  0  0  0  0  0  0
  -26.5390  -31.3720   24.9710 C   0  0  1  0  0  0  0  0  0  0  0  0
  -25.4800  -31.0900   26.0650 C   0  0  0  0  0  1  0  0  0  0  0  0
  -27.1130  -30.0100   24.5110 C   0  0  0  0  0  1  0  0  0  0  0  0
  -27.7080  -32.1420   25.6300 C   0  0  0  0  0  1  0  0  0  0  0  0
  -25.6850  -33.5720   24.1200 N   0  0  0  0  0  0  0  0  0  0  0  0
  -26.0090  -34.6480   23.3910 C   0  0  0  0  0  0  0  0  0  0  0  0
  -26.6660  -34.5810   22.3460 O   0  0  0  0  0  0  0  0  0  0  0  0
  -25.1070  -33.6990   24.9370 H   0  0  0  0  0  0  0  0  0  0  0  0
  -24.2800  -36.4560   23.1190 C   0  0  0  0  0  1  0  0  0  0  0  0
  -25.5300  -36.0210   23.8990 C   0  0  0  0  0  3  0  0  0  0  0  0
  -27.6720  -36.8850   24.7340 C   0  0  0  0  0  1  0  0  0  0  0  0
  -26.5610  -37.0780   23.8080 N   0  0  0  0  0  0  0  0  0  0  0  0
  -26.1550  -37.9920   23.9850 H   0  0  0  0  0  0  0  0  0  0  0  0
  2  1  1  0
  3  5  2  0
  3  6  1  0
  4  7  1  0
  4  1  2  0
  5  4  1  0
  6  2  2  0
  8  9  1  0
  8  5  1  0
  9 10  1  0
 10 50  1  0
 10  7  1  0
 11 19  1  0
 12 17  1  0
 13 14  1  0
 13 12  1  0
 15 14  1  0
 15 24  1  0
 15 16  1  0
 17 11  1  0
 17 16  1  0
 18 11  2  0
 19  6  1  0
 19 20  1  0
 21 22  2  0
 22 41  1  0
 23 22  1  0
 23 26  1  0
 24 25  1  0
 24 21  1  0
 25 23  2  0
 26 27  1  0
 27 28  2  0
 29 32  1  0
 29 28  1  0
 30 29  2  0
 31 30  1  0
 31 26  2  0
 32 33  1  0
 33 38  2  0
 33 34  1  0
 34 35  2  0
 35 36  1  0
 36 40  1  0
 37 36  2  0
 38 37  1  0
 39 38  1  0
 41 42  1  0
 42 44  1  0
 42 45  1  0
 43 41  2  0
 46 21  1  0
 46 47  1  0
 48 46  1  0
 50 49  1  0
 50 51  1  1
 52 53  1  0
 52 50  1  0
 54 56  1  0
 54 53  1  0
 55 66  2  0
 56 61  1  0
 57 65  1  0
 57 67  1  0
 58 64  1  0
 58 60  1  0
 59 65  1  0
 60 59  1  0
 61 60  2  0
 62 63  1  0
 62 56  2  0
 63 58  2  0
 64 57  1  0
 65 55  1  0
 67 69  2  0
 68 67  1  0
 70 68  1  0
 71 80  2  0
 71 76  1  0
 72 68  1  0
 72 76  1  0
 73 72  1  0
 74 75  1  0
 74 73  1  0
 75 71  1  0
 76 77  2  0
 77 78  1  0
 79 78  2  0
 80 79  1  0
 81 55  1  0
 81 86  1  0
 81 82  1  0
 82 85  1  1
 82 83  1  0
 84 82  1  0
 86 89  1  0
 87 91  1  0
 87 86  1  0
 88 87  2  0
 91 90  1  0
 93 91  1  0
 93 94  1  0
 93 92  1  0
M  ISO  4  11 100  19 100  53 101  54 101
M  END
>  <TORSDO>  (89) 
F 19

>  <SCORE>  (89) 
-11.538

>  <name>  (89) 
89

>  <ligand_id>  (89) 
89

>  <original_smiles>  (89) 
[H]c1c([H])c([H])c2c(c1[H])C([H])([H])C([H])([H])C([H])([H])C2([H])N([H])C(=O)C1([H])N(C(=O)C([H])(N([H])C(=O)C([H])(N([H])C([H])([H])[H])C([H])([H])[H])C(C([H])([H])[H])(C([H])([H])[H])C([H])([H])[H])C([H])([H])c2c([H])c(OC([H])([H])C([H])([H])[N+]([H])(C([H])([H])[H])C3([H])C([H])([H])c4c([H])c([H])c(N([H])C(=O)N5C([H])([H])C([H])([H])C([H])([H])C([H])(n6nc(-c7c([H])c([H])c(Oc8c([H])c([H])c(F)c([H])c8F)c([H])c7[H])c(C(=O)N([H])[H])c6N([H])[H])C5([H])[H])c([H])c4C([H])([H])C3([H])[H])c([H])c([H])c2C1([H])[H]

>  <smiles>  (89) 
[H]c1c([H])c([H])c2c(c1[H])C([H])([H])C([H])([H])C([H])([H])C2([H])N([H])C(=O)C1([H])N(C(=O)C([H])(N([H])C(=O)C([H])(N([H])C([H])([H])[H])C([H])([H])[H])C(C([H])([H])[H])(C([H])([H])[H])C([H])([H])[H])C([H])([H])c2c([H])c(OC([H])([H])C([H])([H])[N+]([H])(C([H])([H])[H])C3([H])C([H])([H])c4c([H])c([H])c(N([H])C(=O)N5C([H])([H])C([H])([H])C([H])([H])C([H])(n6nc(-c7c([H])c([H])c(Oc8c([H])c([H])c(F)c([H])c8F)c([H])c7[H])c(C(=O)N([H])[H])c6N([H])[H])C5([H])[H])c([H])c4C([H])([H])C3([H])[H])c([H])c([H])c2C1([H])[H]

$$$$
90:0:0
     RDKit          3D

 86 94  0  0  1  0  0  0  0  0999 V2000
  -26.5990  -21.9870   20.5570 C   0  0  0  0  0  3  0  0  0  0  0  0
  -27.4920  -20.8700   20.4110 C   0  0  0  0  0  3  0  0  0  0  0  0
  -26.9010  -23.3880   20.4480 C   0  0  0  0  0  3  0  0  0  0  0  0
  -29.1150  -22.5910   20.0270 C   0  0  0  0  0  3  0  0  0  0  0  0
  -28.8770  -20.9670   20.1300 C   0  0  0  0  0  0  0  0  0  0  0  0
  -28.1790  -23.9350   20.1660 C   0  0  0  0  0  0  0  0  0  0  0  0
  -28.2790  -25.5900   20.1230 O   0  0  0  0  0  0  0  0  0  0  0  0
  -24.7630  -31.9440   23.2280 C   0  0  0  0  0  0  0  0  0  0  0  0
  -27.3020  -26.8420   20.1480 C   0  0  0  0  0  0  0  0  0  0  0  0
  -23.5790  -30.5650   21.5730 C   0  0  0  0  0  3  0  0  0  0  0  0
  -25.0320  -28.9320   20.1320 C   0  0  0  0  0  0  0  0  0  0  0  0
  -26.1610  -30.6930   21.4570 C   0  0  0  0  0  2  0  0  0  0  0  0
  -26.2280  -29.2590   20.7800 C   0  0  0  0  0  0  0  0  0  0  0  0
  -27.3390  -28.2450   20.7580 C   0  0  0  0  0  3  0  0  0  0  0  0
  -26.0730  -26.7620   19.4350 C   0  0  0  0  0  3  0  0  0  0  0  0
  -24.9980  -27.7100   19.4360 C   0  0  0  0  0  3  0  0  0  0  0  0
  -23.8230  -29.8870   20.1930 C   0  0  0  0  0  2  0  0  0  0  0  0
  -24.8600  -31.1030   22.1390 N   0  0  0  0  0  0  0  0  0  0  0  0
  -23.6680  -32.2320   23.7440 O   0  0  0  0  0  0  0  0  0  0  0  0
  -22.8650  -29.5750   22.5330 C   0  0  0  0  0  0  0  0  0  0  0  0
  -21.5350  -29.4030   22.3990 N   0  0  0  0  0  0  0  0  0  0  0  0
  -23.5210  -28.9560   23.3740 O   0  0  0  0  0  0  0  0  0  0  0  0
  -21.0520  -29.9530   21.7010 H   0  0  0  0  0  0  0  0  0  0  0  0
  -18.1610  -28.1420   22.8970 C   0  0  0  0  0  0  0  0  0  0  0  0
  -20.7180  -28.4460   23.1580 C   0  0  0  0  0  3  0  0  0  0  0  0
  -20.8390  -27.0220   22.5650 C   0  0  0  0  0  2  0  0  0  0  0  0
  -19.7400  -26.6990   21.5470 C   0  0  0  0  0  2  0  0  0  0  0  0
  -18.3580  -26.8090   22.1950 C   0  0  0  0  0  2  0  0  0  0  0  0
  -19.2670  -28.9180   23.3350 C   0  0  0  0  0  0  0  0  0  0  0  0
  -19.0260  -30.1610   23.9580 C   0  0  0  0  0  3  0  0  0  0  0  0
  -17.7120  -30.6310   24.1450 C   0  0  0  0  0  3  0  0  0  0  0  0
  -16.6210  -29.8540   23.7180 C   0  0  0  0  0  3  0  0  0  0  0  0
  -16.8450  -28.6100   23.1020 C   0  0  0  0  0  3  0  0  0  0  0  0
  -26.0210  -32.5950   23.8780 C   0  0  0  0  0  3  0  0  0  0  0  0
  -25.6920  -33.9930   24.2280 N   0  0  0  0  0  0  0  0  0  0  0  0
  -25.9920  -35.0690   23.4880 C   0  0  0  0  0  0  0  0  0  0  0  0
  -26.6300  -34.9900   22.4360 O   0  0  0  0  0  0  0  0  0  0  0  0
  -25.1170  -34.1250   25.0480 H   0  0  0  0  0  0  0  0  0  0  0  0
  -24.2270  -36.8540   23.2530 C   0  0  0  0  0  1  0  0  0  0  0  0
  -25.5140  -36.4490   23.9900 C   0  0  0  0  0  3  0  0  0  0  0  0
  -27.6710  -37.3690   24.7270 C   0  0  0  0  0  1  0  0  0  0  0  0
  -26.5260  -37.5190   23.8330 N   0  0  0  0  0  0  0  0  0  0  0  0
  -26.1130  -38.4330   23.9970 H   0  0  0  0  0  0  0  0  0  0  0  0
  -26.5160  -31.8280   25.1680 C   0  0  1  0  0  0  0  0  0  0  0  0
  -25.4050  -31.5930   26.2190 C   0  0  0  0  0  1  0  0  0  0  0  0
  -27.1080  -30.4500   24.8040 C   0  0  0  0  0  1  0  0  0  0  0  0
  -27.6550  -32.6260   25.8460 C   0  0  0  0  0  1  0  0  0  0  0  0
  -29.8430  -19.3070   20.0050 C   0  0  0  0  0  2  0  0  0  0  0  0
  -30.4500  -16.0790   19.9870 C   0  0  0  0  0  0  0  0  0  0  0  0
  -30.6000  -13.4980   19.1790 C   0  0  0  0  0  2  0  0  0  0  0  0
  -29.6870  -12.9980   18.0180 C   0  0  0  0  0  2  0  0  0  0  0  0
  -28.3040  -12.5850   18.5390 C   0  0  0  0  0  2  0  0  0  0  0  0
  -27.7940  -13.5890   19.5940 C   0  0  0  0  0  3  0  0  0  0  0  0
  -28.8510  -13.9910   20.6540 C   0  0  0  0  0  2  0  0  0  0  0  0
  -29.9570  -14.6810   19.9380 N   0  0  0  0  0  0  0  0  0  0  0  0
  -31.6790  -16.0010   19.7760 O   0  0  0  0  0  0  0  0  0  0  0  0
  -29.6890  -17.4810   20.0810 N   0  0  0  0  0  0  0  0  0  0  0  0
  -28.7130  -17.2610   20.2160 H   0  0  0  0  0  0  0  0  0  0  0  0
  -25.4750  -14.0620   20.5010 C   0  0  0  0  0  0  0  0  0  0  0  0
  -24.4420  -13.2600   20.8920 C   0  0  0  0  0  0  0  0  0  0  0  0
  -24.9200  -11.9170   20.7870 C   0  0  0  0  0  0  0  0  0  0  0  0
  -26.5120  -13.2120   20.1720 N   0  0  0  0  0  0  0  0  0  0  0  0
  -26.1970  -11.9110   20.4090 N   0  0  0  0  0  0  0  0  0  0  0  0
  -24.2090  -10.6440   20.9650 C   0  0  0  0  0  0  0  0  0  0  0  0
  -24.6290   -9.6870   21.9140 C   0  0  0  0  0  3  0  0  0  0  0  0
  -23.9130   -8.4810   22.0820 C   0  0  0  0  0  3  0  0  0  0  0  0
  -22.7620   -8.2240   21.3010 C   0  0  0  0  0  0  0  0  0  0  0  0
  -22.3600   -9.1700   20.3410 C   0  0  0  0  0  3  0  0  0  0  0  0
  -23.0780  -10.3650   20.1710 C   0  0  0  0  0  3  0  0  0  0  0  0
  -22.0190   -7.0700   21.3780 O   0  0  0  0  0  0  0  0  0  0  0  0
  -21.8620   -6.3920   22.5600 C   0  0  0  0  0  0  0  0  0  0  0  0
  -21.2590   -6.9900   23.6880 C   0  0  0  0  0  3  0  0  0  0  0  0
  -21.0540   -6.2360   24.8600 C   0  0  0  0  0  3  0  0  0  0  0  0
  -21.4420   -4.8840   24.9050 C   0  0  0  0  0  0  0  0  0  0  0  0
  -22.0390   -4.2840   23.7810 C   0  0  0  0  0  3  0  0  0  0  0  0
  -22.2440   -5.0360   22.6110 C   0  0  0  0  0  0  0  0  0  0  0  0
  -22.7990   -4.4490   21.5240 F   0  0  0  0  0  0  0  0  0  0  0  0
  -21.2400   -4.1560   26.0280 F   0  0  0  0  0  0  0  0  0  0  0  0
  -23.0560  -13.7160   21.2400 C   0  0  0  0  0  0  0  0  0  0  0  0
  -22.3770  -12.9930   22.1220 N   0  0  0  0  0  0  0  0  0  0  0  0
  -22.5880  -14.7510   20.7680 O   0  0  0  0  0  0  0  0  0  0  0  0
  -22.7710  -12.1560   22.5260 H   0  0  0  0  0  0  0  0  0  0  0  0
  -21.4480  -13.2790   22.3970 H   0  0  0  0  0  0  0  0  0  0  0  0
  -25.6140  -15.4410   20.3640 N   0  0  0  0  0  0  0  0  0  0  0  0
  -24.8430  -16.0790   20.5290 H   0  0  0  0  0  0  0  0  0  0  0  0
  -26.4300  -15.8970   19.9770 H   0  0  0  0  0  0  0  0  0  0  0  0
  2  1  2  0
  3  1  1  0
  4  5  2  0
  4  6  1  0
  5  2  1  0
  6  3  2  0
  7  9  1  0
  7  6  1  0
  8 19  2  0
  9 14  1  0
 10 18  1  0
 10 20  1  0
 11 17  1  0
 11 13  1  0
 12 18  1  0
 13 12  1  0
 14 13  2  0
 15 16  1  0
 15  9  2  0
 16 11  2  0
 17 10  1  0
 18  8  1  0
 20 22  2  0
 21 20  1  0
 23 21  1  0
 24 33  2  0
 24 29  1  0
 25 21  1  0
 25 29  1  0
 26 25  1  0
 27 28  1  0
 27 26  1  0
 28 24  1  0
 29 30  2  0
 30 31  1  0
 32 31  2  0
 33 32  1  0
 34  8  1  0
 34 35  1  0
 34 44  1  0
 35 38  1  0
 36 40  1  0
 36 35  1  0
 37 36  2  0
 40 39  1  0
 42 40  1  0
 42 43  1  0
 42 41  1  0
 44 47  1  1
 44 45  1  0
 46 44  1  0
 48 57  1  0
 48  5  1  0
 49 57  1  0
 50 55  1  0
 51 52  1  0
 51 50  1  0
 53 52  1  0
 53 62  1  0
 53 54  1  0
 55 49  1  0
 55 54  1  0
 56 49  2  0
 57 58  1  0
 59 60  2  0
 60 79  1  0
 61 60  1  0
 61 64  1  0
 62 63  1  0
 62 59  1  0
 63 61  2  0
 64 65  1  0
 65 66  2  0
 67 70  1  0
 67 66  1  0
 68 67  2  0
 69 68  1  0
 69 64  2  0
 70 71  1  0
 71 76  2  0
 71 72  1  0
 72 73  2  0
 73 74  1  0
 74 78  1  0
 75 74  2  0
 76 75  1  0
 77 76  1  0
 79 80  1  0
 80 83  1  0
 80 82  1  0
 81 79  2  0
 84 59  1  0
 84 85  1  0
 86 84  1  0
M  ISO  4   6 101   7 101  49 100  57 100
M  END
>  <TORSDO>  (90) 
F 17

>  <SCORE>  (90) 
-15.190

>  <name>  (90) 
90

>  <ligand_id>  (90) 
90

>  <original_smiles>  (90) 
[H]c1c([H])c(Oc2c([H])c([H])c3c(c2[H])C([H])([H])N(C(=O)C([H])(N([H])C(=O)C([H])(N([H])C([H])([H])[H])C([H])([H])[H])C(C([H])([H])[H])(C([H])([H])[H])C([H])([H])[H])C([H])(C(=O)N([H])C2([H])c4c([H])c([H])c([H])c([H])c4C([H])([H])C([H])([H])C2([H])[H])C3([H])[H])c([H])c(C([H])([H])N([H])C(=O)N2C([H])([H])C([H])([H])C([H])([H])C([H])(n3nc(-c4c([H])c([H])c(Oc5c([H])c([H])c(F)c([H])c5F)c([H])c4[H])c(C(=O)N([H])[H])c3N([H])[H])C2([H])[H])c1[H]

>  <smiles>  (90) 
[H]c1c([H])c(Oc2c([H])c([H])c3c(c2[H])C([H])([H])N(C(=O)C([H])(N([H])C(=O)C([H])(N([H])C([H])([H])[H])C([H])([H])[H])C(C([H])([H])[H])(C([H])([H])[H])C([H])([H])[H])C([H])(C(=O)N([H])C2([H])c4c([H])c([H])c([H])c([H])c4C([H])([H])C([H])([H])C2([H])[H])C3([H])[H])c([H])c(C([H])([H])N([H])C(=O)N2C([H])([H])C([H])([H])C([H])([H])C([H])(n3nc(-c4c([H])c([H])c(Oc5c([H])c([H])c(F)c([H])c5F)c([H])c4[H])c(C(=O)N([H])[H])c3N([H])[H])C2([H])[H])c1[H]

$$$$
91:0:0
     RDKit          3D

 89 96  0  0  1  0  0  0  0  0999 V2000
  -29.8670  -21.7680   19.6070 C   0  0  0  0  0  3  0  0  0  0  0  0
  -29.8910  -22.9920   20.2100 C   0  0  0  0  0  0  0  0  0  0  0  0
  -30.3250  -23.1900   21.6530 C   0  0  0  0  0  1  0  0  0  0  0  0
  -30.3070  -20.3840   20.1610 C   0  0  0  0  0  2  0  0  0  0  0  0
  -29.2960  -19.2960   20.0150 N   0  0  0  0  0  4  0  0  0  0  0  0
  -28.7380  -19.5340   19.2120 H   0  0  0  0  0  0  0  0  0  0  0  0
  -28.6700  -19.3180   20.8070 H   0  0  0  0  0  0  0  0  0  0  0  0
  -29.7830  -17.8930   19.7770 C   0  0  0  0  0  2  0  0  0  0  0  0
  -30.4180  -17.1420   20.9960 C   0  0  0  0  0  2  0  0  0  0  0  0
  -29.9640  -15.6510   21.2270 C   0  0  0  0  0  2  0  0  0  0  0  0
  -30.6360  -14.5070   20.4070 C   0  0  0  0  0  0  0  0  0  0  0  0
  -30.3580  -12.3530   19.2010 C   0  0  0  0  0  2  0  0  0  0  0  0
  -29.4010  -12.5720   18.0130 C   0  0  0  0  0  2  0  0  0  0  0  0
  -27.9290  -12.4360   18.4540 C   0  0  0  0  0  2  0  0  0  0  0  0
  -27.6130  -13.2420   19.7420 C   0  0  0  0  0  3  0  0  0  0  0  0
  -28.6820  -12.9780   20.8280 C   0  0  0  0  0  2  0  0  0  0  0  0
  -29.9910  -13.3150   20.2510 N   0  0  0  0  0  0  0  0  0  0  0  0
  -31.7260  -14.7270   19.8700 O   0  0  0  0  0  0  0  0  0  0  0  0
  -25.2150  -13.8560   20.4440 C   0  0  0  0  0  0  0  0  0  0  0  0
  -24.1470  -13.0850   20.8230 C   0  0  0  0  0  0  0  0  0  0  0  0
  -24.6080  -11.7340   20.7990 C   0  0  0  0  0  0  0  0  0  0  0  0
  -26.2590  -12.9720   20.2220 N   0  0  0  0  0  0  0  0  0  0  0  0
  -25.8970  -11.6920   20.4890 N   0  0  0  0  0  0  0  0  0  0  0  0
  -23.8830  -10.4710   21.0010 C   0  0  0  0  0  0  0  0  0  0  0  0
  -24.3270   -9.5060   21.9310 C   0  0  0  0  0  3  0  0  0  0  0  0
  -23.6040   -8.3090   22.1210 C   0  0  0  0  0  3  0  0  0  0  0  0
  -22.4240   -8.0680   21.3800 C   0  0  0  0  0  0  0  0  0  0  0  0
  -21.9980   -9.0210   20.4380 C   0  0  0  0  0  3  0  0  0  0  0  0
  -22.7220  -10.2110   20.2470 C   0  0  0  0  0  3  0  0  0  0  0  0
  -21.6710   -6.9230   21.4790 O   0  0  0  0  0  0  0  0  0  0  0  0
  -21.6430   -6.1770   22.6310 C   0  0  0  0  0  0  0  0  0  0  0  0
  -21.2430   -6.7310   23.8660 C   0  0  0  0  0  3  0  0  0  0  0  0
  -21.1640   -5.9150   25.0120 C   0  0  0  0  0  3  0  0  0  0  0  0
  -21.4740   -4.5440   24.9230 C   0  0  0  0  0  0  0  0  0  0  0  0
  -21.8650   -3.9890   23.6920 C   0  0  0  0  0  3  0  0  0  0  0  0
  -21.9480   -4.8040   22.5490 C   0  0  0  0  0  0  0  0  0  0  0  0
  -22.3070   -4.2590   21.3610 F   0  0  0  0  0  0  0  0  0  0  0  0
  -21.3900   -3.7570   26.0210 F   0  0  0  0  0  0  0  0  0  0  0  0
  -22.7500  -13.5620   21.0970 C   0  0  0  0  0  0  0  0  0  0  0  0
  -22.0300  -12.8670   21.9720 N   0  0  0  0  0  0  0  0  0  0  0  0
  -22.3060  -14.5820   20.5710 O   0  0  0  0  0  0  0  0  0  0  0  0
  -22.4070  -12.0450   22.4150 H   0  0  0  0  0  0  0  0  0  0  0  0
  -21.0880  -13.1580   22.1970 H   0  0  0  0  0  0  0  0  0  0  0  0
  -25.3840  -15.2230   20.2530 N   0  0  0  0  0  0  0  0  0  0  0  0
  -24.6340  -15.8940   20.3820 H   0  0  0  0  0  0  0  0  0  0  0  0
  -26.2340  -15.6390   19.8940 H   0  0  0  0  0  0  0  0  0  0  0  0
  -29.5680  -24.3120   19.4530 C   0  0  0  0  0  2  0  0  0  0  0  0
  -28.3700  -25.2250   19.9220 C   0  0  0  0  0  2  0  0  0  0  0  0
  -28.4160  -26.6590   20.1700 O   0  0  0  0  0  0  0  0  0  0  0  0
  -24.5820  -31.8680   23.2590 C   0  0  0  0  0  0  0  0  0  0  0  0
  -27.2280  -27.3910   20.1770 C   0  0  0  0  0  0  0  0  0  0  0  0
  -23.3750  -30.4640   21.6200 C   0  0  0  0  0  3  0  0  0  0  0  0
  -24.8290  -28.9200   20.1970 C   0  0  0  0  0  0  0  0  0  0  0  0
  -25.9060  -30.8110   21.4260 C   0  0  0  0  0  2  0  0  0  0  0  0
  -25.9910  -29.4390   20.7800 C   0  0  0  0  0  0  0  0  0  0  0  0
  -27.1920  -28.6850   20.7610 C   0  0  0  0  0  3  0  0  0  0  0  0
  -26.0420  -26.8940   19.5910 C   0  0  0  0  0  3  0  0  0  0  0  0
  -24.8500  -27.6500   19.5980 C   0  0  0  0  0  3  0  0  0  0  0  0
  -23.5840  -29.7810   20.2420 C   0  0  0  0  0  2  0  0  0  0  0  0
  -24.6390  -31.0630   22.1580 N   0  0  0  0  0  0  0  0  0  0  0  0
  -23.5020  -32.1430   23.7970 O   0  0  0  0  0  0  0  0  0  0  0  0
  -22.7220  -29.4450   22.5840 C   0  0  0  0  0  0  0  0  0  0  0  0
  -21.3990  -29.2610   22.4560 N   0  0  0  0  0  0  0  0  0  0  0  0
  -23.4050  -28.8210   23.3990 O   0  0  0  0  0  0  0  0  0  0  0  0
  -20.9100  -29.8140   21.7660 H   0  0  0  0  0  0  0  0  0  0  0  0
  -18.0240  -28.0700   22.9560 C   0  0  0  0  0  0  0  0  0  0  0  0
  -20.5820  -28.3240   23.2260 C   0  0  0  0  0  3  0  0  0  0  0  0
  -20.6830  -26.8940   22.6480 C   0  0  0  0  0  2  0  0  0  0  0  0
  -19.5790  -26.5740   21.6340 C   0  0  0  0  0  2  0  0  0  0  0  0
  -18.1980  -26.7210   22.2790 C   0  0  0  0  0  2  0  0  0  0  0  0
  -19.1430  -28.8300   23.3850 C   0  0  0  0  0  0  0  0  0  0  0  0
  -18.9280  -30.0940   23.9750 C   0  0  0  0  0  3  0  0  0  0  0  0
  -17.6250  -30.5980   24.1440 C   0  0  0  0  0  3  0  0  0  0  0  0
  -16.5190  -29.8350   23.7330 C   0  0  0  0  0  3  0  0  0  0  0  0
  -16.7190  -28.5720   23.1440 C   0  0  0  0  0  3  0  0  0  0  0  0
  -25.8670  -32.5000   23.8780 C   0  0  0  0  0  3  0  0  0  0  0  0
  -25.5620  -33.9000   24.2000 N   0  0  0  0  0  0  0  0  0  0  0  0
  -25.9010  -34.9470   23.4370 C   0  0  0  0  0  0  0  0  0  0  0  0
  -26.5730  -34.8360   22.4060 O   0  0  0  0  0  0  0  0  0  0  0  0
  -24.9690  -34.0630   25.0020 H   0  0  0  0  0  0  0  0  0  0  0  0
  -24.1770  -36.7390   23.0730 C   0  0  0  0  0  1  0  0  0  0  0  0
  -25.4180  -36.3380   23.8870 C   0  0  0  0  0  3  0  0  0  0  0  0
  -27.5540  -37.2190   24.7140 C   0  0  0  0  0  1  0  0  0  0  0  0
  -26.4520  -37.3880   23.7700 N   0  0  0  0  0  0  0  0  0  0  0  0
  -26.0480  -38.3110   23.9150 H   0  0  0  0  0  0  0  0  0  0  0  0
  -26.3840  -31.7330   25.1560 C   0  0  1  0  0  0  0  0  0  0  0  0
  -25.2920  -31.5010   26.2250 C   0  0  0  0  0  1  0  0  0  0  0  0
  -26.9650  -30.3540   24.7670 C   0  0  0  0  0  1  0  0  0  0  0  0
  -27.5380  -32.5280   25.8130 C   0  0  0  0  0  1  0  0  0  0  0  0
  1  4  1  0
  1  2  2  0
  2  3  1  0
  5  4  1  0
  5  7  1  0
  6  5  1  0
  8  5  1  0
  8  9  1  0
  9 10  1  0
 11 10  1  0
 12 17  1  0
 13 14  1  0
 13 12  1  0
 15 14  1  0
 15 22  1  0
 15 16  1  0
 17 11  1  0
 17 16  1  0
 18 11  2  0
 19 20  2  0
 20 39  1  0
 21 20  1  0
 21 24  1  0
 22 19  1  0
 22 23  1  0
 23 21  2  0
 24 25  1  0
 25 26  2  0
 27 30  1  0
 27 26  1  0
 28 27  2  0
 29 28  1  0
 29 24  2  0
 30 31  1  0
 31 32  1  0
 32 33  2  0
 34 33  1  0
 34 38  1  0
 35 34  2  0
 36 31  2  0
 36 35  1  0
 37 36  1  0
 39 40  1  0
 40 43  1  0
 40 42  1  0
 41 39  2  0
 44 45  1  0
 44 19  1  0
 46 44  1  0
 47 48  1  0
 47  2  1  0
 48 49  1  0
 49 51  1  0
 50 61  2  0
 51 56  1  0
 52 60  1  0
 52 62  1  0
 53 59  1  0
 53 55  1  0
 54 60  1  0
 55 54  1  0
 56 55  2  0
 57 58  1  0
 57 51  2  0
 58 53  2  0
 59 52  1  0
 60 50  1  0
 62 64  2  0
 63 62  1  0
 65 63  1  0
 66 75  2  0
 66 71  1  0
 67 63  1  0
 67 71  1  0
 68 67  1  0
 69 70  1  0
 69 68  1  0
 70 66  1  0
 71 72  2  0
 72 73  1  0
 74 73  2  0
 75 74  1  0
 76 50  1  0
 76 77  1  0
 76 86  1  0
 77 80  1  0
 78 82  1  0
 78 77  1  0
 79 78  2  0
 82 81  1  0
 84 82  1  0
 84 85  1  0
 84 83  1  0
 86 89  1  1
 86 87  1  0
 88 86  1  0
M  ISO  4  10 100  11 100  48 101  49 101
M  END
>  <TORSDO>  (91) 
F 23

>  <SCORE>  (91) 
-12.663

>  <name>  (91) 
91

>  <ligand_id>  (91) 
91

>  <original_smiles>  (91) 
[H]C(=C(C([H])([H])[H])C([H])([H])C([H])([H])Oc1c([H])c([H])c2c(c1[H])C([H])([H])N(C(=O)C([H])(N([H])C(=O)C([H])(N([H])C([H])([H])[H])C([H])([H])[H])C(C([H])([H])[H])(C([H])([H])[H])C([H])([H])[H])C([H])(C(=O)N([H])C1([H])c3c([H])c([H])c([H])c([H])c3C([H])([H])C([H])([H])C1([H])[H])C2([H])[H])C([H])([H])[N+]([H])([H])C([H])([H])C([H])([H])C([H])([H])C(=O)N1C([H])([H])C([H])([H])C([H])([H])C([H])(n2nc(-c3c([H])c([H])c(Oc4c([H])c([H])c(F)c([H])c4F)c([H])c3[H])c(C(=O)N([H])[H])c2N([H])[H])C1([H])[H]

>  <smiles>  (91) 
[H]C(=C(C([H])([H])[H])C([H])([H])C([H])([H])Oc1c([H])c([H])c2c(c1[H])C([H])([H])N(C(=O)C([H])(N([H])C(=O)C([H])(N([H])C([H])([H])[H])C([H])([H])[H])C(C([H])([H])[H])(C([H])([H])[H])C([H])([H])[H])C([H])(C(=O)N([H])C1([H])c3c([H])c([H])c([H])c([H])c3C([H])([H])C([H])([H])C1([H])[H])C2([H])[H])C([H])([H])[N+]([H])([H])C([H])([H])C([H])([H])C([H])([H])C(=O)N1C([H])([H])C([H])([H])C([H])([H])C([H])(n2nc(-c3c([H])c([H])c(Oc4c([H])c([H])c(F)c([H])c4F)c([H])c3[H])c(C(=O)N([H])[H])c2N([H])[H])C1([H])[H]

$$$$
92:0:0
     RDKit          3D

 88 96  0  0  1  0  0  0  0  0999 V2000
  -28.8710  -20.7990   21.0120 C   0  0  0  0  0  0  0  0  0  0  0  0
  -29.2340  -19.1960   21.1560 C   0  0  0  0  0  2  0  0  0  0  0  0
  -30.1390  -19.2020   18.8820 C   0  0  0  0  0  2  0  0  0  0  0  0
  -29.4360  -20.6820   18.6850 C   0  0  0  0  0  2  0  0  0  0  0  0
  -29.4370  -18.1900   19.8960 C   0  0  0  0  0  3  0  0  0  0  0  0
  -29.0270  -21.5830   19.8670 N   0  0  0  0  0  0  0  0  0  0  0  0
  -28.4860  -21.3430   22.0520 O   0  0  0  0  0  0  0  0  0  0  0  0
  -30.5080  -15.3930   19.8310 C   0  0  0  0  0  0  0  0  0  0  0  0
  -30.4730  -12.9790   18.9440 C   0  0  0  0  0  2  0  0  0  0  0  0
  -29.4680  -12.8140   17.7780 C   0  0  0  0  0  2  0  0  0  0  0  0
  -28.0560  -12.5330   18.3190 C   0  0  0  0  0  2  0  0  0  0  0  0
  -27.6700  -13.4840   19.4790 C   0  0  0  0  0  3  0  0  0  0  0  0
  -28.7890  -13.5880   20.5390 C   0  0  0  0  0  2  0  0  0  0  0  0
  -29.9890  -14.0830   19.8400 N   0  0  0  0  0  0  0  0  0  0  0  0
  -31.6890  -15.4860   19.4740 O   0  0  0  0  0  0  0  0  0  0  0  0
  -29.6530  -16.5540   20.0390 N   0  0  0  0  0  0  0  0  0  0  0  0
  -28.7630  -16.1640   20.3150 H   0  0  0  0  0  0  0  0  0  0  0  0
  -25.3520  -14.0220   20.4180 C   0  0  0  0  0  0  0  0  0  0  0  0
  -24.3180  -13.2300   20.8280 C   0  0  0  0  0  0  0  0  0  0  0  0
  -24.7750  -11.8830   20.7090 C   0  0  0  0  0  0  0  0  0  0  0  0
  -26.3730  -13.1580   20.0610 N   0  0  0  0  0  0  0  0  0  0  0  0
  -26.0420  -11.8620   20.3010 N   0  0  0  0  0  0  0  0  0  0  0  0
  -24.0600  -10.6140   20.8990 C   0  0  0  0  0  0  0  0  0  0  0  0
  -24.4720   -9.6650   21.8600 C   0  0  0  0  0  3  0  0  0  0  0  0
  -23.7530   -8.4620   22.0300 C   0  0  0  0  0  3  0  0  0  0  0  0
  -22.6110   -8.1970   21.2380 C   0  0  0  0  0  0  0  0  0  0  0  0
  -22.2190   -9.1350   20.2690 C   0  0  0  0  0  3  0  0  0  0  0  0
  -22.9370  -10.3300   20.0970 C   0  0  0  0  0  3  0  0  0  0  0  0
  -21.8700   -7.0440   21.3240 O   0  0  0  0  0  0  0  0  0  0  0  0
  -21.6790   -6.3940   22.5180 C   0  0  0  0  0  0  0  0  0  0  0  0
  -21.0290   -7.0150   23.6070 C   0  0  0  0  0  3  0  0  0  0  0  0
  -20.7880   -6.2860   24.7900 C   0  0  0  0  0  3  0  0  0  0  0  0
  -21.1900   -4.9390   24.8820 C   0  0  0  0  0  0  0  0  0  0  0  0
  -21.8300   -4.3190   23.7960 C   0  0  0  0  0  3  0  0  0  0  0  0
  -22.0700   -5.0440   22.6170 C   0  0  0  0  0  0  0  0  0  0  0  0
  -22.6710   -4.4360   21.5640 F   0  0  0  0  0  0  0  0  0  0  0  0
  -20.9510   -4.2370   26.0150 F   0  0  0  0  0  0  0  0  0  0  0  0
  -22.9440  -13.7000   21.2180 C   0  0  0  0  0  0  0  0  0  0  0  0
  -22.2710  -12.9700   22.1010 N   0  0  0  0  0  0  0  0  0  0  0  0
  -22.4830  -14.7520   20.7750 O   0  0  0  0  0  0  0  0  0  0  0  0
  -22.6550  -12.1150   22.4790 H   0  0  0  0  0  0  0  0  0  0  0  0
  -21.3590  -13.2790   22.4080 H   0  0  0  0  0  0  0  0  0  0  0  0
  -25.4960  -15.4000   20.2900 N   0  0  0  0  0  0  0  0  0  0  0  0
  -24.7080  -16.0170   20.4580 H   0  0  0  0  0  0  0  0  0  0  0  0
  -26.2780  -15.8680   19.8490 H   0  0  0  0  0  0  0  0  0  0  0  0
  -29.0990  -23.2300   19.7510 C   0  0  0  0  0  3  0  0  0  0  0  0
  -27.9700  -24.5610   19.9860 C   0  0  0  0  0  3  0  0  0  0  0  0
  -28.1990  -26.1680   19.9360 O   0  0  0  0  0  0  0  0  0  0  0  0
  -24.6940  -31.9490   23.2140 C   0  0  0  0  0  0  0  0  0  0  0  0
  -27.1570  -27.2160   19.9650 C   0  0  0  0  0  0  0  0  0  0  0  0
  -23.4490  -30.5940   21.5800 C   0  0  0  0  0  3  0  0  0  0  0  0
  -24.8490  -29.0460   20.0660 C   0  0  0  0  0  0  0  0  0  0  0  0
  -26.0040  -30.8370   21.3450 C   0  0  0  0  0  2  0  0  0  0  0  0
  -26.0550  -29.4520   20.6450 C   0  0  0  0  0  0  0  0  0  0  0  0
  -27.2100  -28.5580   20.5670 C   0  0  0  0  0  3  0  0  0  0  0  0
  -25.9180  -26.9460   19.3490 C   0  0  0  0  0  3  0  0  0  0  0  0
  -24.7950  -27.8110   19.4030 C   0  0  0  0  0  3  0  0  0  0  0  0
  -23.6320  -29.9590   20.1760 C   0  0  0  0  0  2  0  0  0  0  0  0
  -24.7390  -31.1510   22.1000 N   0  0  0  0  0  0  0  0  0  0  0  0
  -23.6210  -32.2180   23.7810 O   0  0  0  0  0  0  0  0  0  0  0  0
  -22.7960  -29.5630   22.5350 C   0  0  0  0  0  0  0  0  0  0  0  0
  -21.4710  -29.3600   22.4190 N   0  0  0  0  0  0  0  0  0  0  0  0
  -23.4870  -28.9460   23.3510 O   0  0  0  0  0  0  0  0  0  0  0  0
  -20.9640  -29.9100   21.7390 H   0  0  0  0  0  0  0  0  0  0  0  0
  -18.1320  -28.0400   22.9320 C   0  0  0  0  0  0  0  0  0  0  0  0
  -20.6830  -28.3920   23.1880 C   0  0  0  0  0  3  0  0  0  0  0  0
  -20.8300  -26.9650   22.6080 C   0  0  0  0  0  2  0  0  0  0  0  0
  -19.7360  -26.6080   21.5970 C   0  0  0  0  0  2  0  0  0  0  0  0
  -18.3540  -26.7020   22.2470 C   0  0  0  0  0  2  0  0  0  0  0  0
  -19.2260  -28.8380   23.3620 C   0  0  0  0  0  0  0  0  0  0  0  0
  -18.9620  -30.0870   23.9680 C   0  0  0  0  0  3  0  0  0  0  0  0
  -17.6390  -30.5370   24.1440 C   0  0  0  0  0  3  0  0  0  0  0  0
  -16.5620  -29.7350   23.7270 C   0  0  0  0  0  3  0  0  0  0  0  0
  -16.8100  -28.4870   23.1280 C   0  0  0  0  0  3  0  0  0  0  0  0
  -25.9850  -32.5760   23.8200 C   0  0  0  0  0  3  0  0  0  0  0  0
  -25.6850  -33.9710   24.1850 N   0  0  0  0  0  0  0  0  0  0  0  0
  -25.9560  -35.0360   23.4190 C   0  0  0  0  0  0  0  0  0  0  0  0
  -26.5500  -34.9500   22.3440 O   0  0  0  0  0  0  0  0  0  0  0  0
  -25.1510  -34.1120   25.0300 H   0  0  0  0  0  0  0  0  0  0  0  0
  -24.1800  -36.8110   23.2410 C   0  0  0  0  0  1  0  0  0  0  0  0
  -25.4950  -36.4170   23.9310 C   0  0  0  0  0  3  0  0  0  0  0  0
  -27.6790  -37.3320   24.5850 C   0  0  0  0  0  1  0  0  0  0  0  0
  -26.5020  -37.4830   23.7330 N   0  0  0  0  0  0  0  0  0  0  0  0
  -26.0980  -38.3980   23.9160 H   0  0  0  0  0  0  0  0  0  0  0  0
  -26.5290  -31.7900   25.0770 C   0  0  1  0  0  0  0  0  0  0  0  0
  -25.4540  -31.5320   26.1590 C   0  0  0  0  0  1  0  0  0  0  0  0
  -27.1140  -30.4220   24.6610 C   0  0  0  0  0  1  0  0  0  0  0  0
  -27.6910  -32.5800   25.7270 C   0  0  0  0  0  1  0  0  0  0  0  0
  1  2  1  0
  1  7  2  0
  3  5  1  0
  4  3  1  0
  4  6  1  0
  5 16  1  0
  5  2  1  0
  6  1  1  0
  8 14  1  0
  8 16  1  0
  9 14  1  0
 10 11  1  0
 10  9  1  0
 12 11  1  0
 12 21  1  0
 12 13  1  0
 14 13  1  0
 15  8  2  0
 16 17  1  0
 18 19  2  0
 19 38  1  0
 20 19  1  0
 20 23  1  0
 21 22  1  0
 21 18  1  0
 22 20  2  0
 23 24  1  0
 24 25  2  0
 26 29  1  0
 26 25  1  0
 27 26  2  0
 28 27  1  0
 28 23  2  0
 29 30  1  0
 30 35  2  0
 30 31  1  0
 31 32  2  0
 32 33  1  0
 33 37  1  0
 34 33  2  0
 35 34  1  0
 36 35  1  0
 38 39  1  0
 39 42  1  0
 39 41  1  0
 40 38  2  0
 43 18  1  0
 43 44  1  0
 45 43  1  0
 46  6  1  0
 46 47  2  0
 48 50  1  0
 48 47  1  0
 49 60  2  0
 50 55  1  0
 51 59  1  0
 51 61  1  0
 52 58  1  0
 52 54  1  0
 53 59  1  0
 54 53  1  0
 55 54  2  0
 56 57  1  0
 56 50  2  0
 57 52  2  0
 58 51  1  0
 59 49  1  0
 61 63  2  0
 62 61  1  0
 64 62  1  0
 65 74  2  0
 65 70  1  0
 66 62  1  0
 66 70  1  0
 67 66  1  0
 68 69  1  0
 68 67  1  0
 69 65  1  0
 70 71  2  0
 71 72  1  0
 73 72  2  0
 74 73  1  0
 75 49  1  0
 75 76  1  0
 75 85  1  0
 76 79  1  0
 77 81  1  0
 77 76  1  0
 78 77  2  0
 81 80  1  0
 83 84  1  0
 83 81  1  0
 83 82  1  0
 85 88  1  1
 85 86  1  0
 87 85  1  0
M  ISO  4   8 100  16 100  47 101  48 101
M  END
>  <TORSDO>  (92) 
F 18

>  <SCORE>  (92) 
-14.559

>  <name>  (92) 
92

>  <ligand_id>  (92) 
92

>  <original_smiles>  (92) 
[H]c1c([H])c([H])c2c(c1[H])C([H])([H])C([H])([H])C([H])([H])C2([H])N([H])C(=O)C1([H])N(C(=O)C([H])(N([H])C(=O)C([H])(N([H])C([H])([H])[H])C([H])([H])[H])C(C([H])([H])[H])(C([H])([H])[H])C([H])([H])[H])C([H])([H])c2c([H])c(OC([H])([H])C([H])([H])N3C(=O)C([H])([H])C([H])(N([H])C(=O)N4C([H])([H])C([H])([H])C([H])([H])C([H])(n5nc(-c6c([H])c([H])c(Oc7c([H])c([H])c(F)c([H])c7F)c([H])c6[H])c(C(=O)N([H])[H])c5N([H])[H])C4([H])[H])C([H])([H])C3([H])[H])c([H])c([H])c2C1([H])[H]

>  <smiles>  (92) 
[H]c1c([H])c([H])c2c(c1[H])C([H])([H])C([H])([H])C([H])([H])C2([H])N([H])C(=O)C1([H])N(C(=O)C([H])(N([H])C(=O)C([H])(N([H])C([H])([H])[H])C([H])([H])[H])C(C([H])([H])[H])(C([H])([H])[H])C([H])([H])[H])C([H])([H])c2c([H])c(OC([H])([H])C([H])([H])N3C(=O)C([H])([H])C([H])(N([H])C(=O)N4C([H])([H])C([H])([H])C([H])([H])C([H])(n5nc(-c6c([H])c([H])c(Oc7c([H])c([H])c(F)c([H])c7F)c([H])c6[H])c(C(=O)N([H])[H])c5N([H])[H])C4([H])[H])C([H])([H])C3([H])[H])c([H])c([H])c2C1([H])[H]

$$$$
93:0:0
     RDKit          3D

 94102  0  0  1  0  0  0  0  0999 V2000
  -28.4350  -24.3930   19.2990 C   0  0  0  0  0  3  0  0  0  0  0  0
  -28.5590  -23.0150   19.5840 C   0  0  0  0  0  3  0  0  0  0  0  0
  -28.4530  -25.3320   20.3550 C   0  0  0  0  0  0  0  0  0  0  0  0
  -28.7050  -22.5990   20.9220 C   0  0  0  0  0  0  0  0  0  0  0  0
  -28.5930  -24.8190   21.6660 C   0  0  0  0  0  0  0  0  0  0  0  0
  -28.6860  -25.7340   22.8710 C   0  0  0  0  0  1  0  0  0  0  0  0
  -28.7110  -23.4950   21.9380 N   0  0  0  0  0  0  0  0  0  0  0  0
  -28.4400  -26.6900   20.0940 O   0  0  0  0  0  0  0  0  0  0  0  0
  -24.6340  -31.8540   23.2220 C   0  0  0  0  0  0  0  0  0  0  0  0
  -27.2560  -27.4010   20.1340 C   0  0  0  0  0  0  0  0  0  0  0  0
  -23.4170  -30.4550   21.5830 C   0  0  0  0  0  3  0  0  0  0  0  0
  -24.8630  -28.9110   20.1550 C   0  0  0  0  0  0  0  0  0  0  0  0
  -25.9430  -30.8060   21.3760 C   0  0  0  0  0  2  0  0  0  0  0  0
  -26.0230  -29.4330   20.7390 C   0  0  0  0  0  0  0  0  0  0  0  0
  -27.2240  -28.6840   20.7260 C   0  0  0  0  0  3  0  0  0  0  0  0
  -26.0800  -26.8900   19.5460 C   0  0  0  0  0  3  0  0  0  0  0  0
  -24.8840  -27.6370   19.5580 C   0  0  0  0  0  3  0  0  0  0  0  0
  -23.6210  -29.7740   20.2030 C   0  0  0  0  0  2  0  0  0  0  0  0
  -24.6830  -31.0540   22.1190 N   0  0  0  0  0  0  0  0  0  0  0  0
  -23.5550  -32.1300   23.7650 O   0  0  0  0  0  0  0  0  0  0  0  0
  -22.7670  -29.4370   22.5460 C   0  0  0  0  0  0  0  0  0  0  0  0
  -21.4400  -29.2670   22.4280 N   0  0  0  0  0  0  0  0  0  0  0  0
  -23.4520  -28.8030   23.3530 O   0  0  0  0  0  0  0  0  0  0  0  0
  -20.9520  -29.8290   21.7460 H   0  0  0  0  0  0  0  0  0  0  0  0
  -18.0590  -28.1010   22.9460 C   0  0  0  0  0  0  0  0  0  0  0  0
  -20.6210  -28.3330   23.1990 C   0  0  0  0  0  3  0  0  0  0  0  0
  -20.7050  -26.9050   22.6130 C   0  0  0  0  0  2  0  0  0  0  0  0
  -19.5920  -26.5990   21.6060 C   0  0  0  0  0  2  0  0  0  0  0  0
  -18.2170  -26.7530   22.2630 C   0  0  0  0  0  2  0  0  0  0  0  0
  -19.1880  -28.8490   23.3710 C   0  0  0  0  0  0  0  0  0  0  0  0
  -18.9870  -30.1120   23.9700 C   0  0  0  0  0  3  0  0  0  0  0  0
  -17.6890  -30.6260   24.1480 C   0  0  0  0  0  3  0  0  0  0  0  0
  -16.5740  -29.8740   23.7410 C   0  0  0  0  0  3  0  0  0  0  0  0
  -16.7590  -28.6130   23.1460 C   0  0  0  0  0  3  0  0  0  0  0  0
  -25.9250  -32.4810   23.8380 C   0  0  0  0  0  3  0  0  0  0  0  0
  -25.6190  -33.8760   24.1800 N   0  0  0  0  0  0  0  0  0  0  0  0
  -25.9470  -34.9340   23.4260 C   0  0  0  0  0  0  0  0  0  0  0  0
  -26.6130  -34.8380   22.3910 O   0  0  0  0  0  0  0  0  0  0  0  0
  -25.0270  -34.0260   24.9840 H   0  0  0  0  0  0  0  0  0  0  0  0
  -24.2180  -36.7280   23.0880 C   0  0  0  0  0  1  0  0  0  0  0  0
  -25.4610  -36.3180   23.8940 C   0  0  0  0  0  3  0  0  0  0  0  0
  -27.5990  -37.1940   24.7260 C   0  0  0  0  0  1  0  0  0  0  0  0
  -26.4940  -37.3720   23.7880 N   0  0  0  0  0  0  0  0  0  0  0  0
  -26.0890  -38.2910   23.9440 H   0  0  0  0  0  0  0  0  0  0  0  0
  -26.4530  -31.6980   25.1030 C   0  0  1  0  0  0  0  0  0  0  0  0
  -25.3710  -31.4510   26.1780 C   0  0  0  0  0  1  0  0  0  0  0  0
  -27.0310  -30.3220   24.6920 C   0  0  0  0  0  1  0  0  0  0  0  0
  -27.6110  -32.4860   25.7610 C   0  0  0  0  0  1  0  0  0  0  0  0
  -28.8880  -21.1160   21.3070 C   0  0  0  0  0  2  0  0  0  0  0  0
  -30.2380  -20.5290   21.0210 N   0  0  1  0  0  4  0  0  0  0  0  0
  -30.2490  -20.3840   20.0230 H   0  0  0  0  0  0  0  0  0  0  0  0
  -31.6660  -21.7370   22.7580 C   0  0  0  0  0  1  0  0  0  0  0  0
  -31.3830  -21.4590   21.2660 C   0  0  0  0  0  2  0  0  0  0  0  0
  -30.4830  -19.1920   21.6580 C   0  0  0  0  0  2  0  0  0  0  0  0
  -29.9760  -17.9310   20.9020 C   0  0  0  0  0  2  0  0  0  0  0  0
  -30.5520  -16.6410   21.5580 C   0  0  0  0  0  2  0  0  0  0  0  0
  -30.6620  -14.4180   20.3640 C   0  0  0  0  0  0  0  0  0  0  0  0
  -30.3400  -12.2910   19.1450 C   0  0  0  0  0  2  0  0  0  0  0  0
  -29.3750  -12.5080   17.9620 C   0  0  0  0  0  2  0  0  0  0  0  0
  -27.9060  -12.3780   18.4150 C   0  0  0  0  0  2  0  0  0  0  0  0
  -27.5970  -13.2000   19.6940 C   0  0  0  0  0  3  0  0  0  0  0  0
  -28.6650  -12.9370   20.7790 C   0  0  0  0  0  2  0  0  0  0  0  0
  -29.9800  -13.2520   20.1970 N   0  0  0  0  0  0  0  0  0  0  0  0
  -31.7670  -14.6300   19.8560 O   0  0  0  0  0  0  0  0  0  0  0  0
  -30.0090  -15.3670   21.0610 N   0  0  0  0  0  0  0  0  0  0  0  0
  -29.0900  -15.1070   21.3920 H   0  0  0  0  0  0  0  0  0  0  0  0
  -25.2100  -13.8270   20.4260 C   0  0  0  0  0  0  0  0  0  0  0  0
  -24.1420  -13.0620   20.8140 C   0  0  0  0  0  0  0  0  0  0  0  0
  -24.5970  -11.7090   20.7860 C   0  0  0  0  0  0  0  0  0  0  0  0
  -26.2480  -12.9390   20.1900 N   0  0  0  0  0  0  0  0  0  0  0  0
  -25.8820  -11.6610   20.4620 N   0  0  0  0  0  0  0  0  0  0  0  0
  -23.8670  -10.4510   20.9930 C   0  0  0  0  0  0  0  0  0  0  0  0
  -24.3100   -9.4840   21.9230 C   0  0  0  0  0  3  0  0  0  0  0  0
  -23.5810   -8.2910   22.1150 C   0  0  0  0  0  3  0  0  0  0  0  0
  -22.3960   -8.0560   21.3800 C   0  0  0  0  0  0  0  0  0  0  0  0
  -21.9730   -9.0120   20.4390 C   0  0  0  0  0  3  0  0  0  0  0  0
  -22.7020  -10.1960   20.2440 C   0  0  0  0  0  3  0  0  0  0  0  0
  -21.6380   -6.9150   21.4820 O   0  0  0  0  0  0  0  0  0  0  0  0
  -21.6100   -6.1710   22.6340 C   0  0  0  0  0  0  0  0  0  0  0  0
  -21.2180   -6.7260   23.8720 C   0  0  0  0  0  3  0  0  0  0  0  0
  -21.1380   -5.9080   25.0170 C   0  0  0  0  0  3  0  0  0  0  0  0
  -21.4390   -4.5370   24.9250 C   0  0  0  0  0  0  0  0  0  0  0  0
  -21.8250   -3.9810   23.6930 C   0  0  0  0  0  3  0  0  0  0  0  0
  -21.9070   -4.7950   22.5510 C   0  0  0  0  0  0  0  0  0  0  0  0
  -22.2590   -4.2500   21.3610 F   0  0  0  0  0  0  0  0  0  0  0  0
  -21.3540   -3.7490   26.0230 F   0  0  0  0  0  0  0  0  0  0  0  0
  -22.7510  -13.5490   21.1000 C   0  0  0  0  0  0  0  0  0  0  0  0
  -22.0290  -12.8600   21.9780 N   0  0  0  0  0  0  0  0  0  0  0  0
  -22.3110  -14.5720   20.5780 O   0  0  0  0  0  0  0  0  0  0  0  0
  -22.3970  -12.0330   22.4220 H   0  0  0  0  0  0  0  0  0  0  0  0
  -21.0950  -13.1670   22.2090 H   0  0  0  0  0  0  0  0  0  0  0  0
  -25.3790  -15.1960   20.2380 N   0  0  0  0  0  0  0  0  0  0  0  0
  -24.6130  -15.8520   20.3430 H   0  0  0  0  0  0  0  0  0  0  0  0
  -26.2210  -15.6270   19.8770 H   0  0  0  0  0  0  0  0  0  0  0  0
  1  2  2  0
  1  3  1  0
  2  4  1  0
  3  5  2  0
  4 49  1  0
  4  7  2  0
  5  7  1  0
  5  6  1  0
  8 10  1  0
  8  3  1  0
  9 20  2  0
 10 15  1  0
 11 19  1  0
 11 21  1  0
 12 18  1  0
 12 14  1  0
 13 19  1  0
 14 13  1  0
 15 14  2  0
 16 17  1  0
 16 10  2  0
 17 12  2  0
 18 11  1  0
 19  9  1  0
 21 23  2  0
 22 21  1  0
 24 22  1  0
 25 34  2  0
 25 30  1  0
 26 22  1  0
 26 30  1  0
 27 26  1  0
 28 29  1  0
 28 27  1  0
 29 25  1  0
 30 31  2  0
 31 32  1  0
 33 32  2  0
 34 33  1  0
 35  9  1  0
 35 36  1  0
 35 45  1  0
 36 39  1  0
 37 41  1  0
 37 36  1  0
 38 37  2  0
 41 40  1  0
 43 41  1  0
 43 44  1  0
 43 42  1  0
 45 48  1  1
 45 46  1  0
 47 45  1  0
 50 53  1  0
 50 49  1  0
 50 54  1  0
 50 51  1  6
 53 52  1  0
 55 56  1  0
 55 54  1  0
 57 65  1  0
 58 63  1  0
 59 60  1  0
 59 58  1  0
 61 60  1  0
 61 70  1  0
 61 62  1  0
 63 57  1  0
 63 62  1  0
 64 57  2  0
 65 66  1  0
 65 56  1  0
 67 68  2  0
 68 87  1  0
 69 68  1  0
 69 72  1  0
 70 67  1  0
 70 71  1  0
 71 69  2  0
 72 73  1  0
 73 74  2  0
 75 78  1  0
 75 74  1  0
 76 75  2  0
 77 76  1  0
 77 72  2  0
 78 79  1  0
 79 80  1  0
 80 81  2  0
 82 81  1  0
 82 86  1  0
 83 82  2  0
 84 79  2  0
 84 83  1  0
 85 84  1  0
 87 88  1  0
 88 91  1  0
 88 90  1  0
 89 87  2  0
 92 93  1  0
 92 67  1  0
 94 92  1  0
M  ISO  4   3 101   8 101  57 100  65 100
M  END
>  <TORSDO>  (93) 
F 22

>  <SCORE>  (93) 
-13.183

>  <name>  (93) 
93

>  <ligand_id>  (93) 
93

>  <original_smiles>  (93) 
[H]c1c(C([H])([H])[N+]([H])(C([H])([H])C([H])([H])[H])C([H])([H])C([H])([H])C([H])([H])N([H])C(=O)N2C([H])([H])C([H])([H])C([H])([H])C([H])(n3nc(-c4c([H])c([H])c(Oc5c([H])c([H])c(F)c([H])c5F)c([H])c4[H])c(C(=O)N([H])[H])c3N([H])[H])C2([H])[H])nc(C([H])([H])[H])c(Oc2c([H])c([H])c3c(c2[H])C([H])([H])N(C(=O)C([H])(N([H])C(=O)C([H])(N([H])C([H])([H])[H])C([H])([H])[H])C(C([H])([H])[H])(C([H])([H])[H])C([H])([H])[H])C([H])(C(=O)N([H])C2([H])c4c([H])c([H])c([H])c([H])c4C([H])([H])C([H])([H])C2([H])[H])C3([H])[H])c1[H]

>  <smiles>  (93) 
[H]c1c(C([H])([H])[N+]([H])(C([H])([H])C([H])([H])[H])C([H])([H])C([H])([H])C([H])([H])N([H])C(=O)N2C([H])([H])C([H])([H])C([H])([H])C([H])(n3nc(-c4c([H])c([H])c(Oc5c([H])c([H])c(F)c([H])c5F)c([H])c4[H])c(C(=O)N([H])[H])c3N([H])[H])C2([H])[H])nc(C([H])([H])[H])c(Oc2c([H])c([H])c3c(c2[H])C([H])([H])N(C(=O)C([H])(N([H])C(=O)C([H])(N([H])C([H])([H])[H])C([H])([H])[H])C(C([H])([H])[H])(C([H])([H])[H])C([H])([H])[H])C([H])(C(=O)N([H])C2([H])c4c([H])c([H])c([H])c([H])c4C([H])([H])C([H])([H])C2([H])[H])C3([H])[H])c1[H]

$$$$
94:0:0
     RDKit          3D

 89 97  0  0  1  0  0  0  0  0999 V2000
  -30.4880  -20.1620   21.7710 C   0  0  0  0  0  2  0  0  0  0  0  0
  -30.1730  -18.5990   21.7140 C   0  0  0  0  0  2  0  0  0  0  0  0
  -29.0000  -18.9590   19.5750 C   0  0  0  0  0  2  0  0  0  0  0  0
  -29.3590  -21.2950   21.6840 C   0  0  0  0  0  2  0  0  0  0  0  0
  -29.2800  -20.5930   19.3190 C   0  0  0  0  0  2  0  0  0  0  0  0
  -30.0430  -17.9130   20.3070 C   0  0  0  0  0  3  0  0  0  0  0  0
  -28.8630  -21.7180   20.3210 N   0  0  2  0  0  4  0  0  0  0  0  0
  -27.8580  -21.6180   20.3790 H   0  0  0  0  0  0  0  0  0  0  0  0
  -30.5770  -15.1250   20.2140 C   0  0  0  0  0  0  0  0  0  0  0  0
  -30.4860  -12.7640   19.2650 C   0  0  0  0  0  2  0  0  0  0  0  0
  -29.5470  -12.7030   18.0390 C   0  0  0  0  0  2  0  0  0  0  0  0
  -28.0900  -12.4620   18.4820 C   0  0  0  0  0  2  0  0  0  0  0  0
  -27.6750  -13.3700   19.6690 C   0  0  0  0  0  3  0  0  0  0  0  0
  -28.7420  -13.4010   20.7850 C   0  0  0  0  0  2  0  0  0  0  0  0
  -29.9960  -13.8530   20.1640 N   0  0  0  0  0  0  0  0  0  0  0  0
  -31.7790  -15.1870   19.9360 O   0  0  0  0  0  0  0  0  0  0  0  0
  -29.7900  -16.3220   20.3670 N   0  0  0  0  0  0  0  0  0  0  0  0
  -28.8250  -16.0930   20.5520 H   0  0  0  0  0  0  0  0  0  0  0  0
  -25.3020  -13.9080   20.4510 C   0  0  0  0  0  0  0  0  0  0  0  0
  -24.2520  -13.1200   20.8390 C   0  0  0  0  0  0  0  0  0  0  0  0
  -24.7350  -11.7770   20.7980 C   0  0  0  0  0  0  0  0  0  0  0  0
  -26.3520  -13.0460   20.1900 N   0  0  0  0  0  0  0  0  0  0  0  0
  -26.0230  -11.7570   20.4670 N   0  0  0  0  0  0  0  0  0  0  0  0
  -24.0240  -10.5060   20.9930 C   0  0  0  0  0  0  0  0  0  0  0  0
  -24.4630   -9.5500   21.9350 C   0  0  0  0  0  3  0  0  0  0  0  0
  -23.7500   -8.3450   22.1180 C   0  0  0  0  0  3  0  0  0  0  0  0
  -22.5830   -8.0870   21.3590 C   0  0  0  0  0  0  0  0  0  0  0  0
  -22.1650   -9.0320   20.4070 C   0  0  0  0  0  3  0  0  0  0  0  0
  -22.8780  -10.2280   20.2220 C   0  0  0  0  0  3  0  0  0  0  0  0
  -21.8410   -6.9320   21.4530 O   0  0  0  0  0  0  0  0  0  0  0  0
  -21.7770   -6.2090   22.6170 C   0  0  0  0  0  0  0  0  0  0  0  0
  -21.2950   -6.7730   23.8180 C   0  0  0  0  0  3  0  0  0  0  0  0
  -21.1790   -5.9730   24.9730 C   0  0  0  0  0  3  0  0  0  0  0  0
  -21.5340   -4.6130   24.9270 C   0  0  0  0  0  0  0  0  0  0  0  0
  -22.0110   -4.0490   23.7310 C   0  0  0  0  0  3  0  0  0  0  0  0
  -22.1290   -4.8450   22.5780 C   0  0  0  0  0  0  0  0  0  0  0  0
  -22.5650   -4.2910   21.4210 F   0  0  0  0  0  0  0  0  0  0  0  0
  -21.4180   -3.8420   26.0350 F   0  0  0  0  0  0  0  0  0  0  0  0
  -22.8530  -13.5810   21.1250 C   0  0  0  0  0  0  0  0  0  0  0  0
  -22.1370  -12.8740   21.9910 N   0  0  0  0  0  0  0  0  0  0  0  0
  -22.4030  -14.6060   20.6150 O   0  0  0  0  0  0  0  0  0  0  0  0
  -22.5140  -12.0500   22.4360 H   0  0  0  0  0  0  0  0  0  0  0  0
  -21.1960  -13.1630   22.2130 H   0  0  0  0  0  0  0  0  0  0  0  0
  -25.4470  -15.2810   20.2720 N   0  0  0  0  0  0  0  0  0  0  0  0
  -24.6700  -15.9250   20.3710 H   0  0  0  0  0  0  0  0  0  0  0  0
  -26.2700  -15.7190   19.8840 H   0  0  0  0  0  0  0  0  0  0  0  0
  -29.0600  -23.2800   19.9300 C   0  0  0  0  0  3  0  0  0  0  0  0
  -28.0710  -24.6040   20.3990 C   0  0  0  0  0  3  0  0  0  0  0  0
  -28.2950  -26.1660   20.2090 O   0  0  0  0  0  0  0  0  0  0  0  0
  -24.6210  -31.8980   23.2290 C   0  0  0  0  0  0  0  0  0  0  0  0
  -27.2280  -27.1540   20.2000 C   0  0  0  0  0  0  0  0  0  0  0  0
  -23.4340  -30.4880   21.5970 C   0  0  0  0  0  3  0  0  0  0  0  0
  -24.8910  -28.9140   20.1750 C   0  0  0  0  0  0  0  0  0  0  0  0
  -25.9890  -30.7560   21.4350 C   0  0  0  0  0  2  0  0  0  0  0  0
  -26.0720  -29.3570   20.7890 C   0  0  0  0  0  0  0  0  0  0  0  0
  -27.2390  -28.4950   20.7780 C   0  0  0  0  0  3  0  0  0  0  0  0
  -26.0190  -26.8270   19.5440 C   0  0  0  0  0  3  0  0  0  0  0  0
  -24.8840  -27.6670   19.5340 C   0  0  0  0  0  3  0  0  0  0  0  0
  -23.6610  -29.8100   20.2200 C   0  0  0  0  0  2  0  0  0  0  0  0
  -24.7030  -31.0700   22.1440 N   0  0  0  0  0  0  0  0  0  0  0  0
  -23.5310  -32.1750   23.7540 O   0  0  0  0  0  0  0  0  0  0  0  0
  -22.7580  -29.4820   22.5640 C   0  0  0  0  0  0  0  0  0  0  0  0
  -21.4300  -29.2970   22.4340 N   0  0  0  0  0  0  0  0  0  0  0  0
  -23.4320  -28.8660   23.3940 O   0  0  0  0  0  0  0  0  0  0  0  0
  -20.9410  -29.8460   21.7420 H   0  0  0  0  0  0  0  0  0  0  0  0
  -18.0590  -28.0650   22.9430 C   0  0  0  0  0  0  0  0  0  0  0  0
  -20.6170  -28.3550   23.2090 C   0  0  0  0  0  3  0  0  0  0  0  0
  -20.7320  -26.9220   22.6390 C   0  0  0  0  0  2  0  0  0  0  0  0
  -19.6340  -26.5840   21.6270 C   0  0  0  0  0  2  0  0  0  0  0  0
  -18.2510  -26.7160   22.2690 C   0  0  0  0  0  2  0  0  0  0  0  0
  -19.1710  -28.8410   23.3690 C   0  0  0  0  0  0  0  0  0  0  0  0
  -18.9390  -30.1000   23.9640 C   0  0  0  0  0  3  0  0  0  0  0  0
  -17.6300  -30.5880   24.1330 C   0  0  0  0  0  3  0  0  0  0  0  0
  -16.5330  -29.8120   23.7230 C   0  0  0  0  0  3  0  0  0  0  0  0
  -16.7480  -28.5520   23.1350 C   0  0  0  0  0  3  0  0  0  0  0  0
  -25.8910  -32.5500   23.8550 C   0  0  0  0  0  3  0  0  0  0  0  0
  -25.5680  -33.9510   24.1720 N   0  0  0  0  0  0  0  0  0  0  0  0
  -25.9020  -35.0050   23.4150 C   0  0  0  0  0  0  0  0  0  0  0  0
  -26.5810  -34.8990   22.3910 O   0  0  0  0  0  0  0  0  0  0  0  0
  -24.9650  -34.1030   24.9670 H   0  0  0  0  0  0  0  0  0  0  0  0
  -24.1830  -36.8040   23.0380 C   0  0  0  0  0  1  0  0  0  0  0  0
  -25.4110  -36.3960   23.8670 C   0  0  0  0  0  3  0  0  0  0  0  0
  -27.5310  -37.2840   24.7310 C   0  0  0  0  0  1  0  0  0  0  0  0
  -26.4450  -37.4490   23.7670 N   0  0  0  0  0  0  0  0  0  0  0  0
  -26.0370  -38.3690   23.9080 H   0  0  0  0  0  0  0  0  0  0  0  0
  -26.3980  -31.8000   25.1480 C   0  0  1  0  0  0  0  0  0  0  0  0
  -25.2950  -31.5650   26.2080 C   0  0  0  0  0  1  0  0  0  0  0  0
  -26.9970  -30.4220   24.7810 C   0  0  0  0  0  1  0  0  0  0  0  0
  -27.5360  -32.6100   25.8120 C   0  0  0  0  0  1  0  0  0  0  0  0
  2  1  1  0
  3  6  1  0
  4  1  1  0
  5  3  1  0
  5  7  1  0
  6 17  1  0
  6  2  1  0
  7  8  1  1
  7  4  1  0
  9 17  1  0
 10 15  1  0
 11 12  1  0
 11 10  1  0
 13 12  1  0
 13 22  1  0
 13 14  1  0
 15  9  1  0
 15 14  1  0
 16  9  2  0
 17 18  1  0
 19 20  2  0
 20 39  1  0
 21 20  1  0
 21 24  1  0
 22 19  1  0
 22 23  1  0
 23 21  2  0
 24 25  1  0
 25 26  2  0
 27 30  1  0
 27 26  1  0
 28 27  2  0
 29 28  1  0
 29 24  2  0
 30 31  1  0
 31 32  1  0
 32 33  2  0
 34 33  1  0
 34 38  1  0
 35 34  2  0
 36 31  2  0
 36 35  1  0
 37 36  1  0
 39 40  1  0
 40 43  1  0
 40 42  1  0
 41 39  2  0
 44 45  1  0
 44 19  1  0
 46 44  1  0
 47  7  1  0
 47 48  2  0
 49 48  1  0
 50 61  2  0
 51 49  1  0
 51 56  1  0
 52 60  1  0
 52 62  1  0
 53 59  1  0
 53 55  1  0
 54 60  1  0
 55 54  1  0
 56 55  2  0
 57 51  2  0
 58 57  1  0
 58 53  2  0
 59 52  1  0
 60 50  1  0
 62 64  2  0
 63 62  1  0
 65 63  1  0
 66 75  2  0
 66 71  1  0
 67 63  1  0
 67 71  1  0
 68 67  1  0
 69 70  1  0
 69 68  1  0
 70 66  1  0
 71 72  2  0
 72 73  1  0
 74 73  2  0
 75 74  1  0
 76 50  1  0
 76 77  1  0
 76 86  1  0
 77 80  1  0
 78 82  1  0
 78 77  1  0
 79 78  2  0
 82 81  1  0
 84 82  1  0
 84 85  1  0
 84 83  1  0
 86 89  1  1
 86 87  1  0
 88 86  1  0
M  ISO  4   9 100  17 100  48 101  49 101
M  END
>  <TORSDO>  (94) 
F 18

>  <SCORE>  (94) 
-15.168

>  <name>  (94) 
94

>  <ligand_id>  (94) 
94

>  <original_smiles>  (94) 
[H]c1c([H])c([H])c2c(c1[H])C([H])([H])C([H])([H])C([H])([H])C2([H])N([H])C(=O)C1([H])N(C(=O)C([H])(N([H])C(=O)C([H])(N([H])C([H])([H])[H])C([H])([H])[H])C(C([H])([H])[H])(C([H])([H])[H])C([H])([H])[H])C([H])([H])c2c([H])c(OC([H])([H])C([H])([H])[N+]3([H])C([H])([H])C([H])([H])C([H])([H])C([H])(N([H])C(=O)N4C([H])([H])C([H])([H])C([H])([H])C([H])(n5nc(-c6c([H])c([H])c(Oc7c([H])c([H])c(F)c([H])c7F)c([H])c6[H])c(C(=O)N([H])[H])c5N([H])[H])C4([H])[H])C([H])([H])C3([H])[H])c([H])c([H])c2C1([H])[H]

>  <smiles>  (94) 
[H]c1c([H])c([H])c2c(c1[H])C([H])([H])C([H])([H])C([H])([H])C2([H])N([H])C(=O)C1([H])N(C(=O)C([H])(N([H])C(=O)C([H])(N([H])C([H])([H])[H])C([H])([H])[H])C(C([H])([H])[H])(C([H])([H])[H])C([H])([H])[H])C([H])([H])c2c([H])c(OC([H])([H])C([H])([H])[N+]3([H])C([H])([H])C([H])([H])C([H])([H])C([H])(N([H])C(=O)N4C([H])([H])C([H])([H])C([H])([H])C([H])(n5nc(-c6c([H])c([H])c(Oc7c([H])c([H])c(F)c([H])c7F)c([H])c6[H])c(C(=O)N([H])[H])c5N([H])[H])C4([H])[H])C([H])([H])C3([H])[H])c([H])c([H])c2C1([H])[H]

$$$$
95:0:0
     RDKit          3D

 89 97  0  0  1  0  0  0  0  0999 V2000
  -27.7570  -23.0850   18.0630 C   0  0  0  0  0  3  0  0  0  0  0  0
  -28.2510  -21.9740   18.7850 C   0  0  0  0  0  3  0  0  0  0  0  0
  -27.7950  -24.4110   18.5490 C   0  0  0  0  0  3  0  0  0  0  0  0
  -28.8420  -23.5350   20.5380 C   0  0  0  0  0  3  0  0  0  0  0  0
  -28.8570  -22.0990   20.0520 C   0  0  0  0  0  0  0  0  0  0  0  0
  -28.2860  -24.7490   19.8320 C   0  0  0  0  0  0  0  0  0  0  0  0
  -29.8500  -21.0700   22.0440 C   0  0  0  0  0  1  0  0  0  0  0  0
  -29.4110  -20.8330   20.6710 N   0  0  0  0  0  0  0  0  0  0  0  0
  -29.1550  -19.2950   20.3310 C   0  0  0  0  0  3  0  0  0  0  0  0
  -30.2020  -17.9700   20.6620 C   0  0  0  0  0  3  0  0  0  0  0  0
  -30.6470  -15.2020   20.4000 C   0  0  0  0  0  0  0  0  0  0  0  0
  -30.5760  -12.8290   19.4520 C   0  0  0  0  0  2  0  0  0  0  0  0
  -29.6680  -12.7410   18.2030 C   0  0  0  0  0  2  0  0  0  0  0  0
  -28.2030  -12.5030   18.6150 C   0  0  0  0  0  2  0  0  0  0  0  0
  -27.7590  -13.4360   19.7700 C   0  0  0  0  0  3  0  0  0  0  0  0
  -28.7920  -13.4910   20.9140 C   0  0  0  0  0  2  0  0  0  0  0  0
  -30.0610  -13.9310   20.3210 N   0  0  0  0  0  0  0  0  0  0  0  0
  -31.8580  -15.2580   20.1610 O   0  0  0  0  0  0  0  0  0  0  0  0
  -29.8660  -16.4010   20.5490 N   0  0  0  0  0  0  0  0  0  0  0  0
  -28.8830  -16.1980   20.6500 H   0  0  0  0  0  0  0  0  0  0  0  0
  -25.3700  -13.9920   20.4790 C   0  0  0  0  0  0  0  0  0  0  0  0
  -24.3060  -13.2100   20.8330 C   0  0  0  0  0  0  0  0  0  0  0  0
  -24.7810  -11.8640   20.8140 C   0  0  0  0  0  0  0  0  0  0  0  0
  -26.4210  -13.1220   20.2510 N   0  0  0  0  0  0  0  0  0  0  0  0
  -26.0760  -11.8350   20.5210 N   0  0  0  0  0  0  0  0  0  0  0  0
  -24.0590  -10.5970   20.9950 C   0  0  0  0  0  0  0  0  0  0  0  0
  -24.4720   -9.6420   21.9510 C   0  0  0  0  0  3  0  0  0  0  0  0
  -23.7480   -8.4420   22.1220 C   0  0  0  0  0  3  0  0  0  0  0  0
  -22.5980   -8.1890   21.3360 C   0  0  0  0  0  0  0  0  0  0  0  0
  -22.2060   -9.1320   20.3720 C   0  0  0  0  0  3  0  0  0  0  0  0
  -22.9290  -10.3250   20.1990 C   0  0  0  0  0  3  0  0  0  0  0  0
  -21.8480   -7.0410   21.4170 O   0  0  0  0  0  0  0  0  0  0  0  0
  -21.7550   -6.3220   22.5800 C   0  0  0  0  0  0  0  0  0  0  0  0
  -21.2430   -6.8880   23.7680 C   0  0  0  0  0  3  0  0  0  0  0  0
  -21.1000   -6.0920   24.9220 C   0  0  0  0  0  3  0  0  0  0  0  0
  -21.4570   -4.7310   24.8890 C   0  0  0  0  0  0  0  0  0  0  0  0
  -21.9610   -4.1640   23.7050 C   0  0  0  0  0  3  0  0  0  0  0  0
  -22.1060   -4.9570   22.5540 C   0  0  0  0  0  0  0  0  0  0  0  0
  -22.5740   -4.4000   21.4100 F   0  0  0  0  0  0  0  0  0  0  0  0
  -21.3120   -3.9650   25.9950 F   0  0  0  0  0  0  0  0  0  0  0  0
  -22.9020  -13.6810   21.0760 C   0  0  0  0  0  0  0  0  0  0  0  0
  -22.1590  -12.9860   21.9290 N   0  0  0  0  0  0  0  0  0  0  0  0
  -22.4720  -14.7030   20.5420 O   0  0  0  0  0  0  0  0  0  0  0  0
  -22.5180  -12.1570   22.3810 H   0  0  0  0  0  0  0  0  0  0  0  0
  -21.2170  -13.2880   22.1340 H   0  0  0  0  0  0  0  0  0  0  0  0
  -25.5280  -15.3630   20.3030 N   0  0  0  0  0  0  0  0  0  0  0  0
  -24.7480  -16.0050   20.3920 H   0  0  0  0  0  0  0  0  0  0  0  0
  -26.3650  -15.8060   19.9490 H   0  0  0  0  0  0  0  0  0  0  0  0
  -28.3110  -26.2030   20.1880 O   0  0  0  0  0  0  0  0  0  0  0  0
  -24.6520  -31.8990   23.2210 C   0  0  0  0  0  0  0  0  0  0  0  0
  -27.2410  -27.1980   20.1180 C   0  0  0  0  0  0  0  0  0  0  0  0
  -23.4480  -30.5050   21.5870 C   0  0  0  0  0  3  0  0  0  0  0  0
  -24.8950  -28.9600   20.1240 C   0  0  0  0  0  0  0  0  0  0  0  0
  -26.0010  -30.7940   21.3870 C   0  0  0  0  0  2  0  0  0  0  0  0
  -26.0810  -29.4030   20.7220 C   0  0  0  0  0  0  0  0  0  0  0  0
  -27.2510  -28.5420   20.6950 C   0  0  0  0  0  3  0  0  0  0  0  0
  -26.0110  -26.8660   19.5030 C   0  0  0  0  0  3  0  0  0  0  0  0
  -24.8770  -27.7070   19.4970 C   0  0  0  0  0  3  0  0  0  0  0  0
  -23.6600  -29.8490   20.1970 C   0  0  0  0  0  2  0  0  0  0  0  0
  -24.7220  -31.0880   22.1200 N   0  0  0  0  0  0  0  0  0  0  0  0
  -23.5690  -32.1600   23.7700 O   0  0  0  0  0  0  0  0  0  0  0  0
  -22.7970  -29.4790   22.5510 C   0  0  0  0  0  0  0  0  0  0  0  0
  -21.4720  -29.2760   22.4340 N   0  0  0  0  0  0  0  0  0  0  0  0
  -23.4880  -28.8690   23.3710 O   0  0  0  0  0  0  0  0  0  0  0  0
  -20.9690  -29.8230   21.7480 H   0  0  0  0  0  0  0  0  0  0  0  0
  -18.1290  -27.9660   22.9310 C   0  0  0  0  0  0  0  0  0  0  0  0
  -20.6770  -28.3170   23.2060 C   0  0  0  0  0  3  0  0  0  0  0  0
  -20.8280  -26.8840   22.6410 C   0  0  0  0  0  2  0  0  0  0  0  0
  -19.7410  -26.5200   21.6260 C   0  0  0  0  0  2  0  0  0  0  0  0
  -18.3520  -26.6210   22.2620 C   0  0  0  0  0  2  0  0  0  0  0  0
  -19.2190  -28.7690   23.3600 C   0  0  0  0  0  0  0  0  0  0  0  0
  -18.9550  -30.0240   23.9490 C   0  0  0  0  0  3  0  0  0  0  0  0
  -17.6330  -30.4810   24.1090 C   0  0  0  0  0  3  0  0  0  0  0  0
  -16.5570  -29.6770   23.6930 C   0  0  0  0  0  3  0  0  0  0  0  0
  -16.8050  -28.4210   23.1120 C   0  0  0  0  0  3  0  0  0  0  0  0
  -25.9280  -32.5520   23.8380 C   0  0  0  0  0  3  0  0  0  0  0  0
  -26.4550  -31.7920   25.1170 C   0  0  1  0  0  0  0  0  0  0  0  0
  -25.3690  -31.5530   26.1940 C   0  0  0  0  0  1  0  0  0  0  0  0
  -27.0470  -30.4180   24.7350 C   0  0  0  0  0  1  0  0  0  0  0  0
  -27.6030  -32.5990   25.7710 C   0  0  0  0  0  1  0  0  0  0  0  0
  -25.6020  -33.9460   24.1740 N   0  0  0  0  0  0  0  0  0  0  0  0
  -25.9200  -35.0110   23.4240 C   0  0  0  0  0  0  0  0  0  0  0  0
  -26.5830  -34.9200   22.3890 O   0  0  0  0  0  0  0  0  0  0  0  0
  -25.0120  -34.0870   24.9800 H   0  0  0  0  0  0  0  0  0  0  0  0
  -24.1830  -36.8000   23.0850 C   0  0  0  0  0  1  0  0  0  0  0  0
  -25.4250  -36.3930   23.8930 C   0  0  0  0  0  3  0  0  0  0  0  0
  -27.5510  -37.2850   24.7410 C   0  0  0  0  0  1  0  0  0  0  0  0
  -26.4530  -37.4540   23.7930 N   0  0  0  0  0  0  0  0  0  0  0  0
  -26.0400  -38.3700   23.9450 H   0  0  0  0  0  0  0  0  0  0  0  0
  1  3  2  0
  1  2  1  0
  2  5  2  0
  3  6  1  0
  5  4  1  0
  5  8  1  0
  6 49  1  0
  6  4  2  0
  8  7  1  0
  9 10  2  0
  9  8  1  0
 11 19  1  0
 12 17  1  0
 13 14  1  0
 13 12  1  0
 15 14  1  0
 15 24  1  0
 15 16  1  0
 17 11  1  0
 17 16  1  0
 18 11  2  0
 19 20  1  0
 19 10  1  0
 21 22  2  0
 22 41  1  0
 23 22  1  0
 23 26  1  0
 24 21  1  0
 24 25  1  0
 25 23  2  0
 26 27  1  0
 27 28  2  0
 29 32  1  0
 29 28  1  0
 30 29  2  0
 31 30  1  0
 31 26  2  0
 32 33  1  0
 33 34  1  0
 34 35  2  0
 36 35  1  0
 36 40  1  0
 37 36  2  0
 38 33  2  0
 38 37  1  0
 39 38  1  0
 41 42  1  0
 42 45  1  0
 42 44  1  0
 43 41  2  0
 46 47  1  0
 46 21  1  0
 48 46  1  0
 50 61  2  0
 51 49  1  0
 51 56  1  0
 52 60  1  0
 52 62  1  0
 53 59  1  0
 53 55  1  0
 54 60  1  0
 55 54  1  0
 56 55  2  0
 57 51  2  0
 58 57  1  0
 58 53  2  0
 59 52  1  0
 60 50  1  0
 62 64  2  0
 63 62  1  0
 65 63  1  0
 66 75  2  0
 66 71  1  0
 67 63  1  0
 67 71  1  0
 68 67  1  0
 69 70  1  0
 69 68  1  0
 70 66  1  0
 71 72  2  0
 72 73  1  0
 74 73  2  0
 75 74  1  0
 76 50  1  0
 76 81  1  0
 76 77  1  0
 77 80  1  1
 77 78  1  0
 79 77  1  0
 81 84  1  0
 82 86  1  0
 82 81  1  0
 83 82  2  0
 86 85  1  0
 88 86  1  0
 88 89  1  0
 88 87  1  0
M  ISO  4   6 101  11 100  19 100  49 101
M  END
>  <TORSDO>  (95) 
F 19

>  <SCORE>  (95) 
-14.962

>  <name>  (95) 
95

>  <ligand_id>  (95) 
95

>  <original_smiles>  (95) 
[H]c1c([H])c(Oc2c([H])c([H])c3c(c2[H])C([H])([H])N(C(=O)C([H])(N([H])C(=O)C([H])(N([H])C([H])([H])[H])C([H])([H])[H])C(C([H])([H])[H])(C([H])([H])[H])C([H])([H])[H])C([H])(C(=O)N([H])C2([H])c4c([H])c([H])c([H])c([H])c4C([H])([H])C([H])([H])C2([H])[H])C3([H])[H])c([H])c(N(C([H])([H])[H])C([H])([H])C([H])([H])N([H])C(=O)N2C([H])([H])C([H])([H])C([H])([H])C([H])(n3nc(-c4c([H])c([H])c(Oc5c([H])c([H])c(F)c([H])c5F)c([H])c4[H])c(C(=O)N([H])[H])c3N([H])[H])C2([H])[H])c1[H]

>  <smiles>  (95) 
[H]c1c([H])c(Oc2c([H])c([H])c3c(c2[H])C([H])([H])N(C(=O)C([H])(N([H])C(=O)C([H])(N([H])C([H])([H])[H])C([H])([H])[H])C(C([H])([H])[H])(C([H])([H])[H])C([H])([H])[H])C([H])(C(=O)N([H])C2([H])c4c([H])c([H])c([H])c([H])c4C([H])([H])C([H])([H])C2([H])[H])C3([H])[H])c([H])c(N(C([H])([H])[H])C([H])([H])C([H])([H])N([H])C(=O)N2C([H])([H])C([H])([H])C([H])([H])C([H])(n3nc(-c4c([H])c([H])c(Oc5c([H])c([H])c(F)c([H])c5F)c([H])c4[H])c(C(=O)N([H])[H])c3N([H])[H])C2([H])[H])c1[H]

$$$$
96:0:0
     RDKit          3D

 88 96  0  0  1  0  0  0  0  0999 V2000
  -30.5810  -19.2010   20.7390 C   0  0  0  0  0  2  0  0  0  0  0  0
  -28.5630  -18.9160   19.4600 C   0  0  0  0  0  2  0  0  0  0  0  0
  -30.0840  -20.7350   21.1300 C   0  0  0  0  0  2  0  0  0  0  0  0
  -28.1050  -20.4830   19.7770 C   0  0  0  0  0  2  0  0  0  0  0  0
  -29.4620  -18.0610   20.5000 C   0  0  0  0  0  3  0  0  0  0  0  0
  -29.1430  -21.5440   20.2000 N   0  0  1  0  0  4  0  0  0  0  0  0
  -29.7000  -21.7290   19.3740 H   0  0  0  0  0  0  0  0  0  0  0  0
  -30.4360  -15.2140   20.2770 C   0  0  0  0  0  0  0  0  0  0  0  0
  -30.4010  -12.7930   19.3720 C   0  0  0  0  0  2  0  0  0  0  0  0
  -29.4660  -12.6360   18.1460 C   0  0  0  0  0  2  0  0  0  0  0  0
  -28.0210  -12.3660   18.6090 C   0  0  0  0  0  2  0  0  0  0  0  0
  -27.5830  -13.3360   19.7360 C   0  0  0  0  0  3  0  0  0  0  0  0
  -28.6410  -13.4250   20.8590 C   0  0  0  0  0  2  0  0  0  0  0  0
  -29.8800  -13.9150   20.2280 N   0  0  0  0  0  0  0  0  0  0  0  0
  -31.6460  -15.2680   20.0270 O   0  0  0  0  0  0  0  0  0  0  0  0
  -29.6000  -16.4080   20.4150 N   0  0  0  0  0  0  0  0  0  0  0  0
  -28.6760  -16.0330   20.5670 H   0  0  0  0  0  0  0  0  0  0  0  0
  -25.1970  -13.9060   20.4680 C   0  0  0  0  0  0  0  0  0  0  0  0
  -24.1370  -13.1320   20.8400 C   0  0  0  0  0  0  0  0  0  0  0  0
  -24.6030  -11.7780   20.8170 C   0  0  0  0  0  0  0  0  0  0  0  0
  -26.2470  -13.0310   20.2370 N   0  0  0  0  0  0  0  0  0  0  0  0
  -25.8990  -11.7460   20.5160 N   0  0  0  0  0  0  0  0  0  0  0  0
  -23.8790  -10.5160   21.0110 C   0  0  0  0  0  0  0  0  0  0  0  0
  -24.3130   -9.5540   21.9510 C   0  0  0  0  0  3  0  0  0  0  0  0
  -23.5890   -8.3560   22.1340 C   0  0  0  0  0  3  0  0  0  0  0  0
  -22.4200   -8.1100   21.3790 C   0  0  0  0  0  0  0  0  0  0  0  0
  -22.0020   -9.0600   20.4300 C   0  0  0  0  0  3  0  0  0  0  0  0
  -22.7250  -10.2500   20.2450 C   0  0  0  0  0  3  0  0  0  0  0  0
  -21.6710   -6.9600   21.4690 O   0  0  0  0  0  0  0  0  0  0  0  0
  -21.6260   -6.2210   22.6240 C   0  0  0  0  0  0  0  0  0  0  0  0
  -21.1950   -6.7780   23.8480 C   0  0  0  0  0  3  0  0  0  0  0  0
  -21.0980   -5.9660   24.9950 C   0  0  0  0  0  3  0  0  0  0  0  0
  -21.4210   -4.5970   24.9200 C   0  0  0  0  0  0  0  0  0  0  0  0
  -21.8440   -4.0390   23.6990 C   0  0  0  0  0  3  0  0  0  0  0  0
  -21.9420   -4.8490   22.5550 C   0  0  0  0  0  0  0  0  0  0  0  0
  -22.3310   -4.3030   21.3780 F   0  0  0  0  0  0  0  0  0  0  0  0
  -21.3200   -3.8150   26.0190 F   0  0  0  0  0  0  0  0  0  0  0  0
  -22.7350  -13.6010   21.1050 C   0  0  0  0  0  0  0  0  0  0  0  0
  -22.0090  -12.9080   21.9680 N   0  0  0  0  0  0  0  0  0  0  0  0
  -22.2960  -14.6240   20.5750 O   0  0  0  0  0  0  0  0  0  0  0  0
  -22.3780  -12.0790   22.4140 H   0  0  0  0  0  0  0  0  0  0  0  0
  -21.0720  -13.2090   22.1940 H   0  0  0  0  0  0  0  0  0  0  0  0
  -25.3590  -15.2770   20.2760 N   0  0  0  0  0  0  0  0  0  0  0  0
  -24.5800  -15.9260   20.3700 H   0  0  0  0  0  0  0  0  0  0  0  0
  -26.1730  -15.6910   19.8440 H   0  0  0  0  0  0  0  0  0  0  0  0
  -28.6640  -23.0240   20.7570 C   0  0  0  0  0  2  0  0  0  0  0  0
  -28.2830  -24.5010   19.9140 C   0  0  0  0  0  2  0  0  0  0  0  0
  -28.2590  -26.0460   20.3910 O   0  0  0  0  0  0  0  0  0  0  0  0
  -24.6190  -31.8780   23.2640 C   0  0  0  0  0  0  0  0  0  0  0  0
  -27.2130  -27.0730   20.2620 C   0  0  0  0  0  0  0  0  0  0  0  0
  -23.4290  -30.4760   21.6160 C   0  0  0  0  0  3  0  0  0  0  0  0
  -24.8930  -28.8870   20.2020 C   0  0  0  0  0  0  0  0  0  0  0  0
  -26.0050  -30.7060   21.4950 C   0  0  0  0  0  2  0  0  0  0  0  0
  -26.0740  -29.3200   20.8150 C   0  0  0  0  0  0  0  0  0  0  0  0
  -27.2340  -28.4380   20.8090 C   0  0  0  0  0  3  0  0  0  0  0  0
  -25.9950  -26.7590   19.6240 C   0  0  0  0  0  3  0  0  0  0  0  0
  -24.8750  -27.6260   19.5830 C   0  0  0  0  0  3  0  0  0  0  0  0
  -23.6620  -29.7830   20.2450 C   0  0  0  0  0  2  0  0  0  0  0  0
  -24.7020  -31.0520   22.1710 N   0  0  0  0  0  0  0  0  0  0  0  0
  -23.5300  -32.1690   23.7820 O   0  0  0  0  0  0  0  0  0  0  0  0
  -22.7430  -29.4810   22.5840 C   0  0  0  0  0  0  0  0  0  0  0  0
  -21.4160  -29.3080   22.4490 N   0  0  0  0  0  0  0  0  0  0  0  0
  -23.4070  -28.8660   23.4220 O   0  0  0  0  0  0  0  0  0  0  0  0
  -20.9500  -29.8460   21.7320 H   0  0  0  0  0  0  0  0  0  0  0  0
  -18.0170  -28.1240   22.9470 C   0  0  0  0  0  0  0  0  0  0  0  0
  -20.5780  -28.3780   23.2130 C   0  0  0  0  0  3  0  0  0  0  0  0
  -20.6650  -26.9440   22.6390 C   0  0  0  0  0  2  0  0  0  0  0  0
  -19.5670  -26.6350   21.6170 C   0  0  0  0  0  2  0  0  0  0  0  0
  -18.1860  -26.7770   22.2640 C   0  0  0  0  0  2  0  0  0  0  0  0
  -19.1390  -28.8880   23.3720 C   0  0  0  0  0  0  0  0  0  0  0  0
  -18.9210  -30.1480   23.9660 C   0  0  0  0  0  3  0  0  0  0  0  0
  -17.6150  -30.6500   24.1330 C   0  0  0  0  0  3  0  0  0  0  0  0
  -16.5100  -29.8830   23.7240 C   0  0  0  0  0  3  0  0  0  0  0  0
  -16.7120  -28.6190   23.1420 C   0  0  0  0  0  3  0  0  0  0  0  0
  -25.8920  -32.5100   23.9040 C   0  0  0  0  0  3  0  0  0  0  0  0
  -25.5790  -33.9160   24.2150 N   0  0  0  0  0  0  0  0  0  0  0  0
  -25.9130  -34.9660   23.4500 C   0  0  0  0  0  0  0  0  0  0  0  0
  -26.5890  -34.8540   22.4240 O   0  0  0  0  0  0  0  0  0  0  0  0
  -24.9700  -34.0740   25.0030 H   0  0  0  0  0  0  0  0  0  0  0  0
  -24.1830  -36.7540   23.0740 C   0  0  0  0  0  1  0  0  0  0  0  0
  -25.4220  -36.3590   23.8930 C   0  0  0  0  0  3  0  0  0  0  0  0
  -27.5550  -37.2570   24.7170 C   0  0  0  0  0  1  0  0  0  0  0  0
  -26.4530  -37.4150   23.7710 N   0  0  0  0  0  0  0  0  0  0  0  0
  -26.0420  -38.3350   23.9120 H   0  0  0  0  0  0  0  0  0  0  0  0
  -26.3880  -31.7550   25.2050 C   0  0  1  0  0  0  0  0  0  0  0  0
  -25.2980  -31.5220   26.2760 C   0  0  0  0  0  1  0  0  0  0  0  0
  -26.9740  -30.3620   24.8700 C   0  0  0  0  0  1  0  0  0  0  0  0
  -27.5340  -32.5600   25.8620 C   0  0  0  0  0  1  0  0  0  0  0  0
  1  3  1  0
  2  4  1  0
  2  5  1  0
  4  6  1  0
  5 16  1  0
  5  1  1  0
  6 46  1  0
  6  3  1  0
  6  7  1  6
  8 16  1  0
  9 14  1  0
 10 11  1  0
 10  9  1  0
 12 11  1  0
 12 21  1  0
 12 13  1  0
 14  8  1  0
 14 13  1  0
 15  8  2  0
 16 17  1  0
 18 19  2  0
 19 38  1  0
 20 19  1  0
 20 23  1  0
 21 18  1  0
 21 22  1  0
 22 20  2  0
 23 24  1  0
 24 25  2  0
 26 29  1  0
 26 25  1  0
 27 26  2  0
 28 27  1  0
 28 23  2  0
 29 30  1  0
 30 31  1  0
 31 32  2  0
 33 32  1  0
 33 37  1  0
 34 33  2  0
 35 30  2  0
 35 34  1  0
 36 35  1  0
 38 39  1  0
 39 42  1  0
 39 41  1  0
 40 38  2  0
 43 44  1  0
 43 18  1  0
 45 43  1  0
 47 48  1  0
 47 46  1  0
 49 60  2  0
 50 48  1  0
 50 55  1  0
 51 59  1  0
 51 61  1  0
 52 58  1  0
 52 54  1  0
 53 59  1  0
 54 53  1  0
 55 54  2  0
 56 50  2  0
 57 56  1  0
 57 52  2  0
 58 51  1  0
 59 49  1  0
 61 63  2  0
 62 61  1  0
 64 62  1  0
 65 74  2  0
 65 70  1  0
 66 62  1  0
 66 70  1  0
 67 66  1  0
 68 69  1  0
 68 67  1  0
 69 65  1  0
 70 71  2  0
 71 72  1  0
 73 72  2  0
 74 73  1  0
 75 49  1  0
 75 76  1  0
 75 85  1  0
 76 79  1  0
 77 81  1  0
 77 76  1  0
 78 77  2  0
 81 80  1  0
 83 81  1  0
 83 84  1  0
 83 82  1  0
 85 88  1  1
 85 86  1  0
 87 85  1  0
M  ISO  4   8 100  16 100  47 101  48 101
M  END
>  <TORSDO>  (96) 
F 18

>  <SCORE>  (96) 
-15.423

>  <name>  (96) 
96

>  <ligand_id>  (96) 
96

>  <original_smiles>  (96) 
[H]c1c([H])c([H])c2c(c1[H])C([H])([H])C([H])([H])C([H])([H])C2([H])N([H])C(=O)C1([H])N(C(=O)C([H])(N([H])C(=O)C([H])(N([H])C([H])([H])[H])C([H])([H])[H])C(C([H])([H])[H])(C([H])([H])[H])C([H])([H])[H])C([H])([H])c2c([H])c(OC([H])([H])C([H])([H])[N+]3([H])C([H])([H])C([H])([H])C([H])(N([H])C(=O)N4C([H])([H])C([H])([H])C([H])([H])C([H])(n5nc(-c6c([H])c([H])c(Oc7c([H])c([H])c(F)c([H])c7F)c([H])c6[H])c(C(=O)N([H])[H])c5N([H])[H])C4([H])[H])C([H])([H])C3([H])[H])c([H])c([H])c2C1([H])[H]

>  <smiles>  (96) 
[H]c1c([H])c([H])c2c(c1[H])C([H])([H])C([H])([H])C([H])([H])C2([H])N([H])C(=O)C1([H])N(C(=O)C([H])(N([H])C(=O)C([H])(N([H])C([H])([H])[H])C([H])([H])[H])C(C([H])([H])[H])(C([H])([H])[H])C([H])([H])[H])C([H])([H])c2c([H])c(OC([H])([H])C([H])([H])[N+]3([H])C([H])([H])C([H])([H])C([H])(N([H])C(=O)N4C([H])([H])C([H])([H])C([H])([H])C([H])(n5nc(-c6c([H])c([H])c(Oc7c([H])c([H])c(F)c([H])c7F)c([H])c6[H])c(C(=O)N([H])[H])c5N([H])[H])C4([H])[H])C([H])([H])C3([H])[H])c([H])c([H])c2C1([H])[H]

$$$$
97:0:0
     RDKit          3D

 90 97  0  0  1  0  0  0  0  0999 V2000
  -29.6570  -21.6680   20.0920 C   0  0  0  0  0  2  0  0  0  0  0  0
  -28.9170  -20.3790   19.9680 N   0  0  0  0  0  4  0  0  0  0  0  0
  -28.2250  -20.3370   20.7020 H   0  0  0  0  0  0  0  0  0  0  0  0
  -28.4130  -20.3840   19.0970 H   0  0  0  0  0  0  0  0  0  0  0  0
  -30.8760  -19.1960   21.0340 C   0  0  0  0  0  1  0  0  0  0  0  0
  -29.7430  -19.1390   19.9860 C   0  0  0  0  0  3  0  0  0  0  0  0
  -28.1880  -17.7290   21.5200 C   0  0  0  0  0  1  0  0  0  0  0  0
  -28.8780  -17.8520   20.1470 C   0  0  0  0  0  3  0  0  0  0  0  0
  -30.0440  -15.5720   20.5620 C   0  0  0  0  0  3  0  0  0  0  0  0
  -29.6810  -16.6070   19.7700 C   0  0  0  0  0  3  0  0  0  0  0  0
  -30.8010  -14.4770   19.9720 C   0  0  0  0  0  0  0  0  0  0  0  0
  -30.4630  -12.3070   18.8580 C   0  0  0  0  0  2  0  0  0  0  0  0
  -29.4780  -12.5400   17.6940 C   0  0  0  0  0  2  0  0  0  0  0  0
  -28.0150  -12.4260   18.1730 C   0  0  0  0  0  2  0  0  0  0  0  0
  -27.7410  -13.2520   19.4600 C   0  0  0  0  0  3  0  0  0  0  0  0
  -28.8340  -12.9980   20.5190 C   0  0  0  0  0  2  0  0  0  0  0  0
  -30.1410  -13.2890   19.9060 N   0  0  0  0  0  0  0  0  0  0  0  0
  -31.8970  -14.6590   19.4340 O   0  0  0  0  0  0  0  0  0  0  0  0
  -25.3760  -13.8820   20.2600 C   0  0  0  0  0  0  0  0  0  0  0  0
  -24.3160  -13.1190   20.6770 C   0  0  0  0  0  0  0  0  0  0  0  0
  -24.7650  -11.7620   20.6270 C   0  0  0  0  0  0  0  0  0  0  0  0
  -26.4040  -12.9910   19.9910 N   0  0  0  0  0  0  0  0  0  0  0  0
  -26.0390  -11.7110   20.2630 N   0  0  0  0  0  0  0  0  0  0  0  0
  -24.0400  -10.5050   20.8510 C   0  0  0  0  0  0  0  0  0  0  0  0
  -24.4630   -9.5690   21.8210 C   0  0  0  0  0  3  0  0  0  0  0  0
  -23.7370   -8.3780   22.0310 C   0  0  0  0  0  3  0  0  0  0  0  0
  -22.5760   -8.1130   21.2700 C   0  0  0  0  0  0  0  0  0  0  0  0
  -22.1700   -9.0380   20.2920 C   0  0  0  0  0  3  0  0  0  0  0  0
  -22.8960  -10.2220   20.0800 C   0  0  0  0  0  3  0  0  0  0  0  0
  -21.8230   -6.9690   21.3850 O   0  0  0  0  0  0  0  0  0  0  0  0
  -21.6970   -6.3060   22.5790 C   0  0  0  0  0  0  0  0  0  0  0  0
  -21.1810   -6.9400   23.7310 C   0  0  0  0  0  3  0  0  0  0  0  0
  -21.0030   -6.2040   24.9210 C   0  0  0  0  0  3  0  0  0  0  0  0
  -21.3320   -4.8370   24.9570 C   0  0  0  0  0  0  0  0  0  0  0  0
  -21.8420   -4.2020   23.8110 C   0  0  0  0  0  3  0  0  0  0  0  0
  -22.0210   -4.9350   22.6250 C   0  0  0  0  0  0  0  0  0  0  0  0
  -22.4920   -4.3140   21.5170 F   0  0  0  0  0  0  0  0  0  0  0  0
  -21.1570   -4.1280   26.0970 F   0  0  0  0  0  0  0  0  0  0  0  0
  -22.9380  -13.6060   21.0130 C   0  0  0  0  0  0  0  0  0  0  0  0
  -22.2520  -12.9180   21.9210 N   0  0  0  0  0  0  0  0  0  0  0  0
  -22.4760  -14.6290   20.5080 O   0  0  0  0  0  0  0  0  0  0  0  0
  -22.6410  -12.0910   22.3500 H   0  0  0  0  0  0  0  0  0  0  0  0
  -21.3250  -13.2180   22.1890 H   0  0  0  0  0  0  0  0  0  0  0  0
  -25.5420  -15.2510   20.0710 N   0  0  0  0  0  0  0  0  0  0  0  0
  -24.7860  -15.9170   20.2030 H   0  0  0  0  0  0  0  0  0  0  0  0
  -26.4020  -15.6820   19.7500 H   0  0  0  0  0  0  0  0  0  0  0  0
  -28.8450  -22.8660   19.5500 C   0  0  0  0  0  2  0  0  0  0  0  0
  -29.2740  -24.2620   20.0820 C   0  0  0  0  0  2  0  0  0  0  0  0
  -28.2600  -25.3320   19.6510 C   0  0  0  0  0  2  0  0  0  0  0  0
  -28.4220  -26.6530   20.2090 O   0  0  0  0  0  0  0  0  0  0  0  0
  -24.6250  -31.8500   23.3560 C   0  0  0  0  0  0  0  0  0  0  0  0
  -27.2750  -27.4390   20.1950 C   0  0  0  0  0  0  0  0  0  0  0  0
  -23.4400  -30.4840   21.6790 C   0  0  0  0  0  3  0  0  0  0  0  0
  -24.9010  -28.9910   20.2310 C   0  0  0  0  0  0  0  0  0  0  0  0
  -25.9770  -30.8280   21.5240 C   0  0  0  0  0  2  0  0  0  0  0  0
  -26.0620  -29.4730   20.8500 C   0  0  0  0  0  0  0  0  0  0  0  0
  -27.2540  -28.7040   20.8330 C   0  0  0  0  0  3  0  0  0  0  0  0
  -26.0870  -26.9980   19.5530 C   0  0  0  0  0  3  0  0  0  0  0  0
  -24.9090  -27.7530   19.5820 C   0  0  0  0  0  3  0  0  0  0  0  0
  -23.6670  -29.8590   20.2820 C   0  0  0  0  0  2  0  0  0  0  0  0
  -24.6990  -31.0660   22.2430 N   0  0  0  0  0  0  0  0  0  0  0  0
  -23.5360  -32.1140   23.8850 O   0  0  0  0  0  0  0  0  0  0  0  0
  -22.7800  -29.4320   22.6020 C   0  0  0  0  0  0  0  0  0  0  0  0
  -21.4590  -29.2450   22.4480 N   0  0  0  0  0  0  0  0  0  0  0  0
  -23.4540  -28.7940   23.4150 O   0  0  0  0  0  0  0  0  0  0  0  0
  -20.9730  -29.8180   21.7710 H   0  0  0  0  0  0  0  0  0  0  0  0
  -18.0780  -28.0410   22.8760 C   0  0  0  0  0  0  0  0  0  0  0  0
  -20.6320  -28.2920   23.1890 C   0  0  0  0  0  3  0  0  0  0  0  0
  -20.7430  -26.8720   22.5870 C   0  0  0  0  0  2  0  0  0  0  0  0
  -19.6550  -26.5690   21.5520 C   0  0  0  0  0  2  0  0  0  0  0  0
  -18.2650  -26.7040   22.1790 C   0  0  0  0  0  2  0  0  0  0  0  0
  -19.1910  -28.7940   23.3370 C   0  0  0  0  0  0  0  0  0  0  0  0
  -18.9640  -30.0480   23.9450 C   0  0  0  0  0  3  0  0  0  0  0  0
  -17.6580  -30.5490   24.0980 C   0  0  0  0  0  3  0  0  0  0  0  0
  -16.5590  -29.7920   23.6570 C   0  0  0  0  0  3  0  0  0  0  0  0
  -16.7700  -28.5420   23.0510 C   0  0  0  0  0  3  0  0  0  0  0  0
  -25.9020  -32.4730   23.9990 C   0  0  0  0  0  3  0  0  0  0  0  0
  -26.3650  -31.7200   25.3050 C   0  0  1  0  0  0  0  0  0  0  0  0
  -25.2340  -31.5170   26.3400 C   0  0  0  0  0  1  0  0  0  0  0  0
  -26.9410  -30.3280   24.9530 C   0  0  0  0  0  1  0  0  0  0  0  0
  -27.5060  -32.5090   25.9900 C   0  0  0  0  0  1  0  0  0  0  0  0
  -25.6110  -33.8820   24.2870 N   0  0  0  0  0  0  0  0  0  0  0  0
  -25.9620  -34.9090   23.5020 C   0  0  0  0  0  0  0  0  0  0  0  0
  -26.6410  -34.7680   22.4810 O   0  0  0  0  0  0  0  0  0  0  0  0
  -25.0100  -34.0680   25.0770 H   0  0  0  0  0  0  0  0  0  0  0  0
  -24.2540  -36.7040   23.0790 C   0  0  0  0  0  1  0  0  0  0  0  0
  -25.4850  -36.3150   23.9120 C   0  0  0  0  0  3  0  0  0  0  0  0
  -27.6210  -37.2030   24.7340 C   0  0  0  0  0  1  0  0  0  0  0  0
  -26.5300  -37.3530   23.7750 N   0  0  0  0  0  0  0  0  0  0  0  0
  -26.1320  -38.2820   23.8920 H   0  0  0  0  0  0  0  0  0  0  0  0
  2  6  1  0
  2  1  1  0
  2  3  1  0
  4  2  1  0
  6  8  1  0
  6  5  1  0
  8  7  1  0
 10  8  1  0
 10  9  2  0
 11  9  1  0
 12 17  1  0
 13 14  1  0
 13 12  1  0
 15 14  1  0
 15 22  1  0
 15 16  1  0
 17 11  1  0
 17 16  1  0
 18 11  2  0
 19 20  2  0
 20 39  1  0
 21 20  1  0
 21 24  1  0
 22 19  1  0
 22 23  1  0
 23 21  2  0
 24 25  1  0
 25 26  2  0
 27 30  1  0
 27 26  1  0
 28 27  2  0
 29 28  1  0
 29 24  2  0
 30 31  1  0
 31 36  2  0
 31 32  1  0
 32 33  2  0
 33 34  1  0
 34 38  1  0
 35 34  2  0
 36 35  1  0
 37 36  1  0
 39 40  1  0
 40 43  1  0
 40 42  1  0
 41 39  2  0
 44 45  1  0
 44 19  1  0
 46 44  1  0
 47 48  1  0
 47  1  1  0
 49 48  1  0
 49 50  1  0
 51 62  2  0
 52 50  1  0
 52 57  1  0
 53 61  1  0
 53 63  1  0
 54 60  1  0
 54 56  1  0
 55 61  1  0
 56 55  1  0
 57 56  2  0
 58 59  1  0
 58 52  2  0
 59 54  2  0
 60 53  1  0
 61 51  1  0
 63 65  2  0
 64 63  1  0
 66 64  1  0
 67 76  2  0
 67 72  1  0
 68 64  1  0
 68 72  1  0
 69 68  1  0
 70 71  1  0
 70 69  1  0
 71 67  1  0
 72 73  2  0
 73 74  1  0
 75 74  2  0
 76 75  1  0
 77 51  1  0
 77 82  1  0
 77 78  1  0
 78 81  1  1
 78 79  1  0
 80 78  1  0
 82 85  1  0
 83 87  1  0
 83 82  1  0
 84 83  2  0
 87 86  1  0
 89 90  1  0
 89 87  1  0
 89 88  1  0
M  ISO  4   9 100  11 100  49 101  50 101
M  END
>  <TORSDO>  (97) 
F 23

>  <SCORE>  (97) 
-10.980

>  <name>  (97) 
97

>  <ligand_id>  (97) 
97

>  <original_smiles>  (97) 
[H]C(C(=O)N1C([H])([H])C([H])([H])C([H])([H])C([H])(n2nc(-c3c([H])c([H])c(Oc4c([H])c([H])c(F)c([H])c4F)c([H])c3[H])c(C(=O)N([H])[H])c2N([H])[H])C1([H])[H])=C([H])C([H])(C([H])([H])[H])C([H])(C([H])([H])[H])[N+]([H])([H])C([H])([H])C([H])([H])C([H])([H])C([H])([H])Oc1c([H])c([H])c2c(c1[H])C([H])([H])N(C(=O)C([H])(N([H])C(=O)C([H])(N([H])C([H])([H])[H])C([H])([H])[H])C(C([H])([H])[H])(C([H])([H])[H])C([H])([H])[H])C([H])(C(=O)N([H])C1([H])c3c([H])c([H])c([H])c([H])c3C([H])([H])C([H])([H])C1([H])[H])C2([H])[H]

>  <smiles>  (97) 
[H]C(C(=O)N1C([H])([H])C([H])([H])C([H])([H])C([H])(n2nc(-c3c([H])c([H])c(Oc4c([H])c([H])c(F)c([H])c4F)c([H])c3[H])c(C(=O)N([H])[H])c2N([H])[H])C1([H])[H])=C([H])C([H])(C([H])([H])[H])C([H])(C([H])([H])[H])[N+]([H])([H])C([H])([H])C([H])([H])C([H])([H])C([H])([H])Oc1c([H])c([H])c2c(c1[H])C([H])([H])N(C(=O)C([H])(N([H])C(=O)C([H])(N([H])C([H])([H])[H])C([H])([H])[H])C(C([H])([H])[H])(C([H])([H])[H])C([H])([H])[H])C([H])(C(=O)N([H])C1([H])c3c([H])c([H])c([H])c([H])c3C([H])([H])C([H])([H])C1([H])[H])C2([H])[H]

$$$$
