0:0:0
     RDKit          3D

 94102  0  0  1  0  0  0  0  0999 V2000
  -27.4950  -20.3670   19.2110 C   0  0  0  0  0  0  0  0  0  0  0  0
  -25.1900  -18.7570   18.2960 C   0  0  0  0  0  2  0  0  0  0  0  0
  -25.2630  -20.2570   17.9230 C   0  0  0  0  0  2  0  0  0  0  0  0
  -26.5720  -18.1370   18.5770 C   0  0  0  0  0  2  0  0  0  0  0  0
  -26.2100  -21.1340   18.8040 C   0  0  0  0  0  3  0  0  0  0  0  0
  -27.2510  -18.9330   19.6940 C   0  0  0  0  0  3  0  0  0  0  0  0
  -28.6180  -20.8750   19.1760 O   0  0  0  0  0  0  0  0  0  0  0  0
  -28.3000  -17.8620   21.6520 C   0  0  0  0  0  1  0  0  0  0  0  0
  -28.5020  -18.3370   20.2600 N   0  0  1  0  0  4  0  0  0  0  0  0
  -29.0970  -19.1470   20.3580 H   0  0  0  0  0  0  0  0  0  0  0  0
  -29.2790  -17.4110   19.3710 C   0  0  0  0  0  2  0  0  0  0  0  0
  -30.1980  -16.3880   20.0910 C   0  0  0  0  0  2  0  0  0  0  0  0
  -30.9610  -15.5390   19.0620 C   0  0  0  0  0  2  0  0  0  0  0  0
  -31.7100  -14.2850   19.5510 C   0  0  0  0  0  0  0  0  0  0  0  0
  -31.3010  -11.9790   18.9240 C   0  0  0  0  0  2  0  0  0  0  0  0
  -30.3230  -12.0130   17.7280 C   0  0  0  0  0  2  0  0  0  0  0  0
  -28.8590  -12.0240   18.2150 C   0  0  0  0  0  2  0  0  0  0  0  0
  -28.6000  -13.0940   19.3100 C   0  0  0  0  0  3  0  0  0  0  0  0
  -29.6870  -13.0440   20.4020 C   0  0  0  0  0  2  0  0  0  0  0  0
  -31.0060  -13.1440   19.7650 N   0  0  0  0  0  0  0  0  0  0  0  0
  -32.9190  -14.2850   19.3110 O   0  0  0  0  0  0  0  0  0  0  0  0
  -26.3510  -13.9850   20.1660 C   0  0  0  0  0  0  0  0  0  0  0  0
  -25.2220  -13.3510   20.5990 C   0  0  0  0  0  0  0  0  0  0  0  0
  -25.5090  -11.9520   20.5410 C   0  0  0  0  0  0  0  0  0  0  0  0
  -27.2620  -12.9830   19.8710 N   0  0  0  0  0  0  0  0  0  0  0  0
  -26.7630  -11.7550   20.1580 N   0  0  0  0  0  0  0  0  0  0  0  0
  -24.6490  -10.7880   20.7660 C   0  0  0  0  0  0  0  0  0  0  0  0
  -24.9820   -9.8030   21.7210 C   0  0  0  0  0  3  0  0  0  0  0  0
  -24.1300   -8.6990   21.9300 C   0  0  0  0  0  3  0  0  0  0  0  0
  -22.9340   -8.5730   21.1830 C   0  0  0  0  0  0  0  0  0  0  0  0
  -22.6210   -9.5470   20.2170 C   0  0  0  0  0  3  0  0  0  0  0  0
  -23.4730  -10.6420   20.0060 C   0  0  0  0  0  3  0  0  0  0  0  0
  -22.0590   -7.5230   21.3030 O   0  0  0  0  0  0  0  0  0  0  0  0
  -21.8820   -6.8670   22.4940 C   0  0  0  0  0  0  0  0  0  0  0  0
  -21.4670   -7.5430   23.6620 C   0  0  0  0  0  3  0  0  0  0  0  0
  -21.2330   -6.8210   24.8480 C   0  0  0  0  0  3  0  0  0  0  0  0
  -21.4020   -5.4230   24.8680 C   0  0  0  0  0  0  0  0  0  0  0  0
  -21.8120   -4.7470   23.7040 C   0  0  0  0  0  3  0  0  0  0  0  0
  -22.0490   -5.4680   22.5210 C   0  0  0  0  0  0  0  0  0  0  0  0
  -22.4230   -4.8090   21.3970 F   0  0  0  0  0  0  0  0  0  0  0  0
  -21.1680   -4.7260   26.0040 F   0  0  0  0  0  0  0  0  0  0  0  0
  -23.9110  -13.9970   20.9460 C   0  0  0  0  0  0  0  0  0  0  0  0
  -23.1600  -13.4020   21.8640 N   0  0  0  0  0  0  0  0  0  0  0  0
  -23.5710  -15.0650   20.4360 O   0  0  0  0  0  0  0  0  0  0  0  0
  -23.4530  -12.5390   22.2980 H   0  0  0  0  0  0  0  0  0  0  0  0
  -22.2810  -13.8160   22.1410 H   0  0  0  0  0  0  0  0  0  0  0  0
  -26.6650  -15.3230   19.9660 N   0  0  0  0  0  0  0  0  0  0  0  0
  -25.8900  -15.9770   19.9580 H   0  0  0  0  0  0  0  0  0  0  0  0
  -27.3660  -15.5370   19.2700 H   0  0  0  0  0  0  0  0  0  0  0  0
  -26.3900  -22.5320   18.1390 C   0  0  0  0  0  2  0  0  0  0  0  0
  -27.6720  -23.3780   18.3580 C   0  0  0  0  0  2  0  0  0  0  0  0
  -27.8070  -24.0550   19.7400 C   0  0  0  0  0  2  0  0  0  0  0  0
  -28.8210  -25.2390   19.6910 C   0  0  0  0  0  2  0  0  0  0  0  0
  -28.5800  -26.3050   20.6190 O   0  0  0  0  0  0  0  0  0  0  0  0
  -24.6840  -31.5840   23.3650 C   0  0  0  0  0  0  0  0  0  0  0  0
  -27.4280  -27.0660   20.4880 C   0  0  0  0  0  0  0  0  0  0  0  0
  -23.5630  -30.1960   21.6560 C   0  0  0  0  0  3  0  0  0  0  0  0
  -25.0810  -28.6420   20.3320 C   0  0  0  0  0  0  0  0  0  0  0  0
  -26.1090  -30.5040   21.6400 C   0  0  0  0  0  2  0  0  0  0  0  0
  -26.2020  -29.1280   21.0150 C   0  0  0  0  0  0  0  0  0  0  0  0
  -27.3710  -28.3370   21.1150 C   0  0  0  0  0  3  0  0  0  0  0  0
  -26.2960  -26.6270   19.7550 C   0  0  0  0  0  3  0  0  0  0  0  0
  -25.1210  -27.3910   19.7000 C   0  0  0  0  0  3  0  0  0  0  0  0
  -23.8570  -29.5200   20.2910 C   0  0  0  0  0  2  0  0  0  0  0  0
  -24.7950  -30.7740   22.2770 N   0  0  0  0  0  0  0  0  0  0  0  0
  -23.5720  -31.8860   23.8270 O   0  0  0  0  0  0  0  0  0  0  0  0
  -22.8300  -29.1880   22.5720 C   0  0  0  0  0  0  0  0  0  0  0  0
  -21.5130  -29.0310   22.3640 N   0  0  0  0  0  0  0  0  0  0  0  0
  -23.4460  -28.5540   23.4300 O   0  0  0  0  0  0  0  0  0  0  0  0
  -21.0820  -29.5720   21.6290 H   0  0  0  0  0  0  0  0  0  0  0  0
  -18.0870  -27.9750   22.6620 C   0  0  0  0  0  0  0  0  0  0  0  0
  -20.6260  -28.1200   23.0850 C   0  0  0  0  0  3  0  0  0  0  0  0
  -20.7030  -26.6920   22.4920 C   0  0  0  0  0  2  0  0  0  0  0  0
  -19.6530  -26.4320   21.4120 C   0  0  0  0  0  2  0  0  0  0  0  0
  -18.2450  -26.6220   21.9780 C   0  0  0  0  0  2  0  0  0  0  0  0
  -19.2060  -28.6830   23.1650 C   0  0  0  0  0  0  0  0  0  0  0  0
  -19.0150  -29.9520   23.7640 C   0  0  0  0  0  3  0  0  0  0  0  0
  -17.7230  -30.5050   23.8740 C   0  0  0  0  0  3  0  0  0  0  0  0
  -16.6120  -29.7910   23.3920 C   0  0  0  0  0  3  0  0  0  0  0  0
  -16.7950  -28.5280   22.7870 C   0  0  0  0  0  3  0  0  0  0  0  0
  -25.9350  -32.1930   24.0700 C   0  0  0  0  0  3  0  0  0  0  0  0
  -25.6580  -33.6160   24.3080 N   0  0  0  0  0  0  0  0  0  0  0  0
  -26.0960  -34.6130   23.5280 C   0  0  0  0  0  0  0  0  0  0  0  0
  -26.8440  -34.4310   22.5630 O   0  0  0  0  0  0  0  0  0  0  0  0
  -25.0130  -33.8330   25.0520 H   0  0  0  0  0  0  0  0  0  0  0  0
  -24.4770  -36.4440   22.9420 C   0  0  0  0  0  1  0  0  0  0  0  0
  -25.6300  -36.0410   23.8730 C   0  0  0  0  0  3  0  0  0  0  0  0
  -27.7310  -36.8840   24.8240 C   0  0  0  0  0  1  0  0  0  0  0  0
  -26.7120  -37.0470   23.7910 N   0  0  0  0  0  0  0  0  0  0  0  0
  -26.3330  -37.9890   23.8670 H   0  0  0  0  0  0  0  0  0  0  0  0
  -26.3040  -31.4610   25.4190 C   0  0  1  0  0  0  0  0  0  0  0  0
  -25.1090  -31.2880   26.3830 C   0  0  0  0  0  1  0  0  0  0  0  0
  -26.8880  -30.0560   25.1350 C   0  0  0  0  0  1  0  0  0  0  0  0
  -27.4050  -32.2550   26.1580 C   0  0  0  0  0  1  0  0  0  0  0  0
  1  6  1  0
  2  4  1  0
  3  2  1  0
  3  5  1  0
  4  6  1  0
  5 50  1  0
  5  1  1  0
  6  9  1  0
  7  1  2  0
  9 10  1  1
  9  8  1  0
 11 12  1  0
 11  9  1  0
 13 14  1  0
 13 12  1  0
 14 20  1  0
 15 20  1  0
 16 17  1  0
 16 15  1  0
 18 17  1  0
 18 25  1  0
 18 19  1  0
 20 19  1  0
 21 14  2  0
 22 23  2  0
 23 42  1  0
 24 23  1  0
 24 27  1  0
 25 26  1  0
 25 22  1  0
 26 24  2  0
 27 28  1  0
 28 29  2  0
 30 33  1  0
 30 29  1  0
 31 30  2  0
 32 31  1  0
 32 27  2  0
 33 34  1  0
 34 39  2  0
 34 35  1  0
 35 36  2  0
 36 37  1  0
 37 41  1  0
 38 37  2  0
 39 38  1  0
 40 39  1  0
 42 43  1  0
 43 46  1  0
 43 45  1  0
 44 42  2  0
 47 22  1  0
 48 47  1  0
 49 47  1  0
 50 51  1  0
 51 52  1  0
 53 52  1  0
 53 54  1  0
 55 66  2  0
 56 54  1  0
 56 61  1  0
 57 65  1  0
 57 67  1  0
 58 60  1  0
 59 65  1  0
 60 61  2  0
 60 59  1  0
 62 56  2  0
 63 62  1  0
 63 58  2  0
 64 58  1  0
 64 57  1  0
 65 55  1  0
 67 69  2  0
 68 67  1  0
 70 68  1  0
 71 80  2  0
 71 76  1  0
 72 68  1  0
 72 76  1  0
 73 72  1  0
 74 75  1  0
 74 73  1  0
 75 71  1  0
 76 77  2  0
 77 78  1  0
 79 78  2  0
 80 79  1  0
 81 55  1  0
 81 82  1  0
 81 91  1  0
 82 85  1  0
 83 87  1  0
 83 82  1  0
 84 83  2  0
 87 86  1  0
 89 90  1  0
 89 87  1  0
 89 88  1  0
 91 94  1  1
 91 92  1  0
 93 91  1  0
M  ISO  4  13 100  14 100  53 101  54 101
M  END
>  <TORSDO>  (1) 
F 24

>  <SCORE>  (1) 
-7.880

>  <name>  (1) 
0

>  <ligand_id>  (1) 
0

>  <original_smiles>  (1) 
[H]c1c([H])c([H])c2c(c1[H])C([H])([H])C([H])([H])C([H])([H])C2([H])N([H])C(=O)C1([H])N(C(=O)C([H])(N([H])C(=O)C([H])(N([H])C([H])([H])[H])C([H])([H])[H])C(C([H])([H])[H])(C([H])([H])[H])C([H])([H])[H])C([H])([H])c2c([H])c(OC([H])([H])C([H])([H])C([H])([H])C([H])([H])C3([H])C(=O)C([H])([N+]([H])(C([H])([H])[H])C([H])([H])C([H])([H])C([H])([H])C(=O)N4C([H])([H])C([H])([H])C([H])([H])C([H])(n5nc(-c6c([H])c([H])c(Oc7c([H])c([H])c(F)c([H])c7F)c([H])c6[H])c(C(=O)N([H])[H])c5N([H])[H])C4([H])[H])C([H])([H])C([H])([H])C3([H])[H])c([H])c([H])c2C1([H])[H]

>  <smiles>  (1) 
[H]c1c([H])c([H])c2c(c1[H])C([H])([H])C([H])([H])C([H])([H])C2([H])N([H])C(=O)C1([H])N(C(=O)C([H])(N([H])C(=O)C([H])(N([H])C([H])([H])[H])C([H])([H])[H])C(C([H])([H])[H])(C([H])([H])[H])C([H])([H])[H])C([H])([H])c2c([H])c(OC([H])([H])C([H])([H])C([H])([H])C([H])([H])C3([H])C(=O)C([H])([N+]([H])(C([H])([H])[H])C([H])([H])C([H])([H])C([H])([H])C(=O)N4C([H])([H])C([H])([H])C([H])([H])C([H])(n5nc(-c6c([H])c([H])c(Oc7c([H])c([H])c(F)c([H])c7F)c([H])c6[H])c(C(=O)N([H])[H])c5N([H])[H])C4([H])[H])C([H])([H])C([H])([H])C3([H])[H])c([H])c([H])c2C1([H])[H]

$$$$
1:0:0
     RDKit          3D

 96105  0  0  1  0  0  0  0  0999 V2000
  -33.9000  -22.3580   19.8800 C   0  0  0  0  0  3  0  0  0  0  0  0
  -33.0420  -23.3980   20.2920 C   0  0  0  0  0  3  0  0  0  0  0  0
  -31.5340  -21.7760   21.3130 C   0  0  0  0  0  3  0  0  0  0  0  0
  -33.5950  -21.0280   20.2290 C   0  0  0  0  0  0  0  0  0  0  0  0
  -32.4300  -20.7420   20.9660 C   0  0  0  0  0  0  0  0  0  0  0  0
  -31.8590  -23.1170   21.0030 C   0  0  0  0  0  0  0  0  0  0  0  0
  -34.4930  -19.8560   19.8800 C   0  0  0  0  0  2  0  0  0  0  0  0
  -32.2020  -19.2980   21.3790 C   0  0  0  0  0  2  0  0  0  0  0  0
  -33.6800  -18.6050   19.4570 C   0  0  0  0  0  2  0  0  0  0  0  0
  -32.3920  -18.4120   20.2040 N   0  0  1  0  0  4  0  0  0  0  0  0
  -31.6810  -18.7370   19.5650 H   0  0  0  0  0  0  0  0  0  0  0  0
  -31.0750  -24.1870   21.4570 N   0  0  0  0  0  0  0  0  0  0  0  0
  -31.5020  -25.1040   21.3450 H   0  0  0  0  0  0  0  0  0  0  0  0
  -29.6310  -24.1620   21.2330 C   0  0  0  0  0  2  0  0  0  0  0  0
  -29.2010  -24.9890   19.9970 C   0  0  0  0  0  2  0  0  0  0  0  0
  -27.7170  -25.4240   20.0330 C   0  0  0  0  0  2  0  0  0  0  0  0
  -27.4670  -26.3860   19.0030 O   0  0  0  0  0  0  0  0  0  0  0  0
  -24.4580  -31.4630   22.9920 C   0  0  0  0  0  0  0  0  0  0  0  0
  -26.3830  -27.2020   19.2260 C   0  0  0  0  0  0  0  0  0  0  0  0
  -22.9810  -30.3820   21.3240 C   0  0  0  0  0  3  0  0  0  0  0  0
  -24.1490  -28.8880   19.6160 C   0  0  0  0  0  0  0  0  0  0  0  0
  -25.5010  -30.5360   20.9300 C   0  0  0  0  0  2  0  0  0  0  0  0
  -25.3970  -29.2430   20.1490 C   0  0  0  0  0  0  0  0  0  0  0  0
  -26.5180  -28.4040   19.9530 C   0  0  0  0  0  3  0  0  0  0  0  0
  -25.1290  -26.8600   18.6830 C   0  0  0  0  0  3  0  0  0  0  0  0
  -24.0100  -27.6930   18.8850 C   0  0  0  0  0  3  0  0  0  0  0  0
  -23.0020  -29.8440   19.8670 C   0  0  0  0  0  2  0  0  0  0  0  0
  -24.3380  -30.8020   21.8060 N   0  0  0  0  0  0  0  0  0  0  0  0
  -23.4600  -31.7680   23.6570 O   0  0  0  0  0  0  0  0  0  0  0  0
  -22.3090  -29.3220   22.2260 C   0  0  0  0  0  0  0  0  0  0  0  0
  -20.9700  -29.2620   22.1780 N   0  0  0  0  0  0  0  0  0  0  0  0
  -22.9880  -28.5620   22.9230 O   0  0  0  0  0  0  0  0  0  0  0  0
  -20.4900  -29.9240   21.5870 H   0  0  0  0  0  0  0  0  0  0  0  0
  -17.5450  -28.2820   22.7760 C   0  0  0  0  0  0  0  0  0  0  0  0
  -20.1260  -28.3180   22.9090 C   0  0  0  0  0  3  0  0  0  0  0  0
  -20.0800  -26.9460   22.1960 C   0  0  0  0  0  2  0  0  0  0  0  0
  -18.9010  -26.8080   21.2290 C   0  0  0  0  0  2  0  0  0  0  0  0
  -17.5740  -26.9940   21.9690 C   0  0  0  0  0  2  0  0  0  0  0  0
  -18.7450  -28.9110   23.2030 C   0  0  0  0  0  0  0  0  0  0  0  0
  -18.6600  -30.1260   23.9190 C   0  0  0  0  0  3  0  0  0  0  0  0
  -17.4110  -30.7050   24.2120 C   0  0  0  0  0  3  0  0  0  0  0  0
  -16.2280  -30.0670   23.8010 C   0  0  0  0  0  3  0  0  0  0  0  0
  -16.2960  -28.8590   23.0870 C   0  0  0  0  0  3  0  0  0  0  0  0
  -25.8520  -31.8910   23.5540 C   0  0  0  0  0  3  0  0  0  0  0  0
  -25.7200  -33.2600   24.0660 N   0  0  0  0  0  0  0  0  0  0  0  0
  -26.1090  -34.3600   23.4090 C   0  0  0  0  0  0  0  0  0  0  0  0
  -26.6910  -34.3190   22.3220 O   0  0  0  0  0  0  0  0  0  0  0  0
  -25.2050  -33.3690   24.9270 H   0  0  0  0  0  0  0  0  0  0  0  0
  -24.5680  -36.3490   23.4000 C   0  0  0  0  0  1  0  0  0  0  0  0
  -25.8060  -35.7200   24.0620 C   0  0  0  0  0  3  0  0  0  0  0  0
  -28.0710  -36.2800   24.8320 C   0  0  0  0  0  1  0  0  0  0  0  0
  -26.9390  -36.6700   23.9950 N   0  0  0  0  0  0  0  0  0  0  0  0
  -26.6430  -37.6010   24.2740 H   0  0  0  0  0  0  0  0  0  0  0  0
  -26.3940  -30.9240   24.6770 C   0  0  1  0  0  0  0  0  0  0  0  0
  -25.3870  -30.6780   25.8240 C   0  0  0  0  0  1  0  0  0  0  0  0
  -26.7750  -29.5500   24.0750 C   0  0  0  0  0  1  0  0  0  0  0  0
  -27.6830  -31.5130   25.2990 C   0  0  0  0  0  1  0  0  0  0  0  0
  -32.1080  -16.9760   20.4300 C   0  0  0  0  0  2  0  0  0  0  0  0
  -30.9980  -16.6350   21.4550 C   0  0  0  0  0  2  0  0  0  0  0  0
  -30.1660  -15.3310   21.2380 C   0  0  0  0  0  2  0  0  0  0  0  0
  -30.6880  -14.2240   20.2900 C   0  0  0  0  0  0  0  0  0  0  0  0
  -30.2340  -12.1910   18.9680 C   0  0  0  0  0  2  0  0  0  0  0  0
  -29.2300  -12.4760   17.8330 C   0  0  0  0  0  2  0  0  0  0  0  0
  -27.7730  -12.3680   18.3210 C   0  0  0  0  0  2  0  0  0  0  0  0
  -27.5270  -13.1310   19.6500 C   0  0  0  0  0  3  0  0  0  0  0  0
  -28.6320  -12.8330   20.6880 C   0  0  0  0  0  2  0  0  0  0  0  0
  -29.9400  -13.1130   20.0750 N   0  0  0  0  0  0  0  0  0  0  0  0
  -31.7510  -14.3940   19.6870 O   0  0  0  0  0  0  0  0  0  0  0  0
  -25.1740  -13.7250   20.5140 C   0  0  0  0  0  0  0  0  0  0  0  0
  -24.1200  -12.9470   20.9070 C   0  0  0  0  0  0  0  0  0  0  0  0
  -24.5650  -11.5920   20.7930 C   0  0  0  0  0  0  0  0  0  0  0  0
  -26.1980  -12.8490   20.1900 N   0  0  0  0  0  0  0  0  0  0  0  0
  -25.8360  -11.5570   20.4130 N   0  0  0  0  0  0  0  0  0  0  0  0
  -23.8390  -10.3280   20.9700 C   0  0  0  0  0  0  0  0  0  0  0  0
  -24.2890   -9.3370   21.8680 C   0  0  0  0  0  3  0  0  0  0  0  0
  -23.5630   -8.1370   22.0340 C   0  0  0  0  0  3  0  0  0  0  0  0
  -22.3740   -7.9190   21.3010 C   0  0  0  0  0  0  0  0  0  0  0  0
  -21.9400   -8.9000   20.3920 C   0  0  0  0  0  3  0  0  0  0  0  0
  -22.6660  -10.0910   20.2240 C   0  0  0  0  0  3  0  0  0  0  0  0
  -21.6170   -6.7740   21.3790 O   0  0  0  0  0  0  0  0  0  0  0  0
  -21.5680   -6.0210   22.5230 C   0  0  0  0  0  0  0  0  0  0  0  0
  -21.1270   -6.5590   23.7520 C   0  0  0  0  0  3  0  0  0  0  0  0
  -21.0240   -5.7300   24.8860 C   0  0  0  0  0  3  0  0  0  0  0  0
  -21.3510   -4.3630   24.7940 C   0  0  0  0  0  0  0  0  0  0  0  0
  -21.7870   -3.8260   23.5710 C   0  0  0  0  0  3  0  0  0  0  0  0
  -21.8900   -4.6510   22.4380 C   0  0  0  0  0  0  0  0  0  0  0  0
  -22.2890   -4.1210   21.2550 F   0  0  0  0  0  0  0  0  0  0  0  0
  -21.2430   -3.5660   25.8830 F   0  0  0  0  0  0  0  0  0  0  0  0
  -22.7420  -13.4190   21.2770 C   0  0  0  0  0  0  0  0  0  0  0  0
  -22.0590  -12.6980   22.1570 N   0  0  0  0  0  0  0  0  0  0  0  0
  -22.2850  -14.4650   20.8160 O   0  0  0  0  0  0  0  0  0  0  0  0
  -22.4410  -11.8520   22.5530 H   0  0  0  0  0  0  0  0  0  0  0  0
  -21.1380  -12.9960   22.4440 H   0  0  0  0  0  0  0  0  0  0  0  0
  -25.3420  -15.1010   20.3880 N   0  0  0  0  0  0  0  0  0  0  0  0
  -24.5860  -15.7550   20.5590 H   0  0  0  0  0  0  0  0  0  0  0  0
  -26.1890  -15.5500   20.0620 H   0  0  0  0  0  0  0  0  0  0  0  0
  1  4  2  0
  1  2  1  0
  2  6  2  0
  4  5  1  0
  5  3  2  0
  5  8  1  0
  6  3  1  0
  6 12  1  0
  7  4  1  0
  9  7  1  0
  9 10  1  0
 10 58  1  0
 10  8  1  0
 10 11  1  6
 13 12  1  0
 14 12  1  0
 15 16  1  0
 15 14  1  0
 17 19  1  0
 17 16  1  0
 18 29  2  0
 19 24  1  0
 20 28  1  0
 20 30  1  0
 21 27  1  0
 21 23  1  0
 22 28  1  0
 23 22  1  0
 24 23  2  0
 25 26  1  0
 25 19  2  0
 26 21  2  0
 27 20  1  0
 28 18  1  0
 30 32  2  0
 31 30  1  0
 33 31  1  0
 34 43  2  0
 34 39  1  0
 35 31  1  0
 35 39  1  0
 36 35  1  0
 37 38  1  0
 37 36  1  0
 38 34  1  0
 39 40  2  0
 40 41  1  0
 42 41  2  0
 43 42  1  0
 44 18  1  0
 44 45  1  0
 44 54  1  0
 45 48  1  0
 46 50  1  0
 46 45  1  0
 47 46  2  0
 50 49  1  0
 52 50  1  0
 52 53  1  0
 52 51  1  0
 54 57  1  1
 54 55  1  0
 56 54  1  0
 58 59  1  0
 60 59  1  0
 61 60  1  0
 62 67  1  0
 63 64  1  0
 63 62  1  0
 65 64  1  0
 65 72  1  0
 65 66  1  0
 67 61  1  0
 67 66  1  0
 68 61  2  0
 69 70  2  0
 70 89  1  0
 71 70  1  0
 71 74  1  0
 72 73  1  0
 72 69  1  0
 73 71  2  0
 74 75  1  0
 75 76  2  0
 77 80  1  0
 77 76  1  0
 78 77  2  0
 79 78  1  0
 79 74  2  0
 80 81  1  0
 81 82  1  0
 82 83  2  0
 84 83  1  0
 84 88  1  0
 85 84  2  0
 86 81  2  0
 86 85  1  0
 87 86  1  0
 89 90  1  0
 90 93  1  0
 90 92  1  0
 91 89  2  0
 94 69  1  0
 94 95  1  0
 96 94  1  0
M  ISO  4  16 101  17 101  60 100  61 100
M  END
>  <TORSDO>  (2) 
F 23

>  <SCORE>  (2) 
-11.459

>  <name>  (2) 
1

>  <ligand_id>  (2) 
1

>  <original_smiles>  (2) 
[H]c1c([H])c([H])c2c(c1[H])C([H])([H])C([H])([H])C([H])([H])C2([H])N([H])C(=O)C1([H])N(C(=O)C([H])(N([H])C(=O)C([H])(N([H])C([H])([H])[H])C([H])([H])[H])C(C([H])([H])[H])(C([H])([H])[H])C([H])([H])[H])C([H])([H])c2c([H])c(OC([H])([H])C([H])([H])C([H])([H])N([H])c3c([H])c([H])c4c(c3[H])C([H])([H])[N+]([H])(C([H])([H])C([H])([H])C([H])([H])C(=O)N3C([H])([H])C([H])([H])C([H])([H])C([H])(n5nc(-c6c([H])c([H])c(Oc7c([H])c([H])c(F)c([H])c7F)c([H])c6[H])c(C(=O)N([H])[H])c5N([H])[H])C3([H])[H])C([H])([H])C4([H])[H])c([H])c([H])c2C1([H])[H]

>  <smiles>  (2) 
[H]c1c([H])c([H])c2c(c1[H])C([H])([H])C([H])([H])C([H])([H])C2([H])N([H])C(=O)C1([H])N(C(=O)C([H])(N([H])C(=O)C([H])(N([H])C([H])([H])[H])C([H])([H])[H])C(C([H])([H])[H])(C([H])([H])[H])C([H])([H])[H])C([H])([H])c2c([H])c(OC([H])([H])C([H])([H])C([H])([H])N([H])c3c([H])c([H])c4c(c3[H])C([H])([H])[N+]([H])(C([H])([H])C([H])([H])C([H])([H])C(=O)N3C([H])([H])C([H])([H])C([H])([H])C([H])(n5nc(-c6c([H])c([H])c(Oc7c([H])c([H])c(F)c([H])c7F)c([H])c6[H])c(C(=O)N([H])[H])c5N([H])[H])C3([H])[H])C([H])([H])C4([H])[H])c([H])c([H])c2C1([H])[H]

$$$$
2:0:0
     RDKit          3D

105113  0  0  1  0  0  0  0  0999 V2000
  -32.4270  -19.9820   19.0860 C   0  0  0  0  0  3  0  0  0  0  0  0
  -34.1050  -20.6020   17.2120 C   0  0  0  0  0  1  0  0  0  0  0  0
  -33.5900  -18.1680   17.6000 C   0  0  0  0  0  1  0  0  0  0  0  0
  -33.6870  -19.5540   18.2590 C   0  0  0  0  0  3  0  0  0  0  0  0
  -32.2130  -19.1590   20.4150 C   0  0  0  0  0  3  0  0  0  0  0  0
  -31.6540  -17.7990   20.1690 N   0  0  0  0  0  4  0  0  0  0  0  0
  -31.1300  -17.8180   19.3090 H   0  0  0  0  0  0  0  0  0  0  0  0
  -32.4410  -17.1790   20.0200 H   0  0  0  0  0  0  0  0  0  0  0  0
  -30.8120  -17.1710   21.2340 C   0  0  0  0  0  3  0  0  0  0  0  0
  -30.2690  -15.7850   20.7850 C   0  0  0  0  0  2  0  0  0  0  0  0
  -31.1820  -14.6030   20.3530 C   0  0  0  0  0  0  0  0  0  0  0  0
  -30.9200  -12.5350   19.0290 C   0  0  0  0  0  2  0  0  0  0  0  0
  -29.9690  -12.8580   17.8540 C   0  0  0  0  0  2  0  0  0  0  0  0
  -28.4760  -12.7610   18.2610 C   0  0  0  0  0  2  0  0  0  0  0  0
  -28.1730  -13.5110   19.5830 C   0  0  0  0  0  3  0  0  0  0  0  0
  -29.2060  -13.0800   20.6500 C   0  0  0  0  0  2  0  0  0  0  0  0
  -30.5560  -13.4110   20.1500 N   0  0  0  0  0  0  0  0  0  0  0  0
  -32.3380  -14.8330   19.9770 O   0  0  0  0  0  0  0  0  0  0  0  0
  -25.7920  -14.2410   20.2620 C   0  0  0  0  0  0  0  0  0  0  0  0
  -24.6860  -13.5170   20.6230 C   0  0  0  0  0  0  0  0  0  0  0  0
  -25.0960  -12.1480   20.6130 C   0  0  0  0  0  0  0  0  0  0  0  0
  -26.8020  -13.3100   20.0460 N   0  0  0  0  0  0  0  0  0  0  0  0
  -26.3850  -12.0510   20.3150 N   0  0  0  0  0  0  0  0  0  0  0  0
  -24.3270  -10.9150   20.8130 C   0  0  0  0  0  0  0  0  0  0  0  0
  -24.7280   -9.9370   21.7500 C   0  0  0  0  0  3  0  0  0  0  0  0
  -23.9580   -8.7710   21.9380 C   0  0  0  0  0  3  0  0  0  0  0  0
  -22.7780   -8.5680   21.1830 C   0  0  0  0  0  0  0  0  0  0  0  0
  -22.3990   -9.5340   20.2320 C   0  0  0  0  0  3  0  0  0  0  0  0
  -23.1690  -10.6930   20.0420 C   0  0  0  0  0  3  0  0  0  0  0  0
  -21.9890   -7.4460   21.2700 O   0  0  0  0  0  0  0  0  0  0  0  0
  -21.9070   -6.7090   22.4260 C   0  0  0  0  0  0  0  0  0  0  0  0
  -21.5180   -7.2950   23.6500 C   0  0  0  0  0  3  0  0  0  0  0  0
  -21.3810   -6.4950   24.8040 C   0  0  0  0  0  3  0  0  0  0  0  0
  -21.6210   -5.1100   24.7300 C   0  0  0  0  0  0  0  0  0  0  0  0
  -21.9970   -4.5210   23.5120 C   0  0  0  0  0  3  0  0  0  0  0  0
  -22.1390   -5.3200   22.3620 C   0  0  0  0  0  0  0  0  0  0  0  0
  -22.4830   -4.7440   21.1850 F   0  0  0  0  0  0  0  0  0  0  0  0
  -21.4770   -4.3410   25.8370 F   0  0  0  0  0  0  0  0  0  0  0  0
  -23.3040  -14.0480   20.8780 C   0  0  0  0  0  0  0  0  0  0  0  0
  -22.5460  -13.3930   21.7510 N   0  0  0  0  0  0  0  0  0  0  0  0
  -22.9030  -15.0760   20.3300 O   0  0  0  0  0  0  0  0  0  0  0  0
  -22.8800  -12.5620   22.2180 H   0  0  0  0  0  0  0  0  0  0  0  0
  -21.6170  -13.7290   21.9610 H   0  0  0  0  0  0  0  0  0  0  0  0
  -26.0200  -15.6020   20.0790 N   0  0  0  0  0  0  0  0  0  0  0  0
  -25.2990  -16.2980   20.2280 H   0  0  0  0  0  0  0  0  0  0  0  0
  -26.8860  -16.0000   19.7430 H   0  0  0  0  0  0  0  0  0  0  0  0
  -29.5300  -18.0090   21.6000 C   0  0  0  0  0  2  0  0  0  0  0  0
  -29.9080  -22.2760   22.4460 C   0  0  0  0  0  3  0  0  0  0  0  0
  -28.8860  -21.8060   21.6030 C   0  0  0  0  0  3  0  0  0  0  0  0
  -30.7830  -21.3630   23.0600 C   0  0  0  0  0  3  0  0  0  0  0  0
  -28.7660  -20.4220   21.3560 C   0  0  0  0  0  3  0  0  0  0  0  0
  -30.6660  -19.9810   22.8000 C   0  0  0  0  0  3  0  0  0  0  0  0
  -29.6760  -19.5000   21.9140 C   0  0  0  0  0  0  0  0  0  0  0  0
  -34.1130  -20.3930   21.6850 C   0  0  0  0  0  1  0  0  0  0  0  0
  -33.4690  -19.0500   21.3170 C   0  0  0  0  0  2  0  0  0  0  0  0
  -31.1400  -20.1040   18.2100 C   0  0  0  0  0  2  0  0  0  0  0  0
  -28.7340  -20.8620   17.9350 C   0  0  0  0  0  1  0  0  0  0  0  0
  -30.1110  -21.2430   18.5400 C   0  0  0  0  0  3  0  0  0  0  0  0
  -30.9800  -22.7320   16.7320 C   0  0  0  0  0  1  0  0  0  0  0  0
  -30.5200  -22.6400   18.1450 N   0  0  1  0  0  4  0  0  0  0  0  0
  -31.3220  -22.8750   18.7140 H   0  0  0  0  0  0  0  0  0  0  0  0
  -29.4870  -23.6780   18.4800 C   0  0  0  0  0  2  0  0  0  0  0  0
  -30.0170  -25.1370   18.5830 C   0  0  0  0  0  2  0  0  0  0  0  0
  -28.9120  -26.2150   18.4910 C   0  0  0  0  0  2  0  0  0  0  0  0
  -28.4200  -26.5710   19.7810 O   0  0  0  0  0  0  0  0  0  0  0  0
  -24.5990  -31.6140   23.0390 C   0  0  0  0  0  0  0  0  0  0  0  0
  -27.2490  -27.2920   19.8000 C   0  0  0  0  0  0  0  0  0  0  0  0
  -23.3880  -30.2580   21.3610 C   0  0  0  0  0  3  0  0  0  0  0  0
  -24.8400  -28.7660   19.8860 C   0  0  0  0  0  0  0  0  0  0  0  0
  -25.9100  -30.6320   21.1640 C   0  0  0  0  0  2  0  0  0  0  0  0
  -25.9970  -29.2800   20.4850 C   0  0  0  0  0  0  0  0  0  0  0  0
  -27.2000  -28.5440   20.4520 C   0  0  0  0  0  3  0  0  0  0  0  0
  -26.0710  -26.7780   19.2140 C   0  0  0  0  0  3  0  0  0  0  0  0
  -24.8670  -27.5090   19.2540 C   0  0  0  0  0  3  0  0  0  0  0  0
  -23.5940  -29.6220   19.9610 C   0  0  0  0  0  2  0  0  0  0  0  0
  -24.6500  -30.8480   21.9140 N   0  0  0  0  0  0  0  0  0  0  0  0
  -23.5210  -31.8680   23.5930 O   0  0  0  0  0  0  0  0  0  0  0  0
  -22.7480  -29.2050   22.2930 C   0  0  0  0  0  0  0  0  0  0  0  0
  -21.4200  -29.0380   22.1840 N   0  0  0  0  0  0  0  0  0  0  0  0
  -23.4400  -28.5430   23.0700 O   0  0  0  0  0  0  0  0  0  0  0  0
  -20.9200  -29.6270   21.5330 H   0  0  0  0  0  0  0  0  0  0  0  0
  -18.0440  -27.8650   22.7080 C   0  0  0  0  0  0  0  0  0  0  0  0
  -20.6090  -28.0790   22.9340 C   0  0  0  0  0  3  0  0  0  0  0  0
  -20.6790  -26.6710   22.2960 C   0  0  0  0  0  2  0  0  0  0  0  0
  -19.5510  -26.4050   21.2940 C   0  0  0  0  0  2  0  0  0  0  0  0
  -18.1870  -26.5420   21.9760 C   0  0  0  0  0  2  0  0  0  0  0  0
  -19.1810  -28.5940   23.1450 C   0  0  0  0  0  0  0  0  0  0  0  0
  -18.9940  -29.8360   23.7900 C   0  0  0  0  0  3  0  0  0  0  0  0
  -17.7000  -30.3480   24.0030 C   0  0  0  0  0  3  0  0  0  0  0  0
  -16.5780  -29.6150   23.5820 C   0  0  0  0  0  3  0  0  0  0  0  0
  -16.7510  -28.3750   22.9420 C   0  0  0  0  0  3  0  0  0  0  0  0
  -25.8880  -32.2310   23.6670 C   0  0  0  0  0  3  0  0  0  0  0  0
  -25.5760  -33.6140   24.0500 N   0  0  0  0  0  0  0  0  0  0  0  0
  -25.9010  -34.6940   23.3270 C   0  0  0  0  0  0  0  0  0  0  0  0
  -26.5650  -34.6300   22.2890 O   0  0  0  0  0  0  0  0  0  0  0  0
  -24.9850  -33.7360   24.8580 H   0  0  0  0  0  0  0  0  0  0  0  0
  -24.1550  -36.4820   23.0510 C   0  0  0  0  0  1  0  0  0  0  0  0
  -25.4080  -36.0620   23.8360 C   0  0  0  0  0  3  0  0  0  0  0  0
  -27.5430  -36.9340   24.6760 C   0  0  0  0  0  1  0  0  0  0  0  0
  -26.4310  -37.1250   23.7480 N   0  0  0  0  0  0  0  0  0  0  0  0
  -26.0200  -38.0360   23.9320 H   0  0  0  0  0  0  0  0  0  0  0  0
  -26.4270  -31.4150   24.9050 C   0  0  1  0  0  0  0  0  0  0  0  0
  -25.3520  -31.1310   25.9810 C   0  0  0  0  0  1  0  0  0  0  0  0
  -27.0110  -30.0560   24.4520 C   0  0  0  0  0  1  0  0  0  0  0  0
  -27.5850  -32.1880   25.5830 C   0  0  0  0  0  1  0  0  0  0  0  0
  1 56  1  0
  1  5  1  0
  2  4  1  0
  3  4  1  0
  4  1  1  0
  5 55  1  0
  6  5  1  0
  6  9  1  0
  7  6  1  0
  8  6  1  0
  9 10  1  0
  9 47  1  0
 11 10  1  0
 12 17  1  0
 13 14  1  0
 13 12  1  0
 15 14  1  0
 15 22  1  0
 15 16  1  0
 17 11  1  0
 17 16  1  0
 18 11  2  0
 19 20  2  0
 20 39  1  0
 21 20  1  0
 21 24  1  0
 22 19  1  0
 22 23  1  0
 23 21  2  0
 24 25  1  0
 25 26  2  0
 27 30  1  0
 27 26  1  0
 28 27  2  0
 29 28  1  0
 29 24  2  0
 30 31  1  0
 31 32  1  0
 32 33  2  0
 34 33  1  0
 34 38  1  0
 35 34  2  0
 36 31  2  0
 36 35  1  0
 37 36  1  0
 39 40  1  0
 40 43  1  0
 40 42  1  0
 41 39  2  0
 44 45  1  0
 44 19  1  0
 46 44  1  0
 47 53  1  0
 48 50  1  0
 49 48  2  0
 51 49  1  0
 51 53  2  0
 52 50  2  0
 53 52  1  0
 55 54  1  0
 56 58  1  0
 58 57  1  0
 59 60  1  0
 60 62  1  0
 60 58  1  0
 60 61  1  1
 62 63  1  0
 64 63  1  0
 64 65  1  0
 65 67  1  0
 66 77  2  0
 67 72  1  0
 68 76  1  0
 68 78  1  0
 69 75  1  0
 69 71  1  0
 70 76  1  0
 71 70  1  0
 72 71  2  0
 73 74  1  0
 73 67  2  0
 74 69  2  0
 75 68  1  0
 76 66  1  0
 78 80  2  0
 79 78  1  0
 81 79  1  0
 82 91  2  0
 82 87  1  0
 83 79  1  0
 83 87  1  0
 84 83  1  0
 85 86  1  0
 85 84  1  0
 86 82  1  0
 87 88  2  0
 88 89  1  0
 90 89  2  0
 91 90  1  0
 92 66  1  0
 92 93  1  0
 92102  1  0
 93 96  1  0
 94 98  1  0
 94 93  1  0
 95 94  2  0
 98 97  1  0
100 98  1  0
100101  1  0
100 99  1  0
102105  1  1
102103  1  0
104102  1  0
M  ISO  4  10 100  11 100  64 101  65 101
M  END
>  <TORSDO>  (3) 
F 30

>  <SCORE>  (3) 
-9.624

>  <name>  (3) 
2

>  <ligand_id>  (3) 
2

>  <original_smiles>  (3) 
[H]c1c([H])c([H])c(C([H])([H])C([H])(C([H])([H])C(=O)N2C([H])([H])C([H])([H])C([H])([H])C([H])(n3nc(-c4c([H])c([H])c(Oc5c([H])c([H])c(F)c([H])c5F)c([H])c4[H])c(C(=O)N([H])[H])c3N([H])[H])C2([H])[H])[N+]([H])([H])C([H])(C([H])([H])C([H])([H])[H])C([H])(C([H])([H])C([H])(C([H])([H])[H])[N+]([H])(C([H])([H])[H])C([H])([H])C([H])([H])C([H])([H])Oc2c([H])c([H])c3c(c2[H])C([H])([H])N(C(=O)C([H])(N([H])C(=O)C([H])(N([H])C([H])([H])[H])C([H])([H])[H])C(C([H])([H])[H])(C([H])([H])[H])C([H])([H])[H])C([H])(C(=O)N([H])C2([H])c4c([H])c([H])c([H])c([H])c4C([H])([H])C([H])([H])C2([H])[H])C3([H])[H])C([H])(C([H])([H])[H])C([H])([H])[H])c([H])c1[H]

>  <smiles>  (3) 
[H]c1c([H])c([H])c(C([H])([H])C([H])(C([H])([H])C(=O)N2C([H])([H])C([H])([H])C([H])([H])C([H])(n3nc(-c4c([H])c([H])c(Oc5c([H])c([H])c(F)c([H])c5F)c([H])c4[H])c(C(=O)N([H])[H])c3N([H])[H])C2([H])[H])[N+]([H])([H])C([H])(C([H])([H])C([H])([H])[H])C([H])(C([H])([H])C([H])(C([H])([H])[H])[N+]([H])(C([H])([H])[H])C([H])([H])C([H])([H])C([H])([H])Oc2c([H])c([H])c3c(c2[H])C([H])([H])N(C(=O)C([H])(N([H])C(=O)C([H])(N([H])C([H])([H])[H])C([H])([H])[H])C(C([H])([H])[H])(C([H])([H])[H])C([H])([H])[H])C([H])(C(=O)N([H])C2([H])c4c([H])c([H])c([H])c([H])c4C([H])([H])C([H])([H])C2([H])[H])C3([H])[H])C([H])(C([H])([H])[H])C([H])([H])[H])c([H])c1[H]

$$$$
3:0:0
     RDKit          3D

 93101  0  0  1  0  0  0  0  0999 V2000
  -30.7570  -23.2310   19.7780 C   0  0  0  0  0  0  0  0  0  0  0  0
  -30.0520  -23.8670   18.8420 N   0  0  0  0  0  0  0  0  0  0  0  0
  -31.5230  -23.8100   20.5480 O   0  0  0  0  0  0  0  0  0  0  0  0
  -29.4360  -23.3000   18.2730 H   0  0  0  0  0  0  0  0  0  0  0  0
  -30.5740  -21.7090   19.9060 C   0  0  0  0  0  2  0  0  0  0  0  0
  -28.6790  -21.8230   21.6850 C   0  0  0  0  0  1  0  0  0  0  0  0
  -30.0730  -21.2620   21.3160 C   0  0  0  0  0  3  0  0  0  0  0  0
  -29.1450  -17.4430   21.0620 C   0  0  0  0  0  2  0  0  0  0  0  0
  -31.5260  -17.6440   21.8970 C   0  0  0  0  0  2  0  0  0  0  0  0
  -29.1770  -18.9200   20.6500 C   0  0  0  0  0  2  0  0  0  0  0  0
  -31.5430  -19.1260   21.4820 C   0  0  0  0  0  2  0  0  0  0  0  0
  -30.5500  -16.8150   21.0310 C   0  0  0  0  0  3  0  0  0  0  0  0
  -30.1260  -19.7290   21.5580 C   0  0  0  0  0  3  0  0  0  0  0  0
  -30.5310  -15.3190   21.4270 C   0  0  0  0  0  2  0  0  0  0  0  0
  -30.8290  -14.3560   20.2590 C   0  0  0  0  0  0  0  0  0  0  0  0
  -30.3350  -12.3580   18.8760 C   0  0  0  0  0  2  0  0  0  0  0  0
  -29.3180  -12.6780   17.7610 C   0  0  0  0  0  2  0  0  0  0  0  0
  -27.8720  -12.5570   18.2800 C   0  0  0  0  0  2  0  0  0  0  0  0
  -27.6570  -13.3010   19.6220 C   0  0  0  0  0  3  0  0  0  0  0  0
  -28.7660  -12.9280   20.6290 C   0  0  0  0  0  2  0  0  0  0  0  0
  -30.0680  -13.2530   20.0190 N   0  0  0  0  0  0  0  0  0  0  0  0
  -31.8120  -14.6170   19.5600 O   0  0  0  0  0  0  0  0  0  0  0  0
  -25.3050  -13.9370   20.4650 C   0  0  0  0  0  0  0  0  0  0  0  0
  -24.2420  -13.1690   20.8710 C   0  0  0  0  0  0  0  0  0  0  0  0
  -24.6760  -11.8100   20.7730 C   0  0  0  0  0  0  0  0  0  0  0  0
  -26.3220  -13.0380   20.1580 N   0  0  0  0  0  0  0  0  0  0  0  0
  -25.9500  -11.7570   20.4000 N   0  0  0  0  0  0  0  0  0  0  0  0
  -23.9410  -10.5560   20.9720 C   0  0  0  0  0  0  0  0  0  0  0  0
  -24.3940   -9.5670   21.8750 C   0  0  0  0  0  3  0  0  0  0  0  0
  -23.6600   -8.3740   22.0580 C   0  0  0  0  0  3  0  0  0  0  0  0
  -22.4560   -8.1660   21.3420 C   0  0  0  0  0  0  0  0  0  0  0  0
  -22.0250   -9.1400   20.4270 C   0  0  0  0  0  3  0  0  0  0  0  0
  -22.7590  -10.3240   20.2420 C   0  0  0  0  0  3  0  0  0  0  0  0
  -21.6920   -7.0260   21.4370 O   0  0  0  0  0  0  0  0  0  0  0  0
  -21.6630   -6.2730   22.5830 C   0  0  0  0  0  0  0  0  0  0  0  0
  -21.2860   -6.8270   23.8280 C   0  0  0  0  0  3  0  0  0  0  0  0
  -21.2020   -6.0030   24.9660 C   0  0  0  0  0  3  0  0  0  0  0  0
  -21.4780   -4.6270   24.8640 C   0  0  0  0  0  0  0  0  0  0  0  0
  -21.8470   -4.0740   23.6250 C   0  0  0  0  0  3  0  0  0  0  0  0
  -21.9330   -4.8930   22.4870 C   0  0  0  0  0  0  0  0  0  0  0  0
  -22.2670   -4.3530   21.2930 F   0  0  0  0  0  0  0  0  0  0  0  0
  -21.3880   -3.8330   25.9560 F   0  0  0  0  0  0  0  0  0  0  0  0
  -22.8700  -13.6580   21.2280 C   0  0  0  0  0  0  0  0  0  0  0  0
  -22.1790  -12.9500   22.1190 N   0  0  0  0  0  0  0  0  0  0  0  0
  -22.4220  -14.7060   20.7660 O   0  0  0  0  0  0  0  0  0  0  0  0
  -22.5550  -12.1030   22.5150 H   0  0  0  0  0  0  0  0  0  0  0  0
  -21.2620  -13.2590   22.4010 H   0  0  0  0  0  0  0  0  0  0  0  0
  -25.4830  -15.3040   20.3130 N   0  0  0  0  0  0  0  0  0  0  0  0
  -24.7360  -15.9710   20.4760 H   0  0  0  0  0  0  0  0  0  0  0  0
  -26.3300  -15.7390   19.9700 H   0  0  0  0  0  0  0  0  0  0  0  0
  -29.9420  -25.3240   18.7020 C   0  0  0  0  0  2  0  0  0  0  0  0
  -28.5130  -25.7790   19.0210 C   0  0  0  0  0  2  0  0  0  0  0  0
  -28.4600  -26.8410   19.9790 O   0  0  0  0  0  0  0  0  0  0  0  0
  -24.5760  -31.8800   23.2360 C   0  0  0  0  0  0  0  0  0  0  0  0
  -27.2520  -27.4970   20.0970 C   0  0  0  0  0  0  0  0  0  0  0  0
  -23.3650  -30.4770   21.5830 C   0  0  0  0  0  3  0  0  0  0  0  0
  -24.8310  -28.9380   20.1930 C   0  0  0  0  0  0  0  0  0  0  0  0
  -25.8960  -30.8520   21.4060 C   0  0  0  0  0  2  0  0  0  0  0  0
  -25.9920  -29.4890   20.7470 C   0  0  0  0  0  0  0  0  0  0  0  0
  -27.2070  -28.7720   20.7010 C   0  0  0  0  0  3  0  0  0  0  0  0
  -26.0500  -26.9390   19.6000 C   0  0  0  0  0  3  0  0  0  0  0  0
  -24.8440  -27.6520   19.6400 C   0  0  0  0  0  3  0  0  0  0  0  0
  -23.5890  -29.7870   20.2160 C   0  0  0  0  0  2  0  0  0  0  0  0
  -24.6240  -31.0880   22.1280 N   0  0  0  0  0  0  0  0  0  0  0  0
  -23.4960  -32.1460   23.7740 O   0  0  0  0  0  0  0  0  0  0  0  0
  -22.7170  -29.4540   22.5430 C   0  0  0  0  0  0  0  0  0  0  0  0
  -21.3920  -29.2700   22.4270 N   0  0  0  0  0  0  0  0  0  0  0  0
  -23.4030  -28.8280   23.3570 O   0  0  0  0  0  0  0  0  0  0  0  0
  -20.8950  -29.8260   21.7440 H   0  0  0  0  0  0  0  0  0  0  0  0
  -18.0260  -28.0610   22.9310 C   0  0  0  0  0  0  0  0  0  0  0  0
  -20.5830  -28.3280   23.1970 C   0  0  0  0  0  3  0  0  0  0  0  0
  -20.6900  -26.8960   22.6210 C   0  0  0  0  0  2  0  0  0  0  0  0
  -19.5860  -26.5680   21.6110 C   0  0  0  0  0  2  0  0  0  0  0  0
  -18.2050  -26.7110   22.2570 C   0  0  0  0  0  2  0  0  0  0  0  0
  -19.1420  -28.8270   23.3580 C   0  0  0  0  0  0  0  0  0  0  0  0
  -18.9250  -30.0910   23.9460 C   0  0  0  0  0  3  0  0  0  0  0  0
  -17.6200  -30.5890   24.1110 C   0  0  0  0  0  3  0  0  0  0  0  0
  -16.5150  -29.8220   23.7020 C   0  0  0  0  0  3  0  0  0  0  0  0
  -16.7190  -28.5600   23.1160 C   0  0  0  0  0  3  0  0  0  0  0  0
  -25.8690  -32.5020   23.8510 C   0  0  0  0  0  3  0  0  0  0  0  0
  -25.5630  -33.8990   24.1870 N   0  0  0  0  0  0  0  0  0  0  0  0
  -25.8930  -34.9500   23.4230 C   0  0  0  0  0  0  0  0  0  0  0  0
  -26.5530  -34.8460   22.3860 O   0  0  0  0  0  0  0  0  0  0  0  0
  -24.9960  -34.0590   25.0050 H   0  0  0  0  0  0  0  0  0  0  0  0
  -24.1610  -36.7320   23.0710 C   0  0  0  0  0  1  0  0  0  0  0  0
  -25.4030  -36.3290   23.8840 C   0  0  0  0  0  3  0  0  0  0  0  0
  -27.5300  -37.2170   24.7250 C   0  0  0  0  0  1  0  0  0  0  0  0
  -26.4340  -37.3870   23.7760 N   0  0  0  0  0  0  0  0  0  0  0  0
  -26.0150  -38.3010   23.9270 H   0  0  0  0  0  0  0  0  0  0  0  0
  -26.4020  -31.7160   25.1150 C   0  0  1  0  0  0  0  0  0  0  0  0
  -25.3100  -31.4730   26.1810 C   0  0  0  0  0  1  0  0  0  0  0  0
  -26.9930  -30.3400   24.7160 C   0  0  0  0  0  1  0  0  0  0  0  0
  -27.5500  -32.5140   25.7690 C   0  0  0  0  0  1  0  0  0  0  0  0
  1  5  1  0
  1  3  2  0
  2  1  1  0
  4  2  1  0
  5  7  1  0
  7  6  1  0
 10  8  1  0
 10 13  1  0
 11 13  1  0
 11  9  1  0
 12  8  1  0
 12 14  1  0
 12  9  1  0
 13  7  1  0
 15 14  1  0
 16 21  1  0
 17 18  1  0
 17 16  1  0
 19 18  1  0
 19 26  1  0
 19 20  1  0
 21 15  1  0
 21 20  1  0
 22 15  2  0
 23 24  2  0
 24 43  1  0
 25 24  1  0
 25 28  1  0
 26 27  1  0
 26 23  1  0
 27 25  2  0
 28 29  1  0
 29 30  2  0
 31 34  1  0
 31 30  1  0
 32 31  2  0
 33 32  1  0
 33 28  2  0
 34 35  1  0
 35 36  1  0
 36 37  2  0
 38 37  1  0
 38 42  1  0
 39 38  2  0
 40 35  2  0
 40 39  1  0
 41 40  1  0
 43 44  1  0
 44 47  1  0
 44 46  1  0
 45 43  2  0
 48 23  1  0
 48 49  1  0
 50 48  1  0
 51  2  1  0
 51 52  1  0
 52 53  1  0
 53 55  1  0
 54 65  2  0
 55 60  1  0
 56 64  1  0
 56 66  1  0
 57 63  1  0
 57 59  1  0
 58 64  1  0
 59 58  1  0
 60 59  2  0
 61 62  1  0
 61 55  2  0
 62 57  2  0
 63 56  1  0
 64 54  1  0
 66 68  2  0
 67 66  1  0
 69 67  1  0
 70 79  2  0
 70 75  1  0
 71 67  1  0
 71 75  1  0
 72 71  1  0
 73 74  1  0
 73 72  1  0
 74 70  1  0
 75 76  2  0
 76 77  1  0
 78 77  2  0
 79 78  1  0
 80 54  1  0
 80 81  1  0
 80 90  1  0
 81 84  1  0
 82 86  1  0
 82 81  1  0
 83 82  2  0
 86 85  1  0
 88 86  1  0
 88 89  1  0
 88 87  1  0
 90 93  1  1
 90 91  1  0
 92 90  1  0
M  ISO  4  14 100  15 100  52 101  53 101
M  END
>  <TORSDO>  (4) 
F 22

>  <SCORE>  (4) 
-12.905

>  <name>  (4) 
3

>  <ligand_id>  (4) 
3

>  <original_smiles>  (4) 
[H]c1c([H])c([H])c2c(c1[H])C([H])([H])C([H])([H])C([H])([H])C2([H])N([H])C(=O)C1([H])N(C(=O)C([H])(N([H])C(=O)C([H])(N([H])C([H])([H])[H])C([H])([H])[H])C(C([H])([H])[H])(C([H])([H])[H])C([H])([H])[H])C([H])([H])c2c([H])c(OC([H])([H])C([H])([H])N([H])C(=O)C([H])([H])C([H])(C([H])([H])[H])C3([H])C([H])([H])C([H])([H])C([H])(C([H])([H])C(=O)N4C([H])([H])C([H])([H])C([H])([H])C([H])(n5nc(-c6c([H])c([H])c(Oc7c([H])c([H])c(F)c([H])c7F)c([H])c6[H])c(C(=O)N([H])[H])c5N([H])[H])C4([H])[H])C([H])([H])C3([H])[H])c([H])c([H])c2C1([H])[H]

>  <smiles>  (4) 
[H]c1c([H])c([H])c2c(c1[H])C([H])([H])C([H])([H])C([H])([H])C2([H])N([H])C(=O)C1([H])N(C(=O)C([H])(N([H])C(=O)C([H])(N([H])C([H])([H])[H])C([H])([H])[H])C(C([H])([H])[H])(C([H])([H])[H])C([H])([H])[H])C([H])([H])c2c([H])c(OC([H])([H])C([H])([H])N([H])C(=O)C([H])([H])C([H])(C([H])([H])[H])C3([H])C([H])([H])C([H])([H])C([H])(C([H])([H])C(=O)N4C([H])([H])C([H])([H])C([H])([H])C([H])(n5nc(-c6c([H])c([H])c(Oc7c([H])c([H])c(F)c([H])c7F)c([H])c6[H])c(C(=O)N([H])[H])c5N([H])[H])C4([H])[H])C([H])([H])C3([H])[H])c([H])c([H])c2C1([H])[H]

$$$$
4:0:0
     RDKit          3D

 89 97  0  0  1  0  0  0  0  0999 V2000
  -27.7170  -23.1050   21.7310 C   0  0  0  0  0  2  0  0  0  0  0  0
  -27.3140  -24.5830   21.4920 C   0  0  0  0  0  2  0  0  0  0  0  0
  -28.9450  -23.9360   19.8220 C   0  0  0  0  0  2  0  0  0  0  0  0
  -28.3720  -22.5740   20.4270 C   0  0  0  0  0  3  0  0  0  0  0  0
  -28.4900  -25.1680   20.7080 C   0  0  0  0  0  3  0  0  0  0  0  0
  -29.3450  -21.3200   20.6800 C   0  0  0  0  0  0  0  0  0  0  0  0
  -27.6430  -19.7140   19.9030 C   0  0  0  0  0  1  0  0  0  0  0  0
  -28.9790  -19.9980   20.4330 N   0  0  0  0  0  0  0  0  0  0  0  0
  -30.4470  -21.5730   21.1730 O   0  0  0  0  0  0  0  0  0  0  0  0
  -29.6360  -18.7480   21.0240 C   0  0  0  0  0  2  0  0  0  0  0  0
  -29.9710  -17.4440   20.1330 C   0  0  0  0  0  3  0  0  0  0  0  0
  -30.0230  -16.0160   20.8810 C   0  0  0  0  0  3  0  0  0  0  0  0
  -30.7030  -14.7350   20.2050 C   0  0  0  0  0  0  0  0  0  0  0  0
  -30.4610  -12.4990   19.0980 C   0  0  0  0  0  2  0  0  0  0  0  0
  -29.4900  -12.6310   17.9040 C   0  0  0  0  0  2  0  0  0  0  0  0
  -28.0260  -12.4740   18.3590 C   0  0  0  0  0  2  0  0  0  0  0  0
  -27.7060  -13.3240   19.6170 C   0  0  0  0  0  3  0  0  0  0  0  0
  -28.7880  -13.1470   20.7050 C   0  0  0  0  0  2  0  0  0  0  0  0
  -30.0790  -13.5110   20.1090 N   0  0  0  0  0  0  0  0  0  0  0  0
  -31.8280  -14.8770   19.7150 O   0  0  0  0  0  0  0  0  0  0  0  0
  -25.3320  -13.9380   20.3750 C   0  0  0  0  0  0  0  0  0  0  0  0
  -24.2690  -13.1690   20.7700 C   0  0  0  0  0  0  0  0  0  0  0  0
  -24.7270  -11.8170   20.7410 C   0  0  0  0  0  0  0  0  0  0  0  0
  -26.3670  -13.0510   20.1290 N   0  0  0  0  0  0  0  0  0  0  0  0
  -26.0110  -11.7710   20.4080 N   0  0  0  0  0  0  0  0  0  0  0  0
  -23.9990  -10.5570   20.9510 C   0  0  0  0  0  0  0  0  0  0  0  0
  -24.4390   -9.5960   21.8890 C   0  0  0  0  0  3  0  0  0  0  0  0
  -23.7150   -8.4000   22.0840 C   0  0  0  0  0  3  0  0  0  0  0  0
  -22.5340   -8.1580   21.3440 C   0  0  0  0  0  0  0  0  0  0  0  0
  -22.1140   -9.1040   20.3930 C   0  0  0  0  0  3  0  0  0  0  0  0
  -22.8400  -10.2910   20.1960 C   0  0  0  0  0  3  0  0  0  0  0  0
  -21.7770   -7.0170   21.4510 O   0  0  0  0  0  0  0  0  0  0  0  0
  -21.7270   -6.2930   22.6150 C   0  0  0  0  0  0  0  0  0  0  0  0
  -21.3020   -6.8670   23.8330 C   0  0  0  0  0  3  0  0  0  0  0  0
  -21.2020   -6.0690   24.9910 C   0  0  0  0  0  3  0  0  0  0  0  0
  -21.5130   -4.6980   24.9300 C   0  0  0  0  0  0  0  0  0  0  0  0
  -21.9300   -4.1210   23.7160 C   0  0  0  0  0  3  0  0  0  0  0  0
  -22.0310   -4.9170   22.5620 C   0  0  0  0  0  0  0  0  0  0  0  0
  -22.4130   -4.3540   21.3900 F   0  0  0  0  0  0  0  0  0  0  0  0
  -21.4080   -3.9280   26.0390 F   0  0  0  0  0  0  0  0  0  0  0  0
  -22.8790  -13.6530   21.0610 C   0  0  0  0  0  0  0  0  0  0  0  0
  -22.1630  -12.9650   21.9420 N   0  0  0  0  0  0  0  0  0  0  0  0
  -22.4370  -14.6760   20.5410 O   0  0  0  0  0  0  0  0  0  0  0  0
  -22.5360  -12.1380   22.3840 H   0  0  0  0  0  0  0  0  0  0  0  0
  -21.2320  -13.2730   22.1870 H   0  0  0  0  0  0  0  0  0  0  0  0
  -25.4980  -15.3080   20.1880 N   0  0  0  0  0  0  0  0  0  0  0  0
  -24.7400  -15.9680   20.3180 H   0  0  0  0  0  0  0  0  0  0  0  0
  -26.3470  -15.7470   19.8520 H   0  0  0  0  0  0  0  0  0  0  0  0
  -28.4410  -26.5620   20.1860 O   0  0  0  0  0  0  0  0  0  0  0  0
  -24.5980  -31.8810   23.2320 C   0  0  0  0  0  0  0  0  0  0  0  0
  -27.2820  -27.3520   20.2070 C   0  0  0  0  0  0  0  0  0  0  0  0
  -23.4250  -30.4760   21.5720 C   0  0  0  0  0  3  0  0  0  0  0  0
  -24.9020  -28.9310   20.1600 C   0  0  0  0  0  0  0  0  0  0  0  0
  -25.9590  -30.8160   21.4160 C   0  0  0  0  0  2  0  0  0  0  0  0
  -26.0560  -29.4390   20.7720 C   0  0  0  0  0  0  0  0  0  0  0  0
  -27.2510  -28.6610   20.7760 C   0  0  0  0  0  3  0  0  0  0  0  0
  -26.1080  -26.8920   19.5750 C   0  0  0  0  0  3  0  0  0  0  0  0
  -24.9300  -27.6660   19.5500 C   0  0  0  0  0  3  0  0  0  0  0  0
  -23.6590  -29.7980   20.1930 C   0  0  0  0  0  2  0  0  0  0  0  0
  -24.6800  -31.0770   22.1310 N   0  0  0  0  0  0  0  0  0  0  0  0
  -23.5060  -32.1480   23.7550 O   0  0  0  0  0  0  0  0  0  0  0  0
  -22.7590  -29.4550   22.5250 C   0  0  0  0  0  0  0  0  0  0  0  0
  -21.4320  -29.2790   22.3930 N   0  0  0  0  0  0  0  0  0  0  0  0
  -23.4350  -28.8260   23.3430 O   0  0  0  0  0  0  0  0  0  0  0  0
  -20.9460  -29.8410   21.7070 H   0  0  0  0  0  0  0  0  0  0  0  0
  -18.0530  -28.0820   22.8760 C   0  0  0  0  0  0  0  0  0  0  0  0
  -20.6120  -28.3350   23.1510 C   0  0  0  0  0  3  0  0  0  0  0  0
  -20.7100  -26.9100   22.5580 C   0  0  0  0  0  2  0  0  0  0  0  0
  -19.6080  -26.6000   21.5410 C   0  0  0  0  0  2  0  0  0  0  0  0
  -18.2260  -26.7400   22.1850 C   0  0  0  0  0  2  0  0  0  0  0  0
  -19.1720  -28.8390   23.3140 C   0  0  0  0  0  0  0  0  0  0  0  0
  -18.9540  -30.0950   23.9190 C   0  0  0  0  0  3  0  0  0  0  0  0
  -17.6490  -30.5950   24.0910 C   0  0  0  0  0  3  0  0  0  0  0  0
  -16.5450  -29.8370   23.6660 C   0  0  0  0  0  3  0  0  0  0  0  0
  -16.7470  -28.5810   23.0650 C   0  0  0  0  0  3  0  0  0  0  0  0
  -25.8690  -32.5210   23.8720 C   0  0  0  0  0  3  0  0  0  0  0  0
  -26.3660  -31.7590   25.1610 C   0  0  1  0  0  0  0  0  0  0  0  0
  -25.2560  -31.5220   26.2130 C   0  0  0  0  0  1  0  0  0  0  0  0
  -26.9590  -30.3830   24.7850 C   0  0  0  0  0  1  0  0  0  0  0  0
  -27.5080  -32.5570   25.8350 C   0  0  0  0  0  1  0  0  0  0  0  0
  -25.5510  -33.9200   24.1940 N   0  0  0  0  0  0  0  0  0  0  0  0
  -25.8910  -34.9720   23.4370 C   0  0  0  0  0  0  0  0  0  0  0  0
  -26.5750  -34.8670   22.4150 O   0  0  0  0  0  0  0  0  0  0  0  0
  -24.9510  -34.0770   24.9900 H   0  0  0  0  0  0  0  0  0  0  0  0
  -24.1680  -36.7600   23.0490 C   0  0  0  0  0  1  0  0  0  0  0  0
  -25.3970  -36.3620   23.8820 C   0  0  0  0  0  3  0  0  0  0  0  0
  -27.5170  -37.2500   24.7460 C   0  0  0  0  0  1  0  0  0  0  0  0
  -26.4300  -37.4160   23.7830 N   0  0  0  0  0  0  0  0  0  0  0  0
  -26.0220  -38.3370   23.9210 H   0  0  0  0  0  0  0  0  0  0  0  0
  2  1  1  0
  3  4  1  0
  3  5  1  0
  4  6  1  0
  4  1  1  0
  5 49  1  0
  5  2  1  0
  6  9  2  0
  7  8  1  0
  8  6  1  0
  8 10  1  0
 11 12  2  0
 11 10  1  0
 13 12  1  0
 14 19  1  0
 15 16  1  0
 15 14  1  0
 17 16  1  0
 17 24  1  0
 17 18  1  0
 19 13  1  0
 19 18  1  0
 20 13  2  0
 21 22  2  0
 22 41  1  0
 23 22  1  0
 23 26  1  0
 24 21  1  0
 24 25  1  0
 25 23  2  0
 26 27  1  0
 27 28  2  0
 29 32  1  0
 29 28  1  0
 30 29  2  0
 31 30  1  0
 31 26  2  0
 32 33  1  0
 33 34  1  0
 34 35  2  0
 36 35  1  0
 36 40  1  0
 37 36  2  0
 38 33  2  0
 38 37  1  0
 39 38  1  0
 41 42  1  0
 42 45  1  0
 42 44  1  0
 43 41  2  0
 46 47  1  0
 46 21  1  0
 48 46  1  0
 49 51  1  0
 50 61  2  0
 51 56  1  0
 52 60  1  0
 52 62  1  0
 53 59  1  0
 53 55  1  0
 54 60  1  0
 55 56  2  0
 55 54  1  0
 57 51  2  0
 58 57  1  0
 58 53  2  0
 59 52  1  0
 60 50  1  0
 62 64  2  0
 63 62  1  0
 65 63  1  0
 66 75  2  0
 66 71  1  0
 67 63  1  0
 67 71  1  0
 68 67  1  0
 69 70  1  0
 69 68  1  0
 70 66  1  0
 71 72  2  0
 72 73  1  0
 74 73  2  0
 75 74  1  0
 76 50  1  0
 76 81  1  0
 76 77  1  0
 77 80  1  1
 77 78  1  0
 79 77  1  0
 81 84  1  0
 82 86  1  0
 82 81  1  0
 83 82  2  0
 86 85  1  0
 88 86  1  0
 88 89  1  0
 88 87  1  0
M  ISO  4   5 101  12 100  13 100  49 101
M  END
>  <TORSDO>  (5) 
F 20

>  <SCORE>  (5) 
-13.686

>  <name>  (5) 
4

>  <ligand_id>  (5) 
4

>  <original_smiles>  (5) 
[H]c1c([H])c([H])c2c(c1[H])C([H])([H])C([H])([H])C([H])([H])C2([H])N([H])C(=O)C1([H])N(C(=O)C([H])(N([H])C(=O)C([H])(N([H])C([H])([H])[H])C([H])([H])[H])C(C([H])([H])[H])(C([H])([H])[H])C([H])([H])[H])C([H])([H])c2c([H])c(OC3([H])C([H])([H])C([H])([H])C([H])(C(=O)N(C([H])([H])[H])C([H])([H])C([H])([H])C([H])([H])C(=O)N4C([H])([H])C([H])([H])C([H])([H])C([H])(n5nc(-c6c([H])c([H])c(Oc7c([H])c([H])c(F)c([H])c7F)c([H])c6[H])c(C(=O)N([H])[H])c5N([H])[H])C4([H])[H])C3([H])[H])c([H])c([H])c2C1([H])[H]

>  <smiles>  (5) 
[H]c1c([H])c([H])c2c(c1[H])C([H])([H])C([H])([H])C([H])([H])C2([H])N([H])C(=O)C1([H])N(C(=O)C([H])(N([H])C(=O)C([H])(N([H])C([H])([H])[H])C([H])([H])[H])C(C([H])([H])[H])(C([H])([H])[H])C([H])([H])[H])C([H])([H])c2c([H])c(OC3([H])C([H])([H])C([H])([H])C([H])(C(=O)N(C([H])([H])[H])C([H])([H])C([H])([H])C([H])([H])C(=O)N4C([H])([H])C([H])([H])C([H])([H])C([H])(n5nc(-c6c([H])c([H])c(Oc7c([H])c([H])c(F)c([H])c7F)c([H])c6[H])c(C(=O)N([H])[H])c5N([H])[H])C4([H])[H])C3([H])[H])c([H])c([H])c2C1([H])[H]

$$$$
5:0:0
     RDKit          3D

 91 99  0  0  1  0  0  0  0  0999 V2000
  -30.6990  -20.8780   21.2110 C   0  0  0  0  0  0  0  0  0  0  0  0
  -30.3350  -21.7620   20.2540 N   0  0  0  0  0  0  0  0  0  0  0  0
  -30.4600  -21.0800   22.4050 O   0  0  0  0  0  0  0  0  0  0  0  0
  -30.6450  -21.5200   19.3200 H   0  0  0  0  0  0  0  0  0  0  0  0
  -31.3860  -19.5520   20.7520 C   0  0  0  0  0  2  0  0  0  0  0  0
  -31.8810  -16.9680   21.1020 C   0  0  0  0  0  2  0  0  0  0  0  0
  -29.8490  -17.9210   22.0380 C   0  0  0  0  0  2  0  0  0  0  0  0
  -30.9260  -15.7210   21.3400 C   0  0  0  0  0  3  0  0  0  0  0  0
  -31.2890  -18.2860   21.6940 C   0  0  0  0  0  3  0  0  0  0  0  0
  -29.6130  -16.4080   21.8570 C   0  0  0  0  0  3  0  0  0  0  0  0
  -28.3080  -16.2640   21.0930 C   0  0  0  0  0  1  0  0  0  0  0  0
  -31.0010  -14.6080   20.1880 C   0  0  0  0  0  0  0  0  0  0  0  0
  -30.5180  -12.4900   18.9400 C   0  0  0  0  0  2  0  0  0  0  0  0
  -29.5160  -12.7230   17.7860 C   0  0  0  0  0  2  0  0  0  0  0  0
  -28.0670  -12.6020   18.2860 C   0  0  0  0  0  2  0  0  0  0  0  0
  -27.8290  -13.3540   19.6170 C   0  0  0  0  0  3  0  0  0  0  0  0
  -28.9660  -13.0870   20.6550 C   0  0  0  0  0  2  0  0  0  0  0  0
  -30.2440  -13.4610   20.0310 N   0  0  0  0  0  0  0  0  0  0  0  0
  -31.9490  -14.7720   19.4100 O   0  0  0  0  0  0  0  0  0  0  0  0
  -25.4470  -13.9690   20.4240 C   0  0  0  0  0  0  0  0  0  0  0  0
  -24.3970  -13.2070   20.8330 C   0  0  0  0  0  0  0  0  0  0  0  0
  -24.8380  -11.8480   20.7360 C   0  0  0  0  0  0  0  0  0  0  0  0
  -26.4900  -13.0890   20.1440 N   0  0  0  0  0  0  0  0  0  0  0  0
  -26.1140  -11.8030   20.3700 N   0  0  0  0  0  0  0  0  0  0  0  0
  -24.0940  -10.5970   20.9140 C   0  0  0  0  0  0  0  0  0  0  0  0
  -24.5260   -9.6030   21.8200 C   0  0  0  0  0  3  0  0  0  0  0  0
  -23.7850   -8.4140   21.9820 C   0  0  0  0  0  3  0  0  0  0  0  0
  -22.5980   -8.2130   21.2350 C   0  0  0  0  0  0  0  0  0  0  0  0
  -22.1870   -9.1940   20.3170 C   0  0  0  0  0  3  0  0  0  0  0  0
  -22.9280  -10.3760   20.1550 C   0  0  0  0  0  3  0  0  0  0  0  0
  -21.8290   -7.0760   21.3070 O   0  0  0  0  0  0  0  0  0  0  0  0
  -21.7450   -6.3400   22.4630 C   0  0  0  0  0  0  0  0  0  0  0  0
  -21.3030   -6.9100   23.6760 C   0  0  0  0  0  3  0  0  0  0  0  0
  -21.1710   -6.1030   24.8260 C   0  0  0  0  0  3  0  0  0  0  0  0
  -21.4730   -4.7300   24.7570 C   0  0  0  0  0  0  0  0  0  0  0  0
  -21.9140   -4.1600   23.5500 C   0  0  0  0  0  3  0  0  0  0  0  0
  -22.0470   -4.9640   22.4040 C   0  0  0  0  0  0  0  0  0  0  0  0
  -22.4520   -4.4100   21.2350 F   0  0  0  0  0  0  0  0  0  0  0  0
  -21.3390   -3.9530   25.8570 F   0  0  0  0  0  0  0  0  0  0  0  0
  -23.0250  -13.6980   21.2150 C   0  0  0  0  0  0  0  0  0  0  0  0
  -22.3500  -12.9820   22.1050 N   0  0  0  0  0  0  0  0  0  0  0  0
  -22.5730  -14.7510   20.7640 O   0  0  0  0  0  0  0  0  0  0  0  0
  -22.7360  -12.1280   22.4810 H   0  0  0  0  0  0  0  0  0  0  0  0
  -21.4400  -13.2880   22.4190 H   0  0  0  0  0  0  0  0  0  0  0  0
  -25.5790  -15.3380   20.2440 N   0  0  0  0  0  0  0  0  0  0  0  0
  -24.8250  -15.9960   20.4090 H   0  0  0  0  0  0  0  0  0  0  0  0
  -26.4570  -15.7750   20.0030 H   0  0  0  0  0  0  0  0  0  0  0  0
  -29.2320  -22.7570   20.3040 C   0  0  0  0  0  2  0  0  0  0  0  0
  -29.5980  -24.2830   20.4370 C   0  0  0  0  0  2  0  0  0  0  0  0
  -28.4220  -25.1810   19.8960 C   0  0  0  0  0  2  0  0  0  0  0  0
  -28.5110  -26.6220   20.1110 O   0  0  0  0  0  0  0  0  0  0  0  0
  -24.6490  -31.8120   23.1810 C   0  0  0  0  0  0  0  0  0  0  0  0
  -27.3310  -27.3730   20.0720 C   0  0  0  0  0  0  0  0  0  0  0  0
  -23.4460  -30.4060   21.5410 C   0  0  0  0  0  3  0  0  0  0  0  0
  -24.9130  -28.8900   20.0890 C   0  0  0  0  0  0  0  0  0  0  0  0
  -25.9710  -30.7780   21.3340 C   0  0  0  0  0  2  0  0  0  0  0  0
  -26.0680  -29.4100   20.6840 C   0  0  0  0  0  0  0  0  0  0  0  0
  -27.2720  -28.6600   20.6750 C   0  0  0  0  0  3  0  0  0  0  0  0
  -26.1560  -26.8900   19.4460 C   0  0  0  0  0  3  0  0  0  0  0  0
  -24.9550  -27.6320   19.4610 C   0  0  0  0  0  3  0  0  0  0  0  0
  -23.6600  -29.7440   20.1520 C   0  0  0  0  0  2  0  0  0  0  0  0
  -24.7080  -31.0140   22.0760 N   0  0  0  0  0  0  0  0  0  0  0  0
  -23.5700  -32.0730   23.7300 O   0  0  0  0  0  0  0  0  0  0  0  0
  -22.8080  -29.3750   22.4990 C   0  0  0  0  0  0  0  0  0  0  0  0
  -21.4840  -29.1760   22.3760 N   0  0  0  0  0  0  0  0  0  0  0  0
  -23.5000  -28.7580   23.3140 O   0  0  0  0  0  0  0  0  0  0  0  0
  -20.9860  -29.7270   21.6900 H   0  0  0  0  0  0  0  0  0  0  0  0
  -18.1240  -27.9510   22.8980 C   0  0  0  0  0  0  0  0  0  0  0  0
  -20.6820  -28.2310   23.1510 C   0  0  0  0  0  3  0  0  0  0  0  0
  -20.7940  -26.8030   22.5720 C   0  0  0  0  0  2  0  0  0  0  0  0
  -19.6860  -26.4720   21.5650 C   0  0  0  0  0  2  0  0  0  0  0  0
  -18.3060  -26.6050   22.2160 C   0  0  0  0  0  2  0  0  0  0  0  0
  -19.2390  -28.7200   23.3220 C   0  0  0  0  0  0  0  0  0  0  0  0
  -19.0140  -29.9800   23.9200 C   0  0  0  0  0  3  0  0  0  0  0  0
  -17.7070  -30.4680   24.1010 C   0  0  0  0  0  3  0  0  0  0  0  0
  -16.6060  -29.6950   23.6960 C   0  0  0  0  0  3  0  0  0  0  0  0
  -16.8150  -28.4400   23.0960 C   0  0  0  0  0  3  0  0  0  0  0  0
  -25.9350  -32.4570   23.7940 C   0  0  0  0  0  3  0  0  0  0  0  0
  -25.6090  -33.8410   24.1550 N   0  0  0  0  0  0  0  0  0  0  0  0
  -25.9260  -34.9150   23.4180 C   0  0  0  0  0  0  0  0  0  0  0  0
  -26.5960  -34.8430   22.3840 O   0  0  0  0  0  0  0  0  0  0  0  0
  -25.0180  -33.9700   24.9630 H   0  0  0  0  0  0  0  0  0  0  0  0
  -24.1860  -36.7010   23.0960 C   0  0  0  0  0  1  0  0  0  0  0  0
  -25.4220  -36.2830   23.9090 C   0  0  0  0  0  3  0  0  0  0  0  0
  -27.5380  -37.1620   24.7900 C   0  0  0  0  0  1  0  0  0  0  0  0
  -26.4430  -37.3520   23.8410 N   0  0  0  0  0  0  0  0  0  0  0  0
  -26.0230  -38.2610   24.0220 H   0  0  0  0  0  0  0  0  0  0  0  0
  -26.4880  -31.6680   25.0460 C   0  0  1  0  0  0  0  0  0  0  0  0
  -25.4200  -31.3860   26.1280 C   0  0  0  0  0  1  0  0  0  0  0  0
  -27.0970  -30.3140   24.6140 C   0  0  0  0  0  1  0  0  0  0  0  0
  -27.6260  -32.4790   25.7110 C   0  0  0  0  0  1  0  0  0  0  0  0
  1  3  2  0
  2 48  1  0
  2  1  1  0
  4  2  1  0
  5  1  1  0
  6  8  1  0
  6  9  1  0
  8 12  1  0
  8 10  1  0
  9  5  1  0
  9  7  1  0
 10 11  1  0
 10  7  1  0
 13 18  1  0
 14 15  1  0
 14 13  1  0
 16 15  1  0
 16 23  1  0
 16 17  1  0
 18 12  1  0
 18 17  1  0
 19 12  2  0
 20 21  2  0
 21 40  1  0
 22 21  1  0
 22 25  1  0
 23 24  1  0
 23 20  1  0
 24 22  2  0
 25 26  1  0
 26 27  2  0
 28 31  1  0
 28 27  1  0
 29 28  2  0
 30 29  1  0
 30 25  2  0
 31 32  1  0
 32 33  1  0
 33 34  2  0
 35 34  1  0
 35 39  1  0
 36 35  2  0
 37 32  2  0
 37 36  1  0
 38 37  1  0
 40 41  1  0
 41 44  1  0
 41 43  1  0
 42 40  2  0
 45 46  1  0
 45 20  1  0
 47 45  1  0
 48 49  1  0
 50 51  1  0
 50 49  1  0
 52 63  2  0
 53 51  1  0
 53 58  1  0
 54 62  1  0
 54 64  1  0
 55 61  1  0
 55 57  1  0
 56 62  1  0
 57 56  1  0
 58 57  2  0
 59 60  1  0
 59 53  2  0
 60 55  2  0
 61 54  1  0
 62 52  1  0
 64 66  2  0
 65 64  1  0
 67 65  1  0
 68 77  2  0
 68 73  1  0
 69 65  1  0
 69 73  1  0
 70 69  1  0
 71 72  1  0
 71 70  1  0
 72 68  1  0
 73 74  2  0
 74 75  1  0
 76 75  2  0
 77 76  1  0
 78 52  1  0
 78 79  1  0
 78 88  1  0
 79 82  1  0
 80 84  1  0
 80 79  1  0
 81 80  2  0
 84 83  1  0
 86 84  1  0
 86 87  1  0
 86 85  1  0
 88 91  1  1
 88 89  1  0
 90 88  1  0
M  ISO  4   8 100  12 100  50 101  51 101
M  END
>  <TORSDO>  (6) 
F 21

>  <SCORE>  (6) 
-12.278

>  <name>  (6) 
5

>  <ligand_id>  (6) 
5

>  <original_smiles>  (6) 
[H]c1c([H])c([H])c2c(c1[H])C([H])([H])C([H])([H])C([H])([H])C2([H])N([H])C(=O)C1([H])N(C(=O)C([H])(N([H])C(=O)C([H])(N([H])C([H])([H])[H])C([H])([H])[H])C(C([H])([H])[H])(C([H])([H])[H])C([H])([H])[H])C([H])([H])c2c([H])c(OC([H])([H])C([H])([H])C([H])([H])N([H])C(=O)C([H])([H])C3([H])C([H])([H])C([H])(C(=O)N4C([H])([H])C([H])([H])C([H])([H])C([H])(n5nc(-c6c([H])c([H])c(Oc7c([H])c([H])c(F)c([H])c7F)c([H])c6[H])c(C(=O)N([H])[H])c5N([H])[H])C4([H])[H])C([H])(C([H])([H])[H])C3([H])[H])c([H])c([H])c2C1([H])[H]

>  <smiles>  (6) 
[H]c1c([H])c([H])c2c(c1[H])C([H])([H])C([H])([H])C([H])([H])C2([H])N([H])C(=O)C1([H])N(C(=O)C([H])(N([H])C(=O)C([H])(N([H])C([H])([H])[H])C([H])([H])[H])C(C([H])([H])[H])(C([H])([H])[H])C([H])([H])[H])C([H])([H])c2c([H])c(OC([H])([H])C([H])([H])C([H])([H])N([H])C(=O)C([H])([H])C3([H])C([H])([H])C([H])(C(=O)N4C([H])([H])C([H])([H])C([H])([H])C([H])(n5nc(-c6c([H])c([H])c(Oc7c([H])c([H])c(F)c([H])c7F)c([H])c6[H])c(C(=O)N([H])[H])c5N([H])[H])C4([H])[H])C([H])(C([H])([H])[H])C3([H])[H])c([H])c([H])c2C1([H])[H]

$$$$
6:0:0
     RDKit          3D

 94102  0  0  1  0  0  0  0  0999 V2000
  -28.3460  -22.5410   19.7120 C   0  0  0  0  0  2  0  0  0  0  0  0
  -29.7140  -21.7650   19.8130 C   0  0  0  0  0  3  0  0  0  0  0  0
  -28.4620  -24.0200   20.2660 C   0  0  0  0  0  3  0  0  0  0  0  0
  -30.6240  -22.9020   20.3640 C   0  0  0  0  0  3  0  0  0  0  0  0
  -31.5810  -23.4810   19.3040 C   0  0  0  0  0  1  0  0  0  0  0  0
  -29.7910  -24.0090   20.9110 N   0  0  0  0  0  0  0  0  0  0  0  0
  -29.8170  -20.4850   20.6650 N   0  0  0  0  0  4  0  0  0  0  0  0
  -29.2200  -20.5680   21.4710 H   0  0  0  0  0  0  0  0  0  0  0  0
  -30.7570  -20.5230   21.0250 H   0  0  0  0  0  0  0  0  0  0  0  0
  -29.6900  -19.0780   20.0610 C   0  0  0  0  0  2  0  0  0  0  0  0
  -30.2890  -17.8060   20.8860 C   0  0  0  0  0  2  0  0  0  0  0  0
  -29.7260  -16.2980   20.6320 C   0  0  0  0  0  2  0  0  0  0  0  0
  -30.6190  -14.9580   20.7350 C   0  0  0  0  0  0  0  0  0  0  0  0
  -30.5390  -12.6350   19.8270 C   0  0  0  0  0  2  0  0  0  0  0  0
  -29.6690  -12.6540   18.5470 C   0  0  0  0  0  2  0  0  0  0  0  0
  -28.1810  -12.4580   18.8960 C   0  0  0  0  0  2  0  0  0  0  0  0
  -27.7180  -13.3750   20.0580 C   0  0  0  0  0  3  0  0  0  0  0  0
  -28.7140  -13.3500   21.2370 C   0  0  0  0  0  2  0  0  0  0  0  0
  -30.0430  -13.7040   20.7210 N   0  0  0  0  0  0  0  0  0  0  0  0
  -31.8360  -15.0620   20.5630 O   0  0  0  0  0  0  0  0  0  0  0  0
  -25.2790  -13.9320   20.6380 C   0  0  0  0  0  0  0  0  0  0  0  0
  -24.2060  -13.1450   20.9510 C   0  0  0  0  0  0  0  0  0  0  0  0
  -24.6910  -11.8010   20.9640 C   0  0  0  0  0  0  0  0  0  0  0  0
  -26.3520  -13.0690   20.4760 N   0  0  0  0  0  0  0  0  0  0  0  0
  -26.0010  -11.7820   20.7350 N   0  0  0  0  0  0  0  0  0  0  0  0
  -23.9760  -10.5280   21.1210 C   0  0  0  0  0  0  0  0  0  0  0  0
  -24.3700   -9.5710   22.0820 C   0  0  0  0  0  3  0  0  0  0  0  0
  -23.6520   -8.3640   22.2290 C   0  0  0  0  0  3  0  0  0  0  0  0
  -22.5260   -8.1050   21.4110 C   0  0  0  0  0  0  0  0  0  0  0  0
  -22.1510   -9.0500   20.4400 C   0  0  0  0  0  3  0  0  0  0  0  0
  -22.8710  -10.2480   20.2910 C   0  0  0  0  0  3  0  0  0  0  0  0
  -21.7830   -6.9500   21.4660 O   0  0  0  0  0  0  0  0  0  0  0  0
  -21.6740   -6.2170   22.6210 C   0  0  0  0  0  0  0  0  0  0  0  0
  -21.1630   -6.7760   23.8120 C   0  0  0  0  0  3  0  0  0  0  0  0
  -21.0040   -5.9700   24.9570 C   0  0  0  0  0  3  0  0  0  0  0  0
  -21.3460   -4.6050   24.9110 C   0  0  0  0  0  0  0  0  0  0  0  0
  -21.8520   -4.0450   23.7240 C   0  0  0  0  0  3  0  0  0  0  0  0
  -22.0120   -4.8490   22.5810 C   0  0  0  0  0  0  0  0  0  0  0  0
  -22.4790   -4.3000   21.4340 F   0  0  0  0  0  0  0  0  0  0  0  0
  -21.1880   -3.8280   26.0090 F   0  0  0  0  0  0  0  0  0  0  0  0
  -22.7860  -13.5990   21.1340 C   0  0  0  0  0  0  0  0  0  0  0  0
  -22.0220  -12.8980   21.9630 N   0  0  0  0  0  0  0  0  0  0  0  0
  -22.3610  -14.6110   20.5770 O   0  0  0  0  0  0  0  0  0  0  0  0
  -22.3770  -12.0750   22.4290 H   0  0  0  0  0  0  0  0  0  0  0  0
  -21.0690  -13.1830   22.1380 H   0  0  0  0  0  0  0  0  0  0  0  0
  -25.4330  -15.3050   20.4540 N   0  0  0  0  0  0  0  0  0  0  0  0
  -24.6560  -15.9540   20.5100 H   0  0  0  0  0  0  0  0  0  0  0  0
  -26.3000  -15.7480   20.1790 H   0  0  0  0  0  0  0  0  0  0  0  0
  -28.2270  -25.2600   19.2760 C   0  0  0  0  0  2  0  0  0  0  0  0
  -28.1390  -26.6170   19.8680 O   0  0  0  0  0  0  0  0  0  0  0  0
  -24.4930  -31.9450   23.1690 C   0  0  0  0  0  0  0  0  0  0  0  0
  -26.9660  -27.3870   19.9440 C   0  0  0  0  0  0  0  0  0  0  0  0
  -23.2160  -30.5660   21.5700 C   0  0  0  0  0  3  0  0  0  0  0  0
  -24.5960  -28.9940   20.0990 C   0  0  0  0  0  0  0  0  0  0  0  0
  -25.7500  -30.8600   21.2880 C   0  0  0  0  0  2  0  0  0  0  0  0
  -25.7960  -29.4860   20.6250 C   0  0  0  0  0  0  0  0  0  0  0  0
  -26.9810  -28.6930   20.5330 C   0  0  0  0  0  3  0  0  0  0  0  0
  -25.7190  -26.9200   19.4630 C   0  0  0  0  0  3  0  0  0  0  0  0
  -24.5560  -27.7090   19.5340 C   0  0  0  0  0  3  0  0  0  0  0  0
  -23.3670  -29.8790   20.1920 C   0  0  0  0  0  2  0  0  0  0  0  0
  -24.5090  -31.1390   22.0660 N   0  0  0  0  0  0  0  0  0  0  0  0
  -23.4330  -32.2370   23.7410 O   0  0  0  0  0  0  0  0  0  0  0  0
  -22.5750  -29.5580   22.5520 C   0  0  0  0  0  0  0  0  0  0  0  0
  -21.2470  -29.3730   22.4460 N   0  0  0  0  0  0  0  0  0  0  0  0
  -23.2700  -28.9400   23.3620 O   0  0  0  0  0  0  0  0  0  0  0  0
  -20.7450  -29.9190   21.7600 H   0  0  0  0  0  0  0  0  0  0  0  0
  -17.8940  -28.1420   22.9850 C   0  0  0  0  0  0  0  0  0  0  0  0
  -20.4480  -28.4390   23.2380 C   0  0  0  0  0  3  0  0  0  0  0  0
  -20.5670  -26.9980   22.6890 C   0  0  0  0  0  2  0  0  0  0  0  0
  -19.4650  -26.6430   21.6860 C   0  0  0  0  0  2  0  0  0  0  0  0
  -18.0840  -26.7830   22.3320 C   0  0  0  0  0  2  0  0  0  0  0  0
  -19.0030  -28.9260   23.3960 C   0  0  0  0  0  0  0  0  0  0  0  0
  -18.7740  -30.1980   23.9650 C   0  0  0  0  0  3  0  0  0  0  0  0
  -17.4640  -30.6840   24.1310 C   0  0  0  0  0  3  0  0  0  0  0  0
  -16.3680  -29.8960   23.7390 C   0  0  0  0  0  3  0  0  0  0  0  0
  -16.5830  -28.6280   23.1700 C   0  0  0  0  0  3  0  0  0  0  0  0
  -25.8040  -32.5600   23.7480 C   0  0  0  0  0  3  0  0  0  0  0  0
  -25.5190  -33.9570   24.1050 N   0  0  0  0  0  0  0  0  0  0  0  0
  -25.8670  -35.0220   23.3700 C   0  0  0  0  0  0  0  0  0  0  0  0
  -26.5280  -34.9280   22.3320 O   0  0  0  0  0  0  0  0  0  0  0  0
  -24.9240  -34.1010   24.9070 H   0  0  0  0  0  0  0  0  0  0  0  0
  -24.1770  -36.8580   23.0560 C   0  0  0  0  0  1  0  0  0  0  0  0
  -25.4060  -36.4070   23.8620 C   0  0  0  0  0  3  0  0  0  0  0  0
  -27.5520  -37.2270   24.7220 C   0  0  0  0  0  1  0  0  0  0  0  0
  -26.4590  -37.4410   23.7790 N   0  0  0  0  0  0  0  0  0  0  0  0
  -26.0730  -38.3660   23.9500 H   0  0  0  0  0  0  0  0  0  0  0  0
  -26.3650  -31.7730   24.9940 C   0  0  1  0  0  0  0  0  0  0  0  0
  -25.3090  -31.5370   26.1010 C   0  0  0  0  0  1  0  0  0  0  0  0
  -26.9180  -30.3940   24.5650 C   0  0  0  0  0  1  0  0  0  0  0  0
  -27.5470  -32.5520   25.6150 C   0  0  0  0  0  1  0  0  0  0  0  0
  -29.7010  -23.9880   22.3870 C   0  0  0  0  0  2  0  0  0  0  0  0
  -29.8070  -25.4060   22.9880 C   0  0  0  0  0  2  0  0  0  0  0  0
  -28.6710  -27.6780   23.3650 C   0  0  0  0  0  1  0  0  0  0  0  0
  -28.4840  -26.1860   23.0400 C   0  0  0  0  0  2  0  0  0  0  0  0
  1  2  1  0
  1  3  1  0
  2  4  1  0
  2  7  1  0
  3 49  1  0
  3  6  1  0
  4  5  1  0
  4  6  1  0
  6 91  1  0
  7  9  1  0
  7  8  1  0
 10  7  1  0
 10 11  1  0
 12 13  1  0
 12 11  1  0
 14 19  1  0
 15 16  1  0
 15 14  1  0
 17 16  1  0
 17 24  1  0
 17 18  1  0
 19 13  1  0
 19 18  1  0
 20 13  2  0
 21 22  2  0
 22 23  1  0
 22 41  1  0
 23 26  1  0
 24 21  1  0
 24 25  1  0
 25 23  2  0
 26 27  1  0
 27 28  2  0
 29 32  1  0
 29 28  1  0
 30 29  2  0
 31 30  1  0
 31 26  2  0
 32 33  1  0
 33 34  1  0
 34 35  2  0
 36 35  1  0
 36 40  1  0
 37 36  2  0
 38 33  2  0
 38 37  1  0
 39 38  1  0
 41 42  1  0
 42 45  1  0
 42 44  1  0
 43 41  2  0
 46 47  1  0
 46 21  1  0
 48 46  1  0
 49 50  1  0
 50 52  1  0
 51 62  2  0
 52 57  1  0
 53 61  1  0
 53 63  1  0
 54 60  1  0
 54 56  1  0
 55 61  1  0
 56 55  1  0
 57 56  2  0
 58 59  1  0
 58 52  2  0
 59 54  2  0
 60 53  1  0
 61 51  1  0
 63 65  2  0
 64 63  1  0
 66 64  1  0
 67 76  2  0
 67 72  1  0
 68 64  1  0
 68 72  1  0
 69 68  1  0
 70 71  1  0
 70 69  1  0
 71 67  1  0
 72 73  2  0
 73 74  1  0
 75 74  2  0
 76 75  1  0
 77 51  1  0
 77 78  1  0
 77 87  1  0
 78 81  1  0
 79 83  1  0
 79 78  1  0
 80 79  2  0
 83 82  1  0
 85 83  1  0
 85 86  1  0
 85 84  1  0
 87 90  1  1
 87 88  1  0
 89 87  1  0
 91 92  1  0
 92 94  1  0
 94 93  1  0
M  ISO  4  12 100  13 100  49 101  50 101
M  END
>  <TORSDO>  (7) 
F 24

>  <SCORE>  (7) 
-12.354

>  <name>  (7) 
6

>  <ligand_id>  (7) 
6

>  <original_smiles>  (7) 
[H]c1c([H])c([H])c2c(c1[H])C([H])([H])C([H])([H])C([H])([H])C2([H])N([H])C(=O)C1([H])N(C(=O)C([H])(N([H])C(=O)C([H])(N([H])C([H])([H])[H])C([H])([H])[H])C(C([H])([H])[H])(C([H])([H])[H])C([H])([H])[H])C([H])([H])c2c([H])c(OC([H])([H])C3([H])N(C([H])([H])C([H])([H])C([H])([H])C([H])([H])[H])C([H])(C([H])([H])[H])C([H])([N+]([H])([H])C([H])([H])C([H])([H])C([H])([H])C(=O)N4C([H])([H])C([H])([H])C([H])([H])C([H])(n5nc(-c6c([H])c([H])c(Oc7c([H])c([H])c(F)c([H])c7F)c([H])c6[H])c(C(=O)N([H])[H])c5N([H])[H])C4([H])[H])C3([H])[H])c([H])c([H])c2C1([H])[H]

>  <smiles>  (7) 
[H]c1c([H])c([H])c2c(c1[H])C([H])([H])C([H])([H])C([H])([H])C2([H])N([H])C(=O)C1([H])N(C(=O)C([H])(N([H])C(=O)C([H])(N([H])C([H])([H])[H])C([H])([H])[H])C(C([H])([H])[H])(C([H])([H])[H])C([H])([H])[H])C([H])([H])c2c([H])c(OC([H])([H])C3([H])N(C([H])([H])C([H])([H])C([H])([H])C([H])([H])[H])C([H])(C([H])([H])[H])C([H])([N+]([H])([H])C([H])([H])C([H])([H])C([H])([H])C(=O)N4C([H])([H])C([H])([H])C([H])([H])C([H])(n5nc(-c6c([H])c([H])c(Oc7c([H])c([H])c(F)c([H])c7F)c([H])c6[H])c(C(=O)N([H])[H])c5N([H])[H])C4([H])[H])C3([H])[H])c([H])c([H])c2C1([H])[H]

$$$$
7:0:0
     RDKit          3D

 89 97  0  0  1  0  0  0  0  0999 V2000
  -29.5400  -21.3710   20.6200 C   0  0  0  0  0  3  0  0  0  0  0  0
  -29.4010  -19.7770   20.3130 C   0  0  0  0  0  3  0  0  0  0  0  0
  -31.2370  -17.3310   23.5500 C   0  0  0  0  0  3  0  0  0  0  0  0
  -31.3860  -18.7130   23.4580 C   0  0  0  0  0  3  0  0  0  0  0  0
  -30.5500  -16.6470   22.5410 C   0  0  0  0  0  3  0  0  0  0  0  0
  -30.8050  -19.4040   22.3860 C   0  0  0  0  0  3  0  0  0  0  0  0
  -29.9980  -17.2930   21.4010 C   0  0  0  0  0  0  0  0  0  0  0  0
  -30.0650  -18.7690   21.3480 C   0  0  0  0  0  0  0  0  0  0  0  0
  -29.3460  -16.2770   20.3860 C   0  0  0  0  0  2  0  0  0  0  0  0
  -30.1650  -14.9340   20.0390 C   0  0  0  0  0  0  0  0  0  0  0  0
  -30.0490  -12.6220   19.1100 C   0  0  0  0  0  2  0  0  0  0  0  0
  -29.0520  -12.6250   17.9300 C   0  0  0  0  0  2  0  0  0  0  0  0
  -27.6160  -12.3830   18.4330 C   0  0  0  0  0  2  0  0  0  0  0  0
  -27.2500  -13.2760   19.6490 C   0  0  0  0  0  3  0  0  0  0  0  0
  -28.3670  -13.2700   20.7150 C   0  0  0  0  0  2  0  0  0  0  0  0
  -29.6170  -13.6710   20.0610 N   0  0  0  0  0  0  0  0  0  0  0  0
  -31.3050  -15.0770   19.5850 O   0  0  0  0  0  0  0  0  0  0  0  0
  -24.9040  -13.7450   20.5770 C   0  0  0  0  0  0  0  0  0  0  0  0
  -23.8910  -12.9160   20.9750 C   0  0  0  0  0  0  0  0  0  0  0  0
  -24.3900  -11.5850   20.8320 C   0  0  0  0  0  0  0  0  0  0  0  0
  -25.9530  -12.9170   20.2150 N   0  0  0  0  0  0  0  0  0  0  0  0
  -25.6550  -11.6090   20.4300 N   0  0  0  0  0  0  0  0  0  0  0  0
  -23.7170  -10.2900   20.9990 C   0  0  0  0  0  0  0  0  0  0  0  0
  -24.2240   -9.3000   21.8700 C   0  0  0  0  0  3  0  0  0  0  0  0
  -23.5470   -8.0710   22.0280 C   0  0  0  0  0  3  0  0  0  0  0  0
  -22.3500   -7.8230   21.3170 C   0  0  0  0  0  0  0  0  0  0  0  0
  -21.8620   -8.8020   20.4330 C   0  0  0  0  0  3  0  0  0  0  0  0
  -22.5390  -10.0230   20.2720 C   0  0  0  0  0  3  0  0  0  0  0  0
  -21.6390   -6.6480   21.3870 O   0  0  0  0  0  0  0  0  0  0  0  0
  -21.6520   -5.8670   22.5140 C   0  0  0  0  0  0  0  0  0  0  0  0
  -21.2350   -6.3610   23.7690 C   0  0  0  0  0  3  0  0  0  0  0  0
  -21.1990   -5.5040   24.8880 C   0  0  0  0  0  3  0  0  0  0  0  0
  -21.5670   -4.1530   24.7520 C   0  0  0  0  0  0  0  0  0  0  0  0
  -21.9770   -3.6570   23.5010 C   0  0  0  0  0  3  0  0  0  0  0  0
  -22.0160   -4.5110   22.3850 C   0  0  0  0  0  0  0  0  0  0  0  0
  -22.3910   -4.0230   21.1780 F   0  0  0  0  0  0  0  0  0  0  0  0
  -21.5250   -3.3270   25.8230 F   0  0  0  0  0  0  0  0  0  0  0  0
  -22.5040  -13.3300   21.3740 C   0  0  0  0  0  0  0  0  0  0  0  0
  -21.8630  -12.5620   22.2490 N   0  0  0  0  0  0  0  0  0  0  0  0
  -21.9980  -14.3660   20.9450 O   0  0  0  0  0  0  0  0  0  0  0  0
  -22.2850  -11.7230   22.6160 H   0  0  0  0  0  0  0  0  0  0  0  0
  -20.9350  -12.8190   22.5570 H   0  0  0  0  0  0  0  0  0  0  0  0
  -25.0140  -15.1290   20.4700 N   0  0  0  0  0  0  0  0  0  0  0  0
  -24.2400  -15.7500   20.6760 H   0  0  0  0  0  0  0  0  0  0  0  0
  -25.8260  -15.6140   20.1110 H   0  0  0  0  0  0  0  0  0  0  0  0
  -28.7010  -22.5280   19.8920 C   0  0  0  0  0  2  0  0  0  0  0  0
  -28.9710  -24.0610   20.3260 C   0  0  0  0  0  3  0  0  0  0  0  0
  -27.9900  -25.2190   19.8060 C   0  0  0  0  0  3  0  0  0  0  0  0
  -28.1960  -26.6540   20.1700 O   0  0  0  0  0  0  0  0  0  0  0  0
  -24.5120  -32.0130   23.3520 C   0  0  0  0  0  0  0  0  0  0  0  0
  -27.0860  -27.5260   20.1370 C   0  0  0  0  0  0  0  0  0  0  0  0
  -23.2890  -30.6590   21.6900 C   0  0  0  0  0  3  0  0  0  0  0  0
  -24.7230  -29.1530   20.1990 C   0  0  0  0  0  0  0  0  0  0  0  0
  -25.8280  -30.9810   21.4840 C   0  0  0  0  0  2  0  0  0  0  0  0
  -25.9000  -29.6200   20.7970 C   0  0  0  0  0  0  0  0  0  0  0  0
  -27.0830  -28.8190   20.7570 C   0  0  0  0  0  3  0  0  0  0  0  0
  -25.8840  -27.1270   19.5050 C   0  0  0  0  0  3  0  0  0  0  0  0
  -24.7180  -27.9140   19.5440 C   0  0  0  0  0  3  0  0  0  0  0  0
  -23.4850  -30.0240   20.2890 C   0  0  0  0  0  2  0  0  0  0  0  0
  -24.5630  -31.2340   22.2320 N   0  0  0  0  0  0  0  0  0  0  0  0
  -23.4350  -32.2750   23.9070 O   0  0  0  0  0  0  0  0  0  0  0  0
  -22.6400  -29.6140   22.6300 C   0  0  0  0  0  0  0  0  0  0  0  0
  -21.3170  -29.4150   22.4940 N   0  0  0  0  0  0  0  0  0  0  0  0
  -23.3250  -28.9880   23.4430 O   0  0  0  0  0  0  0  0  0  0  0  0
  -20.8240  -29.9750   21.8120 H   0  0  0  0  0  0  0  0  0  0  0  0
  -17.9590  -28.1510   22.9570 C   0  0  0  0  0  0  0  0  0  0  0  0
  -20.5110  -28.4520   23.2460 C   0  0  0  0  0  3  0  0  0  0  0  0
  -20.6420  -27.0310   22.6500 C   0  0  0  0  0  2  0  0  0  0  0  0
  -19.5510  -26.7040   21.6250 C   0  0  0  0  0  2  0  0  0  0  0  0
  -18.1630  -26.8150   22.2630 C   0  0  0  0  0  2  0  0  0  0  0  0
  -19.0620  -28.9270   23.4050 C   0  0  0  0  0  0  0  0  0  0  0  0
  -18.8170  -30.1760   24.0150 C   0  0  0  0  0  3  0  0  0  0  0  0
  -17.5030  -30.6510   24.1810 C   0  0  0  0  0  3  0  0  0  0  0  0
  -16.4150  -29.8730   23.7500 C   0  0  0  0  0  3  0  0  0  0  0  0
  -16.6440  -28.6250   23.1440 C   0  0  0  0  0  3  0  0  0  0  0  0
  -25.8020  -32.6310   23.9730 C   0  0  0  0  0  3  0  0  0  0  0  0
  -25.5200  -34.0430   24.2680 N   0  0  0  0  0  0  0  0  0  0  0  0
  -25.8700  -35.0700   23.4820 C   0  0  0  0  0  0  0  0  0  0  0  0
  -26.5320  -34.9270   22.4510 O   0  0  0  0  0  0  0  0  0  0  0  0
  -24.9310  -34.2290   25.0670 H   0  0  0  0  0  0  0  0  0  0  0  0
  -24.1640  -36.8810   23.1030 C   0  0  0  0  0  1  0  0  0  0  0  0
  -25.4120  -36.4790   23.9060 C   0  0  0  0  0  3  0  0  0  0  0  0
  -27.5720  -37.3570   24.6780 C   0  0  0  0  0  1  0  0  0  0  0  0
  -26.4590  -37.5120   23.7440 N   0  0  0  0  0  0  0  0  0  0  0  0
  -26.0690  -38.4430   23.8660 H   0  0  0  0  0  0  0  0  0  0  0  0
  -26.2850  -31.8790   25.2750 C   0  0  1  0  0  0  0  0  0  0  0  0
  -25.1710  -31.6840   26.3300 C   0  0  0  0  0  1  0  0  0  0  0  0
  -26.8500  -30.4840   24.9240 C   0  0  0  0  0  1  0  0  0  0  0  0
  -27.4380  -32.6680   25.9380 C   0  0  0  0  0  1  0  0  0  0  0  0
  2  1  2  0
  2  8  1  0
  4  3  1  0
  5  3  2  0
  6  4  2  0
  7  5  1  0
  8  7  2  0
  8  6  1  0
  9  7  1  0
 10 16  1  0
 10  9  1  0
 11 16  1  0
 12 13  1  0
 12 11  1  0
 14 13  1  0
 14 21  1  0
 14 15  1  0
 16 15  1  0
 17 10  2  0
 18 19  2  0
 19 38  1  0
 20 19  1  0
 20 23  1  0
 21 22  1  0
 21 18  1  0
 22 20  2  0
 23 24  1  0
 24 25  2  0
 26 29  1  0
 26 25  1  0
 27 26  2  0
 28 27  1  0
 28 23  2  0
 29 30  1  0
 30 31  1  0
 31 32  2  0
 33 32  1  0
 33 37  1  0
 34 33  2  0
 35 30  2  0
 35 34  1  0
 36 35  1  0
 38 39  1  0
 39 42  1  0
 39 41  1  0
 40 38  2  0
 43 18  1  0
 43 44  1  0
 45 43  1  0
 46 47  1  0
 46  1  1  0
 48 49  1  0
 48 47  2  0
 50 61  2  0
 51 49  1  0
 51 56  1  0
 52 60  1  0
 52 62  1  0
 53 59  1  0
 53 55  1  0
 54 60  1  0
 55 54  1  0
 56 55  2  0
 57 58  1  0
 57 51  2  0
 58 53  2  0
 59 52  1  0
 60 50  1  0
 62 64  2  0
 63 62  1  0
 65 63  1  0
 66 75  2  0
 66 71  1  0
 67 63  1  0
 67 71  1  0
 68 67  1  0
 69 70  1  0
 69 68  1  0
 70 66  1  0
 71 72  2  0
 72 73  1  0
 74 73  2  0
 75 74  1  0
 76 50  1  0
 76 77  1  0
 76 86  1  0
 77 80  1  0
 78 82  1  0
 78 77  1  0
 79 78  2  0
 82 81  1  0
 84 85  1  0
 84 82  1  0
 84 83  1  0
 86 89  1  1
 86 87  1  0
 88 86  1  0
M  ISO  4   9 100  10 100  48 101  49 101
M  END
>  <TORSDO>  (8) 
F 22

>  <SCORE>  (8) 
-11.294

>  <name>  (8) 
7

>  <ligand_id>  (8) 
7

>  <original_smiles>  (8) 
[H]c1c([H])c([H])c(C([H])([H])C([H])([H])C([H])([H])C([H])([H])C([H])([H])Oc2c([H])c([H])c3c(c2[H])C([H])([H])N(C(=O)C([H])(N([H])C(=O)C([H])(N([H])C([H])([H])[H])C([H])([H])[H])C(C([H])([H])[H])(C([H])([H])[H])C([H])([H])[H])C([H])(C(=O)N([H])C2([H])c4c([H])c([H])c([H])c([H])c4C([H])([H])C([H])([H])C2([H])[H])C3([H])[H])c(C([H])([H])C(=O)N2C([H])([H])C([H])([H])C([H])([H])C([H])(n3nc(-c4c([H])c([H])c(Oc5c([H])c([H])c(F)c([H])c5F)c([H])c4[H])c(C(=O)N([H])[H])c3N([H])[H])C2([H])[H])c1[H]

>  <smiles>  (8) 
[H]c1c([H])c([H])c(C([H])([H])C([H])([H])C([H])([H])C([H])([H])C([H])([H])Oc2c([H])c([H])c3c(c2[H])C([H])([H])N(C(=O)C([H])(N([H])C(=O)C([H])(N([H])C([H])([H])[H])C([H])([H])[H])C(C([H])([H])[H])(C([H])([H])[H])C([H])([H])[H])C([H])(C(=O)N([H])C2([H])c4c([H])c([H])c([H])c([H])c4C([H])([H])C([H])([H])C2([H])[H])C3([H])[H])c(C([H])([H])C(=O)N2C([H])([H])C([H])([H])C([H])([H])C([H])(n3nc(-c4c([H])c([H])c(Oc5c([H])c([H])c(F)c([H])c5F)c([H])c4[H])c(C(=O)N([H])[H])c3N([H])[H])C2([H])[H])c1[H]

$$$$
8:0:0
     RDKit          3D

 95103  0  0  1  0  0  0  0  0999 V2000
  -29.7430  -21.0730   20.4010 C   0  0  0  0  0  0  0  0  0  0  0  0
  -30.0670  -19.8380   19.8900 N   0  0  0  0  0  0  0  0  0  0  0  0
  -29.6450  -21.2290   21.6190 O   0  0  0  0  0  0  0  0  0  0  0  0
  -30.1000  -19.7620   18.8830 H   0  0  0  0  0  0  0  0  0  0  0  0
  -31.6320  -23.2310   18.9080 C   0  0  0  0  0  2  0  0  0  0  0  0
  -30.4940  -22.3940   18.3260 C   0  0  0  0  0  2  0  0  0  0  0  0
  -30.9600  -24.2710   19.8140 C   0  0  0  0  0  2  0  0  0  0  0  0
  -29.4520  -22.3150   19.4520 C   0  0  0  0  0  3  0  0  0  0  0  0
  -29.5090  -23.8030   20.0590 C   0  0  0  0  0  3  0  0  0  0  0  0
  -28.4730  -24.8640   19.4700 C   0  0  0  0  0  2  0  0  0  0  0  0
  -28.6160  -26.3120   19.7680 O   0  0  0  0  0  0  0  0  0  0  0  0
  -24.7430  -31.5180   22.9170 C   0  0  0  0  0  0  0  0  0  0  0  0
  -27.4710  -27.1270   19.7240 C   0  0  0  0  0  0  0  0  0  0  0  0
  -23.5700  -30.1250   21.2510 C   0  0  0  0  0  3  0  0  0  0  0  0
  -25.0550  -28.6630   19.7720 C   0  0  0  0  0  0  0  0  0  0  0  0
  -26.0960  -30.5280   21.0570 C   0  0  0  0  0  2  0  0  0  0  0  0
  -26.2140  -29.1710   20.3740 C   0  0  0  0  0  0  0  0  0  0  0  0
  -27.4220  -28.4150   20.3430 C   0  0  0  0  0  3  0  0  0  0  0  0
  -26.2900  -26.6790   19.0870 C   0  0  0  0  0  3  0  0  0  0  0  0
  -25.0960  -27.4230   19.1190 C   0  0  0  0  0  3  0  0  0  0  0  0
  -23.7920  -29.4950   19.8510 C   0  0  0  0  0  2  0  0  0  0  0  0
  -24.8220  -30.7400   21.7990 N   0  0  0  0  0  0  0  0  0  0  0  0
  -23.6560  -31.7470   23.4680 O   0  0  0  0  0  0  0  0  0  0  0  0
  -22.9480  -29.0630   22.1890 C   0  0  0  0  0  0  0  0  0  0  0  0
  -21.6270  -28.8450   22.0670 N   0  0  0  0  0  0  0  0  0  0  0  0
  -23.6530  -28.4380   22.9860 O   0  0  0  0  0  0  0  0  0  0  0  0
  -21.1170  -29.4030   21.3970 H   0  0  0  0  0  0  0  0  0  0  0  0
  -18.2900  -27.5450   22.5760 C   0  0  0  0  0  0  0  0  0  0  0  0
  -20.8440  -27.8630   22.8190 C   0  0  0  0  0  3  0  0  0  0  0  0
  -20.9750  -26.4530   22.2000 C   0  0  0  0  0  2  0  0  0  0  0  0
  -19.8680  -26.1320   21.1910 C   0  0  0  0  0  2  0  0  0  0  0  0
  -18.4920  -26.2230   21.8570 C   0  0  0  0  0  2  0  0  0  0  0  0
  -19.3950  -28.3230   23.0140 C   0  0  0  0  0  0  0  0  0  0  0  0
  -19.1520  -29.5610   23.6480 C   0  0  0  0  0  3  0  0  0  0  0  0
  -17.8380  -30.0240   23.8450 C   0  0  0  0  0  3  0  0  0  0  0  0
  -16.7470  -29.2430   23.4230 C   0  0  0  0  0  3  0  0  0  0  0  0
  -16.9750  -28.0060   22.7950 C   0  0  0  0  0  3  0  0  0  0  0  0
  -26.0110  -32.1750   23.5470 C   0  0  0  0  0  3  0  0  0  0  0  0
  -25.6310  -33.5140   24.0130 N   0  0  0  0  0  0  0  0  0  0  0  0
  -25.8630  -34.6500   23.3420 C   0  0  0  0  0  0  0  0  0  0  0  0
  -26.4910  -34.6820   22.2790 O   0  0  0  0  0  0  0  0  0  0  0  0
  -25.0650  -33.5590   24.8490 H   0  0  0  0  0  0  0  0  0  0  0  0
  -24.0110  -36.3480   23.2240 C   0  0  0  0  0  1  0  0  0  0  0  0
  -25.3130  -35.9580   23.9420 C   0  0  0  0  0  3  0  0  0  0  0  0
  -27.4230  -36.9100   24.7630 C   0  0  0  0  0  1  0  0  0  0  0  0
  -26.2710  -37.0830   23.8800 N   0  0  0  0  0  0  0  0  0  0  0  0
  -25.8160  -37.9590   24.1210 H   0  0  0  0  0  0  0  0  0  0  0  0
  -26.6260  -31.3290   24.7280 C   0  0  1  0  0  0  0  0  0  0  0  0
  -25.5920  -30.9140   25.8010 C   0  0  0  0  0  1  0  0  0  0  0  0
  -27.2890  -30.0390   24.1900 C   0  0  0  0  0  1  0  0  0  0  0  0
  -27.7420  -32.1400   25.4270 C   0  0  0  0  0  1  0  0  0  0  0  0
  -30.1650  -18.5380   20.6500 C   0  0  0  0  0  3  0  0  0  0  0  0
  -28.7300  -18.1220   21.0230 C   0  0  0  0  0  0  0  0  0  0  0  0
  -28.5330  -17.5960   22.2250 N   0  0  0  0  0  0  0  0  0  0  0  0
  -27.8020  -18.2630   20.2280 O   0  0  0  0  0  0  0  0  0  0  0  0
  -29.3050  -17.5030   22.8710 H   0  0  0  0  0  0  0  0  0  0  0  0
  -27.6080  -17.3170   22.5170 H   0  0  0  0  0  0  0  0  0  0  0  0
  -30.8730  -17.3190   19.8790 C   0  0  0  0  0  3  0  0  0  0  0  0
  -30.7390  -15.8400   20.4920 C   0  0  0  0  0  3  0  0  0  0  0  0
  -31.2920  -14.5900   19.6900 C   0  0  0  0  0  0  0  0  0  0  0  0
  -30.8120  -12.4700   18.4650 C   0  0  0  0  0  2  0  0  0  0  0  0
  -29.7390  -12.7540   17.3910 C   0  0  0  0  0  2  0  0  0  0  0  0
  -28.3190  -12.6400   17.9840 C   0  0  0  0  0  2  0  0  0  0  0  0
  -28.1730  -13.4040   19.3290 C   0  0  0  0  0  3  0  0  0  0  0  0
  -29.3440  -13.0830   20.2820 C   0  0  0  0  0  2  0  0  0  0  0  0
  -30.5930  -13.4130   19.5810 N   0  0  0  0  0  0  0  0  0  0  0  0
  -32.3680  -14.7230   19.0960 O   0  0  0  0  0  0  0  0  0  0  0  0
  -25.9280  -14.0690   20.3860 C   0  0  0  0  0  0  0  0  0  0  0  0
  -24.8620  -13.3270   20.8200 C   0  0  0  0  0  0  0  0  0  0  0  0
  -25.2260  -11.9600   20.6190 C   0  0  0  0  0  0  0  0  0  0  0  0
  -26.8750  -13.1560   19.9520 N   0  0  0  0  0  0  0  0  0  0  0  0
  -26.4650  -11.8770   20.1490 N   0  0  0  0  0  0  0  0  0  0  0  0
  -24.4440  -10.7290   20.7930 C   0  0  0  0  0  0  0  0  0  0  0  0
  -24.8460   -9.7210   21.6980 C   0  0  0  0  0  3  0  0  0  0  0  0
  -24.0670   -8.5550   21.8630 C   0  0  0  0  0  3  0  0  0  0  0  0
  -22.8700   -8.3910   21.1250 C   0  0  0  0  0  0  0  0  0  0  0  0
  -22.4860   -9.3870   20.2100 C   0  0  0  0  0  3  0  0  0  0  0  0
  -23.2650  -10.5440   20.0420 C   0  0  0  0  0  3  0  0  0  0  0  0
  -22.0640   -7.2800   21.2000 O   0  0  0  0  0  0  0  0  0  0  0  0
  -21.8940   -6.5920   22.3740 C   0  0  0  0  0  0  0  0  0  0  0  0
  -21.4060   -7.2190   23.5410 C   0  0  0  0  0  3  0  0  0  0  0  0
  -21.1800   -6.4590   24.7070 C   0  0  0  0  0  3  0  0  0  0  0  0
  -21.4330   -5.0740   24.7050 C   0  0  0  0  0  0  0  0  0  0  0  0
  -21.9140   -4.4470   23.5420 C   0  0  0  0  0  3  0  0  0  0  0  0
  -22.1420   -5.2050   22.3790 C   0  0  0  0  0  0  0  0  0  0  0  0
  -22.5840   -4.5910   21.2550 F   0  0  0  0  0  0  0  0  0  0  0  0
  -21.2100   -4.3420   25.8210 F   0  0  0  0  0  0  0  0  0  0  0  0
  -23.5440  -13.8560   21.3060 C   0  0  0  0  0  0  0  0  0  0  0  0
  -22.9070  -13.1530   22.2370 N   0  0  0  0  0  0  0  0  0  0  0  0
  -23.0930  -14.9250   20.8970 O   0  0  0  0  0  0  0  0  0  0  0  0
  -23.2880  -12.2870   22.5890 H   0  0  0  0  0  0  0  0  0  0  0  0
  -22.0260  -13.4870   22.6010 H   0  0  0  0  0  0  0  0  0  0  0  0
  -26.1600  -15.4380   20.3070 N   0  0  0  0  0  0  0  0  0  0  0  0
  -25.4680  -16.1210   20.5980 H   0  0  0  0  0  0  0  0  0  0  0  0
  -27.0130  -15.8680   19.9690 H   0  0  0  0  0  0  0  0  0  0  0  0
  1  3  2  0
  2  1  1  0
  2 52  1  0
  4  2  1  0
  5  7  1  0
  6  5  1  0
  6  8  1  0
  7  9  1  0
  8  9  1  0
  8  1  1  0
  9 10  1  0
 10 11  1  0
 12 23  2  0
 13 11  1  0
 13 18  1  0
 14 22  1  0
 14 24  1  0
 15 21  1  0
 15 17  1  0
 16 22  1  0
 17 16  1  0
 18 17  2  0
 19 20  1  0
 19 13  2  0
 20 15  2  0
 21 14  1  0
 22 12  1  0
 24 26  2  0
 25 24  1  0
 27 25  1  0
 28 37  2  0
 28 33  1  0
 29 25  1  0
 29 33  1  0
 30 29  1  0
 31 32  1  0
 31 30  1  0
 32 28  1  0
 33 34  2  0
 34 35  1  0
 36 35  2  0
 37 36  1  0
 38 12  1  0
 38 39  1  0
 38 48  1  0
 39 42  1  0
 40 44  1  0
 40 39  1  0
 41 40  2  0
 44 43  1  0
 46 44  1  0
 46 47  1  0
 46 45  1  0
 48 51  1  1
 48 49  1  0
 50 48  1  0
 52 58  1  0
 52 53  1  0
 53 54  1  0
 54 57  1  0
 54 56  1  0
 55 53  2  0
 58 59  2  0
 60 59  1  0
 61 66  1  0
 62 63  1  0
 62 61  1  0
 64 63  1  0
 64 71  1  0
 64 65  1  0
 66 60  1  0
 66 65  1  0
 67 60  2  0
 68 69  2  0
 69 88  1  0
 70 73  1  0
 70 69  1  0
 71 72  1  0
 71 68  1  0
 72 70  2  0
 73 74  1  0
 74 75  2  0
 76 79  1  0
 76 75  1  0
 77 76  2  0
 78 77  1  0
 78 73  2  0
 79 80  1  0
 80 85  2  0
 80 81  1  0
 81 82  2  0
 83 82  1  0
 83 87  1  0
 84 83  2  0
 85 84  1  0
 86 85  1  0
 88 89  1  0
 89 91  1  0
 89 92  1  0
 90 88  2  0
 93 68  1  0
 93 94  1  0
 95 93  1  0
M  ISO  4  10 101  11 101  59 100  60 100
M  END
>  <TORSDO>  (9) 
F 22

>  <SCORE>  (9) 
-8.911

>  <name>  (9) 
8

>  <ligand_id>  (9) 
8

>  <original_smiles>  (9) 
[H]c1c([H])c([H])c2c(c1[H])C([H])([H])C([H])([H])C([H])([H])C2([H])N([H])C(=O)C1([H])N(C(=O)C([H])(N([H])C(=O)C([H])(N([H])C([H])([H])[H])C([H])([H])[H])C(C([H])([H])[H])(C([H])([H])[H])C([H])([H])[H])C([H])([H])c2c([H])c(OC([H])([H])C3([H])C([H])([H])C([H])([H])C([H])([H])C3([H])C(=O)N([H])C([H])(C(=O)N([H])[H])C([H])([H])C([H])([H])C(=O)N3C([H])([H])C([H])([H])C([H])([H])C([H])(n4nc(-c5c([H])c([H])c(Oc6c([H])c([H])c(F)c([H])c6F)c([H])c5[H])c(C(=O)N([H])[H])c4N([H])[H])C3([H])[H])c([H])c([H])c2C1([H])[H]

>  <smiles>  (9) 
[H]c1c([H])c([H])c2c(c1[H])C([H])([H])C([H])([H])C([H])([H])C2([H])N([H])C(=O)C1([H])N(C(=O)C([H])(N([H])C(=O)C([H])(N([H])C([H])([H])[H])C([H])([H])[H])C(C([H])([H])[H])(C([H])([H])[H])C([H])([H])[H])C([H])([H])c2c([H])c(OC([H])([H])C3([H])C([H])([H])C([H])([H])C([H])([H])C3([H])C(=O)N([H])C([H])(C(=O)N([H])[H])C([H])([H])C([H])([H])C(=O)N3C([H])([H])C([H])([H])C([H])([H])C([H])(n4nc(-c5c([H])c([H])c(Oc6c([H])c([H])c(F)c([H])c6F)c([H])c5[H])c(C(=O)N([H])[H])c4N([H])[H])C3([H])[H])c([H])c([H])c2C1([H])[H]

$$$$
9:0:0
     RDKit          3D

 93101  0  0  1  0  0  0  0  0999 V2000
  -29.7010  -19.3420   20.7260 N   0  0  1  0  0  4  0  0  0  0  0  0
  -28.8860  -18.8110   20.9910 H   0  0  0  0  0  0  0  0  0  0  0  0
  -30.4160  -16.1700   18.2550 C   0  0  0  0  0  2  0  0  0  0  0  0
  -30.0740  -17.1400   17.1460 C   0  0  0  0  0  2  0  0  0  0  0  0
  -30.8930  -19.0190   18.4810 C   0  0  0  0  0  2  0  0  0  0  0  0
  -30.2620  -16.6060   19.7600 C   0  0  0  0  0  3  0  0  0  0  0  0
  -31.1080  -18.2440   17.1810 C   0  0  0  0  0  3  0  0  0  0  0  0
  -30.5790  -18.3000   19.8620 C   0  0  0  0  0  3  0  0  0  0  0  0
  -30.9470  -19.1620   15.9490 C   0  0  0  0  0  1  0  0  0  0  0  0
  -31.0940  -15.3210   20.4400 C   0  0  0  0  0  0  0  0  0  0  0  0
  -31.0600  -12.8870   19.7900 C   0  0  0  0  0  2  0  0  0  0  0  0
  -30.2050  -12.6760   18.5150 C   0  0  0  0  0  2  0  0  0  0  0  0
  -28.6930  -12.6080   18.8370 C   0  0  0  0  0  2  0  0  0  0  0  0
  -28.2090  -13.6010   19.9350 C   0  0  0  0  0  3  0  0  0  0  0  0
  -29.2140  -13.6940   21.0990 C   0  0  0  0  0  2  0  0  0  0  0  0
  -30.5310  -14.0490   20.5460 N   0  0  0  0  0  0  0  0  0  0  0  0
  -32.3280  -15.3830   20.4790 O   0  0  0  0  0  0  0  0  0  0  0  0
  -25.8080  -14.2480   20.5440 C   0  0  0  0  0  0  0  0  0  0  0  0
  -24.7070  -13.4980   20.8260 C   0  0  0  0  0  0  0  0  0  0  0  0
  -25.1400  -12.1360   20.8000 C   0  0  0  0  0  0  0  0  0  0  0  0
  -26.8450  -13.3440   20.3640 N   0  0  0  0  0  0  0  0  0  0  0  0
  -26.4470  -12.0690   20.5850 N   0  0  0  0  0  0  0  0  0  0  0  0
  -24.3790  -10.8910   20.9130 C   0  0  0  0  0  0  0  0  0  0  0  0
  -24.7290   -9.8980   21.8550 C   0  0  0  0  0  3  0  0  0  0  0  0
  -23.9720   -8.7140   21.9620 C   0  0  0  0  0  3  0  0  0  0  0  0
  -22.8470   -8.5140   21.1260 C   0  0  0  0  0  0  0  0  0  0  0  0
  -22.5170   -9.4930   20.1700 C   0  0  0  0  0  3  0  0  0  0  0  0
  -23.2750  -10.6700   20.0620 C   0  0  0  0  0  3  0  0  0  0  0  0
  -22.0710   -7.3820   21.1400 O   0  0  0  0  0  0  0  0  0  0  0  0
  -21.9090   -6.6370   22.2800 C   0  0  0  0  0  0  0  0  0  0  0  0
  -21.3780   -7.1920   23.4650 C   0  0  0  0  0  3  0  0  0  0  0  0
  -21.1640   -6.3730   24.5920 C   0  0  0  0  0  3  0  0  0  0  0  0
  -21.4720   -5.0000   24.5340 C   0  0  0  0  0  0  0  0  0  0  0  0
  -21.9970   -4.4440   23.3530 C   0  0  0  0  0  3  0  0  0  0  0  0
  -22.2120   -5.2610   22.2280 C   0  0  0  0  0  0  0  0  0  0  0  0
  -22.6950   -4.7170   21.0860 F   0  0  0  0  0  0  0  0  0  0  0  0
  -21.2610   -4.2100   25.6130 F   0  0  0  0  0  0  0  0  0  0  0  0
  -23.3040  -14.0020   21.0120 C   0  0  0  0  0  0  0  0  0  0  0  0
  -22.5100  -13.3130   21.8190 N   0  0  0  0  0  0  0  0  0  0  0  0
  -22.9230  -15.0430   20.4750 O   0  0  0  0  0  0  0  0  0  0  0  0
  -22.8320  -12.4710   22.2720 H   0  0  0  0  0  0  0  0  0  0  0  0
  -21.5660  -13.6340   21.9900 H   0  0  0  0  0  0  0  0  0  0  0  0
  -26.0090  -15.6220   20.3980 N   0  0  0  0  0  0  0  0  0  0  0  0
  -25.2400  -16.2810   20.4410 H   0  0  0  0  0  0  0  0  0  0  0  0
  -26.8750  -16.0410   20.0970 H   0  0  0  0  0  0  0  0  0  0  0  0
  -31.2210  -18.6760   22.7450 C   0  0  0  0  0  1  0  0  0  0  0  0
  -30.3240  -19.7090   22.0340 C   0  0  0  0  0  2  0  0  0  0  0  0
  -27.7250  -20.4370   19.4090 C   0  0  0  0  0  1  0  0  0  0  0  0
  -29.0900  -20.7030   20.0970 C   0  0  0  0  0  3  0  0  0  0  0  0
  -28.8500  -22.1420   20.9190 C   0  0  0  0  0  2  0  0  0  0  0  0
  -28.6060  -23.5950   20.1270 C   0  0  0  0  0  3  0  0  0  0  0  0
  -28.1250  -25.0090   20.8590 C   0  0  0  0  0  3  0  0  0  0  0  0
  -28.2610  -26.4510   20.3350 O   0  0  0  0  0  0  0  0  0  0  0  0
  -24.5570  -32.0490   23.3430 C   0  0  0  0  0  0  0  0  0  0  0  0
  -27.1680  -27.3760   20.3370 C   0  0  0  0  0  0  0  0  0  0  0  0
  -23.3690  -30.6400   21.7120 C   0  0  0  0  0  3  0  0  0  0  0  0
  -24.8300  -29.0700   20.2910 C   0  0  0  0  0  0  0  0  0  0  0  0
  -25.9140  -30.9400   21.5380 C   0  0  0  0  0  2  0  0  0  0  0  0
  -26.0070  -29.5470   20.8920 C   0  0  0  0  0  0  0  0  0  0  0  0
  -27.1830  -28.7130   20.8920 C   0  0  0  0  0  3  0  0  0  0  0  0
  -25.9670  -26.9820   19.7140 C   0  0  0  0  0  3  0  0  0  0  0  0
  -24.8180  -27.8030   19.6840 C   0  0  0  0  0  3  0  0  0  0  0  0
  -23.5970  -29.9610   20.3320 C   0  0  0  0  0  2  0  0  0  0  0  0
  -24.6340  -31.2250   22.2570 N   0  0  0  0  0  0  0  0  0  0  0  0
  -23.4670  -32.3250   23.8710 O   0  0  0  0  0  0  0  0  0  0  0  0
  -22.6970  -29.6290   22.6740 C   0  0  0  0  0  0  0  0  0  0  0  0
  -21.3740  -29.4260   22.5210 N   0  0  0  0  0  0  0  0  0  0  0  0
  -23.3660  -29.0300   23.5210 O   0  0  0  0  0  0  0  0  0  0  0  0
  -20.8920  -29.9620   21.8130 H   0  0  0  0  0  0  0  0  0  0  0  0
  -18.0150  -28.1320   22.9520 C   0  0  0  0  0  0  0  0  0  0  0  0
  -20.5540  -28.4810   23.2850 C   0  0  0  0  0  3  0  0  0  0  0  0
  -20.7210  -27.0380   22.7500 C   0  0  0  0  0  2  0  0  0  0  0  0
  -19.6590  -26.6600   21.7120 C   0  0  0  0  0  2  0  0  0  0  0  0
  -18.2530  -26.7770   22.3110 C   0  0  0  0  0  2  0  0  0  0  0  0
  -19.0970  -28.9410   23.3950 C   0  0  0  0  0  0  0  0  0  0  0  0
  -18.8230  -30.2090   23.9560 C   0  0  0  0  0  3  0  0  0  0  0  0
  -17.5000  -30.6740   24.0680 C   0  0  0  0  0  3  0  0  0  0  0  0
  -16.4310  -29.8650   23.6420 C   0  0  0  0  0  3  0  0  0  0  0  0
  -16.6890  -28.5930   23.0940 C   0  0  0  0  0  3  0  0  0  0  0  0
  -25.8350  -32.6950   23.9680 C   0  0  0  0  0  3  0  0  0  0  0  0
  -25.5220  -34.1000   24.2580 N   0  0  0  0  0  0  0  0  0  0  0  0
  -25.8730  -35.1390   23.4870 C   0  0  0  0  0  0  0  0  0  0  0  0
  -26.5580  -35.0130   22.4680 O   0  0  0  0  0  0  0  0  0  0  0  0
  -24.9090  -34.2700   25.0430 H   0  0  0  0  0  0  0  0  0  0  0  0
  -24.1560  -36.9360   23.0900 C   0  0  0  0  0  1  0  0  0  0  0  0
  -25.3920  -36.5400   23.9090 C   0  0  0  0  0  3  0  0  0  0  0  0
  -27.5220  -37.4390   24.7390 C   0  0  0  0  0  1  0  0  0  0  0  0
  -26.4300  -37.5830   23.7770 N   0  0  0  0  0  0  0  0  0  0  0  0
  -26.0290  -38.5050   23.9110 H   0  0  0  0  0  0  0  0  0  0  0  0
  -26.3290  -31.9550   25.2700 C   0  0  1  0  0  0  0  0  0  0  0  0
  -25.2050  -31.7110   26.3070 C   0  0  0  0  0  1  0  0  0  0  0  0
  -26.9440  -30.5820   24.9150 C   0  0  0  0  0  1  0  0  0  0  0  0
  -27.4480  -32.7800   25.9480 C   0  0  0  0  0  1  0  0  0  0  0  0
  1  2  1  1
  1 47  1  0
  3  6  1  0
  4  7  1  0
  4  3  1  0
  5  8  1  0
  6  8  1  0
  6 10  1  0
  7  9  1  0
  7  5  1  0
  8  1  1  0
 10 17  2  0
 10 16  1  0
 11 16  1  0
 12 13  1  0
 12 11  1  0
 14 13  1  0
 14 21  1  0
 14 15  1  0
 16 15  1  0
 18 19  2  0
 19 38  1  0
 20 19  1  0
 20 23  1  0
 21 18  1  0
 21 22  1  0
 22 20  2  0
 23 24  1  0
 24 25  2  0
 26 29  1  0
 26 25  1  0
 27 26  2  0
 28 27  1  0
 28 23  2  0
 29 30  1  0
 30 31  1  0
 31 32  2  0
 33 32  1  0
 33 37  1  0
 34 33  2  0
 35 30  2  0
 35 34  1  0
 36 35  1  0
 38 39  1  0
 39 42  1  0
 39 41  1  0
 40 38  2  0
 43 44  1  0
 43 18  1  0
 45 43  1  0
 47 46  1  0
 49 48  1  0
 49  1  1  0
 49 50  1  0
 51 52  2  0
 51 50  1  0
 53 55  1  0
 53 52  1  0
 54 65  2  0
 55 60  1  0
 56 64  1  0
 56 66  1  0
 57 63  1  0
 57 59  1  0
 58 64  1  0
 59 58  1  0
 60 59  2  0
 61 55  2  0
 62 61  1  0
 62 57  2  0
 63 56  1  0
 64 54  1  0
 66 68  2  0
 67 66  1  0
 69 67  1  0
 70 79  2  0
 70 75  1  0
 71 67  1  0
 71 75  1  0
 72 71  1  0
 73 74  1  0
 73 72  1  0
 74 70  1  0
 75 76  2  0
 76 77  1  0
 78 77  2  0
 79 78  1  0
 80 54  1  0
 80 81  1  0
 80 90  1  0
 81 84  1  0
 82 86  1  0
 82 81  1  0
 83 82  2  0
 86 85  1  0
 88 86  1  0
 88 89  1  0
 88 87  1  0
 90 93  1  1
 90 91  1  0
 92 90  1  0
M  ISO  4   6 100  10 100  52 101  53 101
M  END
>  <TORSDO>  (10) 
F 22

>  <SCORE>  (10) 
-11.068

>  <name>  (10) 
9

>  <ligand_id>  (10) 
9

>  <original_smiles>  (10) 
[H]c1c([H])c([H])c2c(c1[H])C([H])([H])C([H])([H])C([H])([H])C2([H])N([H])C(=O)C1([H])N(C(=O)C([H])(N([H])C(=O)C([H])(N([H])C([H])([H])[H])C([H])([H])[H])C(C([H])([H])[H])(C([H])([H])[H])C([H])([H])[H])C([H])([H])c2c([H])c(OC([H])([H])C([H])([H])C([H])([H])C([H])(C([H])([H])[H])[N+]([H])(C([H])([H])C([H])([H])[H])C3([H])C([H])([H])C([H])(C([H])([H])[H])C([H])([H])C([H])([H])C3([H])C(=O)N3C([H])([H])C([H])([H])C([H])([H])C([H])(n4nc(-c5c([H])c([H])c(Oc6c([H])c([H])c(F)c([H])c6F)c([H])c5[H])c(C(=O)N([H])[H])c4N([H])[H])C3([H])[H])c([H])c([H])c2C1([H])[H]

>  <smiles>  (10) 
[H]c1c([H])c([H])c2c(c1[H])C([H])([H])C([H])([H])C([H])([H])C2([H])N([H])C(=O)C1([H])N(C(=O)C([H])(N([H])C(=O)C([H])(N([H])C([H])([H])[H])C([H])([H])[H])C(C([H])([H])[H])(C([H])([H])[H])C([H])([H])[H])C([H])([H])c2c([H])c(OC([H])([H])C([H])([H])C([H])([H])C([H])(C([H])([H])[H])[N+]([H])(C([H])([H])C([H])([H])[H])C3([H])C([H])([H])C([H])(C([H])([H])[H])C([H])([H])C([H])([H])C3([H])C(=O)N3C([H])([H])C([H])([H])C([H])([H])C([H])(n4nc(-c5c([H])c([H])c(Oc6c([H])c([H])c(F)c([H])c6F)c([H])c5[H])c(C(=O)N([H])[H])c4N([H])[H])C3([H])[H])c([H])c([H])c2C1([H])[H]

$$$$
10:0:0
     RDKit          3D

 94102  0  0  1  0  0  0  0  0999 V2000
  -29.2960  -21.3040   21.9130 N   0  0  1  0  0  4  0  0  0  0  0  0
  -28.6970  -21.5220   22.6940 H   0  0  0  0  0  0  0  0  0  0  0  0
  -28.8880  -19.9210   21.5060 C   0  0  0  0  0  2  0  0  0  0  0  0
  -31.8910  -18.8420   19.3430 C   0  0  0  0  0  3  0  0  0  0  0  0
  -32.1570  -17.5630   19.8580 C   0  0  0  0  0  3  0  0  0  0  0  0
  -30.8070  -19.5860   19.8380 C   0  0  0  0  0  3  0  0  0  0  0  0
  -30.2620  -17.7760   21.3740 C   0  0  0  0  0  3  0  0  0  0  0  0
  -31.3210  -17.0020   20.8510 C   0  0  0  0  0  0  0  0  0  0  0  0
  -30.0110  -19.0790   20.8910 C   0  0  0  0  0  0  0  0  0  0  0  0
  -31.5630  -15.5830   21.3670 C   0  0  0  0  0  2  0  0  0  0  0  0
  -31.7190  -14.5620   20.2170 C   0  0  0  0  0  0  0  0  0  0  0  0
  -31.1920  -12.4410   19.0740 C   0  0  0  0  0  2  0  0  0  0  0  0
  -30.2340  -12.6350   17.8870 C   0  0  0  0  0  2  0  0  0  0  0  0
  -28.7760  -12.5420   18.3680 C   0  0  0  0  0  2  0  0  0  0  0  0
  -28.5010  -13.4570   19.5920 C   0  0  0  0  0  3  0  0  0  0  0  0
  -29.5780  -13.2790   20.6880 C   0  0  0  0  0  2  0  0  0  0  0  0
  -30.9050  -13.4800   20.0800 N   0  0  0  0  0  0  0  0  0  0  0  0
  -32.6810  -14.7300   19.4600 O   0  0  0  0  0  0  0  0  0  0  0  0
  -26.1910  -14.1790   20.4730 C   0  0  0  0  0  0  0  0  0  0  0  0
  -25.0830  -13.4590   20.8340 C   0  0  0  0  0  0  0  0  0  0  0  0
  -25.4350  -12.0840   20.6700 C   0  0  0  0  0  0  0  0  0  0  0  0
  -27.1530  -13.2460   20.1190 N   0  0  0  0  0  0  0  0  0  0  0  0
  -26.7040  -11.9770   20.2910 N   0  0  0  0  0  0  0  0  0  0  0  0
  -24.6240  -10.8660   20.7970 C   0  0  0  0  0  0  0  0  0  0  0  0
  -24.9500   -9.8570   21.7310 C   0  0  0  0  0  3  0  0  0  0  0  0
  -24.1430   -8.7030   21.8500 C   0  0  0  0  0  3  0  0  0  0  0  0
  -22.9950   -8.5540   21.0360 C   0  0  0  0  0  0  0  0  0  0  0  0
  -22.6870   -9.5520   20.0940 C   0  0  0  0  0  3  0  0  0  0  0  0
  -23.4960  -10.6950   19.9720 C   0  0  0  0  0  3  0  0  0  0  0  0
  -22.1690   -7.4570   21.0630 O   0  0  0  0  0  0  0  0  0  0  0  0
  -21.9010   -6.7830   22.2290 C   0  0  0  0  0  0  0  0  0  0  0  0
  -21.3100   -7.4240   23.3410 C   0  0  0  0  0  3  0  0  0  0  0  0
  -20.9890   -6.6790   24.4930 C   0  0  0  0  0  3  0  0  0  0  0  0
  -21.2490   -5.2960   24.5340 C   0  0  0  0  0  0  0  0  0  0  0  0
  -21.8290   -4.6560   23.4260 C   0  0  0  0  0  3  0  0  0  0  0  0
  -22.1510   -5.3960   22.2750 C   0  0  0  0  0  0  0  0  0  0  0  0
  -22.6920   -4.7700   21.2000 F   0  0  0  0  0  0  0  0  0  0  0  0
  -20.9340   -4.5810   25.6390 F   0  0  0  0  0  0  0  0  0  0  0  0
  -23.7400  -14.0130   21.2180 C   0  0  0  0  0  0  0  0  0  0  0  0
  -23.0050  -13.3120   22.0750 N   0  0  0  0  0  0  0  0  0  0  0  0
  -23.3520  -15.1010   20.7940 O   0  0  0  0  0  0  0  0  0  0  0  0
  -23.3240  -12.4250   22.4370 H   0  0  0  0  0  0  0  0  0  0  0  0
  -22.1060  -13.6640   22.3660 H   0  0  0  0  0  0  0  0  0  0  0  0
  -26.4540  -15.5440   20.3950 N   0  0  0  0  0  0  0  0  0  0  0  0
  -25.7420  -16.2420   20.5850 H   0  0  0  0  0  0  0  0  0  0  0  0
  -27.3190  -15.9440   20.0540 H   0  0  0  0  0  0  0  0  0  0  0  0
  -30.7020  -21.4160   22.4030 C   0  0  0  0  0  2  0  0  0  0  0  0
  -32.5590  -20.3950   23.8470 C   0  0  0  0  0  1  0  0  0  0  0  0
  -31.0520  -20.4650   23.5740 C   0  0  0  0  0  2  0  0  0  0  0  0
  -28.9590  -22.3080   20.8580 C   0  0  0  0  0  2  0  0  0  0  0  0
  -28.5510  -23.7050   21.3680 C   0  0  0  0  0  2  0  0  0  0  0  0
  -28.3420  -24.6680   20.1760 C   0  0  0  0  0  2  0  0  0  0  0  0
  -28.0600  -26.1300   20.5520 C   0  0  0  0  0  2  0  0  0  0  0  0
  -27.6670  -26.8340   19.3700 O   0  0  0  0  0  0  0  0  0  0  0  0
  -24.4560  -31.7470   23.3510 C   0  0  0  0  0  0  0  0  0  0  0  0
  -26.5560  -27.6140   19.5560 C   0  0  0  0  0  0  0  0  0  0  0  0
  -23.0200  -30.5900   21.6990 C   0  0  0  0  0  3  0  0  0  0  0  0
  -24.2460  -29.1690   19.9720 C   0  0  0  0  0  0  0  0  0  0  0  0
  -25.5190  -30.8870   21.2690 C   0  0  0  0  0  2  0  0  0  0  0  0
  -25.4770  -29.5900   20.4920 C   0  0  0  0  0  0  0  0  0  0  0  0
  -26.6370  -28.8160   20.2900 C   0  0  0  0  0  3  0  0  0  0  0  0
  -25.3190  -27.2010   19.0250 C   0  0  0  0  0  3  0  0  0  0  0  0
  -24.1590  -27.9720   19.2370 C   0  0  0  0  0  3  0  0  0  0  0  0
  -23.0540  -30.0580   20.2400 C   0  0  0  0  0  2  0  0  0  0  0  0
  -24.3580  -31.0800   22.1660 N   0  0  0  0  0  0  0  0  0  0  0  0
  -23.4500  -31.9980   24.0280 O   0  0  0  0  0  0  0  0  0  0  0  0
  -22.4160  -29.4950   22.6060 C   0  0  0  0  0  0  0  0  0  0  0  0
  -21.0940  -29.2870   22.4900 N   0  0  0  0  0  0  0  0  0  0  0  0
  -23.1320  -28.8380   23.3680 O   0  0  0  0  0  0  0  0  0  0  0  0
  -20.5780  -29.8710   21.8470 H   0  0  0  0  0  0  0  0  0  0  0  0
  -17.7970  -27.8480   22.8230 C   0  0  0  0  0  0  0  0  0  0  0  0
  -20.3160  -28.2790   23.2100 C   0  0  0  0  0  3  0  0  0  0  0  0
  -20.5460  -26.8690   22.6170 C   0  0  0  0  0  2  0  0  0  0  0  0
  -19.5130  -26.4890   21.5520 C   0  0  0  0  0  2  0  0  0  0  0  0
  -18.0970  -26.5260   22.1370 C   0  0  0  0  0  2  0  0  0  0  0  0
  -18.8400  -28.6790   23.3130 C   0  0  0  0  0  0  0  0  0  0  0  0
  -18.5080  -29.9150   23.9080 C   0  0  0  0  0  3  0  0  0  0  0  0
  -17.1650  -30.3230   24.0210 C   0  0  0  0  0  3  0  0  0  0  0  0
  -16.1370  -29.4880   23.5500 C   0  0  0  0  0  3  0  0  0  0  0  0
  -16.4530  -28.2540   22.9570 C   0  0  0  0  0  3  0  0  0  0  0  0
  -25.8290  -32.2460   23.9000 C   0  0  0  0  0  3  0  0  0  0  0  0
  -26.4160  -31.3260   25.0390 C   0  0  1  0  0  0  0  0  0  0  0  0
  -25.4150  -31.0300   26.1800 C   0  0  0  0  0  1  0  0  0  0  0  0
  -26.8790  -29.9720   24.4520 C   0  0  0  0  0  1  0  0  0  0  0  0
  -27.6690  -31.9900   25.6590 C   0  0  0  0  0  1  0  0  0  0  0  0
  -25.6390  -33.6200   24.3830 N   0  0  0  0  0  0  0  0  0  0  0  0
  -25.9970  -34.7190   23.7060 C   0  0  0  0  0  0  0  0  0  0  0  0
  -26.5950  -34.6780   22.6270 O   0  0  0  0  0  0  0  0  0  0  0  0
  -25.1090  -33.7330   25.2330 H   0  0  0  0  0  0  0  0  0  0  0  0
  -24.3820  -36.6450   23.6240 C   0  0  0  0  0  1  0  0  0  0  0  0
  -25.6320  -36.0840   24.3220 C   0  0  0  0  0  3  0  0  0  0  0  0
  -27.8620  -36.7420   25.1110 C   0  0  0  0  0  1  0  0  0  0  0  0
  -26.7280  -37.0750   24.2540 N   0  0  0  0  0  0  0  0  0  0  0  0
  -26.3940  -37.9990   24.5160 H   0  0  0  0  0  0  0  0  0  0  0  0
  1 47  1  0
  1  2  1  1
  3  1  1  0
  4  6  2  0
  4  5  1  0
  5  8  2  0
  6  9  1  0
  8 10  1  0
  8  7  1  0
  9  7  2  0
  9  3  1  0
 11 10  1  0
 12 17  1  0
 13 14  1  0
 13 12  1  0
 15 14  1  0
 15 22  1  0
 15 16  1  0
 17 11  1  0
 17 16  1  0
 18 11  2  0
 19 20  2  0
 20 39  1  0
 21 24  1  0
 21 20  1  0
 22 23  1  0
 22 19  1  0
 23 21  2  0
 24 25  1  0
 25 26  2  0
 27 30  1  0
 27 26  1  0
 28 27  2  0
 29 28  1  0
 29 24  2  0
 30 31  1  0
 31 36  2  0
 31 32  1  0
 32 33  2  0
 33 34  1  0
 34 38  1  0
 35 34  2  0
 36 35  1  0
 37 36  1  0
 39 40  1  0
 40 43  1  0
 40 42  1  0
 41 39  2  0
 44 19  1  0
 44 45  1  0
 46 44  1  0
 47 49  1  0
 49 48  1  0
 50 51  1  0
 50  1  1  0
 52 53  1  0
 52 51  1  0
 54 56  1  0
 54 53  1  0
 55 66  2  0
 56 61  1  0
 57 65  1  0
 57 67  1  0
 58 64  1  0
 58 60  1  0
 59 65  1  0
 60 59  1  0
 61 60  2  0
 62 63  1  0
 62 56  2  0
 63 58  2  0
 64 57  1  0
 65 55  1  0
 67 69  2  0
 68 67  1  0
 70 68  1  0
 71 80  2  0
 71 76  1  0
 72 68  1  0
 72 76  1  0
 73 72  1  0
 74 75  1  0
 74 73  1  0
 75 71  1  0
 76 77  2  0
 77 78  1  0
 79 78  2  0
 80 79  1  0
 81 55  1  0
 81 86  1  0
 81 82  1  0
 82 85  1  1
 82 83  1  0
 84 82  1  0
 86 89  1  0
 87 91  1  0
 87 86  1  0
 88 87  2  0
 91 90  1  0
 93 91  1  0
 93 94  1  0
 93 92  1  0
M  ISO  4  10 100  11 100  53 101  54 101
M  END
>  <TORSDO>  (11) 
F 25

>  <SCORE>  (11) 
-10.273

>  <name>  (11) 
10

>  <ligand_id>  (11) 
10

>  <original_smiles>  (11) 
[H]c1c([H])c([H])c2c(c1[H])C([H])([H])C([H])([H])C([H])([H])C2([H])N([H])C(=O)C1([H])N(C(=O)C([H])(N([H])C(=O)C([H])(N([H])C([H])([H])[H])C([H])([H])[H])C(C([H])([H])[H])(C([H])([H])[H])C([H])([H])[H])C([H])([H])c2c([H])c(OC([H])([H])C([H])([H])C([H])([H])C([H])([H])[N+]([H])(C([H])([H])c3c([H])c([H])c([H])c(C([H])([H])C(=O)N4C([H])([H])C([H])([H])C([H])([H])C([H])(n5nc(-c6c([H])c([H])c(Oc7c([H])c([H])c(F)c([H])c7F)c([H])c6[H])c(C(=O)N([H])[H])c5N([H])[H])C4([H])[H])c3[H])C([H])([H])C([H])([H])C([H])([H])[H])c([H])c([H])c2C1([H])[H]

>  <smiles>  (11) 
[H]c1c([H])c([H])c2c(c1[H])C([H])([H])C([H])([H])C([H])([H])C2([H])N([H])C(=O)C1([H])N(C(=O)C([H])(N([H])C(=O)C([H])(N([H])C([H])([H])[H])C([H])([H])[H])C(C([H])([H])[H])(C([H])([H])[H])C([H])([H])[H])C([H])([H])c2c([H])c(OC([H])([H])C([H])([H])C([H])([H])C([H])([H])[N+]([H])(C([H])([H])c3c([H])c([H])c([H])c(C([H])([H])C(=O)N4C([H])([H])C([H])([H])C([H])([H])C([H])(n5nc(-c6c([H])c([H])c(Oc7c([H])c([H])c(F)c([H])c7F)c([H])c6[H])c(C(=O)N([H])[H])c5N([H])[H])C4([H])[H])c3[H])C([H])([H])C([H])([H])C([H])([H])[H])c([H])c([H])c2C1([H])[H]

$$$$
11:0:0
     RDKit          3D

 89 97  0  0  1  0  0  0  0  0999 V2000
  -29.9680  -20.6140   20.0470 C   0  0  0  0  0  3  0  0  0  0  0  0
  -28.5280  -18.2700   20.2050 C   0  0  0  0  0  2  0  0  0  0  0  0
  -28.7780  -16.7110   20.2950 C   0  0  0  0  0  2  0  0  0  0  0  0
  -30.8370  -17.8190   20.1720 C   0  0  0  0  0  2  0  0  0  0  0  0
  -29.8200  -19.0320   20.5570 C   0  0  0  0  0  3  0  0  0  0  0  0
  -30.2660  -16.3520   20.6110 C   0  0  2  0  0  0  0  0  0  0  0  0
  -30.8100  -14.9480   19.9040 C   0  0  0  0  0  0  0  0  0  0  0  0
  -30.4350  -12.7180   18.7500 C   0  0  0  0  0  2  0  0  0  0  0  0
  -29.4070  -12.8500   17.6020 C   0  0  0  0  0  2  0  0  0  0  0  0
  -27.9740  -12.6630   18.1320 C   0  0  0  0  0  2  0  0  0  0  0  0
  -27.7130  -13.4980   19.4090 C   0  0  0  0  0  3  0  0  0  0  0  0
  -28.8530  -13.3600   20.4400 C   0  0  0  0  0  2  0  0  0  0  0  0
  -30.1150  -13.7420   19.7860 N   0  0  0  0  0  0  0  0  0  0  0  0
  -31.9340  -14.9820   19.3940 O   0  0  0  0  0  0  0  0  0  0  0  0
  -25.4080  -14.1260   20.3420 C   0  0  0  0  0  0  0  0  0  0  0  0
  -24.3530  -13.3710   20.7720 C   0  0  0  0  0  0  0  0  0  0  0  0
  -24.7730  -12.0110   20.6630 C   0  0  0  0  0  0  0  0  0  0  0  0
  -26.4050  -13.2270   19.9980 N   0  0  0  0  0  0  0  0  0  0  0  0
  -26.0350  -11.9470   20.2540 N   0  0  0  0  0  0  0  0  0  0  0  0
  -24.0230  -10.7640   20.8630 C   0  0  0  0  0  0  0  0  0  0  0  0
  -24.4570   -9.7800   21.7770 C   0  0  0  0  0  3  0  0  0  0  0  0
  -23.7080   -8.5990   21.9660 C   0  0  0  0  0  3  0  0  0  0  0  0
  -22.5110   -8.3960   21.2400 C   0  0  0  0  0  0  0  0  0  0  0  0
  -22.0950   -9.3680   20.3140 C   0  0  0  0  0  3  0  0  0  0  0  0
  -22.8460  -10.5400   20.1230 C   0  0  0  0  0  3  0  0  0  0  0  0
  -21.7320   -7.2670   21.3390 O   0  0  0  0  0  0  0  0  0  0  0  0
  -21.6470   -6.5510   22.5060 C   0  0  0  0  0  0  0  0  0  0  0  0
  -21.2190   -7.1440   23.7150 C   0  0  0  0  0  3  0  0  0  0  0  0
  -21.0810   -6.3550   24.8750 C   0  0  0  0  0  3  0  0  0  0  0  0
  -21.3630   -4.9770   24.8270 C   0  0  0  0  0  0  0  0  0  0  0  0
  -21.7840   -4.3850   23.6240 C   0  0  0  0  0  3  0  0  0  0  0  0
  -21.9240   -5.1700   22.4660 C   0  0  0  0  0  0  0  0  0  0  0  0
  -22.3110   -4.5910   21.3040 F   0  0  0  0  0  0  0  0  0  0  0  0
  -21.2230   -4.2170   25.9390 F   0  0  0  0  0  0  0  0  0  0  0  0
  -22.9950  -13.8800   21.1620 C   0  0  0  0  0  0  0  0  0  0  0  0
  -22.3200  -13.1910   22.0750 N   0  0  0  0  0  0  0  0  0  0  0  0
  -22.5440  -14.9230   20.6910 O   0  0  0  0  0  0  0  0  0  0  0  0
  -22.7000  -12.3480   22.4790 H   0  0  0  0  0  0  0  0  0  0  0  0
  -21.4110  -13.5140   22.3750 H   0  0  0  0  0  0  0  0  0  0  0  0
  -25.5850  -15.4960   20.1930 N   0  0  0  0  0  0  0  0  0  0  0  0
  -24.8460  -16.1590   20.3960 H   0  0  0  0  0  0  0  0  0  0  0  0
  -26.4180  -15.9340   19.8180 H   0  0  0  0  0  0  0  0  0  0  0  0
  -30.5570  -16.1780   22.1370 C   0  0  0  0  0  2  0  0  0  0  0  0
  -29.8200  -17.0430   22.9870 O   0  0  0  0  0  0  0  0  0  0  0  0
  -29.9190  -17.9270   22.6510 H   0  0  0  0  0  0  0  0  0  0  0  0
  -28.9770  -21.8820   20.4830 C   0  0  0  0  0  3  0  0  0  0  0  0
  -29.3270  -23.5050   20.2800 C   0  0  0  0  0  3  0  0  0  0  0  0
  -28.2030  -24.7250   20.4300 C   0  0  0  0  0  3  0  0  0  0  0  0
  -28.4500  -26.2490   20.3840 O   0  0  0  0  0  0  0  0  0  0  0  0
  -24.6320  -31.8730   23.1880 C   0  0  0  0  0  0  0  0  0  0  0  0
  -27.3560  -27.1760   20.3010 C   0  0  0  0  0  0  0  0  0  0  0  0
  -23.4860  -30.4220   21.5560 C   0  0  0  0  0  3  0  0  0  0  0  0
  -24.9870  -28.8490   20.1960 C   0  0  0  0  0  0  0  0  0  0  0  0
  -26.0350  -30.7390   21.4310 C   0  0  0  0  0  2  0  0  0  0  0  0
  -26.1470  -29.3380   20.8110 C   0  0  0  0  0  0  0  0  0  0  0  0
  -27.3330  -28.5180   20.8450 C   0  0  0  0  0  3  0  0  0  0  0  0
  -26.1670  -26.7790   19.6500 C   0  0  0  0  0  3  0  0  0  0  0  0
  -25.0080  -27.5810   19.6010 C   0  0  0  0  0  3  0  0  0  0  0  0
  -23.7440  -29.7200   20.1990 C   0  0  0  0  0  2  0  0  0  0  0  0
  -24.7370  -31.0340   22.1130 N   0  0  0  0  0  0  0  0  0  0  0  0
  -23.5340  -32.1480   23.6900 O   0  0  0  0  0  0  0  0  0  0  0  0
  -22.8110  -29.4220   22.5270 C   0  0  0  0  0  0  0  0  0  0  0  0
  -21.4930  -29.2100   22.3660 N   0  0  0  0  0  0  0  0  0  0  0  0
  -23.4750  -28.8380   23.3870 O   0  0  0  0  0  0  0  0  0  0  0  0
  -21.0130  -29.7320   21.6460 H   0  0  0  0  0  0  0  0  0  0  0  0
  -18.1400  -27.9000   22.7720 C   0  0  0  0  0  0  0  0  0  0  0  0
  -20.6720  -28.2750   23.1400 C   0  0  0  0  0  3  0  0  0  0  0  0
  -20.8560  -26.8250   22.6350 C   0  0  0  0  0  2  0  0  0  0  0  0
  -19.8140  -26.4150   21.5890 C   0  0  0  0  0  2  0  0  0  0  0  0
  -18.3990  -26.5320   22.1630 C   0  0  0  0  0  2  0  0  0  0  0  0
  -19.2090  -28.7240   23.2170 C   0  0  0  0  0  0  0  0  0  0  0  0
  -18.9140  -30.0000   23.7450 C   0  0  0  0  0  3  0  0  0  0  0  0
  -17.5850  -30.4540   23.8340 C   0  0  0  0  0  3  0  0  0  0  0  0
  -16.5310  -29.6290   23.4050 C   0  0  0  0  0  3  0  0  0  0  0  0
  -16.8090  -28.3530   22.8810 C   0  0  0  0  0  3  0  0  0  0  0  0
  -25.8900  -32.5430   23.8220 C   0  0  0  0  0  3  0  0  0  0  0  0
  -25.5480  -33.9430   24.1200 N   0  0  0  0  0  0  0  0  0  0  0  0
  -25.8980  -34.9910   23.3630 C   0  0  0  0  0  0  0  0  0  0  0  0
  -26.6100  -34.8830   22.3610 O   0  0  0  0  0  0  0  0  0  0  0  0
  -24.9230  -34.1000   24.8970 H   0  0  0  0  0  0  0  0  0  0  0  0
  -24.1710  -36.7640   22.9150 C   0  0  0  0  0  1  0  0  0  0  0  0
  -25.3780  -36.3800   23.7850 C   0  0  0  0  0  3  0  0  0  0  0  0
  -27.4660  -37.2930   24.6970 C   0  0  0  0  0  1  0  0  0  0  0  0
  -26.4050  -37.4430   23.7070 N   0  0  0  0  0  0  0  0  0  0  0  0
  -25.9840  -38.3600   23.8300 H   0  0  0  0  0  0  0  0  0  0  0  0
  -26.3890  -31.8110   25.1290 C   0  0  1  0  0  0  0  0  0  0  0  0
  -25.2760  -31.5770   26.1760 C   0  0  0  0  0  1  0  0  0  0  0  0
  -27.0060  -30.4350   24.7850 C   0  0  0  0  0  1  0  0  0  0  0  0
  -27.5110  -32.6400   25.7980 C   0  0  0  0  0  1  0  0  0  0  0  0
  1 46  2  0
  2  3  1  0
  2  5  1  0
  3  6  1  0
  4  5  1  0
  4  6  1  0
  5  1  1  0
  6 43  1  1
  7  6  1  0
  8 13  1  0
  9 10  1  0
  9  8  1  0
 11 10  1  0
 11 18  1  0
 11 12  1  0
 13  7  1  0
 13 12  1  0
 14  7  2  0
 15 16  2  0
 16 35  1  0
 17 16  1  0
 17 20  1  0
 18 19  1  0
 18 15  1  0
 19 17  2  0
 20 21  1  0
 21 22  2  0
 23 26  1  0
 23 22  1  0
 24 23  2  0
 25 24  1  0
 25 20  2  0
 26 27  1  0
 27 28  1  0
 28 29  2  0
 30 29  1  0
 30 34  1  0
 31 30  2  0
 32 27  2  0
 32 31  1  0
 33 32  1  0
 35 36  1  0
 36 39  1  0
 36 38  1  0
 37 35  2  0
 40 15  1  0
 40 41  1  0
 42 40  1  0
 43 44  1  0
 45 44  1  0
 47 48  2  0
 47 46  1  0
 49 48  1  0
 50 61  2  0
 51 49  1  0
 51 56  1  0
 52 60  1  0
 52 62  1  0
 53 59  1  0
 53 55  1  0
 54 60  1  0
 55 56  2  0
 55 54  1  0
 57 51  2  0
 58 57  1  0
 58 53  2  0
 59 52  1  0
 60 50  1  0
 62 64  2  0
 63 62  1  0
 65 63  1  0
 66 75  2  0
 66 71  1  0
 67 63  1  0
 67 71  1  0
 68 67  1  0
 69 70  1  0
 69 68  1  0
 70 66  1  0
 71 72  2  0
 72 73  1  0
 74 73  2  0
 75 74  1  0
 76 50  1  0
 76 77  1  0
 76 86  1  0
 77 80  1  0
 78 82  1  0
 78 77  1  0
 79 78  2  0
 82 81  1  0
 84 82  1  0
 84 85  1  0
 84 83  1  0
 86 89  1  1
 86 87  1  0
 88 86  1  0
M  ISO  4   6 100   7 100  48 101  49 101
M  END
>  <TORSDO>  (12) 
F 22

>  <SCORE>  (12) 
-12.675

>  <name>  (12) 
11

>  <ligand_id>  (12) 
11

>  <original_smiles>  (12) 
[H]OC([H])([H])C1(C(=O)N2C([H])([H])C([H])([H])C([H])([H])C([H])(n3nc(-c4c([H])c([H])c(Oc5c([H])c([H])c(F)c([H])c5F)c([H])c4[H])c(C(=O)N([H])[H])c3N([H])[H])C2([H])[H])C([H])([H])C([H])([H])C([H])(C([H])([H])C([H])([H])C([H])([H])C([H])([H])Oc2c([H])c([H])c3c(c2[H])C([H])([H])N(C(=O)C([H])(N([H])C(=O)C([H])(N([H])C([H])([H])[H])C([H])([H])[H])C(C([H])([H])[H])(C([H])([H])[H])C([H])([H])[H])C([H])(C(=O)N([H])C2([H])c4c([H])c([H])c([H])c([H])c4C([H])([H])C([H])([H])C2([H])[H])C3([H])[H])C1([H])[H]

>  <smiles>  (12) 
[H]OC([H])([H])C1(C(=O)N2C([H])([H])C([H])([H])C([H])([H])C([H])(n3nc(-c4c([H])c([H])c(Oc5c([H])c([H])c(F)c([H])c5F)c([H])c4[H])c(C(=O)N([H])[H])c3N([H])[H])C2([H])[H])C([H])([H])C([H])([H])C([H])(C([H])([H])C([H])([H])C([H])([H])C([H])([H])Oc2c([H])c([H])c3c(c2[H])C([H])([H])N(C(=O)C([H])(N([H])C(=O)C([H])(N([H])C([H])([H])[H])C([H])([H])[H])C(C([H])([H])[H])(C([H])([H])[H])C([H])([H])[H])C([H])(C(=O)N([H])C2([H])c4c([H])c([H])c([H])c([H])c4C([H])([H])C([H])([H])C2([H])[H])C3([H])[H])C1([H])[H]

$$$$
12:0:0
     RDKit          3D

 95103  0  0  1  0  0  0  0  0999 V2000
  -29.0600  -23.5540   19.5110 N   0  0  0  0  0  4  0  0  0  0  0  0
  -28.5590  -23.6420   20.3840 H   0  0  0  0  0  0  0  0  0  0  0  0
  -28.3680  -23.3140   18.8150 H   0  0  0  0  0  0  0  0  0  0  0  0
  -30.4460  -21.9040   18.2400 C   0  0  0  0  0  1  0  0  0  0  0  0
  -29.9920  -22.3870   19.6350 C   0  0  0  0  0  3  0  0  0  0  0  0
  -29.3270  -21.2460   20.4650 C   0  0  0  0  0  2  0  0  0  0  0  0
  -29.5450  -20.1290   22.7360 C   0  0  0  0  0  1  0  0  0  0  0  0
  -30.2350  -20.3420   21.3660 C   0  0  0  0  0  3  0  0  0  0  0  0
  -32.1100  -16.8440   21.1250 C   0  0  0  0  0  2  0  0  0  0  0  0
  -30.2230  -16.8020   19.5150 C   0  0  0  0  0  2  0  0  0  0  0  0
  -31.5830  -18.1590   21.7340 C   0  0  0  0  0  2  0  0  0  0  0  0
  -29.6440  -18.1110   20.1000 C   0  0  0  0  0  2  0  0  0  0  0  0
  -30.9640  -15.9570   20.5800 C   0  0  0  0  0  3  0  0  0  0  0  0
  -30.7420  -19.0000   20.7350 C   0  0  0  0  0  3  0  0  0  0  0  0
  -31.5100  -14.6290   19.9780 C   0  0  0  0  0  0  0  0  0  0  0  0
  -30.9930  -12.5070   18.8380 C   0  0  0  0  0  2  0  0  0  0  0  0
  -30.0240  -12.8000   17.6730 C   0  0  0  0  0  2  0  0  0  0  0  0
  -28.5600  -12.7730   18.1590 C   0  0  0  0  0  2  0  0  0  0  0  0
  -28.3380  -13.6000   19.4540 C   0  0  0  0  0  3  0  0  0  0  0  0
  -29.4250  -13.2840   20.5050 C   0  0  0  0  0  2  0  0  0  0  0  0
  -30.7430  -13.5040   19.8900 N   0  0  0  0  0  0  0  0  0  0  0  0
  -32.6320  -14.6810   19.4650 O   0  0  0  0  0  0  0  0  0  0  0  0
  -26.0190  -14.3580   20.2730 C   0  0  0  0  0  0  0  0  0  0  0  0
  -24.9160  -13.6540   20.6710 C   0  0  0  0  0  0  0  0  0  0  0  0
  -25.2800  -12.2740   20.6000 C   0  0  0  0  0  0  0  0  0  0  0  0
  -26.9920  -13.4130   19.9870 N   0  0  0  0  0  0  0  0  0  0  0  0
  -26.5520  -12.1520   20.2410 N   0  0  0  0  0  0  0  0  0  0  0  0
  -24.4760  -11.0620   20.7930 C   0  0  0  0  0  0  0  0  0  0  0  0
  -24.8350  -10.0820   21.7430 C   0  0  0  0  0  3  0  0  0  0  0  0
  -24.0340   -8.9340   21.9250 C   0  0  0  0  0  3  0  0  0  0  0  0
  -22.8610   -8.7580   21.1550 C   0  0  0  0  0  0  0  0  0  0  0  0
  -22.5240   -9.7260   20.1900 C   0  0  0  0  0  3  0  0  0  0  0  0
  -23.3240  -10.8640   20.0070 C   0  0  0  0  0  3  0  0  0  0  0  0
  -22.0360   -7.6630   21.2440 O   0  0  0  0  0  0  0  0  0  0  0  0
  -21.8700   -6.9830   22.4250 C   0  0  0  0  0  0  0  0  0  0  0  0
  -21.4000   -7.6220   23.5950 C   0  0  0  0  0  3  0  0  0  0  0  0
  -21.1780   -6.8700   24.7660 C   0  0  0  0  0  3  0  0  0  0  0  0
  -21.4140   -5.4820   24.7670 C   0  0  0  0  0  0  0  0  0  0  0  0
  -21.8760   -4.8440   23.6020 C   0  0  0  0  0  3  0  0  0  0  0  0
  -22.1020   -5.5920   22.4330 C   0  0  0  0  0  0  0  0  0  0  0  0
  -22.5240   -4.9700   21.3060 F   0  0  0  0  0  0  0  0  0  0  0  0
  -21.1950   -4.7570   25.8890 F   0  0  0  0  0  0  0  0  0  0  0  0
  -23.5660  -14.2200   21.0080 C   0  0  0  0  0  0  0  0  0  0  0  0
  -22.8330  -13.5730   21.9060 N   0  0  0  0  0  0  0  0  0  0  0  0
  -23.1730  -15.2730   20.5090 O   0  0  0  0  0  0  0  0  0  0  0  0
  -23.1640  -12.7210   22.3370 H   0  0  0  0  0  0  0  0  0  0  0  0
  -21.9280  -13.9400   22.1690 H   0  0  0  0  0  0  0  0  0  0  0  0
  -26.2620  -15.7190   20.1140 N   0  0  0  0  0  0  0  0  0  0  0  0
  -25.5340  -16.4100   20.2600 H   0  0  0  0  0  0  0  0  0  0  0  0
  -27.1220  -16.1210   19.7640 H   0  0  0  0  0  0  0  0  0  0  0  0
  -29.6400  -24.8910   19.1640 C   0  0  0  0  0  3  0  0  0  0  0  0
  -32.1300  -25.2440   19.7680 C   0  0  0  0  0  1  0  0  0  0  0  0
  -30.6690  -25.4120   20.2080 C   0  0  0  0  0  2  0  0  0  0  0  0
  -28.5410  -25.9490   18.8360 C   0  0  0  0  0  2  0  0  0  0  0  0
  -28.2050  -26.7410   19.9850 O   0  0  0  0  0  0  0  0  0  0  0  0
  -24.6250  -31.8670   23.3640 C   0  0  0  0  0  0  0  0  0  0  0  0
  -27.0510  -27.4980   19.9960 C   0  0  0  0  0  0  0  0  0  0  0  0
  -23.3310  -30.5750   21.6980 C   0  0  0  0  0  3  0  0  0  0  0  0
  -24.6980  -29.0600   20.1640 C   0  0  0  0  0  0  0  0  0  0  0  0
  -25.8610  -30.8660   21.4460 C   0  0  0  0  0  2  0  0  0  0  0  0
  -25.8850  -29.5240   20.7410 C   0  0  0  0  0  0  0  0  0  0  0  0
  -27.0600  -28.7430   20.6640 C   0  0  0  0  0  3  0  0  0  0  0  0
  -25.8380  -27.0380   19.4320 C   0  0  0  0  0  3  0  0  0  0  0  0
  -24.6680  -27.8160   19.5120 C   0  0  0  0  0  3  0  0  0  0  0  0
  -23.4790  -29.9460   20.2860 C   0  0  0  0  0  2  0  0  0  0  0  0
  -24.6260  -31.1150   22.2280 N   0  0  0  0  0  0  0  0  0  0  0  0
  -23.5680  -32.1480   23.9470 O   0  0  0  0  0  0  0  0  0  0  0  0
  -22.6770  -29.5320   22.6330 C   0  0  0  0  0  0  0  0  0  0  0  0
  -21.3500  -29.3610   22.5080 N   0  0  0  0  0  0  0  0  0  0  0  0
  -23.3590  -28.8790   23.4270 O   0  0  0  0  0  0  0  0  0  0  0  0
  -20.8580  -29.9440   21.8440 H   0  0  0  0  0  0  0  0  0  0  0  0
  -17.9840  -28.1220   22.9350 C   0  0  0  0  0  0  0  0  0  0  0  0
  -20.5320  -28.4060   23.2560 C   0  0  0  0  0  3  0  0  0  0  0  0
  -20.6610  -26.9810   22.6680 C   0  0  0  0  0  2  0  0  0  0  0  0
  -19.5820  -26.6540   21.6320 C   0  0  0  0  0  2  0  0  0  0  0  0
  -18.1860  -26.7820   22.2490 C   0  0  0  0  0  2  0  0  0  0  0  0
  -19.0860  -28.8930   23.3910 C   0  0  0  0  0  0  0  0  0  0  0  0
  -18.8440  -30.1490   23.9880 C   0  0  0  0  0  3  0  0  0  0  0  0
  -17.5310  -30.6360   24.1310 C   0  0  0  0  0  3  0  0  0  0  0  0
  -16.4440  -29.8630   23.6930 C   0  0  0  0  0  3  0  0  0  0  0  0
  -16.6690  -28.6070   23.1010 C   0  0  0  0  0  3  0  0  0  0  0  0
  -25.9470  -32.4350   23.9710 C   0  0  0  0  0  3  0  0  0  0  0  0
  -25.6910  -33.8270   24.3610 N   0  0  0  0  0  0  0  0  0  0  0  0
  -26.0530  -34.8990   23.6440 C   0  0  0  0  0  0  0  0  0  0  0  0
  -26.7070  -34.8170   22.6010 O   0  0  0  0  0  0  0  0  0  0  0  0
  -25.1140  -33.9680   25.1770 H   0  0  0  0  0  0  0  0  0  0  0  0
  -24.3840  -36.7620   23.3860 C   0  0  0  0  0  1  0  0  0  0  0  0
  -25.6180  -36.2820   24.1650 C   0  0  0  0  0  3  0  0  0  0  0  0
  -27.7880  -37.0560   25.0120 C   0  0  0  0  0  1  0  0  0  0  0  0
  -26.6850  -37.3050   24.0880 N   0  0  0  0  0  0  0  0  0  0  0  0
  -26.3120  -38.2300   24.2840 H   0  0  0  0  0  0  0  0  0  0  0  0
  -26.4780  -31.5990   25.2000 C   0  0  1  0  0  0  0  0  0  0  0  0
  -25.4070  -31.3440   26.2860 C   0  0  0  0  0  1  0  0  0  0  0  0
  -27.0120  -30.2260   24.7330 C   0  0  0  0  0  1  0  0  0  0  0  0
  -27.6670  -32.3330   25.8600 C   0  0  0  0  0  1  0  0  0  0  0  0
  1  5  1  0
  1  2  1  0
  3  1  1  0
  5  4  1  0
  5  6  1  0
  6  8  1  0
  8  7  1  0
  9 11  1  0
 10 12  1  0
 10 13  1  0
 12 14  1  0
 13 15  1  0
 13  9  1  0
 14  8  1  0
 14 11  1  0
 16 21  1  0
 17 18  1  0
 17 16  1  0
 19 18  1  0
 19 26  1  0
 19 20  1  0
 21 15  1  0
 21 20  1  0
 22 15  2  0
 23 24  2  0
 24 43  1  0
 25 24  1  0
 25 28  1  0
 26 27  1  0
 26 23  1  0
 27 25  2  0
 28 29  1  0
 29 30  2  0
 31 34  1  0
 31 30  1  0
 32 31  2  0
 33 32  1  0
 33 28  2  0
 34 35  1  0
 35 40  2  0
 35 36  1  0
 36 37  2  0
 37 38  1  0
 38 42  1  0
 39 38  2  0
 40 39  1  0
 41 40  1  0
 43 44  1  0
 44 47  1  0
 44 46  1  0
 45 43  2  0
 48 49  1  0
 48 23  1  0
 50 48  1  0
 51 54  1  0
 51  1  1  0
 51 53  1  0
 52 53  1  0
 54 55  1  0
 55 57  1  0
 56 67  2  0
 57 62  1  0
 58 66  1  0
 58 68  1  0
 59 65  1  0
 59 61  1  0
 60 66  1  0
 61 60  1  0
 62 61  2  0
 63 64  1  0
 63 57  2  0
 64 59  2  0
 65 58  1  0
 66 56  1  0
 68 70  2  0
 69 68  1  0
 71 69  1  0
 72 81  2  0
 72 77  1  0
 73 69  1  0
 73 77  1  0
 74 73  1  0
 75 76  1  0
 75 74  1  0
 76 72  1  0
 77 78  2  0
 78 79  1  0
 80 79  2  0
 81 80  1  0
 82 56  1  0
 82 83  1  0
 82 92  1  0
 83 86  1  0
 84 88  1  0
 84 83  1  0
 85 84  2  0
 88 87  1  0
 90 88  1  0
 90 91  1  0
 90 89  1  0
 92 95  1  1
 92 93  1  0
 94 92  1  0
M  ISO  4  13 100  15 100  54 101  55 101
M  END
>  <TORSDO>  (13) 
F 23

>  <SCORE>  (13) 
-10.419

>  <name>  (13) 
12

>  <ligand_id>  (13) 
12

>  <original_smiles>  (13) 
[H]c1c([H])c([H])c2c(c1[H])C([H])([H])C([H])([H])C([H])([H])C2([H])N([H])C(=O)C1([H])N(C(=O)C([H])(N([H])C(=O)C([H])(N([H])C([H])([H])[H])C([H])([H])[H])C(C([H])([H])[H])(C([H])([H])[H])C([H])([H])[H])C([H])([H])c2c([H])c(OC([H])([H])C([H])(C([H])([H])C([H])([H])[H])[N+]([H])([H])C([H])(C([H])([H])[H])C([H])([H])C([H])(C([H])([H])[H])C3([H])C([H])([H])C([H])([H])C([H])(C(=O)N4C([H])([H])C([H])([H])C([H])([H])C([H])(n5nc(-c6c([H])c([H])c(Oc7c([H])c([H])c(F)c([H])c7F)c([H])c6[H])c(C(=O)N([H])[H])c5N([H])[H])C4([H])[H])C([H])([H])C3([H])[H])c([H])c([H])c2C1([H])[H]

>  <smiles>  (13) 
[H]c1c([H])c([H])c2c(c1[H])C([H])([H])C([H])([H])C([H])([H])C2([H])N([H])C(=O)C1([H])N(C(=O)C([H])(N([H])C(=O)C([H])(N([H])C([H])([H])[H])C([H])([H])[H])C(C([H])([H])[H])(C([H])([H])[H])C([H])([H])[H])C([H])([H])c2c([H])c(OC([H])([H])C([H])(C([H])([H])C([H])([H])[H])[N+]([H])([H])C([H])(C([H])([H])[H])C([H])([H])C([H])(C([H])([H])[H])C3([H])C([H])([H])C([H])([H])C([H])(C(=O)N4C([H])([H])C([H])([H])C([H])([H])C([H])(n5nc(-c6c([H])c([H])c(Oc7c([H])c([H])c(F)c([H])c7F)c([H])c6[H])c(C(=O)N([H])[H])c5N([H])[H])C4([H])[H])C([H])([H])C3([H])[H])c([H])c([H])c2C1([H])[H]

$$$$
13:0:0
     RDKit          3D

 91100  0  0  1  0  0  0  0  0999 V2000
  -32.6280  -18.4750   21.3270 C   0  0  0  0  0  2  0  0  0  0  0  0
  -31.9600  -18.2530   19.9610 C   0  0  0  0  0  2  0  0  0  0  0  0
  -31.6580  -19.0340   22.3900 C   0  0  0  0  0  2  0  0  0  0  0  0
  -31.0610  -21.1550   21.0110 C   0  0  0  0  0  2  0  0  0  0  0  0
  -30.4350  -18.0680   20.1020 C   0  0  0  0  0  3  0  0  0  0  0  0
  -30.0250  -20.8600   19.9450 C   0  0  0  0  0  3  0  0  0  0  0  0
  -30.5550  -19.9650   21.8380 C   0  0  2  0  0  0  0  0  0  0  0  0
  -29.5620  -20.2640   22.9670 C   0  0  0  0  0  1  0  0  0  0  0  0
  -29.8320  -19.4400   20.6370 N   0  0  2  0  0  4  0  0  0  0  0  0
  -28.8500  -19.3020   20.8260 H   0  0  0  0  0  0  0  0  0  0  0  0
  -30.0640  -16.5990   20.8490 C   0  0  0  0  0  2  0  0  0  0  0  0
  -30.8640  -15.1630   20.6810 C   0  0  0  0  0  0  0  0  0  0  0  0
  -30.7620  -12.7710   19.8730 C   0  0  0  0  0  2  0  0  0  0  0  0
  -29.9480  -12.7200   18.5590 C   0  0  0  0  0  2  0  0  0  0  0  0
  -28.4480  -12.5580   18.8630 C   0  0  0  0  0  2  0  0  0  0  0  0
  -27.9590  -13.5500   19.9480 C   0  0  0  0  0  3  0  0  0  0  0  0
  -28.9060  -13.5990   21.1670 C   0  0  0  0  0  2  0  0  0  0  0  0
  -30.2530  -13.9160   20.6760 N   0  0  0  0  0  0  0  0  0  0  0  0
  -32.0740  -15.1780   20.4420 O   0  0  0  0  0  0  0  0  0  0  0  0
  -25.5430  -14.2110   20.4860 C   0  0  0  0  0  0  0  0  0  0  0  0
  -24.4290  -13.4720   20.7780 C   0  0  0  0  0  0  0  0  0  0  0  0
  -24.8550  -12.1080   20.8000 C   0  0  0  0  0  0  0  0  0  0  0  0
  -26.5760  -13.3000   20.3390 N   0  0  0  0  0  0  0  0  0  0  0  0
  -26.1650  -12.0300   20.5940 N   0  0  0  0  0  0  0  0  0  0  0  0
  -24.0770  -10.8700   20.9430 C   0  0  0  0  0  0  0  0  0  0  0  0
  -24.4060   -9.9000   21.9150 C   0  0  0  0  0  3  0  0  0  0  0  0
  -23.6290   -8.7280   22.0480 C   0  0  0  0  0  3  0  0  0  0  0  0
  -22.5100   -8.5190   21.2070 C   0  0  0  0  0  0  0  0  0  0  0  0
  -22.2010   -9.4770   20.2250 C   0  0  0  0  0  3  0  0  0  0  0  0
  -22.9780  -10.6410   20.0920 C   0  0  0  0  0  3  0  0  0  0  0  0
  -21.7150   -7.3980   21.2450 O   0  0  0  0  0  0  0  0  0  0  0  0
  -21.5750   -6.6560   22.3890 C   0  0  0  0  0  0  0  0  0  0  0  0
  -21.0420   -7.2060   23.5760 C   0  0  0  0  0  3  0  0  0  0  0  0
  -20.8500   -6.3890   24.7080 C   0  0  0  0  0  3  0  0  0  0  0  0
  -21.1810   -5.0220   24.6540 C   0  0  0  0  0  0  0  0  0  0  0  0
  -21.7050   -4.4700   23.4710 C   0  0  0  0  0  3  0  0  0  0  0  0
  -21.8990   -5.2840   22.3420 C   0  0  0  0  0  0  0  0  0  0  0  0
  -22.3850   -4.7430   21.1990 F   0  0  0  0  0  0  0  0  0  0  0  0
  -20.9890   -4.2340   25.7370 F   0  0  0  0  0  0  0  0  0  0  0  0
  -23.0300  -13.9940   20.9290 C   0  0  0  0  0  0  0  0  0  0  0  0
  -22.2120  -13.3290   21.7360 N   0  0  0  0  0  0  0  0  0  0  0  0
  -22.6690  -15.0270   20.3660 O   0  0  0  0  0  0  0  0  0  0  0  0
  -22.5160  -12.4950   22.2150 H   0  0  0  0  0  0  0  0  0  0  0  0
  -21.2700  -13.6610   21.8810 H   0  0  0  0  0  0  0  0  0  0  0  0
  -25.7590  -15.5750   20.3080 N   0  0  0  0  0  0  0  0  0  0  0  0
  -24.9970  -16.2440   20.3390 H   0  0  0  0  0  0  0  0  0  0  0  0
  -26.6380  -15.9860   20.0230 H   0  0  0  0  0  0  0  0  0  0  0  0
  -28.8750  -22.0520   19.8040 C   0  0  0  0  0  2  0  0  0  0  0  0
  -29.2750  -23.6750   19.7260 C   0  0  0  0  0  3  0  0  0  0  0  0
  -28.1790  -24.9030   19.4980 C   0  0  0  0  0  3  0  0  0  0  0  0
  -28.4030  -26.4080   19.7310 O   0  0  0  0  0  0  0  0  0  0  0  0
  -24.5420  -31.6660   23.0890 C   0  0  0  0  0  0  0  0  0  0  0  0
  -27.2980  -27.3230   19.7300 C   0  0  0  0  0  0  0  0  0  0  0  0
  -23.3980  -30.3560   21.3410 C   0  0  0  0  0  3  0  0  0  0  0  0
  -24.9040  -28.9520   19.8130 C   0  0  0  0  0  0  0  0  0  0  0  0
  -25.9370  -30.7350   21.2110 C   0  0  0  0  0  2  0  0  0  0  0  0
  -26.0630  -29.4030   20.4590 C   0  0  0  0  0  0  0  0  0  0  0  0
  -27.2620  -28.6060   20.4010 C   0  0  0  0  0  3  0  0  0  0  0  0
  -26.1080  -26.9630   19.0580 C   0  0  0  0  0  3  0  0  0  0  0  0
  -24.9370  -27.7450   19.1010 C   0  0  0  0  0  3  0  0  0  0  0  0
  -23.6460  -29.7950   19.9170 C   0  0  0  0  0  2  0  0  0  0  0  0
  -24.6440  -30.9360   21.9360 N   0  0  0  0  0  0  0  0  0  0  0  0
  -23.4450  -31.8700   23.6300 O   0  0  0  0  0  0  0  0  0  0  0  0
  -22.7540  -29.2550   22.2200 C   0  0  0  0  0  0  0  0  0  0  0  0
  -21.4280  -29.0650   22.0880 N   0  0  0  0  0  0  0  0  0  0  0  0
  -23.4480  -28.5780   22.9820 O   0  0  0  0  0  0  0  0  0  0  0  0
  -20.9240  -29.6670   21.4530 H   0  0  0  0  0  0  0  0  0  0  0  0
  -18.0650  -27.8200   22.5930 C   0  0  0  0  0  0  0  0  0  0  0  0
  -20.6340  -28.0490   22.7850 C   0  0  0  0  0  3  0  0  0  0  0  0
  -20.7050  -26.6880   22.0540 C   0  0  0  0  0  2  0  0  0  0  0  0
  -19.5630  -26.4780   21.0550 C   0  0  0  0  0  2  0  0  0  0  0  0
  -18.2090  -26.5530   21.7670 C   0  0  0  0  0  2  0  0  0  0  0  0
  -19.2030  -28.5310   23.0580 C   0  0  0  0  0  0  0  0  0  0  0  0
  -19.0130  -29.7200   23.7950 C   0  0  0  0  0  3  0  0  0  0  0  0
  -17.7180  -30.1970   24.0690 C   0  0  0  0  0  3  0  0  0  0  0  0
  -16.5950  -29.4830   23.6180 C   0  0  0  0  0  3  0  0  0  0  0  0
  -16.7690  -28.2950   22.8860 C   0  0  0  0  0  3  0  0  0  0  0  0
  -25.7970  -32.2930   23.7710 C   0  0  0  0  0  3  0  0  0  0  0  0
  -26.2570  -31.5110   25.0630 C   0  0  1  0  0  0  0  0  0  0  0  0
  -25.1200  -31.2670   26.0830 C   0  0  0  0  0  1  0  0  0  0  0  0
  -26.8550  -30.1360   24.6880 C   0  0  0  0  0  1  0  0  0  0  0  0
  -27.3800  -32.2990   25.7780 C   0  0  0  0  0  1  0  0  0  0  0  0
  -25.4710  -33.6890   24.1050 N   0  0  0  0  0  0  0  0  0  0  0  0
  -25.7890  -34.7480   23.3480 C   0  0  0  0  0  0  0  0  0  0  0  0
  -26.4520  -34.6540   22.3110 O   0  0  0  0  0  0  0  0  0  0  0  0
  -24.8800  -33.8340   24.9100 H   0  0  0  0  0  0  0  0  0  0  0  0
  -24.0160  -36.5090   23.0450 C   0  0  0  0  0  1  0  0  0  0  0  0
  -25.2920  -36.1320   23.8130 C   0  0  0  0  0  3  0  0  0  0  0  0
  -27.4260  -37.0740   24.5780 C   0  0  0  0  0  1  0  0  0  0  0  0
  -26.3000  -37.2020   23.6570 N   0  0  0  0  0  0  0  0  0  0  0  0
  -25.8800  -38.1170   23.7960 H   0  0  0  0  0  0  0  0  0  0  0  0
  1  3  1  0
  2  5  1  0
  2  1  1  0
  4  7  1  0
  5  9  1  0
  5 11  1  0
  6 48  1  0
  6  9  1  0
  6  4  1  0
  7  3  1  0
  7  8  1  1
  9 10  1  1
  9  7  1  0
 12 11  1  0
 13 18  1  0
 14 15  1  0
 14 13  1  0
 16 15  1  0
 16 23  1  0
 16 17  1  0
 18 12  1  0
 18 17  1  0
 19 12  2  0
 20 21  2  0
 21 22  1  0
 21 40  1  0
 22 25  1  0
 23 20  1  0
 23 24  1  0
 24 22  2  0
 25 26  1  0
 26 27  2  0
 28 31  1  0
 28 27  1  0
 29 28  2  0
 30 29  1  0
 30 25  2  0
 31 32  1  0
 32 33  1  0
 33 34  2  0
 35 34  1  0
 35 39  1  0
 36 35  2  0
 37 32  2  0
 37 36  1  0
 38 37  1  0
 40 41  1  0
 41 44  1  0
 41 43  1  0
 42 40  2  0
 45 46  1  0
 45 20  1  0
 47 45  1  0
 49 48  1  0
 50 49  2  0
 50 51  1  0
 52 63  2  0
 53 51  1  0
 53 58  1  0
 54 62  1  0
 54 64  1  0
 55 61  1  0
 55 57  1  0
 56 62  1  0
 57 56  1  0
 58 57  2  0
 59 60  1  0
 59 53  2  0
 60 55  2  0
 61 54  1  0
 62 52  1  0
 64 66  2  0
 65 64  1  0
 67 65  1  0
 68 77  2  0
 68 73  1  0
 69 65  1  0
 69 73  1  0
 70 69  1  0
 71 72  1  0
 71 70  1  0
 72 68  1  0
 73 74  2  0
 74 75  1  0
 76 75  2  0
 77 76  1  0
 78 52  1  0
 78 83  1  0
 78 79  1  0
 79 82  1  1
 79 80  1  0
 81 79  1  0
 83 86  1  0
 84 88  1  0
 84 83  1  0
 85 84  2  0
 88 87  1  0
 90 91  1  0
 90 88  1  0
 90 89  1  0
M  ISO  4  11 100  12 100  50 101  51 101
M  END
>  <TORSDO>  (14) 
F 20

>  <SCORE>  (14) 
-11.693

>  <name>  (14) 
13

>  <ligand_id>  (14) 
13

>  <original_smiles>  (14) 
[H]c1c([H])c([H])c2c(c1[H])C([H])([H])C([H])([H])C([H])([H])C2([H])N([H])C(=O)C1([H])N(C(=O)C([H])(N([H])C(=O)C([H])(N([H])C([H])([H])[H])C([H])([H])[H])C(C([H])([H])[H])(C([H])([H])[H])C([H])([H])[H])C([H])([H])c2c([H])c(OC([H])([H])C([H])([H])C([H])([H])C3([H])C([H])([H])C4(C([H])([H])[H])C([H])([H])C([H])([H])C([H])([H])C([H])(C([H])([H])C(=O)N5C([H])([H])C([H])([H])C([H])([H])C([H])(n6nc(-c7c([H])c([H])c(Oc8c([H])c([H])c(F)c([H])c8F)c([H])c7[H])c(C(=O)N([H])[H])c6N([H])[H])C5([H])[H])[N+]34[H])c([H])c([H])c2C1([H])[H]

>  <smiles>  (14) 
[H]c1c([H])c([H])c2c(c1[H])C([H])([H])C([H])([H])C([H])([H])C2([H])N([H])C(=O)C1([H])N(C(=O)C([H])(N([H])C(=O)C([H])(N([H])C([H])([H])[H])C([H])([H])[H])C(C([H])([H])[H])(C([H])([H])[H])C([H])([H])[H])C([H])([H])c2c([H])c(OC([H])([H])C([H])([H])C([H])([H])C3([H])C([H])([H])C4(C([H])([H])[H])C([H])([H])C([H])([H])C([H])([H])C([H])(C([H])([H])C(=O)N5C([H])([H])C([H])([H])C([H])([H])C([H])(n6nc(-c7c([H])c([H])c(Oc8c([H])c([H])c(F)c([H])c8F)c([H])c7[H])c(C(=O)N([H])[H])c6N([H])[H])C5([H])[H])[N+]34[H])c([H])c([H])c2C1([H])[H]

$$$$
14:0:0
     RDKit          3D

 98105  0  0  1  0  0  0  0  0999 V2000
  -29.1480  -22.8850   20.6560 C   0  0  0  0  0  3  0  0  0  0  0  0
  -27.7050  -21.0880   19.4020 C   0  0  0  0  0  1  0  0  0  0  0  0
  -26.6370  -23.1470   20.1380 C   0  0  0  0  0  1  0  0  0  0  0  0
  -27.3220  -21.5060   21.8880 C   0  0  0  0  0  1  0  0  0  0  0  0
  -27.7480  -22.1410   20.5450 C   0  0  2  0  0  0  0  0  0  0  0  0
  -30.1870  -22.2940   21.5590 N   0  0  0  0  0  4  0  0  0  0  0  0
  -31.0730  -22.4110   21.0900 H   0  0  0  0  0  0  0  0  0  0  0  0
  -30.2010  -22.8620   22.3880 H   0  0  0  0  0  0  0  0  0  0  0  0
  -30.1930  -20.8910   22.0450 C   0  0  0  0  0  3  0  0  0  0  0  0
  -30.4690  -19.8660   20.9230 C   0  0  0  0  0  0  0  0  0  0  0  0
  -30.3340  -18.5650   21.2350 N   0  0  0  0  0  0  0  0  0  0  0  0
  -30.8270  -20.2510   19.8090 O   0  0  0  0  0  0  0  0  0  0  0  0
  -30.0350  -18.3410   22.1760 H   0  0  0  0  0  0  0  0  0  0  0  0
  -30.7070  -17.4390   20.3720 C   0  0  0  0  0  2  0  0  0  0  0  0
  -30.2180  -16.0760   20.9300 C   0  0  0  0  0  2  0  0  0  0  0  0
  -30.8900  -14.8540   20.2580 C   0  0  0  0  0  0  0  0  0  0  0  0
  -30.6900  -12.5660   19.3430 C   0  0  0  0  0  2  0  0  0  0  0  0
  -29.7400  -12.5790   18.1300 C   0  0  0  0  0  2  0  0  0  0  0  0
  -28.2730  -12.4270   18.5810 C   0  0  0  0  0  2  0  0  0  0  0  0
  -27.8990  -13.3970   19.7340 C   0  0  0  0  0  3  0  0  0  0  0  0
  -28.9610  -13.3500   20.8560 C   0  0  0  0  0  2  0  0  0  0  0  0
  -30.2690  -13.6440   20.2520 N   0  0  0  0  0  0  0  0  0  0  0  0
  -31.9680  -15.0320   19.6820 O   0  0  0  0  0  0  0  0  0  0  0  0
  -25.5280  -14.0100   20.5310 C   0  0  0  0  0  0  0  0  0  0  0  0
  -24.4620  -13.2370   20.9070 C   0  0  0  0  0  0  0  0  0  0  0  0
  -24.9050  -11.8820   20.8190 C   0  0  0  0  0  0  0  0  0  0  0  0
  -26.5560  -13.1250   20.2430 N   0  0  0  0  0  0  0  0  0  0  0  0
  -26.1860  -11.8390   20.4690 N   0  0  0  0  0  0  0  0  0  0  0  0
  -24.1720  -10.6220   20.9890 C   0  0  0  0  0  0  0  0  0  0  0  0
  -24.5560   -9.6700   21.9590 C   0  0  0  0  0  3  0  0  0  0  0  0
  -23.8230   -8.4750   22.1180 C   0  0  0  0  0  3  0  0  0  0  0  0
  -22.6930   -8.2210   21.3060 C   0  0  0  0  0  0  0  0  0  0  0  0
  -22.3290   -9.1620   20.3260 C   0  0  0  0  0  3  0  0  0  0  0  0
  -23.0620  -10.3490   20.1650 C   0  0  0  0  0  3  0  0  0  0  0  0
  -21.9370   -7.0760   21.3700 O   0  0  0  0  0  0  0  0  0  0  0  0
  -21.7430   -6.4080   22.5530 C   0  0  0  0  0  0  0  0  0  0  0  0
  -21.1340   -7.0250   23.6670 C   0  0  0  0  0  3  0  0  0  0  0  0
  -20.8920   -6.2800   24.8390 C   0  0  0  0  0  3  0  0  0  0  0  0
  -21.2480   -4.9200   24.8960 C   0  0  0  0  0  0  0  0  0  0  0  0
  -21.8500   -4.3030   23.7860 C   0  0  0  0  0  3  0  0  0  0  0  0
  -22.0940   -5.0430   22.6160 C   0  0  0  0  0  0  0  0  0  0  0  0
  -22.6550   -4.4380   21.5420 F   0  0  0  0  0  0  0  0  0  0  0  0
  -21.0090   -4.2030   26.0180 F   0  0  0  0  0  0  0  0  0  0  0  0
  -23.0800  -13.7200   21.2400 C   0  0  0  0  0  0  0  0  0  0  0  0
  -22.3790  -13.0110   22.1180 N   0  0  0  0  0  0  0  0  0  0  0  0
  -22.6310  -14.7590   20.7570 O   0  0  0  0  0  0  0  0  0  0  0  0
  -22.7540  -12.1700   22.5290 H   0  0  0  0  0  0  0  0  0  0  0  0
  -21.4530  -13.3150   22.3830 H   0  0  0  0  0  0  0  0  0  0  0  0
  -25.7060  -15.3830   20.3910 N   0  0  0  0  0  0  0  0  0  0  0  0
  -24.9540  -16.0460   20.5430 H   0  0  0  0  0  0  0  0  0  0  0  0
  -26.5570  -15.8180   20.0580 H   0  0  0  0  0  0  0  0  0  0  0  0
  -30.9550  -21.7510   24.3440 C   0  0  0  0  0  1  0  0  0  0  0  0
  -32.7090  -20.8480   22.7630 C   0  0  0  0  0  1  0  0  0  0  0  0
  -31.2310  -20.7500   23.2020 C   0  0  0  0  0  3  0  0  0  0  0  0
  -29.0000  -24.3730   21.1220 C   0  0  0  0  0  2  0  0  0  0  0  0
  -29.8250  -25.4230   20.3450 C   0  0  0  0  0  2  0  0  0  0  0  0
  -29.6880  -26.8340   20.9640 C   0  0  0  0  0  2  0  0  0  0  0  0
  -29.5120  -27.8410   19.9650 O   0  0  0  0  0  0  0  0  0  0  0  0
  -24.8060  -31.7820   23.5580 C   0  0  0  0  0  0  0  0  0  0  0  0
  -28.2610  -28.4040   19.9920 C   0  0  0  0  0  0  0  0  0  0  0  0
  -23.9160  -30.5270   21.6200 C   0  0  0  0  0  3  0  0  0  0  0  0
  -25.6610  -29.4930   20.0720 C   0  0  0  0  0  0  0  0  0  0  0  0
  -26.3560  -31.2860   21.6730 C   0  0  0  0  0  2  0  0  0  0  0  0
  -26.6880  -30.0770   20.8250 C   0  0  0  0  0  0  0  0  0  0  0  0
  -27.9920  -29.5370   20.7900 C   0  0  0  0  0  3  0  0  0  0  0  0
  -27.2240  -27.8230   19.2370 C   0  0  0  0  0  3  0  0  0  0  0  0
  -25.9230  -28.3630   19.2760 C   0  0  0  0  0  3  0  0  0  0  0  0
  -24.2960  -30.1340   20.1660 C   0  0  0  0  0  2  0  0  0  0  0  0
  -25.0400  -31.2040   22.3460 N   0  0  0  0  0  0  0  0  0  0  0  0
  -23.6710  -31.7950   24.0520 O   0  0  0  0  0  0  0  0  0  0  0  0
  -23.3870  -29.2710   22.3470 C   0  0  0  0  0  0  0  0  0  0  0  0
  -22.1180  -28.9180   22.0840 N   0  0  0  0  0  0  0  0  0  0  0  0
  -24.1150  -28.6230   23.1020 O   0  0  0  0  0  0  0  0  0  0  0  0
  -21.5840  -29.5070   21.4610 H   0  0  0  0  0  0  0  0  0  0  0  0
  -18.9500  -27.1800   22.1150 C   0  0  0  0  0  0  0  0  0  0  0  0
  -21.4200  -27.7510   22.6230 C   0  0  0  0  0  3  0  0  0  0  0  0
  -21.7720  -26.4750   21.8250 C   0  0  0  0  0  2  0  0  0  0  0  0
  -20.7860  -26.1820   20.6890 C   0  0  0  0  0  2  0  0  0  0  0  0
  -19.3690  -26.0110   21.2410 C   0  0  0  0  0  2  0  0  0  0  0  0
  -19.9150  -28.0080   22.7510 C   0  0  0  0  0  0  0  0  0  0  0  0
  -19.4740  -29.1030   23.5230 C   0  0  0  0  0  3  0  0  0  0  0  0
  -18.1000  -29.3770   23.6680 C   0  0  0  0  0  3  0  0  0  0  0  0
  -17.1500  -28.5440   23.0510 C   0  0  0  0  0  3  0  0  0  0  0  0
  -17.5760  -27.4470   22.2800 C   0  0  0  0  0  3  0  0  0  0  0  0
  -25.9480  -32.4740   24.3670 C   0  0  0  0  0  3  0  0  0  0  0  0
  -26.3650  -31.6760   25.6640 C   0  0  1  0  0  0  0  0  0  0  0  0
  -25.1680  -31.2890   26.5650 C   0  0  0  0  0  1  0  0  0  0  0  0
  -27.1120  -30.3740   25.2860 C   0  0  0  0  0  1  0  0  0  0  0  0
  -27.3490  -32.5200   26.5070 C   0  0  0  0  0  1  0  0  0  0  0  0
  -25.4890  -33.8240   24.7130 N   0  0  0  0  0  0  0  0  0  0  0  0
  -25.8370  -34.9370   24.0530 C   0  0  0  0  0  0  0  0  0  0  0  0
  -26.6460  -34.9390   23.1220 O   0  0  0  0  0  0  0  0  0  0  0  0
  -24.7770  -33.8900   25.4250 H   0  0  0  0  0  0  0  0  0  0  0  0
  -24.0310  -36.6120   23.5410 C   0  0  0  0  0  1  0  0  0  0  0  0
  -25.1830  -36.2590   24.4970 C   0  0  0  0  0  3  0  0  0  0  0  0
  -27.1060  -37.2570   25.6500 C   0  0  0  0  0  1  0  0  0  0  0  0
  -26.1330  -37.3910   24.5700 N   0  0  0  0  0  0  0  0  0  0  0  0
  -25.6370  -38.2690   24.6970 H   0  0  0  0  0  0  0  0  0  0  0  0
  1 55  1  0
  1  6  1  0
  5  2  1  6
  3  5  1  0
  5  1  1  0
  5  4  1  0
  6  9  1  0
  6  8  1  0
  7  6  1  0
  9 10  1  0
  9 54  1  0
 10 11  1  0
 11 13  1  0
 12 10  2  0
 14 15  1  0
 14 11  1  0
 16 15  1  0
 17 22  1  0
 18 19  1  0
 18 17  1  0
 20 19  1  0
 20 27  1  0
 20 21  1  0
 22 16  1  0
 22 21  1  0
 23 16  2  0
 24 25  2  0
 25 44  1  0
 26 25  1  0
 26 29  1  0
 27 28  1  0
 27 24  1  0
 28 26  2  0
 29 30  1  0
 30 31  2  0
 32 35  1  0
 32 31  1  0
 33 32  2  0
 34 33  1  0
 34 29  2  0
 35 36  1  0
 36 41  2  0
 36 37  1  0
 37 38  2  0
 38 39  1  0
 39 43  1  0
 40 39  2  0
 41 40  1  0
 42 41  1  0
 44 45  1  0
 45 48  1  0
 45 47  1  0
 46 44  2  0
 49 24  1  0
 49 50  1  0
 51 49  1  0
 53 54  1  0
 54 52  1  0
 56 57  1  0
 56 55  1  0
 58 60  1  0
 58 57  1  0
 59 70  2  0
 60 65  1  0
 61 69  1  0
 61 71  1  0
 62 68  1  0
 62 64  1  0
 63 69  1  0
 64 63  1  0
 65 64  2  0
 66 67  1  0
 66 60  2  0
 67 62  2  0
 68 61  1  0
 69 59  1  0
 71 73  2  0
 72 71  1  0
 74 72  1  0
 75 84  2  0
 75 80  1  0
 76 72  1  0
 76 80  1  0
 77 76  1  0
 78 79  1  0
 78 77  1  0
 79 75  1  0
 80 81  2  0
 81 82  1  0
 83 82  2  0
 84 83  1  0
 85 59  1  0
 85 90  1  0
 85 86  1  0
 86 89  1  1
 86 87  1  0
 88 86  1  0
 90 93  1  0
 91 95  1  0
 91 90  1  0
 92 91  2  0
 95 94  1  0
 95 97  1  0
 97 98  1  0
 97 96  1  0
M  ISO  4  15 100  16 100  57 101  58 101
M  END
>  <TORSDO>  (15) 
F 26

>  <SCORE>  (15) 
-8.631

>  <name>  (15) 
14

>  <ligand_id>  (15) 
14

>  <original_smiles>  (15) 
[H]c1c([H])c([H])c2c(c1[H])C([H])([H])C([H])([H])C([H])([H])C2([H])N([H])C(=O)C1([H])N(C(=O)C([H])(N([H])C(=O)C([H])(N([H])C([H])([H])[H])C([H])([H])[H])C(C([H])([H])[H])(C([H])([H])[H])C([H])([H])[H])C([H])([H])c2c([H])c(OC([H])([H])C([H])([H])C([H])([H])C([H])(C(C([H])([H])[H])(C([H])([H])[H])C([H])([H])[H])[N+]([H])([H])C([H])(C(=O)N([H])C([H])([H])C([H])([H])C(=O)N3C([H])([H])C([H])([H])C([H])([H])C([H])(n4nc(-c5c([H])c([H])c(Oc6c([H])c([H])c(F)c([H])c6F)c([H])c5[H])c(C(=O)N([H])[H])c4N([H])[H])C3([H])[H])C([H])(C([H])([H])[H])C([H])([H])[H])c([H])c([H])c2C1([H])[H]

>  <smiles>  (15) 
[H]c1c([H])c([H])c2c(c1[H])C([H])([H])C([H])([H])C([H])([H])C2([H])N([H])C(=O)C1([H])N(C(=O)C([H])(N([H])C(=O)C([H])(N([H])C([H])([H])[H])C([H])([H])[H])C(C([H])([H])[H])(C([H])([H])[H])C([H])([H])[H])C([H])([H])c2c([H])c(OC([H])([H])C([H])([H])C([H])([H])C([H])(C(C([H])([H])[H])(C([H])([H])[H])C([H])([H])[H])[N+]([H])([H])C([H])(C(=O)N([H])C([H])([H])C([H])([H])C(=O)N3C([H])([H])C([H])([H])C([H])([H])C([H])(n4nc(-c5c([H])c([H])c(Oc6c([H])c([H])c(F)c([H])c6F)c([H])c5[H])c(C(=O)N([H])[H])c4N([H])[H])C3([H])[H])C([H])(C([H])([H])[H])C([H])([H])[H])c([H])c([H])c2C1([H])[H]

$$$$
15:0:0
     RDKit          3D

 90 98  0  0  1  0  0  0  0  0999 V2000
  -28.5770  -20.1460   19.1790 C   0  0  0  0  0  2  0  0  0  0  0  0
  -27.8940  -21.5040   18.9870 C   0  0  0  0  0  2  0  0  0  0  0  0
  -29.0830  -21.4310   21.1420 C   0  0  0  0  0  2  0  0  0  0  0  0
  -29.7270  -20.4670   20.1360 C   0  0  0  0  0  3  0  0  0  0  0  0
  -28.0640  -22.2620   20.3230 C   0  0  0  0  0  3  0  0  0  0  0  0
  -30.4710  -19.2600   20.7310 C   0  0  0  0  0  0  0  0  0  0  0  0
  -31.9430  -19.5500   21.0140 C   0  0  0  0  0  1  0  0  0  0  0  0
  -29.9190  -18.1160   20.9080 N   0  0  0  0  0  0  0  0  0  0  0  0
  -30.7620  -16.9630   21.2470 C   0  0  0  0  0  2  0  0  0  0  0  0
  -29.9750  -15.6210   21.1890 C   0  0  0  0  0  2  0  0  0  0  0  0
  -30.6760  -14.4550   20.4370 C   0  0  0  0  0  0  0  0  0  0  0  0
  -30.3670  -12.3600   19.1620 C   0  0  0  0  0  2  0  0  0  0  0  0
  -29.4080  -12.6200   17.9810 C   0  0  0  0  0  2  0  0  0  0  0  0
  -27.9350  -12.4830   18.4200 C   0  0  0  0  0  2  0  0  0  0  0  0
  -27.6220  -13.2710   19.7210 C   0  0  0  0  0  3  0  0  0  0  0  0
  -28.6830  -12.9750   20.8030 C   0  0  0  0  0  2  0  0  0  0  0  0
  -30.0050  -13.2890   20.2450 N   0  0  0  0  0  0  0  0  0  0  0  0
  -31.7860  -14.6460   19.9270 O   0  0  0  0  0  0  0  0  0  0  0  0
  -25.2290  -13.8860   20.4410 C   0  0  0  0  0  0  0  0  0  0  0  0
  -24.1620  -13.1150   20.8190 C   0  0  0  0  0  0  0  0  0  0  0  0
  -24.6210  -11.7630   20.7880 C   0  0  0  0  0  0  0  0  0  0  0  0
  -26.2700  -13.0020   20.2050 N   0  0  0  0  0  0  0  0  0  0  0  0
  -25.9080  -11.7200   20.4680 N   0  0  0  0  0  0  0  0  0  0  0  0
  -23.8950  -10.5020   20.9860 C   0  0  0  0  0  0  0  0  0  0  0  0
  -24.3290   -9.5420   21.9270 C   0  0  0  0  0  3  0  0  0  0  0  0
  -23.6060   -8.3440   22.1130 C   0  0  0  0  0  3  0  0  0  0  0  0
  -22.4340   -8.0980   21.3590 C   0  0  0  0  0  0  0  0  0  0  0  0
  -22.0190   -9.0470   20.4080 C   0  0  0  0  0  3  0  0  0  0  0  0
  -22.7420  -10.2360   20.2190 C   0  0  0  0  0  3  0  0  0  0  0  0
  -21.6820   -6.9530   21.4530 O   0  0  0  0  0  0  0  0  0  0  0  0
  -21.6270   -6.2210   22.6130 C   0  0  0  0  0  0  0  0  0  0  0  0
  -21.1880   -6.7840   23.8300 C   0  0  0  0  0  3  0  0  0  0  0  0
  -21.0820   -5.9790   24.9810 C   0  0  0  0  0  3  0  0  0  0  0  0
  -21.4060   -4.6100   24.9160 C   0  0  0  0  0  0  0  0  0  0  0  0
  -21.8390   -4.0460   23.7030 C   0  0  0  0  0  3  0  0  0  0  0  0
  -21.9480   -4.8490   22.5540 C   0  0  0  0  0  0  0  0  0  0  0  0
  -22.3450   -4.2960   21.3840 F   0  0  0  0  0  0  0  0  0  0  0  0
  -21.2960   -3.8340   26.0200 F   0  0  0  0  0  0  0  0  0  0  0  0
  -22.7680  -13.5940   21.1030 C   0  0  0  0  0  0  0  0  0  0  0  0
  -22.0470  -12.8960   21.9770 N   0  0  0  0  0  0  0  0  0  0  0  0
  -22.3250  -14.6190   20.5880 O   0  0  0  0  0  0  0  0  0  0  0  0
  -22.4200  -12.0670   22.4140 H   0  0  0  0  0  0  0  0  0  0  0  0
  -21.1110  -13.1950   22.2090 H   0  0  0  0  0  0  0  0  0  0  0  0
  -25.3930  -15.2560   20.2620 N   0  0  0  0  0  0  0  0  0  0  0  0
  -24.6280  -15.9100   20.3800 H   0  0  0  0  0  0  0  0  0  0  0  0
  -26.2510  -15.6990   19.9570 H   0  0  0  0  0  0  0  0  0  0  0  0
  -28.5010  -23.7370   20.1340 C   0  0  0  0  0  2  0  0  0  0  0  0
  -28.1990  -24.6270   21.3600 C   0  0  0  0  0  2  0  0  0  0  0  0
  -28.8460  -26.0250   21.2950 C   0  0  0  0  0  2  0  0  0  0  0  0
  -28.4380  -26.7320   20.1310 O   0  0  0  0  0  0  0  0  0  0  0  0
  -24.5650  -31.8710   23.2600 C   0  0  0  0  0  0  0  0  0  0  0  0
  -27.2650  -27.4360   20.2250 C   0  0  0  0  0  0  0  0  0  0  0  0
  -23.3820  -30.4510   21.6170 C   0  0  0  0  0  3  0  0  0  0  0  0
  -24.8590  -28.9070   20.2150 C   0  0  0  0  0  0  0  0  0  0  0  0
  -25.9030  -30.8160   21.4460 C   0  0  0  0  0  2  0  0  0  0  0  0
  -26.0020  -29.4370   20.8310 C   0  0  0  0  0  0  0  0  0  0  0  0
  -27.2060  -28.6990   20.8540 C   0  0  0  0  0  3  0  0  0  0  0  0
  -26.1160  -26.9210   19.5930 C   0  0  0  0  0  3  0  0  0  0  0  0
  -24.9080  -27.6460   19.5950 C   0  0  0  0  0  3  0  0  0  0  0  0
  -23.6070  -29.7600   20.2450 C   0  0  0  0  0  2  0  0  0  0  0  0
  -24.6350  -31.0600   22.1650 N   0  0  0  0  0  0  0  0  0  0  0  0
  -23.4780  -32.1440   23.7880 O   0  0  0  0  0  0  0  0  0  0  0  0
  -22.7250  -29.4360   22.5800 C   0  0  0  0  0  0  0  0  0  0  0  0
  -21.4030  -29.2520   22.4390 N   0  0  0  0  0  0  0  0  0  0  0  0
  -23.4030  -28.8160   23.4040 O   0  0  0  0  0  0  0  0  0  0  0  0
  -20.9250  -29.7900   21.7290 H   0  0  0  0  0  0  0  0  0  0  0  0
  -18.0180  -28.0920   22.9440 C   0  0  0  0  0  0  0  0  0  0  0  0
  -20.5790  -28.3240   23.2110 C   0  0  0  0  0  3  0  0  0  0  0  0
  -20.6690  -26.8960   22.6260 C   0  0  0  0  0  2  0  0  0  0  0  0
  -19.5610  -26.5880   21.6140 C   0  0  0  0  0  2  0  0  0  0  0  0
  -18.1810  -26.7450   22.2600 C   0  0  0  0  0  2  0  0  0  0  0  0
  -19.1450  -28.8410   23.3760 C   0  0  0  0  0  0  0  0  0  0  0  0
  -18.9440  -30.1030   23.9740 C   0  0  0  0  0  3  0  0  0  0  0  0
  -17.6460  -30.6200   24.1440 C   0  0  0  0  0  3  0  0  0  0  0  0
  -16.5320  -29.8680   23.7330 C   0  0  0  0  0  3  0  0  0  0  0  0
  -16.7190  -28.6060   23.1390 C   0  0  0  0  0  3  0  0  0  0  0  0
  -25.8460  -32.5070   23.8860 C   0  0  0  0  0  3  0  0  0  0  0  0
  -25.5300  -33.9060   24.2010 N   0  0  0  0  0  0  0  0  0  0  0  0
  -25.8730  -34.9530   23.4380 C   0  0  0  0  0  0  0  0  0  0  0  0
  -26.5580  -34.8410   22.4160 O   0  0  0  0  0  0  0  0  0  0  0  0
  -24.9150  -34.0630   24.9860 H   0  0  0  0  0  0  0  0  0  0  0  0
  -24.1500  -36.7380   23.0410 C   0  0  0  0  0  1  0  0  0  0  0  0
  -25.3780  -36.3430   23.8760 C   0  0  0  0  0  3  0  0  0  0  0  0
  -27.4990  -37.2320   24.7360 C   0  0  0  0  0  1  0  0  0  0  0  0
  -26.4140  -37.3950   23.7710 N   0  0  0  0  0  0  0  0  0  0  0  0
  -26.0080  -38.3170   23.9000 H   0  0  0  0  0  0  0  0  0  0  0  0
  -26.3560  -31.7430   25.1680 C   0  0  1  0  0  0  0  0  0  0  0  0
  -25.2500  -31.5050   26.2250 C   0  0  0  0  0  1  0  0  0  0  0  0
  -26.9430  -30.3660   24.7830 C   0  0  0  0  0  1  0  0  0  0  0  0
  -27.5040  -32.5410   25.8290 C   0  0  0  0  0  1  0  0  0  0  0  0
  1  4  1  0
  2  1  1  0
  2  5  1  0
  4  6  1  0
  4  3  1  0
  5 47  1  0
  5  3  1  0
  6  8  2  0
  6  7  1  0
  8  9  1  0
 10  9  1  0
 11 10  1  0
 12 17  1  0
 13 14  1  0
 13 12  1  0
 15 14  1  0
 15 22  1  0
 15 16  1  0
 17 11  1  0
 17 16  1  0
 18 11  2  0
 19 20  2  0
 20 39  1  0
 21 20  1  0
 21 24  1  0
 22 19  1  0
 22 23  1  0
 23 21  2  0
 24 25  1  0
 25 26  2  0
 27 30  1  0
 27 26  1  0
 28 27  2  0
 29 28  1  0
 29 24  2  0
 30 31  1  0
 31 32  1  0
 32 33  2  0
 34 33  1  0
 34 38  1  0
 35 34  2  0
 36 31  2  0
 36 35  1  0
 37 36  1  0
 39 40  1  0
 40 43  1  0
 40 42  1  0
 41 39  2  0
 44 45  1  0
 44 19  1  0
 46 44  1  0
 47 48  1  0
 49 48  1  0
 50 52  1  0
 50 49  1  0
 51 62  2  0
 52 57  1  0
 53 61  1  0
 53 63  1  0
 54 60  1  0
 54 56  1  0
 55 61  1  0
 56 57  2  0
 56 55  1  0
 58 59  1  0
 58 52  2  0
 59 54  2  0
 60 53  1  0
 61 51  1  0
 63 65  2  0
 64 63  1  0
 66 64  1  0
 67 76  2  0
 67 72  1  0
 68 64  1  0
 68 72  1  0
 69 68  1  0
 70 71  1  0
 70 69  1  0
 71 67  1  0
 72 73  2  0
 73 74  1  0
 75 74  2  0
 76 75  1  0
 77 51  1  0
 77 78  1  0
 77 87  1  0
 78 81  1  0
 79 83  1  0
 79 78  1  0
 80 79  2  0
 83 82  1  0
 85 83  1  0
 85 86  1  0
 85 84  1  0
 87 90  1  1
 87 88  1  0
 89 87  1  0
M  ISO  4  10 100  11 100  49 101  50 101
M  END
>  <TORSDO>  (16) 
F 22

>  <SCORE>  (16) 
-13.417

>  <name>  (16) 
15

>  <ligand_id>  (16) 
15

>  <original_smiles>  (16) 
[H]c1c([H])c([H])c2c(c1[H])C([H])([H])C([H])([H])C([H])([H])C2([H])N([H])C(=O)C1([H])N(C(=O)C([H])(N([H])C(=O)C([H])(N([H])C([H])([H])[H])C([H])([H])[H])C(C([H])([H])[H])(C([H])([H])[H])C([H])([H])[H])C([H])([H])c2c([H])c(OC([H])([H])C([H])([H])C([H])([H])C3([H])C([H])([H])C([H])([H])C([H])(C(=NC([H])([H])C([H])([H])C(=O)N4C([H])([H])C([H])([H])C([H])([H])C([H])(n5nc(-c6c([H])c([H])c(Oc7c([H])c([H])c(F)c([H])c7F)c([H])c6[H])c(C(=O)N([H])[H])c5N([H])[H])C4([H])[H])C([H])([H])[H])C3([H])[H])c([H])c([H])c2C1([H])[H]

>  <smiles>  (16) 
[H]c1c([H])c([H])c2c(c1[H])C([H])([H])C([H])([H])C([H])([H])C2([H])N([H])C(=O)C1([H])N(C(=O)C([H])(N([H])C(=O)C([H])(N([H])C([H])([H])[H])C([H])([H])[H])C(C([H])([H])[H])(C([H])([H])[H])C([H])([H])[H])C([H])([H])c2c([H])c(OC([H])([H])C([H])([H])C([H])([H])C3([H])C([H])([H])C([H])([H])C([H])(C(=NC([H])([H])C([H])([H])C(=O)N4C([H])([H])C([H])([H])C([H])([H])C([H])(n5nc(-c6c([H])c([H])c(Oc7c([H])c([H])c(F)c([H])c7F)c([H])c6[H])c(C(=O)N([H])[H])c5N([H])[H])C4([H])[H])C([H])([H])[H])C3([H])[H])c([H])c([H])c2C1([H])[H]

$$$$
16:0:0
     RDKit          3D

 91100  0  0  1  0  0  0  0  0999 V2000
  -29.0570  -18.6190   20.0770 C   0  0  0  0  0  0  0  0  0  0  0  0
  -30.6640  -16.3310   22.2810 C   0  0  0  0  0  2  0  0  0  0  0  0
  -31.4060  -18.7670   22.1060 C   0  0  0  0  0  2  0  0  0  0  0  0
  -30.2650  -17.6000   20.0280 C   0  0  0  0  0  3  0  0  0  0  0  0
  -30.1570  -16.1870   20.8170 C   0  0  0  0  0  3  0  0  0  0  0  0
  -30.5610  -17.7470   22.8990 C   0  0  0  0  0  3  0  0  0  0  0  0
  -31.0400  -18.8110   20.6160 C   0  0  0  0  0  3  0  0  0  0  0  0
  -30.9770  -17.7320   24.3780 C   0  0  0  0  0  1  0  0  0  0  0  0
  -29.8650  -19.7180   20.3770 N   0  0  0  0  0  0  0  0  0  0  0  0
  -27.8560  -18.5480   19.9260 O   0  0  0  0  0  0  0  0  0  0  0  0
  -30.8470  -14.8750   20.1790 C   0  0  0  0  0  0  0  0  0  0  0  0
  -30.5870  -12.6500   19.0470 C   0  0  0  0  0  2  0  0  0  0  0  0
  -29.6020  -12.7840   17.8630 C   0  0  0  0  0  2  0  0  0  0  0  0
  -28.1460  -12.6100   18.3390 C   0  0  0  0  0  2  0  0  0  0  0  0
  -27.8320  -13.4540   19.6020 C   0  0  0  0  0  3  0  0  0  0  0  0
  -28.9270  -13.2910   20.6770 C   0  0  0  0  0  2  0  0  0  0  0  0
  -30.2110  -13.6580   20.0660 N   0  0  0  0  0  0  0  0  0  0  0  0
  -31.9810  -14.9980   19.7070 O   0  0  0  0  0  0  0  0  0  0  0  0
  -25.4700  -14.0530   20.4110 C   0  0  0  0  0  0  0  0  0  0  0  0
  -24.4130  -13.2810   20.8060 C   0  0  0  0  0  0  0  0  0  0  0  0
  -24.8660  -11.9270   20.7460 C   0  0  0  0  0  0  0  0  0  0  0  0
  -26.5020  -13.1700   20.1310 N   0  0  0  0  0  0  0  0  0  0  0  0
  -26.1460  -11.8860   20.3960 N   0  0  0  0  0  0  0  0  0  0  0  0
  -24.1390  -10.6660   20.9460 C   0  0  0  0  0  0  0  0  0  0  0  0
  -24.5860   -9.6940   21.8690 C   0  0  0  0  0  3  0  0  0  0  0  0
  -23.8600   -8.4990   22.0570 C   0  0  0  0  0  3  0  0  0  0  0  0
  -22.6710   -8.2670   21.3240 C   0  0  0  0  0  0  0  0  0  0  0  0
  -22.2440   -9.2270   20.3900 C   0  0  0  0  0  3  0  0  0  0  0  0
  -22.9700  -10.4150   20.2010 C   0  0  0  0  0  3  0  0  0  0  0  0
  -21.9140   -7.1240   21.4220 O   0  0  0  0  0  0  0  0  0  0  0  0
  -21.8630   -6.3930   22.5820 C   0  0  0  0  0  0  0  0  0  0  0  0
  -21.4590   -6.9670   23.8070 C   0  0  0  0  0  3  0  0  0  0  0  0
  -21.3530   -6.1630   24.9590 C   0  0  0  0  0  3  0  0  0  0  0  0
  -21.6400   -4.7870   24.8870 C   0  0  0  0  0  0  0  0  0  0  0  0
  -22.0350   -4.2120   23.6680 C   0  0  0  0  0  3  0  0  0  0  0  0
  -22.1430   -5.0140   22.5170 C   0  0  0  0  0  0  0  0  0  0  0  0
  -22.5050   -4.4520   21.3380 F   0  0  0  0  0  0  0  0  0  0  0  0
  -21.5300   -4.0130   25.9920 F   0  0  0  0  0  0  0  0  0  0  0  0
  -23.0280  -13.7610   21.1270 C   0  0  0  0  0  0  0  0  0  0  0  0
  -22.3270  -13.0650   22.0170 N   0  0  0  0  0  0  0  0  0  0  0  0
  -22.5760  -14.7890   20.6250 O   0  0  0  0  0  0  0  0  0  0  0  0
  -22.7080  -12.2330   22.4440 H   0  0  0  0  0  0  0  0  0  0  0  0
  -21.3980  -13.3680   22.2730 H   0  0  0  0  0  0  0  0  0  0  0  0
  -25.6370  -15.4240   20.2440 N   0  0  0  0  0  0  0  0  0  0  0  0
  -24.8770  -16.0800   20.3850 H   0  0  0  0  0  0  0  0  0  0  0  0
  -26.4760  -15.8640   19.8860 H   0  0  0  0  0  0  0  0  0  0  0  0
  -29.7040  -21.2030   20.7290 C   0  0  0  0  0  3  0  0  0  0  0  0
  -28.8490  -22.2830   19.8880 C   0  0  0  0  0  3  0  0  0  0  0  0
  -29.0240  -23.8570   20.2600 C   0  0  0  0  0  3  0  0  0  0  0  0
  -28.0060  -24.9730   19.6910 C   0  0  0  0  0  3  0  0  0  0  0  0
  -28.2090  -26.4460   19.9270 O   0  0  0  0  0  0  0  0  0  0  0  0
  -24.5310  -31.8560   23.0560 C   0  0  0  0  0  0  0  0  0  0  0  0
  -27.1000  -27.3260   19.8840 C   0  0  0  0  0  0  0  0  0  0  0  0
  -23.3020  -30.4690   21.4240 C   0  0  0  0  0  3  0  0  0  0  0  0
  -24.7320  -28.9510   19.9410 C   0  0  0  0  0  0  0  0  0  0  0  0
  -25.8390  -30.8000   21.1940 C   0  0  0  0  0  2  0  0  0  0  0  0
  -25.9120  -29.4300   20.5240 C   0  0  0  0  0  0  0  0  0  0  0  0
  -27.0980  -28.6290   20.4870 C   0  0  0  0  0  3  0  0  0  0  0  0
  -25.8980  -26.9250   19.2560 C   0  0  0  0  0  3  0  0  0  0  0  0
  -24.7300  -27.7070   19.2930 C   0  0  0  0  0  3  0  0  0  0  0  0
  -23.4900  -29.8160   20.0300 C   0  0  0  0  0  2  0  0  0  0  0  0
  -24.5770  -31.0600   21.9470 N   0  0  0  0  0  0  0  0  0  0  0  0
  -23.4570  -32.1180   23.6170 O   0  0  0  0  0  0  0  0  0  0  0  0
  -22.6680  -29.4350   22.3860 C   0  0  0  0  0  0  0  0  0  0  0  0
  -21.3420  -29.2400   22.2800 N   0  0  0  0  0  0  0  0  0  0  0  0
  -23.3660  -28.8110   23.1910 O   0  0  0  0  0  0  0  0  0  0  0  0
  -20.8320  -29.7960   21.6070 H   0  0  0  0  0  0  0  0  0  0  0  0
  -17.9960  -27.9630   22.7940 C   0  0  0  0  0  0  0  0  0  0  0  0
  -20.5480  -28.2850   23.0550 C   0  0  0  0  0  3  0  0  0  0  0  0
  -20.6830  -26.8540   22.4810 C   0  0  0  0  0  2  0  0  0  0  0  0
  -19.5860  -26.5030   21.4700 C   0  0  0  0  0  2  0  0  0  0  0  0
  -18.2040  -26.6160   22.1180 C   0  0  0  0  0  2  0  0  0  0  0  0
  -19.0970  -28.7520   23.2180 C   0  0  0  0  0  0  0  0  0  0  0  0
  -18.8490  -30.0110   23.8080 C   0  0  0  0  0  3  0  0  0  0  0  0
  -17.5330  -30.4810   23.9770 C   0  0  0  0  0  3  0  0  0  0  0  0
  -16.4460  -29.6890   23.5680 C   0  0  0  0  0  3  0  0  0  0  0  0
  -16.6780  -28.4310   22.9830 C   0  0  0  0  0  3  0  0  0  0  0  0
  -25.8220  -32.4900   23.6590 C   0  0  0  0  0  3  0  0  0  0  0  0
  -26.3830  -31.6960   24.9030 C   0  0  1  0  0  0  0  0  0  0  0  0
  -25.3250  -31.4280   25.9970 C   0  0  0  0  0  1  0  0  0  0  0  0
  -26.9630  -30.3320   24.4640 C   0  0  0  0  0  1  0  0  0  0  0  0
  -27.5460  -32.4860   25.5480 C   0  0  0  0  0  1  0  0  0  0  0  0
  -25.5030  -33.8750   24.0350 N   0  0  0  0  0  0  0  0  0  0  0  0
  -25.8110  -34.9550   23.3030 C   0  0  0  0  0  0  0  0  0  0  0  0
  -26.4610  -34.8900   22.2580 O   0  0  0  0  0  0  0  0  0  0  0  0
  -24.9260  -34.0010   24.8530 H   0  0  0  0  0  0  0  0  0  0  0  0
  -24.0560  -36.7380   23.0370 C   0  0  0  0  0  1  0  0  0  0  0  0
  -25.3160  -36.3230   23.8130 C   0  0  0  0  0  3  0  0  0  0  0  0
  -27.4600  -37.2040   24.6270 C   0  0  0  0  0  1  0  0  0  0  0  0
  -26.3350  -37.3920   23.7130 N   0  0  0  0  0  0  0  0  0  0  0  0
  -25.9210  -38.3010   23.9010 H   0  0  0  0  0  0  0  0  0  0  0  0
  1  9  1  0
  2  6  1  0
  3  6  1  0
  4  1  1  0
  4  7  1  0
  4  5  1  0
  5 11  1  0
  5  2  1  0
  6  8  1  0
  7  3  1  0
  9  7  1  0
  9 47  1  0
 10  1  2  0
 12 17  1  0
 13 14  1  0
 13 12  1  0
 15 14  1  0
 15 22  1  0
 15 16  1  0
 17 11  1  0
 17 16  1  0
 18 11  2  0
 19 20  2  0
 20 39  1  0
 21 20  1  0
 21 24  1  0
 22 23  1  0
 22 19  1  0
 23 21  2  0
 24 25  1  0
 25 26  2  0
 27 30  1  0
 27 26  1  0
 28 27  2  0
 29 28  1  0
 29 24  2  0
 30 31  1  0
 31 32  1  0
 32 33  2  0
 34 33  1  0
 34 38  1  0
 35 34  2  0
 36 31  2  0
 36 35  1  0
 37 36  1  0
 39 40  1  0
 40 43  1  0
 40 42  1  0
 41 39  2  0
 44 45  1  0
 44 19  1  0
 46 44  1  0
 48 49  1  0
 48 47  2  0
 50 51  1  0
 50 49  2  0
 52 63  2  0
 53 51  1  0
 53 58  1  0
 54 62  1  0
 54 64  1  0
 55 61  1  0
 55 57  1  0
 56 62  1  0
 57 56  1  0
 58 57  2  0
 59 60  1  0
 59 53  2  0
 60 55  2  0
 61 54  1  0
 62 52  1  0
 64 66  2  0
 65 64  1  0
 67 65  1  0
 68 77  2  0
 68 73  1  0
 69 65  1  0
 69 73  1  0
 70 69  1  0
 71 72  1  0
 71 70  1  0
 72 68  1  0
 73 74  2  0
 74 75  1  0
 76 75  2  0
 77 76  1  0
 78 52  1  0
 78 83  1  0
 78 79  1  0
 79 82  1  1
 79 80  1  0
 81 79  1  0
 83 86  1  0
 84 88  1  0
 84 83  1  0
 85 84  2  0
 88 87  1  0
 90 88  1  0
 90 91  1  0
 90 89  1  0
M  ISO  4   5 100  11 100  50 101  51 101
M  END
>  <TORSDO>  (17) 
F 20

>  <SCORE>  (17) 
-12.163

>  <name>  (17) 
16

>  <ligand_id>  (17) 
16

>  <original_smiles>  (17) 
[H]c1c([H])c([H])c2c(c1[H])C([H])([H])C([H])([H])C([H])([H])C2([H])N([H])C(=O)C1([H])N(C(=O)C([H])(N([H])C(=O)C([H])(N([H])C([H])([H])[H])C([H])([H])[H])C(C([H])([H])[H])(C([H])([H])[H])C([H])([H])[H])C([H])([H])c2c([H])c(OC([H])([H])C([H])([H])C([H])([H])C([H])([H])N3C(=O)C4([H])C([H])(C(=O)N5C([H])([H])C([H])([H])C([H])([H])C([H])(n6nc(-c7c([H])c([H])c(Oc8c([H])c([H])c(F)c([H])c8F)c([H])c7[H])c(C(=O)N([H])[H])c6N([H])[H])C5([H])[H])C([H])([H])C([H])(C([H])([H])[H])C([H])([H])C34[H])c([H])c([H])c2C1([H])[H]

>  <smiles>  (17) 
[H]c1c([H])c([H])c2c(c1[H])C([H])([H])C([H])([H])C([H])([H])C2([H])N([H])C(=O)C1([H])N(C(=O)C([H])(N([H])C(=O)C([H])(N([H])C([H])([H])[H])C([H])([H])[H])C(C([H])([H])[H])(C([H])([H])[H])C([H])([H])[H])C([H])([H])c2c([H])c(OC([H])([H])C([H])([H])C([H])([H])C([H])([H])N3C(=O)C4([H])C([H])(C(=O)N5C([H])([H])C([H])([H])C([H])([H])C([H])(n6nc(-c7c([H])c([H])c(Oc8c([H])c([H])c(F)c([H])c8F)c([H])c7[H])c(C(=O)N([H])[H])c6N([H])[H])C5([H])[H])C([H])([H])C([H])(C([H])([H])[H])C([H])([H])C34[H])c([H])c([H])c2C1([H])[H]

$$$$
17:0:0
     RDKit          3D

 94102  0  0  1  0  0  0  0  0999 V2000
  -29.8980  -21.2150   20.5640 N   0  0  2  0  0  4  0  0  0  0  0  0
  -30.3020  -21.4040   19.6570 H   0  0  0  0  0  0  0  0  0  0  0  0
  -28.9230  -22.3570   20.8540 C   0  0  0  0  0  2  0  0  0  0  0  0
  -29.3680  -23.8810   20.6120 C   0  0  0  0  0  2  0  0  0  0  0  0
  -28.1820  -24.9320   20.6450 C   0  0  0  0  0  2  0  0  0  0  0  0
  -28.4380  -26.3860   20.7050 O   0  0  0  0  0  0  0  0  0  0  0  0
  -24.7850  -31.9810   23.4240 C   0  0  0  0  0  0  0  0  0  0  0  0
  -27.3320  -27.2470   20.5970 C   0  0  0  0  0  0  0  0  0  0  0  0
  -23.5660  -30.5350   21.8370 C   0  0  0  0  0  3  0  0  0  0  0  0
  -24.9980  -28.8960   20.4990 C   0  0  0  0  0  0  0  0  0  0  0  0
  -26.1150  -30.7920   21.6720 C   0  0  0  0  0  2  0  0  0  0  0  0
  -26.1710  -29.3880   21.0850 C   0  0  0  0  0  0  0  0  0  0  0  0
  -27.3410  -28.5730   21.1280 C   0  0  0  0  0  3  0  0  0  0  0  0
  -26.1350  -26.8140   19.9760 C   0  0  0  0  0  3  0  0  0  0  0  0
  -24.9810  -27.6130   19.9390 C   0  0  0  0  0  3  0  0  0  0  0  0
  -23.7790  -29.7940   20.4920 C   0  0  0  0  0  2  0  0  0  0  0  0
  -24.8400  -31.1210   22.3660 N   0  0  0  0  0  0  0  0  0  0  0  0
  -23.7030  -32.3080   23.9330 O   0  0  0  0  0  0  0  0  0  0  0  0
  -22.8730  -29.5760   22.8340 C   0  0  0  0  0  0  0  0  0  0  0  0
  -21.5690  -29.3260   22.6230 N   0  0  0  0  0  0  0  0  0  0  0  0
  -23.5090  -29.0570   23.7550 O   0  0  0  0  0  0  0  0  0  0  0  0
  -21.1160  -29.7930   21.8510 H   0  0  0  0  0  0  0  0  0  0  0  0
  -18.2320  -27.9610   22.9210 C   0  0  0  0  0  0  0  0  0  0  0  0
  -20.7280  -28.4270   23.4150 C   0  0  0  0  0  3  0  0  0  0  0  0
  -20.9730  -26.9510   23.0280 C   0  0  0  0  0  2  0  0  0  0  0  0
  -20.0080  -26.4380   21.9540 C   0  0  0  0  0  2  0  0  0  0  0  0
  -18.5580  -26.5590   22.4330 C   0  0  0  0  0  2  0  0  0  0  0  0
  -19.2530  -28.8430   23.3660 C   0  0  0  0  0  0  0  0  0  0  0  0
  -18.8980  -30.1480   23.7760 C   0  0  0  0  0  3  0  0  0  0  0  0
  -17.5560  -30.5720   23.7490 C   0  0  0  0  0  3  0  0  0  0  0  0
  -16.5490  -29.6870   23.3230 C   0  0  0  0  0  3  0  0  0  0  0  0
  -16.8870  -28.3850   22.9130 C   0  0  0  0  0  3  0  0  0  0  0  0
  -26.0760  -32.6120   24.0300 C   0  0  0  0  0  3  0  0  0  0  0  0
  -26.5860  -31.8660   25.3230 C   0  0  1  0  0  0  0  0  0  0  0  0
  -25.4840  -31.6400   26.3850 C   0  0  0  0  0  1  0  0  0  0  0  0
  -27.1800  -30.4840   24.9640 C   0  0  0  0  0  1  0  0  0  0  0  0
  -27.7280  -32.6760   25.9800 C   0  0  0  0  0  1  0  0  0  0  0  0
  -25.7840  -34.0220   24.3260 N   0  0  0  0  0  0  0  0  0  0  0  0
  -26.1260  -35.0520   23.5400 C   0  0  0  0  0  0  0  0  0  0  0  0
  -26.7910  -34.9150   22.5090 O   0  0  0  0  0  0  0  0  0  0  0  0
  -25.1960  -34.2040   25.1250 H   0  0  0  0  0  0  0  0  0  0  0  0
  -24.4200  -36.8580   23.1430 C   0  0  0  0  0  1  0  0  0  0  0  0
  -25.6560  -36.4560   23.9650 C   0  0  0  0  0  3  0  0  0  0  0  0
  -27.7980  -37.3350   24.7820 C   0  0  0  0  0  1  0  0  0  0  0  0
  -26.7020  -37.4930   23.8310 N   0  0  0  0  0  0  0  0  0  0  0  0
  -26.3060  -38.4220   23.9550 H   0  0  0  0  0  0  0  0  0  0  0  0
  -29.2340  -19.8400   20.4200 C   0  0  0  0  0  2  0  0  0  0  0  0
  -30.0450  -18.5370   20.8890 C   0  0  0  0  0  2  0  0  0  0  0  0
  -29.7510  -17.1250   20.2170 C   0  0  0  0  0  2  0  0  0  0  0  0
  -30.0120  -15.8250   21.1020 C   0  0  0  0  0  2  0  0  0  0  0  0
  -30.6870  -14.5700   20.4160 C   0  0  0  0  0  0  0  0  0  0  0  0
  -30.4140  -12.4120   19.2070 C   0  0  0  0  0  2  0  0  0  0  0  0
  -29.4390  -12.6380   18.0300 C   0  0  0  0  0  2  0  0  0  0  0  0
  -27.9760  -12.4700   18.4880 C   0  0  0  0  0  2  0  0  0  0  0  0
  -27.6660  -13.2480   19.7930 C   0  0  0  0  0  3  0  0  0  0  0  0
  -28.7520  -12.9950   20.8620 C   0  0  0  0  0  2  0  0  0  0  0  0
  -30.0480  -13.3650   20.2750 N   0  0  0  0  0  0  0  0  0  0  0  0
  -31.8100  -14.7330   19.9300 O   0  0  0  0  0  0  0  0  0  0  0  0
  -25.2760  -13.8140   20.5510 C   0  0  0  0  0  0  0  0  0  0  0  0
  -24.2230  -13.0240   20.9280 C   0  0  0  0  0  0  0  0  0  0  0  0
  -24.6990  -11.6780   20.8750 C   0  0  0  0  0  0  0  0  0  0  0  0
  -26.3270  -12.9480   20.2940 N   0  0  0  0  0  0  0  0  0  0  0  0
  -25.9850  -11.6580   20.5470 N   0  0  0  0  0  0  0  0  0  0  0  0
  -23.9890  -10.4060   21.0640 C   0  0  0  0  0  0  0  0  0  0  0  0
  -24.3930   -9.4720   22.0450 C   0  0  0  0  0  3  0  0  0  0  0  0
  -23.6820   -8.2650   22.2190 C   0  0  0  0  0  3  0  0  0  0  0  0
  -22.5540   -7.9830   21.4120 C   0  0  0  0  0  0  0  0  0  0  0  0
  -22.1710   -8.9040   20.4210 C   0  0  0  0  0  3  0  0  0  0  0  0
  -22.8820  -10.1020   20.2470 C   0  0  0  0  0  3  0  0  0  0  0  0
  -21.8190   -6.8240   21.4940 O   0  0  0  0  0  0  0  0  0  0  0  0
  -21.6570   -6.1560   22.6810 C   0  0  0  0  0  0  0  0  0  0  0  0
  -21.0820   -6.7750   23.8120 C   0  0  0  0  0  3  0  0  0  0  0  0
  -20.8710   -6.0310   24.9900 C   0  0  0  0  0  3  0  0  0  0  0  0
  -21.2260   -4.6690   25.0360 C   0  0  0  0  0  0  0  0  0  0  0  0
  -21.7960   -4.0500   23.9090 C   0  0  0  0  0  3  0  0  0  0  0  0
  -22.0070   -4.7920   22.7330 C   0  0  0  0  0  0  0  0  0  0  0  0
  -22.5360   -4.1850   21.6440 F   0  0  0  0  0  0  0  0  0  0  0  0
  -21.0160   -3.9520   26.1650 F   0  0  0  0  0  0  0  0  0  0  0  0
  -22.8250  -13.4820   21.2290 C   0  0  0  0  0  0  0  0  0  0  0  0
  -22.1270  -12.7790   22.1150 N   0  0  0  0  0  0  0  0  0  0  0  0
  -22.3600  -14.4980   20.7140 O   0  0  0  0  0  0  0  0  0  0  0  0
  -22.5190  -11.9590   22.5530 H   0  0  0  0  0  0  0  0  0  0  0  0
  -21.1900  -13.0660   22.3590 H   0  0  0  0  0  0  0  0  0  0  0  0
  -25.4220  -15.1880   20.3860 N   0  0  0  0  0  0  0  0  0  0  0  0
  -24.6520  -15.8350   20.5160 H   0  0  0  0  0  0  0  0  0  0  0  0
  -26.2680  -15.6400   20.0650 H   0  0  0  0  0  0  0  0  0  0  0  0
  -31.0340  -21.1550   21.5370 C   0  0  0  0  0  2  0  0  0  0  0  0
  -32.3530  -21.8200   21.0980 C   0  0  0  0  0  2  0  0  0  0  0  0
  -35.4500  -18.8860   20.2820 C   0  0  0  0  0  3  0  0  0  0  0  0
  -35.6420  -19.8490   21.2920 C   0  0  0  0  0  3  0  0  0  0  0  0
  -34.2600  -18.8820   19.5310 C   0  0  0  0  0  3  0  0  0  0  0  0
  -34.6390  -20.8020   21.5580 C   0  0  0  0  0  3  0  0  0  0  0  0
  -33.2610  -19.8410   19.7880 C   0  0  0  0  0  3  0  0  0  0  0  0
  -33.4420  -20.7990   20.8100 C   0  0  0  0  0  0  0  0  0  0  0  0
  1  3  1  0
  1 87  1  0
  1  2  1  6
  4  5  1  0
  4  3  1  0
  5  6  1  0
  7 18  2  0
  8  6  1  0
  8 13  1  0
  9 17  1  0
  9 19  1  0
 10 12  1  0
 11 17  1  0
 12 13  2  0
 12 11  1  0
 14  8  2  0
 15 14  1  0
 15 10  2  0
 16 10  1  0
 16  9  1  0
 17  7  1  0
 19 21  2  0
 20 19  1  0
 22 20  1  0
 23 28  1  0
 24 20  1  0
 25 24  1  0
 26 27  1  0
 26 25  1  0
 27 23  1  0
 28 24  1  0
 28 29  2  0
 30 29  1  0
 31 30  2  0
 32 23  2  0
 32 31  1  0
 33  7  1  0
 33 38  1  0
 33 34  1  0
 34 37  1  1
 34 35  1  0
 36 34  1  0
 38 41  1  0
 39 43  1  0
 39 38  1  0
 40 39  2  0
 43 42  1  0
 45 46  1  0
 45 43  1  0
 45 44  1  0
 47  1  1  0
 47 48  1  0
 49 48  1  0
 49 50  1  0
 51 50  1  0
 52 57  1  0
 53 54  1  0
 53 52  1  0
 55 54  1  0
 55 62  1  0
 55 56  1  0
 57 51  1  0
 57 56  1  0
 58 51  2  0
 59 60  2  0
 60 79  1  0
 61 60  1  0
 61 64  1  0
 62 63  1  0
 62 59  1  0
 63 61  2  0
 64 65  1  0
 65 66  2  0
 67 70  1  0
 67 66  1  0
 68 67  2  0
 69 68  1  0
 69 64  2  0
 70 71  1  0
 71 76  2  0
 71 72  1  0
 72 73  2  0
 73 74  1  0
 74 78  1  0
 75 74  2  0
 76 75  1  0
 77 76  1  0
 79 80  1  0
 80 83  1  0
 80 82  1  0
 81 79  2  0
 84 85  1  0
 84 59  1  0
 86 84  1  0
 88 87  1  0
 89 90  1  0
 90 92  2  0
 91 93  1  0
 91 89  2  0
 93 94  2  0
 94 88  1  0
 94 92  1  0
M  ISO  4   5 101   6 101  50 100  51 100
M  END
>  <TORSDO>  (18) 
F 26

>  <SCORE>  (18) 
-11.643

>  <name>  (18) 
17

>  <ligand_id>  (18) 
17

>  <original_smiles>  (18) 
[H]c1c([H])c([H])c(C([H])([H])C([H])([H])[N+]([H])(C([H])([H])C([H])([H])C([H])([H])Oc2c([H])c([H])c3c(c2[H])C([H])([H])N(C(=O)C([H])(N([H])C(=O)C([H])(N([H])C([H])([H])[H])C([H])([H])[H])C(C([H])([H])[H])(C([H])([H])[H])C([H])([H])[H])C([H])(C(=O)N([H])C2([H])c4c([H])c([H])c([H])c([H])c4C([H])([H])C([H])([H])C2([H])[H])C3([H])[H])C([H])([H])C([H])([H])C([H])([H])C([H])([H])C(=O)N2C([H])([H])C([H])([H])C([H])([H])C([H])(n3nc(-c4c([H])c([H])c(Oc5c([H])c([H])c(F)c([H])c5F)c([H])c4[H])c(C(=O)N([H])[H])c3N([H])[H])C2([H])[H])c([H])c1[H]

>  <smiles>  (18) 
[H]c1c([H])c([H])c(C([H])([H])C([H])([H])[N+]([H])(C([H])([H])C([H])([H])C([H])([H])Oc2c([H])c([H])c3c(c2[H])C([H])([H])N(C(=O)C([H])(N([H])C(=O)C([H])(N([H])C([H])([H])[H])C([H])([H])[H])C(C([H])([H])[H])(C([H])([H])[H])C([H])([H])[H])C([H])(C(=O)N([H])C2([H])c4c([H])c([H])c([H])c([H])c4C([H])([H])C([H])([H])C2([H])[H])C3([H])[H])C([H])([H])C([H])([H])C([H])([H])C([H])([H])C(=O)N2C([H])([H])C([H])([H])C([H])([H])C([H])(n3nc(-c4c([H])c([H])c(Oc5c([H])c([H])c(F)c([H])c5F)c([H])c4[H])c(C(=O)N([H])[H])c3N([H])[H])C2([H])[H])c([H])c1[H]

$$$$
18:0:0
     RDKit          3D

 94102  0  0  1  0  0  0  0  0999 V2000
  -30.2200  -22.2530   22.4330 C   0  0  0  0  0  3  0  0  0  0  0  0
  -29.1050  -22.0890   24.7580 C   0  0  0  0  0  1  0  0  0  0  0  0
  -31.1300  -23.5850   24.4880 C   0  0  0  0  0  1  0  0  0  0  0  0
  -29.9000  -22.9800   23.7790 C   0  0  0  0  0  3  0  0  0  0  0  0
  -30.9270  -23.1330   21.4640 N   0  0  0  0  0  4  0  0  0  0  0  0
  -31.3870  -23.8970   21.9290 H   0  0  0  0  0  0  0  0  0  0  0  0
  -31.6530  -22.5700   21.0520 H   0  0  0  0  0  0  0  0  0  0  0  0
  -30.1430  -23.6290   20.3080 C   0  0  0  0  0  2  0  0  0  0  0  0
  -29.8170  -25.1320   20.3960 C   0  0  0  0  0  2  0  0  0  0  0  0
  -28.4010  -25.4740   19.9050 C   0  0  0  0  0  2  0  0  0  0  0  0
  -28.3350  -26.8790   20.1060 O   0  0  0  0  0  0  0  0  0  0  0  0
  -24.5200  -31.9380   23.2640 C   0  0  0  0  0  0  0  0  0  0  0  0
  -27.1160  -27.5110   20.1580 C   0  0  0  0  0  0  0  0  0  0  0  0
  -23.2830  -30.5290   21.6520 C   0  0  0  0  0  3  0  0  0  0  0  0
  -24.7090  -28.9810   20.2200 C   0  0  0  0  0  0  0  0  0  0  0  0
  -25.7850  -30.9180   21.3640 C   0  0  0  0  0  2  0  0  0  0  0  0
  -25.8760  -29.5260   20.7730 C   0  0  0  0  0  0  0  0  0  0  0  0
  -27.0790  -28.7880   20.7570 C   0  0  0  0  0  3  0  0  0  0  0  0
  -25.9300  -26.9620   19.6150 C   0  0  0  0  0  3  0  0  0  0  0  0
  -24.7280  -27.6930   19.6540 C   0  0  0  0  0  3  0  0  0  0  0  0
  -23.4600  -29.8360   20.2750 C   0  0  0  0  0  2  0  0  0  0  0  0
  -24.5560  -31.1340   22.1650 N   0  0  0  0  0  0  0  0  0  0  0  0
  -23.4470  -32.2130   23.8180 O   0  0  0  0  0  0  0  0  0  0  0  0
  -22.6530  -29.5080   22.6270 C   0  0  0  0  0  0  0  0  0  0  0  0
  -21.3300  -29.3100   22.5050 N   0  0  0  0  0  0  0  0  0  0  0  0
  -23.3460  -28.9020   23.4480 O   0  0  0  0  0  0  0  0  0  0  0  0
  -20.8290  -29.8490   21.8130 H   0  0  0  0  0  0  0  0  0  0  0  0
  -17.9700  -28.0840   22.9590 C   0  0  0  0  0  0  0  0  0  0  0  0
  -20.5210  -28.3690   23.2740 C   0  0  0  0  0  3  0  0  0  0  0  0
  -20.6530  -26.9370   22.7050 C   0  0  0  0  0  2  0  0  0  0  0  0
  -19.5690  -26.5950   21.6780 C   0  0  0  0  0  2  0  0  0  0  0  0
  -18.1750  -26.7310   22.3020 C   0  0  0  0  0  2  0  0  0  0  0  0
  -19.0740  -28.8630   23.4000 C   0  0  0  0  0  0  0  0  0  0  0  0
  -18.8350  -30.1350   23.9630 C   0  0  0  0  0  3  0  0  0  0  0  0
  -17.5230  -30.6260   24.1070 C   0  0  0  0  0  3  0  0  0  0  0  0
  -16.4310  -29.8400   23.6970 C   0  0  0  0  0  3  0  0  0  0  0  0
  -16.6560  -28.5760   23.1230 C   0  0  0  0  0  3  0  0  0  0  0  0
  -25.8150  -32.5660   23.8710 C   0  0  0  0  0  3  0  0  0  0  0  0
  -26.3500  -31.8000   25.1420 C   0  0  1  0  0  0  0  0  0  0  0  0
  -25.2660  -31.5470   26.2120 C   0  0  0  0  0  1  0  0  0  0  0  0
  -26.9460  -30.4390   24.7170 C   0  0  0  0  0  1  0  0  0  0  0  0
  -27.4850  -32.6050   25.8210 C   0  0  0  0  0  1  0  0  0  0  0  0
  -25.5150  -33.9680   24.1910 N   0  0  0  0  0  0  0  0  0  0  0  0
  -25.8550  -35.0120   23.4260 C   0  0  0  0  0  0  0  0  0  0  0  0
  -26.5260  -34.9070   22.3950 O   0  0  0  0  0  0  0  0  0  0  0  0
  -24.9200  -34.1350   24.9860 H   0  0  0  0  0  0  0  0  0  0  0  0
  -24.1380  -36.8240   23.0760 C   0  0  0  0  0  1  0  0  0  0  0  0
  -25.3750  -36.4020   23.8850 C   0  0  0  0  0  3  0  0  0  0  0  0
  -27.5110  -37.2860   24.7170 C   0  0  0  0  0  1  0  0  0  0  0  0
  -26.4090  -37.4530   23.7720 N   0  0  0  0  0  0  0  0  0  0  0  0
  -25.9990  -38.3710   23.9220 H   0  0  0  0  0  0  0  0  0  0  0  0
  -31.0220  -20.9380   22.5950 C   0  0  0  0  0  2  0  0  0  0  0  0
  -30.4080  -19.7110   21.8980 C   0  0  0  0  0  2  0  0  0  0  0  0
  -31.3410  -18.4930   21.9970 C   0  0  0  0  0  2  0  0  0  0  0  0
  -29.7840  -16.7080   20.7980 C   0  0  0  0  0  2  0  0  0  0  0  0
  -31.4050  -15.8550   21.8370 C   0  0  0  0  0  2  0  0  0  0  0  0
  -30.1660  -15.2590   21.1540 C   0  0  0  0  0  3  0  0  0  0  0  0
  -30.6130  -17.1590   22.0050 C   0  0  0  0  0  3  0  0  0  0  0  0
  -30.4460  -14.3530   19.9360 C   0  0  0  0  0  0  0  0  0  0  0  0
  -29.9710  -12.2980   18.6430 C   0  0  0  0  0  2  0  0  0  0  0  0
  -28.9000  -12.5210   17.5610 C   0  0  0  0  0  2  0  0  0  0  0  0
  -27.4840  -12.3620   18.1460 C   0  0  0  0  0  2  0  0  0  0  0  0
  -27.2860  -13.1720   19.4530 C   0  0  0  0  0  3  0  0  0  0  0  0
  -28.4430  -12.8960   20.4330 C   0  0  0  0  0  2  0  0  0  0  0  0
  -29.7130  -13.2220   19.7580 N   0  0  0  0  0  0  0  0  0  0  0  0
  -31.3660  -14.6650   19.1710 O   0  0  0  0  0  0  0  0  0  0  0  0
  -24.9630  -13.7590   20.4070 C   0  0  0  0  0  0  0  0  0  0  0  0
  -23.9460  -12.9700   20.8830 C   0  0  0  0  0  0  0  0  0  0  0  0
  -24.4190  -11.6250   20.8010 C   0  0  0  0  0  0  0  0  0  0  0  0
  -25.9880  -12.8880   20.0670 N   0  0  0  0  0  0  0  0  0  0  0  0
  -25.6690  -11.6020   20.3600 N   0  0  0  0  0  0  0  0  0  0  0  0
  -23.7340  -10.3540   21.0620 C   0  0  0  0  0  0  0  0  0  0  0  0
  -24.2510   -9.4140   21.9810 C   0  0  0  0  0  3  0  0  0  0  0  0
  -23.5640   -8.2050   22.2270 C   0  0  0  0  0  3  0  0  0  0  0  0
  -22.3510   -7.9270   21.5550 C   0  0  0  0  0  0  0  0  0  0  0  0
  -21.8550   -8.8550   20.6230 C   0  0  0  0  0  3  0  0  0  0  0  0
  -22.5410  -10.0560   20.3750 C   0  0  0  0  0  3  0  0  0  0  0  0
  -21.6280   -6.7680   21.7140 O   0  0  0  0  0  0  0  0  0  0  0  0
  -21.6520   -6.0590   22.8860 C   0  0  0  0  0  0  0  0  0  0  0  0
  -21.2760   -6.6400   24.1170 C   0  0  0  0  0  3  0  0  0  0  0  0
  -21.2490   -5.8550   25.2870 C   0  0  0  0  0  3  0  0  0  0  0  0
  -21.5900   -4.4900   25.2300 C   0  0  0  0  0  0  0  0  0  0  0  0
  -21.9590   -3.9090   24.0030 C   0  0  0  0  0  3  0  0  0  0  0  0
  -21.9880   -4.6900   22.8360 C   0  0  0  0  0  0  0  0  0  0  0  0
  -22.3250   -4.1200   21.6530 F   0  0  0  0  0  0  0  0  0  0  0  0
  -21.5560   -3.7350   26.3510 F   0  0  0  0  0  0  0  0  0  0  0  0
  -22.5810  -13.4290   21.2970 C   0  0  0  0  0  0  0  0  0  0  0  0
  -21.9550  -12.7250   22.2390 N   0  0  0  0  0  0  0  0  0  0  0  0
  -22.0720  -14.4430   20.8240 O   0  0  0  0  0  0  0  0  0  0  0  0
  -22.3760  -11.8980   22.6380 H   0  0  0  0  0  0  0  0  0  0  0  0
  -21.0400  -13.0100   22.5510 H   0  0  0  0  0  0  0  0  0  0  0  0
  -25.0930  -15.1280   20.2160 N   0  0  0  0  0  0  0  0  0  0  0  0
  -24.3460  -15.7840   20.4160 H   0  0  0  0  0  0  0  0  0  0  0  0
  -25.9060  -15.5730   19.8040 H   0  0  0  0  0  0  0  0  0  0  0  0
  1 52  1  0
  1  4  1  0
  4  3  1  0
  4  2  1  0
  5  6  1  0
  5  1  1  0
  7  5  1  0
  8  9  1  0
  8  5  1  0
 10 11  1  0
 10  9  1  0
 11 13  1  0
 12 23  2  0
 13 18  1  0
 14 22  1  0
 14 24  1  0
 15 21  1  0
 15 17  1  0
 16 22  1  0
 17 16  1  0
 18 17  2  0
 19 20  1  0
 19 13  2  0
 20 15  2  0
 21 14  1  0
 22 12  1  0
 24 26  2  0
 25 24  1  0
 27 25  1  0
 28 37  2  0
 28 33  1  0
 29 25  1  0
 29 33  1  0
 30 29  1  0
 31 32  1  0
 31 30  1  0
 32 28  1  0
 33 34  2  0
 34 35  1  0
 36 35  2  0
 37 36  1  0
 38 12  1  0
 38 43  1  0
 38 39  1  0
 39 42  1  1
 39 40  1  0
 41 39  1  0
 43 46  1  0
 44 48  1  0
 44 43  1  0
 45 44  2  0
 48 47  1  0
 50 48  1  0
 50 51  1  0
 50 49  1  0
 53 54  1  0
 53 52  1  0
 55 57  1  0
 55 58  1  0
 56 58  1  0
 57 59  1  0
 57 56  1  0
 58 54  1  0
 60 65  1  0
 61 62  1  0
 61 60  1  0
 63 62  1  0
 63 70  1  0
 63 64  1  0
 65 59  1  0
 65 64  1  0
 66 59  2  0
 67 68  2  0
 68 87  1  0
 69 68  1  0
 69 72  1  0
 70 71  1  0
 70 67  1  0
 71 69  2  0
 72 73  1  0
 73 74  2  0
 75 78  1  0
 75 74  1  0
 76 75  2  0
 77 76  1  0
 77 72  2  0
 78 79  1  0
 79 80  1  0
 80 81  2  0
 82 81  1  0
 82 86  1  0
 83 82  2  0
 84 79  2  0
 84 83  1  0
 85 84  1  0
 87 88  1  0
 88 91  1  0
 88 90  1  0
 89 87  2  0
 92 67  1  0
 92 93  1  0
 94 92  1  0
M  ISO  4  10 101  11 101  57 100  59 100
M  END
>  <TORSDO>  (19) 
F 25

>  <SCORE>  (19) 
-8.359

>  <name>  (19) 
18

>  <ligand_id>  (19) 
18

>  <original_smiles>  (19) 
[H]c1c([H])c([H])c2c(c1[H])C([H])([H])C([H])([H])C([H])([H])C2([H])N([H])C(=O)C1([H])N(C(=O)C([H])(N([H])C(=O)C([H])(N([H])C([H])([H])[H])C([H])([H])[H])C(C([H])([H])[H])(C([H])([H])[H])C([H])([H])[H])C([H])([H])c2c([H])c(OC([H])([H])C([H])([H])C([H])([H])[N+]([H])([H])C([H])(C([H])([H])C([H])([H])C([H])([H])C3([H])C([H])([H])C([H])(C(=O)N4C([H])([H])C([H])([H])C([H])([H])C([H])(n5nc(-c6c([H])c([H])c(Oc7c([H])c([H])c(F)c([H])c7F)c([H])c6[H])c(C(=O)N([H])[H])c5N([H])[H])C4([H])[H])C3([H])[H])C([H])(C([H])([H])[H])C([H])([H])[H])c([H])c([H])c2C1([H])[H]

>  <smiles>  (19) 
[H]c1c([H])c([H])c2c(c1[H])C([H])([H])C([H])([H])C([H])([H])C2([H])N([H])C(=O)C1([H])N(C(=O)C([H])(N([H])C(=O)C([H])(N([H])C([H])([H])[H])C([H])([H])[H])C(C([H])([H])[H])(C([H])([H])[H])C([H])([H])[H])C([H])([H])c2c([H])c(OC([H])([H])C([H])([H])C([H])([H])[N+]([H])([H])C([H])(C([H])([H])C([H])([H])C([H])([H])C3([H])C([H])([H])C([H])(C(=O)N4C([H])([H])C([H])([H])C([H])([H])C([H])(n5nc(-c6c([H])c([H])c(Oc7c([H])c([H])c(F)c([H])c7F)c([H])c6[H])c(C(=O)N([H])[H])c5N([H])[H])C4([H])[H])C3([H])[H])C([H])(C([H])([H])[H])C([H])([H])[H])c([H])c([H])c2C1([H])[H]

$$$$
19:0:0
     RDKit          3D

 93102  0  0  1  0  0  0  0  0999 V2000
  -29.9600  -20.7040   17.7150 C   0  0  0  0  0  3  0  0  0  0  0  0
  -30.3360  -19.8020   16.7110 C   0  0  0  0  0  3  0  0  0  0  0  0
  -30.6800  -18.1170   18.4040 C   0  0  0  0  0  3  0  0  0  0  0  0
  -29.9420  -20.3620   19.0970 C   0  0  0  0  0  0  0  0  0  0  0  0
  -30.3390  -19.0040   19.4670 C   0  0  0  0  0  0  0  0  0  0  0  0
  -30.6920  -18.5010   17.0570 C   0  0  0  0  0  0  0  0  0  0  0  0
  -31.0490  -17.6150   16.0960 F   0  0  0  0  0  0  0  0  0  0  0  0
  -30.7610  -19.3770   21.8720 C   0  0  0  0  0  1  0  0  0  0  0  0
  -30.4280  -18.4560   20.7930 N   0  0  0  0  0  0  0  0  0  0  0  0
  -30.8150  -16.2800   22.1930 C   0  0  0  0  0  2  0  0  0  0  0  0
  -30.3190  -15.7780   20.8560 C   0  0  0  0  0  3  0  0  0  0  0  0
  -31.0720  -17.1240   20.9670 C   0  0  0  0  0  3  0  0  0  0  0  0
  -31.0290  -14.5720   20.2570 C   0  0  0  0  0  0  0  0  0  0  0  0
  -30.6510  -12.4590   19.0260 C   0  0  0  0  0  2  0  0  0  0  0  0
  -29.6900  -12.7440   17.8530 C   0  0  0  0  0  2  0  0  0  0  0  0
  -28.2210  -12.6330   18.3090 C   0  0  0  0  0  2  0  0  0  0  0  0
  -27.9370  -13.4190   19.6140 C   0  0  0  0  0  3  0  0  0  0  0  0
  -29.0100  -13.1290   20.6880 C   0  0  0  0  0  2  0  0  0  0  0  0
  -30.3280  -13.4130   20.1000 N   0  0  0  0  0  0  0  0  0  0  0  0
  -32.1710  -14.6970   19.8010 O   0  0  0  0  0  0  0  0  0  0  0  0
  -25.5620  -14.0700   20.3550 C   0  0  0  0  0  0  0  0  0  0  0  0
  -24.4840  -13.3170   20.7360 C   0  0  0  0  0  0  0  0  0  0  0  0
  -24.9200  -11.9580   20.7090 C   0  0  0  0  0  0  0  0  0  0  0  0
  -26.5870  -13.1690   20.1130 N   0  0  0  0  0  0  0  0  0  0  0  0
  -26.2060  -11.8930   20.3860 N   0  0  0  0  0  0  0  0  0  0  0  0
  -24.1730  -10.7100   20.9160 C   0  0  0  0  0  0  0  0  0  0  0  0
  -24.5880   -9.7480   21.8630 C   0  0  0  0  0  3  0  0  0  0  0  0
  -23.8430   -8.5640   22.0530 C   0  0  0  0  0  3  0  0  0  0  0  0
  -22.6690   -8.3340   21.2960 C   0  0  0  0  0  0  0  0  0  0  0  0
  -22.2750   -9.2860   20.3380 C   0  0  0  0  0  3  0  0  0  0  0  0
  -23.0210  -10.4600   20.1460 C   0  0  0  0  0  3  0  0  0  0  0  0
  -21.8970   -7.2020   21.3950 O   0  0  0  0  0  0  0  0  0  0  0  0
  -21.8170   -6.4850   22.5630 C   0  0  0  0  0  0  0  0  0  0  0  0
  -21.3820   -7.0750   23.7700 C   0  0  0  0  0  3  0  0  0  0  0  0
  -21.2460   -6.2880   24.9300 C   0  0  0  0  0  3  0  0  0  0  0  0
  -21.5380   -4.9110   24.8850 C   0  0  0  0  0  0  0  0  0  0  0  0
  -21.9680   -4.3200   23.6820 C   0  0  0  0  0  3  0  0  0  0  0  0
  -22.1050   -5.1060   22.5250 C   0  0  0  0  0  0  0  0  0  0  0  0
  -22.5000   -4.5290   21.3640 F   0  0  0  0  0  0  0  0  0  0  0  0
  -21.4000   -4.1510   25.9970 F   0  0  0  0  0  0  0  0  0  0  0  0
  -23.0960  -13.8210   21.0190 C   0  0  0  0  0  0  0  0  0  0  0  0
  -22.3670  -13.1450   21.9000 N   0  0  0  0  0  0  0  0  0  0  0  0
  -22.6690  -14.8480   20.4940 O   0  0  0  0  0  0  0  0  0  0  0  0
  -22.7310  -12.3170   22.3470 H   0  0  0  0  0  0  0  0  0  0  0  0
  -21.4360  -13.4620   22.1300 H   0  0  0  0  0  0  0  0  0  0  0  0
  -25.7500  -15.4360   20.1710 N   0  0  0  0  0  0  0  0  0  0  0  0
  -24.9980  -16.1080   20.2850 H   0  0  0  0  0  0  0  0  0  0  0  0
  -26.6110  -15.8570   19.8440 H   0  0  0  0  0  0  0  0  0  0  0  0
  -29.4840  -21.5000   20.0700 C   0  0  0  0  0  3  0  0  0  0  0  0
  -29.0880  -22.8800   19.4170 C   0  0  0  0  0  3  0  0  0  0  0  0
  -28.6990  -24.0920   20.3220 C   0  0  0  0  0  2  0  0  0  0  0  0
  -28.6710  -25.4340   19.5160 C   0  0  0  0  0  2  0  0  0  0  0  0
  -28.4690  -26.6450   20.2820 O   0  0  0  0  0  0  0  0  0  0  0  0
  -24.5990  -31.8530   23.2500 C   0  0  0  0  0  0  0  0  0  0  0  0
  -27.2810  -27.3630   20.2250 C   0  0  0  0  0  0  0  0  0  0  0  0
  -23.4170  -30.4510   21.5920 C   0  0  0  0  0  3  0  0  0  0  0  0
  -24.8890  -28.9010   20.1940 C   0  0  0  0  0  0  0  0  0  0  0  0
  -25.9510  -30.7920   21.4370 C   0  0  0  0  0  2  0  0  0  0  0  0
  -26.0410  -29.4180   20.7970 C   0  0  0  0  0  0  0  0  0  0  0  0
  -27.2360  -28.6580   20.8060 C   0  0  0  0  0  3  0  0  0  0  0  0
  -26.0970  -26.8600   19.6380 C   0  0  0  0  0  3  0  0  0  0  0  0
  -24.9140  -27.6230   19.6130 C   0  0  0  0  0  3  0  0  0  0  0  0
  -23.6470  -29.7670   20.2180 C   0  0  0  0  0  2  0  0  0  0  0  0
  -24.6730  -31.0480   22.1510 N   0  0  0  0  0  0  0  0  0  0  0  0
  -23.5090  -32.1300   23.7710 O   0  0  0  0  0  0  0  0  0  0  0  0
  -22.7460  -29.4340   22.5440 C   0  0  0  0  0  0  0  0  0  0  0  0
  -21.4220  -29.2600   22.4020 N   0  0  0  0  0  0  0  0  0  0  0  0
  -23.4150  -28.8060   23.3690 O   0  0  0  0  0  0  0  0  0  0  0  0
  -20.9430  -29.8220   21.7120 H   0  0  0  0  0  0  0  0  0  0  0  0
  -18.0340  -28.0890   22.8640 C   0  0  0  0  0  0  0  0  0  0  0  0
  -20.5910  -28.3260   23.1630 C   0  0  0  0  0  3  0  0  0  0  0  0
  -20.6860  -26.8950   22.5840 C   0  0  0  0  0  2  0  0  0  0  0  0
  -19.5910  -26.5830   21.5580 C   0  0  0  0  0  2  0  0  0  0  0  0
  -18.2050  -26.7390   22.1890 C   0  0  0  0  0  2  0  0  0  0  0  0
  -19.1540  -28.8410   23.3070 C   0  0  0  0  0  0  0  0  0  0  0  0
  -18.9380  -30.1060   23.8960 C   0  0  0  0  0  3  0  0  0  0  0  0
  -17.6360  -30.6170   24.0480 C   0  0  0  0  0  3  0  0  0  0  0  0
  -16.5310  -29.8610   23.6210 C   0  0  0  0  0  3  0  0  0  0  0  0
  -16.7300  -28.6000   23.0330 C   0  0  0  0  0  3  0  0  0  0  0  0
  -25.8760  -32.4820   23.8900 C   0  0  0  0  0  3  0  0  0  0  0  0
  -25.5660  -33.8830   24.2080 N   0  0  0  0  0  0  0  0  0  0  0  0
  -25.9090  -34.9310   23.4470 C   0  0  0  0  0  0  0  0  0  0  0  0
  -26.5920  -34.8190   22.4250 O   0  0  0  0  0  0  0  0  0  0  0  0
  -24.9590  -34.0440   24.9980 H   0  0  0  0  0  0  0  0  0  0  0  0
  -24.1850  -36.7220   23.0590 C   0  0  0  0  0  1  0  0  0  0  0  0
  -25.4170  -36.3220   23.8880 C   0  0  0  0  0  3  0  0  0  0  0  0
  -27.5440  -37.2130   24.7330 C   0  0  0  0  0  1  0  0  0  0  0  0
  -26.4510  -37.3750   23.7770 N   0  0  0  0  0  0  0  0  0  0  0  0
  -26.0450  -38.2970   23.9140 H   0  0  0  0  0  0  0  0  0  0  0  0
  -26.3690  -31.7150   25.1780 C   0  0  1  0  0  0  0  0  0  0  0  0
  -25.2580  -31.4860   26.2300 C   0  0  0  0  0  1  0  0  0  0  0  0
  -26.9540  -30.3330   24.8010 C   0  0  0  0  0  1  0  0  0  0  0  0
  -27.5090  -32.5090   25.8550 C   0  0  0  0  0  1  0  0  0  0  0  0
  1  4  1  0
  2  6  1  0
  2  1  2  0
  3  5  1  0
  4  5  2  0
  4 49  1  0
  5  9  1  0
  6  3  2  0
  7  6  1  0
  9  8  1  0
 11 13  1  0
 11 12  1  0
 11 10  1  0
 12  9  1  0
 12 10  1  0
 14 19  1  0
 15 16  1  0
 15 14  1  0
 17 16  1  0
 17 24  1  0
 17 18  1  0
 19 13  1  0
 19 18  1  0
 20 13  2  0
 21 22  2  0
 22 41  1  0
 23 22  1  0
 23 26  1  0
 24 21  1  0
 24 25  1  0
 25 23  2  0
 26 27  1  0
 27 28  2  0
 29 32  1  0
 29 28  1  0
 30 29  2  0
 31 30  1  0
 31 26  2  0
 32 33  1  0
 33 34  1  0
 34 35  2  0
 36 35  1  0
 36 40  1  0
 37 36  2  0
 38 33  2  0
 38 37  1  0
 39 38  1  0
 41 42  1  0
 42 45  1  0
 42 44  1  0
 43 41  2  0
 46 47  1  0
 46 21  1  0
 48 46  1  0
 50 49  2  0
 50 51  1  0
 52 53  1  0
 52 51  1  0
 54 65  2  0
 55 53  1  0
 55 60  1  0
 56 64  1  0
 56 66  1  0
 57 63  1  0
 57 59  1  0
 58 64  1  0
 59 60  2  0
 59 58  1  0
 61 55  2  0
 62 61  1  0
 62 57  2  0
 63 56  1  0
 64 54  1  0
 66 68  2  0
 67 66  1  0
 69 67  1  0
 70 79  2  0
 70 75  1  0
 71 67  1  0
 71 75  1  0
 72 71  1  0
 73 74  1  0
 73 72  1  0
 74 70  1  0
 75 76  2  0
 76 77  1  0
 78 77  2  0
 79 78  1  0
 80 54  1  0
 80 81  1  0
 80 90  1  0
 81 84  1  0
 82 86  1  0
 82 81  1  0
 83 82  2  0
 86 85  1  0
 88 86  1  0
 88 89  1  0
 88 87  1  0
 90 93  1  1
 90 91  1  0
 92 90  1  0
M  ISO  4  11 100  13 100  52 101  53 101
M  END
>  <TORSDO>  (20) 
F 22

>  <SCORE>  (20) 
-13.106

>  <name>  (20) 
19

>  <ligand_id>  (20) 
19

>  <original_smiles>  (20) 
[H]c1c([H])c([H])c2c(c1[H])C([H])([H])C([H])([H])C([H])([H])C2([H])N([H])C(=O)C1([H])N(C(=O)C([H])(N([H])C(=O)C([H])(N([H])C([H])([H])[H])C([H])([H])[H])C(C([H])([H])[H])(C([H])([H])[H])C([H])([H])[H])C([H])([H])c2c([H])c(OC([H])([H])C([H])([H])C([H])([H])C([H])([H])c3c([H])c([H])c(F)c([H])c3N(C([H])([H])[H])C3([H])C([H])([H])C3([H])C(=O)N3C([H])([H])C([H])([H])C([H])([H])C([H])(n4nc(-c5c([H])c([H])c(Oc6c([H])c([H])c(F)c([H])c6F)c([H])c5[H])c(C(=O)N([H])[H])c4N([H])[H])C3([H])[H])c([H])c([H])c2C1([H])[H]

>  <smiles>  (20) 
[H]c1c([H])c([H])c2c(c1[H])C([H])([H])C([H])([H])C([H])([H])C2([H])N([H])C(=O)C1([H])N(C(=O)C([H])(N([H])C(=O)C([H])(N([H])C([H])([H])[H])C([H])([H])[H])C(C([H])([H])[H])(C([H])([H])[H])C([H])([H])[H])C([H])([H])c2c([H])c(OC([H])([H])C([H])([H])C([H])([H])C([H])([H])c3c([H])c([H])c(F)c([H])c3N(C([H])([H])[H])C3([H])C([H])([H])C3([H])C(=O)N3C([H])([H])C([H])([H])C([H])([H])C([H])(n4nc(-c5c([H])c([H])c(Oc6c([H])c([H])c(F)c([H])c6F)c([H])c5[H])c(C(=O)N([H])[H])c4N([H])[H])C3([H])[H])c([H])c([H])c2C1([H])[H]

$$$$
20:0:0
     RDKit          3D

 90 98  0  0  1  0  0  0  0  0999 V2000
  -31.4120  -18.6380   18.5150 C   0  0  0  0  0  2  0  0  0  0  0  0
  -31.7100  -19.5470   19.7090 C   0  0  0  0  0  2  0  0  0  0  0  0
  -31.4870  -17.1580   18.9320 C   0  0  0  0  0  2  0  0  0  0  0  0
  -30.2230  -17.8800   21.0540 C   0  0  0  0  0  3  0  0  0  0  0  0
  -30.5710  -19.4940   20.7310 C   0  0  0  0  0  3  0  0  0  0  0  0
  -30.4210  -16.6340   19.9640 C   0  0  1  0  0  0  0  0  0  0  0  0
  -29.0900  -16.5550   19.1910 C   0  0  0  0  0  1  0  0  0  0  0  0
  -30.9370  -15.0670   20.3250 C   0  0  0  0  0  0  0  0  0  0  0  0
  -30.6770  -12.7540   19.3680 C   0  0  0  0  0  2  0  0  0  0  0  0
  -29.7410  -12.7230   18.1430 C   0  0  0  0  0  2  0  0  0  0  0  0
  -28.2820  -12.5180   18.5890 C   0  0  0  0  0  2  0  0  0  0  0  0
  -27.8830  -13.4400   19.7670 C   0  0  0  0  0  3  0  0  0  0  0  0
  -28.9540  -13.5100   20.8740 C   0  0  0  0  0  2  0  0  0  0  0  0
  -30.2290  -13.8700   20.2440 N   0  0  0  0  0  0  0  0  0  0  0  0
  -32.1600  -14.9100   20.3170 O   0  0  0  0  0  0  0  0  0  0  0  0
  -25.5230  -14.0250   20.5560 C   0  0  0  0  0  0  0  0  0  0  0  0
  -24.4570  -13.2480   20.9150 C   0  0  0  0  0  0  0  0  0  0  0  0
  -24.9190  -11.8970   20.8620 C   0  0  0  0  0  0  0  0  0  0  0  0
  -26.5580  -13.1450   20.2920 N   0  0  0  0  0  0  0  0  0  0  0  0
  -26.2070  -11.8600   20.5480 N   0  0  0  0  0  0  0  0  0  0  0  0
  -24.1920  -10.6340   21.0280 C   0  0  0  0  0  0  0  0  0  0  0  0
  -24.5830   -9.6790   21.9940 C   0  0  0  0  0  3  0  0  0  0  0  0
  -23.8560   -8.4800   22.1490 C   0  0  0  0  0  3  0  0  0  0  0  0
  -22.7240   -8.2270   21.3380 C   0  0  0  0  0  0  0  0  0  0  0  0
  -22.3540   -9.1700   20.3620 C   0  0  0  0  0  3  0  0  0  0  0  0
  -23.0830  -10.3610   20.2060 C   0  0  0  0  0  3  0  0  0  0  0  0
  -21.9710   -7.0800   21.4010 O   0  0  0  0  0  0  0  0  0  0  0  0
  -21.8000   -6.3970   22.5780 C   0  0  0  0  0  0  0  0  0  0  0  0
  -21.2320   -7.0080   23.7180 C   0  0  0  0  0  3  0  0  0  0  0  0
  -21.0100   -6.2510   24.8850 C   0  0  0  0  0  3  0  0  0  0  0  0
  -21.3440   -4.8840   24.9130 C   0  0  0  0  0  0  0  0  0  0  0  0
  -21.9040   -4.2730   23.7760 C   0  0  0  0  0  3  0  0  0  0  0  0
  -22.1290   -5.0280   22.6120 C   0  0  0  0  0  0  0  0  0  0  0  0
  -22.6490   -4.4280   21.5140 F   0  0  0  0  0  0  0  0  0  0  0  0
  -21.1230   -4.1540   26.0310 F   0  0  0  0  0  0  0  0  0  0  0  0
  -23.0610  -13.7250   21.1920 C   0  0  0  0  0  0  0  0  0  0  0  0
  -22.3350  -13.0230   22.0540 N   0  0  0  0  0  0  0  0  0  0  0  0
  -22.6230  -14.7530   20.6790 O   0  0  0  0  0  0  0  0  0  0  0  0
  -22.7030  -12.1900   22.4890 H   0  0  0  0  0  0  0  0  0  0  0  0
  -21.3990  -13.3240   22.2840 H   0  0  0  0  0  0  0  0  0  0  0  0
  -25.6920  -15.3980   20.4030 N   0  0  0  0  0  0  0  0  0  0  0  0
  -24.9370  -16.0590   20.5420 H   0  0  0  0  0  0  0  0  0  0  0  0
  -26.5520  -15.8380   20.1020 H   0  0  0  0  0  0  0  0  0  0  0  0
  -30.3070  -17.0510   23.4480 C   0  0  0  0  0  2  0  0  0  0  0  0
  -30.9300  -17.4780   22.3370 C   0  0  0  0  0  3  0  0  0  0  0  0
  -29.5250  -20.7440   20.4180 C   0  0  0  0  0  2  0  0  0  0  0  0
  -29.8320  -22.3120   20.8930 C   0  0  0  0  0  2  0  0  0  0  0  0
  -29.2670  -23.7010   20.1740 C   0  0  0  0  0  2  0  0  0  0  0  0
  -29.0140  -25.1210   20.9960 C   0  0  0  0  0  2  0  0  0  0  0  0
  -29.0520  -26.5500   20.4500 O   0  0  0  0  0  0  0  0  0  0  0  0
  -24.8760  -31.8670   23.2950 C   0  0  0  0  0  0  0  0  0  0  0  0
  -27.8980  -27.3840   20.4170 C   0  0  0  0  0  0  0  0  0  0  0  0
  -23.8430  -30.3940   21.6070 C   0  0  0  0  0  3  0  0  0  0  0  0
  -25.4530  -28.9130   20.2670 C   0  0  0  0  0  0  0  0  0  0  0  0
  -26.3730  -30.8440   21.5490 C   0  0  0  0  0  2  0  0  0  0  0  0
  -26.5680  -29.4610   20.9160 C   0  0  0  0  0  0  0  0  0  0  0  0
  -27.7950  -28.7140   20.9690 C   0  0  0  0  0  3  0  0  0  0  0  0
  -26.7540  -26.9050   19.7470 C   0  0  0  0  0  3  0  0  0  0  0  0
  -25.5550  -27.6450   19.6710 C   0  0  0  0  0  3  0  0  0  0  0  0
  -24.1680  -29.7230   20.2460 C   0  0  0  0  0  2  0  0  0  0  0  0
  -25.0460  -31.0560   22.2060 N   0  0  0  0  0  0  0  0  0  0  0  0
  -23.7520  -32.0800   23.7730 O   0  0  0  0  0  0  0  0  0  0  0  0
  -23.1900  -29.3470   22.5420 C   0  0  0  0  0  0  0  0  0  0  0  0
  -21.8870  -29.0790   22.3450 N   0  0  0  0  0  0  0  0  0  0  0  0
  -23.8610  -28.7740   23.4060 O   0  0  0  0  0  0  0  0  0  0  0  0
  -21.4020  -29.5990   21.6260 H   0  0  0  0  0  0  0  0  0  0  0  0
  -18.5810  -27.6380   22.6590 C   0  0  0  0  0  0  0  0  0  0  0  0
  -21.0930  -28.0930   23.0780 C   0  0  0  0  0  3  0  0  0  0  0  0
  -21.3350  -26.6660   22.5330 C   0  0  0  0  0  2  0  0  0  0  0  0
  -20.3250  -26.2510   21.4580 C   0  0  0  0  0  2  0  0  0  0  0  0
  -18.8980  -26.2980   22.0140 C   0  0  0  0  0  2  0  0  0  0  0  0
  -19.6110  -28.4870   23.1430 C   0  0  0  0  0  0  0  0  0  0  0  0
  -19.2640  -29.7360   23.7010 C   0  0  0  0  0  3  0  0  0  0  0  0
  -17.9180  -30.1380   23.7850 C   0  0  0  0  0  3  0  0  0  0  0  0
  -16.9010  -29.2870   23.3170 C   0  0  0  0  0  3  0  0  0  0  0  0
  -17.2330  -28.0410   22.7590 C   0  0  0  0  0  3  0  0  0  0  0  0
  -26.0830  -32.5810   23.9780 C   0  0  0  0  0  3  0  0  0  0  0  0
  -25.6780  -33.9660   24.2620 N   0  0  0  0  0  0  0  0  0  0  0  0
  -25.9820  -35.0230   23.4970 C   0  0  0  0  0  0  0  0  0  0  0  0
  -26.6980  -34.9380   22.4960 O   0  0  0  0  0  0  0  0  0  0  0  0
  -25.0420  -34.1000   25.0330 H   0  0  0  0  0  0  0  0  0  0  0  0
  -24.1580  -36.7020   23.0580 C   0  0  0  0  0  1  0  0  0  0  0  0
  -25.4010  -36.3910   23.9070 C   0  0  0  0  0  3  0  0  0  0  0  0
  -27.4560  -37.4260   24.7650 C   0  0  0  0  0  1  0  0  0  0  0  0
  -26.3700  -37.5020   23.7920 N   0  0  0  0  0  0  0  0  0  0  0  0
  -25.9040  -38.3990   23.9060 H   0  0  0  0  0  0  0  0  0  0  0  0
  -26.5620  -31.8640   25.3010 C   0  0  1  0  0  0  0  0  0  0  0  0
  -25.4210  -31.5890   26.3090 C   0  0  0  0  0  1  0  0  0  0  0  0
  -27.2410  -30.5120   24.9800 C   0  0  0  0  0  1  0  0  0  0  0  0
  -27.6250  -32.7330   26.0110 C   0  0  0  0  0  1  0  0  0  0  0  0
  1  3  1  0
  1  2  1  0
  2  5  1  0
  3  6  1  0
  4 45  1  0
  5 46  1  0
  5  4  1  0
  6  7  1  6
  6  8  1  0
  6  4  1  0
  9 14  1  0
 10 11  1  0
 10  9  1  0
 12 11  1  0
 12 19  1  0
 12 13  1  0
 14  8  1  0
 14 13  1  0
 15  8  2  0
 16 17  2  0
 17 36  1  0
 18 17  1  0
 18 21  1  0
 19 20  1  0
 19 16  1  0
 20 18  2  0
 21 22  1  0
 22 23  2  0
 24 27  1  0
 24 23  1  0
 25 24  2  0
 26 25  1  0
 26 21  2  0
 27 28  1  0
 28 33  2  0
 28 29  1  0
 29 30  2  0
 30 31  1  0
 31 35  1  0
 32 31  2  0
 33 32  1  0
 34 33  1  0
 36 37  1  0
 37 40  1  0
 37 39  1  0
 38 36  2  0
 41 42  1  0
 41 16  1  0
 43 41  1  0
 45 44  2  0
 46 47  1  0
 48 47  1  0
 48 49  1  0
 50 49  1  0
 51 62  2  0
 52 50  1  0
 52 57  1  0
 53 61  1  0
 53 63  1  0
 54 56  1  0
 55 61  1  0
 56 57  2  0
 56 55  1  0
 58 52  2  0
 59 58  1  0
 59 54  2  0
 60 54  1  0
 60 53  1  0
 61 51  1  0
 63 65  2  0
 64 63  1  0
 66 64  1  0
 67 76  2  0
 67 72  1  0
 68 64  1  0
 68 72  1  0
 69 68  1  0
 70 71  1  0
 70 69  1  0
 71 67  1  0
 72 73  2  0
 73 74  1  0
 75 74  2  0
 76 75  1  0
 77 51  1  0
 77 78  1  0
 77 87  1  0
 78 81  1  0
 79 83  1  0
 79 78  1  0
 80 79  2  0
 83 82  1  0
 85 86  1  0
 85 83  1  0
 85 84  1  0
 87 90  1  1
 87 88  1  0
 89 87  1  0
M  ISO  4   6 100   8 100  49 101  50 101
M  END
>  <TORSDO>  (21) 
F 21

>  <SCORE>  (21) 
-11.871

>  <name>  (21) 
20

>  <ligand_id>  (21) 
20

>  <original_smiles>  (21) 
[H]C([H])=C([H])C1([H])C([H])(C([H])([H])C([H])([H])C([H])([H])C([H])([H])Oc2c([H])c([H])c3c(c2[H])C([H])([H])N(C(=O)C([H])(N([H])C(=O)C([H])(N([H])C([H])([H])[H])C([H])([H])[H])C(C([H])([H])[H])(C([H])([H])[H])C([H])([H])[H])C([H])(C(=O)N([H])C2([H])c4c([H])c([H])c([H])c([H])c4C([H])([H])C([H])([H])C2([H])[H])C3([H])[H])C([H])([H])C([H])([H])C([H])([H])C1(C(=O)N1C([H])([H])C([H])([H])C([H])([H])C([H])(n2nc(-c3c([H])c([H])c(Oc4c([H])c([H])c(F)c([H])c4F)c([H])c3[H])c(C(=O)N([H])[H])c2N([H])[H])C1([H])[H])C([H])([H])[H]

>  <smiles>  (21) 
[H]C([H])=C([H])C1([H])C([H])(C([H])([H])C([H])([H])C([H])([H])C([H])([H])Oc2c([H])c([H])c3c(c2[H])C([H])([H])N(C(=O)C([H])(N([H])C(=O)C([H])(N([H])C([H])([H])[H])C([H])([H])[H])C(C([H])([H])[H])(C([H])([H])[H])C([H])([H])[H])C([H])(C(=O)N([H])C2([H])c4c([H])c([H])c([H])c([H])c4C([H])([H])C([H])([H])C2([H])[H])C3([H])[H])C([H])([H])C([H])([H])C([H])([H])C1(C(=O)N1C([H])([H])C([H])([H])C([H])([H])C([H])(n2nc(-c3c([H])c([H])c(Oc4c([H])c([H])c(F)c([H])c4F)c([H])c3[H])c(C(=O)N([H])[H])c2N([H])[H])C1([H])[H])C([H])([H])[H]

$$$$
21:0:0
     RDKit          3D

 95103  0  0  1  0  0  0  0  0999 V2000
  -27.5090  -23.2470   20.7630 C   0  0  0  0  0  2  0  0  0  0  0  0
  -29.3750  -21.5470   20.3530 C   0  0  0  0  0  3  0  0  0  0  0  0
  -28.7370  -22.4260   21.1450 C   0  0  0  0  0  3  0  0  0  0  0  0
  -31.8970  -20.4350   18.6810 C   0  0  0  0  0  2  0  0  0  0  0  0
  -31.7900  -21.4630   19.7970 C   0  0  0  0  0  2  0  0  0  0  0  0
  -31.7350  -19.1330   19.4580 C   0  0  0  0  0  2  0  0  0  0  0  0
  -30.7010  -20.8830   20.7160 C   0  0  0  0  0  3  0  0  0  0  0  0
  -30.7200  -19.3970   20.5130 N   0  0  2  0  0  4  0  0  0  0  0  0
  -29.8240  -19.1500   20.1220 H   0  0  0  0  0  0  0  0  0  0  0  0
  -30.8910  -18.6040   21.7780 C   0  0  0  0  0  2  0  0  0  0  0  0
  -31.3330  -17.1120   21.6460 C   0  0  0  0  0  2  0  0  0  0  0  0
  -30.2830  -16.0510   21.1870 C   0  0  0  0  0  2  0  0  0  0  0  0
  -30.9080  -14.7970   20.5120 C   0  0  0  0  0  0  0  0  0  0  0  0
  -30.6010  -12.6370   19.3540 C   0  0  0  0  0  2  0  0  0  0  0  0
  -29.6990  -12.8430   18.1210 C   0  0  0  0  0  2  0  0  0  0  0  0
  -28.2150  -12.7090   18.5120 C   0  0  0  0  0  2  0  0  0  0  0  0
  -27.8460  -13.5500   19.7650 C   0  0  0  0  0  3  0  0  0  0  0  0
  -28.8730  -13.3470   20.9000 C   0  0  0  0  0  2  0  0  0  0  0  0
  -30.2130  -13.6340   20.3660 N   0  0  0  0  0  0  0  0  0  0  0  0
  -32.0220  -14.9350   20.0020 O   0  0  0  0  0  0  0  0  0  0  0  0
  -25.4320  -14.1500   20.4320 C   0  0  0  0  0  0  0  0  0  0  0  0
  -24.3570  -13.3770   20.7700 C   0  0  0  0  0  0  0  0  0  0  0  0
  -24.8140  -12.0240   20.7350 C   0  0  0  0  0  0  0  0  0  0  0  0
  -26.4820  -13.2710   20.2140 N   0  0  0  0  0  0  0  0  0  0  0  0
  -26.1120  -11.9860   20.4550 N   0  0  0  0  0  0  0  0  0  0  0  0
  -24.0810  -10.7620   20.8980 C   0  0  0  0  0  0  0  0  0  0  0  0
  -24.4740   -9.7990   21.8540 C   0  0  0  0  0  3  0  0  0  0  0  0
  -23.7430   -8.6010   22.0050 C   0  0  0  0  0  3  0  0  0  0  0  0
  -22.6050   -8.3570   21.2000 C   0  0  0  0  0  0  0  0  0  0  0  0
  -22.2310   -9.3090   20.2360 C   0  0  0  0  0  3  0  0  0  0  0  0
  -22.9610  -10.4990   20.0830 C   0  0  0  0  0  3  0  0  0  0  0  0
  -21.8500   -7.2110   21.2600 O   0  0  0  0  0  0  0  0  0  0  0  0
  -21.7180   -6.4940   22.4220 C   0  0  0  0  0  0  0  0  0  0  0  0
  -21.1940   -7.0710   23.5980 C   0  0  0  0  0  3  0  0  0  0  0  0
  -21.0100   -6.2810   24.7500 C   0  0  0  0  0  3  0  0  0  0  0  0
  -21.3420   -4.9120   24.7260 C   0  0  0  0  0  0  0  0  0  0  0  0
  -21.8590   -4.3340   23.5530 C   0  0  0  0  0  3  0  0  0  0  0  0
  -22.0440   -5.1220   22.4040 C   0  0  0  0  0  0  0  0  0  0  0  0
  -22.5230   -4.5540   21.2700 F   0  0  0  0  0  0  0  0  0  0  0  0
  -21.1590   -4.1510   25.8290 F   0  0  0  0  0  0  0  0  0  0  0  0
  -22.9540  -13.8540   21.0180 C   0  0  0  0  0  0  0  0  0  0  0  0
  -22.2080  -13.1550   21.8660 N   0  0  0  0  0  0  0  0  0  0  0  0
  -22.5280  -14.8840   20.4930 O   0  0  0  0  0  0  0  0  0  0  0  0
  -22.5630  -12.3220   22.3130 H   0  0  0  0  0  0  0  0  0  0  0  0
  -21.2670  -13.4570   22.0720 H   0  0  0  0  0  0  0  0  0  0  0  0
  -25.6030  -15.5220   20.2710 N   0  0  0  0  0  0  0  0  0  0  0  0
  -24.8320  -16.1740   20.3700 H   0  0  0  0  0  0  0  0  0  0  0  0
  -26.4610  -15.9640   19.9700 H   0  0  0  0  0  0  0  0  0  0  0  0
  -27.7360  -24.7970   20.6880 C   0  0  0  0  0  3  0  0  0  0  0  0
  -28.7080  -25.3510   21.7730 C   0  0  0  0  0  2  0  0  0  0  0  0
  -28.8130  -26.0500   24.2060 C   0  0  0  0  0  1  0  0  0  0  0  0
  -26.5880  -26.2390   23.0550 C   0  0  0  0  0  1  0  0  0  0  0  0
  -28.1120  -26.2930   22.8570 C   0  0  0  0  0  3  0  0  0  0  0  0
  -28.1580  -25.2460   19.2570 C   0  0  0  0  0  2  0  0  0  0  0  0
  -28.1460  -26.6740   19.0540 O   0  0  0  0  0  0  0  0  0  0  0  0
  -24.5980  -31.5450   22.8200 C   0  0  0  0  0  0  0  0  0  0  0  0
  -26.9630  -27.3820   19.1710 C   0  0  0  0  0  0  0  0  0  0  0  0
  -23.2570  -30.3080   21.1500 C   0  0  0  0  0  3  0  0  0  0  0  0
  -24.5830  -28.8980   19.4860 C   0  0  0  0  0  0  0  0  0  0  0  0
  -25.7600  -30.6770   20.7870 C   0  0  0  0  0  2  0  0  0  0  0  0
  -25.7860  -29.3590   20.0360 C   0  0  0  0  0  0  0  0  0  0  0  0
  -26.9750  -28.6100   19.8770 C   0  0  0  0  0  3  0  0  0  0  0  0
  -25.7410  -26.9390   18.6140 C   0  0  0  0  0  3  0  0  0  0  0  0
  -24.5590  -27.6880   18.7700 C   0  0  0  0  0  3  0  0  0  0  0  0
  -23.3540  -29.7550   19.7020 C   0  0  0  0  0  2  0  0  0  0  0  0
  -24.5620  -30.8530   21.6440 N   0  0  0  0  0  0  0  0  0  0  0  0
  -23.5640  -31.7670   23.4640 O   0  0  0  0  0  0  0  0  0  0  0  0
  -22.6710  -29.2040   22.0600 C   0  0  0  0  0  0  0  0  0  0  0  0
  -21.3420  -29.0200   21.9990 N   0  0  0  0  0  0  0  0  0  0  0  0
  -23.4070  -28.5160   22.7720 O   0  0  0  0  0  0  0  0  0  0  0  0
  -20.8050  -29.6330   21.4010 H   0  0  0  0  0  0  0  0  0  0  0  0
  -18.0150  -27.7470   22.5720 C   0  0  0  0  0  0  0  0  0  0  0  0
  -20.5800  -28.0110   22.7330 C   0  0  0  0  0  3  0  0  0  0  0  0
  -20.6650  -26.6330   22.0360 C   0  0  0  0  0  2  0  0  0  0  0  0
  -19.5150  -26.3810   21.0570 C   0  0  0  0  0  2  0  0  0  0  0  0
  -18.1690  -26.4580   21.7830 C   0  0  0  0  0  2  0  0  0  0  0  0
  -19.1480  -28.4860   23.0060 C   0  0  0  0  0  0  0  0  0  0  0  0
  -18.9490  -29.6970   23.7040 C   0  0  0  0  0  3  0  0  0  0  0  0
  -17.6520  -30.1660   23.9780 C   0  0  0  0  0  3  0  0  0  0  0  0
  -16.5340  -29.4230   23.5590 C   0  0  0  0  0  3  0  0  0  0  0  0
  -16.7170  -28.2170   22.8590 C   0  0  0  0  0  3  0  0  0  0  0  0
  -25.9330  -32.1120   23.3970 C   0  0  0  0  0  3  0  0  0  0  0  0
  -26.5820  -31.1740   24.4870 C   0  0  1  0  0  0  0  0  0  0  0  0
  -25.6040  -30.7590   25.6120 C   0  0  0  0  0  1  0  0  0  0  0  0
  -27.1200  -29.8810   23.8300 C   0  0  0  0  0  1  0  0  0  0  0  0
  -27.7960  -31.8770   25.1380 C   0  0  0  0  0  1  0  0  0  0  0  0
  -25.6460  -33.4390   23.9560 N   0  0  0  0  0  0  0  0  0  0  0  0
  -25.9230  -34.5970   23.3430 C   0  0  0  0  0  0  0  0  0  0  0  0
  -26.5230  -34.6590   22.2660 O   0  0  0  0  0  0  0  0  0  0  0  0
  -25.1100  -33.4650   24.8100 H   0  0  0  0  0  0  0  0  0  0  0  0
  -24.1750  -36.4030   23.3690 C   0  0  0  0  0  1  0  0  0  0  0  0
  -25.4620  -35.8930   24.0350 C   0  0  0  0  0  3  0  0  0  0  0  0
  -27.6390  -36.6650   24.8710 C   0  0  0  0  0  1  0  0  0  0  0  0
  -26.4850  -36.9620   24.0250 N   0  0  0  0  0  0  0  0  0  0  0  0
  -26.0880  -37.8460   24.3320 H   0  0  0  0  0  0  0  0  0  0  0  0
  1  3  1  0
  2  3  2  0
  4  6  1  0
  4  5  1  0
  5  7  1  0
  6  8  1  0
  7  2  1  0
  8  7  1  0
  8 10  1  0
  8  9  1  6
 11 10  1  0
 12 11  1  0
 13 12  1  0
 14 19  1  0
 15 16  1  0
 15 14  1  0
 17 16  1  0
 17 24  1  0
 17 18  1  0
 19 13  1  0
 19 18  1  0
 20 13  2  0
 21 22  2  0
 22 41  1  0
 23 22  1  0
 23 26  1  0
 24 21  1  0
 24 25  1  0
 25 23  2  0
 26 27  1  0
 27 28  2  0
 29 32  1  0
 29 28  1  0
 30 29  2  0
 31 30  1  0
 31 26  2  0
 32 33  1  0
 33 34  1  0
 34 35  2  0
 36 35  1  0
 36 40  1  0
 37 36  2  0
 38 33  2  0
 38 37  1  0
 39 38  1  0
 41 42  1  0
 42 45  1  0
 42 44  1  0
 43 41  2  0
 46 47  1  0
 46 21  1  0
 48 46  1  0
 49 54  1  0
 49  1  1  0
 49 50  1  0
 50 53  1  0
 53 52  1  0
 53 51  1  0
 55 57  1  0
 55 54  1  0
 56 67  2  0
 57 62  1  0
 58 66  1  0
 58 68  1  0
 59 65  1  0
 59 61  1  0
 60 66  1  0
 61 60  1  0
 62 61  2  0
 63 64  1  0
 63 57  2  0
 64 59  2  0
 65 58  1  0
 66 56  1  0
 68 70  2  0
 69 68  1  0
 71 69  1  0
 72 81  2  0
 72 77  1  0
 73 69  1  0
 73 77  1  0
 74 73  1  0
 75 76  1  0
 75 74  1  0
 76 72  1  0
 77 78  2  0
 78 79  1  0
 80 79  2  0
 81 80  1  0
 82 56  1  0
 82 87  1  0
 82 83  1  0
 83 86  1  1
 83 84  1  0
 85 83  1  0
 87 90  1  0
 88 87  1  0
 88 92  1  0
 89 88  2  0
 92 91  1  0
 94 92  1  0
 94 95  1  0
 94 93  1  0
M  ISO  4  12 100  13 100  54 101  55 101
M  END
>  <TORSDO>  (22) 
F 25

>  <SCORE>  (22) 
-11.440

>  <name>  (22) 
21

>  <ligand_id>  (22) 
21

>  <original_smiles>  (22) 
[H]C(=C([H])C1([H])C([H])([H])C([H])([H])C([H])([H])[N+]1([H])C([H])([H])C([H])([H])C([H])([H])C(=O)N1C([H])([H])C([H])([H])C([H])([H])C([H])(n2nc(-c3c([H])c([H])c(Oc4c([H])c([H])c(F)c([H])c4F)c([H])c3[H])c(C(=O)N([H])[H])c2N([H])[H])C1([H])[H])C([H])([H])C([H])(C([H])([H])Oc1c([H])c([H])c2c(c1[H])C([H])([H])N(C(=O)C([H])(N([H])C(=O)C([H])(N([H])C([H])([H])[H])C([H])([H])[H])C(C([H])([H])[H])(C([H])([H])[H])C([H])([H])[H])C([H])(C(=O)N([H])C1([H])c3c([H])c([H])c([H])c([H])c3C([H])([H])C([H])([H])C1([H])[H])C2([H])[H])C([H])([H])C([H])(C([H])([H])[H])C([H])([H])[H]

>  <smiles>  (22) 
[H]C(=C([H])C1([H])C([H])([H])C([H])([H])C([H])([H])[N+]1([H])C([H])([H])C([H])([H])C([H])([H])C(=O)N1C([H])([H])C([H])([H])C([H])([H])C([H])(n2nc(-c3c([H])c([H])c(Oc4c([H])c([H])c(F)c([H])c4F)c([H])c3[H])c(C(=O)N([H])[H])c2N([H])[H])C1([H])[H])C([H])([H])C([H])(C([H])([H])Oc1c([H])c([H])c2c(c1[H])C([H])([H])N(C(=O)C([H])(N([H])C(=O)C([H])(N([H])C([H])([H])[H])C([H])([H])[H])C(C([H])([H])[H])(C([H])([H])[H])C([H])([H])[H])C([H])(C(=O)N([H])C1([H])c3c([H])c([H])c([H])c([H])c3C([H])([H])C([H])([H])C1([H])[H])C2([H])[H])C([H])([H])C([H])(C([H])([H])[H])C([H])([H])[H]

$$$$
22:0:0
     RDKit          3D

 94102  0  0  1  0  0  0  0  0999 V2000
  -28.6620  -20.5020   20.1650 C   0  0  0  0  0  3  0  0  0  0  0  0
  -31.7390  -18.8190   19.0670 C   0  0  0  0  0  2  0  0  0  0  0  0
  -30.6020  -17.9030   18.6100 C   0  0  0  0  0  2  0  0  0  0  0  0
  -31.1850  -19.7220   20.1800 C   0  0  0  0  0  2  0  0  0  0  0  0
  -29.7290  -17.6960   19.8550 C   0  0  0  0  0  3  0  0  0  0  0  0
  -29.7560  -19.2560   20.5180 C   0  0  0  0  0  3  0  0  0  0  0  0
  -29.9740  -16.2640   21.9610 C   0  0  0  0  0  2  0  0  0  0  0  0
  -30.1430  -16.3000   20.6270 C   0  0  0  0  0  0  0  0  0  0  0  0
  -30.7860  -15.0140   20.0260 C   0  0  0  0  0  0  0  0  0  0  0  0
  -30.5220  -12.7300   18.9630 C   0  0  0  0  0  2  0  0  0  0  0  0
  -29.5200  -12.7930   17.7850 C   0  0  0  0  0  2  0  0  0  0  0  0
  -28.0810  -12.5850   18.2880 C   0  0  0  0  0  2  0  0  0  0  0  0
  -27.7730  -13.4400   19.5430 C   0  0  0  0  0  3  0  0  0  0  0  0
  -28.8870  -13.3540   20.6020 C   0  0  0  0  0  2  0  0  0  0  0  0
  -30.1430  -13.7750   19.9640 N   0  0  0  0  0  0  0  0  0  0  0  0
  -31.9220  -15.0460   19.5370 O   0  0  0  0  0  0  0  0  0  0  0  0
  -25.4470  -14.0040   20.4430 C   0  0  0  0  0  0  0  0  0  0  0  0
  -24.4020  -13.2200   20.8500 C   0  0  0  0  0  0  0  0  0  0  0  0
  -24.8540  -11.8700   20.7440 C   0  0  0  0  0  0  0  0  0  0  0  0
  -26.4650  -13.1300   20.1070 N   0  0  0  0  0  0  0  0  0  0  0  0
  -26.1220  -11.8380   20.3520 N   0  0  0  0  0  0  0  0  0  0  0  0
  -24.1320  -10.6050   20.9360 C   0  0  0  0  0  0  0  0  0  0  0  0
  -24.5600   -9.6410   21.8730 C   0  0  0  0  0  3  0  0  0  0  0  0
  -23.8350   -8.4430   22.0510 C   0  0  0  0  0  3  0  0  0  0  0  0
  -22.6680   -8.2000   21.2880 C   0  0  0  0  0  0  0  0  0  0  0  0
  -22.2590   -9.1540   20.3390 C   0  0  0  0  0  3  0  0  0  0  0  0
  -22.9850  -10.3430   20.1600 C   0  0  0  0  0  3  0  0  0  0  0  0
  -21.9140   -7.0550   21.3740 O   0  0  0  0  0  0  0  0  0  0  0  0
  -21.7830   -6.3670   22.5540 C   0  0  0  0  0  0  0  0  0  0  0  0
  -21.2450   -6.9690   23.7120 C   0  0  0  0  0  3  0  0  0  0  0  0
  -21.0640   -6.2060   24.8830 C   0  0  0  0  0  3  0  0  0  0  0  0
  -21.4110   -4.8410   24.8960 C   0  0  0  0  0  0  0  0  0  0  0  0
  -21.9410   -4.2390   23.7410 C   0  0  0  0  0  3  0  0  0  0  0  0
  -22.1250   -5.0000   22.5740 C   0  0  0  0  0  0  0  0  0  0  0  0
  -22.6150   -4.4080   21.4580 F   0  0  0  0  0  0  0  0  0  0  0  0
  -21.2310   -4.1060   26.0160 F   0  0  0  0  0  0  0  0  0  0  0  0
  -23.0280  -13.6960   21.2250 C   0  0  0  0  0  0  0  0  0  0  0  0
  -22.3590  -12.9800   22.1230 N   0  0  0  0  0  0  0  0  0  0  0  0
  -22.5610  -14.7350   20.7620 O   0  0  0  0  0  0  0  0  0  0  0  0
  -22.7520  -12.1370   22.5140 H   0  0  0  0  0  0  0  0  0  0  0  0
  -21.4410  -13.2780   22.4210 H   0  0  0  0  0  0  0  0  0  0  0  0
  -25.6130  -15.3790   20.3070 N   0  0  0  0  0  0  0  0  0  0  0  0
  -24.8660  -16.0410   20.4900 H   0  0  0  0  0  0  0  0  0  0  0  0
  -26.4610  -15.8210   19.9760 H   0  0  0  0  0  0  0  0  0  0  0  0
  -28.7620  -21.9830   20.7570 N   0  0  0  0  0  4  0  0  0  0  0  0
  -28.0180  -21.9940   21.4390 H   0  0  0  0  0  0  0  0  0  0  0  0
  -29.6030  -22.0300   21.3100 H   0  0  0  0  0  0  0  0  0  0  0  0
  -28.6220  -23.3770   19.9970 C   0  0  0  0  0  2  0  0  0  0  0  0
  -28.0890  -24.7870   20.7400 C   0  0  0  0  0  2  0  0  0  0  0  0
  -28.3050  -26.2550   20.2810 O   0  0  0  0  0  0  0  0  0  0  0  0
  -24.5840  -31.8930   23.1930 C   0  0  0  0  0  0  0  0  0  0  0  0
  -27.2320  -27.2050   20.2400 C   0  0  0  0  0  0  0  0  0  0  0  0
  -23.4070  -30.4600   21.5670 C   0  0  0  0  0  3  0  0  0  0  0  0
  -24.8820  -28.8910   20.1680 C   0  0  0  0  0  0  0  0  0  0  0  0
  -25.9540  -30.7730   21.4000 C   0  0  0  0  0  2  0  0  0  0  0  0
  -26.0520  -29.3760   20.7680 C   0  0  0  0  0  0  0  0  0  0  0  0
  -27.2340  -28.5520   20.7770 C   0  0  0  0  0  3  0  0  0  0  0  0
  -26.0430  -26.8140   19.5930 C   0  0  0  0  0  3  0  0  0  0  0  0
  -24.8880  -27.6250   19.5590 C   0  0  0  0  0  3  0  0  0  0  0  0
  -23.6360  -29.7590   20.2020 C   0  0  0  0  0  2  0  0  0  0  0  0
  -24.6680  -31.0650   22.1070 N   0  0  0  0  0  0  0  0  0  0  0  0
  -23.4920  -32.1680   23.7140 O   0  0  0  0  0  0  0  0  0  0  0  0
  -22.7430  -29.4550   22.5440 C   0  0  0  0  0  0  0  0  0  0  0  0
  -21.4170  -29.2730   22.4200 N   0  0  0  0  0  0  0  0  0  0  0  0
  -23.4240  -28.8400   23.3680 O   0  0  0  0  0  0  0  0  0  0  0  0
  -20.9290  -29.8180   21.7250 H   0  0  0  0  0  0  0  0  0  0  0  0
  -18.0370  -28.0790   22.9560 C   0  0  0  0  0  0  0  0  0  0  0  0
  -20.6000  -28.3370   23.1970 C   0  0  0  0  0  3  0  0  0  0  0  0
  -20.6920  -26.9050   22.6190 C   0  0  0  0  0  2  0  0  0  0  0  0
  -19.5780  -26.5850   21.6160 C   0  0  0  0  0  2  0  0  0  0  0  0
  -18.2040  -26.7310   22.2760 C   0  0  0  0  0  2  0  0  0  0  0  0
  -19.1620  -28.8420   23.3720 C   0  0  0  0  0  0  0  0  0  0  0  0
  -18.9490  -30.1030   23.9690 C   0  0  0  0  0  3  0  0  0  0  0  0
  -17.6470  -30.6020   24.1540 C   0  0  0  0  0  3  0  0  0  0  0  0
  -16.5370  -29.8370   23.7550 C   0  0  0  0  0  3  0  0  0  0  0  0
  -16.7330  -28.5770   23.1600 C   0  0  0  0  0  3  0  0  0  0  0  0
  -25.8510  -32.5500   23.8180 C   0  0  0  0  0  3  0  0  0  0  0  0
  -25.5170  -33.9470   24.1360 N   0  0  0  0  0  0  0  0  0  0  0  0
  -25.8530  -35.0040   23.3840 C   0  0  0  0  0  0  0  0  0  0  0  0
  -26.5410  -34.9070   22.3650 O   0  0  0  0  0  0  0  0  0  0  0  0
  -24.9020  -34.0970   24.9230 H   0  0  0  0  0  0  0  0  0  0  0  0
  -24.1230  -36.7910   22.9950 C   0  0  0  0  0  1  0  0  0  0  0  0
  -25.3470  -36.3890   23.8350 C   0  0  0  0  0  3  0  0  0  0  0  0
  -27.4530  -37.2870   24.7240 C   0  0  0  0  0  1  0  0  0  0  0  0
  -26.3760  -37.4490   23.7490 N   0  0  0  0  0  0  0  0  0  0  0  0
  -25.9610  -38.3670   23.8850 H   0  0  0  0  0  0  0  0  0  0  0  0
  -26.3700  -31.8000   25.1070 C   0  0  1  0  0  0  0  0  0  0  0  0
  -25.2730  -31.5510   26.1690 C   0  0  0  0  0  1  0  0  0  0  0  0
  -26.9810  -30.4290   24.7380 C   0  0  0  0  0  1  0  0  0  0  0  0
  -27.5050  -32.6220   25.7650 C   0  0  0  0  0  1  0  0  0  0  0  0
  -28.9080  -20.9790   17.6100 C   0  0  0  0  0  1  0  0  0  0  0  0
  -28.0410  -20.3940   18.7400 C   0  0  0  0  0  3  0  0  0  0  0  0
  -25.8300  -20.3520   17.4020 C   0  0  0  0  0  1  0  0  0  0  0  0
  -26.5440  -20.7990   18.6860 C   0  0  0  0  0  2  0  0  0  0  0  0
  1 45  1  0
  2  4  1  0
  3  2  1  0
  3  5  1  0
  4  6  1  0
  5  6  1  0
  5  8  1  0
  6  1  1  0
  8  7  2  0
  9  8  1  0
 10 15  1  0
 11 12  1  0
 11 10  1  0
 13 12  1  0
 13 20  1  0
 13 14  1  0
 15  9  1  0
 15 14  1  0
 16  9  2  0
 17 18  2  0
 18 37  1  0
 19 18  1  0
 19 22  1  0
 20 21  1  0
 20 17  1  0
 21 19  2  0
 22 23  1  0
 23 24  2  0
 25 28  1  0
 25 24  1  0
 26 25  2  0
 27 26  1  0
 27 22  2  0
 28 29  1  0
 29 34  2  0
 29 30  1  0
 30 31  2  0
 31 32  1  0
 32 36  1  0
 33 32  2  0
 34 33  1  0
 35 34  1  0
 37 38  1  0
 38 41  1  0
 38 40  1  0
 39 37  2  0
 42 17  1  0
 42 43  1  0
 44 42  1  0
 45 47  1  0
 45 46  1  0
 48 49  1  0
 48 45  1  0
 50 49  1  0
 51 62  2  0
 52 50  1  0
 52 57  1  0
 53 61  1  0
 53 63  1  0
 54 60  1  0
 54 56  1  0
 55 61  1  0
 56 57  2  0
 56 55  1  0
 58 52  2  0
 59 58  1  0
 59 54  2  0
 60 53  1  0
 61 51  1  0
 63 65  2  0
 64 63  1  0
 66 64  1  0
 67 76  2  0
 67 72  1  0
 68 64  1  0
 68 72  1  0
 69 68  1  0
 70 71  1  0
 70 69  1  0
 71 67  1  0
 72 73  2  0
 73 74  1  0
 75 74  2  0
 76 75  1  0
 77 51  1  0
 77 78  1  0
 77 87  1  0
 78 81  1  0
 79 83  1  0
 79 78  1  0
 80 79  2  0
 83 82  1  0
 85 83  1  0
 85 86  1  0
 85 84  1  0
 87 90  1  1
 87 88  1  0
 89 87  1  0
 92 91  1  0
 92  1  1  0
 93 94  1  0
 94 92  1  0
M  ISO  4   8 100   9 100  49 101  50 101
M  END
>  <TORSDO>  (23) 
F 23

>  <SCORE>  (23) 
-13.008

>  <name>  (23) 
22

>  <ligand_id>  (23) 
22

>  <original_smiles>  (23) 
[H]C([H])=C(C(=O)N1C([H])([H])C([H])([H])C([H])([H])C([H])(n2nc(-c3c([H])c([H])c(Oc4c([H])c([H])c(F)c([H])c4F)c([H])c3[H])c(C(=O)N([H])[H])c2N([H])[H])C1([H])[H])C1([H])C([H])([H])C([H])([H])C([H])([H])C1([H])C([H])(C([H])(C([H])([H])[H])C([H])([H])C([H])([H])[H])[N+]([H])([H])C([H])([H])C([H])([H])Oc1c([H])c([H])c2c(c1[H])C([H])([H])N(C(=O)C([H])(N([H])C(=O)C([H])(N([H])C([H])([H])[H])C([H])([H])[H])C(C([H])([H])[H])(C([H])([H])[H])C([H])([H])[H])C([H])(C(=O)N([H])C1([H])c3c([H])c([H])c([H])c([H])c3C([H])([H])C([H])([H])C1([H])[H])C2([H])[H]

>  <smiles>  (23) 
[H]C([H])=C(C(=O)N1C([H])([H])C([H])([H])C([H])([H])C([H])(n2nc(-c3c([H])c([H])c(Oc4c([H])c([H])c(F)c([H])c4F)c([H])c3[H])c(C(=O)N([H])[H])c2N([H])[H])C1([H])[H])C1([H])C([H])([H])C([H])([H])C([H])([H])C1([H])C([H])(C([H])(C([H])([H])[H])C([H])([H])C([H])([H])[H])[N+]([H])([H])C([H])([H])C([H])([H])Oc1c([H])c([H])c2c(c1[H])C([H])([H])N(C(=O)C([H])(N([H])C(=O)C([H])(N([H])C([H])([H])[H])C([H])([H])[H])C(C([H])([H])[H])(C([H])([H])[H])C([H])([H])[H])C([H])(C(=O)N([H])C1([H])c3c([H])c([H])c([H])c([H])c3C([H])([H])C([H])([H])C1([H])[H])C2([H])[H]

$$$$
23:0:0
     RDKit          3D

 98107  0  0  1  0  0  0  0  0999 V2000
  -30.1760  -18.7580   18.1900 C   0  0  0  0  0  2  0  0  0  0  0  0
  -31.4810  -19.2690   18.7720 C   0  0  0  0  0  2  0  0  0  0  0  0
  -31.6090  -21.6650   21.2860 C   0  0  0  0  0  2  0  0  0  0  0  0
  -32.4820  -19.4630   21.0920 C   0  0  0  0  0  2  0  0  0  0  0  0
  -29.7250  -17.7530   19.2460 C   0  0  0  0  0  2  0  0  0  0  0  0
  -30.5200  -20.8720   20.5220 C   0  0  0  0  0  3  0  0  0  0  0  0
  -32.9180  -20.9170   21.0750 C   0  0  0  0  0  3  0  0  0  0  0  0
  -31.1620  -19.4200   20.2760 C   0  0  1  0  0  0  0  0  0  0  0  0
  -30.2900  -18.2060   20.5470 N   0  0  2  0  0  4  0  0  0  0  0  0
  -29.5000  -18.5740   21.0780 H   0  0  0  0  0  0  0  0  0  0  0  0
  -29.0990  -20.9960   21.1500 C   0  0  0  0  0  0  0  0  0  0  0  0
  -28.5200  -22.1800   21.4620 N   0  0  0  0  0  0  0  0  0  0  0  0
  -28.4250  -19.9780   21.3030 O   0  0  0  0  0  0  0  0  0  0  0  0
  -27.5660  -22.0680   21.7790 H   0  0  0  0  0  0  0  0  0  0  0  0
  -29.0390  -23.5430   21.6860 C   0  0  0  0  0  2  0  0  0  0  0  0
  -28.6430  -24.5950   20.6140 C   0  0  0  0  0  2  0  0  0  0  0  0
  -28.9530  -26.0490   21.0730 C   0  0  0  0  0  2  0  0  0  0  0  0
  -28.7440  -27.0420   20.0620 O   0  0  0  0  0  0  0  0  0  0  0  0
  -24.6330  -31.9310   23.2710 C   0  0  0  0  0  0  0  0  0  0  0  0
  -27.5480  -27.7210   20.1210 C   0  0  0  0  0  0  0  0  0  0  0  0
  -23.5320  -30.5410   21.5460 C   0  0  0  0  0  3  0  0  0  0  0  0
  -25.0900  -29.1130   20.1160 C   0  0  0  0  0  0  0  0  0  0  0  0
  -26.0420  -31.0180   21.4250 C   0  0  0  0  0  2  0  0  0  0  0  0
  -26.2080  -29.6700   20.7530 C   0  0  0  0  0  0  0  0  0  0  0  0
  -27.4420  -28.9780   20.7580 C   0  0  0  0  0  3  0  0  0  0  0  0
  -26.4190  -27.1760   19.4780 C   0  0  0  0  0  3  0  0  0  0  0  0
  -25.1900  -27.8630   19.4800 C   0  0  0  0  0  3  0  0  0  0  0  0
  -23.8080  -29.9150   20.1530 C   0  0  0  0  0  2  0  0  0  0  0  0
  -24.7520  -31.1760   22.1430 N   0  0  0  0  0  0  0  0  0  0  0  0
  -23.5250  -32.1370   23.7890 O   0  0  0  0  0  0  0  0  0  0  0  0
  -22.8970  -29.4600   22.4510 C   0  0  0  0  0  0  0  0  0  0  0  0
  -21.5810  -29.2420   22.2890 N   0  0  0  0  0  0  0  0  0  0  0  0
  -23.5860  -28.8190   23.2480 O   0  0  0  0  0  0  0  0  0  0  0  0
  -21.0850  -29.8130   21.6200 H   0  0  0  0  0  0  0  0  0  0  0  0
  -18.2330  -27.9470   22.6950 C   0  0  0  0  0  0  0  0  0  0  0  0
  -20.7830  -28.2460   23.0020 C   0  0  0  0  0  3  0  0  0  0  0  0
  -20.9230  -26.8500   22.3510 C   0  0  0  0  0  2  0  0  0  0  0  0
  -19.8350  -26.5580   21.3130 C   0  0  0  0  0  2  0  0  0  0  0  0
  -18.4450  -26.6390   21.9500 C   0  0  0  0  0  2  0  0  0  0  0  0
  -19.3310  -28.7080   23.1750 C   0  0  0  0  0  0  0  0  0  0  0  0
  -19.0810  -29.9350   23.8270 C   0  0  0  0  0  3  0  0  0  0  0  0
  -17.7640  -30.3990   24.0060 C   0  0  0  0  0  3  0  0  0  0  0  0
  -16.6800  -29.6330   23.5430 C   0  0  0  0  0  3  0  0  0  0  0  0
  -16.9150  -28.4090   22.8930 C   0  0  0  0  0  3  0  0  0  0  0  0
  -25.8720  -32.5910   23.9510 C   0  0  0  0  0  3  0  0  0  0  0  0
  -25.5280  -33.9890   24.2380 N   0  0  0  0  0  0  0  0  0  0  0  0
  -25.8800  -35.0310   23.4690 C   0  0  0  0  0  0  0  0  0  0  0  0
  -26.5980  -34.9150   22.4720 O   0  0  0  0  0  0  0  0  0  0  0  0
  -24.9000  -34.1540   25.0110 H   0  0  0  0  0  0  0  0  0  0  0  0
  -24.1440  -36.7860   22.9910 C   0  0  0  0  0  1  0  0  0  0  0  0
  -25.3490  -36.4180   23.8720 C   0  0  0  0  0  3  0  0  0  0  0  0
  -27.4210  -37.3580   24.7930 C   0  0  0  0  0  1  0  0  0  0  0  0
  -26.3710  -37.4860   23.7860 N   0  0  0  0  0  0  0  0  0  0  0  0
  -25.9430  -38.4030   23.8880 H   0  0  0  0  0  0  0  0  0  0  0  0
  -26.3310  -31.8460   25.2640 C   0  0  1  0  0  0  0  0  0  0  0  0
  -25.1840  -31.6010   26.2730 C   0  0  0  0  0  1  0  0  0  0  0  0
  -26.9610  -30.4770   24.9190 C   0  0  0  0  0  1  0  0  0  0  0  0
  -27.4300  -32.6690   25.9750 C   0  0  0  0  0  1  0  0  0  0  0  0
  -33.8590  -21.1940   22.0970 O   0  0  0  0  0  0  0  0  0  0  0  0
  -34.1520  -22.0980   22.0030 H   0  0  0  0  0  0  0  0  0  0  0  0
  -30.8950  -17.0930   21.3660 C   0  0  0  0  0  2  0  0  0  0  0  0
  -30.1520  -15.7080   21.3700 C   0  0  0  0  0  2  0  0  0  0  0  0
  -30.7200  -14.6210   20.4190 C   0  0  0  0  0  0  0  0  0  0  0  0
  -30.3900  -12.5200   19.1520 C   0  0  0  0  0  2  0  0  0  0  0  0
  -29.4180  -12.7720   17.9840 C   0  0  0  0  0  2  0  0  0  0  0  0
  -27.9540  -12.6160   18.4430 C   0  0  0  0  0  2  0  0  0  0  0  0
  -27.6500  -13.3920   19.7530 C   0  0  0  0  0  3  0  0  0  0  0  0
  -28.7350  -13.1260   20.8180 C   0  0  0  0  0  2  0  0  0  0  0  0
  -30.0420  -13.4560   20.2320 N   0  0  0  0  0  0  0  0  0  0  0  0
  -31.7660  -14.8640   19.8090 O   0  0  0  0  0  0  0  0  0  0  0  0
  -25.2600  -13.9560   20.5240 C   0  0  0  0  0  0  0  0  0  0  0  0
  -24.2110  -13.1670   20.9040 C   0  0  0  0  0  0  0  0  0  0  0  0
  -24.6850  -11.8200   20.8360 C   0  0  0  0  0  0  0  0  0  0  0  0
  -26.3100  -13.0930   20.2530 N   0  0  0  0  0  0  0  0  0  0  0  0
  -25.9680  -11.8010   20.4950 N   0  0  0  0  0  0  0  0  0  0  0  0
  -23.9760  -10.5470   21.0230 C   0  0  0  0  0  0  0  0  0  0  0  0
  -24.4260   -9.5830   21.9510 C   0  0  0  0  0  3  0  0  0  0  0  0
  -23.7200   -8.3740   22.1260 C   0  0  0  0  0  3  0  0  0  0  0  0
  -22.5490   -8.1200   21.3730 C   0  0  0  0  0  0  0  0  0  0  0  0
  -22.1180   -9.0740   20.4330 C   0  0  0  0  0  3  0  0  0  0  0  0
  -22.8250  -10.2750   20.2570 C   0  0  0  0  0  3  0  0  0  0  0  0
  -21.8130   -6.9630   21.4570 O   0  0  0  0  0  0  0  0  0  0  0  0
  -21.7530   -6.2300   22.6150 C   0  0  0  0  0  0  0  0  0  0  0  0
  -21.2580   -6.7760   23.8200 C   0  0  0  0  0  3  0  0  0  0  0  0
  -21.1500   -5.9680   24.9680 C   0  0  0  0  0  3  0  0  0  0  0  0
  -21.5280   -4.6130   24.9150 C   0  0  0  0  0  0  0  0  0  0  0  0
  -22.0160   -4.0650   23.7150 C   0  0  0  0  0  3  0  0  0  0  0  0
  -22.1270   -4.8710   22.5680 C   0  0  0  0  0  0  0  0  0  0  0  0
  -22.5770   -4.3330   21.4100 F   0  0  0  0  0  0  0  0  0  0  0  0
  -21.4170   -3.8320   26.0150 F   0  0  0  0  0  0  0  0  0  0  0  0
  -22.8160  -13.6210   21.2220 C   0  0  0  0  0  0  0  0  0  0  0  0
  -22.1190  -12.9030   22.0950 N   0  0  0  0  0  0  0  0  0  0  0  0
  -22.3530  -14.6510   20.7330 O   0  0  0  0  0  0  0  0  0  0  0  0
  -22.5060  -12.0700   22.5150 H   0  0  0  0  0  0  0  0  0  0  0  0
  -21.1830  -13.1880   22.3480 H   0  0  0  0  0  0  0  0  0  0  0  0
  -25.4070  -15.3320   20.3670 N   0  0  0  0  0  0  0  0  0  0  0  0
  -24.6350  -15.9750   20.5060 H   0  0  0  0  0  0  0  0  0  0  0  0
  -26.2410  -15.7840   20.0170 H   0  0  0  0  0  0  0  0  0  0  0  0
  1  2  1  0
  1  5  1  0
  5  9  1  0
  6 11  1  0
  6  3  1  0
  7  4  1  0
  7  3  1  0
  7 59  1  0
  8  2  1  6
  8  6  1  0
  8  9  1  0
  8  4  1  0
  9 10  1  1
  9 61  1  0
 11 13  2  0
 11 12  1  0
 12 15  1  0
 12 14  1  0
 16 17  1  0
 16 15  1  0
 18 20  1  0
 18 17  1  0
 19 30  2  0
 20 25  1  0
 21 29  1  0
 21 31  1  0
 22 28  1  0
 22 24  1  0
 23 29  1  0
 24 25  2  0
 24 23  1  0
 26 27  1  0
 26 20  2  0
 27 22  2  0
 28 21  1  0
 29 19  1  0
 31 33  2  0
 32 31  1  0
 34 32  1  0
 35 44  2  0
 35 40  1  0
 36 32  1  0
 36 40  1  0
 37 36  1  0
 38 39  1  0
 38 37  1  0
 39 35  1  0
 40 41  2  0
 41 42  1  0
 43 42  2  0
 44 43  1  0
 45 19  1  0
 45 46  1  0
 45 55  1  0
 46 49  1  0
 47 51  1  0
 47 46  1  0
 48 47  2  0
 51 50  1  0
 53 51  1  0
 53 54  1  0
 53 52  1  0
 55 58  1  1
 55 56  1  0
 57 55  1  0
 60 59  1  0
 61 62  1  0
 63 62  1  0
 64 69  1  0
 65 66  1  0
 65 64  1  0
 67 66  1  0
 67 74  1  0
 67 68  1  0
 69 63  1  0
 69 68  1  0
 70 63  2  0
 71 72  2  0
 72 91  1  0
 73 72  1  0
 73 76  1  0
 74 75  1  0
 74 71  1  0
 75 73  2  0
 76 77  1  0
 77 78  2  0
 79 82  1  0
 79 78  1  0
 80 79  2  0
 81 80  1  0
 81 76  2  0
 82 83  1  0
 83 84  1  0
 84 85  2  0
 86 85  1  0
 86 90  1  0
 87 86  2  0
 88 83  2  0
 88 87  1  0
 89 88  1  0
 91 92  1  0
 92 95  1  0
 92 94  1  0
 93 91  2  0
 96 97  1  0
 96 71  1  0
 98 96  1  0
M  ISO  4  17 101  18 101  62 100  63 100
M  END
>  <TORSDO>  (24) 
F 23

>  <SCORE>  (24) 
-13.358

>  <name>  (24) 
23

>  <ligand_id>  (24) 
23

>  <original_smiles>  (24) 
[H]OC1([H])C([H])([H])C([H])(C(=O)N([H])C([H])([H])C([H])([H])C([H])([H])Oc2c([H])c([H])c3c(c2[H])C([H])([H])N(C(=O)C([H])(N([H])C(=O)C([H])(N([H])C([H])([H])[H])C([H])([H])[H])C(C([H])([H])[H])(C([H])([H])[H])C([H])([H])[H])C([H])(C(=O)N([H])C2([H])c4c([H])c([H])c([H])c([H])c4C([H])([H])C([H])([H])C2([H])[H])C3([H])[H])C2(C([H])([H])C([H])([H])C([H])([H])[N+]2([H])C([H])([H])C([H])([H])C(=O)N2C([H])([H])C([H])([H])C([H])([H])C([H])(n3nc(-c4c([H])c([H])c(Oc5c([H])c([H])c(F)c([H])c5F)c([H])c4[H])c(C(=O)N([H])[H])c3N([H])[H])C2([H])[H])C1([H])[H]

>  <smiles>  (24) 
[H]OC1([H])C([H])([H])C([H])(C(=O)N([H])C([H])([H])C([H])([H])C([H])([H])Oc2c([H])c([H])c3c(c2[H])C([H])([H])N(C(=O)C([H])(N([H])C(=O)C([H])(N([H])C([H])([H])[H])C([H])([H])[H])C(C([H])([H])[H])(C([H])([H])[H])C([H])([H])[H])C([H])(C(=O)N([H])C2([H])c4c([H])c([H])c([H])c([H])c4C([H])([H])C([H])([H])C2([H])[H])C3([H])[H])C2(C([H])([H])C([H])([H])C([H])([H])[N+]2([H])C([H])([H])C([H])([H])C(=O)N2C([H])([H])C([H])([H])C([H])([H])C([H])(n3nc(-c4c([H])c([H])c(Oc5c([H])c([H])c(F)c([H])c5F)c([H])c4[H])c(C(=O)N([H])[H])c3N([H])[H])C2([H])[H])C1([H])[H]

$$$$
24:0:0
     RDKit          3D

 92100  0  0  1  0  0  0  0  0999 V2000
  -30.6250  -20.1680   17.7380 C   0  0  0  0  0  2  0  0  0  0  0  0
  -30.4950  -18.8590   18.4680 C   0  0  0  0  0  2  0  0  0  0  0  0
  -30.7290  -21.1570   18.9000 C   0  0  0  0  0  2  0  0  0  0  0  0
  -29.5720  -19.1360   19.6750 C   0  0  0  0  0  3  0  0  0  0  0  0
  -29.7810  -20.6800   19.9370 N   0  0  0  0  0  0  0  0  0  0  0  0
  -28.6720  -21.7710   19.9980 C   0  0  0  0  0  2  0  0  0  0  0  0
  -28.9960  -23.4060   20.2760 C   0  0  0  0  0  3  0  0  0  0  0  0
  -28.0840  -24.7140   19.7560 C   0  0  0  0  0  3  0  0  0  0  0  0
  -28.2820  -26.1980   20.1660 O   0  0  0  0  0  0  0  0  0  0  0  0
  -24.6460  -31.8480   23.1920 C   0  0  0  0  0  0  0  0  0  0  0  0
  -27.2220  -27.1680   20.1130 C   0  0  0  0  0  0  0  0  0  0  0  0
  -23.4510  -30.4660   21.5420 C   0  0  0  0  0  3  0  0  0  0  0  0
  -24.8960  -28.8970   20.1170 C   0  0  0  0  0  0  0  0  0  0  0  0
  -26.0080  -30.7280   21.3880 C   0  0  0  0  0  2  0  0  0  0  0  0
  -26.0780  -29.3420   20.7270 C   0  0  0  0  0  0  0  0  0  0  0  0
  -27.2390  -28.4870   20.7200 C   0  0  0  0  0  3  0  0  0  0  0  0
  -26.0160  -26.8250   19.4630 C   0  0  0  0  0  3  0  0  0  0  0  0
  -24.8740  -27.6480   19.4820 C   0  0  0  0  0  3  0  0  0  0  0  0
  -23.6730  -29.7960   20.1620 C   0  0  0  0  0  2  0  0  0  0  0  0
  -24.7220  -31.0330   22.0960 N   0  0  0  0  0  0  0  0  0  0  0  0
  -23.5580  -32.1320   23.7130 O   0  0  0  0  0  0  0  0  0  0  0  0
  -22.7600  -29.4540   22.4930 C   0  0  0  0  0  0  0  0  0  0  0  0
  -21.4280  -29.3030   22.3670 N   0  0  0  0  0  0  0  0  0  0  0  0
  -23.4240  -28.8080   23.3080 O   0  0  0  0  0  0  0  0  0  0  0  0
  -20.9510  -29.8730   21.6820 H   0  0  0  0  0  0  0  0  0  0  0  0
  -18.0290  -28.1390   22.8530 C   0  0  0  0  0  0  0  0  0  0  0  0
  -20.5910  -28.3690   23.1300 C   0  0  0  0  0  3  0  0  0  0  0  0
  -20.6780  -26.9400   22.5440 C   0  0  0  0  0  2  0  0  0  0  0  0
  -19.5740  -26.6370   21.5270 C   0  0  0  0  0  2  0  0  0  0  0  0
  -18.1910  -26.7940   22.1660 C   0  0  0  0  0  2  0  0  0  0  0  0
  -19.1550  -28.8860   23.2900 C   0  0  0  0  0  0  0  0  0  0  0  0
  -18.9460  -30.1460   23.8910 C   0  0  0  0  0  3  0  0  0  0  0  0
  -17.6460  -30.6590   24.0560 C   0  0  0  0  0  3  0  0  0  0  0  0
  -16.5340  -29.9100   23.6340 C   0  0  0  0  0  3  0  0  0  0  0  0
  -16.7270  -28.6510   23.0390 C   0  0  0  0  0  3  0  0  0  0  0  0
  -25.9210  -32.4750   23.8330 C   0  0  0  0  0  3  0  0  0  0  0  0
  -25.5930  -33.8550   24.2240 N   0  0  0  0  0  0  0  0  0  0  0  0
  -25.9070  -34.9440   23.5110 C   0  0  0  0  0  0  0  0  0  0  0  0
  -26.5660  -34.8920   22.4700 O   0  0  0  0  0  0  0  0  0  0  0  0
  -25.0080  -33.9660   25.0380 H   0  0  0  0  0  0  0  0  0  0  0  0
  -24.1470  -36.7250   23.2650 C   0  0  0  0  0  1  0  0  0  0  0  0
  -25.4110  -36.3080   24.0340 C   0  0  0  0  0  3  0  0  0  0  0  0
  -27.5590  -37.1780   24.8480 C   0  0  0  0  0  1  0  0  0  0  0  0
  -26.4280  -37.3800   23.9450 N   0  0  0  0  0  0  0  0  0  0  0  0
  -26.0150  -38.2870   24.1510 H   0  0  0  0  0  0  0  0  0  0  0  0
  -26.4510  -31.6610   25.0780 C   0  0  1  0  0  0  0  0  0  0  0  0
  -25.3700  -31.3730   26.1470 C   0  0  0  0  0  1  0  0  0  0  0  0
  -27.0430  -30.3060   24.6310 C   0  0  0  0  0  1  0  0  0  0  0  0
  -27.6080  -32.4370   25.7540 C   0  0  0  0  0  1  0  0  0  0  0  0
  -29.9380  -17.8780   20.7130 C   0  0  0  0  0  3  0  0  0  0  0  0
  -29.2940  -18.2170   22.0070 N   0  0  0  0  0  4  0  0  0  0  0  0
  -28.4990  -18.8050   21.8040 H   0  0  0  0  0  0  0  0  0  0  0  0
  -28.9540  -17.3790   22.4480 H   0  0  0  0  0  0  0  0  0  0  0  0
  -29.3380  -19.4550   24.1810 C   0  0  0  0  0  1  0  0  0  0  0  0
  -30.1460  -18.9490   22.9760 C   0  0  0  0  0  2  0  0  0  0  0  0
  -29.5770  -16.2840   20.3110 C   0  0  0  0  0  2  0  0  0  0  0  0
  -30.5080  -14.9190   20.3960 C   0  0  0  0  0  0  0  0  0  0  0  0
  -30.4700  -12.5600   19.4920 C   0  0  0  0  0  2  0  0  0  0  0  0
  -29.5400  -12.4980   18.2570 C   0  0  0  0  0  2  0  0  0  0  0  0
  -28.0630  -12.3110   18.6640 C   0  0  0  0  0  2  0  0  0  0  0  0
  -27.6430  -13.2290   19.8410 C   0  0  0  0  0  3  0  0  0  0  0  0
  -28.6920  -13.2120   20.9690 C   0  0  0  0  0  2  0  0  0  0  0  0
  -29.9740  -13.6340   20.3930 N   0  0  0  0  0  0  0  0  0  0  0  0
  -31.7210  -15.0230   20.1760 O   0  0  0  0  0  0  0  0  0  0  0  0
  -25.2570  -13.8140   20.5680 C   0  0  0  0  0  0  0  0  0  0  0  0
  -24.1800  -13.0430   20.9180 C   0  0  0  0  0  0  0  0  0  0  0  0
  -24.6370  -11.6900   20.8720 C   0  0  0  0  0  0  0  0  0  0  0  0
  -26.2960  -12.9320   20.3250 N   0  0  0  0  0  0  0  0  0  0  0  0
  -25.9310  -11.6480   20.5700 N   0  0  0  0  0  0  0  0  0  0  0  0
  -23.8990  -10.4300   21.0370 C   0  0  0  0  0  0  0  0  0  0  0  0
  -24.3580   -9.4210   21.9130 C   0  0  0  0  0  3  0  0  0  0  0  0
  -23.6310   -8.2220   22.0720 C   0  0  0  0  0  3  0  0  0  0  0  0
  -22.4280   -8.0240   21.3490 C   0  0  0  0  0  0  0  0  0  0  0  0
  -21.9870   -9.0170   20.4600 C   0  0  0  0  0  3  0  0  0  0  0  0
  -22.7200  -10.2080   20.3010 C   0  0  0  0  0  3  0  0  0  0  0  0
  -21.6640   -6.8830   21.4220 O   0  0  0  0  0  0  0  0  0  0  0  0
  -21.6840   -6.0710   22.5270 C   0  0  0  0  0  0  0  0  0  0  0  0
  -21.4030   -6.5650   23.8190 C   0  0  0  0  0  3  0  0  0  0  0  0
  -21.3660   -5.6810   24.9160 C   0  0  0  0  0  3  0  0  0  0  0  0
  -21.6060   -4.3080   24.7250 C   0  0  0  0  0  0  0  0  0  0  0  0
  -21.8840   -3.8150   23.4380 C   0  0  0  0  0  3  0  0  0  0  0  0
  -21.9200   -4.6940   22.3420 C   0  0  0  0  0  0  0  0  0  0  0  0
  -22.1670   -4.2110   21.1000 F   0  0  0  0  0  0  0  0  0  0  0  0
  -21.5620   -3.4600   25.7780 F   0  0  0  0  0  0  0  0  0  0  0  0
  -22.7850  -13.5300   21.1820 C   0  0  0  0  0  0  0  0  0  0  0  0
  -22.0560  -12.8220   22.0410 N   0  0  0  0  0  0  0  0  0  0  0  0
  -22.3530  -14.5580   20.6670 O   0  0  0  0  0  0  0  0  0  0  0  0
  -22.4210  -11.9920   22.4840 H   0  0  0  0  0  0  0  0  0  0  0  0
  -21.1130  -13.1080   22.2490 H   0  0  0  0  0  0  0  0  0  0  0  0
  -25.4300  -15.1830   20.4100 N   0  0  0  0  0  0  0  0  0  0  0  0
  -24.6570  -15.8390   20.4680 H   0  0  0  0  0  0  0  0  0  0  0  0
  -26.2740  -15.5980   20.0480 H   0  0  0  0  0  0  0  0  0  0  0  0
  1  2  1  0
  1  3  1  0
  2  4  1  0
  3  5  1  0
  4  5  1  0
  4 50  1  0
  5  6  1  0
  6  7  1  0
  8  9  1  0
  8  7  2  0
 10 21  2  0
 11  9  1  0
 11 16  1  0
 12 20  1  0
 12 22  1  0
 13 19  1  0
 13 15  1  0
 14 20  1  0
 15 14  1  0
 16 15  2  0
 17 18  1  0
 17 11  2  0
 18 13  2  0
 19 12  1  0
 20 10  1  0
 22 24  2  0
 23 22  1  0
 25 23  1  0
 26 35  2  0
 26 31  1  0
 27 23  1  0
 27 31  1  0
 28 27  1  0
 29 30  1  0
 29 28  1  0
 30 26  1  0
 31 32  2  0
 32 33  1  0
 34 33  2  0
 35 34  1  0
 36 10  1  0
 36 37  1  0
 36 46  1  0
 37 40  1  0
 38 42  1  0
 38 37  1  0
 39 38  2  0
 42 41  1  0
 44 42  1  0
 44 45  1  0
 44 43  1  0
 46 49  1  1
 46 47  1  0
 48 46  1  0
 50 56  1  0
 50 51  1  0
 51 53  1  0
 51 55  1  0
 52 51  1  0
 55 54  1  0
 56 57  1  0
 58 63  1  0
 59 60  1  0
 59 58  1  0
 61 60  1  0
 61 68  1  0
 61 62  1  0
 63 57  1  0
 63 62  1  0
 64 57  2  0
 65 66  2  0
 66 85  1  0
 67 66  1  0
 67 70  1  0
 68 65  1  0
 68 69  1  0
 69 67  2  0
 70 71  1  0
 71 72  2  0
 73 76  1  0
 73 72  1  0
 74 73  2  0
 75 74  1  0
 75 70  2  0
 76 77  1  0
 77 78  1  0
 78 79  2  0
 80 79  1  0
 80 84  1  0
 81 80  2  0
 82 77  2  0
 82 81  1  0
 83 82  1  0
 85 86  1  0
 86 89  1  0
 86 88  1  0
 87 85  2  0
 90 91  1  0
 90 65  1  0
 92 90  1  0
M  ISO  4   8 101   9 101  56 100  57 100
M  END
>  <TORSDO>  (25) 
F 23

>  <SCORE>  (25) 
-8.405

>  <name>  (25) 
24

>  <ligand_id>  (25) 
24

>  <original_smiles>  (25) 
[H]c1c([H])c([H])c2c(c1[H])C([H])([H])C([H])([H])C([H])([H])C2([H])N([H])C(=O)C1([H])N(C(=O)C([H])(N([H])C(=O)C([H])(N([H])C([H])([H])[H])C([H])([H])[H])C(C([H])([H])[H])(C([H])([H])[H])C([H])([H])[H])C([H])([H])c2c([H])c(OC([H])([H])C([H])([H])C([H])([H])N3C([H])([H])C([H])([H])C([H])([H])C3([H])C([H])(C([H])([H])C(=O)N3C([H])([H])C([H])([H])C([H])([H])C([H])(n4nc(-c5c([H])c([H])c(Oc6c([H])c([H])c(F)c([H])c6F)c([H])c5[H])c(C(=O)N([H])[H])c4N([H])[H])C3([H])[H])[N+]([H])([H])C([H])([H])C([H])([H])[H])c([H])c([H])c2C1([H])[H]

>  <smiles>  (25) 
[H]c1c([H])c([H])c2c(c1[H])C([H])([H])C([H])([H])C([H])([H])C2([H])N([H])C(=O)C1([H])N(C(=O)C([H])(N([H])C(=O)C([H])(N([H])C([H])([H])[H])C([H])([H])[H])C(C([H])([H])[H])(C([H])([H])[H])C([H])([H])[H])C([H])([H])c2c([H])c(OC([H])([H])C([H])([H])C([H])([H])N3C([H])([H])C([H])([H])C([H])([H])C3([H])C([H])(C([H])([H])C(=O)N3C([H])([H])C([H])([H])C([H])([H])C([H])(n4nc(-c5c([H])c([H])c(Oc6c([H])c([H])c(F)c([H])c6F)c([H])c5[H])c(C(=O)N([H])[H])c4N([H])[H])C3([H])[H])[N+]([H])([H])C([H])([H])C([H])([H])[H])c([H])c([H])c2C1([H])[H]

$$$$
25:0:0
     RDKit          3D

 92 99  0  0  1  0  0  0  0  0999 V2000
  -38.5600  -26.7440   12.2340 C   0  0  0  0  0  3  0  0  0  0  0  0
  -38.1060  -28.1020   12.7730 C   0  0  0  0  0  3  0  0  0  0  0  0
  -38.8290  -29.0090   13.4660 C   0  0  0  0  0  0  0  0  0  0  0  0
  -38.1990  -30.2980   13.9570 C   0  0  0  0  0  1  0  0  0  0  0  0
  -40.2950  -28.8690   13.8440 C   0  0  0  0  0  1  0  0  0  0  0  0
  -38.6190  -26.7630   10.7500 N   0  0  0  0  0  4  0  0  0  0  0  0
  -39.5650  -26.5490   10.4790 H   0  0  0  0  0  0  0  0  0  0  0  0
  -38.0260  -26.0400   10.3750 H   0  0  0  0  0  0  0  0  0  0  0  0
  -38.2460  -28.0610   10.1340 C   0  0  0  0  0  2  0  0  0  0  0  0
  -39.3550  -28.6410    9.2400 C   0  0  0  0  0  2  0  0  0  0  0  0
  -40.0730  -29.8360    9.9120 C   0  0  0  0  0  2  0  0  0  0  0  0
  -39.9690  -31.1550    9.1250 C   0  0  0  0  0  0  0  0  0  0  0  0
  -39.9490  -33.6240    9.2070 C   0  0  0  0  0  2  0  0  0  0  0  0
  -41.2920  -34.1220    9.7740 C   0  0  0  0  0  2  0  0  0  0  0  0
  -41.2540  -34.1640   11.3160 C   0  0  0  0  0  2  0  0  0  0  0  0
  -40.7240  -32.8430   11.9350 C   0  0  0  0  0  3  0  0  0  0  0  0
  -39.4170  -32.4000   11.2370 C   0  0  0  0  0  2  0  0  0  0  0  0
  -39.6820  -32.3030    9.7930 N   0  0  0  0  0  0  0  0  0  0  0  0
  -40.2330  -31.1410    7.9190 O   0  0  0  0  0  0  0  0  0  0  0  0
  -41.4560  -32.6910   14.4000 C   0  0  0  0  0  0  0  0  0  0  0  0
  -40.8230  -33.0380   15.5640 C   0  0  0  0  0  0  0  0  0  0  0  0
  -39.5360  -33.5260   15.1830 C   0  0  0  0  0  0  0  0  0  0  0  0
  -40.5540  -32.9630   13.3820 N   0  0  0  0  0  0  0  0  0  0  0  0
  -39.3740  -33.4220   13.8710 N   0  0  0  0  0  0  0  0  0  0  0  0
  -38.4700  -34.1400   15.9850 C   0  0  0  0  0  0  0  0  0  0  0  0
  -38.5760  -35.4640   16.4640 C   0  0  0  0  0  3  0  0  0  0  0  0
  -37.5290  -36.0380   17.2190 C   0  0  0  0  0  3  0  0  0  0  0  0
  -36.3620  -35.2890   17.4980 C   0  0  0  0  0  0  0  0  0  0  0  0
  -36.2710  -33.9640   17.0360 C   0  0  0  0  0  3  0  0  0  0  0  0
  -37.3150  -33.3920   16.2910 C   0  0  0  0  0  3  0  0  0  0  0  0
  -35.3060  -35.7560   18.2430 O   0  0  0  0  0  0  0  0  0  0  0  0
  -34.0280  -35.2970   18.0480 C   0  0  0  0  0  0  0  0  0  0  0  0
  -33.3620  -34.5140   19.0170 C   0  0  0  0  0  3  0  0  0  0  0  0
  -32.0250  -34.1220   18.8070 C   0  0  0  0  0  3  0  0  0  0  0  0
  -31.3510  -34.5170   17.6370 C   0  0  0  0  0  0  0  0  0  0  0  0
  -32.0100  -35.3010   16.6740 C   0  0  0  0  0  3  0  0  0  0  0  0
  -33.3440  -35.6910   16.8810 C   0  0  0  0  0  0  0  0  0  0  0  0
  -33.9690  -36.4640   15.9600 F   0  0  0  0  0  0  0  0  0  0  0  0
  -30.0630  -34.1470   17.4400 F   0  0  0  0  0  0  0  0  0  0  0  0
  -41.4110  -33.0110   16.9460 C   0  0  0  0  0  0  0  0  0  0  0  0
  -41.5320  -31.8280   17.5380 N   0  0  0  0  0  0  0  0  0  0  0  0
  -41.8140  -34.0380   17.4890 O   0  0  0  0  0  0  0  0  0  0  0  0
  -41.2180  -30.9830   17.0850 H   0  0  0  0  0  0  0  0  0  0  0  0
  -41.9460  -31.7650   18.4580 H   0  0  0  0  0  0  0  0  0  0  0  0
  -42.7220  -32.1880   14.1200 N   0  0  0  0  0  0  0  0  0  0  0  0
  -43.4200  -32.0430   14.8420 H   0  0  0  0  0  0  0  0  0  0  0  0
  -43.0780  -32.0280   13.1860 H   0  0  0  0  0  0  0  0  0  0  0  0
  -37.6650  -25.5980   12.7700 C   0  0  0  0  0  2  0  0  0  0  0  0
  -37.5700  -24.4260   11.7720 C   0  0  0  0  0  2  0  0  0  0  0  0
  -36.2630  -23.6070   11.7910 C   0  0  0  0  0  2  0  0  0  0  0  0
  -35.0730  -24.5430   11.5200 C   0  0  0  0  0  2  0  0  0  0  0  0
  -34.0560  -24.5070   12.5280 O   0  0  0  0  0  0  0  0  0  0  0  0
  -32.1050  -18.4300   15.6640 C   0  0  0  0  0  0  0  0  0  0  0  0
  -33.2820  -23.3700   12.4540 C   0  0  0  0  0  0  0  0  0  0  0  0
  -31.5060  -18.6560   13.2750 C   0  0  0  0  0  3  0  0  0  0  0  0
  -31.7760  -20.9890   12.2820 C   0  0  0  0  0  0  0  0  0  0  0  0
  -31.7250  -20.7230   14.7670 C   0  0  0  0  0  2  0  0  0  0  0  0
  -32.1460  -21.4950   13.5340 C   0  0  0  0  0  0  0  0  0  0  0  0
  -32.8950  -22.6900   13.6280 C   0  0  0  0  0  3  0  0  0  0  0  0
  -32.8820  -22.8600   11.1990 C   0  0  0  0  0  3  0  0  0  0  0  0
  -32.1420  -21.6680   11.1070 C   0  0  0  0  0  3  0  0  0  0  0  0
  -30.9740  -19.7090   12.2660 C   0  0  0  0  0  2  0  0  0  0  0  0
  -31.8180  -19.2510   14.6140 N   0  0  0  0  0  0  0  0  0  0  0  0
  -32.0720  -17.1980   15.5400 O   0  0  0  0  0  0  0  0  0  0  0  0
  -32.7060  -17.9230   12.6350 C   0  0  0  0  0  0  0  0  0  0  0  0
  -32.7040  -16.5830   12.7210 N   0  0  0  0  0  0  0  0  0  0  0  0
  -33.5960  -18.5520   12.0560 O   0  0  0  0  0  0  0  0  0  0  0  0
  -31.9430  -16.1420   13.2190 H   0  0  0  0  0  0  0  0  0  0  0  0
  -34.4010  -13.4360   13.2360 C   0  0  0  0  0  0  0  0  0  0  0  0
  -33.7120  -15.6840   12.1620 C   0  0  0  0  0  3  0  0  0  0  0  0
  -33.1260  -14.8370   11.0100 C   0  0  0  0  0  2  0  0  0  0  0  0
  -32.5860  -13.4810   11.4730 C   0  0  0  0  0  2  0  0  0  0  0  0
  -33.6950  -12.6580   12.1370 C   0  0  0  0  0  2  0  0  0  0  0  0
  -34.3950  -14.8560   13.2560 C   0  0  0  0  0  0  0  0  0  0  0  0
  -35.0360  -15.5280   14.3200 C   0  0  0  0  0  3  0  0  0  0  0  0
  -35.6770  -14.8070   15.3450 C   0  0  0  0  0  3  0  0  0  0  0  0
  -35.6920  -13.4020   15.3120 C   0  0  0  0  0  3  0  0  0  0  0  0
  -35.0600  -12.7200   14.2570 C   0  0  0  0  0  3  0  0  0  0  0  0
  -32.4630  -18.9990   17.0720 C   0  0  0  0  0  3  0  0  0  0  0  0
  -33.9990  -18.8910   17.4150 C   0  0  1  0  0  0  0  0  0  0  0  0
  -34.4110  -17.5190   18.0020 C   0  0  0  0  0  1  0  0  0  0  0  0
  -34.8590  -19.1400   16.1540 C   0  0  0  0  0  1  0  0  0  0  0  0
  -34.3880  -19.9850   18.4370 C   0  0  0  0  0  1  0  0  0  0  0  0
  -31.6570  -18.2700   18.0610 N   0  0  0  0  0  0  0  0  0  0  0  0
  -30.5240  -18.7330   18.6070 C   0  0  0  0  0  0  0  0  0  0  0  0
  -30.0830  -19.8630   18.3790 O   0  0  0  0  0  0  0  0  0  0  0  0
  -31.9260  -17.3160   18.2500 H   0  0  0  0  0  0  0  0  0  0  0  0
  -28.3650  -17.4950   18.9760 C   0  0  0  0  0  1  0  0  0  0  0  0
  -29.7580  -17.7900   19.5550 C   0  0  0  0  0  3  0  0  0  0  0  0
  -30.8930  -18.7530   21.5080 C   0  0  0  0  0  1  0  0  0  0  0  0
  -29.6240  -18.3190   20.9300 N   0  0  0  0  0  0  0  0  0  0  0  0
  -29.2200  -17.6190   21.5460 H   0  0  0  0  0  0  0  0  0  0  0  0
  1 48  1  0
  1  2  1  0
  2  3  2  0
  3  5  1  0
  3  4  1  0
  6  1  1  0
  7  6  1  0
  8  6  1  0
  9  6  1  0
 10 11  1  0
 10  9  1  0
 12 18  1  0
 12 11  1  0
 13 14  1  0
 13 18  1  0
 14 15  1  0
 15 16  1  0
 16 17  1  0
 16 23  1  0
 18 17  1  0
 19 12  2  0
 20 21  2  0
 21 40  1  0
 22 21  1  0
 22 25  1  0
 23 24  1  0
 23 20  1  0
 24 22  2  0
 25 30  2  0
 25 26  1  0
 26 27  2  0
 27 28  1  0
 28 31  1  0
 29 28  2  0
 30 29  1  0
 32 31  1  0
 32 33  1  0
 34 33  2  0
 35 34  1  0
 36 37  1  0
 36 35  2  0
 37 32  2  0
 38 37  1  0
 39 35  1  0
 40 42  2  0
 40 41  1  0
 41 44  1  0
 43 41  1  0
 45 20  1  0
 45 46  1  0
 47 45  1  0
 49 50  1  0
 49 48  1  0
 51 50  1  0
 51 52  1  0
 54 52  1  0
 54 59  1  0
 55 65  1  0
 55 63  1  0
 56 58  1  0
 58 59  2  0
 58 57  1  0
 60 54  2  0
 61 60  1  0
 61 56  2  0
 62 56  1  0
 62 55  1  0
 63 57  1  0
 63 53  1  0
 64 53  2  0
 65 66  1  0
 66 68  1  0
 67 65  2  0
 69 74  2  0
 69 78  1  0
 70 66  1  0
 70 74  1  0
 71 72  1  0
 71 70  1  0
 72 73  1  0
 73 69  1  0
 74 75  1  0
 75 76  2  0
 77 76  1  0
 78 77  2  0
 79 53  1  0
 79 80  1  0
 79 84  1  0
 80 81  1  1
 80 83  1  0
 82 80  1  0
 84 87  1  0
 84 85  1  0
 85 89  1  0
 86 85  2  0
 89 88  1  0
 89 91  1  0
 91 90  1  0
 91 92  1  0
M  ISO  4  11 100  12 100  51 101  52 101
M  END
>  <TORSDO>  (26) 
F 25

>  <SCORE>  (26) 
-3.166

>  <name>  (26) 
25

>  <ligand_id>  (26) 
25

>  <original_smiles>  (26) 
[H]C(=C(C([H])([H])[H])C([H])([H])[H])C([H])(C([H])([H])C([H])([H])C([H])([H])C([H])([H])Oc1c([H])c([H])c2c(c1[H])C([H])([H])N(C(=O)C([H])(N([H])C(=O)C([H])(N([H])C([H])([H])[H])C([H])([H])[H])C(C([H])([H])[H])(C([H])([H])[H])C([H])([H])[H])C([H])(C(=O)N([H])C1([H])c3c([H])c([H])c([H])c([H])c3C([H])([H])C([H])([H])C1([H])[H])C2([H])[H])[N+]([H])([H])C([H])([H])C([H])([H])C([H])([H])C(=O)N1C([H])([H])C([H])([H])C([H])([H])C([H])(n2nc(-c3c([H])c([H])c(Oc4c([H])c([H])c(F)c([H])c4F)c([H])c3[H])c(C(=O)N([H])[H])c2N([H])[H])C1([H])[H]

>  <smiles>  (26) 
[H]C(=C(C([H])([H])[H])C([H])([H])[H])C([H])(C([H])([H])C([H])([H])C([H])([H])C([H])([H])Oc1c([H])c([H])c2c(c1[H])C([H])([H])N(C(=O)C([H])(N([H])C(=O)C([H])(N([H])C([H])([H])[H])C([H])([H])[H])C(C([H])([H])[H])(C([H])([H])[H])C([H])([H])[H])C([H])(C(=O)N([H])C1([H])c3c([H])c([H])c([H])c([H])c3C([H])([H])C([H])([H])C1([H])[H])C2([H])[H])[N+]([H])([H])C([H])([H])C([H])([H])C([H])([H])C(=O)N1C([H])([H])C([H])([H])C([H])([H])C([H])(n2nc(-c3c([H])c([H])c(Oc4c([H])c([H])c(F)c([H])c4F)c([H])c3[H])c(C(=O)N([H])[H])c2N([H])[H])C1([H])[H]

$$$$
26:0:0
     RDKit          3D

 95103  0  0  1  0  0  0  0  0999 V2000
  -29.9260  -22.4360   21.9380 C   0  0  0  0  0  3  0  0  0  0  0  0
  -27.0760  -21.6140   19.5350 C   0  0  0  0  0  2  0  0  0  0  0  0
  -27.8710  -22.6280   20.3470 C   0  0  0  0  0  2  0  0  0  0  0  0
  -27.9970  -20.4030   19.4290 C   0  0  0  0  0  2  0  0  0  0  0  0
  -29.2280  -21.9560   20.6220 C   0  0  0  0  0  3  0  0  0  0  0  0
  -28.8920  -20.5260   20.5820 N   0  0  0  0  0  0  0  0  0  0  0  0
  -30.0460  -19.6250   20.4550 C   0  0  0  0  0  2  0  0  0  0  0  0
  -29.6860  -18.1990   20.9270 C   0  0  0  0  0  2  0  0  0  0  0  0
  -30.7610  -17.1370   20.6120 C   0  0  0  0  0  2  0  0  0  0  0  0
  -30.3830  -15.7400   21.1640 C   0  0  0  0  0  2  0  0  0  0  0  0
  -31.0620  -14.5540   20.4420 C   0  0  0  0  0  0  0  0  0  0  0  0
  -30.7920  -12.3430   19.3650 C   0  0  0  0  0  2  0  0  0  0  0  0
  -29.8550  -12.4860   18.1470 C   0  0  0  0  0  2  0  0  0  0  0  0
  -28.3750  -12.3810   18.5670 C   0  0  0  0  0  2  0  0  0  0  0  0
  -28.0350  -13.2850   19.7830 C   0  0  0  0  0  3  0  0  0  0  0  0
  -29.0760  -13.0830   20.9080 C   0  0  0  0  0  2  0  0  0  0  0  0
  -30.4050  -13.3660   20.3450 N   0  0  0  0  0  0  0  0  0  0  0  0
  -32.1580  -14.7430   19.9040 O   0  0  0  0  0  0  0  0  0  0  0  0
  -25.6530  -13.9720   20.4870 C   0  0  0  0  0  0  0  0  0  0  0  0
  -24.5600  -13.2320   20.8480 C   0  0  0  0  0  0  0  0  0  0  0  0
  -24.9750  -11.8660   20.8050 C   0  0  0  0  0  0  0  0  0  0  0  0
  -26.6710  -13.0580   20.2540 N   0  0  0  0  0  0  0  0  0  0  0  0
  -26.2630  -11.7860   20.4970 N   0  0  0  0  0  0  0  0  0  0  0  0
  -24.2080  -10.6270   20.9850 C   0  0  0  0  0  0  0  0  0  0  0  0
  -24.5970   -9.6480   21.9260 C   0  0  0  0  0  3  0  0  0  0  0  0
  -23.8340   -8.4720   22.0930 C   0  0  0  0  0  3  0  0  0  0  0  0
  -22.6690   -8.2670   21.3180 C   0  0  0  0  0  0  0  0  0  0  0  0
  -22.2980   -9.2340   20.3650 C   0  0  0  0  0  3  0  0  0  0  0  0
  -23.0620  -10.4020   20.1970 C   0  0  0  0  0  3  0  0  0  0  0  0
  -21.8800   -7.1450   21.3930 O   0  0  0  0  0  0  0  0  0  0  0  0
  -21.7680   -6.4210   22.5530 C   0  0  0  0  0  0  0  0  0  0  0  0
  -21.3230   -7.0080   23.7570 C   0  0  0  0  0  3  0  0  0  0  0  0
  -21.1550   -6.2130   24.9080 C   0  0  0  0  0  3  0  0  0  0  0  0
  -21.4240   -4.8310   24.8550 C   0  0  0  0  0  0  0  0  0  0  0  0
  -21.8630   -4.2450   23.6560 C   0  0  0  0  0  3  0  0  0  0  0  0
  -22.0310   -5.0370   22.5070 C   0  0  0  0  0  0  0  0  0  0  0  0
  -22.4350   -4.4630   21.3480 F   0  0  0  0  0  0  0  0  0  0  0  0
  -21.2550   -4.0650   25.9580 F   0  0  0  0  0  0  0  0  0  0  0  0
  -23.1780  -13.7530   21.1280 C   0  0  0  0  0  0  0  0  0  0  0  0
  -22.4390  -13.0830   22.0050 N   0  0  0  0  0  0  0  0  0  0  0  0
  -22.7640  -14.7840   20.6030 O   0  0  0  0  0  0  0  0  0  0  0  0
  -22.7880  -12.2460   22.4500 H   0  0  0  0  0  0  0  0  0  0  0  0
  -21.5120  -13.4110   22.2370 H   0  0  0  0  0  0  0  0  0  0  0  0
  -25.8650  -15.3370   20.3210 N   0  0  0  0  0  0  0  0  0  0  0  0
  -25.1230  -16.0210   20.4360 H   0  0  0  0  0  0  0  0  0  0  0  0
  -26.7350  -15.7470   20.0060 H   0  0  0  0  0  0  0  0  0  0  0  0
  -29.9800  -23.9200   22.0310 N   0  0  0  0  0  4  0  0  0  0  0  0
  -29.0410  -24.2750   22.1190 H   0  0  0  0  0  0  0  0  0  0  0  0
  -30.4700  -24.1310   22.8860 H   0  0  0  0  0  0  0  0  0  0  0  0
  -30.6710  -24.6180   20.9210 C   0  0  0  0  0  2  0  0  0  0  0  0
  -30.9890  -26.1010   21.2260 C   0  0  0  0  0  2  0  0  0  0  0  0
  -29.7780  -27.0260   21.4560 C   0  0  0  0  0  2  0  0  0  0  0  0
  -28.8200  -26.8150   20.4260 O   0  0  0  0  0  0  0  0  0  0  0  0
  -24.7310  -31.9480   23.3120 C   0  0  0  0  0  0  0  0  0  0  0  0
  -27.6580  -27.5560   20.4420 C   0  0  0  0  0  0  0  0  0  0  0  0
  -23.6360  -30.4710   21.6520 C   0  0  0  0  0  3  0  0  0  0  0  0
  -25.1990  -28.9500   20.3270 C   0  0  0  0  0  0  0  0  0  0  0  0
  -26.1490  -30.9150   21.5460 C   0  0  0  0  0  2  0  0  0  0  0  0
  -26.3080  -29.5330   20.9530 C   0  0  0  0  0  0  0  0  0  0  0  0
  -27.5350  -28.8420   21.0230 C   0  0  0  0  0  3  0  0  0  0  0  0
  -26.5340  -26.9850   19.8100 C   0  0  0  0  0  3  0  0  0  0  0  0
  -25.3050  -27.6690   19.7560 C   0  0  0  0  0  3  0  0  0  0  0  0
  -23.9240  -29.7620   20.3000 C   0  0  0  0  0  2  0  0  0  0  0  0
  -24.8540  -31.1280   22.2290 N   0  0  0  0  0  0  0  0  0  0  0  0
  -23.6210  -32.1970   23.8020 O   0  0  0  0  0  0  0  0  0  0  0  0
  -22.9800  -29.4520   22.6100 C   0  0  0  0  0  0  0  0  0  0  0  0
  -21.6600  -29.2530   22.4560 N   0  0  0  0  0  0  0  0  0  0  0  0
  -23.6550  -28.8410   23.4430 O   0  0  0  0  0  0  0  0  0  0  0  0
  -21.1780  -29.7990   21.7550 H   0  0  0  0  0  0  0  0  0  0  0  0
  -18.2810  -28.0690   22.9290 C   0  0  0  0  0  0  0  0  0  0  0  0
  -20.8380  -28.3140   23.2170 C   0  0  0  0  0  3  0  0  0  0  0  0
  -20.9380  -26.8860   22.6300 C   0  0  0  0  0  2  0  0  0  0  0  0
  -19.8400  -26.5750   21.6080 C   0  0  0  0  0  2  0  0  0  0  0  0
  -18.4550  -26.7230   22.2470 C   0  0  0  0  0  2  0  0  0  0  0  0
  -19.4010  -28.8230   23.3700 C   0  0  0  0  0  0  0  0  0  0  0  0
  -19.1850  -30.0860   23.9650 C   0  0  0  0  0  3  0  0  0  0  0  0
  -17.8810  -30.5920   24.1270 C   0  0  0  0  0  3  0  0  0  0  0  0
  -16.7760  -29.8330   23.7040 C   0  0  0  0  0  3  0  0  0  0  0  0
  -16.9770  -28.5740   23.1110 C   0  0  0  0  0  3  0  0  0  0  0  0
  -25.9740  -32.6290   23.9670 C   0  0  0  0  0  3  0  0  0  0  0  0
  -26.4640  -31.8980   25.2780 C   0  0  1  0  0  0  0  0  0  0  0  0
  -25.3350  -31.6360   26.3020 C   0  0  0  0  0  1  0  0  0  0  0  0
  -27.1120  -30.5360   24.9310 C   0  0  0  0  0  1  0  0  0  0  0  0
  -27.5560  -32.7430   25.9730 C   0  0  0  0  0  1  0  0  0  0  0  0
  -25.6130  -34.0240   24.2520 N   0  0  0  0  0  0  0  0  0  0  0  0
  -25.9480  -35.0660   23.4810 C   0  0  0  0  0  0  0  0  0  0  0  0
  -26.6620  -34.9590   22.4800 O   0  0  0  0  0  0  0  0  0  0  0  0
  -24.9820  -34.1790   25.0240 H   0  0  0  0  0  0  0  0  0  0  0  0
  -24.1840  -36.7960   23.0110 C   0  0  0  0  0  1  0  0  0  0  0  0
  -25.4020  -36.4490   23.8820 C   0  0  0  0  0  3  0  0  0  0  0  0
  -27.4750  -37.4180   24.7740 C   0  0  0  0  0  1  0  0  0  0  0  0
  -26.4080  -37.5300   23.7830 N   0  0  0  0  0  0  0  0  0  0  0  0
  -25.9690  -38.4400   23.8920 H   0  0  0  0  0  0  0  0  0  0  0  0
  -30.0870  -22.1400   24.5040 C   0  0  0  0  0  1  0  0  0  0  0  0
  -29.2830  -21.8550   23.2240 C   0  0  0  0  0  2  0  0  0  0  0  0
  1 47  1  0
  1 95  1  0
  2  3  1  0
  3  5  1  0
  4  2  1  0
  4  6  1  0
  5  1  1  0
  6  5  1  0
  7  6  1  0
  7  8  1  0
  9  8  1  0
  9 10  1  0
 11 10  1  0
 12 17  1  0
 13 14  1  0
 13 12  1  0
 15 14  1  0
 15 22  1  0
 15 16  1  0
 17 11  1  0
 17 16  1  0
 18 11  2  0
 19 20  2  0
 20 39  1  0
 21 20  1  0
 21 24  1  0
 22 19  1  0
 22 23  1  0
 23 21  2  0
 24 25  1  0
 25 26  2  0
 27 30  1  0
 27 26  1  0
 28 27  2  0
 29 28  1  0
 29 24  2  0
 30 31  1  0
 31 32  1  0
 32 33  2  0
 34 33  1  0
 34 38  1  0
 35 34  2  0
 36 31  2  0
 36 35  1  0
 37 36  1  0
 39 40  1  0
 40 43  1  0
 40 42  1  0
 41 39  2  0
 44 45  1  0
 44 19  1  0
 46 44  1  0
 47 48  1  0
 47 49  1  0
 50 51  1  0
 50 47  1  0
 51 52  1  0
 53 55  1  0
 53 52  1  0
 54 65  2  0
 55 60  1  0
 56 64  1  0
 56 66  1  0
 57 59  1  0
 58 64  1  0
 59 60  2  0
 59 58  1  0
 61 55  2  0
 62 61  1  0
 62 57  2  0
 63 57  1  0
 63 56  1  0
 64 54  1  0
 66 68  2  0
 67 66  1  0
 69 67  1  0
 70 79  2  0
 70 75  1  0
 71 67  1  0
 71 75  1  0
 72 71  1  0
 73 74  1  0
 73 72  1  0
 74 70  1  0
 75 76  2  0
 76 77  1  0
 78 77  2  0
 79 78  1  0
 80 54  1  0
 80 85  1  0
 80 81  1  0
 81 84  1  1
 81 82  1  0
 83 81  1  0
 85 88  1  0
 86 90  1  0
 86 85  1  0
 87 86  2  0
 90 89  1  0
 92 90  1  0
 92 93  1  0
 92 91  1  0
 95 94  1  0
M  ISO  4  10 100  11 100  52 101  53 101
M  END
>  <TORSDO>  (27) 
F 26

>  <SCORE>  (27) 
-12.006

>  <name>  (27) 
26

>  <ligand_id>  (27) 
26

>  <original_smiles>  (27) 
[H]c1c([H])c([H])c2c(c1[H])C([H])([H])C([H])([H])C([H])([H])C2([H])N([H])C(=O)C1([H])N(C(=O)C([H])(N([H])C(=O)C([H])(N([H])C([H])([H])[H])C([H])([H])[H])C(C([H])([H])[H])(C([H])([H])[H])C([H])([H])[H])C([H])([H])c2c([H])c(OC([H])([H])C([H])([H])C([H])([H])[N+]([H])([H])C([H])(C([H])([H])C([H])([H])[H])C3([H])N(C([H])([H])C([H])([H])C([H])([H])C([H])([H])C(=O)N4C([H])([H])C([H])([H])C([H])([H])C([H])(n5nc(-c6c([H])c([H])c(Oc7c([H])c([H])c(F)c([H])c7F)c([H])c6[H])c(C(=O)N([H])[H])c5N([H])[H])C4([H])[H])C([H])([H])C([H])([H])C3([H])[H])c([H])c([H])c2C1([H])[H]

>  <smiles>  (27) 
[H]c1c([H])c([H])c2c(c1[H])C([H])([H])C([H])([H])C([H])([H])C2([H])N([H])C(=O)C1([H])N(C(=O)C([H])(N([H])C(=O)C([H])(N([H])C([H])([H])[H])C([H])([H])[H])C(C([H])([H])[H])(C([H])([H])[H])C([H])([H])[H])C([H])([H])c2c([H])c(OC([H])([H])C([H])([H])C([H])([H])[N+]([H])([H])C([H])(C([H])([H])C([H])([H])[H])C3([H])N(C([H])([H])C([H])([H])C([H])([H])C([H])([H])C(=O)N4C([H])([H])C([H])([H])C([H])([H])C([H])(n5nc(-c6c([H])c([H])c(Oc7c([H])c([H])c(F)c([H])c7F)c([H])c6[H])c(C(=O)N([H])[H])c5N([H])[H])C4([H])[H])C([H])([H])C([H])([H])C3([H])[H])c([H])c([H])c2C1([H])[H]

$$$$
27:0:0
     RDKit          3D

 94102  0  0  1  0  0  0  0  0999 V2000
  -27.7700  -23.6820   20.4110 C   0  0  0  0  0  2  0  0  0  0  0  0
  -29.8960  -23.5690   19.1300 C   0  0  0  0  0  2  0  0  0  0  0  0
  -28.1390  -22.3120   21.0300 C   0  0  0  0  0  2  0  0  0  0  0  0
  -30.1960  -22.2190   19.8120 C   0  0  0  0  0  2  0  0  0  0  0  0
  -29.0230  -24.4840   20.0120 C   0  0  0  0  0  3  0  0  0  0  0  0
  -28.9450  -21.5070   20.1000 N   0  0  0  0  0  0  0  0  0  0  0  0
  -28.7180  -25.8350   19.3130 C   0  0  0  0  0  2  0  0  0  0  0  0
  -28.4330  -26.8870   20.2450 O   0  0  0  0  0  0  0  0  0  0  0  0
  -24.5180  -31.9690   23.3050 C   0  0  0  0  0  0  0  0  0  0  0  0
  -27.2280  -27.5620   20.2150 C   0  0  0  0  0  0  0  0  0  0  0  0
  -23.3340  -30.5650   21.6470 C   0  0  0  0  0  3  0  0  0  0  0  0
  -24.8110  -29.0420   20.2280 C   0  0  0  0  0  0  0  0  0  0  0  0
  -25.8580  -30.9440   21.4700 C   0  0  0  0  0  2  0  0  0  0  0  0
  -25.9580  -29.5740   20.8270 C   0  0  0  0  0  0  0  0  0  0  0  0
  -27.1640  -28.8370   20.8250 C   0  0  0  0  0  3  0  0  0  0  0  0
  -26.0520  -27.0320   19.6330 C   0  0  0  0  0  3  0  0  0  0  0  0
  -24.8520  -27.7690   19.6350 C   0  0  0  0  0  3  0  0  0  0  0  0
  -23.5600  -29.8910   20.2670 C   0  0  0  0  0  2  0  0  0  0  0  0
  -24.5880  -31.1740   22.2000 N   0  0  0  0  0  0  0  0  0  0  0  0
  -23.4310  -32.2310   23.8380 O   0  0  0  0  0  0  0  0  0  0  0  0
  -22.6840  -29.5340   22.5980 C   0  0  0  0  0  0  0  0  0  0  0  0
  -21.3620  -29.3450   22.4620 N   0  0  0  0  0  0  0  0  0  0  0  0
  -23.3670  -28.9100   23.4150 O   0  0  0  0  0  0  0  0  0  0  0  0
  -20.8710  -29.9020   21.7760 H   0  0  0  0  0  0  0  0  0  0  0  0
  -17.9930  -28.1300   22.9330 C   0  0  0  0  0  0  0  0  0  0  0  0
  -20.5480  -28.3990   23.2220 C   0  0  0  0  0  3  0  0  0  0  0  0
  -20.6610  -26.9710   22.6380 C   0  0  0  0  0  2  0  0  0  0  0  0
  -19.5670  -26.6500   21.6150 C   0  0  0  0  0  2  0  0  0  0  0  0
  -18.1810  -26.7860   22.2510 C   0  0  0  0  0  2  0  0  0  0  0  0
  -19.1060  -28.8940   23.3750 C   0  0  0  0  0  0  0  0  0  0  0  0
  -18.8780  -30.1540   23.9720 C   0  0  0  0  0  3  0  0  0  0  0  0
  -17.5700  -30.6500   24.1280 C   0  0  0  0  0  3  0  0  0  0  0  0
  -16.4730  -29.8830   23.7020 C   0  0  0  0  0  3  0  0  0  0  0  0
  -16.6840  -28.6240   23.1130 C   0  0  0  0  0  3  0  0  0  0  0  0
  -25.7960  -32.6070   23.9360 C   0  0  0  0  0  3  0  0  0  0  0  0
  -25.4770  -34.0030   24.2630 N   0  0  0  0  0  0  0  0  0  0  0  0
  -25.8220  -35.0580   23.5110 C   0  0  0  0  0  0  0  0  0  0  0  0
  -26.5130  -34.9570   22.4940 O   0  0  0  0  0  0  0  0  0  0  0  0
  -24.8650  -34.1560   25.0510 H   0  0  0  0  0  0  0  0  0  0  0  0
  -24.0940  -36.8420   23.1230 C   0  0  0  0  0  1  0  0  0  0  0  0
  -25.3200  -36.4430   23.9600 C   0  0  0  0  0  3  0  0  0  0  0  0
  -27.4360  -37.3300   24.8330 C   0  0  0  0  0  1  0  0  0  0  0  0
  -26.3500  -37.5010   23.8710 N   0  0  0  0  0  0  0  0  0  0  0  0
  -25.9380  -38.4180   24.0190 H   0  0  0  0  0  0  0  0  0  0  0  0
  -26.3080  -31.8370   25.2140 C   0  0  1  0  0  0  0  0  0  0  0  0
  -25.2060  -31.5790   26.2670 C   0  0  0  0  0  1  0  0  0  0  0  0
  -26.9130  -30.4690   24.8200 C   0  0  0  0  0  1  0  0  0  0  0  0
  -27.4420  -32.6410   25.8920 C   0  0  0  0  0  1  0  0  0  0  0  0
  -29.1930  -20.1650   20.6640 C   0  0  0  0  0  2  0  0  0  0  0  0
  -29.8420  -19.1420   19.6720 C   0  0  0  0  0  3  0  0  0  0  0  0
  -29.6740  -17.7300   20.1150 N   0  0  0  0  0  4  0  0  0  0  0  0
  -28.7510  -17.6340   20.5090 H   0  0  0  0  0  0  0  0  0  0  0  0
  -29.7180  -17.1710   19.2800 H   0  0  0  0  0  0  0  0  0  0  0  0
  -30.6790  -17.1860   21.0700 C   0  0  0  0  0  2  0  0  0  0  0  0
  -30.3660  -15.7280   21.5380 C   0  0  0  0  0  2  0  0  0  0  0  0
  -30.9830  -14.5910   20.6790 C   0  0  0  0  0  0  0  0  0  0  0  0
  -30.7170  -12.4730   19.4240 C   0  0  0  0  0  2  0  0  0  0  0  0
  -29.8110  -12.7040   18.1970 C   0  0  0  0  0  2  0  0  0  0  0  0
  -28.3220  -12.5680   18.5760 C   0  0  0  0  0  2  0  0  0  0  0  0
  -27.9540  -13.3760   19.8500 C   0  0  0  0  0  3  0  0  0  0  0  0
  -28.9700  -13.0940   20.9800 C   0  0  0  0  0  2  0  0  0  0  0  0
  -30.3100  -13.4240   20.4720 N   0  0  0  0  0  0  0  0  0  0  0  0
  -32.0820  -14.8010   20.1580 O   0  0  0  0  0  0  0  0  0  0  0  0
  -25.5250  -13.9980   20.4380 C   0  0  0  0  0  0  0  0  0  0  0  0
  -24.4440  -13.2330   20.7840 C   0  0  0  0  0  0  0  0  0  0  0  0
  -24.9070  -11.8820   20.8010 C   0  0  0  0  0  0  0  0  0  0  0  0
  -26.5800  -13.1130   20.2720 N   0  0  0  0  0  0  0  0  0  0  0  0
  -26.2080  -11.8370   20.5440 N   0  0  0  0  0  0  0  0  0  0  0  0
  -24.1740  -10.6240   20.9890 C   0  0  0  0  0  0  0  0  0  0  0  0
  -24.5670   -9.6800   21.9640 C   0  0  0  0  0  3  0  0  0  0  0  0
  -23.8360   -8.4850   22.1400 C   0  0  0  0  0  3  0  0  0  0  0  0
  -22.6980   -8.2250   21.3400 C   0  0  0  0  0  0  0  0  0  0  0  0
  -22.3240   -9.1580   20.3560 C   0  0  0  0  0  3  0  0  0  0  0  0
  -23.0560  -10.3440   20.1790 C   0  0  0  0  0  3  0  0  0  0  0  0
  -21.9440   -7.0810   21.4220 O   0  0  0  0  0  0  0  0  0  0  0  0
  -21.8380   -6.3700   22.5920 C   0  0  0  0  0  0  0  0  0  0  0  0
  -21.3590   -6.9620   23.7800 C   0  0  0  0  0  3  0  0  0  0  0  0
  -21.2000   -6.1790   24.9400 C   0  0  0  0  0  3  0  0  0  0  0  0
  -21.5090   -4.8060   24.9110 C   0  0  0  0  0  0  0  0  0  0  0  0
  -21.9810   -4.2140   23.7270 C   0  0  0  0  0  3  0  0  0  0  0  0
  -22.1430   -4.9950   22.5690 C   0  0  0  0  0  0  0  0  0  0  0  0
  -22.5780   -4.4160   21.4240 F   0  0  0  0  0  0  0  0  0  0  0  0
  -21.3480   -4.0510   26.0240 F   0  0  0  0  0  0  0  0  0  0  0  0
  -23.0350  -13.7130   20.9910 C   0  0  0  0  0  0  0  0  0  0  0  0
  -22.2770  -13.0440   21.8530 N   0  0  0  0  0  0  0  0  0  0  0  0
  -22.6140  -14.7190   20.4220 O   0  0  0  0  0  0  0  0  0  0  0  0
  -22.6240  -12.2290   22.3370 H   0  0  0  0  0  0  0  0  0  0  0  0
  -21.3310  -13.3520   22.0330 H   0  0  0  0  0  0  0  0  0  0  0  0
  -25.6980  -15.3630   20.2320 N   0  0  0  0  0  0  0  0  0  0  0  0
  -24.9220  -16.0150   20.2730 H   0  0  0  0  0  0  0  0  0  0  0  0
  -26.5400  -15.7740   19.8570 H   0  0  0  0  0  0  0  0  0  0  0  0
  -29.3080  -19.2820   18.2200 C   0  0  0  0  0  2  0  0  0  0  0  0
  -27.3260  -19.3960   16.6120 C   0  0  0  0  0  1  0  0  0  0  0  0
  -27.7770  -19.1670   18.0590 C   0  0  0  0  0  2  0  0  0  0  0  0
  1  3  1  0
  2  4  1  0
  2  5  1  0
  4  6  1  0
  5  7  1  0
  5  1  1  0
  6 49  1  0
  6  3  1  0
  7  8  1  0
  9 20  2  0
 10  8  1  0
 10 15  1  0
 11 19  1  0
 11 21  1  0
 12 18  1  0
 12 14  1  0
 13 19  1  0
 14 13  1  0
 15 14  2  0
 16 17  1  0
 16 10  2  0
 17 12  2  0
 18 11  1  0
 19  9  1  0
 21 23  2  0
 22 21  1  0
 24 22  1  0
 25 34  2  0
 25 30  1  0
 26 22  1  0
 26 30  1  0
 27 26  1  0
 28 29  1  0
 28 27  1  0
 29 25  1  0
 30 31  2  0
 31 32  1  0
 33 32  2  0
 34 33  1  0
 35  9  1  0
 35 36  1  0
 35 45  1  0
 36 39  1  0
 37 41  1  0
 37 36  1  0
 38 37  2  0
 41 40  1  0
 43 41  1  0
 43 44  1  0
 43 42  1  0
 45 48  1  1
 45 46  1  0
 47 45  1  0
 50 92  1  0
 50 51  1  0
 50 49  1  0
 51 52  1  0
 51 54  1  0
 53 51  1  0
 54 55  1  0
 56 55  1  0
 57 62  1  0
 58 59  1  0
 58 57  1  0
 60 59  1  0
 60 67  1  0
 60 61  1  0
 62 56  1  0
 62 61  1  0
 63 56  2  0
 64 65  2  0
 65 66  1  0
 65 84  1  0
 66 69  1  0
 67 64  1  0
 67 68  1  0
 68 66  2  0
 69 70  1  0
 70 71  2  0
 72 75  1  0
 72 71  1  0
 73 72  2  0
 74 73  1  0
 74 69  2  0
 75 76  1  0
 76 77  1  0
 77 78  2  0
 79 78  1  0
 79 83  1  0
 80 79  2  0
 81 76  2  0
 81 80  1  0
 82 81  1  0
 84 85  1  0
 85 88  1  0
 85 87  1  0
 86 84  2  0
 89 90  1  0
 89 64  1  0
 91 89  1  0
 93 94  1  0
 94 92  1  0
M  ISO  4   7 101   8 101  55 100  56 100
M  END
>  <TORSDO>  (28) 
F 24

>  <SCORE>  (28) 
-12.478

>  <name>  (28) 
27

>  <ligand_id>  (28) 
27

>  <original_smiles>  (28) 
[H]c1c([H])c([H])c2c(c1[H])C([H])([H])C([H])([H])C([H])([H])C2([H])N([H])C(=O)C1([H])N(C(=O)C([H])(N([H])C(=O)C([H])(N([H])C([H])([H])[H])C([H])([H])[H])C(C([H])([H])[H])(C([H])([H])[H])C([H])([H])[H])C([H])([H])c2c([H])c(OC([H])([H])C3([H])C([H])([H])C([H])([H])N(C([H])([H])C([H])(C([H])([H])C([H])([H])C([H])([H])[H])[N+]([H])([H])C([H])([H])C([H])([H])C(=O)N4C([H])([H])C([H])([H])C([H])([H])C([H])(n5nc(-c6c([H])c([H])c(Oc7c([H])c([H])c(F)c([H])c7F)c([H])c6[H])c(C(=O)N([H])[H])c5N([H])[H])C4([H])[H])C([H])([H])C3([H])[H])c([H])c([H])c2C1([H])[H]

>  <smiles>  (28) 
[H]c1c([H])c([H])c2c(c1[H])C([H])([H])C([H])([H])C([H])([H])C2([H])N([H])C(=O)C1([H])N(C(=O)C([H])(N([H])C(=O)C([H])(N([H])C([H])([H])[H])C([H])([H])[H])C(C([H])([H])[H])(C([H])([H])[H])C([H])([H])[H])C([H])([H])c2c([H])c(OC([H])([H])C3([H])C([H])([H])C([H])([H])N(C([H])([H])C([H])(C([H])([H])C([H])([H])C([H])([H])[H])[N+]([H])([H])C([H])([H])C([H])([H])C(=O)N4C([H])([H])C([H])([H])C([H])([H])C([H])(n5nc(-c6c([H])c([H])c(Oc7c([H])c([H])c(F)c([H])c7F)c([H])c6[H])c(C(=O)N([H])[H])c5N([H])[H])C4([H])[H])C([H])([H])C3([H])[H])c([H])c([H])c2C1([H])[H]

$$$$
28:0:0
     RDKit          3D

 89 96  0  0  1  0  0  0  0  0999 V2000
  -29.9310  -21.5690   20.4050 C   0  0  0  0  0  3  0  0  0  0  0  0
  -28.7180  -19.9160   21.8910 C   0  0  0  0  0  1  0  0  0  0  0  0
  -29.8860  -20.1760   21.0140 N   0  0  1  0  0  4  0  0  0  0  0  0
  -30.6930  -20.1230   21.6190 H   0  0  0  0  0  0  0  0  0  0  0  0
  -30.0680  -19.0560   20.0180 C   0  0  0  0  0  2  0  0  0  0  0  0
  -32.3530  -18.1030   19.6340 C   0  0  0  0  0  2  0  0  0  0  0  0
  -31.2020  -18.0560   20.3310 C   0  0  0  0  0  0  0  0  0  0  0  0
  -31.0190  -17.0070   21.4410 C   0  0  0  0  0  2  0  0  0  0  0  0
  -30.1550  -15.7330   21.1400 C   0  0  0  0  0  2  0  0  0  0  0  0
  -30.7790  -14.5920   20.2860 C   0  0  0  0  0  0  0  0  0  0  0  0
  -30.4430  -12.4630   19.0530 C   0  0  0  0  0  2  0  0  0  0  0  0
  -29.4660  -12.6850   17.8810 C   0  0  0  0  0  2  0  0  0  0  0  0
  -28.0010  -12.5600   18.3400 C   0  0  0  0  0  2  0  0  0  0  0  0
  -27.7040  -13.3650   19.6330 C   0  0  0  0  0  3  0  0  0  0  0  0
  -28.7850  -13.1050   20.7030 C   0  0  0  0  0  2  0  0  0  0  0  0
  -30.0980  -13.4230   20.1170 N   0  0  0  0  0  0  0  0  0  0  0  0
  -31.8600  -14.7950   19.7270 O   0  0  0  0  0  0  0  0  0  0  0  0
  -25.3110  -13.9710   20.3700 C   0  0  0  0  0  0  0  0  0  0  0  0
  -24.2530  -13.2010   20.7640 C   0  0  0  0  0  0  0  0  0  0  0  0
  -24.7160  -11.8500   20.7410 C   0  0  0  0  0  0  0  0  0  0  0  0
  -26.3590  -13.0920   20.1360 N   0  0  0  0  0  0  0  0  0  0  0  0
  -26.0020  -11.8110   20.4140 N   0  0  0  0  0  0  0  0  0  0  0  0
  -23.9960  -10.5880   20.9530 C   0  0  0  0  0  0  0  0  0  0  0  0
  -24.4380   -9.6310   21.8940 C   0  0  0  0  0  3  0  0  0  0  0  0
  -23.7140   -8.4360   22.0920 C   0  0  0  0  0  3  0  0  0  0  0  0
  -22.5350   -8.1870   21.3500 C   0  0  0  0  0  0  0  0  0  0  0  0
  -22.1150   -9.1320   20.3970 C   0  0  0  0  0  3  0  0  0  0  0  0
  -22.8390  -10.3170   20.1970 C   0  0  0  0  0  3  0  0  0  0  0  0
  -21.7820   -7.0430   21.4580 O   0  0  0  0  0  0  0  0  0  0  0  0
  -21.7380   -6.3180   22.6220 C   0  0  0  0  0  0  0  0  0  0  0  0
  -21.3110   -6.8890   23.8410 C   0  0  0  0  0  3  0  0  0  0  0  0
  -21.2110   -6.0910   24.9980 C   0  0  0  0  0  3  0  0  0  0  0  0
  -21.5360   -4.7220   24.9390 C   0  0  0  0  0  0  0  0  0  0  0  0
  -21.9600   -4.1510   23.7260 C   0  0  0  0  0  3  0  0  0  0  0  0
  -22.0560   -4.9460   22.5710 C   0  0  0  0  0  0  0  0  0  0  0  0
  -22.4440   -4.3840   21.4000 F   0  0  0  0  0  0  0  0  0  0  0  0
  -21.4340   -3.9530   26.0490 F   0  0  0  0  0  0  0  0  0  0  0  0
  -22.8560  -13.6750   21.0550 C   0  0  0  0  0  0  0  0  0  0  0  0
  -22.1440  -12.9840   21.9390 N   0  0  0  0  0  0  0  0  0  0  0  0
  -22.4070  -14.6940   20.5310 O   0  0  0  0  0  0  0  0  0  0  0  0
  -22.5190  -12.1610   22.3860 H   0  0  0  0  0  0  0  0  0  0  0  0
  -21.2070  -13.2840   22.1720 H   0  0  0  0  0  0  0  0  0  0  0  0
  -25.4710  -15.3420   20.1720 N   0  0  0  0  0  0  0  0  0  0  0  0
  -24.7080  -16.0020   20.2850 H   0  0  0  0  0  0  0  0  0  0  0  0
  -26.3170  -15.7730   19.8220 H   0  0  0  0  0  0  0  0  0  0  0  0
  -29.1500  -22.7540   21.1070 C   0  0  0  0  0  3  0  0  0  0  0  0
  -29.3750  -24.2050   20.5100 C   0  0  0  0  0  3  0  0  0  0  0  0
  -28.3020  -25.3060   20.8680 C   0  0  0  0  0  3  0  0  0  0  0  0
  -28.4650  -26.6310   20.2600 O   0  0  0  0  0  0  0  0  0  0  0  0
  -24.5880  -31.9090   23.1890 C   0  0  0  0  0  0  0  0  0  0  0  0
  -27.3220  -27.4260   20.2020 C   0  0  0  0  0  0  0  0  0  0  0  0
  -23.4280  -30.5020   21.5190 C   0  0  0  0  0  3  0  0  0  0  0  0
  -24.9250  -28.9650   20.1280 C   0  0  0  0  0  0  0  0  0  0  0  0
  -25.9610  -30.8640   21.3810 C   0  0  0  0  0  2  0  0  0  0  0  0
  -26.0720  -29.4880   20.7420 C   0  0  0  0  0  0  0  0  0  0  0  0
  -27.2740  -28.7300   20.7670 C   0  0  0  0  0  3  0  0  0  0  0  0
  -26.1600  -26.9390   19.5610 C   0  0  0  0  0  3  0  0  0  0  0  0
  -24.9690  -27.6950   19.5280 C   0  0  0  0  0  3  0  0  0  0  0  0
  -23.6770  -29.8220   20.1450 C   0  0  0  0  0  2  0  0  0  0  0  0
  -24.6760  -31.1080   22.0880 N   0  0  0  0  0  0  0  0  0  0  0  0
  -23.4930  -32.1740   23.7040 O   0  0  0  0  0  0  0  0  0  0  0  0
  -22.7580  -29.4790   22.4660 C   0  0  0  0  0  0  0  0  0  0  0  0
  -21.4350  -29.2960   22.3130 N   0  0  0  0  0  0  0  0  0  0  0  0
  -23.4250  -28.8520   23.2910 O   0  0  0  0  0  0  0  0  0  0  0  0
  -20.9560  -29.8580   21.6240 H   0  0  0  0  0  0  0  0  0  0  0  0
  -18.0540  -28.0820   22.7390 C   0  0  0  0  0  0  0  0  0  0  0  0
  -20.6040  -28.3500   23.0600 C   0  0  0  0  0  3  0  0  0  0  0  0
  -20.7230  -26.9230   22.4780 C   0  0  0  0  0  2  0  0  0  0  0  0
  -19.6430  -26.6010   21.4400 C   0  0  0  0  0  2  0  0  0  0  0  0
  -18.2490  -26.7380   22.0570 C   0  0  0  0  0  2  0  0  0  0  0  0
  -19.1610  -28.8470   23.1930 C   0  0  0  0  0  0  0  0  0  0  0  0
  -18.9250  -30.1070   23.7860 C   0  0  0  0  0  3  0  0  0  0  0  0
  -17.6140  -30.6010   23.9260 C   0  0  0  0  0  3  0  0  0  0  0  0
  -16.5230  -29.8350   23.4880 C   0  0  0  0  0  3  0  0  0  0  0  0
  -16.7420  -28.5750   22.9010 C   0  0  0  0  0  3  0  0  0  0  0  0
  -25.8530  -32.5470   23.8400 C   0  0  0  0  0  3  0  0  0  0  0  0
  -25.5300  -33.9450   24.1580 N   0  0  0  0  0  0  0  0  0  0  0  0
  -25.8840  -34.9970   23.4090 C   0  0  0  0  0  0  0  0  0  0  0  0
  -26.5850  -34.8950   22.3980 O   0  0  0  0  0  0  0  0  0  0  0  0
  -24.8990  -34.1010   24.9310 H   0  0  0  0  0  0  0  0  0  0  0  0
  -24.1610  -36.7910   23.0040 C   0  0  0  0  0  1  0  0  0  0  0  0
  -25.3790  -36.3860   23.8520 C   0  0  0  0  0  3  0  0  0  0  0  0
  -27.4880  -37.2710   24.7480 C   0  0  0  0  0  1  0  0  0  0  0  0
  -26.4110  -37.4440   23.7760 N   0  0  0  0  0  0  0  0  0  0  0  0
  -25.9980  -38.3630   23.9150 H   0  0  0  0  0  0  0  0  0  0  0  0
  -26.3460  -31.7810   25.1300 C   0  0  1  0  0  0  0  0  0  0  0  0
  -25.2290  -31.5370   26.1710 C   0  0  0  0  0  1  0  0  0  0  0  0
  -26.9390  -30.4020   24.7550 C   0  0  0  0  0  1  0  0  0  0  0  0
  -27.4790  -32.5810   25.8160 C   0  0  0  0  0  1  0  0  0  0  0  0
  1  3  1  0
  1 46  2  0
  3  4  1  1
  3  2  1  0
  5  7  1  0
  5  3  1  0
  6  7  2  0
  7  8  1  0
  9  8  1  0
 10  9  1  0
 11 16  1  0
 12 13  1  0
 12 11  1  0
 14 13  1  0
 14 21  1  0
 14 15  1  0
 16 10  1  0
 16 15  1  0
 17 10  2  0
 18 19  2  0
 19 38  1  0
 20 19  1  0
 20 23  1  0
 21 18  1  0
 21 22  1  0
 22 20  2  0
 23 24  1  0
 24 25  2  0
 26 29  1  0
 26 25  1  0
 27 26  2  0
 28 27  1  0
 28 23  2  0
 29 30  1  0
 30 31  1  0
 31 32  2  0
 33 32  1  0
 33 37  1  0
 34 33  2  0
 35 30  2  0
 35 34  1  0
 36 35  1  0
 38 39  1  0
 39 42  1  0
 39 41  1  0
 40 38  2  0
 43 44  1  0
 43 18  1  0
 45 43  1  0
 47 48  2  0
 47 46  1  0
 49 48  1  0
 50 61  2  0
 51 49  1  0
 51 56  1  0
 52 60  1  0
 52 62  1  0
 53 59  1  0
 53 55  1  0
 54 60  1  0
 55 56  2  0
 55 54  1  0
 57 51  2  0
 58 57  1  0
 58 53  2  0
 59 52  1  0
 60 50  1  0
 62 64  2  0
 63 62  1  0
 65 63  1  0
 66 75  2  0
 66 71  1  0
 67 63  1  0
 67 71  1  0
 68 67  1  0
 69 70  1  0
 69 68  1  0
 70 66  1  0
 71 72  2  0
 72 73  1  0
 74 73  2  0
 75 74  1  0
 76 50  1  0
 76 77  1  0
 76 86  1  0
 77 80  1  0
 78 82  1  0
 78 77  1  0
 79 78  2  0
 82 81  1  0
 84 82  1  0
 84 85  1  0
 84 83  1  0
 86 89  1  1
 86 87  1  0
 88 86  1  0
M  ISO  4   9 100  10 100  48 101  49 101
M  END
>  <TORSDO>  (29) 
F 24

>  <SCORE>  (29) 
-11.300

>  <name>  (29) 
28

>  <ligand_id>  (29) 
28

>  <original_smiles>  (29) 
[H]C([H])=C(C([H])([H])C([H])([H])C(=O)N1C([H])([H])C([H])([H])C([H])([H])C([H])(n2nc(-c3c([H])c([H])c(Oc4c([H])c([H])c(F)c([H])c4F)c([H])c3[H])c(C(=O)N([H])[H])c2N([H])[H])C1([H])[H])C([H])([H])[N+]([H])(C([H])([H])[H])C([H])([H])C([H])([H])C([H])([H])C([H])([H])Oc1c([H])c([H])c2c(c1[H])C([H])([H])N(C(=O)C([H])(N([H])C(=O)C([H])(N([H])C([H])([H])[H])C([H])([H])[H])C(C([H])([H])[H])(C([H])([H])[H])C([H])([H])[H])C([H])(C(=O)N([H])C1([H])c3c([H])c([H])c([H])c([H])c3C([H])([H])C([H])([H])C1([H])[H])C2([H])[H]

>  <smiles>  (29) 
[H]C([H])=C(C([H])([H])C([H])([H])C(=O)N1C([H])([H])C([H])([H])C([H])([H])C([H])(n2nc(-c3c([H])c([H])c(Oc4c([H])c([H])c(F)c([H])c4F)c([H])c3[H])c(C(=O)N([H])[H])c2N([H])[H])C1([H])[H])C([H])([H])[N+]([H])(C([H])([H])[H])C([H])([H])C([H])([H])C([H])([H])C([H])([H])Oc1c([H])c([H])c2c(c1[H])C([H])([H])N(C(=O)C([H])(N([H])C(=O)C([H])(N([H])C([H])([H])[H])C([H])([H])[H])C(C([H])([H])[H])(C([H])([H])[H])C([H])([H])[H])C([H])(C(=O)N([H])C1([H])c3c([H])c([H])c([H])c([H])c3C([H])([H])C([H])([H])C1([H])[H])C2([H])[H]

$$$$
29:0:0
     RDKit          3D

 96104  0  0  1  0  0  0  0  0999 V2000
  -28.8990  -20.5070   21.0450 C   0  0  0  0  0  3  0  0  0  0  0  0
  -29.7280  -19.4640   20.3600 N   0  0  0  0  0  4  0  0  0  0  0  0
  -30.3120  -19.9120   19.6700 H   0  0  0  0  0  0  0  0  0  0  0  0
  -30.3490  -19.1140   21.0770 H   0  0  0  0  0  0  0  0  0  0  0  0
  -27.6920  -17.9120   20.4030 C   0  0  0  0  0  1  0  0  0  0  0  0
  -29.0310  -18.2930   19.7390 C   0  0  0  0  0  3  0  0  0  0  0  0
  -29.9370  -17.0310   19.5660 C   0  0  0  0  0  2  0  0  0  0  0  0
  -29.8640  -15.8890   20.6370 C   0  0  0  0  0  2  0  0  0  0  0  0
  -30.6060  -14.6030   20.1790 C   0  0  0  0  0  0  0  0  0  0  0  0
  -30.3370  -12.3990   19.1100 C   0  0  0  0  0  2  0  0  0  0  0  0
  -29.3730  -12.5850   17.9190 C   0  0  0  0  0  2  0  0  0  0  0  0
  -27.9170  -12.3800   18.3720 C   0  0  0  0  0  2  0  0  0  0  0  0
  -27.5740  -13.2320   19.6230 C   0  0  0  0  0  3  0  0  0  0  0  0
  -28.6590  -13.1000   20.7200 C   0  0  0  0  0  2  0  0  0  0  0  0
  -29.9660  -13.4030   20.1190 N   0  0  0  0  0  0  0  0  0  0  0  0
  -31.7420  -14.7490   19.7240 O   0  0  0  0  0  0  0  0  0  0  0  0
  -25.1850  -13.7840   20.3980 C   0  0  0  0  0  0  0  0  0  0  0  0
  -24.1400  -12.9850   20.7750 C   0  0  0  0  0  0  0  0  0  0  0  0
  -24.6290  -11.6400   20.7360 C   0  0  0  0  0  0  0  0  0  0  0  0
  -26.2420  -12.9240   20.1360 N   0  0  0  0  0  0  0  0  0  0  0  0
  -25.9140  -11.6320   20.3960 N   0  0  0  0  0  0  0  0  0  0  0  0
  -23.9370  -10.3610   20.9410 C   0  0  0  0  0  0  0  0  0  0  0  0
  -24.3810   -9.4280   21.9050 C   0  0  0  0  0  3  0  0  0  0  0  0
  -23.6880   -8.2140   22.1020 C   0  0  0  0  0  3  0  0  0  0  0  0
  -22.5390   -7.9210   21.3310 C   0  0  0  0  0  0  0  0  0  0  0  0
  -22.1120   -8.8420   20.3570 C   0  0  0  0  0  3  0  0  0  0  0  0
  -22.8080  -10.0460   20.1580 C   0  0  0  0  0  3  0  0  0  0  0  0
  -21.8200   -6.7540   21.4320 O   0  0  0  0  0  0  0  0  0  0  0  0
  -21.7250   -6.0660   22.6160 C   0  0  0  0  0  0  0  0  0  0  0  0
  -21.2060   -6.6650   23.7850 C   0  0  0  0  0  3  0  0  0  0  0  0
  -21.0630   -5.9040   24.9630 C   0  0  0  0  0  3  0  0  0  0  0  0
  -21.4300   -4.5450   24.9710 C   0  0  0  0  0  0  0  0  0  0  0  0
  -21.9410   -3.9450   23.8090 C   0  0  0  0  0  3  0  0  0  0  0  0
  -22.0870   -4.7040   22.6330 C   0  0  0  0  0  0  0  0  0  0  0  0
  -22.5610   -4.1170   21.5080 F   0  0  0  0  0  0  0  0  0  0  0  0
  -21.2890   -3.8120   26.1010 F   0  0  0  0  0  0  0  0  0  0  0  0
  -22.7350  -13.4270   21.0670 C   0  0  0  0  0  0  0  0  0  0  0  0
  -22.0410  -12.7180   21.9460 N   0  0  0  0  0  0  0  0  0  0  0  0
  -22.2560  -14.4290   20.5360 O   0  0  0  0  0  0  0  0  0  0  0  0
  -22.4260  -11.8950   22.3830 H   0  0  0  0  0  0  0  0  0  0  0  0
  -21.0950  -12.9910   22.1740 H   0  0  0  0  0  0  0  0  0  0  0  0
  -25.3220  -15.1620   20.2340 N   0  0  0  0  0  0  0  0  0  0  0  0
  -26.1550  -15.6390   19.9200 H   0  0  0  0  0  0  0  0  0  0  0  0
  -24.5410  -15.7910   20.3980 H   0  0  0  0  0  0  0  0  0  0  0  0
  -29.7880  -21.3540   21.9900 C   0  0  0  0  0  2  0  0  0  0  0  0
  -33.9580  -20.6950   20.9360 C   0  0  0  0  0  3  0  0  0  0  0  0
  -33.1920  -19.6390   21.4650 C   0  0  0  0  0  3  0  0  0  0  0  0
  -33.3910  -21.9780   20.8020 C   0  0  0  0  0  3  0  0  0  0  0  0
  -31.8540  -19.8610   21.8470 C   0  0  0  0  0  3  0  0  0  0  0  0
  -32.0500  -22.1970   21.1740 C   0  0  0  0  0  3  0  0  0  0  0  0
  -31.2700  -21.1370   21.6860 C   0  0  0  0  0  0  0  0  0  0  0  0
  -27.9100  -21.2820   20.1040 C   0  0  0  0  0  3  0  0  0  0  0  0
  -28.3020  -22.7370   19.6130 C   0  0  0  0  0  3  0  0  0  0  0  0
  -27.2990  -23.7490   18.9090 C   0  0  0  0  0  2  0  0  0  0  0  0
  -27.4050  -25.2150   19.4200 C   0  0  0  0  0  2  0  0  0  0  0  0
  -27.0870  -26.2240   18.4350 O   0  0  0  0  0  0  0  0  0  0  0  0
  -25.2190  -31.1050   23.3170 C   0  0  0  0  0  0  0  0  0  0  0  0
  -26.1740  -27.1750   18.8510 C   0  0  0  0  0  0  0  0  0  0  0  0
  -23.4670  -30.4470   21.7040 C   0  0  0  0  0  3  0  0  0  0  0  0
  -24.2570  -29.0750   19.7020 C   0  0  0  0  0  0  0  0  0  0  0  0
  -25.9400  -30.3310   21.0570 C   0  0  0  0  0  2  0  0  0  0  0  0
  -25.5870  -29.1860   20.1250 C   0  0  0  0  0  0  0  0  0  0  0  0
  -26.5550  -28.2470   19.6920 C   0  0  0  0  0  3  0  0  0  0  0  0
  -24.8320  -27.0860   18.4230 C   0  0  0  0  0  3  0  0  0  0  0  0
  -23.8740  -28.0250   18.8480 C   0  0  0  0  0  3  0  0  0  0  0  0
  -23.2800  -30.1190   20.1980 C   0  0  0  0  0  2  0  0  0  0  0  0
  -24.9060  -30.6230   22.0800 N   0  0  0  0  0  0  0  0  0  0  0  0
  -24.3360  -31.4370   24.1210 O   0  0  0  0  0  0  0  0  0  0  0  0
  -22.7440  -29.3630   22.5370 C   0  0  0  0  0  0  0  0  0  0  0  0
  -21.4030  -29.3530   22.4700 N   0  0  0  0  0  0  0  0  0  0  0  0
  -23.3860  -28.5420   23.1960 O   0  0  0  0  0  0  0  0  0  0  0  0
  -20.9500  -30.0630   21.9120 H   0  0  0  0  0  0  0  0  0  0  0  0
  -17.9630  -28.2880   22.7660 C   0  0  0  0  0  0  0  0  0  0  0  0
  -20.5190  -28.3970   23.1350 C   0  0  0  0  0  3  0  0  0  0  0  0
  -20.5750  -27.0150   22.4460 C   0  0  0  0  0  2  0  0  0  0  0  0
  -19.4930  -26.8300   21.3770 C   0  0  0  0  0  2  0  0  0  0  0  0
  -18.0990  -26.9910   21.9880 C   0  0  0  0  0  2  0  0  0  0  0  0
  -19.1010  -28.9570   23.2920 C   0  0  0  0  0  0  0  0  0  0  0  0
  -18.9220  -30.1790   23.9760 C   0  0  0  0  0  3  0  0  0  0  0  0
  -17.6380  -30.7300   24.1430 C   0  0  0  0  0  3  0  0  0  0  0  0
  -16.5130  -30.0560   23.6350 C   0  0  0  0  0  3  0  0  0  0  0  0
  -16.6770  -28.8380   22.9530 C   0  0  0  0  0  3  0  0  0  0  0  0
  -26.7010  -31.2820   23.7730 C   0  0  0  0  0  3  0  0  0  0  0  0
  -27.2830  -30.0120   24.5080 C   0  0  1  0  0  0  0  0  0  0  0  0
  -26.3860  -29.4960   25.6580 C   0  0  0  0  0  1  0  0  0  0  0  0
  -27.4850  -28.8470   23.5110 C   0  0  0  0  0  1  0  0  0  0  0  0
  -28.6730  -30.3410   25.0990 C   0  0  0  0  0  1  0  0  0  0  0  0
  -26.7570  -32.4600   24.6480 N   0  0  0  0  0  0  0  0  0  0  0  0
  -27.2440  -33.6530   24.2880 C   0  0  0  0  0  0  0  0  0  0  0  0
  -27.7640  -33.8580   23.1860 O   0  0  0  0  0  0  0  0  0  0  0  0
  -26.2930  -32.3830   25.5410 H   0  0  0  0  0  0  0  0  0  0  0  0
  -25.9840  -35.7390   24.9100 C   0  0  0  0  0  1  0  0  0  0  0  0
  -27.1370  -34.8030   25.3060 C   0  0  0  0  0  3  0  0  0  0  0  0
  -29.4630  -34.8390   26.0900 C   0  0  0  0  0  1  0  0  0  0  0  0
  -28.3850  -35.5840   25.4460 N   0  0  0  0  0  0  0  0  0  0  0  0
  -28.2230  -36.4330   25.9790 H   0  0  0  0  0  0  0  0  0  0  0  0
  1 52  1  0
  1 45  1  0
  2  1  1  0
  2  4  1  0
  3  2  1  0
  6  2  1  0
  6  5  1  0
  7  6  1  0
  7  8  1  0
  9  8  1  0
 10 15  1  0
 11 12  1  0
 11 10  1  0
 13 12  1  0
 13 20  1  0
 13 14  1  0
 15  9  1  0
 15 14  1  0
 16  9  2  0
 17 18  2  0
 18 37  1  0
 19 18  1  0
 19 22  1  0
 20 21  1  0
 20 17  1  0
 21 19  2  0
 22 23  1  0
 23 24  2  0
 25 28  1  0
 25 24  1  0
 26 25  2  0
 27 26  1  0
 27 22  2  0
 28 29  1  0
 29 34  2  0
 29 30  1  0
 30 31  2  0
 31 32  1  0
 32 36  1  0
 33 32  2  0
 34 33  1  0
 35 34  1  0
 37 38  1  0
 38 41  1  0
 38 40  1  0
 39 37  2  0
 42 44  1  0
 42 17  1  0
 43 42  1  0
 46 47  1  0
 47 49  2  0
 48 46  2  0
 48 50  1  0
 50 51  2  0
 51 49  1  0
 51 45  1  0
 53 52  2  0
 54 55  1  0
 54 53  1  0
 56 58  1  0
 56 55  1  0
 57 68  2  0
 58 63  1  0
 59 67  1  0
 59 69  1  0
 60 62  1  0
 60 66  1  0
 61 67  1  0
 62 61  1  0
 63 62  2  0
 64 65  1  0
 64 58  2  0
 65 60  2  0
 66 59  1  0
 67 57  1  0
 69 71  2  0
 70 69  1  0
 72 70  1  0
 73 82  2  0
 73 78  1  0
 74 70  1  0
 74 78  1  0
 75 74  1  0
 76 77  1  0
 76 75  1  0
 77 73  1  0
 78 79  2  0
 79 80  1  0
 81 80  2  0
 82 81  1  0
 83 57  1  0
 83 84  1  0
 83 88  1  0
 84 87  1  1
 84 85  1  0
 86 84  1  0
 88 91  1  0
 89 88  1  0
 89 93  1  0
 90 89  2  0
 93 92  1  0
 93 95  1  0
 95 96  1  0
 95 94  1  0
M  ISO  4   8 100   9 100  55 101  56 101
M  END
>  <TORSDO>  (30) 
F 26

>  <SCORE>  (30) 
-10.606

>  <name>  (30) 
29

>  <ligand_id>  (30) 
29

>  <original_smiles>  (30) 
[H]c1c([H])c([H])c(C([H])([H])C([H])(C([H])([H])C([H])([H])C([H])([H])C([H])([H])Oc2c([H])c([H])c3c(c2[H])C([H])([H])N(C(=O)C([H])(N([H])C(=O)C([H])(N([H])C([H])([H])[H])C([H])([H])[H])C(C([H])([H])[H])(C([H])([H])[H])C([H])([H])[H])C([H])(C(=O)N([H])C2([H])c4c([H])c([H])c([H])c([H])c4C([H])([H])C([H])([H])C2([H])[H])C3([H])[H])[N+]([H])([H])C([H])(C([H])([H])[H])C([H])([H])C([H])([H])C(=O)N2C([H])([H])C([H])([H])C([H])([H])C([H])(n3nc(-c4c([H])c([H])c(Oc5c([H])c([H])c(F)c([H])c5F)c([H])c4[H])c(C(=O)N([H])[H])c3N([H])[H])C2([H])[H])c([H])c1[H]

>  <smiles>  (30) 
[H]c1c([H])c([H])c(C([H])([H])C([H])(C([H])([H])C([H])([H])C([H])([H])C([H])([H])Oc2c([H])c([H])c3c(c2[H])C([H])([H])N(C(=O)C([H])(N([H])C(=O)C([H])(N([H])C([H])([H])[H])C([H])([H])[H])C(C([H])([H])[H])(C([H])([H])[H])C([H])([H])[H])C([H])(C(=O)N([H])C2([H])c4c([H])c([H])c([H])c([H])c4C([H])([H])C([H])([H])C2([H])[H])C3([H])[H])[N+]([H])([H])C([H])(C([H])([H])[H])C([H])([H])C([H])([H])C(=O)N2C([H])([H])C([H])([H])C([H])([H])C([H])(n3nc(-c4c([H])c([H])c(Oc5c([H])c([H])c(F)c([H])c5F)c([H])c4[H])c(C(=O)N([H])[H])c3N([H])[H])C2([H])[H])c([H])c1[H]

$$$$
30:0:0
     RDKit          3D

 86 94  0  0  1  0  0  0  0  0999 V2000
  -28.3940  -19.5830   19.6720 C   0  0  0  0  0  0  0  0  0  0  0  0
  -28.9900  -18.0420   19.3750 C   0  0  0  0  0  2  0  0  0  0  0  0
  -30.0500  -19.8910   21.2620 C   0  0  0  0  0  2  0  0  0  0  0  0
  -30.6220  -18.3200   21.0040 C   0  0  0  0  0  2  0  0  0  0  0  0
  -29.2770  -20.8570   20.1700 C   0  0  0  0  0  3  0  0  0  0  0  0
  -29.7170  -17.0480   20.4940 C   0  0  0  0  0  3  0  0  0  0  0  0
  -27.1900  -19.7710   19.4870 O   0  0  0  0  0  0  0  0  0  0  0  0
  -30.4400  -15.4260   20.2150 C   0  0  0  0  0  0  0  0  0  0  0  0
  -30.4630  -12.9390   19.3920 C   0  0  0  0  0  2  0  0  0  0  0  0
  -29.5600  -12.7040   18.1510 C   0  0  0  0  0  2  0  0  0  0  0  0
  -28.1120  -12.4120   18.5770 C   0  0  0  0  0  2  0  0  0  0  0  0
  -27.6400  -13.3780   19.6910 C   0  0  0  0  0  3  0  0  0  0  0  0
  -28.6740  -13.5690   20.8210 C   0  0  0  0  0  2  0  0  0  0  0  0
  -29.9080  -14.0910   20.2090 N   0  0  0  0  0  0  0  0  0  0  0  0
  -31.6490  -15.3910   19.9330 O   0  0  0  0  0  0  0  0  0  0  0  0
  -25.2640  -13.9130   20.4370 C   0  0  0  0  0  0  0  0  0  0  0  0
  -24.2070  -13.1280   20.8030 C   0  0  0  0  0  0  0  0  0  0  0  0
  -24.6850  -11.7810   20.7800 C   0  0  0  0  0  0  0  0  0  0  0  0
  -26.3140  -13.0460   20.1980 N   0  0  0  0  0  0  0  0  0  0  0  0
  -25.9790  -11.7570   20.4740 N   0  0  0  0  0  0  0  0  0  0  0  0
  -23.9650  -10.5150   20.9720 C   0  0  0  0  0  0  0  0  0  0  0  0
  -24.3880   -9.5590   21.9220 C   0  0  0  0  0  3  0  0  0  0  0  0
  -23.6640   -8.3600   22.1040 C   0  0  0  0  0  3  0  0  0  0  0  0
  -22.5030   -8.1080   21.3330 C   0  0  0  0  0  0  0  0  0  0  0  0
  -22.1010   -9.0520   20.3720 C   0  0  0  0  0  3  0  0  0  0  0  0
  -22.8240  -10.2420   20.1910 C   0  0  0  0  0  3  0  0  0  0  0  0
  -21.7530   -6.9600   21.4220 O   0  0  0  0  0  0  0  0  0  0  0  0
  -21.6750   -6.2390   22.5870 C   0  0  0  0  0  0  0  0  0  0  0  0
  -21.1960   -6.8090   23.7860 C   0  0  0  0  0  3  0  0  0  0  0  0
  -21.0670   -6.0130   24.9420 C   0  0  0  0  0  3  0  0  0  0  0  0
  -21.4080   -4.6480   24.8990 C   0  0  0  0  0  0  0  0  0  0  0  0
  -21.8800   -4.0770   23.7050 C   0  0  0  0  0  3  0  0  0  0  0  0
  -22.0100   -4.8700   22.5510 C   0  0  0  0  0  0  0  0  0  0  0  0
  -22.4460   -4.3090   21.3970 F   0  0  0  0  0  0  0  0  0  0  0  0
  -21.2770   -3.8820   26.0080 F   0  0  0  0  0  0  0  0  0  0  0  0
  -22.8040  -13.5960   21.0610 C   0  0  0  0  0  0  0  0  0  0  0  0
  -22.0750  -12.9000   21.9240 N   0  0  0  0  0  0  0  0  0  0  0  0
  -22.3650  -14.6170   20.5310 O   0  0  0  0  0  0  0  0  0  0  0  0
  -22.4430  -12.0770   22.3760 H   0  0  0  0  0  0  0  0  0  0  0  0
  -21.1330  -13.1960   22.1390 H   0  0  0  0  0  0  0  0  0  0  0  0
  -25.4180  -15.2840   20.2580 N   0  0  0  0  0  0  0  0  0  0  0  0
  -24.6490  -15.9350   20.3750 H   0  0  0  0  0  0  0  0  0  0  0  0
  -26.2700  -15.7320   19.9430 H   0  0  0  0  0  0  0  0  0  0  0  0
  -28.7560  -22.5820   20.6250 C   0  0  0  0  0  2  0  0  0  0  0  0
  -28.1980  -24.1780   19.8970 C   0  0  0  0  0  2  0  0  0  0  0  0
  -28.2280  -25.8080   20.3140 O   0  0  0  0  0  0  0  0  0  0  0  0
  -24.6230  -31.8370   23.1840 C   0  0  0  0  0  0  0  0  0  0  0  0
  -27.2220  -26.9260   20.1900 C   0  0  0  0  0  0  0  0  0  0  0  0
  -23.4530  -30.4380   21.5310 C   0  0  0  0  0  3  0  0  0  0  0  0
  -24.9220  -28.8330   20.1180 C   0  0  0  0  0  0  0  0  0  0  0  0
  -26.0220  -30.6430   21.4180 C   0  0  0  0  0  2  0  0  0  0  0  0
  -26.1010  -29.2300   20.7590 C   0  0  0  0  0  0  0  0  0  0  0  0
  -27.2400  -28.2960   20.7720 C   0  0  0  0  0  3  0  0  0  0  0  0
  -26.0160  -26.6970   19.4880 C   0  0  0  0  0  3  0  0  0  0  0  0
  -24.9090  -27.5900   19.4610 C   0  0  0  0  0  3  0  0  0  0  0  0
  -23.7000  -29.7540   20.1570 C   0  0  0  0  0  2  0  0  0  0  0  0
  -24.7210  -31.0020   22.0980 N   0  0  0  0  0  0  0  0  0  0  0  0
  -23.5270  -32.1250   23.6920 O   0  0  0  0  0  0  0  0  0  0  0  0
  -22.7480  -29.4430   22.4910 C   0  0  0  0  0  0  0  0  0  0  0  0
  -21.4160  -29.2900   22.3660 N   0  0  0  0  0  0  0  0  0  0  0  0
  -23.4080  -28.8080   23.3170 O   0  0  0  0  0  0  0  0  0  0  0  0
  -20.9370  -29.8520   21.6770 H   0  0  0  0  0  0  0  0  0  0  0  0
  -18.0230  -28.1060   22.8780 C   0  0  0  0  0  0  0  0  0  0  0  0
  -20.5870  -28.3520   23.1300 C   0  0  0  0  0  3  0  0  0  0  0  0
  -20.6750  -26.9240   22.5400 C   0  0  0  0  0  2  0  0  0  0  0  0
  -19.5650  -26.6220   21.5270 C   0  0  0  0  0  2  0  0  0  0  0  0
  -18.1870  -26.7660   22.1800 C   0  0  0  0  0  2  0  0  0  0  0  0
  -19.1500  -28.8580   23.3090 C   0  0  0  0  0  0  0  0  0  0  0  0
  -18.9380  -30.1100   23.9250 C   0  0  0  0  0  3  0  0  0  0  0  0
  -17.6370  -30.6120   24.1110 C   0  0  0  0  0  3  0  0  0  0  0  0
  -16.5270  -29.8590   23.6940 C   0  0  0  0  0  3  0  0  0  0  0  0
  -16.7210  -28.6070   23.0830 C   0  0  0  0  0  3  0  0  0  0  0  0
  -25.8830  -32.4860   23.8330 C   0  0  0  0  0  3  0  0  0  0  0  0
  -25.5570  -33.8860   24.1620 N   0  0  0  0  0  0  0  0  0  0  0  0
  -25.8950  -34.9500   23.4220 C   0  0  0  0  0  0  0  0  0  0  0  0
  -26.5780  -34.8580   22.3980 O   0  0  0  0  0  0  0  0  0  0  0  0
  -24.9500  -34.0310   24.9560 H   0  0  0  0  0  0  0  0  0  0  0  0
  -24.1720  -36.7530   23.0710 C   0  0  0  0  0  1  0  0  0  0  0  0
  -25.4050  -36.3370   23.8890 C   0  0  0  0  0  3  0  0  0  0  0  0
  -27.5270  -37.2240   24.7540 C   0  0  0  0  0  1  0  0  0  0  0  0
  -26.4380  -37.3920   23.7950 N   0  0  0  0  0  0  0  0  0  0  0  0
  -26.0290  -38.3120   23.9360 H   0  0  0  0  0  0  0  0  0  0  0  0
  -26.3740  -31.7280   25.1280 C   0  0  1  0  0  0  0  0  0  0  0  0
  -25.2590  -31.5020   26.1770 C   0  0  0  0  0  1  0  0  0  0  0  0
  -26.9630  -30.3450   24.7700 C   0  0  0  0  0  1  0  0  0  0  0  0
  -27.5120  -32.5270   25.8050 C   0  0  0  0  0  1  0  0  0  0  0  0
  1  5  1  0
  2  1  1  0
  2  6  1  0
  4  3  1  0
  5 44  1  0
  5  3  1  0
  6  8  1  0
  6  4  1  0
  7  1  2  0
  9 14  1  0
 10 11  1  0
 10  9  1  0
 12 11  1  0
 12 19  1  0
 12 13  1  0
 14  8  1  0
 14 13  1  0
 15  8  2  0
 16 17  2  0
 17 36  1  0
 18 17  1  0
 18 21  1  0
 19 16  1  0
 19 20  1  0
 20 18  2  0
 21 22  1  0
 22 23  2  0
 24 27  1  0
 24 23  1  0
 25 24  2  0
 26 25  1  0
 26 21  2  0
 27 28  1  0
 28 29  1  0
 29 30  2  0
 31 30  1  0
 31 35  1  0
 32 31  2  0
 33 28  2  0
 33 32  1  0
 34 33  1  0
 36 37  1  0
 37 40  1  0
 37 39  1  0
 38 36  2  0
 41 42  1  0
 41 16  1  0
 43 41  1  0
 45 46  1  0
 45 44  1  0
 47 58  2  0
 48 46  1  0
 48 53  1  0
 49 57  1  0
 49 59  1  0
 50 56  1  0
 50 52  1  0
 51 57  1  0
 52 53  2  0
 52 51  1  0
 54 48  2  0
 55 54  1  0
 55 50  2  0
 56 49  1  0
 57 47  1  0
 59 61  2  0
 60 59  1  0
 62 60  1  0
 63 72  2  0
 63 68  1  0
 64 60  1  0
 64 68  1  0
 65 64  1  0
 66 67  1  0
 66 65  1  0
 67 63  1  0
 68 69  2  0
 69 70  1  0
 71 70  2  0
 72 71  1  0
 73 47  1  0
 73 74  1  0
 73 83  1  0
 74 77  1  0
 75 79  1  0
 75 74  1  0
 76 75  2  0
 79 78  1  0
 81 79  1  0
 81 82  1  0
 81 80  1  0
 83 86  1  1
 83 84  1  0
 85 83  1  0
M  ISO  4   6 100   8 100  45 101  46 101
M  END
>  <TORSDO>  (31) 
F 18

>  <SCORE>  (31) 
-16.539

>  <name>  (31) 
30

>  <ligand_id>  (31) 
30

>  <original_smiles>  (31) 
[H]c1c([H])c([H])c2c(c1[H])C([H])([H])C([H])([H])C([H])([H])C2([H])N([H])C(=O)C1([H])N(C(=O)C([H])(N([H])C(=O)C([H])(N([H])C([H])([H])[H])C([H])([H])[H])C(C([H])([H])[H])(C([H])([H])[H])C([H])([H])[H])C([H])([H])c2c([H])c(OC([H])([H])C([H])([H])C3([H])C(=O)C([H])([H])C([H])(C(=O)N4C([H])([H])C([H])([H])C([H])([H])C([H])(n5nc(-c6c([H])c([H])c(Oc7c([H])c([H])c(F)c([H])c7F)c([H])c6[H])c(C(=O)N([H])[H])c5N([H])[H])C4([H])[H])C([H])([H])C3([H])[H])c([H])c([H])c2C1([H])[H]

>  <smiles>  (31) 
[H]c1c([H])c([H])c2c(c1[H])C([H])([H])C([H])([H])C([H])([H])C2([H])N([H])C(=O)C1([H])N(C(=O)C([H])(N([H])C(=O)C([H])(N([H])C([H])([H])[H])C([H])([H])[H])C(C([H])([H])[H])(C([H])([H])[H])C([H])([H])[H])C([H])([H])c2c([H])c(OC([H])([H])C([H])([H])C3([H])C(=O)C([H])([H])C([H])(C(=O)N4C([H])([H])C([H])([H])C([H])([H])C([H])(n5nc(-c6c([H])c([H])c(Oc7c([H])c([H])c(F)c([H])c7F)c([H])c6[H])c(C(=O)N([H])[H])c5N([H])[H])C4([H])[H])C([H])([H])C3([H])[H])c([H])c([H])c2C1([H])[H]

$$$$
31:0:0
     RDKit          3D

 97105  0  0  1  0  0  0  0  0999 V2000
  -29.6330  -19.2370   19.7310 C   0  0  0  0  0  3  0  0  0  0  0  0
  -31.7710  -18.0780   18.9820 C   0  0  0  0  0  1  0  0  0  0  0  0
  -30.4700  -17.9600   19.6860 N   0  0  1  0  0  4  0  0  0  0  0  0
  -29.9320  -17.3600   19.0830 H   0  0  0  0  0  0  0  0  0  0  0  0
  -30.6060  -17.1390   20.9440 C   0  0  0  0  0  2  0  0  0  0  0  0
  -29.9790  -15.6900   20.9350 C   0  0  0  0  0  2  0  0  0  0  0  0
  -30.7050  -14.5060   20.2090 C   0  0  0  0  0  0  0  0  0  0  0  0
  -30.3840  -12.3890   18.9490 C   0  0  0  0  0  2  0  0  0  0  0  0
  -29.3870  -12.6490   17.7980 C   0  0  0  0  0  2  0  0  0  0  0  0
  -27.9300  -12.4950   18.2800 C   0  0  0  0  0  2  0  0  0  0  0  0
  -27.6560  -13.2610   19.5990 C   0  0  0  0  0  3  0  0  0  0  0  0
  -28.7560  -12.9750   20.6450 C   0  0  0  0  0  2  0  0  0  0  0  0
  -30.0520  -13.3170   20.0430 N   0  0  0  0  0  0  0  0  0  0  0  0
  -31.8090  -14.7060   19.6960 O   0  0  0  0  0  0  0  0  0  0  0  0
  -25.2840  -13.8660   20.3830 C   0  0  0  0  0  0  0  0  0  0  0  0
  -24.2290  -13.0940   20.7880 C   0  0  0  0  0  0  0  0  0  0  0  0
  -24.6930  -11.7430   20.7490 C   0  0  0  0  0  0  0  0  0  0  0  0
  -26.3220  -12.9840   20.1220 N   0  0  0  0  0  0  0  0  0  0  0  0
  -25.9720  -11.7020   20.4000 N   0  0  0  0  0  0  0  0  0  0  0  0
  -23.9750  -10.4810   20.9690 C   0  0  0  0  0  0  0  0  0  0  0  0
  -24.4160   -9.5390   21.9240 C   0  0  0  0  0  3  0  0  0  0  0  0
  -23.7010   -8.3400   22.1310 C   0  0  0  0  0  3  0  0  0  0  0  0
  -22.5310   -8.0730   21.3810 C   0  0  0  0  0  0  0  0  0  0  0  0
  -22.1070   -9.0050   20.4170 C   0  0  0  0  0  3  0  0  0  0  0  0
  -22.8220  -10.1960   20.2110 C   0  0  0  0  0  3  0  0  0  0  0  0
  -21.7880   -6.9230   21.4950 O   0  0  0  0  0  0  0  0  0  0  0  0
  -21.7280   -6.2190   22.6710 C   0  0  0  0  0  0  0  0  0  0  0  0
  -21.2730   -6.8080   23.8690 C   0  0  0  0  0  3  0  0  0  0  0  0
  -21.1630   -6.0300   25.0390 C   0  0  0  0  0  3  0  0  0  0  0  0
  -21.4940   -4.6620   25.0100 C   0  0  0  0  0  0  0  0  0  0  0  0
  -21.9390   -4.0720   23.8140 C   0  0  0  0  0  3  0  0  0  0  0  0
  -22.0540   -4.8480   22.6480 C   0  0  0  0  0  0  0  0  0  0  0  0
  -22.4650   -4.2690   21.4930 F   0  0  0  0  0  0  0  0  0  0  0  0
  -21.3800   -3.9120   26.1320 F   0  0  0  0  0  0  0  0  0  0  0  0
  -22.8400  -13.5700   21.1020 C   0  0  0  0  0  0  0  0  0  0  0  0
  -22.1440  -12.8780   21.9980 N   0  0  0  0  0  0  0  0  0  0  0  0
  -22.3830  -14.5890   20.5880 O   0  0  0  0  0  0  0  0  0  0  0  0
  -22.5270  -12.0550   22.4380 H   0  0  0  0  0  0  0  0  0  0  0  0
  -21.2130  -13.1810   22.2470 H   0  0  0  0  0  0  0  0  0  0  0  0
  -25.4460  -15.2350   20.1910 N   0  0  0  0  0  0  0  0  0  0  0  0
  -24.6850  -15.8930   20.3110 H   0  0  0  0  0  0  0  0  0  0  0  0
  -26.2820  -15.6620   19.8150 H   0  0  0  0  0  0  0  0  0  0  0  0
  -31.3200  -21.2210   19.3310 C   0  0  0  0  0  1  0  0  0  0  0  0
  -30.3260  -20.5630   20.3250 C   0  0  0  0  0  3  0  0  0  0  0  0
  -28.9050  -21.2270   22.1860 C   0  0  0  0  0  1  0  0  0  0  0  0
  -29.3490  -21.5900   20.8360 N   0  0  0  0  0  0  0  0  0  0  0  0
  -29.7360  -23.0340   20.8810 C   0  0  0  0  0  2  0  0  0  0  0  0
  -28.5500  -24.0610   20.7370 C   0  0  0  0  0  2  0  0  0  0  0  0
  -28.7910  -25.4980   21.3250 C   0  0  0  0  0  2  0  0  0  0  0  0
  -28.7410  -26.6270   20.4130 O   0  0  0  0  0  0  0  0  0  0  0  0
  -24.7490  -31.8530   23.2780 C   0  0  0  0  0  0  0  0  0  0  0  0
  -27.5730  -27.3690   20.3920 C   0  0  0  0  0  0  0  0  0  0  0  0
  -23.6260  -30.3910   21.6280 C   0  0  0  0  0  3  0  0  0  0  0  0
  -25.1570  -28.8540   20.2780 C   0  0  0  0  0  0  0  0  0  0  0  0
  -26.1520  -30.7940   21.5010 C   0  0  0  0  0  2  0  0  0  0  0  0
  -26.2870  -29.4070   20.8980 C   0  0  0  0  0  0  0  0  0  0  0  0
  -27.4990  -28.6720   20.9480 C   0  0  0  0  0  3  0  0  0  0  0  0
  -26.4280  -26.8380   19.7640 C   0  0  0  0  0  3  0  0  0  0  0  0
  -25.2280  -27.5730   19.7020 C   0  0  0  0  0  3  0  0  0  0  0  0
  -23.8930  -29.6880   20.2700 C   0  0  0  0  0  2  0  0  0  0  0  0
  -24.8590  -31.0300   22.1950 N   0  0  0  0  0  0  0  0  0  0  0  0
  -23.6480  -32.1130   23.7790 O   0  0  0  0  0  0  0  0  0  0  0  0
  -22.9650  -29.3800   22.5910 C   0  0  0  0  0  0  0  0  0  0  0  0
  -21.6470  -29.1760   22.4350 N   0  0  0  0  0  0  0  0  0  0  0  0
  -23.6350  -28.7810   23.4360 O   0  0  0  0  0  0  0  0  0  0  0  0
  -21.1680  -29.7110   21.7240 H   0  0  0  0  0  0  0  0  0  0  0  0
  -18.2770  -27.9420   22.8690 C   0  0  0  0  0  0  0  0  0  0  0  0
  -20.8230  -28.2380   23.1970 C   0  0  0  0  0  3  0  0  0  0  0  0
  -20.9590  -26.8010   22.6420 C   0  0  0  0  0  2  0  0  0  0  0  0
  -19.8850  -26.4520   21.6060 C   0  0  0  0  0  2  0  0  0  0  0  0
  -18.4860  -26.5860   22.2170 C   0  0  0  0  0  2  0  0  0  0  0  0
  -19.3750  -28.7230   23.3160 C   0  0  0  0  0  0  0  0  0  0  0  0
  -19.1260  -29.9910   23.8860 C   0  0  0  0  0  3  0  0  0  0  0  0
  -17.8110  -30.4780   24.0130 C   0  0  0  0  0  3  0  0  0  0  0  0
  -16.7270  -29.6920   23.5850 C   0  0  0  0  0  3  0  0  0  0  0  0
  -16.9600  -28.4260   23.0180 C   0  0  0  0  0  3  0  0  0  0  0  0
  -26.0030  -32.5230   23.9250 C   0  0  0  0  0  3  0  0  0  0  0  0
  -26.5050  -31.7790   25.2230 C   0  0  1  0  0  0  0  0  0  0  0  0
  -25.3900  -31.5210   26.2650 C   0  0  0  0  0  1  0  0  0  0  0  0
  -27.1330  -30.4140   24.8570 C   0  0  0  0  0  1  0  0  0  0  0  0
  -27.6210  -32.6060   25.9030 C   0  0  0  0  0  1  0  0  0  0  0  0
  -25.6520  -33.9190   24.2270 N   0  0  0  0  0  0  0  0  0  0  0  0
  -25.9780  -34.9670   23.4610 C   0  0  0  0  0  0  0  0  0  0  0  0
  -26.6730  -34.8650   22.4460 O   0  0  0  0  0  0  0  0  0  0  0  0
  -25.0320  -34.0690   25.0090 H   0  0  0  0  0  0  0  0  0  0  0  0
  -24.2120  -36.7070   23.0450 C   0  0  0  0  0  1  0  0  0  0  0  0
  -25.4470  -36.3490   23.8860 C   0  0  0  0  0  3  0  0  0  0  0  0
  -27.5430  -37.3000   24.7420 C   0  0  0  0  0  1  0  0  0  0  0  0
  -26.4550  -37.4270   23.7750 N   0  0  0  0  0  0  0  0  0  0  0  0
  -26.0240  -38.3380   23.9000 H   0  0  0  0  0  0  0  0  0  0  0  0
  -28.9320  -19.4440   18.3490 C   0  0  0  0  0  2  0  0  0  0  0  0
  -25.9180  -22.5860   18.1170 C   0  0  0  0  0  3  0  0  0  0  0  0
  -27.1770  -22.7680   17.5130 C   0  0  0  0  0  3  0  0  0  0  0  0
  -25.6390  -21.3900   18.8030 C   0  0  0  0  0  3  0  0  0  0  0  0
  -28.1460  -21.7500   17.5810 C   0  0  0  0  0  3  0  0  0  0  0  0
  -26.6080  -20.3700   18.8770 C   0  0  0  0  0  3  0  0  0  0  0  0
  -27.8750  -20.5450   18.2710 C   0  0  0  0  0  0  0  0  0  0  0  0
  1 91  1  0
  1 44  1  0
  2  3  1  0
  3  1  1  0
  3  5  1  0
  3  4  1  6
  6  5  1  0
  7  6  1  0
  8 13  1  0
  9 10  1  0
  9  8  1  0
 11 10  1  0
 11 18  1  0
 11 12  1  0
 13  7  1  0
 13 12  1  0
 14  7  2  0
 15 16  2  0
 16 35  1  0
 17 16  1  0
 17 20  1  0
 18 15  1  0
 18 19  1  0
 19 17  2  0
 20 21  1  0
 21 22  2  0
 23 26  1  0
 23 22  1  0
 24 23  2  0
 25 24  1  0
 25 20  2  0
 26 27  1  0
 27 28  1  0
 28 29  2  0
 30 29  1  0
 30 34  1  0
 31 30  2  0
 32 27  2  0
 32 31  1  0
 33 32  1  0
 35 36  1  0
 36 39  1  0
 36 38  1  0
 37 35  2  0
 40 41  1  0
 40 15  1  0
 42 40  1  0
 44 43  1  0
 44 46  1  0
 46 47  1  0
 46 45  1  0
 48 47  1  0
 48 49  1  0
 50 49  1  0
 51 62  2  0
 52 50  1  0
 52 57  1  0
 53 61  1  0
 53 63  1  0
 54 56  1  0
 55 61  1  0
 56 57  2  0
 56 55  1  0
 58 52  2  0
 59 58  1  0
 59 54  2  0
 60 54  1  0
 60 53  1  0
 61 51  1  0
 63 65  2  0
 64 63  1  0
 66 64  1  0
 67 76  2  0
 67 72  1  0
 68 64  1  0
 68 72  1  0
 69 68  1  0
 70 71  1  0
 70 69  1  0
 71 67  1  0
 72 73  2  0
 73 74  1  0
 75 74  2  0
 76 75  1  0
 77 51  1  0
 77 82  1  0
 77 78  1  0
 78 81  1  1
 78 79  1  0
 80 78  1  0
 82 85  1  0
 83 87  1  0
 83 82  1  0
 84 83  2  0
 87 86  1  0
 89 87  1  0
 89 90  1  0
 89 88  1  0
 92 94  1  0
 93 95  1  0
 93 92  2  0
 94 96  2  0
 95 97  2  0
 97 91  1  0
 97 96  1  0
M  ISO  4   6 100   7 100  49 101  50 101
M  END
>  <TORSDO>  (32) 
F 26

>  <SCORE>  (32) 
-11.368

>  <name>  (32) 
31

>  <ligand_id>  (32) 
31

>  <original_smiles>  (32) 
[H]c1c([H])c([H])c(C([H])([H])C([H])(C([H])(N(C([H])([H])[H])C([H])([H])C([H])([H])C([H])([H])Oc2c([H])c([H])c3c(c2[H])C([H])([H])N(C(=O)C([H])(N([H])C(=O)C([H])(N([H])C([H])([H])[H])C([H])([H])[H])C(C([H])([H])[H])(C([H])([H])[H])C([H])([H])[H])C([H])(C(=O)N([H])C2([H])c4c([H])c([H])c([H])c([H])c4C([H])([H])C([H])([H])C2([H])[H])C3([H])[H])C([H])([H])[H])[N+]([H])(C([H])([H])[H])C([H])([H])C([H])([H])C(=O)N2C([H])([H])C([H])([H])C([H])([H])C([H])(n3nc(-c4c([H])c([H])c(Oc5c([H])c([H])c(F)c([H])c5F)c([H])c4[H])c(C(=O)N([H])[H])c3N([H])[H])C2([H])[H])c([H])c1[H]

>  <smiles>  (32) 
[H]c1c([H])c([H])c(C([H])([H])C([H])(C([H])(N(C([H])([H])[H])C([H])([H])C([H])([H])C([H])([H])Oc2c([H])c([H])c3c(c2[H])C([H])([H])N(C(=O)C([H])(N([H])C(=O)C([H])(N([H])C([H])([H])[H])C([H])([H])[H])C(C([H])([H])[H])(C([H])([H])[H])C([H])([H])[H])C([H])(C(=O)N([H])C2([H])c4c([H])c([H])c([H])c([H])c4C([H])([H])C([H])([H])C2([H])[H])C3([H])[H])C([H])([H])[H])[N+]([H])(C([H])([H])[H])C([H])([H])C([H])([H])C(=O)N2C([H])([H])C([H])([H])C([H])([H])C([H])(n3nc(-c4c([H])c([H])c(Oc5c([H])c([H])c(F)c([H])c5F)c([H])c4[H])c(C(=O)N([H])[H])c3N([H])[H])C2([H])[H])c([H])c1[H]

$$$$
32:0:0
     RDKit          3D

 94102  0  0  1  0  0  0  0  0999 V2000
  -33.9910  -20.6990   16.3430 C   0  0  0  0  0  2  0  0  0  0  0  0
  -33.4660  -22.0670   15.9040 C   0  0  0  0  0  2  0  0  0  0  0  0
  -32.8320  -19.8150   16.8170 C   0  0  0  0  0  2  0  0  0  0  0  0
  -32.6920  -22.7450   17.0400 C   0  0  0  0  0  2  0  0  0  0  0  0
  -32.0160  -20.4640   17.9620 C   0  0  0  0  0  3  0  0  0  0  0  0
  -31.5090  -21.8870   17.5600 C   0  0  0  0  0  3  0  0  0  0  0  0
  -30.8900  -19.4810   18.3470 C   0  0  0  0  0  0  0  0  0  0  0  0
  -31.0770  -18.7420   19.4470 N   0  0  0  0  0  0  0  0  0  0  0  0
  -29.8990  -19.3510   17.6260 O   0  0  0  0  0  0  0  0  0  0  0  0
  -31.9100  -18.9180   19.9930 H   0  0  0  0  0  0  0  0  0  0  0  0
  -30.2670  -17.5820   19.8080 C   0  0  0  0  0  2  0  0  0  0  0  0
  -30.7210  -16.9730   21.1500 C   0  0  0  0  0  2  0  0  0  0  0  0
  -30.1210  -15.5740   21.4370 C   0  0  0  0  0  2  0  0  0  0  0  0
  -30.7180  -14.4410   20.5750 C   0  0  0  0  0  0  0  0  0  0  0  0
  -30.3760  -12.3400   19.3260 C   0  0  0  0  0  2  0  0  0  0  0  0
  -29.4300  -12.5970   18.1360 C   0  0  0  0  0  2  0  0  0  0  0  0
  -27.9570  -12.4650   18.5690 C   0  0  0  0  0  2  0  0  0  0  0  0
  -27.6400  -13.2700   19.8570 C   0  0  0  0  0  3  0  0  0  0  0  0
  -28.6950  -12.9950   20.9520 C   0  0  0  0  0  2  0  0  0  0  0  0
  -30.0230  -13.2890   20.3900 N   0  0  0  0  0  0  0  0  0  0  0  0
  -31.8010  -14.6450   20.0200 O   0  0  0  0  0  0  0  0  0  0  0  0
  -25.2360  -13.8880   20.5480 C   0  0  0  0  0  0  0  0  0  0  0  0
  -24.1640  -13.1170   20.9110 C   0  0  0  0  0  0  0  0  0  0  0  0
  -24.6220  -11.7650   20.8880 C   0  0  0  0  0  0  0  0  0  0  0  0
  -26.2820  -13.0030   20.3280 N   0  0  0  0  0  0  0  0  0  0  0  0
  -25.9130  -11.7220   20.5870 N   0  0  0  0  0  0  0  0  0  0  0  0
  -23.8920  -10.5050   21.0790 C   0  0  0  0  0  0  0  0  0  0  0  0
  -24.3300   -9.5290   22.0010 C   0  0  0  0  0  3  0  0  0  0  0  0
  -23.6020   -8.3340   22.1800 C   0  0  0  0  0  3  0  0  0  0  0  0
  -22.4210   -8.1040   21.4350 C   0  0  0  0  0  0  0  0  0  0  0  0
  -22.0020   -9.0680   20.5010 C   0  0  0  0  0  3  0  0  0  0  0  0
  -22.7300  -10.2550   20.3200 C   0  0  0  0  0  3  0  0  0  0  0  0
  -21.6650   -6.9600   21.5210 O   0  0  0  0  0  0  0  0  0  0  0  0
  -21.6350   -6.2020   22.6640 C   0  0  0  0  0  0  0  0  0  0  0  0
  -21.2550   -6.7470   23.9100 C   0  0  0  0  0  3  0  0  0  0  0  0
  -21.1730   -5.9160   25.0450 C   0  0  0  0  0  3  0  0  0  0  0  0
  -21.4620   -4.5430   24.9360 C   0  0  0  0  0  0  0  0  0  0  0  0
  -21.8360   -3.9980   23.6960 C   0  0  0  0  0  3  0  0  0  0  0  0
  -21.9200   -4.8250   22.5620 C   0  0  0  0  0  0  0  0  0  0  0  0
  -22.2620   -4.2910   21.3650 F   0  0  0  0  0  0  0  0  0  0  0  0
  -21.3760   -3.7440   26.0260 F   0  0  0  0  0  0  0  0  0  0  0  0
  -22.7670  -13.5990   21.1780 C   0  0  0  0  0  0  0  0  0  0  0  0
  -22.0360  -12.9060   22.0450 N   0  0  0  0  0  0  0  0  0  0  0  0
  -22.3310  -14.6230   20.6530 O   0  0  0  0  0  0  0  0  0  0  0  0
  -22.4040  -12.0760   22.4880 H   0  0  0  0  0  0  0  0  0  0  0  0
  -21.1000  -13.2090   22.2720 H   0  0  0  0  0  0  0  0  0  0  0  0
  -25.4060  -15.2560   20.3670 N   0  0  0  0  0  0  0  0  0  0  0  0
  -24.6420  -15.9160   20.4670 H   0  0  0  0  0  0  0  0  0  0  0  0
  -26.2670  -15.6880   20.0570 H   0  0  0  0  0  0  0  0  0  0  0  0
  -30.7720  -22.6230   18.7110 C   0  0  0  0  0  2  0  0  0  0  0  0
  -30.0350  -23.9050   18.2690 C   0  0  0  0  0  2  0  0  0  0  0  0
  -29.4250  -24.6980   19.4350 C   0  0  0  0  0  2  0  0  0  0  0  0
  -28.8270  -26.0360   18.9750 C   0  0  0  0  0  2  0  0  0  0  0  0
  -28.4640  -26.8050   20.1230 O   0  0  0  0  0  0  0  0  0  0  0  0
  -24.6200  -31.8930   23.2410 C   0  0  0  0  0  0  0  0  0  0  0  0
  -27.2680  -27.4860   20.1180 C   0  0  0  0  0  0  0  0  0  0  0  0
  -23.4090  -30.4930   21.6010 C   0  0  0  0  0  3  0  0  0  0  0  0
  -24.8570  -28.9620   20.1670 C   0  0  0  0  0  0  0  0  0  0  0  0
  -25.9310  -30.8590   21.3930 C   0  0  0  0  0  2  0  0  0  0  0  0
  -26.0140  -29.4900   20.7510 C   0  0  0  0  0  0  0  0  0  0  0  0
  -27.2160  -28.7530   20.7360 C   0  0  0  0  0  3  0  0  0  0  0  0
  -26.0850  -26.9510   19.5570 C   0  0  0  0  0  3  0  0  0  0  0  0
  -24.8850  -27.6880   19.5730 C   0  0  0  0  0  3  0  0  0  0  0  0
  -23.6110  -29.8160   20.2190 C   0  0  0  0  0  2  0  0  0  0  0  0
  -24.6720  -31.0960   22.1370 N   0  0  0  0  0  0  0  0  0  0  0  0
  -23.5410  -32.1630   23.7870 O   0  0  0  0  0  0  0  0  0  0  0  0
  -22.7650  -29.4680   22.5600 C   0  0  0  0  0  0  0  0  0  0  0  0
  -21.4420  -29.2810   22.4320 N   0  0  0  0  0  0  0  0  0  0  0  0
  -23.4530  -28.8430   23.3730 O   0  0  0  0  0  0  0  0  0  0  0  0
  -20.9500  -29.8360   21.7470 H   0  0  0  0  0  0  0  0  0  0  0  0
  -18.0730  -28.0690   22.9170 C   0  0  0  0  0  0  0  0  0  0  0  0
  -20.6280  -28.3390   23.2020 C   0  0  0  0  0  3  0  0  0  0  0  0
  -20.7410  -26.9080   22.6260 C   0  0  0  0  0  2  0  0  0  0  0  0
  -19.6450  -26.5780   21.6080 C   0  0  0  0  0  2  0  0  0  0  0  0
  -18.2590  -26.7190   22.2470 C   0  0  0  0  0  2  0  0  0  0  0  0
  -19.1860  -28.8370   23.3510 C   0  0  0  0  0  0  0  0  0  0  0  0
  -18.9600  -30.1020   23.9370 C   0  0  0  0  0  3  0  0  0  0  0  0
  -17.6520  -30.5980   24.0940 C   0  0  0  0  0  3  0  0  0  0  0  0
  -16.5530  -29.8260   23.6780 C   0  0  0  0  0  3  0  0  0  0  0  0
  -16.7650  -28.5650   23.0960 C   0  0  0  0  0  3  0  0  0  0  0  0
  -25.9090  -32.5230   23.8570 C   0  0  0  0  0  3  0  0  0  0  0  0
  -25.6030  -33.9200   24.1900 N   0  0  0  0  0  0  0  0  0  0  0  0
  -25.9360  -34.9720   23.4310 C   0  0  0  0  0  0  0  0  0  0  0  0
  -26.6060  -34.8680   22.4000 O   0  0  0  0  0  0  0  0  0  0  0  0
  -25.0090  -34.0750   24.9910 H   0  0  0  0  0  0  0  0  0  0  0  0
  -24.2080  -36.7630   23.0750 C   0  0  0  0  0  1  0  0  0  0  0  0
  -25.4480  -36.3590   23.8880 C   0  0  0  0  0  3  0  0  0  0  0  0
  -27.5840  -37.2400   24.7200 C   0  0  0  0  0  1  0  0  0  0  0  0
  -26.4810  -37.4120   23.7780 N   0  0  0  0  0  0  0  0  0  0  0  0
  -26.0770  -38.3320   23.9270 H   0  0  0  0  0  0  0  0  0  0  0  0
  -26.4340  -31.7470   25.1280 C   0  0  1  0  0  0  0  0  0  0  0  0
  -25.3460  -31.5050   26.2010 C   0  0  0  0  0  1  0  0  0  0  0  0
  -27.0140  -30.3720   24.7250 C   0  0  0  0  0  1  0  0  0  0  0  0
  -27.5880  -32.5390   25.7860 C   0  0  0  0  0  1  0  0  0  0  0  0
  1  3  1  0
  2  1  1  0
  2  4  1  0
  3  5  1  0
  4  6  1  0
  5  7  1  0
  6  5  1  0
  6 50  1  0
  7  8  1  0
  8 11  1  0
  8 10  1  0
  9  7  2  0
 11 12  1  0
 12 13  1  0
 14 13  1  0
 15 20  1  0
 16 17  1  0
 16 15  1  0
 18 17  1  0
 18 25  1  0
 18 19  1  0
 20 14  1  0
 20 19  1  0
 21 14  2  0
 22 23  2  0
 23 42  1  0
 24 23  1  0
 24 27  1  0
 25 22  1  0
 25 26  1  0
 26 24  2  0
 27 28  1  0
 28 29  2  0
 30 33  1  0
 30 29  1  0
 31 30  2  0
 32 31  1  0
 32 27  2  0
 33 34  1  0
 34 35  1  0
 35 36  2  0
 37 36  1  0
 37 41  1  0
 38 37  2  0
 39 34  2  0
 39 38  1  0
 40 39  1  0
 42 43  1  0
 43 46  1  0
 43 45  1  0
 44 42  2  0
 47 48  1  0
 47 22  1  0
 49 47  1  0
 51 50  1  0
 51 52  1  0
 53 52  1  0
 53 54  1  0
 55 66  2  0
 56 54  1  0
 56 61  1  0
 57 65  1  0
 57 67  1  0
 58 64  1  0
 58 60  1  0
 59 65  1  0
 60 59  1  0
 61 60  2  0
 62 63  1  0
 62 56  2  0
 63 58  2  0
 64 57  1  0
 65 55  1  0
 67 69  2  0
 68 67  1  0
 70 68  1  0
 71 80  2  0
 71 76  1  0
 72 68  1  0
 72 76  1  0
 73 72  1  0
 74 75  1  0
 74 73  1  0
 75 71  1  0
 76 77  2  0
 77 78  1  0
 79 78  2  0
 80 79  1  0
 81 55  1  0
 81 82  1  0
 81 91  1  0
 82 85  1  0
 83 87  1  0
 83 82  1  0
 84 83  2  0
 87 86  1  0
 89 87  1  0
 89 90  1  0
 89 88  1  0
 91 94  1  1
 91 92  1  0
 93 91  1  0
M  ISO  4  13 100  14 100  53 101  54 101
M  END
>  <TORSDO>  (33) 
F 24

>  <SCORE>  (33) 
-12.336

>  <name>  (33) 
32

>  <ligand_id>  (33) 
32

>  <original_smiles>  (33) 
[H]c1c([H])c([H])c2c(c1[H])C([H])([H])C([H])([H])C([H])([H])C2([H])N([H])C(=O)C1([H])N(C(=O)C([H])(N([H])C(=O)C([H])(N([H])C([H])([H])[H])C([H])([H])[H])C(C([H])([H])[H])(C([H])([H])[H])C([H])([H])[H])C([H])([H])c2c([H])c(OC([H])([H])C([H])([H])C([H])([H])C([H])([H])C3([H])C([H])([H])C([H])([H])C([H])([H])C([H])([H])C3([H])C(=O)N([H])C([H])([H])C([H])([H])C([H])([H])C(=O)N3C([H])([H])C([H])([H])C([H])([H])C([H])(n4nc(-c5c([H])c([H])c(Oc6c([H])c([H])c(F)c([H])c6F)c([H])c5[H])c(C(=O)N([H])[H])c4N([H])[H])C3([H])[H])c([H])c([H])c2C1([H])[H]

>  <smiles>  (33) 
[H]c1c([H])c([H])c2c(c1[H])C([H])([H])C([H])([H])C([H])([H])C2([H])N([H])C(=O)C1([H])N(C(=O)C([H])(N([H])C(=O)C([H])(N([H])C([H])([H])[H])C([H])([H])[H])C(C([H])([H])[H])(C([H])([H])[H])C([H])([H])[H])C([H])([H])c2c([H])c(OC([H])([H])C([H])([H])C([H])([H])C([H])([H])C3([H])C([H])([H])C([H])([H])C([H])([H])C([H])([H])C3([H])C(=O)N([H])C([H])([H])C([H])([H])C([H])([H])C(=O)N3C([H])([H])C([H])([H])C([H])([H])C([H])(n4nc(-c5c([H])c([H])c(Oc6c([H])c([H])c(F)c([H])c6F)c([H])c5[H])c(C(=O)N([H])[H])c4N([H])[H])C3([H])[H])c([H])c([H])c2C1([H])[H]

$$$$
33:0:0
     RDKit          3D

101109  0  0  1  0  0  0  0  0999 V2000
  -29.1110  -22.1330   16.4050 C   0  0  0  0  0  2  0  0  0  0  0  0
  -29.9570  -21.3430   15.4100 C   0  0  0  0  0  2  0  0  0  0  0  0
  -29.2340  -21.3170   17.6920 C   0  0  0  0  0  2  0  0  0  0  0  0
  -31.1090  -20.7530   16.2470 C   0  0  0  0  0  2  0  0  0  0  0  0
  -30.7070  -20.7990   17.7570 C   0  0  1  0  0  0  0  0  0  0  0  0
  -31.6750  -21.7490   18.5220 C   0  0  0  0  0  0  0  0  0  0  0  0
  -31.1750  -22.9230   18.8800 N   0  0  0  0  0  0  0  0  0  0  0  0
  -32.8040  -21.3820   18.8490 O   0  0  0  0  0  0  0  0  0  0  0  0
  -30.2400  -23.0930   18.5390 H   0  0  0  0  0  0  0  0  0  0  0  0
  -31.6940  -23.9450   19.7750 C   0  0  0  0  0  2  0  0  0  0  0  0
  -30.5170  -24.8910   20.0290 C   0  0  0  0  0  2  0  0  0  0  0  0
  -30.0680  -25.6330   18.7450 C   0  0  0  0  0  2  0  0  0  0  0  0
  -28.6030  -26.0400   18.8120 C   0  0  0  0  0  2  0  0  0  0  0  0
  -28.4640  -26.9480   19.9030 O   0  0  0  0  0  0  0  0  0  0  0  0
  -24.7760  -31.8830   23.4700 C   0  0  0  0  0  0  0  0  0  0  0  0
  -27.2820  -27.6420   20.0130 C   0  0  0  0  0  0  0  0  0  0  0  0
  -23.5160  -30.6170   21.7660 C   0  0  0  0  0  3  0  0  0  0  0  0
  -24.9110  -29.1640   20.2130 C   0  0  0  0  0  0  0  0  0  0  0  0
  -26.0430  -30.9500   21.5400 C   0  0  0  0  0  2  0  0  0  0  0  0
  -26.0910  -29.6270   20.8080 C   0  0  0  0  0  0  0  0  0  0  0  0
  -27.2780  -28.8670   20.7120 C   0  0  0  0  0  3  0  0  0  0  0  0
  -26.0730  -27.1750   19.4460 C   0  0  0  0  0  3  0  0  0  0  0  0
  -24.8920  -27.9300   19.5420 C   0  0  0  0  0  3  0  0  0  0  0  0
  -23.6860  -30.0370   20.3380 C   0  0  0  0  0  2  0  0  0  0  0  0
  -24.8000  -31.1600   22.3190 N   0  0  0  0  0  0  0  0  0  0  0  0
  -23.7110  -32.1340   24.0490 O   0  0  0  0  0  0  0  0  0  0  0  0
  -22.8710  -29.5380   22.6640 C   0  0  0  0  0  0  0  0  0  0  0  0
  -21.5470  -29.3620   22.5260 N   0  0  0  0  0  0  0  0  0  0  0  0
  -23.5550  -28.8660   23.4400 O   0  0  0  0  0  0  0  0  0  0  0  0
  -21.0530  -29.9590   21.8760 H   0  0  0  0  0  0  0  0  0  0  0  0
  -18.1840  -28.1000   22.8930 C   0  0  0  0  0  0  0  0  0  0  0  0
  -20.7290  -28.3870   23.2460 C   0  0  0  0  0  3  0  0  0  0  0  0
  -20.8710  -26.9800   22.6230 C   0  0  0  0  0  2  0  0  0  0  0  0
  -19.8030  -26.6720   21.5700 C   0  0  0  0  0  2  0  0  0  0  0  0
  -18.4020  -26.7760   22.1820 C   0  0  0  0  0  2  0  0  0  0  0  0
  -19.2770  -28.8650   23.3790 C   0  0  0  0  0  0  0  0  0  0  0  0
  -19.0210  -30.1060   24.0020 C   0  0  0  0  0  3  0  0  0  0  0  0
  -17.7040  -30.5800   24.1470 C   0  0  0  0  0  3  0  0  0  0  0  0
  -16.6250  -29.8100   23.6840 C   0  0  0  0  0  3  0  0  0  0  0  0
  -16.8650  -28.5720   23.0600 C   0  0  0  0  0  3  0  0  0  0  0  0
  -26.0840  -32.4520   24.1010 C   0  0  0  0  0  3  0  0  0  0  0  0
  -25.8220  -33.8450   24.4880 N   0  0  0  0  0  0  0  0  0  0  0  0
  -26.1920  -34.9120   23.7700 C   0  0  0  0  0  0  0  0  0  0  0  0
  -26.8600  -34.8270   22.7370 O   0  0  0  0  0  0  0  0  0  0  0  0
  -25.2400  -33.9930   25.3000 H   0  0  0  0  0  0  0  0  0  0  0  0
  -24.5190  -36.7650   23.4820 C   0  0  0  0  0  1  0  0  0  0  0  0
  -25.7470  -36.2960   24.2790 C   0  0  0  0  0  3  0  0  0  0  0  0
  -27.9110  -37.0840   25.1330 C   0  0  0  0  0  1  0  0  0  0  0  0
  -26.8110  -37.3190   24.2010 N   0  0  0  0  0  0  0  0  0  0  0  0
  -26.4330  -38.2450   24.3870 H   0  0  0  0  0  0  0  0  0  0  0  0
  -26.5930  -31.6180   25.3370 C   0  0  1  0  0  0  0  0  0  0  0  0
  -25.5090  -31.3810   26.4150 C   0  0  0  0  0  1  0  0  0  0  0  0
  -27.1200  -30.2360   24.8830 C   0  0  0  0  0  1  0  0  0  0  0  0
  -27.7890  -32.3450   25.9950 C   0  0  0  0  0  1  0  0  0  0  0  0
  -30.7590  -19.3720   18.3860 C   0  0  0  0  0  2  0  0  0  0  0  0
  -30.9040  -19.1770   19.9370 C   0  0  0  0  0  3  0  0  0  0  0  0
  -32.2560  -18.7020   20.3170 N   0  0  0  0  0  4  0  0  0  0  0  0
  -32.3730  -18.8460   21.3080 H   0  0  0  0  0  0  0  0  0  0  0  0
  -32.9200  -19.3150   19.8500 H   0  0  0  0  0  0  0  0  0  0  0  0
  -32.6130  -17.2930   19.9990 C   0  0  0  0  0  2  0  0  0  0  0  0
  -31.6760  -16.1980   20.5950 C   0  0  0  0  0  2  0  0  0  0  0  0
  -32.2440  -14.7880   20.3620 C   0  0  0  0  0  0  0  0  0  0  0  0
  -31.7280  -12.5510   19.5080 C   0  0  0  0  0  2  0  0  0  0  0  0
  -30.8820  -12.6990   18.2280 C   0  0  0  0  0  2  0  0  0  0  0  0
  -29.3860  -12.7500   18.5910 C   0  0  0  0  0  2  0  0  0  0  0  0
  -29.0730  -13.7990   19.6900 C   0  0  0  0  0  3  0  0  0  0  0  0
  -30.0510  -13.6680   20.8800 C   0  0  0  0  0  2  0  0  0  0  0  0
  -31.4290  -13.7020   20.3670 N   0  0  0  0  0  0  0  0  0  0  0  0
  -33.4220  -14.7180   20.0000 O   0  0  0  0  0  0  0  0  0  0  0  0
  -26.7770  -14.7470   20.3670 C   0  0  0  0  0  0  0  0  0  0  0  0
  -25.5960  -14.1370   20.6790 C   0  0  0  0  0  0  0  0  0  0  0  0
  -25.8430  -12.7300   20.6120 C   0  0  0  0  0  0  0  0  0  0  0  0
  -27.6810  -13.7240   20.1260 N   0  0  0  0  0  0  0  0  0  0  0  0
  -27.1200  -12.5030   20.3380 N   0  0  0  0  0  0  0  0  0  0  0  0
  -24.9290  -11.5890   20.7350 C   0  0  0  0  0  0  0  0  0  0  0  0
  -25.2010  -10.5150   21.6100 C   0  0  0  0  0  3  0  0  0  0  0  0
  -24.2970   -9.4400   21.7250 C   0  0  0  0  0  3  0  0  0  0  0  0
  -23.1050   -9.4300   20.9600 C   0  0  0  0  0  0  0  0  0  0  0  0
  -22.8510  -10.4900   20.0720 C   0  0  0  0  0  3  0  0  0  0  0  0
  -23.7550  -11.5590   19.9570 C   0  0  0  0  0  3  0  0  0  0  0  0
  -22.1830   -8.4120   20.9850 O   0  0  0  0  0  0  0  0  0  0  0  0
  -21.9880   -7.6440   22.1050 C   0  0  0  0  0  0  0  0  0  0  0  0
  -21.6570   -8.2160   23.3520 C   0  0  0  0  0  3  0  0  0  0  0  0
  -21.3970   -7.3870   24.4610 C   0  0  0  0  0  3  0  0  0  0  0  0
  -21.4580   -5.9880   24.3250 C   0  0  0  0  0  0  0  0  0  0  0  0
  -21.7830   -5.4140   23.0820 C   0  0  0  0  0  3  0  0  0  0  0  0
  -22.0430   -6.2400   21.9750 C   0  0  0  0  0  0  0  0  0  0  0  0
  -22.3340   -5.6850   20.7740 F   0  0  0  0  0  0  0  0  0  0  0  0
  -21.2010   -5.1880   25.3870 F   0  0  0  0  0  0  0  0  0  0  0  0
  -24.2770  -14.8130   20.9300 C   0  0  0  0  0  0  0  0  0  0  0  0
  -23.4370  -14.2250   21.7710 N   0  0  0  0  0  0  0  0  0  0  0  0
  -24.0080  -15.8980   20.4130 O   0  0  0  0  0  0  0  0  0  0  0  0
  -23.6660  -13.3460   22.2140 H   0  0  0  0  0  0  0  0  0  0  0  0
  -22.5500  -14.6590   21.9820 H   0  0  0  0  0  0  0  0  0  0  0  0
  -27.1540  -16.0820   20.2440 N   0  0  0  0  0  0  0  0  0  0  0  0
  -26.4860  -16.8360   20.3540 H   0  0  0  0  0  0  0  0  0  0  0  0
  -28.0690  -16.4030   19.9540 H   0  0  0  0  0  0  0  0  0  0  0  0
  -30.4760  -20.3640   20.8420 C   0  0  0  0  0  2  0  0  0  0  0  0
  -32.2260  -20.6330   22.7170 C   0  0  0  0  0  1  0  0  0  0  0  0
  -29.7950  -20.9190   23.2470 C   0  0  0  0  0  1  0  0  0  0  0  0
  -30.7990  -20.1760   22.3470 C   0  0  0  0  0  3  0  0  0  0  0  0
  1  3  1  0
  2  4  1  0
  2  1  1  0
  3  5  1  0
  4  5  1  0
  5 55  1  1
  5  6  1  0
  6  8  2  0
  6  7  1  0
  7 10  1  0
  9  7  1  0
 10 11  1  0
 12 13  1  0
 12 11  1  0
 13 14  1  0
 14 16  1  0
 15 26  2  0
 16 21  1  0
 17 25  1  0
 17 27  1  0
 18 24  1  0
 18 20  1  0
 19 25  1  0
 20 19  1  0
 21 20  2  0
 22 23  1  0
 22 16  2  0
 23 18  2  0
 24 17  1  0
 25 15  1  0
 27 29  2  0
 28 27  1  0
 30 28  1  0
 31 40  2  0
 31 36  1  0
 32 28  1  0
 32 36  1  0
 33 32  1  0
 34 35  1  0
 34 33  1  0
 35 31  1  0
 36 37  2  0
 37 38  1  0
 39 38  2  0
 40 39  1  0
 41 15  1  0
 41 42  1  0
 41 51  1  0
 42 45  1  0
 43 47  1  0
 43 42  1  0
 44 43  2  0
 47 46  1  0
 49 47  1  0
 49 50  1  0
 49 48  1  0
 51 54  1  1
 51 52  1  0
 53 51  1  0
 56 55  1  0
 56 57  1  0
 56 98  1  0
 57 58  1  0
 59 57  1  0
 60 57  1  0
 60 61  1  0
 62 68  1  0
 62 61  1  0
 63 68  1  0
 64 65  1  0
 64 63  1  0
 66 65  1  0
 66 73  1  0
 66 67  1  0
 68 67  1  0
 69 62  2  0
 70 71  2  0
 71 90  1  0
 72 71  1  0
 72 75  1  0
 73 74  1  0
 73 70  1  0
 74 72  2  0
 75 76  1  0
 76 77  2  0
 78 81  1  0
 78 77  1  0
 79 78  2  0
 80 79  1  0
 80 75  2  0
 81 82  1  0
 82 83  1  0
 83 84  2  0
 85 84  1  0
 85 89  1  0
 86 85  2  0
 87 82  2  0
 87 86  1  0
 88 87  1  0
 90 91  1  0
 91 94  1  0
 91 93  1  0
 92 90  2  0
 95 96  1  0
 95 70  1  0
 97 95  1  0
 98101  1  0
101 99  1  0
101100  1  0
M  ISO  4  13 101  14 101  61 100  62 100
M  END
>  <TORSDO>  (34) 
F 28

>  <SCORE>  (34) 
-9.279

>  <name>  (34) 
33

>  <ligand_id>  (34) 
33

>  <original_smiles>  (34) 
[H]c1c([H])c([H])c2c(c1[H])C([H])([H])C([H])([H])C([H])([H])C2([H])N([H])C(=O)C1([H])N(C(=O)C([H])(N([H])C(=O)C([H])(N([H])C([H])([H])[H])C([H])([H])[H])C(C([H])([H])[H])(C([H])([H])[H])C([H])([H])[H])C([H])([H])c2c([H])c(OC([H])([H])C([H])([H])C([H])([H])C([H])([H])N([H])C(=O)C3(C([H])([H])C([H])(C([H])([H])C([H])(C([H])([H])[H])C([H])([H])[H])[N+]([H])([H])C([H])([H])C([H])([H])C(=O)N4C([H])([H])C([H])([H])C([H])([H])C([H])(n5nc(-c6c([H])c([H])c(Oc7c([H])c([H])c(F)c([H])c7F)c([H])c6[H])c(C(=O)N([H])[H])c5N([H])[H])C4([H])[H])C([H])([H])C([H])([H])C([H])([H])C3([H])[H])c([H])c([H])c2C1([H])[H]

>  <smiles>  (34) 
[H]c1c([H])c([H])c2c(c1[H])C([H])([H])C([H])([H])C([H])([H])C2([H])N([H])C(=O)C1([H])N(C(=O)C([H])(N([H])C(=O)C([H])(N([H])C([H])([H])[H])C([H])([H])[H])C(C([H])([H])[H])(C([H])([H])[H])C([H])([H])[H])C([H])([H])c2c([H])c(OC([H])([H])C([H])([H])C([H])([H])C([H])([H])N([H])C(=O)C3(C([H])([H])C([H])(C([H])([H])C([H])(C([H])([H])[H])C([H])([H])[H])[N+]([H])([H])C([H])([H])C([H])([H])C(=O)N4C([H])([H])C([H])([H])C([H])([H])C([H])(n5nc(-c6c([H])c([H])c(Oc7c([H])c([H])c(F)c([H])c7F)c([H])c6[H])c(C(=O)N([H])[H])c5N([H])[H])C4([H])[H])C([H])([H])C([H])([H])C([H])([H])C3([H])[H])c([H])c([H])c2C1([H])[H]

$$$$
34:0:0
     RDKit          3D

 98107  0  0  1  0  0  0  0  0999 V2000
  -29.0760  -22.5510   20.0310 N   0  0  0  0  0  4  0  0  0  0  0  0
  -29.0310  -22.7330   21.0300 H   0  0  0  0  0  0  0  0  0  0  0  0
  -29.0590  -25.5770   16.8850 C   0  0  0  0  0  3  0  0  0  0  0  0
  -28.8850  -26.0760   18.1790 C   0  0  0  0  0  3  0  0  0  0  0  0
  -28.9970  -23.3470   17.7950 C   0  0  0  0  0  3  0  0  0  0  0  0
  -29.0600  -24.2020   16.6850 C   0  0  0  0  0  0  0  0  0  0  0  0
  -28.9100  -23.7610   19.1590 C   0  0  0  0  0  0  0  0  0  0  0  0
  -28.6910  -25.2790   19.3420 C   0  0  0  0  0  0  0  0  0  0  0  0
  -29.1510  -23.6480   15.2760 C   0  0  0  0  0  1  0  0  0  0  0  0
  -28.3670  -26.2330   20.4140 O   0  0  0  0  0  0  0  0  0  0  0  0
  -24.6350  -32.0040   23.2600 C   0  0  0  0  0  0  0  0  0  0  0  0
  -27.3180  -27.2450   20.3300 C   0  0  0  0  0  0  0  0  0  0  0  0
  -23.4710  -30.5480   21.6520 C   0  0  0  0  0  3  0  0  0  0  0  0
  -24.9550  -28.9630   20.2730 C   0  0  0  0  0  0  0  0  0  0  0  0
  -26.0240  -30.8470   21.4940 C   0  0  0  0  0  2  0  0  0  0  0  0
  -26.1280  -29.4390   20.8710 C   0  0  0  0  0  0  0  0  0  0  0  0
  -27.3100  -28.5940   20.8840 C   0  0  0  0  0  3  0  0  0  0  0  0
  -26.0990  -26.8740   19.7160 C   0  0  0  0  0  3  0  0  0  0  0  0
  -24.9530  -27.6940   19.6810 C   0  0  0  0  0  3  0  0  0  0  0  0
  -23.7130  -29.8410   20.2910 C   0  0  0  0  0  2  0  0  0  0  0  0
  -24.7310  -31.1570   22.1890 N   0  0  0  0  0  0  0  0  0  0  0  0
  -23.5400  -32.2820   23.7730 O   0  0  0  0  0  0  0  0  0  0  0  0
  -22.8020  -29.5530   22.6340 C   0  0  0  0  0  0  0  0  0  0  0  0
  -21.4800  -29.3400   22.4930 N   0  0  0  0  0  0  0  0  0  0  0  0
  -23.4750  -28.9750   23.4910 O   0  0  0  0  0  0  0  0  0  0  0  0
  -20.9900  -29.8620   21.7800 H   0  0  0  0  0  0  0  0  0  0  0  0
  -18.1330  -28.0310   22.9630 C   0  0  0  0  0  0  0  0  0  0  0  0
  -20.6720  -28.4040   23.2820 C   0  0  0  0  0  3  0  0  0  0  0  0
  -20.8420  -26.9540   22.7710 C   0  0  0  0  0  2  0  0  0  0  0  0
  -19.7800  -26.5470   21.7440 C   0  0  0  0  0  2  0  0  0  0  0  0
  -18.3780  -26.6640   22.3480 C   0  0  0  0  0  2  0  0  0  0  0  0
  -19.2100  -28.8560   23.3860 C   0  0  0  0  0  0  0  0  0  0  0  0
  -18.9250  -30.1310   23.9220 C   0  0  0  0  0  3  0  0  0  0  0  0
  -17.5970  -30.5840   24.0400 C   0  0  0  0  0  3  0  0  0  0  0  0
  -16.5360  -29.7590   23.6290 C   0  0  0  0  0  3  0  0  0  0  0  0
  -16.8040  -28.4840   23.1000 C   0  0  0  0  0  3  0  0  0  0  0  0
  -25.8950  -32.6820   23.8770 C   0  0  0  0  0  3  0  0  0  0  0  0
  -25.5400  -34.0710   24.2070 N   0  0  0  0  0  0  0  0  0  0  0  0
  -25.8210  -35.1360   23.4430 C   0  0  0  0  0  0  0  0  0  0  0  0
  -26.4710  -35.0530   22.3980 O   0  0  0  0  0  0  0  0  0  0  0  0
  -24.9550  -34.2050   25.0200 H   0  0  0  0  0  0  0  0  0  0  0  0
  -24.0170  -36.8690   23.1460 C   0  0  0  0  0  1  0  0  0  0  0  0
  -25.3010  -36.5100   23.9120 C   0  0  0  0  0  3  0  0  0  0  0  0
  -27.4290  -37.4830   24.6610 C   0  0  0  0  0  1  0  0  0  0  0  0
  -26.2880  -37.5990   23.7550 N   0  0  0  0  0  0  0  0  0  0  0  0
  -25.8530  -38.5040   23.9120 H   0  0  0  0  0  0  0  0  0  0  0  0
  -26.4330  -31.9340   25.1600 C   0  0  1  0  0  0  0  0  0  0  0  0
  -25.3410  -31.6320   26.2130 C   0  0  0  0  0  1  0  0  0  0  0  0
  -27.0990  -30.5930   24.7780 C   0  0  0  0  0  1  0  0  0  0  0  0
  -27.5280  -32.7890   25.8430 C   0  0  0  0  0  1  0  0  0  0  0  0
  -29.6100  -21.0970   19.6060 C   0  0  0  0  0  0  0  0  0  0  0  0
  -30.5600  -20.3810   21.9100 C   0  0  0  0  0  2  0  0  0  0  0  0
  -32.0900  -20.4960   21.7530 C   0  0  0  0  0  2  0  0  0  0  0  0
  -32.2090  -18.4240   20.3830 C   0  0  0  0  0  2  0  0  0  0  0  0
  -29.8850  -19.7750   20.6610 C   0  0  0  0  0  3  0  0  0  0  0  0
  -30.6720  -18.2280   20.4960 C   0  0  0  0  0  3  0  0  0  0  0  0
  -34.2220  -19.2970   21.5200 C   0  0  0  0  0  1  0  0  0  0  0  0
  -32.7460  -19.1820   21.5420 N   0  0  1  0  0  4  0  0  0  0  0  0
  -32.5310  -18.6280   22.3590 H   0  0  0  0  0  0  0  0  0  0  0  0
  -30.1700  -16.6940   19.9520 C   0  0  0  0  0  2  0  0  0  0  0  0
  -30.9760  -15.2170   20.0430 C   0  0  0  0  0  0  0  0  0  0  0  0
  -30.8300  -12.8350   19.2060 C   0  0  0  0  0  2  0  0  0  0  0  0
  -29.8860  -12.7890   17.9820 C   0  0  0  0  0  2  0  0  0  0  0  0
  -28.4250  -12.5970   18.4240 C   0  0  0  0  0  2  0  0  0  0  0  0
  -28.0410  -13.5500   19.5830 C   0  0  0  0  0  3  0  0  0  0  0  0
  -29.1000  -13.5800   20.7010 C   0  0  0  0  0  2  0  0  0  0  0  0
  -30.3820  -13.9540   20.0850 N   0  0  0  0  0  0  0  0  0  0  0  0
  -32.1890  -15.2150   19.8000 O   0  0  0  0  0  0  0  0  0  0  0  0
  -25.7040  -14.1820   20.4030 C   0  0  0  0  0  0  0  0  0  0  0  0
  -24.6220  -13.4340   20.7710 C   0  0  0  0  0  0  0  0  0  0  0  0
  -25.0370  -12.0680   20.6840 C   0  0  0  0  0  0  0  0  0  0  0  0
  -26.7060  -13.2770   20.1020 N   0  0  0  0  0  0  0  0  0  0  0  0
  -26.3170  -11.9970   20.3380 N   0  0  0  0  0  0  0  0  0  0  0  0
  -24.2720  -10.8270   20.8510 C   0  0  0  0  0  0  0  0  0  0  0  0
  -24.6500   -9.8400   21.7870 C   0  0  0  0  0  3  0  0  0  0  0  0
  -23.8830   -8.6630   21.9360 C   0  0  0  0  0  3  0  0  0  0  0  0
  -22.7250   -8.4650   21.1470 C   0  0  0  0  0  0  0  0  0  0  0  0
  -22.3720   -9.4390   20.1960 C   0  0  0  0  0  3  0  0  0  0  0  0
  -23.1390  -10.6070   20.0450 C   0  0  0  0  0  3  0  0  0  0  0  0
  -21.9320   -7.3450   21.2070 O   0  0  0  0  0  0  0  0  0  0  0  0
  -21.7660   -6.6430   22.3750 C   0  0  0  0  0  0  0  0  0  0  0  0
  -21.2400   -7.2440   23.5390 C   0  0  0  0  0  3  0  0  0  0  0  0
  -21.0210   -6.4680   24.6950 C   0  0  0  0  0  3  0  0  0  0  0  0
  -21.3170   -5.0910   24.6870 C   0  0  0  0  0  0  0  0  0  0  0  0
  -21.8360   -4.4910   23.5250 C   0  0  0  0  0  3  0  0  0  0  0  0
  -22.0560   -5.2630   22.3720 C   0  0  0  0  0  0  0  0  0  0  0  0
  -22.5350   -4.6740   21.2510 F   0  0  0  0  0  0  0  0  0  0  0  0
  -21.1000   -4.3440   25.7940 F   0  0  0  0  0  0  0  0  0  0  0  0
  -23.2490  -13.9470   21.0920 C   0  0  0  0  0  0  0  0  0  0  0  0
  -22.5220  -13.2500   21.9590 N   0  0  0  0  0  0  0  0  0  0  0  0
  -22.8320  -15.0010   20.6100 O   0  0  0  0  0  0  0  0  0  0  0  0
  -22.8740  -12.3990   22.3730 H   0  0  0  0  0  0  0  0  0  0  0  0
  -21.5960  -13.5670   22.2120 H   0  0  0  0  0  0  0  0  0  0  0  0
  -25.9180  -15.5520   20.2690 N   0  0  0  0  0  0  0  0  0  0  0  0
  -25.1900  -16.2410   20.4240 H   0  0  0  0  0  0  0  0  0  0  0  0
  -26.7830  -15.9640   19.9410 H   0  0  0  0  0  0  0  0  0  0  0  0
  -31.6310  -22.4400   18.5390 C   0  0  0  0  0  1  0  0  0  0  0  0
  -30.7150  -21.2020   18.5180 C   0  0  0  0  0  2  0  0  0  0  0  0
  1  2  1  0
  3  4  1  0
  4  8  2  0
  5  7  2  0
  6  3  2  0
  6  5  1  0
  7  8  1  0
  7  1  1  0
  8 10  1  0
  9  6  1  0
 11 22  2  0
 12 10  1  0
 12 17  1  0
 13 21  1  0
 13 23  1  0
 14 20  1  0
 14 16  1  0
 15 21  1  0
 16 17  2  0
 16 15  1  0
 18 12  2  0
 19 18  1  0
 19 14  2  0
 20 13  1  0
 21 11  1  0
 23 25  2  0
 24 23  1  0
 26 24  1  0
 27 36  2  0
 27 32  1  0
 28 24  1  0
 28 32  1  0
 29 28  1  0
 30 31  1  0
 30 29  1  0
 31 27  1  0
 32 33  2  0
 33 34  1  0
 35 34  2  0
 36 35  1  0
 37 11  1  0
 37 38  1  0
 37 47  1  0
 38 41  1  0
 39 43  1  0
 39 38  1  0
 40 39  2  0
 43 42  1  0
 45 46  1  0
 45 43  1  0
 45 44  1  0
 47 50  1  1
 47 48  1  0
 49 47  1  0
 51  1  2  0
 53 52  1  0
 54 56  1  0
 54 58  1  0
 55 51  1  0
 55 52  1  0
 56 60  1  0
 56 55  1  0
 57 58  1  0
 58 53  1  0
 58 59  1  1
 60 61  1  0
 61 67  1  0
 62 67  1  0
 63 64  1  0
 63 62  1  0
 65 64  1  0
 65 72  1  0
 65 66  1  0
 67 66  1  0
 68 61  2  0
 69 70  2  0
 70 89  1  0
 71 70  1  0
 71 74  1  0
 72 73  1  0
 72 69  1  0
 73 71  2  0
 74 75  1  0
 75 76  2  0
 77 80  1  0
 77 76  1  0
 78 77  2  0
 79 78  1  0
 79 74  2  0
 80 81  1  0
 81 82  1  0
 82 83  2  0
 84 83  1  0
 84 88  1  0
 85 84  2  0
 86 81  2  0
 86 85  1  0
 87 86  1  0
 89 90  1  0
 90 93  1  0
 90 92  1  0
 91 89  2  0
 94 69  1  0
 94 95  1  0
 96 94  1  0
 98 97  1  0
 98 51  1  0
M  ISO  4   8 101  10 101  60 100  61 100
M  END
>  <TORSDO>  (35) 
F 21

>  <SCORE>  (35) 
-13.857

>  <name>  (35) 
34

>  <ligand_id>  (35) 
34

>  <original_smiles>  (35) 
[H]c1c([H])c([H])c2c(c1[H])C([H])([H])C([H])([H])C([H])([H])C2([H])N([H])C(=O)C1([H])N(C(=O)C([H])(N([H])C(=O)C([H])(N([H])C([H])([H])[H])C([H])([H])[H])C(C([H])([H])[H])(C([H])([H])[H])C([H])([H])[H])C([H])([H])c2c([H])c(Oc3c([H])c([H])c(C([H])([H])[H])c([H])c3N([H])C([H])(C([H])([H])C([H])([H])[H])C3([H])C([H])([H])C([H])([H])[N+]([H])(C([H])([H])[H])C([H])([H])C3([H])C([H])([H])C(=O)N3C([H])([H])C([H])([H])C([H])([H])C([H])(n4nc(-c5c([H])c([H])c(Oc6c([H])c([H])c(F)c([H])c6F)c([H])c5[H])c(C(=O)N([H])[H])c4N([H])[H])C3([H])[H])c([H])c([H])c2C1([H])[H]

>  <smiles>  (35) 
[H]c1c([H])c([H])c2c(c1[H])C([H])([H])C([H])([H])C([H])([H])C2([H])N([H])C(=O)C1([H])N(C(=O)C([H])(N([H])C(=O)C([H])(N([H])C([H])([H])[H])C([H])([H])[H])C(C([H])([H])[H])(C([H])([H])[H])C([H])([H])[H])C([H])([H])c2c([H])c(Oc3c([H])c([H])c(C([H])([H])[H])c([H])c3N([H])C([H])(C([H])([H])C([H])([H])[H])C3([H])C([H])([H])C([H])([H])[N+]([H])(C([H])([H])[H])C([H])([H])C3([H])C([H])([H])C(=O)N3C([H])([H])C([H])([H])C([H])([H])C([H])(n4nc(-c5c([H])c([H])c(Oc6c([H])c([H])c(F)c([H])c6F)c([H])c5[H])c(C(=O)N([H])[H])c4N([H])[H])C3([H])[H])c([H])c([H])c2C1([H])[H]

$$$$
35:0:0
     RDKit          3D

 90 98  0  0  1  0  0  0  0  0999 V2000
  -29.0780  -21.1860   20.6160 C   0  0  0  0  0  3  0  0  0  0  0  0
  -28.9190  -22.5430   19.7870 C   0  0  0  0  0  2  0  0  0  0  0  0
  -28.3670  -23.8580   20.5150 C   0  0  0  0  0  3  0  0  0  0  0  0
  -28.2970  -25.2030   19.6620 C   0  0  0  0  0  3  0  0  0  0  0  0
  -28.1590  -26.5110   20.3350 O   0  0  0  0  0  0  0  0  0  0  0  0
  -24.5370  -31.9760   23.2850 C   0  0  0  0  0  0  0  0  0  0  0  0
  -27.0130  -27.3150   20.2740 C   0  0  0  0  0  0  0  0  0  0  0  0
  -23.2770  -30.5680   21.6920 C   0  0  0  0  0  3  0  0  0  0  0  0
  -24.6700  -28.9570   20.2750 C   0  0  0  0  0  0  0  0  0  0  0  0
  -25.8150  -30.8350   21.4590 C   0  0  0  0  0  2  0  0  0  0  0  0
  -25.8550  -29.4420   20.8410 C   0  0  0  0  0  0  0  0  0  0  0  0
  -27.0240  -28.6300   20.8320 C   0  0  0  0  0  3  0  0  0  0  0  0
  -25.8020  -26.8700   19.6990 C   0  0  0  0  0  3  0  0  0  0  0  0
  -24.6450  -27.6760   19.6980 C   0  0  0  0  0  3  0  0  0  0  0  0
  -23.4510  -29.8570   20.3240 C   0  0  0  0  0  2  0  0  0  0  0  0
  -24.5640  -31.1450   22.2020 N   0  0  0  0  0  0  0  0  0  0  0  0
  -23.4690  -32.2860   23.8320 O   0  0  0  0  0  0  0  0  0  0  0  0
  -22.6110  -29.5860   22.6850 C   0  0  0  0  0  0  0  0  0  0  0  0
  -21.2910  -29.3820   22.5390 N   0  0  0  0  0  0  0  0  0  0  0  0
  -23.2820  -29.0090   23.5450 O   0  0  0  0  0  0  0  0  0  0  0  0
  -20.8100  -29.8970   21.8150 H   0  0  0  0  0  0  0  0  0  0  0  0
  -17.9370  -28.1010   22.9680 C   0  0  0  0  0  0  0  0  0  0  0  0
  -20.4700  -28.4690   23.3340 C   0  0  0  0  0  3  0  0  0  0  0  0
  -20.6460  -27.0080   22.8600 C   0  0  0  0  0  2  0  0  0  0  0  0
  -19.6040  -26.5800   21.8220 C   0  0  0  0  0  2  0  0  0  0  0  0
  -18.1900  -26.7180   22.3930 C   0  0  0  0  0  2  0  0  0  0  0  0
  -19.0080  -28.9300   23.3940 C   0  0  0  0  0  0  0  0  0  0  0  0
  -18.7210  -30.2200   23.8890 C   0  0  0  0  0  3  0  0  0  0  0  0
  -17.3940  -30.6840   23.9630 C   0  0  0  0  0  3  0  0  0  0  0  0
  -16.3360  -29.8530   23.5530 C   0  0  0  0  0  3  0  0  0  0  0  0
  -16.6080  -28.5650   23.0610 C   0  0  0  0  0  3  0  0  0  0  0  0
  -25.8440  -32.5930   23.8730 C   0  0  0  0  0  3  0  0  0  0  0  0
  -25.5660  -34.0010   24.1880 N   0  0  0  0  0  0  0  0  0  0  0  0
  -25.8940  -35.0350   23.4010 C   0  0  0  0  0  0  0  0  0  0  0  0
  -26.5300  -34.9030   22.3520 O   0  0  0  0  0  0  0  0  0  0  0  0
  -24.9950  -34.1780   25.0010 H   0  0  0  0  0  0  0  0  0  0  0  0
  -24.1770  -36.8470   23.0810 C   0  0  0  0  0  1  0  0  0  0  0  0
  -25.4440  -36.4400   23.8490 C   0  0  0  0  0  3  0  0  0  0  0  0
  -27.6210  -37.3130   24.5760 C   0  0  0  0  0  1  0  0  0  0  0  0
  -26.4850  -37.4760   23.6730 N   0  0  0  0  0  0  0  0  0  0  0  0
  -26.0970  -38.4050   23.8160 H   0  0  0  0  0  0  0  0  0  0  0  0
  -26.3700  -31.8300   25.1510 C   0  0  1  0  0  0  0  0  0  0  0  0
  -25.2880  -31.6080   26.2340 C   0  0  0  0  0  1  0  0  0  0  0  0
  -26.9400  -30.4450   24.7670 C   0  0  0  0  0  1  0  0  0  0  0  0
  -27.5340  -32.6240   25.7920 C   0  0  0  0  0  1  0  0  0  0  0  0
  -29.8440  -19.9410   19.9370 C   0  0  0  0  0  3  0  0  0  0  0  0
  -32.6480  -18.5400   21.1660 C   0  0  0  0  0  2  0  0  0  0  0  0
  -32.3120  -17.6320   20.2580 C   0  0  0  0  0  2  0  0  0  0  0  0
  -31.4430  -19.2420   21.7230 C   0  0  0  0  0  3  0  0  0  0  0  0
  -30.8160  -17.5110   20.1160 C   0  0  0  0  0  3  0  0  0  0  0  0
  -31.1870  -18.8980   23.1980 C   0  0  0  0  0  1  0  0  0  0  0  0
  -30.3260  -18.7910   20.8310 N   0  0  2  0  0  4  0  0  0  0  0  0
  -29.5360  -18.5440   21.4100 H   0  0  0  0  0  0  0  0  0  0  0  0
  -30.3600  -16.0950   20.7200 C   0  0  0  0  0  2  0  0  0  0  0  0
  -31.1230  -14.7650   20.2900 C   0  0  0  0  0  0  0  0  0  0  0  0
  -30.8440  -12.5100   19.2680 C   0  0  0  0  0  2  0  0  0  0  0  0
  -29.8920  -12.6380   18.0560 C   0  0  0  0  0  2  0  0  0  0  0  0
  -28.4210  -12.5170   18.5030 C   0  0  0  0  0  2  0  0  0  0  0  0
  -28.0950  -13.4170   19.7220 C   0  0  0  0  0  3  0  0  0  0  0  0
  -29.1600  -13.2750   20.8310 C   0  0  0  0  0  2  0  0  0  0  0  0
  -30.4740  -13.5590   20.2410 N   0  0  0  0  0  0  0  0  0  0  0  0
  -32.2760  -14.8580   19.8580 O   0  0  0  0  0  0  0  0  0  0  0  0
  -25.7520  -14.0980   20.5230 C   0  0  0  0  0  0  0  0  0  0  0  0
  -24.6580  -13.3610   20.8880 C   0  0  0  0  0  0  0  0  0  0  0  0
  -25.0570  -11.9920   20.7970 C   0  0  0  0  0  0  0  0  0  0  0  0
  -26.7480  -13.1790   20.2290 N   0  0  0  0  0  0  0  0  0  0  0  0
  -26.3360  -11.9050   20.4560 N   0  0  0  0  0  0  0  0  0  0  0  0
  -24.2760  -10.7580   20.9560 C   0  0  0  0  0  0  0  0  0  0  0  0
  -24.6610   -9.7550   21.8720 C   0  0  0  0  0  3  0  0  0  0  0  0
  -23.8850   -8.5850   22.0210 C   0  0  0  0  0  3  0  0  0  0  0  0
  -22.7100   -8.4100   21.2510 C   0  0  0  0  0  0  0  0  0  0  0  0
  -22.3450   -9.4010   20.3230 C   0  0  0  0  0  3  0  0  0  0  0  0
  -23.1210  -10.5630   20.1730 C   0  0  0  0  0  3  0  0  0  0  0  0
  -21.9080   -7.2960   21.3100 O   0  0  0  0  0  0  0  0  0  0  0  0
  -21.7870   -6.5560   22.4590 C   0  0  0  0  0  0  0  0  0  0  0  0
  -21.3330   -7.1280   23.6680 C   0  0  0  0  0  3  0  0  0  0  0  0
  -21.1570   -6.3160   24.8070 C   0  0  0  0  0  3  0  0  0  0  0  0
  -21.4250   -4.9360   24.7360 C   0  0  0  0  0  0  0  0  0  0  0  0
  -21.8700   -4.3640   23.5320 C   0  0  0  0  0  3  0  0  0  0  0  0
  -22.0480   -5.1730   22.3950 C   0  0  0  0  0  0  0  0  0  0  0  0
  -22.4580   -4.6150   21.2310 F   0  0  0  0  0  0  0  0  0  0  0  0
  -21.2470   -4.1540   25.8280 F   0  0  0  0  0  0  0  0  0  0  0  0
  -23.2910  -13.8900   21.2100 C   0  0  0  0  0  0  0  0  0  0  0  0
  -22.5620  -13.2110   22.0880 N   0  0  0  0  0  0  0  0  0  0  0  0
  -22.8800  -14.9400   20.7180 O   0  0  0  0  0  0  0  0  0  0  0  0
  -22.9080  -12.3600   22.5070 H   0  0  0  0  0  0  0  0  0  0  0  0
  -21.6440  -13.5450   22.3460 H   0  0  0  0  0  0  0  0  0  0  0  0
  -25.9760  -15.4650   20.3930 N   0  0  0  0  0  0  0  0  0  0  0  0
  -25.2390  -16.1470   20.5350 H   0  0  0  0  0  0  0  0  0  0  0  0
  -26.8310  -15.8720   20.0340 H   0  0  0  0  0  0  0  0  0  0  0  0
  2  3  1  0
  2  1  1  0
  4  5  1  0
  4  3  2  0
  6 17  2  0
  7  5  1  0
  7 12  1  0
  8 16  1  0
  8 18  1  0
  9 15  1  0
  9 11  1  0
 10 16  1  0
 11 10  1  0
 12 11  2  0
 13  7  2  0
 14 13  1  0
 14  9  2  0
 15  8  1  0
 16  6  1  0
 18 20  2  0
 19 18  1  0
 21 19  1  0
 22 31  2  0
 22 27  1  0
 23 19  1  0
 23 27  1  0
 24 23  1  0
 25 26  1  0
 25 24  1  0
 26 22  1  0
 27 28  2  0
 28 29  1  0
 30 29  2  0
 31 30  1  0
 32  6  1  0
 32 33  1  0
 32 42  1  0
 33 36  1  0
 34 38  1  0
 34 33  1  0
 35 34  2  0
 38 37  1  0
 40 41  1  0
 40 38  1  0
 40 39  1  0
 42 45  1  1
 42 43  1  0
 44 42  1  0
 46  1  2  0
 46 52  1  0
 47 49  1  0
 48 47  1  0
 49 51  1  0
 50 48  1  0
 50 54  1  0
 50 52  1  0
 52 53  1  1
 52 49  1  0
 55 54  1  0
 56 61  1  0
 57 58  1  0
 57 56  1  0
 59 58  1  0
 59 66  1  0
 59 60  1  0
 61 55  1  0
 61 60  1  0
 62 55  2  0
 63 64  2  0
 64 83  1  0
 65 64  1  0
 65 68  1  0
 66 67  1  0
 66 63  1  0
 67 65  2  0
 68 69  1  0
 69 70  2  0
 71 74  1  0
 71 70  1  0
 72 71  2  0
 73 72  1  0
 73 68  2  0
 74 75  1  0
 75 76  1  0
 76 77  2  0
 78 77  1  0
 78 82  1  0
 79 78  2  0
 80 75  2  0
 80 79  1  0
 81 80  1  0
 83 84  1  0
 84 87  1  0
 84 86  1  0
 85 83  2  0
 88 63  1  0
 88 89  1  0
 90 88  1  0
M  ISO  4   4 101   5 101  54 100  55 100
M  END
>  <TORSDO>  (36) 
F 22

>  <SCORE>  (36) 
-12.556

>  <name>  (36) 
35

>  <ligand_id>  (36) 
35

>  <original_smiles>  (36) 
[H]C1=C([H])C([H])(C([H])([H])C(=O)N2C([H])([H])C([H])([H])C([H])([H])C([H])(n3nc(-c4c([H])c([H])c(Oc5c([H])c([H])c(F)c([H])c5F)c([H])c4[H])c(C(=O)N([H])[H])c3N([H])[H])C2([H])[H])[N+]([H])(C([H])([H])C([H])([H])C([H])([H])C([H])([H])C([H])([H])Oc2c([H])c([H])c3c(c2[H])C([H])([H])N(C(=O)C([H])(N([H])C(=O)C([H])(N([H])C([H])([H])[H])C([H])([H])[H])C(C([H])([H])[H])(C([H])([H])[H])C([H])([H])[H])C([H])(C(=O)N([H])C2([H])c4c([H])c([H])c([H])c([H])c4C([H])([H])C([H])([H])C2([H])[H])C3([H])[H])C1([H])C([H])([H])[H]

>  <smiles>  (36) 
[H]C1=C([H])C([H])(C([H])([H])C(=O)N2C([H])([H])C([H])([H])C([H])([H])C([H])(n3nc(-c4c([H])c([H])c(Oc5c([H])c([H])c(F)c([H])c5F)c([H])c4[H])c(C(=O)N([H])[H])c3N([H])[H])C2([H])[H])[N+]([H])(C([H])([H])C([H])([H])C([H])([H])C([H])([H])C([H])([H])Oc2c([H])c([H])c3c(c2[H])C([H])([H])N(C(=O)C([H])(N([H])C(=O)C([H])(N([H])C([H])([H])[H])C([H])([H])[H])C(C([H])([H])[H])(C([H])([H])[H])C([H])([H])[H])C([H])(C(=O)N([H])C2([H])c4c([H])c([H])c([H])c([H])c4C([H])([H])C([H])([H])C2([H])[H])C3([H])[H])C1([H])C([H])([H])[H]

$$$$
36:0:0
     RDKit          3D

100109  0  0  1  0  0  0  0  0999 V2000
  -30.7040  -23.0970   14.5930 C   0  0  0  0  0  2  0  0  0  0  0  0
  -30.4250  -21.6090   14.8810 C   0  0  0  0  0  2  0  0  0  0  0  0
  -31.5100  -23.7610   15.7250 C   0  0  0  0  0  2  0  0  0  0  0  0
  -30.7190  -22.0780   17.3390 C   0  0  0  0  0  2  0  0  0  0  0  0
  -29.8160  -21.3960   16.2880 C   0  0  0  0  0  3  0  0  0  0  0  0
  -30.8540  -23.5250   17.0340 N   0  0  1  0  0  4  0  0  0  0  0  0
  -29.9070  -23.8500   16.9250 H   0  0  0  0  0  0  0  0  0  0  0  0
  -29.5510  -19.8900   16.5410 C   0  0  0  0  0  2  0  0  0  0  0  0
  -27.9900  -18.2170   17.7130 C   0  0  0  0  0  2  0  0  0  0  0  0
  -28.4630  -17.2320   18.7910 C   0  0  0  0  0  2  0  0  0  0  0  0
  -29.7530  -19.2410   19.0650 C   0  0  0  0  0  2  0  0  0  0  0  0
  -28.8190  -19.5090   17.8590 C   0  0  0  0  0  3  0  0  0  0  0  0
  -29.1660  -18.0580   19.8840 C   0  0  1  0  0  0  0  0  0  0  0  0
  -28.1760  -18.5760   20.8590 N   0  0  0  0  0  4  0  0  0  0  0  0
  -27.4210  -19.0460   20.3900 H   0  0  0  0  0  0  0  0  0  0  0  0
  -28.5950  -19.2420   21.4870 H   0  0  0  0  0  0  0  0  0  0  0  0
  -27.7710  -17.8450   21.4170 H   0  0  0  0  0  0  0  0  0  0  0  0
  -30.2940  -17.2540   20.6140 C   0  0  0  0  0  2  0  0  0  0  0  0
  -29.9280  -15.8400   21.1820 C   0  0  0  0  0  2  0  0  0  0  0  0
  -30.6610  -14.6330   20.5250 C   0  0  0  0  0  0  0  0  0  0  0  0
  -30.4170  -12.4750   19.3450 C   0  0  0  0  0  2  0  0  0  0  0  0
  -29.4930  -12.6970   18.1290 C   0  0  0  0  0  2  0  0  0  0  0  0
  -28.0100  -12.5540   18.5330 C   0  0  0  0  0  2  0  0  0  0  0  0
  -27.6550  -13.3550   19.8150 C   0  0  0  0  0  3  0  0  0  0  0  0
  -28.6990  -13.1150   20.9290 C   0  0  0  0  0  2  0  0  0  0  0  0
  -30.0220  -13.4400   20.3810 N   0  0  0  0  0  0  0  0  0  0  0  0
  -31.7920  -14.8150   20.0640 O   0  0  0  0  0  0  0  0  0  0  0  0
  -25.2360  -13.9420   20.4770 C   0  0  0  0  0  0  0  0  0  0  0  0
  -24.1740  -13.1620   20.8400 C   0  0  0  0  0  0  0  0  0  0  0  0
  -24.6520  -11.8150   20.8280 C   0  0  0  0  0  0  0  0  0  0  0  0
  -26.2970  -13.0720   20.2720 N   0  0  0  0  0  0  0  0  0  0  0  0
  -25.9470  -11.7880   20.5390 N   0  0  0  0  0  0  0  0  0  0  0  0
  -23.9380  -10.5470   21.0180 C   0  0  0  0  0  0  0  0  0  0  0  0
  -24.3650   -9.5950   21.9710 C   0  0  0  0  0  3  0  0  0  0  0  0
  -23.6520   -8.3900   22.1470 C   0  0  0  0  0  3  0  0  0  0  0  0
  -22.4970   -8.1300   21.3710 C   0  0  0  0  0  0  0  0  0  0  0  0
  -22.0910   -9.0700   20.4080 C   0  0  0  0  0  3  0  0  0  0  0  0
  -22.8050  -10.2670   20.2300 C   0  0  0  0  0  3  0  0  0  0  0  0
  -21.7550   -6.9770   21.4570 O   0  0  0  0  0  0  0  0  0  0  0  0
  -21.6950   -6.2430   22.6140 C   0  0  0  0  0  0  0  0  0  0  0  0
  -21.2320   -6.8020   23.8260 C   0  0  0  0  0  3  0  0  0  0  0  0
  -21.1200   -5.9950   24.9760 C   0  0  0  0  0  3  0  0  0  0  0  0
  -21.4620   -4.6310   24.9160 C   0  0  0  0  0  0  0  0  0  0  0  0
  -21.9160   -4.0730   23.7090 C   0  0  0  0  0  3  0  0  0  0  0  0
  -22.0300   -4.8760   22.5590 C   0  0  0  0  0  0  0  0  0  0  0  0
  -22.4500   -4.3260   21.3940 F   0  0  0  0  0  0  0  0  0  0  0  0
  -21.3460   -3.8540   26.0180 F   0  0  0  0  0  0  0  0  0  0  0  0
  -22.7670  -13.6240   21.0860 C   0  0  0  0  0  0  0  0  0  0  0  0
  -22.0340  -12.9260   21.9450 N   0  0  0  0  0  0  0  0  0  0  0  0
  -22.3270  -14.6420   20.5530 O   0  0  0  0  0  0  0  0  0  0  0  0
  -22.4020  -12.1000   22.3930 H   0  0  0  0  0  0  0  0  0  0  0  0
  -21.0930  -13.2240   22.1580 H   0  0  0  0  0  0  0  0  0  0  0  0
  -25.3860  -15.3140   20.2870 N   0  0  0  0  0  0  0  0  0  0  0  0
  -24.5890  -15.9410   20.3100 H   0  0  0  0  0  0  0  0  0  0  0  0
  -26.2070  -15.7270   19.8700 H   0  0  0  0  0  0  0  0  0  0  0  0
  -31.4030  -24.3490   18.1400 C   0  0  0  0  0  2  0  0  0  0  0  0
  -30.4810  -25.5560   18.3950 C   0  0  0  0  0  2  0  0  0  0  0  0
  -30.7870  -26.3390   19.6860 C   0  0  0  0  0  2  0  0  0  0  0  0
  -29.7100  -27.3840   20.0340 C   0  0  0  0  0  2  0  0  0  0  0  0
  -28.4480  -26.7220   20.0710 O   0  0  0  0  0  0  0  0  0  0  0  0
  -24.6200  -31.8920   23.1830 C   0  0  0  0  0  0  0  0  0  0  0  0
  -27.3080  -27.4880   20.1260 C   0  0  0  0  0  0  0  0  0  0  0  0
  -23.4160  -30.4680   21.5510 C   0  0  0  0  0  3  0  0  0  0  0  0
  -24.8830  -28.9340   20.1400 C   0  0  0  0  0  0  0  0  0  0  0  0
  -25.9340  -30.8600   21.3410 C   0  0  0  0  0  2  0  0  0  0  0  0
  -26.0330  -29.4850   20.7170 C   0  0  0  0  0  0  0  0  0  0  0  0
  -27.2490  -28.7720   20.7130 C   0  0  0  0  0  3  0  0  0  0  0  0
  -26.1380  -26.9360   19.5650 C   0  0  0  0  0  3  0  0  0  0  0  0
  -24.9280  -27.6530   19.5610 C   0  0  0  0  0  3  0  0  0  0  0  0
  -23.6270  -29.7730   20.1780 C   0  0  0  0  0  2  0  0  0  0  0  0
  -24.6750  -31.0870   22.0850 N   0  0  0  0  0  0  0  0  0  0  0  0
  -23.5390  -32.1620   23.7220 O   0  0  0  0  0  0  0  0  0  0  0  0
  -22.7720  -29.4520   22.5220 C   0  0  0  0  0  0  0  0  0  0  0  0
  -21.4490  -29.2630   22.3960 N   0  0  0  0  0  0  0  0  0  0  0  0
  -23.4600  -28.8390   23.3410 O   0  0  0  0  0  0  0  0  0  0  0  0
  -20.9600  -29.8110   21.7030 H   0  0  0  0  0  0  0  0  0  0  0  0
  -18.0760  -28.0850   22.9160 C   0  0  0  0  0  0  0  0  0  0  0  0
  -20.6350  -28.3300   23.1720 C   0  0  0  0  0  3  0  0  0  0  0  0
  -20.7270  -26.8990   22.5930 C   0  0  0  0  0  2  0  0  0  0  0  0
  -19.6160  -26.5790   21.5890 C   0  0  0  0  0  2  0  0  0  0  0  0
  -18.2400  -26.7360   22.2410 C   0  0  0  0  0  2  0  0  0  0  0  0
  -19.2010  -28.8440   23.3360 C   0  0  0  0  0  0  0  0  0  0  0  0
  -18.9900  -30.1100   23.9250 C   0  0  0  0  0  3  0  0  0  0  0  0
  -17.6870  -30.6140   24.0990 C   0  0  0  0  0  3  0  0  0  0  0  0
  -16.5780  -29.8510   23.6990 C   0  0  0  0  0  3  0  0  0  0  0  0
  -16.7730  -28.5900   23.1100 C   0  0  0  0  0  3  0  0  0  0  0  0
  -25.9060  -32.5250   23.8030 C   0  0  0  0  0  3  0  0  0  0  0  0
  -26.4320  -31.7400   25.0670 C   0  0  1  0  0  0  0  0  0  0  0  0
  -25.3370  -31.4670   26.1220 C   0  0  0  0  0  1  0  0  0  0  0  0
  -27.0340  -30.3780   24.6490 C   0  0  0  0  0  1  0  0  0  0  0  0
  -27.5610  -32.5410   25.7570 C   0  0  0  0  0  1  0  0  0  0  0  0
  -25.5910  -33.9200   24.1430 N   0  0  0  0  0  0  0  0  0  0  0  0
  -25.9180  -34.9780   23.3870 C   0  0  0  0  0  0  0  0  0  0  0  0
  -26.5870  -34.8830   22.3540 O   0  0  0  0  0  0  0  0  0  0  0  0
  -24.9910  -34.0670   24.9410 H   0  0  0  0  0  0  0  0  0  0  0  0
  -24.1830  -36.7670   23.0300 C   0  0  0  0  0  1  0  0  0  0  0  0
  -25.4190  -36.3610   23.8480 C   0  0  0  0  0  3  0  0  0  0  0  0
  -27.5460  -37.2440   24.7010 C   0  0  0  0  0  1  0  0  0  0  0  0
  -26.4460  -37.4210   23.7560 N   0  0  0  0  0  0  0  0  0  0  0  0
  -26.0350  -38.3360   23.9180 H   0  0  0  0  0  0  0  0  0  0  0  0
  1  2  1  0
  1  3  1  0
  2  5  1  0
  3  6  1  0
  5  8  1  0
  5  4  1  0
  6  4  1  0
  6 56  1  0
  6  7  1  6
  9 12  1  0
  9 10  1  0
 10 13  1  0
 11 13  1  0
 12  8  1  0
 12 11  1  0
 13 18  1  1
 13 14  1  0
 14 17  1  0
 14 16  1  0
 15 14  1  0
 18 19  1  0
 20 19  1  0
 21 26  1  0
 22 23  1  0
 22 21  1  0
 24 23  1  0
 24 31  1  0
 24 25  1  0
 26 20  1  0
 26 25  1  0
 27 20  2  0
 28 29  2  0
 29 48  1  0
 30 29  1  0
 30 33  1  0
 31 28  1  0
 31 32  1  0
 32 30  2  0
 33 34  1  0
 34 35  2  0
 36 39  1  0
 36 35  1  0
 37 36  2  0
 38 37  1  0
 38 33  2  0
 39 40  1  0
 40 41  1  0
 41 42  2  0
 43 42  1  0
 43 47  1  0
 44 43  2  0
 45 40  2  0
 45 44  1  0
 46 45  1  0
 48 49  1  0
 49 52  1  0
 49 51  1  0
 50 48  2  0
 53 54  1  0
 53 28  1  0
 55 53  1  0
 56 57  1  0
 57 58  1  0
 58 59  1  0
 59 60  1  0
 60 62  1  0
 61 72  2  0
 62 67  1  0
 63 71  1  0
 63 73  1  0
 64 70  1  0
 64 66  1  0
 65 71  1  0
 66 65  1  0
 67 66  2  0
 68 62  2  0
 69 68  1  0
 69 64  2  0
 70 63  1  0
 71 61  1  0
 73 75  2  0
 74 73  1  0
 76 74  1  0
 77 86  2  0
 77 82  1  0
 78 74  1  0
 78 82  1  0
 79 78  1  0
 80 81  1  0
 80 79  1  0
 81 77  1  0
 82 83  2  0
 83 84  1  0
 85 84  2  0
 86 85  1  0
 87 61  1  0
 87 92  1  0
 87 88  1  0
 88 91  1  1
 88 89  1  0
 90 88  1  0
 92 95  1  0
 93 97  1  0
 93 92  1  0
 94 93  2  0
 97 96  1  0
 99 97  1  0
 99100  1  0
 99 98  1  0
M  ISO  4  19 100  20 100  59 101  60 101
M  END
>  <TORSDO>  (37) 
F 25

>  <SCORE>  (37) 
-12.611

>  <name>  (37) 
36

>  <ligand_id>  (37) 
36

>  <original_smiles>  (37) 
[H]c1c([H])c([H])c2c(c1[H])C([H])([H])C([H])([H])C([H])([H])C2([H])N([H])C(=O)C1([H])N(C(=O)C([H])(N([H])C(=O)C([H])(N([H])C([H])([H])[H])C([H])([H])[H])C(C([H])([H])[H])(C([H])([H])[H])C([H])([H])[H])C([H])([H])c2c([H])c(OC([H])([H])C([H])([H])C([H])([H])C([H])([H])[N+]3([H])C([H])([H])C([H])([H])C([H])([H])C([H])(C([H])([H])C4([H])C([H])([H])C([H])([H])C(C([H])([H])C([H])([H])C(=O)N5C([H])([H])C([H])([H])C([H])([H])C([H])(n6nc(-c7c([H])c([H])c(Oc8c([H])c([H])c(F)c([H])c8F)c([H])c7[H])c(C(=O)N([H])[H])c6N([H])[H])C5([H])[H])([N+]([H])([H])[H])C4([H])[H])C3([H])[H])c([H])c([H])c2C1([H])[H]

>  <smiles>  (37) 
[H]c1c([H])c([H])c2c(c1[H])C([H])([H])C([H])([H])C([H])([H])C2([H])N([H])C(=O)C1([H])N(C(=O)C([H])(N([H])C(=O)C([H])(N([H])C([H])([H])[H])C([H])([H])[H])C(C([H])([H])[H])(C([H])([H])[H])C([H])([H])[H])C([H])([H])c2c([H])c(OC([H])([H])C([H])([H])C([H])([H])C([H])([H])[N+]3([H])C([H])([H])C([H])([H])C([H])([H])C([H])(C([H])([H])C4([H])C([H])([H])C([H])([H])C(C([H])([H])C([H])([H])C(=O)N5C([H])([H])C([H])([H])C([H])([H])C([H])(n6nc(-c7c([H])c([H])c(Oc8c([H])c([H])c(F)c([H])c8F)c([H])c7[H])c(C(=O)N([H])[H])c6N([H])[H])C5([H])[H])([N+]([H])([H])[H])C4([H])[H])C3([H])[H])c([H])c([H])c2C1([H])[H]

$$$$
37:0:0
     RDKit          3D

 88 96  0  0  1  0  0  0  0  0999 V2000
  -29.7330  -16.7170   20.0750 C   0  0  0  0  0  0  0  0  0  0  0  0
  -29.8590  -18.0600   20.6420 C   0  0  0  0  0  0  0  0  0  0  0  0
  -29.0110  -16.7860   18.7340 C   0  0  0  0  0  2  0  0  0  0  0  0
  -27.9270  -17.8910   18.6830 C   0  0  0  0  0  2  0  0  0  0  0  0
  -28.4900  -19.3310   18.7890 C   0  0  0  0  0  2  0  0  0  0  0  0
  -29.3780  -19.6020   20.0250 C   0  0  0  0  0  3  0  0  0  0  0  0
  -30.4650  -15.2830   20.3360 C   0  0  0  0  0  0  0  0  0  0  0  0
  -30.4000  -12.8530   19.4510 C   0  0  0  0  0  2  0  0  0  0  0  0
  -29.4950  -12.6640   18.2090 C   0  0  0  0  0  2  0  0  0  0  0  0
  -28.0410  -12.3890   18.6330 C   0  0  0  0  0  2  0  0  0  0  0  0
  -27.5710  -13.3460   19.7560 C   0  0  0  0  0  3  0  0  0  0  0  0
  -28.6100  -13.5190   20.8820 C   0  0  0  0  0  2  0  0  0  0  0  0
  -29.8550  -14.0000   20.2600 N   0  0  0  0  0  0  0  0  0  0  0  0
  -31.7000  -15.2010   20.2800 O   0  0  0  0  0  0  0  0  0  0  0  0
  -25.1920  -13.9020   20.4700 C   0  0  0  0  0  0  0  0  0  0  0  0
  -24.1280  -13.1210   20.8240 C   0  0  0  0  0  0  0  0  0  0  0  0
  -24.6060  -11.7750   20.8210 C   0  0  0  0  0  0  0  0  0  0  0  0
  -26.2440  -13.0300   20.2570 N   0  0  0  0  0  0  0  0  0  0  0  0
  -25.9040  -11.7460   20.5390 N   0  0  0  0  0  0  0  0  0  0  0  0
  -23.8880  -10.5100   21.0100 C   0  0  0  0  0  0  0  0  0  0  0  0
  -24.3060   -9.5580   21.9660 C   0  0  0  0  0  3  0  0  0  0  0  0
  -23.5850   -8.3580   22.1440 C   0  0  0  0  0  3  0  0  0  0  0  0
  -22.4300   -8.1020   21.3670 C   0  0  0  0  0  0  0  0  0  0  0  0
  -22.0310   -9.0430   20.4000 C   0  0  0  0  0  3  0  0  0  0  0  0
  -22.7550  -10.2330   20.2200 C   0  0  0  0  0  3  0  0  0  0  0  0
  -21.6820   -6.9530   21.4530 O   0  0  0  0  0  0  0  0  0  0  0  0
  -21.6130   -6.2250   22.6140 C   0  0  0  0  0  0  0  0  0  0  0  0
  -21.1570   -6.7940   23.8230 C   0  0  0  0  0  3  0  0  0  0  0  0
  -21.0360   -5.9920   24.9770 C   0  0  0  0  0  3  0  0  0  0  0  0
  -21.3600   -4.6230   24.9200 C   0  0  0  0  0  0  0  0  0  0  0  0
  -21.8090   -4.0540   23.7150 C   0  0  0  0  0  3  0  0  0  0  0  0
  -21.9320   -4.8530   22.5640 C   0  0  0  0  0  0  0  0  0  0  0  0
  -22.3440   -4.2960   21.4000 F   0  0  0  0  0  0  0  0  0  0  0  0
  -21.2360   -3.8510   26.0240 F   0  0  0  0  0  0  0  0  0  0  0  0
  -22.7210  -13.5900   21.0520 C   0  0  0  0  0  0  0  0  0  0  0  0
  -21.9780  -12.9020   21.9110 N   0  0  0  0  0  0  0  0  0  0  0  0
  -22.2890  -14.6050   20.5050 O   0  0  0  0  0  0  0  0  0  0  0  0
  -22.3410  -12.0830   22.3770 H   0  0  0  0  0  0  0  0  0  0  0  0
  -21.0320  -13.1990   22.1070 H   0  0  0  0  0  0  0  0  0  0  0  0
  -25.3470  -15.2720   20.2800 N   0  0  0  0  0  0  0  0  0  0  0  0
  -24.5730  -15.9210   20.3790 H   0  0  0  0  0  0  0  0  0  0  0  0
  -26.2040  -15.7190   19.9830 H   0  0  0  0  0  0  0  0  0  0  0  0
  -30.5480  -18.2820   21.7690 O   0  0  0  0  0  0  0  0  0  0  0  0
  -30.8690  -17.4470   22.0880 H   0  0  0  0  0  0  0  0  0  0  0  0
  -28.8990  -21.1550   20.7680 C   0  0  0  0  0  2  0  0  0  0  0  0
  -28.8910  -22.8420   20.1610 C   0  0  0  0  0  3  0  0  0  0  0  0
  -28.0780  -24.3520   20.6750 C   0  0  0  0  0  3  0  0  0  0  0  0
  -28.2900  -25.9530   20.4040 O   0  0  0  0  0  0  0  0  0  0  0  0
  -24.6300  -31.9010   23.2540 C   0  0  0  0  0  0  0  0  0  0  0  0
  -27.2530  -27.0120   20.3660 C   0  0  0  0  0  0  0  0  0  0  0  0
  -23.4670  -30.4750   21.6180 C   0  0  0  0  0  3  0  0  0  0  0  0
  -24.9430  -28.8570   20.2500 C   0  0  0  0  0  0  0  0  0  0  0  0
  -26.0320  -30.7050   21.5050 C   0  0  0  0  0  2  0  0  0  0  0  0
  -26.1190  -29.2870   20.8770 C   0  0  0  0  0  0  0  0  0  0  0  0
  -27.2730  -28.3870   20.9050 C   0  0  0  0  0  3  0  0  0  0  0  0
  -26.0450  -26.7220   19.6930 C   0  0  0  0  0  3  0  0  0  0  0  0
  -24.9290  -27.5940   19.6370 C   0  0  0  0  0  3  0  0  0  0  0  0
  -23.7210  -29.7710   20.2580 C   0  0  0  0  0  2  0  0  0  0  0  0
  -24.7300  -31.0540   22.1800 N   0  0  0  0  0  0  0  0  0  0  0  0
  -23.5320  -32.1930   23.7540 O   0  0  0  0  0  0  0  0  0  0  0  0
  -22.7630  -29.4900   22.5880 C   0  0  0  0  0  0  0  0  0  0  0  0
  -21.4330  -29.3300   22.4550 N   0  0  0  0  0  0  0  0  0  0  0  0
  -23.4210  -28.8700   23.4270 O   0  0  0  0  0  0  0  0  0  0  0  0
  -20.9560  -29.8820   21.7550 H   0  0  0  0  0  0  0  0  0  0  0  0
  -18.0380  -28.1570   22.9620 C   0  0  0  0  0  0  0  0  0  0  0  0
  -20.5990  -28.4050   23.2300 C   0  0  0  0  0  3  0  0  0  0  0  0
  -20.6910  -26.9680   22.6640 C   0  0  0  0  0  2  0  0  0  0  0  0
  -19.5890  -26.6480   21.6490 C   0  0  0  0  0  2  0  0  0  0  0  0
  -18.2070  -26.8040   22.2900 C   0  0  0  0  0  2  0  0  0  0  0  0
  -19.1610  -28.9150   23.3890 C   0  0  0  0  0  0  0  0  0  0  0  0
  -18.9470  -30.1790   23.9810 C   0  0  0  0  0  3  0  0  0  0  0  0
  -17.6440  -30.6850   24.1470 C   0  0  0  0  0  3  0  0  0  0  0  0
  -16.5360  -29.9250   23.7330 C   0  0  0  0  0  3  0  0  0  0  0  0
  -16.7340  -28.6620   23.1470 C   0  0  0  0  0  3  0  0  0  0  0  0
  -25.8890  -32.5580   23.8970 C   0  0  0  0  0  3  0  0  0  0  0  0
  -26.3730  -31.8180   25.2060 C   0  0  1  0  0  0  0  0  0  0  0  0
  -25.2530  -31.6080   26.2530 C   0  0  0  0  0  1  0  0  0  0  0  0
  -26.9630  -30.4310   24.8690 C   0  0  0  0  0  1  0  0  0  0  0  0
  -27.5070  -32.6290   25.8750 C   0  0  0  0  0  1  0  0  0  0  0  0
  -25.5630  -33.9620   24.1990 N   0  0  0  0  0  0  0  0  0  0  0  0
  -25.9070  -35.0110   23.4390 C   0  0  0  0  0  0  0  0  0  0  0  0
  -26.5960  -34.8980   22.4220 O   0  0  0  0  0  0  0  0  0  0  0  0
  -24.9520  -34.1230   24.9860 H   0  0  0  0  0  0  0  0  0  0  0  0
  -24.1860  -36.8060   23.0410 C   0  0  0  0  0  1  0  0  0  0  0  0
  -25.4130  -36.4060   23.8750 C   0  0  0  0  0  3  0  0  0  0  0  0
  -27.5330  -37.3030   24.7330 C   0  0  0  0  0  1  0  0  0  0  0  0
  -26.4480  -37.4580   23.7690 N   0  0  0  0  0  0  0  0  0  0  0  0
  -26.0390  -38.3800   23.8970 H   0  0  0  0  0  0  0  0  0  0  0  0
  1  7  1  0
  1  2  2  0
  2 43  1  0
  3  1  1  0
  4  3  1  0
  4  5  1  0
  5  6  1  0
  6  2  1  0
  6 45  1  0
  8 13  1  0
  9 10  1  0
  9  8  1  0
 11 10  1  0
 11 18  1  0
 11 12  1  0
 13  7  1  0
 13 12  1  0
 14  7  2  0
 15 16  2  0
 16 35  1  0
 17 16  1  0
 17 20  1  0
 18 15  1  0
 18 19  1  0
 19 17  2  0
 20 21  1  0
 21 22  2  0
 23 26  1  0
 23 22  1  0
 24 23  2  0
 25 24  1  0
 25 20  2  0
 26 27  1  0
 27 28  1  0
 28 29  2  0
 30 29  1  0
 30 34  1  0
 31 30  2  0
 32 27  2  0
 32 31  1  0
 33 32  1  0
 35 36  1  0
 36 39  1  0
 36 38  1  0
 37 35  2  0
 40 41  1  0
 40 15  1  0
 42 40  1  0
 43 44  1  0
 46 47  2  0
 46 45  1  0
 48 47  1  0
 49 60  2  0
 50 48  1  0
 50 55  1  0
 51 59  1  0
 51 61  1  0
 52 58  1  0
 52 54  1  0
 53 59  1  0
 54 55  2  0
 54 53  1  0
 56 50  2  0
 57 56  1  0
 57 52  2  0
 58 51  1  0
 59 49  1  0
 61 63  2  0
 62 61  1  0
 64 62  1  0
 65 74  2  0
 65 70  1  0
 66 62  1  0
 66 70  1  0
 67 66  1  0
 68 69  1  0
 68 67  1  0
 69 65  1  0
 70 71  2  0
 71 72  1  0
 73 72  2  0
 74 73  1  0
 75 49  1  0
 75 80  1  0
 75 76  1  0
 76 79  1  1
 76 77  1  0
 78 76  1  0
 80 83  1  0
 81 85  1  0
 81 80  1  0
 82 81  2  0
 85 84  1  0
 87 85  1  0
 87 88  1  0
 87 86  1  0
M  ISO  4   1 100   7 100  47 101  48 101
M  END
>  <TORSDO>  (38) 
F 20

>  <SCORE>  (38) 
-15.577

>  <name>  (38) 
37

>  <ligand_id>  (38) 
37

>  <original_smiles>  (38) 
[H]OC1=C(C(=O)N2C([H])([H])C([H])([H])C([H])([H])C([H])(n3nc(-c4c([H])c([H])c(Oc5c([H])c([H])c(F)c([H])c5F)c([H])c4[H])c(C(=O)N([H])[H])c3N([H])[H])C2([H])[H])C([H])([H])C([H])([H])C([H])([H])C1([H])C([H])([H])C([H])([H])C([H])([H])Oc1c([H])c([H])c2c(c1[H])C([H])([H])N(C(=O)C([H])(N([H])C(=O)C([H])(N([H])C([H])([H])[H])C([H])([H])[H])C(C([H])([H])[H])(C([H])([H])[H])C([H])([H])[H])C([H])(C(=O)N([H])C1([H])c3c([H])c([H])c([H])c([H])c3C([H])([H])C([H])([H])C1([H])[H])C2([H])[H]

>  <smiles>  (38) 
[H]OC1=C(C(=O)N2C([H])([H])C([H])([H])C([H])([H])C([H])(n3nc(-c4c([H])c([H])c(Oc5c([H])c([H])c(F)c([H])c5F)c([H])c4[H])c(C(=O)N([H])[H])c3N([H])[H])C2([H])[H])C([H])([H])C([H])([H])C([H])([H])C1([H])C([H])([H])C([H])([H])C([H])([H])Oc1c([H])c([H])c2c(c1[H])C([H])([H])N(C(=O)C([H])(N([H])C(=O)C([H])(N([H])C([H])([H])[H])C([H])([H])[H])C(C([H])([H])[H])(C([H])([H])[H])C([H])([H])[H])C([H])(C(=O)N([H])C1([H])c3c([H])c([H])c([H])c([H])c3C([H])([H])C([H])([H])C1([H])[H])C2([H])[H]

$$$$
38:0:0
     RDKit          3D

 97105  0  0  1  0  0  0  0  0999 V2000
  -30.2560  -20.4690   20.1080 C   0  0  0  0  0  3  0  0  0  0  0  0
  -31.9090  -21.4210   23.4830 C   0  0  0  0  0  2  0  0  0  0  0  0
  -30.9390  -20.2830   23.8230 C   0  0  0  0  0  2  0  0  0  0  0  0
  -32.7850  -21.0950   22.2610 C   0  0  0  0  0  2  0  0  0  0  0  0
  -30.0490  -19.9490   22.6130 C   0  0  0  0  0  2  0  0  0  0  0  0
  -32.3610  -19.8120   21.5130 C   0  0  0  0  0  2  0  0  0  0  0  0
  -30.8220  -19.5880   21.2980 C   0  0  2  0  0  0  0  0  0  0  0  0
  -31.2600  -17.0340   20.8770 C   0  0  0  0  0  0  0  0  0  0  0  0
  -30.4990  -18.1420   21.0750 N   0  0  0  0  0  0  0  0  0  0  0  0
  -32.4730  -17.0990   20.6670 O   0  0  0  0  0  0  0  0  0  0  0  0
  -29.5160  -17.9370   21.1920 H   0  0  0  0  0  0  0  0  0  0  0  0
  -30.5400  -15.6610   21.0520 C   0  0  0  0  0  2  0  0  0  0  0  0
  -31.1770  -14.4680   20.2630 C   0  0  0  0  0  0  0  0  0  0  0  0
  -30.7770  -12.3140   19.1000 C   0  0  0  0  0  2  0  0  0  0  0  0
  -29.8290  -12.5560   17.9070 C   0  0  0  0  0  2  0  0  0  0  0  0
  -28.3540  -12.4790   18.3540 C   0  0  0  0  0  2  0  0  0  0  0  0
  -28.0690  -13.3300   19.6200 C   0  0  0  0  0  3  0  0  0  0  0  0
  -29.1300  -13.0690   20.7140 C   0  0  0  0  0  2  0  0  0  0  0  0
  -30.4580  -13.3160   20.1310 N   0  0  0  0  0  0  0  0  0  0  0  0
  -32.2710  -14.5870   19.7000 O   0  0  0  0  0  0  0  0  0  0  0  0
  -25.7050  -14.0370   20.3550 C   0  0  0  0  0  0  0  0  0  0  0  0
  -24.6100  -13.3110   20.7390 C   0  0  0  0  0  0  0  0  0  0  0  0
  -25.0150  -11.9400   20.7090 C   0  0  0  0  0  0  0  0  0  0  0  0
  -26.7120  -13.1120   20.1170 N   0  0  0  0  0  0  0  0  0  0  0  0
  -26.2990  -11.8460   20.3850 N   0  0  0  0  0  0  0  0  0  0  0  0
  -24.2400  -10.7100   20.9150 C   0  0  0  0  0  0  0  0  0  0  0  0
  -24.6280   -9.7420   21.8660 C   0  0  0  0  0  3  0  0  0  0  0  0
  -23.8560   -8.5760   22.0570 C   0  0  0  0  0  3  0  0  0  0  0  0
  -22.6820   -8.3710   21.2950 C   0  0  0  0  0  0  0  0  0  0  0  0
  -22.3130   -9.3260   20.3320 C   0  0  0  0  0  3  0  0  0  0  0  0
  -23.0850  -10.4840   20.1390 C   0  0  0  0  0  3  0  0  0  0  0  0
  -21.8830   -7.2580   21.3940 O   0  0  0  0  0  0  0  0  0  0  0  0
  -21.7750   -6.5500   22.5650 C   0  0  0  0  0  0  0  0  0  0  0  0
  -21.3240   -7.1530   23.7590 C   0  0  0  0  0  3  0  0  0  0  0  0
  -21.1620   -6.3750   24.9220 C   0  0  0  0  0  3  0  0  0  0  0  0
  -21.4410   -4.9950   24.8920 C   0  0  0  0  0  0  0  0  0  0  0  0
  -21.8840   -4.3920   23.7020 C   0  0  0  0  0  3  0  0  0  0  0  0
  -22.0480   -5.1670   22.5410 C   0  0  0  0  0  0  0  0  0  0  0  0
  -22.4550   -4.5780   21.3910 F   0  0  0  0  0  0  0  0  0  0  0  0
  -21.2780   -4.2450   26.0070 F   0  0  0  0  0  0  0  0  0  0  0  0
  -23.2370  -13.8460   21.0260 C   0  0  0  0  0  0  0  0  0  0  0  0
  -22.4990  -13.1900   21.9150 N   0  0  0  0  0  0  0  0  0  0  0  0
  -22.8300  -14.8800   20.4990 O   0  0  0  0  0  0  0  0  0  0  0  0
  -22.8420  -12.3540   22.3620 H   0  0  0  0  0  0  0  0  0  0  0  0
  -21.5780  -13.5310   22.1530 H   0  0  0  0  0  0  0  0  0  0  0  0
  -25.9250  -15.3980   20.1690 N   0  0  0  0  0  0  0  0  0  0  0  0
  -25.1870  -16.0860   20.2820 H   0  0  0  0  0  0  0  0  0  0  0  0
  -26.7860  -15.7970   19.8180 H   0  0  0  0  0  0  0  0  0  0  0  0
  -30.4610  -21.9380   20.3250 N   0  0  0  0  0  4  0  0  0  0  0  0
  -30.8170  -22.0500   21.2620 H   0  0  0  0  0  0  0  0  0  0  0  0
  -31.1900  -22.2400   19.6980 H   0  0  0  0  0  0  0  0  0  0  0  0
  -29.2680  -22.8200   20.1380 C   0  0  0  0  0  2  0  0  0  0  0  0
  -29.5320  -24.3470   20.3510 C   0  0  0  0  0  2  0  0  0  0  0  0
  -28.2800  -25.2140   20.0360 C   0  0  0  0  0  2  0  0  0  0  0  0
  -28.4100  -26.6370   20.2740 O   0  0  0  0  0  0  0  0  0  0  0  0
  -24.5750  -31.9170   23.2080 C   0  0  0  0  0  0  0  0  0  0  0  0
  -27.2450  -27.3960   20.2190 C   0  0  0  0  0  0  0  0  0  0  0  0
  -23.3850  -30.4890   21.5790 C   0  0  0  0  0  3  0  0  0  0  0  0
  -24.8520  -28.9320   20.1890 C   0  0  0  0  0  0  0  0  0  0  0  0
  -25.9190  -30.8350   21.4040 C   0  0  0  0  0  2  0  0  0  0  0  0
  -26.0090  -29.4540   20.7810 C   0  0  0  0  0  0  0  0  0  0  0  0
  -27.2070  -28.6950   20.7910 C   0  0  0  0  0  3  0  0  0  0  0  0
  -26.0630  -26.9070   19.6110 C   0  0  0  0  0  3  0  0  0  0  0  0
  -24.8770  -27.6600   19.5980 C   0  0  0  0  0  3  0  0  0  0  0  0
  -23.6080  -29.7910   20.2120 C   0  0  0  0  0  2  0  0  0  0  0  0
  -24.6440  -31.0960   22.1220 N   0  0  0  0  0  0  0  0  0  0  0  0
  -23.4890  -32.2000   23.7310 O   0  0  0  0  0  0  0  0  0  0  0  0
  -22.7210  -29.4840   22.5490 C   0  0  0  0  0  0  0  0  0  0  0  0
  -21.4040  -29.2770   22.3900 N   0  0  0  0  0  0  0  0  0  0  0  0
  -23.3900  -28.8920   23.4010 O   0  0  0  0  0  0  0  0  0  0  0  0
  -20.9260  -29.8070   21.6730 H   0  0  0  0  0  0  0  0  0  0  0  0
  -18.0430  -28.0070   22.7930 C   0  0  0  0  0  0  0  0  0  0  0  0
  -20.5800  -28.3470   23.1620 C   0  0  0  0  0  3  0  0  0  0  0  0
  -20.7450  -26.8980   22.6480 C   0  0  0  0  0  2  0  0  0  0  0  0
  -19.6960  -26.5040   21.6020 C   0  0  0  0  0  2  0  0  0  0  0  0
  -18.2850  -26.6360   22.1810 C   0  0  0  0  0  2  0  0  0  0  0  0
  -19.1220  -28.8160   23.2380 C   0  0  0  0  0  0  0  0  0  0  0  0
  -18.8440  -30.0960   23.7660 C   0  0  0  0  0  3  0  0  0  0  0  0
  -17.5200  -30.5660   23.8560 C   0  0  0  0  0  3  0  0  0  0  0  0
  -16.4570  -29.7540   23.4290 C   0  0  0  0  0  3  0  0  0  0  0  0
  -16.7180  -28.4770   22.9010 C   0  0  0  0  0  3  0  0  0  0  0  0
  -25.8550  -32.5580   23.8310 C   0  0  0  0  0  3  0  0  0  0  0  0
  -25.5320  -33.9510   24.1660 N   0  0  0  0  0  0  0  0  0  0  0  0
  -25.8580  -35.0100   23.4130 C   0  0  0  0  0  0  0  0  0  0  0  0
  -26.5330  -34.9170   22.3840 O   0  0  0  0  0  0  0  0  0  0  0  0
  -24.9320  -34.0970   24.9650 H   0  0  0  0  0  0  0  0  0  0  0  0
  -24.1190  -36.7930   23.0560 C   0  0  0  0  0  1  0  0  0  0  0  0
  -25.3570  -36.3910   23.8760 C   0  0  0  0  0  3  0  0  0  0  0  0
  -27.4750  -37.2870   24.7340 C   0  0  0  0  0  1  0  0  0  0  0  0
  -26.3820  -37.4520   23.7800 N   0  0  0  0  0  0  0  0  0  0  0  0
  -25.9670  -38.3680   23.9280 H   0  0  0  0  0  0  0  0  0  0  0  0
  -26.3820  -31.7850   25.1030 C   0  0  1  0  0  0  0  0  0  0  0  0
  -25.2910  -31.5240   26.1670 C   0  0  0  0  0  1  0  0  0  0  0  0
  -26.9840  -30.4180   24.7010 C   0  0  0  0  0  1  0  0  0  0  0  0
  -27.5210  -32.5910   25.7700 C   0  0  0  0  0  1  0  0  0  0  0  0
  -30.0370  -20.6560   17.5310 C   0  0  0  0  0  1  0  0  0  0  0  0
  -30.8120  -20.0630   18.7200 C   0  0  0  0  0  2  0  0  0  0  0  0
  1 97  1  0
  1 49  1  0
  7  1  1  6
  2  3  1  0
  4  2  1  0
  5  3  1  0
  6  4  1  0
  7  6  1  0
  7  5  1  0
  8 12  1  0
  8  9  1  0
  9 11  1  0
  9  7  1  0
 10  8  2  0
 13 12  1  0
 14 19  1  0
 15 16  1  0
 15 14  1  0
 17 16  1  0
 17 24  1  0
 17 18  1  0
 19 13  1  0
 19 18  1  0
 20 13  2  0
 21 22  2  0
 22 41  1  0
 23 22  1  0
 23 26  1  0
 24 21  1  0
 24 25  1  0
 25 23  2  0
 26 27  1  0
 27 28  2  0
 29 32  1  0
 29 28  1  0
 30 29  2  0
 31 30  1  0
 31 26  2  0
 32 33  1  0
 33 34  1  0
 34 35  2  0
 36 35  1  0
 36 40  1  0
 37 36  2  0
 38 33  2  0
 38 37  1  0
 39 38  1  0
 41 42  1  0
 42 45  1  0
 42 44  1  0
 43 41  2  0
 46 47  1  0
 46 21  1  0
 48 46  1  0
 49 50  1  0
 51 49  1  0
 52 49  1  0
 52 53  1  0
 54 55  1  0
 54 53  1  0
 56 67  2  0
 57 55  1  0
 57 62  1  0
 58 66  1  0
 58 68  1  0
 59 65  1  0
 59 61  1  0
 60 66  1  0
 61 62  2  0
 61 60  1  0
 63 57  2  0
 64 63  1  0
 64 59  2  0
 65 58  1  0
 66 56  1  0
 68 70  2  0
 69 68  1  0
 71 69  1  0
 72 81  2  0
 72 77  1  0
 73 69  1  0
 73 77  1  0
 74 73  1  0
 75 76  1  0
 75 74  1  0
 76 72  1  0
 77 78  2  0
 78 79  1  0
 80 79  2  0
 81 80  1  0
 82 56  1  0
 82 83  1  0
 82 92  1  0
 83 86  1  0
 84 88  1  0
 84 83  1  0
 85 84  2  0
 88 87  1  0
 90 88  1  0
 90 91  1  0
 90 89  1  0
 92 95  1  1
 92 93  1  0
 94 92  1  0
 96 97  1  0
M  ISO  4  12 100  13 100  54 101  55 101
M  END
>  <TORSDO>  (39) 
F 24

>  <SCORE>  (39) 
-12.203

>  <name>  (39) 
38

>  <ligand_id>  (39) 
38

>  <original_smiles>  (39) 
[H]c1c([H])c([H])c2c(c1[H])C([H])([H])C([H])([H])C([H])([H])C2([H])N([H])C(=O)C1([H])N(C(=O)C([H])(N([H])C(=O)C([H])(N([H])C([H])([H])[H])C([H])([H])[H])C(C([H])([H])[H])(C([H])([H])[H])C([H])([H])[H])C([H])([H])c2c([H])c(OC([H])([H])C([H])([H])C([H])([H])[N+]([H])([H])C([H])(C([H])([H])C([H])([H])[H])C3(N([H])C(=O)C([H])([H])C(=O)N4C([H])([H])C([H])([H])C([H])([H])C([H])(n5nc(-c6c([H])c([H])c(Oc7c([H])c([H])c(F)c([H])c7F)c([H])c6[H])c(C(=O)N([H])[H])c5N([H])[H])C4([H])[H])C([H])([H])C([H])([H])C([H])([H])C([H])([H])C3([H])[H])c([H])c([H])c2C1([H])[H]

>  <smiles>  (39) 
[H]c1c([H])c([H])c2c(c1[H])C([H])([H])C([H])([H])C([H])([H])C2([H])N([H])C(=O)C1([H])N(C(=O)C([H])(N([H])C(=O)C([H])(N([H])C([H])([H])[H])C([H])([H])[H])C(C([H])([H])[H])(C([H])([H])[H])C([H])([H])[H])C([H])([H])c2c([H])c(OC([H])([H])C([H])([H])C([H])([H])[N+]([H])([H])C([H])(C([H])([H])C([H])([H])[H])C3(N([H])C(=O)C([H])([H])C(=O)N4C([H])([H])C([H])([H])C([H])([H])C([H])(n5nc(-c6c([H])c([H])c(Oc7c([H])c([H])c(F)c([H])c7F)c([H])c6[H])c(C(=O)N([H])[H])c5N([H])[H])C4([H])[H])C([H])([H])C([H])([H])C([H])([H])C([H])([H])C3([H])[H])c([H])c([H])c2C1([H])[H]

$$$$
39:0:0
     RDKit          3D

 98106  0  0  1  0  0  0  0  0999 V2000
  -27.8320  -19.7370   19.9520 C   0  0  0  0  0  3  0  0  0  0  0  0
  -28.1380  -20.9230   20.8840 C   0  0  0  0  0  0  0  0  0  0  0  0
  -28.3220  -22.1350   20.3430 N   0  0  0  0  0  0  0  0  0  0  0  0
  -28.2130  -20.7250   22.1010 O   0  0  0  0  0  0  0  0  0  0  0  0
  -28.2530  -22.2280   19.3380 H   0  0  0  0  0  0  0  0  0  0  0  0
  -28.6120  -23.3430   21.1150 C   0  0  0  0  0  2  0  0  0  0  0  0
  -28.6470  -24.5870   20.2120 C   0  0  0  0  0  2  0  0  0  0  0  0
  -28.9010  -25.8870   20.9980 C   0  0  0  0  0  2  0  0  0  0  0  0
  -28.8940  -27.0460   20.1610 O   0  0  0  0  0  0  0  0  0  0  0  0
  -24.6440  -31.8400   23.2390 C   0  0  0  0  0  0  0  0  0  0  0  0
  -27.6890  -27.7030   20.1350 C   0  0  0  0  0  0  0  0  0  0  0  0
  -23.5920  -30.4170   21.5100 C   0  0  0  0  0  3  0  0  0  0  0  0
  -25.1990  -29.0270   20.1000 C   0  0  0  0  0  0  0  0  0  0  0  0
  -26.0910  -30.9540   21.4180 C   0  0  0  0  0  2  0  0  0  0  0  0
  -26.2950  -29.6120   20.7470 C   0  0  0  0  0  0  0  0  0  0  0  0
  -27.5440  -28.9550   20.7670 C   0  0  0  0  0  3  0  0  0  0  0  0
  -26.5840  -27.1320   19.4720 C   0  0  0  0  0  3  0  0  0  0  0  0
  -25.3350  -27.7790   19.4670 C   0  0  0  0  0  3  0  0  0  0  0  0
  -23.8990  -29.7950   20.1210 C   0  0  0  0  0  2  0  0  0  0  0  0
  -24.7910  -31.0820   22.1170 N   0  0  0  0  0  0  0  0  0  0  0  0
  -23.5270  -32.0230   23.7470 O   0  0  0  0  0  0  0  0  0  0  0  0
  -22.9790  -29.3250   22.4150 C   0  0  0  0  0  0  0  0  0  0  0  0
  -21.6720  -29.0730   22.2460 N   0  0  0  0  0  0  0  0  0  0  0  0
  -23.6780  -28.7080   23.2230 O   0  0  0  0  0  0  0  0  0  0  0  0
  -21.1730  -29.6190   21.5560 H   0  0  0  0  0  0  0  0  0  0  0  0
  -18.3510  -27.7030   22.6330 C   0  0  0  0  0  0  0  0  0  0  0  0
  -20.8910  -28.0630   22.9590 C   0  0  0  0  0  3  0  0  0  0  0  0
  -21.0710  -26.6690   22.3140 C   0  0  0  0  0  2  0  0  0  0  0  0
  -19.9970  -26.3430   21.2700 C   0  0  0  0  0  2  0  0  0  0  0  0
  -18.6000  -26.3980   21.8960 C   0  0  0  0  0  2  0  0  0  0  0  0
  -19.4280  -28.4930   23.1170 C   0  0  0  0  0  0  0  0  0  0  0  0
  -19.1430  -29.7170   23.7630 C   0  0  0  0  0  3  0  0  0  0  0  0
  -17.8140  -30.1500   23.9310 C   0  0  0  0  0  3  0  0  0  0  0  0
  -16.7520  -29.3580   23.4620 C   0  0  0  0  0  3  0  0  0  0  0  0
  -17.0200  -28.1340   22.8220 C   0  0  0  0  0  3  0  0  0  0  0  0
  -25.8630  -32.5360   23.9240 C   0  0  0  0  0  3  0  0  0  0  0  0
  -26.3470  -31.7980   25.2310 C   0  0  1  0  0  0  0  0  0  0  0  0
  -25.2080  -31.5120   26.2360 C   0  0  0  0  0  1  0  0  0  0  0  0
  -27.0180  -30.4490   24.8820 C   0  0  0  0  0  1  0  0  0  0  0  0
  -27.4200  -32.6490   25.9510 C   0  0  0  0  0  1  0  0  0  0  0  0
  -25.4750  -33.9200   24.2210 N   0  0  0  0  0  0  0  0  0  0  0  0
  -25.7920  -34.9780   23.4630 C   0  0  0  0  0  0  0  0  0  0  0  0
  -26.5170  -34.8960   22.4670 O   0  0  0  0  0  0  0  0  0  0  0  0
  -24.8480  -34.0550   25.0000 H   0  0  0  0  0  0  0  0  0  0  0  0
  -23.9960  -36.6750   23.0040 C   0  0  0  0  0  1  0  0  0  0  0  0
  -25.2150  -36.3450   23.8810 C   0  0  0  0  0  3  0  0  0  0  0  0
  -27.2630  -37.3400   24.7970 C   0  0  0  0  0  1  0  0  0  0  0  0
  -26.1990  -37.4470   23.8020 N   0  0  0  0  0  0  0  0  0  0  0  0
  -25.7430  -38.3470   23.9210 H   0  0  0  0  0  0  0  0  0  0  0  0
  -28.1410  -18.4960   20.6960 N   0  0  0  0  0  4  0  0  0  0  0  0
  -27.4450  -17.8030   20.4730 H   0  0  0  0  0  0  0  0  0  0  0  0
  -27.9930  -18.7750   21.6580 H   0  0  0  0  0  0  0  0  0  0  0  0
  -30.5140  -18.5320   19.6780 C   0  0  0  0  0  1  0  0  0  0  0  0
  -29.4900  -17.8660   20.6300 C   0  0  0  0  0  3  0  0  0  0  0  0
  -29.3510  -16.3550   20.3260 C   0  0  0  0  0  2  0  0  0  0  0  0
  -30.3940  -15.4490   21.0250 C   0  0  0  0  0  2  0  0  0  0  0  0
  -30.8410  -14.2730   20.1450 C   0  0  0  0  0  0  0  0  0  0  0  0
  -30.3620  -12.1290   19.0250 C   0  0  0  0  0  2  0  0  0  0  0  0
  -29.3900  -12.3800   17.8570 C   0  0  0  0  0  2  0  0  0  0  0  0
  -27.9360  -12.2820   18.3540 C   0  0  0  0  0  2  0  0  0  0  0  0
  -27.6820  -13.1520   19.6100 C   0  0  0  0  0  3  0  0  0  0  0  0
  -28.7760  -12.9360   20.6840 C   0  0  0  0  0  2  0  0  0  0  0  0
  -30.0930  -13.1410   20.0570 N   0  0  0  0  0  0  0  0  0  0  0  0
  -31.8750  -14.4340   19.4930 O   0  0  0  0  0  0  0  0  0  0  0  0
  -25.3570  -13.8630   20.4690 C   0  0  0  0  0  0  0  0  0  0  0  0
  -24.2770  -13.1350   20.8820 C   0  0  0  0  0  0  0  0  0  0  0  0
  -24.6630  -11.7620   20.7940 C   0  0  0  0  0  0  0  0  0  0  0  0
  -26.3420  -12.9370   20.1530 N   0  0  0  0  0  0  0  0  0  0  0  0
  -25.9300  -11.6680   20.4070 N   0  0  0  0  0  0  0  0  0  0  0  0
  -23.8860  -10.5330   20.9980 C   0  0  0  0  0  0  0  0  0  0  0  0
  -24.3280   -9.5210   21.8770 C   0  0  0  0  0  3  0  0  0  0  0  0
  -23.5590   -8.3530   22.0680 C   0  0  0  0  0  3  0  0  0  0  0  0
  -22.3330   -8.1910   21.3800 C   0  0  0  0  0  0  0  0  0  0  0  0
  -21.9080   -9.1910   20.4890 C   0  0  0  0  0  3  0  0  0  0  0  0
  -22.6770  -10.3500   20.2960 C   0  0  0  0  0  3  0  0  0  0  0  0
  -21.5320   -7.0780   21.4840 O   0  0  0  0  0  0  0  0  0  0  0  0
  -21.5220   -6.3010   22.6140 C   0  0  0  0  0  0  0  0  0  0  0  0
  -21.2010   -6.8350   23.8810 C   0  0  0  0  0  3  0  0  0  0  0  0
  -21.1380   -5.9900   25.0050 C   0  0  0  0  0  3  0  0  0  0  0  0
  -21.3790   -4.6100   24.8650 C   0  0  0  0  0  0  0  0  0  0  0  0
  -21.6870   -4.0730   23.6020 C   0  0  0  0  0  3  0  0  0  0  0  0
  -21.7570   -4.9170   22.4800 C   0  0  0  0  0  0  0  0  0  0  0  0
  -22.0360   -4.3930   21.2630 F   0  0  0  0  0  0  0  0  0  0  0  0
  -21.3080   -3.7960   25.9430 F   0  0  0  0  0  0  0  0  0  0  0  0
  -22.9210  -13.6710   21.2410 C   0  0  0  0  0  0  0  0  0  0  0  0
  -22.2170  -13.0050   22.1500 N   0  0  0  0  0  0  0  0  0  0  0  0
  -22.4990  -14.7180   20.7490 O   0  0  0  0  0  0  0  0  0  0  0  0
  -22.5720  -12.1570   22.5640 H   0  0  0  0  0  0  0  0  0  0  0  0
  -21.3080  -13.3430   22.4310 H   0  0  0  0  0  0  0  0  0  0  0  0
  -25.5790  -15.2280   20.2990 N   0  0  0  0  0  0  0  0  0  0  0  0
  -24.7540  -15.8200   20.2990 H   0  0  0  0  0  0  0  0  0  0  0  0
  -26.2540  -15.5110   19.6000 H   0  0  0  0  0  0  0  0  0  0  0  0
  -26.3320  -19.7140   19.5540 C   0  0  0  0  0  2  0  0  0  0  0  0
  -25.6940  -21.7820   16.4050 C   0  0  0  0  0  2  0  0  0  0  0  0
  -24.2620  -21.4950   16.8840 C   0  0  0  0  0  2  0  0  0  0  0  0
  -26.6080  -20.9420   17.2990 C   0  0  0  0  0  2  0  0  0  0  0  0
  -24.3960  -20.6690   18.1700 C   0  0  0  0  0  2  0  0  0  0  0  0
  -25.8510  -20.8480   18.6270 C   0  0  0  0  0  3  0  0  0  0  0  0
  1 93  1  0
  1 50  1  0
  1  2  1  0
  2  4  2  0
  3  2  1  0
  3  6  1  0
  5  3  1  0
  7  8  1  0
  7  6  1  0
  9  8  1  0
 10 21  2  0
 11  9  1  0
 11 16  1  0
 12 20  1  0
 12 22  1  0
 13 19  1  0
 13 15  1  0
 14 20  1  0
 15 16  2  0
 15 14  1  0
 17 11  2  0
 18 17  1  0
 18 13  2  0
 19 12  1  0
 20 10  1  0
 22 24  2  0
 23 22  1  0
 25 23  1  0
 26 35  2  0
 26 31  1  0
 27 23  1  0
 27 31  1  0
 28 27  1  0
 29 30  1  0
 29 28  1  0
 30 26  1  0
 31 32  2  0
 32 33  1  0
 34 33  2  0
 35 34  1  0
 36 10  1  0
 36 41  1  0
 36 37  1  0
 37 40  1  1
 37 38  1  0
 39 37  1  0
 41 44  1  0
 42 46  1  0
 42 41  1  0
 43 42  2  0
 46 45  1  0
 48 46  1  0
 48 49  1  0
 48 47  1  0
 50 52  1  0
 51 50  1  0
 54 53  1  0
 54 50  1  0
 55 54  1  0
 55 56  1  0
 57 56  1  0
 58 63  1  0
 59 60  1  0
 59 58  1  0
 61 60  1  0
 61 68  1  0
 61 62  1  0
 63 57  1  0
 63 62  1  0
 64 57  2  0
 65 66  2  0
 66 85  1  0
 67 66  1  0
 67 70  1  0
 68 69  1  0
 68 65  1  0
 69 67  2  0
 70 71  1  0
 71 72  2  0
 73 76  1  0
 73 72  1  0
 74 73  2  0
 75 74  1  0
 75 70  2  0
 76 77  1  0
 77 78  1  0
 78 79  2  0
 80 79  1  0
 80 84  1  0
 81 80  2  0
 82 77  2  0
 82 81  1  0
 83 82  1  0
 85 86  1  0
 86 89  1  0
 86 88  1  0
 87 85  2  0
 90 65  1  0
 91 90  1  0
 92 90  1  0
 94 95  1  0
 94 96  1  0
 95 97  1  0
 96 98  1  0
 97 98  1  0
 98 93  1  0
M  ISO  4   8 101   9 101  56 100  57 100
M  END
>  <TORSDO>  (40) 
F 26

>  <SCORE>  (40) 
-8.586

>  <name>  (40) 
39

>  <ligand_id>  (40) 
39

>  <original_smiles>  (40) 
[H]c1c([H])c([H])c2c(c1[H])C([H])([H])C([H])([H])C([H])([H])C2([H])N([H])C(=O)C1([H])N(C(=O)C([H])(N([H])C(=O)C([H])(N([H])C([H])([H])[H])C([H])([H])[H])C(C([H])([H])[H])(C([H])([H])[H])C([H])([H])[H])C([H])([H])c2c([H])c(OC([H])([H])C([H])([H])C([H])([H])N([H])C(=O)C([H])(C([H])([H])C3([H])C([H])([H])C([H])([H])C([H])([H])C3([H])[H])[N+]([H])([H])C([H])(C([H])([H])[H])C([H])([H])C([H])([H])C(=O)N3C([H])([H])C([H])([H])C([H])([H])C([H])(n4nc(-c5c([H])c([H])c(Oc6c([H])c([H])c(F)c([H])c6F)c([H])c5[H])c(C(=O)N([H])[H])c4N([H])[H])C3([H])[H])c([H])c([H])c2C1([H])[H]

>  <smiles>  (40) 
[H]c1c([H])c([H])c2c(c1[H])C([H])([H])C([H])([H])C([H])([H])C2([H])N([H])C(=O)C1([H])N(C(=O)C([H])(N([H])C(=O)C([H])(N([H])C([H])([H])[H])C([H])([H])[H])C(C([H])([H])[H])(C([H])([H])[H])C([H])([H])[H])C([H])([H])c2c([H])c(OC([H])([H])C([H])([H])C([H])([H])N([H])C(=O)C([H])(C([H])([H])C3([H])C([H])([H])C([H])([H])C([H])([H])C3([H])[H])[N+]([H])([H])C([H])(C([H])([H])[H])C([H])([H])C([H])([H])C(=O)N3C([H])([H])C([H])([H])C([H])([H])C([H])(n4nc(-c5c([H])c([H])c(Oc6c([H])c([H])c(F)c([H])c6F)c([H])c5[H])c(C(=O)N([H])[H])c4N([H])[H])C3([H])[H])c([H])c([H])c2C1([H])[H]

$$$$
40:0:0
     RDKit          3D

 89 98  0  0  1  0  0  0  0  0999 V2000
  -30.3700  -22.5650   22.4010 C   0  0  0  0  0  3  0  0  0  0  0  0
  -29.8490  -23.6840   21.7020 C   0  0  0  0  0  3  0  0  0  0  0  0
  -29.0130  -22.1190   20.0220 C   0  0  0  0  0  3  0  0  0  0  0  0
  -30.1830  -21.2480   21.9200 C   0  0  0  0  0  0  0  0  0  0  0  0
  -29.1120  -23.5360   20.5010 C   0  0  0  0  0  0  0  0  0  0  0  0
  -29.5800  -20.9180   20.7020 C   0  0  0  0  0  0  0  0  0  0  0  0
  -30.2610  -20.0260   22.7670 C   0  0  0  0  0  2  0  0  0  0  0  0
  -29.1790  -19.1980   22.0500 C   0  0  0  0  0  2  0  0  0  0  0  0
  -29.3610  -19.4310   20.6060 N   0  0  0  0  0  0  0  0  0  0  0  0
  -28.3300  -24.8680   19.8910 C   0  0  0  0  0  2  0  0  0  0  0  0
  -28.5120  -26.3690   20.2960 O   0  0  0  0  0  0  0  0  0  0  0  0
  -24.6760  -31.9030   23.2460 C   0  0  0  0  0  0  0  0  0  0  0  0
  -27.4490  -27.3460   20.1600 C   0  0  0  0  0  0  0  0  0  0  0  0
  -23.5530  -30.5360   21.5240 C   0  0  0  0  0  3  0  0  0  0  0  0
  -25.0820  -29.0470   20.0850 C   0  0  0  0  0  0  0  0  0  0  0  0
  -26.1020  -30.8670   21.4410 C   0  0  0  0  0  2  0  0  0  0  0  0
  -26.2270  -29.4970   20.7540 C   0  0  0  0  0  0  0  0  0  0  0  0
  -27.4070  -28.6630   20.7790 C   0  0  0  0  0  3  0  0  0  0  0  0
  -26.2880  -27.0140   19.4270 C   0  0  0  0  0  3  0  0  0  0  0  0
  -25.1260  -27.8240   19.3990 C   0  0  0  0  0  3  0  0  0  0  0  0
  -23.8310  -29.9100   20.1270 C   0  0  0  0  0  2  0  0  0  0  0  0
  -24.7950  -31.1250   22.1260 N   0  0  0  0  0  0  0  0  0  0  0  0
  -23.5700  -32.1440   23.7530 O   0  0  0  0  0  0  0  0  0  0  0  0
  -22.8750  -29.4850   22.4360 C   0  0  0  0  0  0  0  0  0  0  0  0
  -21.5550  -29.2840   22.2690 N   0  0  0  0  0  0  0  0  0  0  0  0
  -23.5390  -28.8510   23.2610 O   0  0  0  0  0  0  0  0  0  0  0  0
  -21.0750  -29.8560   21.5890 H   0  0  0  0  0  0  0  0  0  0  0  0
  -18.1880  -27.9950   22.6470 C   0  0  0  0  0  0  0  0  0  0  0  0
  -20.7350  -28.3020   22.9840 C   0  0  0  0  0  3  0  0  0  0  0  0
  -20.8820  -26.8940   22.3620 C   0  0  0  0  0  2  0  0  0  0  0  0
  -19.8110  -26.5850   21.3110 C   0  0  0  0  0  2  0  0  0  0  0  0
  -18.4100  -26.6770   21.9250 C   0  0  0  0  0  2  0  0  0  0  0  0
  -19.2800  -28.7660   23.1300 C   0  0  0  0  0  0  0  0  0  0  0  0
  -19.0180  -30.0000   23.7650 C   0  0  0  0  0  3  0  0  0  0  0  0
  -17.6980  -30.4630   23.9210 C   0  0  0  0  0  3  0  0  0  0  0  0
  -16.6220  -29.6900   23.4530 C   0  0  0  0  0  3  0  0  0  0  0  0
  -16.8670  -28.4580   22.8220 C   0  0  0  0  0  3  0  0  0  0  0  0
  -25.9230  -32.5460   23.9280 C   0  0  0  0  0  3  0  0  0  0  0  0
  -26.3650  -31.7940   25.2440 C   0  0  1  0  0  0  0  0  0  0  0  0
  -25.2140  -31.5750   26.2520 C   0  0  0  0  0  1  0  0  0  0  0  0
  -26.9670  -30.4090   24.9110 C   0  0  0  0  0  1  0  0  0  0  0  0
  -27.4800  -32.5950   25.9570 C   0  0  0  0  0  1  0  0  0  0  0  0
  -25.6020  -33.9510   24.2240 N   0  0  0  0  0  0  0  0  0  0  0  0
  -25.9510  -34.9940   23.4600 C   0  0  0  0  0  0  0  0  0  0  0  0
  -26.6460  -34.8770   22.4470 O   0  0  0  0  0  0  0  0  0  0  0  0
  -24.9940  -34.1170   25.0120 H   0  0  0  0  0  0  0  0  0  0  0  0
  -24.2220  -36.7760   23.0500 C   0  0  0  0  0  1  0  0  0  0  0  0
  -25.4550  -36.3910   23.8850 C   0  0  0  0  0  3  0  0  0  0  0  0
  -27.5690  -37.3080   24.7350 C   0  0  0  0  0  1  0  0  0  0  0  0
  -26.4850  -37.4470   23.7650 N   0  0  0  0  0  0  0  0  0  0  0  0
  -26.0730  -38.3690   23.8810 H   0  0  0  0  0  0  0  0  0  0  0  0
  -30.3160  -18.2470   20.1750 C   0  0  0  0  0  3  0  0  0  0  0  0
  -29.8440  -16.6070   20.2140 C   0  0  0  0  0  3  0  0  0  0  0  0
  -30.7350  -15.2320   19.8660 C   0  0  0  0  0  0  0  0  0  0  0  0
  -30.6470  -12.8720   18.9190 C   0  0  0  0  0  2  0  0  0  0  0  0
  -29.6220  -12.8050   17.7590 C   0  0  0  0  0  2  0  0  0  0  0  0
  -28.1950  -12.5660   18.2930 C   0  0  0  0  0  2  0  0  0  0  0  0
  -27.8600  -13.4770   19.5010 C   0  0  0  0  0  3  0  0  0  0  0  0
  -28.9920  -13.4880   20.5470 C   0  0  0  0  0  2  0  0  0  0  0  0
  -30.2140  -13.9370   19.8680 N   0  0  0  0  0  0  0  0  0  0  0  0
  -31.8960  -15.3480   19.4520 O   0  0  0  0  0  0  0  0  0  0  0  0
  -25.5670  -14.0320   20.4930 C   0  0  0  0  0  0  0  0  0  0  0  0
  -24.5290  -13.2490   20.9130 C   0  0  0  0  0  0  0  0  0  0  0  0
  -24.9660  -11.8970   20.7520 C   0  0  0  0  0  0  0  0  0  0  0  0
  -26.5670  -13.1610   20.0980 N   0  0  0  0  0  0  0  0  0  0  0  0
  -26.2220  -11.8670   20.3190 N   0  0  0  0  0  0  0  0  0  0  0  0
  -24.2410  -10.6330   20.9310 C   0  0  0  0  0  0  0  0  0  0  0  0
  -24.6820   -9.6480   21.8450 C   0  0  0  0  0  3  0  0  0  0  0  0
  -23.9550   -8.4500   22.0110 C   0  0  0  0  0  3  0  0  0  0  0  0
  -22.7740   -8.2250   21.2660 C   0  0  0  0  0  0  0  0  0  0  0  0
  -22.3520   -9.1970   20.3410 C   0  0  0  0  0  3  0  0  0  0  0  0
  -23.0790  -10.3880   20.1720 C   0  0  0  0  0  3  0  0  0  0  0  0
  -22.0170   -7.0800   21.3420 O   0  0  0  0  0  0  0  0  0  0  0  0
  -21.8790   -6.3870   22.5180 C   0  0  0  0  0  0  0  0  0  0  0  0
  -21.3420   -6.9870   23.6780 C   0  0  0  0  0  3  0  0  0  0  0  0
  -21.1520   -6.2190   24.8440 C   0  0  0  0  0  3  0  0  0  0  0  0
  -21.4890   -4.8530   24.8510 C   0  0  0  0  0  0  0  0  0  0  0  0
  -22.0200   -4.2520   23.6950 C   0  0  0  0  0  3  0  0  0  0  0  0
  -22.2110   -5.0180   22.5310 C   0  0  0  0  0  0  0  0  0  0  0  0
  -22.7020   -4.4280   21.4140 F   0  0  0  0  0  0  0  0  0  0  0  0
  -21.3000   -4.1130   25.9690 F   0  0  0  0  0  0  0  0  0  0  0  0
  -23.1700  -13.7200   21.3430 C   0  0  0  0  0  0  0  0  0  0  0  0
  -22.5210  -12.9860   22.2370 N   0  0  0  0  0  0  0  0  0  0  0  0
  -22.6990  -14.7770   20.9210 O   0  0  0  0  0  0  0  0  0  0  0  0
  -22.9210  -12.1320   22.6000 H   0  0  0  0  0  0  0  0  0  0  0  0
  -21.6130  -13.2800   22.5640 H   0  0  0  0  0  0  0  0  0  0  0  0
  -25.7430  -15.4100   20.3900 N   0  0  0  0  0  0  0  0  0  0  0  0
  -25.0140  -16.0760   20.6230 H   0  0  0  0  0  0  0  0  0  0  0  0
  -26.5750  -15.8520   20.0200 H   0  0  0  0  0  0  0  0  0  0  0  0
  2  1  2  0
  3  5  2  0
  3  6  1  0
  4  1  1  0
  4  7  1  0
  5  2  1  0
  6  4  2  0
  8  7  1  0
  9  6  1  0
  9  8  1  0
 10 11  1  0
 10  5  1  0
 12 23  2  0
 13 11  1  0
 13 18  1  0
 14 22  1  0
 14 24  1  0
 15 21  1  0
 15 17  1  0
 16 22  1  0
 17 18  2  0
 17 16  1  0
 19 13  2  0
 20 19  1  0
 20 15  2  0
 21 14  1  0
 22 12  1  0
 24 26  2  0
 25 24  1  0
 27 25  1  0
 28 37  2  0
 28 33  1  0
 29 25  1  0
 29 33  1  0
 30 29  1  0
 31 32  1  0
 31 30  1  0
 32 28  1  0
 33 34  2  0
 34 35  1  0
 36 35  2  0
 37 36  1  0
 38 12  1  0
 38 43  1  0
 38 39  1  0
 39 42  1  1
 39 40  1  0
 41 39  1  0
 43 46  1  0
 44 48  1  0
 44 43  1  0
 45 44  2  0
 48 47  1  0
 50 51  1  0
 50 48  1  0
 50 49  1  0
 52 53  2  0
 52  9  1  0
 54 60  1  0
 54 53  1  0
 55 60  1  0
 56 57  1  0
 56 55  1  0
 58 57  1  0
 58 65  1  0
 58 59  1  0
 60 59  1  0
 61 54  2  0
 62 63  2  0
 63 82  1  0
 64 63  1  0
 64 67  1  0
 65 66  1  0
 65 62  1  0
 66 64  2  0
 67 68  1  0
 68 69  2  0
 70 73  1  0
 70 69  1  0
 71 70  2  0
 72 71  1  0
 72 67  2  0
 73 74  1  0
 74 79  2  0
 74 75  1  0
 75 76  2  0
 76 77  1  0
 77 81  1  0
 78 77  2  0
 79 78  1  0
 80 79  1  0
 82 83  1  0
 83 86  1  0
 83 85  1  0
 84 82  2  0
 87 62  1  0
 87 88  1  0
 89 87  1  0
M  ISO  4  10 101  11 101  53 100  54 100
M  END
>  <TORSDO>  (41) 
F 19

>  <SCORE>  (41) 
-12.640

>  <name>  (41) 
40

>  <ligand_id>  (41) 
40

>  <original_smiles>  (41) 
[H]c1c([H])c([H])c2c(c1[H])C([H])([H])C([H])([H])C([H])([H])C2([H])N([H])C(=O)C1([H])N(C(=O)C([H])(N([H])C(=O)C([H])(N([H])C([H])([H])[H])C([H])([H])[H])C(C([H])([H])[H])(C([H])([H])[H])C([H])([H])[H])C([H])([H])c2c([H])c(OC([H])([H])c3c([H])c([H])c4c(c3[H])N(C([H])([H])C([H])([H])C(=O)N3C([H])([H])C([H])([H])C([H])([H])C([H])(n5nc(-c6c([H])c([H])c(Oc7c([H])c([H])c(F)c([H])c7F)c([H])c6[H])c(C(=O)N([H])[H])c5N([H])[H])C3([H])[H])C([H])([H])C4([H])[H])c([H])c([H])c2C1([H])[H]

>  <smiles>  (41) 
[H]c1c([H])c([H])c2c(c1[H])C([H])([H])C([H])([H])C([H])([H])C2([H])N([H])C(=O)C1([H])N(C(=O)C([H])(N([H])C(=O)C([H])(N([H])C([H])([H])[H])C([H])([H])[H])C(C([H])([H])[H])(C([H])([H])[H])C([H])([H])[H])C([H])([H])c2c([H])c(OC([H])([H])c3c([H])c([H])c4c(c3[H])N(C([H])([H])C([H])([H])C(=O)N3C([H])([H])C([H])([H])C([H])([H])C([H])(n5nc(-c6c([H])c([H])c(Oc7c([H])c([H])c(F)c([H])c7F)c([H])c6[H])c(C(=O)N([H])[H])c5N([H])[H])C3([H])[H])C([H])([H])C4([H])[H])c([H])c([H])c2C1([H])[H]

$$$$
41:0:0
     RDKit          3D

 97106  0  0  1  0  0  0  0  0999 V2000
  -26.4780  -22.6310   21.6380 C   0  0  0  0  0  0  0  0  0  0  0  0
  -27.4990  -22.9430   22.4510 N   0  0  0  0  0  0  0  0  0  0  0  0
  -25.3620  -22.4280   22.1180 O   0  0  0  0  0  0  0  0  0  0  0  0
  -27.2620  -23.0150   23.4310 H   0  0  0  0  0  0  0  0  0  0  0  0
  -26.6670  -22.5660   20.1110 C   0  0  0  0  0  2  0  0  0  0  0  0
  -30.4300  -18.7610   17.9670 C   0  0  0  0  0  3  0  0  0  0  0  0
  -28.9040  -20.6400   17.6770 C   0  0  0  0  0  3  0  0  0  0  0  0
  -31.0330  -17.7980   18.7980 C   0  0  0  0  0  3  0  0  0  0  0  0
  -27.9960  -21.5630   18.2240 C   0  0  0  0  0  3  0  0  0  0  0  0
  -29.6360  -18.5180   20.6570 C   0  0  0  0  0  3  0  0  0  0  0  0
  -28.1190  -20.4220   20.3740 C   0  0  0  0  0  3  0  0  0  0  0  0
  -29.4590  -19.6330   18.4890 C   0  0  0  0  0  0  0  0  0  0  0  0
  -29.0620  -19.5180   19.8410 C   0  0  0  0  0  0  0  0  0  0  0  0
  -30.6370  -17.6590   20.1510 C   0  0  0  0  0  0  0  0  0  0  0  0
  -27.6080  -21.4800   19.5790 C   0  0  0  0  0  0  0  0  0  0  0  0
  -31.2880  -16.6530   21.1130 C   0  0  0  0  0  2  0  0  0  0  0  0
  -31.9060  -15.4190   20.4300 C   0  0  0  0  0  0  0  0  0  0  0  0
  -31.6230  -13.2010   19.3920 C   0  0  0  0  0  2  0  0  0  0  0  0
  -30.7470  -13.3080   18.1280 C   0  0  0  0  0  2  0  0  0  0  0  0
  -29.2520  -13.2100   18.4900 C   0  0  0  0  0  2  0  0  0  0  0  0
  -28.8550  -14.1630   19.6450 C   0  0  0  0  0  3  0  0  0  0  0  0
  -29.8400  -14.0330   20.8240 C   0  0  0  0  0  2  0  0  0  0  0  0
  -31.2050  -14.2610   20.3210 N   0  0  0  0  0  0  0  0  0  0  0  0
  -33.0200  -15.5620   19.9170 O   0  0  0  0  0  0  0  0  0  0  0  0
  -26.4490  -14.8660   20.2320 C   0  0  0  0  0  0  0  0  0  0  0  0
  -25.3400  -14.1330   20.5700 C   0  0  0  0  0  0  0  0  0  0  0  0
  -25.7620  -12.7680   20.5910 C   0  0  0  0  0  0  0  0  0  0  0  0
  -27.4740  -13.9460   20.0700 N   0  0  0  0  0  0  0  0  0  0  0  0
  -27.0610  -12.6830   20.3420 N   0  0  0  0  0  0  0  0  0  0  0  0
  -24.9900  -11.5310   20.7770 C   0  0  0  0  0  0  0  0  0  0  0  0
  -25.3100  -10.6080   21.7970 C   0  0  0  0  0  3  0  0  0  0  0  0
  -24.5440   -9.4350   21.9670 C   0  0  0  0  0  3  0  0  0  0  0  0
  -23.4430   -9.1770   21.1170 C   0  0  0  0  0  0  0  0  0  0  0  0
  -23.1430  -10.0870   20.0880 C   0  0  0  0  0  3  0  0  0  0  0  0
  -23.9100  -11.2520   19.9170 C   0  0  0  0  0  3  0  0  0  0  0  0
  -22.6570   -8.0510   21.1930 O   0  0  0  0  0  0  0  0  0  0  0  0
  -22.3750   -7.4490   22.3920 C   0  0  0  0  0  0  0  0  0  0  0  0
  -21.7660   -8.1520   23.4560 C   0  0  0  0  0  3  0  0  0  0  0  0
  -21.4300   -7.4750   24.6450 C   0  0  0  0  0  3  0  0  0  0  0  0
  -21.6920   -6.0990   24.7720 C   0  0  0  0  0  0  0  0  0  0  0  0
  -22.2940   -5.3950   23.7130 C   0  0  0  0  0  3  0  0  0  0  0  0
  -22.6310   -6.0680   22.5260 C   0  0  0  0  0  0  0  0  0  0  0  0
  -23.1900   -5.3820   21.5000 F   0  0  0  0  0  0  0  0  0  0  0  0
  -21.3630   -5.4470   25.9110 F   0  0  0  0  0  0  0  0  0  0  0  0
  -23.9490  -14.6570   20.7730 C   0  0  0  0  0  0  0  0  0  0  0  0
  -23.1770  -14.0200   21.6480 N   0  0  0  0  0  0  0  0  0  0  0  0
  -23.5510  -15.6660   20.1920 O   0  0  0  0  0  0  0  0  0  0  0  0
  -23.5070  -13.2020   22.1370 H   0  0  0  0  0  0  0  0  0  0  0  0
  -22.2420  -14.3590   21.8300 H   0  0  0  0  0  0  0  0  0  0  0  0
  -26.6710  -16.2240   20.0340 N   0  0  0  0  0  0  0  0  0  0  0  0
  -25.9390  -16.9210   20.1060 H   0  0  0  0  0  0  0  0  0  0  0  0
  -27.5710  -16.6220   19.7920 H   0  0  0  0  0  0  0  0  0  0  0  0
  -28.9230  -23.0410   22.1350 C   0  0  0  0  0  2  0  0  0  0  0  0
  -29.4610  -24.4770   22.2720 C   0  0  0  0  0  2  0  0  0  0  0  0
  -29.3600  -25.3040   20.9770 C   0  0  0  0  0  2  0  0  0  0  0  0
  -29.9410  -26.7190   21.1380 C   0  0  0  0  0  2  0  0  0  0  0  0
  -29.6370  -27.5180   19.9980 O   0  0  0  0  0  0  0  0  0  0  0  0
  -25.0100  -31.4770   23.6580 C   0  0  0  0  0  0  0  0  0  0  0  0
  -28.3980  -28.1000   20.0490 C   0  0  0  0  0  0  0  0  0  0  0  0
  -24.1060  -30.3130   21.6720 C   0  0  0  0  0  3  0  0  0  0  0  0
  -25.8380  -29.2680   20.1190 C   0  0  0  0  0  0  0  0  0  0  0  0
  -26.5690  -30.9920   21.7810 C   0  0  0  0  0  2  0  0  0  0  0  0
  -26.8710  -29.7960   20.9060 C   0  0  0  0  0  0  0  0  0  0  0  0
  -28.1550  -29.2130   20.8780 C   0  0  0  0  0  3  0  0  0  0  0  0
  -27.3610  -27.5800   19.2510 C   0  0  0  0  0  3  0  0  0  0  0  0
  -26.0750  -28.1560   19.2890 C   0  0  0  0  0  3  0  0  0  0  0  0
  -24.4940  -29.9520   20.2120 C   0  0  0  0  0  2  0  0  0  0  0  0
  -25.2400  -30.9320   22.4320 N   0  0  0  0  0  0  0  0  0  0  0  0
  -23.8690  -31.5140   24.1380 O   0  0  0  0  0  0  0  0  0  0  0  0
  -23.5260  -29.0510   22.3540 C   0  0  0  0  0  0  0  0  0  0  0  0
  -22.2700  -28.7150   22.0190 N   0  0  0  0  0  0  0  0  0  0  0  0
  -24.2070  -28.3830   23.1370 O   0  0  0  0  0  0  0  0  0  0  0  0
  -21.7740  -29.3210   21.3830 H   0  0  0  0  0  0  0  0  0  0  0  0
  -19.1160  -26.9700   21.8040 C   0  0  0  0  0  0  0  0  0  0  0  0
  -21.5380  -27.5450   22.5020 C   0  0  0  0  0  3  0  0  0  0  0  0
  -21.9550  -26.2700   21.7340 C   0  0  0  0  0  2  0  0  0  0  0  0
  -21.0570  -25.9720   20.5280 C   0  0  0  0  0  2  0  0  0  0  0  0
  -19.6010  -25.8000   20.9640 C   0  0  0  0  0  2  0  0  0  0  0  0
  -20.0260  -27.7990   22.5130 C   0  0  0  0  0  0  0  0  0  0  0  0
  -19.5260  -28.8960   23.2460 C   0  0  0  0  0  3  0  0  0  0  0  0
  -18.1460  -29.1700   23.2800 C   0  0  0  0  0  3  0  0  0  0  0  0
  -17.2480  -28.3400   22.5880 C   0  0  0  0  0  3  0  0  0  0  0  0
  -17.7330  -27.2410   21.8570 C   0  0  0  0  0  3  0  0  0  0  0  0
  -26.1620  -32.1050   24.5050 C   0  0  0  0  0  3  0  0  0  0  0  0
  -25.7310  -33.4490   24.9080 N   0  0  0  0  0  0  0  0  0  0  0  0
  -26.1150  -34.5830   24.3050 C   0  0  0  0  0  0  0  0  0  0  0  0
  -26.9350  -34.6090   23.3840 O   0  0  0  0  0  0  0  0  0  0  0  0
  -25.0110  -33.5000   25.6140 H   0  0  0  0  0  0  0  0  0  0  0  0
  -24.3510  -36.3190   23.8520 C   0  0  0  0  0  1  0  0  0  0  0  0
  -25.4840  -35.8980   24.8020 C   0  0  0  0  0  3  0  0  0  0  0  0
  -27.4230  -36.7960   26.0100 C   0  0  0  0  0  1  0  0  0  0  0  0
  -26.4570  -37.0040   24.9340 N   0  0  0  0  0  0  0  0  0  0  0  0
  -25.9800  -37.8860   25.1010 H   0  0  0  0  0  0  0  0  0  0  0  0
  -26.5550  -31.2400   25.7630 C   0  0  1  0  0  0  0  0  0  0  0  0
  -25.3460  -30.8340   26.6400 C   0  0  0  0  0  1  0  0  0  0  0  0
  -27.2820  -29.9430   25.3310 C   0  0  0  0  0  1  0  0  0  0  0  0
  -27.5470  -32.0280   26.6510 C   0  0  0  0  0  1  0  0  0  0  0  0
  1  3  2  0
  1  2  1  0
  2  4  1  0
  5  1  1  0
  6 12  2  0
  6  8  1  0
  7  9  2  0
  7 12  1  0
  8 14  2  0
  9 15  1  0
 12 13  1  0
 13 11  1  0
 13 10  2  0
 14 10  1  0
 14 16  1  0
 15  5  1  0
 15 11  2  0
 17 16  1  0
 18 23  1  0
 19 20  1  0
 19 18  1  0
 21 20  1  0
 21 28  1  0
 21 22  1  0
 23 17  1  0
 23 22  1  0
 24 17  2  0
 25 26  2  0
 26 27  1  0
 26 45  1  0
 27 30  1  0
 28 25  1  0
 28 29  1  0
 29 27  2  0
 30 31  1  0
 31 32  2  0
 33 36  1  0
 33 32  1  0
 34 33  2  0
 35 34  1  0
 35 30  2  0
 36 37  1  0
 37 42  2  0
 37 38  1  0
 38 39  2  0
 39 40  1  0
 40 44  1  0
 41 40  2  0
 42 41  1  0
 43 42  1  0
 45 46  1  0
 46 49  1  0
 46 48  1  0
 47 45  2  0
 50 51  1  0
 50 25  1  0
 52 50  1  0
 53 54  1  0
 53  2  1  0
 55 56  1  0
 55 54  1  0
 57 59  1  0
 57 56  1  0
 58 69  2  0
 59 64  1  0
 60 70  1  0
 60 68  1  0
 61 67  1  0
 61 63  1  0
 62 68  1  0
 63 62  1  0
 64 63  2  0
 65 66  1  0
 65 59  2  0
 66 61  2  0
 67 60  1  0
 68 58  1  0
 70 72  2  0
 71 70  1  0
 73 71  1  0
 74 83  2  0
 74 79  1  0
 75 71  1  0
 75 79  1  0
 76 75  1  0
 77 78  1  0
 77 76  1  0
 78 74  1  0
 79 80  2  0
 80 81  1  0
 82 81  2  0
 83 82  1  0
 84 58  1  0
 84 85  1  0
 84 94  1  0
 85 88  1  0
 86 90  1  0
 86 85  1  0
 87 86  2  0
 90 89  1  0
 90 92  1  0
 92 93  1  0
 92 91  1  0
 94 95  1  1
 94 97  1  0
 96 94  1  0
M  ISO  4  16 100  17 100  56 101  57 101
M  END
>  <TORSDO>  (42) 
F 23

>  <SCORE>  (42) 
-6.876

>  <name>  (42) 
41

>  <ligand_id>  (42) 
41

>  <original_smiles>  (42) 
[H]c1c([H])c([H])c2c(c1[H])C([H])([H])C([H])([H])C([H])([H])C2([H])N([H])C(=O)C1([H])N(C(=O)C([H])(N([H])C(=O)C([H])(N([H])C([H])([H])[H])C([H])([H])[H])C(C([H])([H])[H])(C([H])([H])[H])C([H])([H])[H])C([H])([H])c2c([H])c(OC([H])([H])C([H])([H])C([H])([H])C([H])([H])N([H])C(=O)C([H])([H])c3c([H])c([H])c4c([H])c([H])c(C([H])([H])C(=O)N5C([H])([H])C([H])([H])C([H])([H])C([H])(n6nc(-c7c([H])c([H])c(Oc8c([H])c([H])c(F)c([H])c8F)c([H])c7[H])c(C(=O)N([H])[H])c6N([H])[H])C5([H])[H])c([H])c4c3[H])c([H])c([H])c2C1([H])[H]

>  <smiles>  (42) 
[H]c1c([H])c([H])c2c(c1[H])C([H])([H])C([H])([H])C([H])([H])C2([H])N([H])C(=O)C1([H])N(C(=O)C([H])(N([H])C(=O)C([H])(N([H])C([H])([H])[H])C([H])([H])[H])C(C([H])([H])[H])(C([H])([H])[H])C([H])([H])[H])C([H])([H])c2c([H])c(OC([H])([H])C([H])([H])C([H])([H])C([H])([H])N([H])C(=O)C([H])([H])c3c([H])c([H])c4c([H])c([H])c(C([H])([H])C(=O)N5C([H])([H])C([H])([H])C([H])([H])C([H])(n6nc(-c7c([H])c([H])c(Oc8c([H])c([H])c(F)c([H])c8F)c([H])c7[H])c(C(=O)N([H])[H])c6N([H])[H])C5([H])[H])c([H])c4c3[H])c([H])c([H])c2C1([H])[H]

$$$$
42:0:0
     RDKit          3D

 97106  0  0  1  0  0  0  0  0999 V2000
  -28.6580  -20.2550   18.7400 C   0  0  0  0  0  2  0  0  0  0  0  0
  -28.5800  -20.1280   20.2790 C   0  0  0  0  0  2  0  0  0  0  0  0
  -28.6120  -25.2320   24.0340 C   0  0  0  0  0  3  0  0  0  0  0  0
  -29.0810  -23.9970   23.5020 C   0  0  0  0  0  3  0  0  0  0  0  0
  -27.4710  -25.9970   23.6390 C   0  0  0  0  0  3  0  0  0  0  0  0
  -29.0370  -22.0590   22.0270 C   0  0  0  0  0  3  0  0  0  0  0  0
  -27.2540  -22.4200   20.7590 C   0  0  0  0  0  3  0  0  0  0  0  0
  -28.5040  -23.2750   22.4680 C   0  0  0  0  0  0  0  0  0  0  0  0
  -27.2850  -23.5360   21.6420 C   0  0  0  0  0  0  0  0  0  0  0  0
  -26.3670  -24.6150   21.7090 C   0  0  0  0  0  0  0  0  0  0  0  0
  -26.4640  -25.7510   22.6340 C   0  0  0  0  0  0  0  0  0  0  0  0
  -28.3040  -21.4580   20.9600 C   0  0  0  0  0  0  0  0  0  0  0  0
  -25.3760  -26.8260   22.6010 C   0  0  0  0  0  1  0  0  0  0  0  0
  -25.1750  -24.6020   20.7790 C   0  0  0  0  0  0  0  0  0  0  0  0
  -24.0830  -25.7670   18.8870 C   0  0  0  0  0  2  0  0  0  0  0  0
  -24.0600  -24.9480   17.5890 C   0  0  0  0  0  2  0  0  0  0  0  0
  -25.3730  -25.1220   16.8030 C   0  0  0  0  0  2  0  0  0  0  0  0
  -26.6250  -24.9040   17.6910 C   0  0  0  0  0  3  0  0  0  0  0  0
  -26.5250  -25.7240   18.9950 C   0  0  0  0  0  2  0  0  0  0  0  0
  -25.2640  -25.3640   19.6610 N   0  0  0  0  0  0  0  0  0  0  0  0
  -24.1240  -24.0740   21.1590 O   0  0  0  0  0  0  0  0  0  0  0  0
  -28.7350  -24.3340   16.3300 C   0  0  0  0  0  0  0  0  0  0  0  0
  -29.6760  -25.1250   15.7320 C   0  0  0  0  0  0  0  0  0  0  0  0
  -29.3060  -26.4740   16.0310 C   0  0  0  0  0  0  0  0  0  0  0  0
  -27.8540  -25.1990   16.9620 N   0  0  0  0  0  0  0  0  0  0  0  0
  -28.2400  -26.4940   16.8190 N   0  0  0  0  0  0  0  0  0  0  0  0
  -29.8750  -27.7440   15.5650 C   0  0  0  0  0  0  0  0  0  0  0  0
  -30.2740  -28.7460   16.4770 C   0  0  0  0  0  3  0  0  0  0  0  0
  -30.8370  -29.9550   16.0110 C   0  0  0  0  0  3  0  0  0  0  0  0
  -31.0060  -30.1700   14.6220 C   0  0  0  0  0  0  0  0  0  0  0  0
  -30.5910  -29.1760   13.7190 C   0  0  0  0  0  3  0  0  0  0  0  0
  -30.0270  -27.9760   14.1830 C   0  0  0  0  0  3  0  0  0  0  0  0
  -31.5200  -31.3190   14.0740 O   0  0  0  0  0  0  0  0  0  0  0  0
  -32.3650  -32.1370   14.7800 C   0  0  0  0  0  0  0  0  0  0  0  0
  -33.5690  -31.6590   15.3420 C   0  0  0  0  0  3  0  0  0  0  0  0
  -34.4420  -32.5470   16.0000 C   0  0  0  0  0  3  0  0  0  0  0  0
  -34.1220  -33.9160   16.0870 C   0  0  0  0  0  0  0  0  0  0  0  0
  -32.9260  -34.3950   15.5220 C   0  0  0  0  0  3  0  0  0  0  0  0
  -32.0530  -33.5090   14.8690 C   0  0  0  0  0  0  0  0  0  0  0  0
  -30.9140  -33.9810   14.3080 F   0  0  0  0  0  0  0  0  0  0  0  0
  -34.9660  -34.7710   16.7080 F   0  0  0  0  0  0  0  0  0  0  0  0
  -30.8050  -24.6650   14.8550 C   0  0  0  0  0  0  0  0  0  0  0  0
  -31.9330  -25.3630   14.8910 N   0  0  0  0  0  0  0  0  0  0  0  0
  -30.7070  -23.6470   14.1690 O   0  0  0  0  0  0  0  0  0  0  0  0
  -32.0240  -26.1860   15.4700 H   0  0  0  0  0  0  0  0  0  0  0  0
  -32.7240  -25.0670   14.3350 H   0  0  0  0  0  0  0  0  0  0  0  0
  -28.5460  -22.9540   16.3750 N   0  0  0  0  0  0  0  0  0  0  0  0
  -29.1610  -22.3060   15.8960 H   0  0  0  0  0  0  0  0  0  0  0  0
  -27.8080  -22.4890   16.8890 H   0  0  0  0  0  0  0  0  0  0  0  0
  -29.9930  -20.8010   18.1890 C   0  0  0  0  0  2  0  0  0  0  0  0
  -30.6560  -21.8620   19.1080 C   0  0  0  0  0  2  0  0  0  0  0  0
  -32.0330  -22.3490   18.6200 C   0  0  0  0  0  0  0  0  0  0  0  0
  -32.1020  -22.6410   17.1340 C   0  0  0  0  0  1  0  0  0  0  0  0
  -33.0710  -22.5620   19.3330 N   0  0  0  0  0  0  0  0  0  0  0  0
  -33.0350  -22.4290   20.7800 C   0  0  0  0  0  2  0  0  0  0  0  0
  -33.1090  -23.8090   21.4710 C   0  0  0  0  0  2  0  0  0  0  0  0
  -33.6080  -24.8140   20.5880 O   0  0  0  0  0  0  0  0  0  0  0  0
  -29.9350  -30.1530   23.5810 C   0  0  0  0  0  0  0  0  0  0  0  0
  -32.8190  -25.9270   20.4410 C   0  0  0  0  0  0  0  0  0  0  0  0
  -29.6210  -29.8350   21.1460 C   0  0  0  0  0  3  0  0  0  0  0  0
  -31.2540  -28.2340   20.0140 C   0  0  0  0  0  0  0  0  0  0  0  0
  -31.8050  -29.1420   22.2780 C   0  0  0  0  0  2  0  0  0  0  0  0
  -31.9330  -28.0610   21.2280 C   0  0  0  0  0  0  0  0  0  0  0  0
  -32.7150  -26.9080   21.4500 C   0  0  0  0  0  3  0  0  0  0  0  0
  -32.1470  -26.1160   19.2190 C   0  0  0  0  0  3  0  0  0  0  0  0
  -31.3590  -27.2630   19.0010 C   0  0  0  0  0  3  0  0  0  0  0  0
  -30.4320  -29.4920   19.8640 C   0  0  0  0  0  2  0  0  0  0  0  0
  -30.4370  -29.7010   22.3960 N   0  0  0  0  0  0  0  0  0  0  0  0
  -28.8310  -30.7140   23.6370 O   0  0  0  0  0  0  0  0  0  0  0  0
  -28.3330  -28.9800   21.1650 C   0  0  0  0  0  0  0  0  0  0  0  0
  -27.1700  -29.6490   21.0870 N   0  0  0  0  0  0  0  0  0  0  0  0
  -28.3930  -27.7490   21.2230 O   0  0  0  0  0  0  0  0  0  0  0  0
  -27.2060  -30.6570   21.0660 H   0  0  0  0  0  0  0  0  0  0  0  0
  -23.7290  -30.1370   22.0730 C   0  0  0  0  0  0  0  0  0  0  0  0
  -25.8360  -29.0480   21.0480 C   0  0  0  0  0  3  0  0  0  0  0  0
  -25.1620  -29.2720   19.6760 C   0  0  0  0  0  2  0  0  0  0  0  0
  -24.2870  -30.5280   19.6350 C   0  0  0  0  0  2  0  0  0  0  0  0
  -23.1810  -30.4500   20.6900 C   0  0  0  0  0  2  0  0  0  0  0  0
  -24.9830  -29.4940   22.2410 C   0  0  0  0  0  0  0  0  0  0  0  0
  -25.4630  -29.2580   23.5480 C   0  0  0  0  0  3  0  0  0  0  0  0
  -24.7110  -29.6520   24.6710 C   0  0  0  0  0  3  0  0  0  0  0  0
  -23.4630  -30.2730   24.4990 C   0  0  0  0  0  3  0  0  0  0  0  0
  -22.9710  -30.5110   23.2030 C   0  0  0  0  0  3  0  0  0  0  0  0
  -30.7370  -30.0130   24.9120 C   0  0  0  0  0  3  0  0  0  0  0  0
  -30.4120  -31.1760   25.7490 N   0  0  0  0  0  0  0  0  0  0  0  0
  -31.1980  -32.2510   25.8940 C   0  0  0  0  0  0  0  0  0  0  0  0
  -32.3210  -32.3340   25.3880 O   0  0  0  0  0  0  0  0  0  0  0  0
  -29.4860  -31.2000   26.1510 H   0  0  0  0  0  0  0  0  0  0  0  0
  -30.1700  -34.5460   25.8060 C   0  0  0  0  0  1  0  0  0  0  0  0
  -30.6530  -33.4210   26.7360 C   0  0  0  0  0  3  0  0  0  0  0  0
  -31.9310  -33.0460   28.7990 C   0  0  0  0  0  1  0  0  0  0  0  0
  -31.6360  -33.9620   27.7010 N   0  0  0  0  0  0  0  0  0  0  0  0
  -31.3060  -34.8370   28.0970 H   0  0  0  0  0  0  0  0  0  0  0  0
  -30.4360  -28.6680   25.6800 C   0  0  1  0  0  0  0  0  0  0  0  0
  -28.9380  -28.2880   25.7190 C   0  0  0  0  0  1  0  0  0  0  0  0
  -31.2030  -27.4910   25.0340 C   0  0  0  0  0  1  0  0  0  0  0  0
  -30.9370  -28.7770   27.1400 C   0  0  0  0  0  1  0  0  0  0  0  0
  1  2  1  0
  2 12  1  0
  4  3  2  0
  5  3  1  0
  6  8  2  0
  7 12  2  0
  7  9  1  0
  8  4  1  0
  9 10  2  0
  9  8  1  0
 10 11  1  0
 11  5  2  0
 12  6  1  0
 13 11  1  0
 14 21  2  0
 14 10  1  0
 15 20  1  0
 16 15  1  0
 17 16  1  0
 18 17  1  0
 18 19  1  0
 19 20  1  0
 20 14  1  0
 22 47  1  0
 22 25  1  0
 23 24  1  0
 23 22  2  0
 24 26  2  0
 25 18  1  0
 26 25  1  0
 27 24  1  0
 27 28  1  0
 29 28  2  0
 30 29  1  0
 31 32  1  0
 31 30  2  0
 32 27  2  0
 33 30  1  0
 33 34  1  0
 34 39  2  0
 34 35  1  0
 35 36  2  0
 36 37  1  0
 37 41  1  0
 38 37  2  0
 39 38  1  0
 40 39  1  0
 42 43  1  0
 42 23  1  0
 43 45  1  0
 44 42  2  0
 46 43  1  0
 47 49  1  0
 48 47  1  0
 50  1  1  0
 50 51  1  0
 52 51  1  0
 52 54  2  0
 53 52  1  0
 54 55  1  0
 55 56  1  0
 57 56  1  0
 58 69  2  0
 59 57  1  0
 59 64  1  0
 60 70  1  0
 60 68  1  0
 61 63  1  0
 62 68  1  0
 63 64  2  0
 63 62  1  0
 65 59  2  0
 66 65  1  0
 66 61  2  0
 67 61  1  0
 67 60  1  0
 68 58  1  0
 70 72  2  0
 71 70  1  0
 73 71  1  0
 74 79  2  0
 74 83  1  0
 75 71  1  0
 75 79  1  0
 76 75  1  0
 77 76  1  0
 77 78  1  0
 78 74  1  0
 79 80  1  0
 80 81  2  0
 82 81  1  0
 83 82  2  0
 84 58  1  0
 84 94  1  0
 84 85  1  0
 85 86  1  0
 85 88  1  0
 86 90  1  0
 87 86  2  0
 90 89  1  0
 90 92  1  0
 92 93  1  0
 92 91  1  0
 94 95  1  1
 94 97  1  0
 96 94  1  0
M  ISO  4  10 100  14 100  56 101  57 101
M  END
>  <TORSDO>  (43) 
F 23

>  <SCORE>  (43) 
1.921

>  <name>  (43) 
42

>  <ligand_id>  (43) 
42

>  <original_smiles>  (43) 
[H]c1c([H])c2c([H])c(C([H])([H])C([H])([H])C([H])([H])C([H])([H])C(=NC([H])([H])C([H])([H])Oc3c([H])c([H])c4c(c3[H])C([H])([H])N(C(=O)C([H])(N([H])C(=O)C([H])(N([H])C([H])([H])[H])C([H])([H])[H])C(C([H])([H])[H])(C([H])([H])[H])C([H])([H])[H])C([H])(C(=O)N([H])C3([H])c5c([H])c([H])c([H])c([H])c5C([H])([H])C([H])([H])C3([H])[H])C4([H])[H])C([H])([H])[H])c([H])c-2c(C(=O)N2C([H])([H])C([H])([H])C([H])([H])C([H])(n3nc(-c4c([H])c([H])c(Oc5c([H])c([H])c(F)c([H])c5F)c([H])c4[H])c(C(=O)N([H])[H])c3N([H])[H])C2([H])[H])c(C([H])([H])[H])c1[H]

>  <smiles>  (43) 
[H]c1c([H])c2c([H])c(C([H])([H])C([H])([H])C([H])([H])C([H])([H])C(=NC([H])([H])C([H])([H])Oc3c([H])c([H])c4c(c3[H])C([H])([H])N(C(=O)C([H])(N([H])C(=O)C([H])(N([H])C([H])([H])[H])C([H])([H])[H])C(C([H])([H])[H])(C([H])([H])[H])C([H])([H])[H])C([H])(C(=O)N([H])C3([H])c5c([H])c([H])c([H])c([H])c5C([H])([H])C([H])([H])C3([H])[H])C4([H])[H])C([H])([H])[H])c([H])c-2c(C(=O)N2C([H])([H])C([H])([H])C([H])([H])C([H])(n3nc(-c4c([H])c([H])c(Oc5c([H])c([H])c(F)c([H])c5F)c([H])c4[H])c(C(=O)N([H])[H])c3N([H])[H])C2([H])[H])c(C([H])([H])[H])c1[H]

$$$$
43:0:0
     RDKit          3D

 86 91  0  0  1  0  0  0  0  0999 V2000
  -28.3460  -21.7030   20.6220 C   0  0  0  0  0  0  0  0  0  0  0  0
  -29.7340  -22.8320   19.2900 C   0  0  0  0  0  2  0  0  0  0  0  0
  -28.3380  -23.4140   19.8760 C   0  0  0  0  0  2  0  0  0  0  0  0
  -30.1780  -21.1980   19.4240 C   0  0  0  0  0  3  0  0  0  0  0  0
  -29.0930  -20.1150   19.9390 C   0  0  0  0  0  3  0  0  0  0  0  0
  -31.4590  -21.0820   20.2690 C   0  0  0  0  0  1  0  0  0  0  0  0
  -28.1750  -19.8230   18.7390 C   0  0  0  0  0  1  0  0  0  0  0  0
  -27.7740  -21.5860   21.7080 O   0  0  0  0  0  0  0  0  0  0  0  0
  -28.1460  -25.2610   20.3270 O   0  0  0  0  0  1  0  0  0  0  0  0
  -24.6200  -31.8680   23.1680 C   0  0  0  0  0  0  0  0  0  0  0  0
  -27.2040  -26.5930   20.2020 C   0  0  0  0  0  0  0  0  0  0  0  0
  -23.4670  -30.4610   21.5180 C   0  0  0  0  0  3  0  0  0  0  0  0
  -24.9420  -28.7790   20.1210 C   0  0  0  0  0  0  0  0  0  0  0  0
  -26.0560  -30.5450   21.4510 C   0  0  0  0  0  2  0  0  0  0  0  0
  -26.1310  -29.0880   20.7890 C   0  0  0  0  0  0  0  0  0  0  0  0
  -27.2260  -28.0290   20.7950 C   0  0  0  0  0  3  0  0  0  0  0  0
  -25.9820  -26.5680   19.4590 C   0  0  0  0  0  3  0  0  0  0  0  0
  -24.9230  -27.5490   19.4320 C   0  0  0  0  0  3  0  0  0  0  0  0
  -23.7360  -29.7510   20.1540 C   0  0  0  0  0  2  0  0  0  0  0  0
  -24.7400  -30.9990   22.0970 N   0  0  0  0  0  0  0  0  0  0  0  0
  -23.5170  -32.1710   23.6570 O   0  0  0  0  0  0  0  0  0  0  0  0
  -22.7250  -29.4980   22.4880 C   0  0  0  0  0  0  0  0  0  0  0  0
  -21.3930  -29.3430   22.3490 N   0  0  0  0  0  0  0  0  0  0  0  0
  -23.3650  -28.8860   23.3460 O   0  0  0  0  0  0  0  0  0  0  0  0
  -20.9210  -29.8880   21.6410 H   0  0  0  0  0  0  0  0  0  0  0  0
  -18.0080  -28.0860   22.8240 C   0  0  0  0  0  0  0  0  0  0  0  0
  -20.5630  -28.4000   23.1140 C   0  0  0  0  0  3  0  0  0  0  0  0
  -20.6900  -26.9660   22.5510 C   0  0  0  0  0  2  0  0  0  0  0  0
  -19.6090  -26.6230   21.5210 C   0  0  0  0  0  2  0  0  0  0  0  0
  -18.2160  -26.7420   22.1460 C   0  0  0  0  0  2  0  0  0  0  0  0
  -19.1090  -28.8720   23.2630 C   0  0  0  0  0  0  0  0  0  0  0  0
  -18.8530  -30.1230   23.8640 C   0  0  0  0  0  3  0  0  0  0  0  0
  -17.5370  -30.5930   24.0250 C   0  0  0  0  0  3  0  0  0  0  0  0
  -16.4530  -29.8070   23.5970 C   0  0  0  0  0  3  0  0  0  0  0  0
  -16.6900  -28.5540   23.0020 C   0  0  0  0  0  3  0  0  0  0  0  0
  -25.8630  -32.5380   23.8330 C   0  0  0  0  0  3  0  0  0  0  0  0
  -25.5250  -33.9420   24.1540 N   0  0  0  0  0  0  0  0  0  0  0  0
  -25.8610  -35.0120   23.4200 C   0  0  0  0  0  0  0  0  0  0  0  0
  -26.5390  -34.9220   22.3950 O   0  0  0  0  0  0  0  0  0  0  0  0
  -24.9230  -34.0840   24.9520 H   0  0  0  0  0  0  0  0  0  0  0  0
  -24.1350  -36.8210   23.0860 C   0  0  0  0  0  1  0  0  0  0  0  0
  -25.3730  -36.4010   23.8940 C   0  0  0  0  0  3  0  0  0  0  0  0
  -27.4970  -37.2950   24.7480 C   0  0  0  0  0  1  0  0  0  0  0  0
  -26.4050  -37.4570   23.7930 N   0  0  0  0  0  0  0  0  0  0  0  0
  -25.9940  -38.3760   23.9360 H   0  0  0  0  0  0  0  0  0  0  0  0
  -26.3310  -31.8000   25.1490 C   0  0  1  0  0  0  0  0  0  0  0  0
  -25.2010  -31.5860   26.1840 C   0  0  0  0  0  1  0  0  0  0  0  0
  -26.9290  -30.4140   24.8260 C   0  0  0  0  0  1  0  0  0  0  0  0
  -27.4600  -32.6110   25.8310 C   0  0  0  0  0  1  0  0  0  0  0  0
  -29.5020  -18.0980   20.4760 C   0  0  0  0  0 15  0  0  0  0  0  0
  -30.2040  -16.2380   20.0870 C   0  0  0  0  0  2  0  0  0  0  0  0
  -30.4120  -13.5780   19.3080 C   0  0  0  0  0  2  0  0  0  0  0  0
  -29.5480  -13.0250   18.1230 C   0  0  0  0  0  2  0  0  0  0  0  0
  -28.1590  -12.5810   18.5960 C   0  0  0  0  0  2  0  0  0  0  0  0
  -27.6080  -13.5930   19.6200 C   0  0  0  0  0  3  0  0  0  0  0  0
  -28.6230  -14.0490   20.7080 C   0  0  0  0  0  2  0  0  0  0  0  0
  -29.7510  -14.7870   20.0530 N   0  0  0  0  0  0  0  0  0  0  0  0
  -31.4210  -16.0940   19.8100 O   0  0  0  0  0  1  0  0  0  0  0  0
  -25.2600  -14.0760   20.4220 C   0  0  0  0  0  0  0  0  0  0  0  0
  -24.2100  -13.2860   20.7970 C   0  0  0  0  0  0  0  0  0  0  0  0
  -24.6910  -11.9400   20.7530 C   0  0  0  0  0  0  0  0  0  0  0  0
  -26.3080  -13.2180   20.1610 N   0  0  0  0  0  0  0  0  0  0  0  0
  -25.9830  -11.9220   20.4230 N   0  0  0  0  0  0  0  0  0  0  0  0
  -23.9680  -10.6740   20.9480 C   0  0  0  0  0  0  0  0  0  0  0  0
  -24.3900   -9.7170   21.8990 C   0  0  0  0  0  3  0  0  0  0  0  0
  -23.6610   -8.5220   22.0860 C   0  0  0  0  0  3  0  0  0  0  0  0
  -22.4950   -8.2740   21.3240 C   0  0  0  0  0  0  0  0  0  0  0  0
  -22.0910   -9.2180   20.3630 C   0  0  0  0  0  3  0  0  0  0  0  0
  -22.8200  -10.4040   20.1750 C   0  0  0  0  0  3  0  0  0  0  0  0
  -21.7400   -7.1290   21.4190 O   0  0  0  0  0  0  0  0  0  0  0  0
  -21.6560   -6.4160   22.5880 C   0  0  0  0  0  0  0  0  0  0  0  0
  -21.1480   -6.9880   23.7740 C   0  0  0  0  0  3  0  0  0  0  0  0
  -21.0140   -6.2000   24.9360 C   0  0  0  0  0  3  0  0  0  0  0  0
  -21.3760   -4.8390   24.9090 C   0  0  0  0  0  0  0  0  0  0  0  0
  -21.8750   -4.2660   23.7270 C   0  0  0  0  0  3  0  0  0  0  0  0
  -22.0110   -5.0510   22.5690 C   0  0  0  0  0  0  0  0  0  0  0  0
  -22.4720   -4.4880   21.4260 F   0  0  0  0  0  0  0  0  0  0  0  0
  -21.2400   -4.0800   26.0220 F   0  0  0  0  0  0  0  0  0  0  0  0
  -22.8140  -13.7550   21.0780 C   0  0  0  0  0  0  0  0  0  0  0  0
  -22.0980  -13.0590   21.9530 N   0  0  0  0  0  0  0  0  0  0  0  0
  -22.3700  -14.7790   20.5600 O   0  0  0  0  0  0  0  0  0  0  0  0
  -22.4740  -12.2340   22.3980 H   0  0  0  0  0  0  0  0  0  0  0  0
  -21.1610  -13.3550   22.1850 H   0  0  0  0  0  0  0  0  0  0  0  0
  -25.4090  -15.4490   20.2480 N   0  0  0  0  0  0  0  0  0  0  0  0
  -24.6410  -16.0990   20.3770 H   0  0  0  0  0  0  0  0  0  0  0  0
  -26.2560  -15.8960   19.9230 H   0  0  0  0  0  0  0  0  0  0  0  0
  1  8  2  0
  2  4  1  0
  2  3  1  0
  3  1  1  0
  4  5  1  0
  4  6  1  0
  5  7  1  0
  5  1  1  0
 10 21  2  0
 11  9  1  0
 11 16  1  0
 12 20  1  0
 12 22  1  0
 13 19  1  0
 13 15  1  0
 14 20  1  0
 15 16  2  0
 15 14  1  0
 17 11  2  0
 18 17  1  0
 18 13  2  0
 19 12  1  0
 20 10  1  0
 22 24  2  0
 23 22  1  0
 25 23  1  0
 26 35  2  0
 26 31  1  0
 27 23  1  0
 27 31  1  0
 28 27  1  0
 29 30  1  0
 29 28  1  0
 30 26  1  0
 31 32  2  0
 32 33  1  0
 34 33  2  0
 35 34  1  0
 36 10  1  0
 36 37  1  0
 36 46  1  0
 37 40  1  0
 38 42  1  0
 38 37  1  0
 39 38  2  0
 42 41  1  0
 44 42  1  0
 44 45  1  0
 44 43  1  0
 46 49  1  1
 46 47  1  0
 48 46  1  0
 52 57  1  0
 53 54  1  0
 53 52  1  0
 55 54  1  0
 55 62  1  0
 55 56  1  0
 57 51  1  0
 57 56  1  0
 58 51  1  0
 59 60  2  0
 60 79  1  0
 61 60  1  0
 61 64  1  0
 62 59  1  0
 62 63  1  0
 63 61  2  0
 64 65  1  0
 65 66  2  0
 67 70  1  0
 67 66  1  0
 68 67  2  0
 69 68  1  0
 69 64  2  0
 70 71  1  0
 71 72  1  0
 72 73  2  0
 74 73  1  0
 74 78  1  0
 75 74  2  0
 76 71  2  0
 76 75  1  0
 77 76  1  0
 79 80  1  0
 80 83  1  0
 80 82  1  0
 81 79  2  0
 84 85  1  0
 84 59  1  0
 86 84  1  0
M  ISO  4   3 101   9 101  50 100  51 100
M  END
>  <TORSDO>  (44) 
F 17

>  <SCORE>  (44) 
-16.409

>  <name>  (44) 
43

>  <ligand_id>  (44) 
43

>  <original_smiles>  (44) 
[H]c1c([H])c([H])c2c(c1[H])C([H])([H])C([H])([H])C([H])([H])C2([H])N([H])C(=O)C1([H])N(C(=O)C([H])(N([H])C(=O)C([H])(N([H])C([H])([H])[H])C([H])([H])[H])C(C([H])([H])[H])(C([H])([H])[H])C([H])([H])[H])C([H])([H])c2c([H])c(OC3([H])C(=O)C(C([H])([H])[H])(C([H])([H])C(=O)N4C([H])([H])C([H])([H])C([H])([H])C([H])(n5nc(-c6c([H])c([H])c(Oc7c([H])c([H])c(F)c([H])c7F)c([H])c6[H])c(C(=O)N([H])[H])c5N([H])[H])C4([H])[H])C([H])(C([H])([H])[H])C3([H])[H])c([H])c([H])c2C1([H])[H]

>  <smiles>  (44) 
[H]c1c([H])c([H])c2c(c1[H])C([H])([H])C([H])([H])C([H])([H])C2([H])N([H])C(=O)C1([H])N(C(=O)C([H])(N([H])C(=O)C([H])(N([H])C([H])([H])[H])C([H])([H])[H])C(C([H])([H])[H])(C([H])([H])[H])C([H])([H])[H])C([H])([H])c2c([H])c(OC3([H])C(=O)C(C([H])([H])[H])(C([H])([H])C(=O)N4C([H])([H])C([H])([H])C([H])([H])C([H])(n5nc(-c6c([H])c([H])c(Oc7c([H])c([H])c(F)c([H])c7F)c([H])c6[H])c(C(=O)N([H])[H])c5N([H])[H])C4([H])[H])C([H])(C([H])([H])[H])C3([H])[H])c([H])c([H])c2C1([H])[H]

$$$$
44:0:0
     RDKit          3D

 91 98  0  0  1  0  0  0  0  0999 V2000
  -29.9380  -21.2770   20.4690 C   0  0  0  0  0  3  0  0  0  0  0  0
  -29.3040  -19.9350   20.7950 N   0  0  0  0  0  4  0  0  0  0  0  0
  -29.3400  -19.7820   21.7880 H   0  0  0  0  0  0  0  0  0  0  0  0
  -28.3300  -20.1120   20.5850 H   0  0  0  0  0  0  0  0  0  0  0  0
  -29.6820  -18.6740   20.0310 C   0  0  0  0  0  2  0  0  0  0  0  0
  -30.2950  -17.4230   20.8230 C   0  0  0  0  0  2  0  0  0  0  0  0
  -29.6650  -15.9740   20.5660 C   0  0  0  0  0  2  0  0  0  0  0  0
  -30.5570  -14.6680   20.4070 C   0  0  0  0  0  0  0  0  0  0  0  0
  -30.3760  -12.4200   19.3660 C   0  0  0  0  0  2  0  0  0  0  0  0
  -29.4330  -12.5510   18.1450 C   0  0  0  0  0  2  0  0  0  0  0  0
  -27.9570  -12.3930   18.5630 C   0  0  0  0  0  2  0  0  0  0  0  0
  -27.5910  -13.2580   19.7960 C   0  0  0  0  0  3  0  0  0  0  0  0
  -28.6450  -13.1000   20.9140 C   0  0  0  0  0  2  0  0  0  0  0  0
  -29.9620  -13.4340   20.3560 N   0  0  0  0  0  0  0  0  0  0  0  0
  -31.7450  -14.8020   20.0990 O   0  0  0  0  0  0  0  0  0  0  0  0
  -25.1950  -13.8730   20.4890 C   0  0  0  0  0  0  0  0  0  0  0  0
  -24.1210  -13.1080   20.8540 C   0  0  0  0  0  0  0  0  0  0  0  0
  -24.5800  -11.7550   20.8410 C   0  0  0  0  0  0  0  0  0  0  0  0
  -26.2380  -12.9870   20.2720 N   0  0  0  0  0  0  0  0  0  0  0  0
  -25.8720  -11.7080   20.5460 N   0  0  0  0  0  0  0  0  0  0  0  0
  -23.8490  -10.4960   21.0370 C   0  0  0  0  0  0  0  0  0  0  0  0
  -24.2770   -9.5300   21.9730 C   0  0  0  0  0  3  0  0  0  0  0  0
  -23.5460   -8.3350   22.1550 C   0  0  0  0  0  3  0  0  0  0  0  0
  -22.3730   -8.1000   21.4000 C   0  0  0  0  0  0  0  0  0  0  0  0
  -21.9630   -9.0550   20.4520 C   0  0  0  0  0  3  0  0  0  0  0  0
  -22.6950  -10.2400   20.2690 C   0  0  0  0  0  3  0  0  0  0  0  0
  -21.6150   -6.9580   21.4910 O   0  0  0  0  0  0  0  0  0  0  0  0
  -21.5730   -6.2100   22.6410 C   0  0  0  0  0  0  0  0  0  0  0  0
  -21.1720   -6.7650   23.8750 C   0  0  0  0  0  3  0  0  0  0  0  0
  -21.0780   -5.9450   25.0170 C   0  0  0  0  0  3  0  0  0  0  0  0
  -21.3750   -4.5720   24.9260 C   0  0  0  0  0  0  0  0  0  0  0  0
  -21.7700   -4.0170   23.6960 C   0  0  0  0  0  3  0  0  0  0  0  0
  -21.8660   -4.8340   22.5550 C   0  0  0  0  0  0  0  0  0  0  0  0
  -22.2280   -4.2900   21.3670 F   0  0  0  0  0  0  0  0  0  0  0  0
  -21.2770   -3.7820   26.0210 F   0  0  0  0  0  0  0  0  0  0  0  0
  -22.7220  -13.5900   21.1060 C   0  0  0  0  0  0  0  0  0  0  0  0
  -21.9850  -12.9050   21.9730 N   0  0  0  0  0  0  0  0  0  0  0  0
  -22.2920  -14.6100   20.5710 O   0  0  0  0  0  0  0  0  0  0  0  0
  -22.3480  -12.0790   22.4280 H   0  0  0  0  0  0  0  0  0  0  0  0
  -21.0450  -13.2080   22.1840 H   0  0  0  0  0  0  0  0  0  0  0  0
  -25.3670  -15.2430   20.3030 N   0  0  0  0  0  0  0  0  0  0  0  0
  -24.6020  -15.9020   20.3990 H   0  0  0  0  0  0  0  0  0  0  0  0
  -26.2230  -15.6720   19.9800 H   0  0  0  0  0  0  0  0  0  0  0  0
  -32.3180  -20.6470   21.2260 C   0  0  0  0  0  1  0  0  0  0  0  0
  -30.7150  -21.6080   22.9290 C   0  0  0  0  0  1  0  0  0  0  0  0
  -31.1180  -21.5870   21.4380 C   0  0  0  0  0  3  0  0  0  0  0  0
  -28.8320  -22.4320   20.4770 C   0  0  0  0  0  0  0  0  0  0  0  0
  -27.6370  -22.1300   20.5490 O   0  0  0  0  0  0  0  0  0  0  0  0
  -29.2260  -23.9650   20.3880 C   0  0  0  0  0  3  0  0  0  0  0  0
  -28.0620  -25.0130   20.1060 C   0  0  0  0  0  3  0  0  0  0  0  0
  -28.3100  -26.4730   20.2050 O   0  0  0  0  0  0  0  0  0  0  0  0
  -24.6020  -31.8770   23.2380 C   0  0  0  0  0  0  0  0  0  0  0  0
  -27.1890  -27.3230   20.1620 C   0  0  0  0  0  0  0  0  0  0  0  0
  -23.3870  -30.4830   21.6050 C   0  0  0  0  0  3  0  0  0  0  0  0
  -24.8250  -28.9370   20.1690 C   0  0  0  0  0  0  0  0  0  0  0  0
  -25.9230  -30.8030   21.4020 C   0  0  0  0  0  2  0  0  0  0  0  0
  -26.0000  -29.4240   20.7560 C   0  0  0  0  0  0  0  0  0  0  0  0
  -27.1860  -28.6300   20.7420 C   0  0  0  0  0  3  0  0  0  0  0  0
  -25.9880  -26.8920   19.5520 C   0  0  0  0  0  3  0  0  0  0  0  0
  -24.8210  -27.6760   19.5580 C   0  0  0  0  0  3  0  0  0  0  0  0
  -23.5900  -29.8100   20.2230 C   0  0  0  0  0  2  0  0  0  0  0  0
  -24.6570  -31.0700   22.1390 N   0  0  0  0  0  0  0  0  0  0  0  0
  -23.5230  -32.1550   23.7810 O   0  0  0  0  0  0  0  0  0  0  0  0
  -22.7280  -29.4650   22.5660 C   0  0  0  0  0  0  0  0  0  0  0  0
  -21.4000  -29.2910   22.4460 N   0  0  0  0  0  0  0  0  0  0  0  0
  -23.4080  -28.8360   23.3800 O   0  0  0  0  0  0  0  0  0  0  0  0
  -20.9110  -29.8480   21.7590 H   0  0  0  0  0  0  0  0  0  0  0  0
  -18.0220  -28.1030   22.9560 C   0  0  0  0  0  0  0  0  0  0  0  0
  -20.5820  -28.3560   23.2180 C   0  0  0  0  0  3  0  0  0  0  0  0
  -20.6790  -26.9240   22.6440 C   0  0  0  0  0  2  0  0  0  0  0  0
  -19.5730  -26.6030   21.6330 C   0  0  0  0  0  2  0  0  0  0  0  0
  -18.1940  -26.7530   22.2810 C   0  0  0  0  0  2  0  0  0  0  0  0
  -19.1440  -28.8620   23.3820 C   0  0  0  0  0  0  0  0  0  0  0  0
  -18.9300  -30.1270   23.9740 C   0  0  0  0  0  3  0  0  0  0  0  0
  -17.6270  -30.6320   24.1440 C   0  0  0  0  0  3  0  0  0  0  0  0
  -16.5200  -29.8680   23.7340 C   0  0  0  0  0  3  0  0  0  0  0  0
  -16.7180  -28.6070   23.1470 C   0  0  0  0  0  3  0  0  0  0  0  0
  -25.8900  -32.5060   23.8550 C   0  0  0  0  0  3  0  0  0  0  0  0
  -25.5840  -33.9040   24.1900 N   0  0  0  0  0  0  0  0  0  0  0  0
  -25.9110  -34.9570   23.4300 C   0  0  0  0  0  0  0  0  0  0  0  0
  -26.5710  -34.8550   22.3920 O   0  0  0  0  0  0  0  0  0  0  0  0
  -24.9990  -34.0580   24.9980 H   0  0  0  0  0  0  0  0  0  0  0  0
  -24.1810  -36.7520   23.0950 C   0  0  0  0  0  1  0  0  0  0  0  0
  -25.4300  -36.3450   23.8940 C   0  0  0  0  0  3  0  0  0  0  0  0
  -27.5750  -37.2270   24.7030 C   0  0  0  0  0  1  0  0  0  0  0  0
  -26.4630  -37.3980   23.7720 N   0  0  0  0  0  0  0  0  0  0  0  0
  -26.0580  -38.3180   23.9270 H   0  0  0  0  0  0  0  0  0  0  0  0
  -26.4110  -31.7290   25.1250 C   0  0  1  0  0  0  0  0  0  0  0  0
  -25.3240  -31.4920   26.1990 C   0  0  0  0  0  1  0  0  0  0  0  0
  -26.9870  -30.3490   24.7250 C   0  0  0  0  0  1  0  0  0  0  0  0
  -27.5710  -32.5150   25.7820 C   0  0  0  0  0  1  0  0  0  0  0  0
  1 47  1  0
  1  2  1  0
  1 46  1  0
  2  3  1  0
  4  2  1  0
  5  2  1  0
  5  6  1  0
  7  6  1  0
  8  7  1  0
  9 14  1  0
 10 11  1  0
 10  9  1  0
 12 11  1  0
 12 19  1  0
 12 13  1  0
 14  8  1  0
 14 13  1  0
 15  8  2  0
 16 17  2  0
 17 36  1  0
 18 17  1  0
 18 21  1  0
 19 16  1  0
 19 20  1  0
 20 18  2  0
 21 22  1  0
 22 23  2  0
 24 27  1  0
 24 23  1  0
 25 24  2  0
 26 25  1  0
 26 21  2  0
 27 28  1  0
 28 29  1  0
 29 30  2  0
 31 30  1  0
 31 35  1  0
 32 31  2  0
 33 28  2  0
 33 32  1  0
 34 33  1  0
 36 37  1  0
 37 40  1  0
 37 39  1  0
 38 36  2  0
 41 42  1  0
 41 16  1  0
 43 41  1  0
 44 46  1  0
 46 45  1  0
 47 48  2  0
 49 47  1  0
 50 51  1  0
 50 49  2  0
 52 63  2  0
 53 51  1  0
 53 58  1  0
 54 62  1  0
 54 64  1  0
 55 61  1  0
 55 57  1  0
 56 62  1  0
 57 56  1  0
 58 57  2  0
 59 60  1  0
 59 53  2  0
 60 55  2  0
 61 54  1  0
 62 52  1  0
 64 66  2  0
 65 64  1  0
 67 65  1  0
 68 77  2  0
 68 73  1  0
 69 65  1  0
 69 73  1  0
 70 69  1  0
 71 72  1  0
 71 70  1  0
 72 68  1  0
 73 74  2  0
 74 75  1  0
 76 75  2  0
 77 76  1  0
 78 52  1  0
 78 79  1  0
 78 88  1  0
 79 82  1  0
 80 84  1  0
 80 79  1  0
 81 80  2  0
 84 83  1  0
 86 84  1  0
 86 87  1  0
 86 85  1  0
 88 91  1  1
 88 89  1  0
 90 88  1  0
M  ISO  4   7 100   8 100  50 101  51 101
M  END
>  <TORSDO>  (45) 
F 24

>  <SCORE>  (45) 
-12.703

>  <name>  (45) 
44

>  <ligand_id>  (45) 
44

>  <original_smiles>  (45) 
[H]c1c([H])c([H])c2c(c1[H])C([H])([H])C([H])([H])C([H])([H])C2([H])N([H])C(=O)C1([H])N(C(=O)C([H])(N([H])C(=O)C([H])(N([H])C([H])([H])[H])C([H])([H])[H])C(C([H])([H])[H])(C([H])([H])[H])C([H])([H])[H])C([H])([H])c2c([H])c(OC([H])([H])C([H])([H])C(=O)C([H])(C([H])(C([H])([H])[H])C([H])([H])[H])[N+]([H])([H])C([H])([H])C([H])([H])C([H])([H])C(=O)N3C([H])([H])C([H])([H])C([H])([H])C([H])(n4nc(-c5c([H])c([H])c(Oc6c([H])c([H])c(F)c([H])c6F)c([H])c5[H])c(C(=O)N([H])[H])c4N([H])[H])C3([H])[H])c([H])c([H])c2C1([H])[H]

>  <smiles>  (45) 
[H]c1c([H])c([H])c2c(c1[H])C([H])([H])C([H])([H])C([H])([H])C2([H])N([H])C(=O)C1([H])N(C(=O)C([H])(N([H])C(=O)C([H])(N([H])C([H])([H])[H])C([H])([H])[H])C(C([H])([H])[H])(C([H])([H])[H])C([H])([H])[H])C([H])([H])c2c([H])c(OC([H])([H])C([H])([H])C(=O)C([H])(C([H])(C([H])([H])[H])C([H])([H])[H])[N+]([H])([H])C([H])([H])C([H])([H])C([H])([H])C(=O)N3C([H])([H])C([H])([H])C([H])([H])C([H])(n4nc(-c5c([H])c([H])c(Oc6c([H])c([H])c(F)c([H])c6F)c([H])c5[H])c(C(=O)N([H])[H])c4N([H])[H])C3([H])[H])c([H])c([H])c2C1([H])[H]

$$$$
45:0:0
     RDKit          3D

100109  0  0  1  0  0  0  0  0999 V2000
  -31.3010  -21.2390   21.1050 C   0  0  0  0  0  2  0  0  0  0  0  0
  -30.0170  -23.4170   21.6090 C   0  0  0  0  0  2  0  0  0  0  0  0
  -29.8440  -22.2730   19.2600 C   0  0  0  0  0  2  0  0  0  0  0  0
  -30.2570  -21.9480   21.9670 C   0  0  0  0  0  3  0  0  0  0  0  0
  -28.7810  -21.7770   21.5590 C   0  0  0  0  0  3  0  0  0  0  0  0
  -31.2490  -21.6990   19.6130 C   0  0  0  0  0  3  0  0  0  0  0  0
  -29.1010  -22.8520   20.4920 C   0  0  1  0  0  0  0  0  0  0  0  0
  -31.5730  -21.0000   17.2850 C   0  0  0  0  0  1  0  0  0  0  0  0
  -31.6700  -20.6150   18.7020 N   0  0  0  0  0  0  0  0  0  0  0  0
  -33.0490  -20.1800   19.0050 C   0  0  0  0  0  2  0  0  0  0  0  0
  -33.2350  -18.6960   18.6540 C   0  0  0  0  0  2  0  0  0  0  0  0
  -31.6360  -16.8980   18.1750 C   0  0  0  0  0  1  0  0  0  0  0  0
  -32.0840  -17.9080   19.1620 N   0  0  1  0  0  4  0  0  0  0  0  0
  -31.3760  -18.6390   19.1550 H   0  0  0  0  0  0  0  0  0  0  0  0
  -32.1740  -17.5080   20.6070 C   0  0  0  0  0  2  0  0  0  0  0  0
  -31.4870  -16.1820   21.0570 C   0  0  0  0  0  2  0  0  0  0  0  0
  -32.1250  -14.9050   20.4770 C   0  0  0  0  0  0  0  0  0  0  0  0
  -31.7120  -12.7690   19.3210 C   0  0  0  0  0  2  0  0  0  0  0  0
  -30.8250  -13.0300   18.0840 C   0  0  0  0  0  2  0  0  0  0  0  0
  -29.3310  -13.0110   18.4640 C   0  0  0  0  0  2  0  0  0  0  0  0
  -29.0120  -13.8750   19.7150 C   0  0  0  0  0  3  0  0  0  0  0  0
  -30.0160  -13.5900   20.8560 C   0  0  0  0  0  2  0  0  0  0  0  0
  -31.3760  -13.7820   20.3320 N   0  0  0  0  0  0  0  0  0  0  0  0
  -33.2710  -14.9940   20.0280 O   0  0  0  0  0  0  0  0  0  0  0  0
  -26.6450  -14.6630   20.3540 C   0  0  0  0  0  0  0  0  0  0  0  0
  -25.5120  -13.9710   20.6800 C   0  0  0  0  0  0  0  0  0  0  0  0
  -25.8700  -12.5880   20.6440 C   0  0  0  0  0  0  0  0  0  0  0  0
  -27.6290  -13.7060   20.1480 N   0  0  0  0  0  0  0  0  0  0  0  0
  -27.1610  -12.4520   20.3770 N   0  0  0  0  0  0  0  0  0  0  0  0
  -25.0470  -11.3820   20.7910 C   0  0  0  0  0  0  0  0  0  0  0  0
  -25.3420  -10.3990   21.7610 C   0  0  0  0  0  3  0  0  0  0  0  0
  -24.5240   -9.2570   21.8960 C   0  0  0  0  0  3  0  0  0  0  0  0
  -23.3940   -9.0930   21.0590 C   0  0  0  0  0  0  0  0  0  0  0  0
  -23.1190  -10.0620   20.0780 C   0  0  0  0  0  3  0  0  0  0  0  0
  -23.9370  -11.1960   19.9420 C   0  0  0  0  0  3  0  0  0  0  0  0
  -22.5580   -8.0040   21.1020 O   0  0  0  0  0  0  0  0  0  0  0  0
  -22.3270   -7.3180   22.2690 C   0  0  0  0  0  0  0  0  0  0  0  0
  -21.8060   -7.9560   23.4170 C   0  0  0  0  0  3  0  0  0  0  0  0
  -21.5190   -7.2020   24.5710 C   0  0  0  0  0  3  0  0  0  0  0  0
  -21.7370   -5.8120   24.5780 C   0  0  0  0  0  0  0  0  0  0  0  0
  -22.2500   -5.1750   23.4340 C   0  0  0  0  0  3  0  0  0  0  0  0
  -22.5400   -5.9260   22.2820 C   0  0  0  0  0  0  0  0  0  0  0  0
  -23.0140   -5.3020   21.1760 F   0  0  0  0  0  0  0  0  0  0  0  0
  -21.4520   -5.0860   25.6850 F   0  0  0  0  0  0  0  0  0  0  0  0
  -24.1450  -14.5480   20.9190 C   0  0  0  0  0  0  0  0  0  0  0  0
  -23.3410  -13.8970   21.7490 N   0  0  0  0  0  0  0  0  0  0  0  0
  -23.8030  -15.6120   20.4030 O   0  0  0  0  0  0  0  0  0  0  0  0
  -23.6290  -13.0340   22.1860 H   0  0  0  0  0  0  0  0  0  0  0  0
  -22.4240  -14.2670   21.9550 H   0  0  0  0  0  0  0  0  0  0  0  0
  -26.9150  -16.0210   20.1970 N   0  0  0  0  0  0  0  0  0  0  0  0
  -26.1920  -16.7260   20.2900 H   0  0  0  0  0  0  0  0  0  0  0  0
  -27.8010  -16.4050   19.8970 H   0  0  0  0  0  0  0  0  0  0  0  0
  -28.2130  -20.4140   21.1490 C   0  0  0  0  0  2  0  0  0  0  0  0
  -27.1310  -20.5510   20.0630 C   0  0  0  0  0  2  0  0  0  0  0  0
  -25.7210  -19.4630   18.2570 C   0  0  0  0  0  1  0  0  0  0  0  0
  -26.6940  -19.2280   19.4230 C   0  0  0  0  0  2  0  0  0  0  0  0
  -27.9140  -23.7070   20.0230 C   0  0  0  0  0  2  0  0  0  0  0  0
  -28.1340  -25.2230   20.0600 C   0  0  0  0  0  2  0  0  0  0  0  0
  -29.0820  -25.7650   18.9700 C   0  0  0  0  0  2  0  0  0  0  0  0
  -29.0860  -27.1880   18.9690 O   0  0  0  0  0  0  0  0  0  0  0  0
  -24.8420  -31.2510   22.9180 C   0  0  0  0  0  0  0  0  0  0  0  0
  -27.8530  -27.7850   19.0570 C   0  0  0  0  0  0  0  0  0  0  0  0
  -23.7560  -30.0970   21.0200 C   0  0  0  0  0  3  0  0  0  0  0  0
  -25.3330  -29.0090   19.3390 C   0  0  0  0  0  0  0  0  0  0  0  0
  -26.2260  -30.7270   20.9150 C   0  0  0  0  0  2  0  0  0  0  0  0
  -26.4370  -29.5150   20.0360 C   0  0  0  0  0  0  0  0  0  0  0  0
  -27.7020  -28.9050   19.9000 C   0  0  0  0  0  3  0  0  0  0  0  0
  -26.7320  -27.2970   18.3440 C   0  0  0  0  0  3  0  0  0  0  0  0
  -25.4720  -27.9020   18.4890 C   0  0  0  0  0  3  0  0  0  0  0  0
  -24.0190  -29.7250   19.5350 C   0  0  0  0  0  2  0  0  0  0  0  0
  -24.9610  -30.6900   21.6840 N   0  0  0  0  0  0  0  0  0  0  0  0
  -23.7420  -31.3180   23.4840 O   0  0  0  0  0  0  0  0  0  0  0  0
  -23.2080  -28.8510   21.7500 C   0  0  0  0  0  0  0  0  0  0  0  0
  -21.8950  -28.6030   21.6010 N   0  0  0  0  0  0  0  0  0  0  0  0
  -23.9530  -28.1220   22.4100 O   0  0  0  0  0  0  0  0  0  0  0  0
  -21.3510  -29.2570   21.0550 H   0  0  0  0  0  0  0  0  0  0  0  0
  -18.6130  -27.1390   21.9350 C   0  0  0  0  0  0  0  0  0  0  0  0
  -21.1650  -27.4720   22.1670 C   0  0  0  0  0  3  0  0  0  0  0  0
  -21.3070  -26.2160   21.2780 C   0  0  0  0  0  2  0  0  0  0  0  0
  -20.1740  -26.0660   20.2560 C   0  0  0  0  0  2  0  0  0  0  0  0
  -18.8200  -25.9860   20.9680 C   0  0  0  0  0  2  0  0  0  0  0  0
  -19.7140  -27.8440   22.4880 C   0  0  0  0  0  0  0  0  0  0  0  0
  -19.4700  -28.9270   23.3600 C   0  0  0  0  0  3  0  0  0  0  0  0
  -18.1540  -29.3140   23.6730 C   0  0  0  0  0  3  0  0  0  0  0  0
  -17.0660  -28.6010   23.1400 C   0  0  0  0  0  3  0  0  0  0  0  0
  -17.2970  -27.5120   22.2800 C   0  0  0  0  0  3  0  0  0  0  0  0
  -26.0690  -31.8590   23.6670 C   0  0  0  0  0  3  0  0  0  0  0  0
  -25.6570  -33.1640   24.2000 N   0  0  0  0  0  0  0  0  0  0  0  0
  -25.9520  -34.3400   23.6330 C   0  0  0  0  0  0  0  0  0  0  0  0
  -26.6680  -34.4430   22.6330 O   0  0  0  0  0  0  0  0  0  0  0  0
  -25.0180  -33.1540   24.9820 H   0  0  0  0  0  0  0  0  0  0  0  0
  -24.1250  -36.0610   23.4850 C   0  0  0  0  0  1  0  0  0  0  0  0
  -25.3590  -35.6060   24.2790 C   0  0  0  0  0  3  0  0  0  0  0  0
  -27.3970  -36.4650   25.3450 C   0  0  0  0  0  1  0  0  0  0  0  0
  -26.3240  -36.7200   24.3880 N   0  0  0  0  0  0  0  0  0  0  0  0
  -25.8510  -37.5740   24.6680 H   0  0  0  0  0  0  0  0  0  0  0  0
  -26.6210  -30.9280   24.8130 C   0  0  1  0  0  0  0  0  0  0  0  0
  -25.5330  -30.4440   25.7990 C   0  0  0  0  0  1  0  0  0  0  0  0
  -27.2990  -29.6770   24.2050 C   0  0  0  0  0  1  0  0  0  0  0  0
  -27.7030  -31.6760   25.6280 C   0  0  0  0  0  1  0  0  0  0  0  0
  2  4  1  0
  3  6  1  0
  3  7  1  0
  4  1  1  0
  5 53  1  0
  5  4  1  0
  6  9  1  0
  6  1  1  0
  7 57  1  6
  7  5  1  0
  7  2  1  0
  8  9  1  0
  9 10  1  0
 11 10  1  0
 11 13  1  0
 12 13  1  0
 13 15  1  0
 13 14  1  1
 15 16  1  0
 17 16  1  0
 18 23  1  0
 19 20  1  0
 19 18  1  0
 21 20  1  0
 21 28  1  0
 21 22  1  0
 23 17  1  0
 23 22  1  0
 24 17  2  0
 25 26  2  0
 26 45  1  0
 27 26  1  0
 27 30  1  0
 28 25  1  0
 28 29  1  0
 29 27  2  0
 30 31  1  0
 31 32  2  0
 33 36  1  0
 33 32  1  0
 34 33  2  0
 35 34  1  0
 35 30  2  0
 36 37  1  0
 37 42  2  0
 37 38  1  0
 38 39  2  0
 39 40  1  0
 40 44  1  0
 41 40  2  0
 42 41  1  0
 43 42  1  0
 45 46  1  0
 46 49  1  0
 46 48  1  0
 47 45  2  0
 50 51  1  0
 50 25  1  0
 52 50  1  0
 54 53  1  0
 55 56  1  0
 56 54  1  0
 57 58  1  0
 59 58  1  0
 60 59  1  0
 60 62  1  0
 61 72  2  0
 62 67  1  0
 63 71  1  0
 63 73  1  0
 64 70  1  0
 64 66  1  0
 65 71  1  0
 66 65  1  0
 67 66  2  0
 68 69  1  0
 68 62  2  0
 69 64  2  0
 70 63  1  0
 71 61  1  0
 73 75  2  0
 74 73  1  0
 76 74  1  0
 77 86  2  0
 77 82  1  0
 78 74  1  0
 78 82  1  0
 79 78  1  0
 80 81  1  0
 80 79  1  0
 81 77  1  0
 82 83  2  0
 83 84  1  0
 85 84  2  0
 86 85  1  0
 87 61  1  0
 87 88  1  0
 87 97  1  0
 88 91  1  0
 89 88  1  0
 89 93  1  0
 90 89  2  0
 93 92  1  0
 93 95  1  0
 95 96  1  0
 95 94  1  0
 97100  1  1
 97 98  1  0
 99 97  1  0
M  ISO  4  16 100  17 100  59 101  60 101
M  END
>  <TORSDO>  (46) 
F 28

>  <SCORE>  (46) 
-6.388

>  <name>  (46) 
45

>  <ligand_id>  (46) 
45

>  <original_smiles>  (46) 
[H]c1c([H])c([H])c2c(c1[H])C([H])([H])C([H])([H])C([H])([H])C2([H])N([H])C(=O)C1([H])N(C(=O)C([H])(N([H])C(=O)C([H])(N([H])C([H])([H])[H])C([H])([H])[H])C(C([H])([H])[H])(C([H])([H])[H])C([H])([H])[H])C([H])([H])c2c([H])c(OC([H])([H])C([H])([H])C([H])([H])C34C([H])([H])C([H])(N(C([H])([H])[H])C([H])([H])C([H])([H])[N+]([H])(C([H])([H])[H])C([H])([H])C([H])([H])C(=O)N5C([H])([H])C([H])([H])C([H])([H])C([H])(n6nc(-c7c([H])c([H])c(Oc8c([H])c([H])c(F)c([H])c8F)c([H])c7[H])c(C(=O)N([H])[H])c6N([H])[H])C5([H])[H])C([H])([H])C([H])(C3([H])[H])C4([H])C([H])([H])C([H])([H])C([H])([H])C([H])([H])[H])c([H])c([H])c2C1([H])[H]

>  <smiles>  (46) 
[H]c1c([H])c([H])c2c(c1[H])C([H])([H])C([H])([H])C([H])([H])C2([H])N([H])C(=O)C1([H])N(C(=O)C([H])(N([H])C(=O)C([H])(N([H])C([H])([H])[H])C([H])([H])[H])C(C([H])([H])[H])(C([H])([H])[H])C([H])([H])[H])C([H])([H])c2c([H])c(OC([H])([H])C([H])([H])C([H])([H])C34C([H])([H])C([H])(N(C([H])([H])[H])C([H])([H])C([H])([H])[N+]([H])(C([H])([H])[H])C([H])([H])C([H])([H])C(=O)N5C([H])([H])C([H])([H])C([H])([H])C([H])(n6nc(-c7c([H])c([H])c(Oc8c([H])c([H])c(F)c([H])c8F)c([H])c7[H])c(C(=O)N([H])[H])c6N([H])[H])C5([H])[H])C([H])([H])C([H])(C3([H])[H])C4([H])C([H])([H])C([H])([H])C([H])([H])C([H])([H])[H])c([H])c([H])c2C1([H])[H]

$$$$
46:0:0
     RDKit          3D

 93101  0  0  1  0  0  0  0  0999 V2000
  -30.5880  -19.5580   20.2280 C   0  0  0  0  0  0  0  0  0  0  0  0
  -29.2270  -17.8200   19.1140 C   0  0  0  0  0  2  0  0  0  0  0  0
  -29.0710  -18.7640   17.9020 C   0  0  0  0  0  2  0  0  0  0  0  0
  -30.4100  -20.5520   19.0280 C   0  0  0  0  0  3  0  0  0  0  0  0
  -30.5440  -18.0240   19.9010 C   0  0  1  0  0  0  0  0  0  0  0  0
  -31.7620  -17.6520   19.0150 C   0  0  0  0  0  1  0  0  0  0  0  0
  -28.9720  -21.0360   17.0460 C   0  0  0  0  0  1  0  0  0  0  0  0
  -29.1640  -20.2080   18.2650 N   0  0  1  0  0  4  0  0  0  0  0  0
  -30.7520  -19.9440   21.3890 O   0  0  0  0  0  0  0  0  0  0  0  0
  -28.3840  -20.3990   18.8760 H   0  0  0  0  0  0  0  0  0  0  0  0
  -30.5610  -22.0810   19.3920 C   0  0  0  0  0  2  0  0  0  0  0  0
  -29.3520  -22.8630   19.9950 C   0  0  0  0  0  2  0  0  0  0  0  0
  -29.5700  -24.4060   20.1250 C   0  0  0  0  0  2  0  0  0  0  0  0
  -28.2580  -25.2270   19.9960 C   0  0  0  0  0  2  0  0  0  0  0  0
  -28.3850  -26.6510   20.2040 O   0  0  0  0  0  0  0  0  0  0  0  0
  -24.5850  -31.8980   23.2470 C   0  0  0  0  0  0  0  0  0  0  0  0
  -27.2130  -27.4010   20.1890 C   0  0  0  0  0  0  0  0  0  0  0  0
  -23.3750  -30.4910   21.6150 C   0  0  0  0  0  3  0  0  0  0  0  0
  -24.8210  -28.9410   20.2000 C   0  0  0  0  0  0  0  0  0  0  0  0
  -25.9070  -30.8320   21.4170 C   0  0  0  0  0  2  0  0  0  0  0  0
  -25.9870  -29.4560   20.7800 C   0  0  0  0  0  0  0  0  0  0  0  0
  -27.1850  -28.6970   20.7670 C   0  0  0  0  0  3  0  0  0  0  0  0
  -26.0170  -26.9110   19.6070 C   0  0  0  0  0  3  0  0  0  0  0  0
  -24.8330  -27.6680   19.6120 C   0  0  0  0  0  3  0  0  0  0  0  0
  -23.5820  -29.8050   20.2390 C   0  0  0  0  0  2  0  0  0  0  0  0
  -24.6410  -31.0890   22.1500 N   0  0  0  0  0  0  0  0  0  0  0  0
  -23.5030  -32.1790   23.7830 O   0  0  0  0  0  0  0  0  0  0  0  0
  -22.7180  -29.4780   22.5790 C   0  0  0  0  0  0  0  0  0  0  0  0
  -21.3930  -29.2940   22.4450 N   0  0  0  0  0  0  0  0  0  0  0  0
  -23.3960  -28.8590   23.4050 O   0  0  0  0  0  0  0  0  0  0  0  0
  -20.9090  -29.8450   21.7500 H   0  0  0  0  0  0  0  0  0  0  0  0
  -18.0170  -28.0930   22.9210 C   0  0  0  0  0  0  0  0  0  0  0  0
  -20.5710  -28.3620   23.2180 C   0  0  0  0  0  3  0  0  0  0  0  0
  -20.6850  -26.9250   22.6590 C   0  0  0  0  0  2  0  0  0  0  0  0
  -19.5940  -26.5860   21.6380 C   0  0  0  0  0  2  0  0  0  0  0  0
  -18.2050  -26.7360   22.2650 C   0  0  0  0  0  2  0  0  0  0  0  0
  -19.1290  -28.8640   23.3550 C   0  0  0  0  0  0  0  0  0  0  0  0
  -18.9010  -30.1350   23.9260 C   0  0  0  0  0  3  0  0  0  0  0  0
  -17.5930  -30.6340   24.0720 C   0  0  0  0  0  3  0  0  0  0  0  0
  -16.4950  -29.8600   23.6550 C   0  0  0  0  0  3  0  0  0  0  0  0
  -16.7080  -28.5910   23.0860 C   0  0  0  0  0  3  0  0  0  0  0  0
  -25.8710  -32.5270   23.8640 C   0  0  0  0  0  3  0  0  0  0  0  0
  -25.5670  -33.9270   24.1910 N   0  0  0  0  0  0  0  0  0  0  0  0
  -25.9040  -34.9760   23.4280 C   0  0  0  0  0  0  0  0  0  0  0  0
  -26.5760  -34.8660   22.3990 O   0  0  0  0  0  0  0  0  0  0  0  0
  -24.9700  -34.0860   24.9890 H   0  0  0  0  0  0  0  0  0  0  0  0
  -24.1820  -36.7720   23.0620 C   0  0  0  0  0  1  0  0  0  0  0  0
  -25.4190  -36.3660   23.8790 C   0  0  0  0  0  3  0  0  0  0  0  0
  -27.5570  -37.2460   24.7110 C   0  0  0  0  0  1  0  0  0  0  0  0
  -26.4560  -37.4160   23.7660 N   0  0  0  0  0  0  0  0  0  0  0  0
  -26.0540  -38.3380   23.9100 H   0  0  0  0  0  0  0  0  0  0  0  0
  -26.3870  -31.7570   25.1420 C   0  0  1  0  0  0  0  0  0  0  0  0
  -25.2940  -31.5240   26.2120 C   0  0  0  0  0  1  0  0  0  0  0  0
  -26.9640  -30.3770   24.7500 C   0  0  0  0  0  1  0  0  0  0  0  0
  -27.5410  -32.5490   25.8010 C   0  0  0  0  0  1  0  0  0  0  0  0
  -30.5800  -17.1140   21.1970 C   0  0  0  0  0  2  0  0  0  0  0  0
  -29.9390  -15.6810   21.2010 C   0  0  0  0  0  2  0  0  0  0  0  0
  -30.6620  -14.4930   20.5050 C   0  0  0  0  0  0  0  0  0  0  0  0
  -30.3710  -12.3450   19.3040 C   0  0  0  0  0  2  0  0  0  0  0  0
  -29.4350  -12.5680   18.0980 C   0  0  0  0  0  2  0  0  0  0  0  0
  -27.9560  -12.4350   18.5130 C   0  0  0  0  0  2  0  0  0  0  0  0
  -27.6160  -13.2600   19.7840 C   0  0  0  0  0  3  0  0  0  0  0  0
  -28.6640  -13.0170   20.8930 C   0  0  0  0  0  2  0  0  0  0  0  0
  -29.9940  -13.3170   20.3420 N   0  0  0  0  0  0  0  0  0  0  0  0
  -31.7910  -14.6680   20.0410 O   0  0  0  0  0  0  0  0  0  0  0  0
  -25.2120  -13.8860   20.4590 C   0  0  0  0  0  0  0  0  0  0  0  0
  -24.1350  -13.1230   20.8260 C   0  0  0  0  0  0  0  0  0  0  0  0
  -24.5910  -11.7700   20.8210 C   0  0  0  0  0  0  0  0  0  0  0  0
  -26.2560  -12.9970   20.2520 N   0  0  0  0  0  0  0  0  0  0  0  0
  -25.8840  -11.7200   20.5240 N   0  0  0  0  0  0  0  0  0  0  0  0
  -23.8560  -10.5130   21.0220 C   0  0  0  0  0  0  0  0  0  0  0  0
  -24.2840   -9.5470   21.9590 C   0  0  0  0  0  3  0  0  0  0  0  0
  -23.5510   -8.3550   22.1440 C   0  0  0  0  0  3  0  0  0  0  0  0
  -22.3770   -8.1200   21.3930 C   0  0  0  0  0  0  0  0  0  0  0  0
  -21.9680   -9.0750   20.4440 C   0  0  0  0  0  3  0  0  0  0  0  0
  -22.7020  -10.2570   20.2570 C   0  0  0  0  0  3  0  0  0  0  0  0
  -21.6150   -6.9820   21.4870 O   0  0  0  0  0  0  0  0  0  0  0  0
  -21.5730   -6.2360   22.6370 C   0  0  0  0  0  0  0  0  0  0  0  0
  -21.1830   -6.7960   23.8730 C   0  0  0  0  0  3  0  0  0  0  0  0
  -21.0890   -5.9780   25.0180 C   0  0  0  0  0  3  0  0  0  0  0  0
  -21.3750   -4.6020   24.9260 C   0  0  0  0  0  0  0  0  0  0  0  0
  -21.7580   -4.0430   23.6950 C   0  0  0  0  0  3  0  0  0  0  0  0
  -21.8540   -4.8570   22.5530 C   0  0  0  0  0  0  0  0  0  0  0  0
  -22.2050   -4.3080   21.3640 F   0  0  0  0  0  0  0  0  0  0  0  0
  -21.2760   -3.8150   26.0230 F   0  0  0  0  0  0  0  0  0  0  0  0
  -22.7360  -13.6100   21.0780 C   0  0  0  0  0  0  0  0  0  0  0  0
  -21.9960  -12.9290   21.9450 N   0  0  0  0  0  0  0  0  0  0  0  0
  -22.3080  -14.6300   20.5390 O   0  0  0  0  0  0  0  0  0  0  0  0
  -22.3560  -12.1010   22.3990 H   0  0  0  0  0  0  0  0  0  0  0  0
  -21.0580  -13.2370   22.1580 H   0  0  0  0  0  0  0  0  0  0  0  0
  -25.3890  -15.2520   20.2660 N   0  0  0  0  0  0  0  0  0  0  0  0
  -24.6300  -15.9190   20.3590 H   0  0  0  0  0  0  0  0  0  0  0  0
  -26.2540  -15.6760   19.9600 H   0  0  0  0  0  0  0  0  0  0  0  0
  1  9  2  0
  2  5  1  0
  3  8  1  0
  3  2  1  0
  4 11  1  0
  4  1  1  0
  5  6  1  6
  5  1  1  0
  5 56  1  0
  7  8  1  0
  8 10  1  1
  8  4  1  0
 11 12  1  0
 12 13  1  0
 14 13  1  0
 14 15  1  0
 16 27  2  0
 17 15  1  0
 17 22  1  0
 18 26  1  0
 18 28  1  0
 19 25  1  0
 19 21  1  0
 20 26  1  0
 21 20  1  0
 22 21  2  0
 23 24  1  0
 23 17  2  0
 24 19  2  0
 25 18  1  0
 26 16  1  0
 28 30  2  0
 29 28  1  0
 31 29  1  0
 32 41  2  0
 32 37  1  0
 33 29  1  0
 33 37  1  0
 34 33  1  0
 35 36  1  0
 35 34  1  0
 36 32  1  0
 37 38  2  0
 38 39  1  0
 40 39  2  0
 41 40  1  0
 42 16  1  0
 42 43  1  0
 42 52  1  0
 43 46  1  0
 44 48  1  0
 44 43  1  0
 45 44  2  0
 48 47  1  0
 50 48  1  0
 50 51  1  0
 50 49  1  0
 52 55  1  1
 52 53  1  0
 54 52  1  0
 56 57  1  0
 58 57  1  0
 59 64  1  0
 60 61  1  0
 60 59  1  0
 62 61  1  0
 62 69  1  0
 62 63  1  0
 64 58  1  0
 64 63  1  0
 65 58  2  0
 66 67  2  0
 67 86  1  0
 68 67  1  0
 68 71  1  0
 69 66  1  0
 69 70  1  0
 70 68  2  0
 71 72  1  0
 72 73  2  0
 74 77  1  0
 74 73  1  0
 75 74  2  0
 76 75  1  0
 76 71  2  0
 77 78  1  0
 78 79  1  0
 79 80  2  0
 81 80  1  0
 81 85  1  0
 82 81  2  0
 83 78  2  0
 83 82  1  0
 84 83  1  0
 86 87  1  0
 87 90  1  0
 87 89  1  0
 88 86  2  0
 91 92  1  0
 91 66  1  0
 93 91  1  0
M  ISO  4  14 101  15 101  57 100  58 100
M  END
>  <TORSDO>  (47) 
F 22

>  <SCORE>  (47) 
-13.347

>  <name>  (47) 
46

>  <ligand_id>  (47) 
46

>  <original_smiles>  (47) 
[H]c1c([H])c([H])c2c(c1[H])C([H])([H])C([H])([H])C([H])([H])C2([H])N([H])C(=O)C1([H])N(C(=O)C([H])(N([H])C(=O)C([H])(N([H])C([H])([H])[H])C([H])([H])[H])C(C([H])([H])[H])(C([H])([H])[H])C([H])([H])[H])C([H])([H])c2c([H])c(OC([H])([H])C([H])([H])C([H])([H])C([H])([H])C3([H])C(=O)C(C([H])([H])[H])(C([H])([H])C([H])([H])C(=O)N4C([H])([H])C([H])([H])C([H])([H])C([H])(n5nc(-c6c([H])c([H])c(Oc7c([H])c([H])c(F)c([H])c7F)c([H])c6[H])c(C(=O)N([H])[H])c5N([H])[H])C4([H])[H])C([H])([H])C([H])([H])[N+]3([H])C([H])([H])[H])c([H])c([H])c2C1([H])[H]

>  <smiles>  (47) 
[H]c1c([H])c([H])c2c(c1[H])C([H])([H])C([H])([H])C([H])([H])C2([H])N([H])C(=O)C1([H])N(C(=O)C([H])(N([H])C(=O)C([H])(N([H])C([H])([H])[H])C([H])([H])[H])C(C([H])([H])[H])(C([H])([H])[H])C([H])([H])[H])C([H])([H])c2c([H])c(OC([H])([H])C([H])([H])C([H])([H])C([H])([H])C3([H])C(=O)C(C([H])([H])[H])(C([H])([H])C([H])([H])C(=O)N4C([H])([H])C([H])([H])C([H])([H])C([H])(n5nc(-c6c([H])c([H])c(Oc7c([H])c([H])c(F)c([H])c7F)c([H])c6[H])c(C(=O)N([H])[H])c5N([H])[H])C4([H])[H])C([H])([H])C([H])([H])[N+]3([H])C([H])([H])[H])c([H])c([H])c2C1([H])[H]

$$$$
47:0:0
     RDKit          3D

 95104  0  0  1  0  0  0  0  0999 V2000
  -30.1710  -18.7760   22.0310 C   0  0  0  0  0  0  0  0  0  0  0  0
  -30.0230  -20.2870   21.9830 C   0  0  0  0  0  2  0  0  0  0  0  0
  -31.8410  -22.6190   20.8040 C   0  0  0  0  0  2  0  0  0  0  0  0
  -29.3920  -23.1330   20.6180 C   0  0  0  0  0  2  0  0  0  0  0  0
  -31.6020  -21.2080   20.2180 C   0  0  0  0  0  2  0  0  0  0  0  0
  -29.1350  -21.7280   20.0380 C   0  0  0  0  0  2  0  0  0  0  0  0
  -29.9340  -19.3350   19.7050 C   0  0  0  0  0  2  0  0  0  0  0  0
  -29.7780  -18.1670   20.7000 C   0  0  0  0  0  3  0  0  0  0  0  0
  -30.8080  -23.6350   20.2740 C   0  0  0  0  0  3  0  0  0  0  0  0
  -30.1710  -20.6650   20.4880 C   0  0  2  0  0  0  0  0  0  0  0  0
  -30.5320  -18.1410   23.0250 O   0  0  0  0  0  0  0  0  0  0  0  0
  -31.0390  -24.9920   20.8310 N   0  0  0  0  0  4  0  0  0  0  0  0
  -31.9880  -25.0240   21.1710 H   0  0  0  0  0  0  0  0  0  0  0  0
  -30.4380  -25.1240   21.6280 H   0  0  0  0  0  0  0  0  0  0  0  0
  -30.8800  -26.1280   19.8850 C   0  0  0  0  0  2  0  0  0  0  0  0
  -29.7850  -27.1240   20.3140 C   0  0  0  0  0  2  0  0  0  0  0  0
  -28.5300  -26.5770   19.9240 O   0  0  0  0  0  0  0  0  0  0  0  0
  -24.6280  -31.6750   23.1130 C   0  0  0  0  0  0  0  0  0  0  0  0
  -27.3950  -27.3550   19.9870 C   0  0  0  0  0  0  0  0  0  0  0  0
  -23.4600  -30.2820   21.4310 C   0  0  0  0  0  3  0  0  0  0  0  0
  -24.9590  -28.7930   20.0010 C   0  0  0  0  0  0  0  0  0  0  0  0
  -25.9770  -30.6960   21.2640 C   0  0  0  0  0  2  0  0  0  0  0  0
  -26.0970  -29.3380   20.6070 C   0  0  0  0  0  0  0  0  0  0  0  0
  -27.3180  -28.6300   20.6030 C   0  0  0  0  0  3  0  0  0  0  0  0
  -26.2350  -26.8190   19.3900 C   0  0  0  0  0  3  0  0  0  0  0  0
  -25.0190  -27.5280   19.3920 C   0  0  0  0  0  3  0  0  0  0  0  0
  -23.6980  -29.6280   20.0430 C   0  0  0  0  0  2  0  0  0  0  0  0
  -24.7050  -30.8970   21.9960 N   0  0  0  0  0  0  0  0  0  0  0  0
  -23.5380  -31.9190   23.6480 O   0  0  0  0  0  0  0  0  0  0  0  0
  -22.8160  -29.2350   22.3690 C   0  0  0  0  0  0  0  0  0  0  0  0
  -21.4940  -29.0430   22.2300 N   0  0  0  0  0  0  0  0  0  0  0  0
  -23.5010  -28.6010   23.1740 O   0  0  0  0  0  0  0  0  0  0  0  0
  -21.0020  -29.6090   21.5540 H   0  0  0  0  0  0  0  0  0  0  0  0
  -18.1210  -27.8440   22.7190 C   0  0  0  0  0  0  0  0  0  0  0  0
  -20.6820  -28.0820   22.9760 C   0  0  0  0  0  3  0  0  0  0  0  0
  -20.7750  -26.6710   22.3500 C   0  0  0  0  0  2  0  0  0  0  0  0
  -19.6620  -26.3880   21.3350 C   0  0  0  0  0  2  0  0  0  0  0  0
  -18.2870  -26.5180   21.9970 C   0  0  0  0  0  2  0  0  0  0  0  0
  -19.2470  -28.5860   23.1660 C   0  0  0  0  0  0  0  0  0  0  0  0
  -19.0410  -29.8300   23.8000 C   0  0  0  0  0  3  0  0  0  0  0  0
  -17.7410  -30.3310   23.9940 C   0  0  0  0  0  3  0  0  0  0  0  0
  -16.6280  -29.5860   23.5650 C   0  0  0  0  0  3  0  0  0  0  0  0
  -16.8190  -28.3440   22.9320 C   0  0  0  0  0  3  0  0  0  0  0  0
  -25.8990  -32.3130   23.7550 C   0  0  0  0  0  3  0  0  0  0  0  0
  -26.4090  -31.5350   25.0310 C   0  0  1  0  0  0  0  0  0  0  0  0
  -25.3050  -31.2730   26.0810 C   0  0  0  0  0  1  0  0  0  0  0  0
  -27.0160  -30.1700   24.6300 C   0  0  0  0  0  1  0  0  0  0  0  0
  -27.5380  -32.3380   25.7190 C   0  0  0  0  0  1  0  0  0  0  0  0
  -25.5740  -33.7050   24.0900 N   0  0  0  0  0  0  0  0  0  0  0  0
  -25.9100  -34.7650   23.3420 C   0  0  0  0  0  0  0  0  0  0  0  0
  -26.5990  -34.6740   22.3230 O   0  0  0  0  0  0  0  0  0  0  0  0
  -24.9640  -33.8480   24.8810 H   0  0  0  0  0  0  0  0  0  0  0  0
  -24.1870  -36.5530   22.9540 C   0  0  0  0  0  1  0  0  0  0  0  0
  -25.4040  -36.1440   23.8000 C   0  0  0  0  0  3  0  0  0  0  0  0
  -27.4950  -37.0420   24.7200 C   0  0  0  0  0  1  0  0  0  0  0  0
  -26.4350  -37.2030   23.7300 N   0  0  0  0  0  0  0  0  0  0  0  0
  -26.0180  -38.1210   23.8580 H   0  0  0  0  0  0  0  0  0  0  0  0
  -30.1070  -15.6480   20.4500 C   0  0  0  0  0  3  0  0  0  0  0  0
  -30.5660  -16.9140   20.3230 C   0  0  0  0  0  3  0  0  0  0  0  0
  -30.8730  -14.5080   19.9350 C   0  0  0  0  0  0  0  0  0  0  0  0
  -30.4450  -12.4080   18.7240 C   0  0  0  0  0  2  0  0  0  0  0  0
  -29.3930  -12.7000   17.6330 C   0  0  0  0  0  2  0  0  0  0  0  0
  -27.9620  -12.5630   18.1940 C   0  0  0  0  0  2  0  0  0  0  0  0
  -27.7670  -13.3180   19.5370 C   0  0  0  0  0  3  0  0  0  0  0  0
  -28.9230  -13.0000   20.5130 C   0  0  0  0  0  2  0  0  0  0  0  0
  -30.1890  -13.3320   19.8400 N   0  0  0  0  0  0  0  0  0  0  0  0
  -31.9890  -14.6510   19.4240 O   0  0  0  0  0  0  0  0  0  0  0  0
  -25.4620  -13.9180   20.5170 C   0  0  0  0  0  0  0  0  0  0  0  0
  -24.4230  -13.1390   20.9460 C   0  0  0  0  0  0  0  0  0  0  0  0
  -24.8530  -11.7850   20.7910 C   0  0  0  0  0  0  0  0  0  0  0  0
  -26.4630  -13.0370   20.1320 N   0  0  0  0  0  0  0  0  0  0  0  0
  -26.1040  -11.7460   20.3520 N   0  0  0  0  0  0  0  0  0  0  0  0
  -24.1260  -10.5240   20.9800 C   0  0  0  0  0  0  0  0  0  0  0  0
  -24.5820   -9.5370   21.8820 C   0  0  0  0  0  3  0  0  0  0  0  0
  -23.8560   -8.3400   22.0580 C   0  0  0  0  0  3  0  0  0  0  0  0
  -22.6600   -8.1210   21.3350 C   0  0  0  0  0  0  0  0  0  0  0  0
  -22.2240   -9.0960   20.4210 C   0  0  0  0  0  3  0  0  0  0  0  0
  -22.9490  -10.2850   20.2420 C   0  0  0  0  0  3  0  0  0  0  0  0
  -21.9040   -6.9760   21.4230 O   0  0  0  0  0  0  0  0  0  0  0  0
  -21.8250   -6.2550   22.5870 C   0  0  0  0  0  0  0  0  0  0  0  0
  -21.2850   -6.8060   23.7700 C   0  0  0  0  0  3  0  0  0  0  0  0
  -21.1600   -6.0060   24.9240 C   0  0  0  0  0  3  0  0  0  0  0  0
  -21.5620   -4.6570   24.8950 C   0  0  0  0  0  0  0  0  0  0  0  0
  -22.0940   -4.1070   23.7160 C   0  0  0  0  0  3  0  0  0  0  0  0
  -22.2220   -4.9030   22.5640 C   0  0  0  0  0  0  0  0  0  0  0  0
  -22.7160   -4.3620   21.4250 F   0  0  0  0  0  0  0  0  0  0  0  0
  -21.4340   -3.8860   26.0000 F   0  0  0  0  0  0  0  0  0  0  0  0
  -23.0690  -13.6180   21.3860 C   0  0  0  0  0  0  0  0  0  0  0  0
  -22.4120  -12.8750   22.2700 N   0  0  0  0  0  0  0  0  0  0  0  0
  -22.6060  -14.6830   20.9810 O   0  0  0  0  0  0  0  0  0  0  0  0
  -22.7970  -12.0100   22.6200 H   0  0  0  0  0  0  0  0  0  0  0  0
  -21.5090  -13.1800   22.6070 H   0  0  0  0  0  0  0  0  0  0  0  0
  -25.6330  -15.2950   20.4020 N   0  0  0  0  0  0  0  0  0  0  0  0
  -24.8870  -15.9470   20.6180 H   0  0  0  0  0  0  0  0  0  0  0  0
  -26.4530  -15.7430   20.0140 H   0  0  0  0  0  0  0  0  0  0  0  0
  1 11  2  0
  2  1  1  0
 10  5  1  1
  5  3  1  0
  6 10  1  0
  6  4  1  0
  7  8  1  0
  8 59  1  0
  8  1  1  0
  9  4  1  0
  9  3  1  0
  9 12  1  0
 10  7  1  0
 10  2  1  0
 12 13  1  0
 12 14  1  0
 15 16  1  0
 15 12  1  0
 17 19  1  0
 17 16  1  0
 18 29  2  0
 19 24  1  0
 20 28  1  0
 20 30  1  0
 21 27  1  0
 21 23  1  0
 22 28  1  0
 23 22  1  0
 24 23  2  0
 25 26  1  0
 25 19  2  0
 26 21  2  0
 27 20  1  0
 28 18  1  0
 30 32  2  0
 31 30  1  0
 33 31  1  0
 34 43  2  0
 34 39  1  0
 35 31  1  0
 35 39  1  0
 36 35  1  0
 37 38  1  0
 37 36  1  0
 38 34  1  0
 39 40  2  0
 40 41  1  0
 42 41  2  0
 43 42  1  0
 44 18  1  0
 44 49  1  0
 44 45  1  0
 45 48  1  1
 45 46  1  0
 47 45  1  0
 49 52  1  0
 50 54  1  0
 50 49  1  0
 51 50  2  0
 54 53  1  0
 56 54  1  0
 56 57  1  0
 56 55  1  0
 59 58  2  0
 60 58  1  0
 61 66  1  0
 62 63  1  0
 62 61  1  0
 64 63  1  0
 64 71  1  0
 64 65  1  0
 66 60  1  0
 66 65  1  0
 67 60  2  0
 68 69  2  0
 69 88  1  0
 70 69  1  0
 70 73  1  0
 71 72  1  0
 71 68  1  0
 72 70  2  0
 73 74  1  0
 74 75  2  0
 76 79  1  0
 76 75  1  0
 77 76  2  0
 78 77  1  0
 78 73  2  0
 79 80  1  0
 80 81  1  0
 81 82  2  0
 83 82  1  0
 83 87  1  0
 84 83  2  0
 85 80  2  0
 85 84  1  0
 86 85  1  0
 88 89  1  0
 89 92  1  0
 89 91  1  0
 90 88  2  0
 93 68  1  0
 93 94  1  0
 95 93  1  0
M  ISO  4  16 101  17 101  58 100  60 100
M  END
>  <TORSDO>  (48) 
F 20

>  <SCORE>  (48) 
-12.396

>  <name>  (48) 
47

>  <ligand_id>  (48) 
47

>  <original_smiles>  (48) 
[H]C(C(=O)N1C([H])([H])C([H])([H])C([H])([H])C([H])(n2nc(-c3c([H])c([H])c(Oc4c([H])c([H])c(F)c([H])c4F)c([H])c3[H])c(C(=O)N([H])[H])c2N([H])[H])C1([H])[H])=C([H])C1([H])C(=O)C([H])([H])C2(C1([H])[H])C([H])([H])C([H])([H])C([H])([N+]([H])([H])C([H])([H])C([H])([H])Oc1c([H])c([H])c3c(c1[H])C([H])([H])N(C(=O)C([H])(N([H])C(=O)C([H])(N([H])C([H])([H])[H])C([H])([H])[H])C(C([H])([H])[H])(C([H])([H])[H])C([H])([H])[H])C([H])(C(=O)N([H])C1([H])c4c([H])c([H])c([H])c([H])c4C([H])([H])C([H])([H])C1([H])[H])C3([H])[H])C([H])([H])C2([H])[H]

>  <smiles>  (48) 
[H]C(C(=O)N1C([H])([H])C([H])([H])C([H])([H])C([H])(n2nc(-c3c([H])c([H])c(Oc4c([H])c([H])c(F)c([H])c4F)c([H])c3[H])c(C(=O)N([H])[H])c2N([H])[H])C1([H])[H])=C([H])C1([H])C(=O)C([H])([H])C2(C1([H])[H])C([H])([H])C([H])([H])C([H])([N+]([H])([H])C([H])([H])C([H])([H])Oc1c([H])c([H])c3c(c1[H])C([H])([H])N(C(=O)C([H])(N([H])C(=O)C([H])(N([H])C([H])([H])[H])C([H])([H])[H])C(C([H])([H])[H])(C([H])([H])[H])C([H])([H])[H])C([H])(C(=O)N([H])C1([H])c4c([H])c([H])c([H])c([H])c4C([H])([H])C([H])([H])C1([H])[H])C3([H])[H])C([H])([H])C2([H])[H]

$$$$
48:0:0
     RDKit          3D

 90 97  0  0  1  0  0  0  0  0999 V2000
  -28.6640  -21.9860   20.3960 N   0  0  0  0  0  4  0  0  0  0  0  0
  -27.7610  -21.8210   19.9800 H   0  0  0  0  0  0  0  0  0  0  0  0
  -28.5250  -21.9170   21.3930 H   0  0  0  0  0  0  0  0  0  0  0  0
  -29.8090  -20.7480   18.4810 C   0  0  0  0  0  1  0  0  0  0  0  0
  -29.5610  -20.7520   20.0020 C   0  0  0  0  0  3  0  0  0  0  0  0
  -29.1650  -19.1990   20.5020 C   0  0  0  0  0  3  0  0  0  0  0  0
  -27.8520  -18.8790   19.9610 N   0  0  0  0  0  0  0  0  0  0  0  0
  -27.8440  -19.0510   18.9620 H   0  0  0  0  0  0  0  0  0  0  0  0
  -27.1420  -19.4980   20.3390 H   0  0  0  0  0  0  0  0  0  0  0  0
  -30.0850  -17.8380   20.1900 C   0  0  0  0  0  3  0  0  0  0  0  0
  -29.7050  -16.2980   20.7070 C   0  0  0  0  0  3  0  0  0  0  0  0
  -30.5310  -14.9240   20.3320 C   0  0  0  0  0  0  0  0  0  0  0  0
  -30.4080  -12.6090   19.3280 C   0  0  0  0  0  2  0  0  0  0  0  0
  -29.4680  -12.6520   18.0990 C   0  0  0  0  0  2  0  0  0  0  0  0
  -28.0000  -12.4460   18.5200 C   0  0  0  0  0  2  0  0  0  0  0  0
  -27.6100  -13.3280   19.7340 C   0  0  0  0  0  3  0  0  0  0  0  0
  -28.6660  -13.2700   20.8580 C   0  0  0  0  0  2  0  0  0  0  0  0
  -29.9560  -13.6610   20.2770 N   0  0  0  0  0  0  0  0  0  0  0  0
  -31.7110  -15.0230   19.9790 O   0  0  0  0  0  0  0  0  0  0  0  0
  -25.2200  -13.9020   20.4550 C   0  0  0  0  0  0  0  0  0  0  0  0
  -24.1570  -13.1230   20.8220 C   0  0  0  0  0  0  0  0  0  0  0  0
  -24.6280  -11.7750   20.8010 C   0  0  0  0  0  0  0  0  0  0  0  0
  -26.2680  -13.0280   20.2250 N   0  0  0  0  0  0  0  0  0  0  0  0
  -25.9210  -11.7430   20.4970 N   0  0  0  0  0  0  0  0  0  0  0  0
  -23.9060  -10.5110   20.9940 C   0  0  0  0  0  0  0  0  0  0  0  0
  -24.3310   -9.5520   21.9420 C   0  0  0  0  0  3  0  0  0  0  0  0
  -23.6080   -8.3530   22.1210 C   0  0  0  0  0  3  0  0  0  0  0  0
  -22.4460   -8.1030   21.3520 C   0  0  0  0  0  0  0  0  0  0  0  0
  -22.0420   -9.0490   20.3940 C   0  0  0  0  0  3  0  0  0  0  0  0
  -22.7650  -10.2390   20.2130 C   0  0  0  0  0  3  0  0  0  0  0  0
  -21.6940   -6.9560   21.4420 O   0  0  0  0  0  0  0  0  0  0  0  0
  -21.6270   -6.2270   22.6010 C   0  0  0  0  0  0  0  0  0  0  0  0
  -21.1600   -6.7910   23.8100 C   0  0  0  0  0  3  0  0  0  0  0  0
  -21.0410   -5.9880   24.9610 C   0  0  0  0  0  3  0  0  0  0  0  0
  -21.3770   -4.6220   24.9070 C   0  0  0  0  0  0  0  0  0  0  0  0
  -21.8380   -4.0580   23.7050 C   0  0  0  0  0  3  0  0  0  0  0  0
  -21.9590   -4.8580   22.5550 C   0  0  0  0  0  0  0  0  0  0  0  0
  -22.3820   -4.3030   21.3940 F   0  0  0  0  0  0  0  0  0  0  0  0
  -21.2560   -3.8490   26.0120 F   0  0  0  0  0  0  0  0  0  0  0  0
  -22.7550  -13.5950   21.0830 C   0  0  0  0  0  0  0  0  0  0  0  0
  -22.0240  -12.8960   21.9440 N   0  0  0  0  0  0  0  0  0  0  0  0
  -22.3170  -14.6180   20.5580 O   0  0  0  0  0  0  0  0  0  0  0  0
  -22.3940  -12.0700   22.3910 H   0  0  0  0  0  0  0  0  0  0  0  0
  -21.0820  -13.1890   22.1590 H   0  0  0  0  0  0  0  0  0  0  0  0
  -25.3760  -15.2730   20.2760 N   0  0  0  0  0  0  0  0  0  0  0  0
  -24.6110  -15.9270   20.3980 H   0  0  0  0  0  0  0  0  0  0  0  0
  -26.2350  -15.7240   19.9820 H   0  0  0  0  0  0  0  0  0  0  0  0
  -29.0450  -23.4890   20.0870 C   0  0  0  0  0  3  0  0  0  0  0  0
  -27.9870  -24.7420   20.3860 C   0  0  0  0  0  3  0  0  0  0  0  0
  -28.2520  -26.2590   20.2080 O   0  0  0  0  0  0  0  0  0  0  0  0
  -24.6010  -31.8890   23.2380 C   0  0  0  0  0  0  0  0  0  0  0  0
  -27.1740  -27.2090   20.1850 C   0  0  0  0  0  0  0  0  0  0  0  0
  -23.3920  -30.4890   21.6080 C   0  0  0  0  0  3  0  0  0  0  0  0
  -24.8340  -28.9220   20.1770 C   0  0  0  0  0  0  0  0  0  0  0  0
  -25.9430  -30.7690   21.4250 C   0  0  0  0  0  2  0  0  0  0  0  0
  -26.0170  -29.3790   20.7750 C   0  0  0  0  0  0  0  0  0  0  0  0
  -27.1870  -28.5370   20.7630 C   0  0  0  0  0  3  0  0  0  0  0  0
  -25.9660  -26.8520   19.5430 C   0  0  0  0  0  3  0  0  0  0  0  0
  -24.8200  -27.6700   19.5490 C   0  0  0  0  0  3  0  0  0  0  0  0
  -23.6050  -29.8130   20.2290 C   0  0  0  0  0  2  0  0  0  0  0  0
  -24.6640  -31.0700   22.1440 N   0  0  0  0  0  0  0  0  0  0  0  0
  -23.5170  -32.1720   23.7720 O   0  0  0  0  0  0  0  0  0  0  0  0
  -22.7230  -29.4790   22.5730 C   0  0  0  0  0  0  0  0  0  0  0  0
  -21.3960  -29.2990   22.4470 N   0  0  0  0  0  0  0  0  0  0  0  0
  -23.4010  -28.8590   23.3970 O   0  0  0  0  0  0  0  0  0  0  0  0
  -20.9050  -29.8510   21.7590 H   0  0  0  0  0  0  0  0  0  0  0  0
  -18.0240  -28.0810   22.9530 C   0  0  0  0  0  0  0  0  0  0  0  0
  -20.5800  -28.3610   23.2230 C   0  0  0  0  0  3  0  0  0  0  0  0
  -20.6930  -26.9260   22.6580 C   0  0  0  0  0  2  0  0  0  0  0  0
  -19.5940  -26.5890   21.6440 C   0  0  0  0  0  2  0  0  0  0  0  0
  -18.2100  -26.7300   22.2850 C   0  0  0  0  0  2  0  0  0  0  0  0
  -19.1360  -28.8540   23.3790 C   0  0  0  0  0  0  0  0  0  0  0  0
  -18.9070  -30.1190   23.9640 C   0  0  0  0  0  3  0  0  0  0  0  0
  -17.5980  -30.6110   24.1270 C   0  0  0  0  0  3  0  0  0  0  0  0
  -16.5000  -29.8350   23.7170 C   0  0  0  0  0  3  0  0  0  0  0  0
  -16.7130  -28.5720   23.1360 C   0  0  0  0  0  3  0  0  0  0  0  0
  -25.8820  -32.5260   23.8550 C   0  0  0  0  0  3  0  0  0  0  0  0
  -25.5720  -33.9260   24.1840 N   0  0  0  0  0  0  0  0  0  0  0  0
  -25.8940  -34.9790   23.4210 C   0  0  0  0  0  0  0  0  0  0  0  0
  -26.5510  -34.8730   22.3810 O   0  0  0  0  0  0  0  0  0  0  0  0
  -24.9880  -34.0820   24.9930 H   0  0  0  0  0  0  0  0  0  0  0  0
  -24.1600  -36.7720   23.0900 C   0  0  0  0  0  1  0  0  0  0  0  0
  -25.4130  -36.3690   23.8840 C   0  0  0  0  0  3  0  0  0  0  0  0
  -27.5560  -37.2590   24.6840 C   0  0  0  0  0  1  0  0  0  0  0  0
  -26.4420  -37.4230   23.7530 N   0  0  0  0  0  0  0  0  0  0  0  0
  -26.0380  -38.3420   23.9030 H   0  0  0  0  0  0  0  0  0  0  0  0
  -26.3990  -31.7600   25.1360 C   0  0  1  0  0  0  0  0  0  0  0  0
  -25.3070  -31.5310   26.2070 C   0  0  0  0  0  1  0  0  0  0  0  0
  -26.9790  -30.3790   24.7550 C   0  0  0  0  0  1  0  0  0  0  0  0
  -27.5500  -32.5570   25.7920 C   0  0  0  0  0  1  0  0  0  0  0  0
  1  3  1  0
  2  1  1  0
  5  4  1  0
  5  1  1  0
  5  6  1  0
  6 10  1  0
  7  9  1  0
  7  6  1  0
  8  7  1  0
 10 11  2  0
 12 11  1  0
 13 18  1  0
 14 15  1  0
 14 13  1  0
 16 15  1  0
 16 23  1  0
 16 17  1  0
 18 12  1  0
 18 17  1  0
 19 12  2  0
 20 21  2  0
 21 40  1  0
 22 21  1  0
 22 25  1  0
 23 20  1  0
 23 24  1  0
 24 22  2  0
 25 26  1  0
 26 27  2  0
 28 31  1  0
 28 27  1  0
 29 28  2  0
 30 29  1  0
 30 25  2  0
 31 32  1  0
 32 33  1  0
 33 34  2  0
 35 34  1  0
 35 39  1  0
 36 35  2  0
 37 32  2  0
 37 36  1  0
 38 37  1  0
 40 41  1  0
 41 44  1  0
 41 43  1  0
 42 40  2  0
 45 46  1  0
 45 20  1  0
 47 45  1  0
 48 49  2  0
 48  1  1  0
 50 49  1  0
 51 62  2  0
 52 50  1  0
 52 57  1  0
 53 61  1  0
 53 63  1  0
 54 60  1  0
 54 56  1  0
 55 61  1  0
 56 55  1  0
 57 56  2  0
 58 59  1  0
 58 52  2  0
 59 54  2  0
 60 53  1  0
 61 51  1  0
 63 65  2  0
 64 63  1  0
 66 64  1  0
 67 76  2  0
 67 72  1  0
 68 64  1  0
 68 72  1  0
 69 68  1  0
 70 71  1  0
 70 69  1  0
 71 67  1  0
 72 73  2  0
 73 74  1  0
 75 74  2  0
 76 75  1  0
 77 51  1  0
 77 78  1  0
 77 87  1  0
 78 81  1  0
 79 83  1  0
 79 78  1  0
 80 79  2  0
 83 82  1  0
 85 83  1  0
 85 86  1  0
 85 84  1  0
 87 90  1  1
 87 88  1  0
 89 87  1  0
M  ISO  4  11 100  12 100  49 101  50 101
M  END
>  <TORSDO>  (49) 
F 23

>  <SCORE>  (49) 
-12.871

>  <name>  (49) 
48

>  <ligand_id>  (49) 
48

>  <original_smiles>  (49) 
[H]c1c([H])c([H])c2c(c1[H])C([H])([H])C([H])([H])C([H])([H])C2([H])N([H])C(=O)C1([H])N(C(=O)C([H])(N([H])C(=O)C([H])(N([H])C([H])([H])[H])C([H])([H])[H])C(C([H])([H])[H])(C([H])([H])[H])C([H])([H])[H])C([H])([H])c2c([H])c(OC([H])([H])C([H])([H])[N+]([H])([H])C([H])(C([H])([H])[H])C([H])(N([H])[H])C([H])([H])C([H])([H])C(=O)N3C([H])([H])C([H])([H])C([H])([H])C([H])(n4nc(-c5c([H])c([H])c(Oc6c([H])c([H])c(F)c([H])c6F)c([H])c5[H])c(C(=O)N([H])[H])c4N([H])[H])C3([H])[H])c([H])c([H])c2C1([H])[H]

>  <smiles>  (49) 
[H]c1c([H])c([H])c2c(c1[H])C([H])([H])C([H])([H])C([H])([H])C2([H])N([H])C(=O)C1([H])N(C(=O)C([H])(N([H])C(=O)C([H])(N([H])C([H])([H])[H])C([H])([H])[H])C(C([H])([H])[H])(C([H])([H])[H])C([H])([H])[H])C([H])([H])c2c([H])c(OC([H])([H])C([H])([H])[N+]([H])([H])C([H])(C([H])([H])[H])C([H])(N([H])[H])C([H])([H])C([H])([H])C(=O)N3C([H])([H])C([H])([H])C([H])([H])C([H])(n4nc(-c5c([H])c([H])c(Oc6c([H])c([H])c(F)c([H])c6F)c([H])c5[H])c(C(=O)N([H])[H])c4N([H])[H])C3([H])[H])c([H])c([H])c2C1([H])[H]

$$$$
49:0:0
     RDKit          3D

 93102  0  0  1  0  0  0  0  0999 V2000
  -28.0830  -21.5040   18.0080 C   0  0  0  0  0  1  0  0  0  0  0  0
  -28.2840  -21.1950   19.5180 C   0  0  0  0  0  3  0  0  0  0  0  0
  -28.8120  -18.4660   20.6800 C   0  0  0  0  0  3  0  0  0  0  0  0
  -27.5020  -18.7100   19.1880 C   0  0  0  0  0  3  0  0  0  0  0  0
  -28.7090  -19.6110   19.5660 C   0  0  0  0  0  3  0  0  0  0  0  0
  -27.2490  -18.2690   20.6710 C   0  0  0  0  0  3  0  0  0  0  0  0
  -26.0400  -19.1680   19.2590 C   0  0  0  0  0  3  0  0  0  0  0  0
  -24.8050  -18.2690   19.1670 C   0  0  0  0  0  1  0  0  0  0  0  0
  -26.2370  -19.3330   20.6720 O   0  0  0  0  0  0  0  0  0  0  0  0
  -29.7290  -15.7200   20.4660 C   0  0  0  0  0  3  0  0  0  0  0  0
  -29.5560  -17.0830   20.3110 C   0  0  0  0  0  3  0  0  0  0  0  0
  -30.5600  -14.5080   20.0740 C   0  0  0  0  0  0  0  0  0  0  0  0
  -30.3620  -12.2170   19.1110 C   0  0  0  0  0  2  0  0  0  0  0  0
  -29.3730  -12.2670   17.9240 C   0  0  0  0  0  2  0  0  0  0  0  0
  -27.9250  -12.0720   18.4110 C   0  0  0  0  0  2  0  0  0  0  0  0
  -27.5870  -12.9670   19.6360 C   0  0  0  0  0  3  0  0  0  0  0  0
  -28.6910  -12.9000   20.7130 C   0  0  0  0  0  2  0  0  0  0  0  0
  -29.9590  -13.2690   20.0740 N   0  0  0  0  0  0  0  0  0  0  0  0
  -31.7250  -14.5880   19.6590 O   0  0  0  0  0  0  0  0  0  0  0  0
  -25.2320  -13.5320   20.4820 C   0  0  0  0  0  0  0  0  0  0  0  0
  -24.1870  -12.7530   20.8940 C   0  0  0  0  0  0  0  0  0  0  0  0
  -24.6550  -11.4040   20.8270 C   0  0  0  0  0  0  0  0  0  0  0  0
  -26.2670  -12.6650   20.1850 N   0  0  0  0  0  0  0  0  0  0  0  0
  -25.9310  -11.3780   20.4540 N   0  0  0  0  0  0  0  0  0  0  0  0
  -23.9490  -10.1330   21.0370 C   0  0  0  0  0  0  0  0  0  0  0  0
  -24.4200   -9.1600   21.9490 C   0  0  0  0  0  3  0  0  0  0  0  0
  -23.7090   -7.9560   22.1430 C   0  0  0  0  0  3  0  0  0  0  0  0
  -22.5150   -7.7110   21.4260 C   0  0  0  0  0  0  0  0  0  0  0  0
  -22.0650   -8.6690   20.5000 C   0  0  0  0  0  3  0  0  0  0  0  0
  -22.7750   -9.8650   20.3030 C   0  0  0  0  0  3  0  0  0  0  0  0
  -21.7740   -6.5600   21.5330 O   0  0  0  0  0  0  0  0  0  0  0  0
  -21.7410   -5.8340   22.6960 C   0  0  0  0  0  0  0  0  0  0  0  0
  -21.3250   -6.4040   23.9200 C   0  0  0  0  0  3  0  0  0  0  0  0
  -21.2390   -5.6040   25.0770 C   0  0  0  0  0  3  0  0  0  0  0  0
  -21.5580   -4.2340   25.0120 C   0  0  0  0  0  0  0  0  0  0  0  0
  -21.9650   -3.6630   23.7930 C   0  0  0  0  0  3  0  0  0  0  0  0
  -22.0520   -4.4600   22.6380 C   0  0  0  0  0  0  0  0  0  0  0  0
  -22.4270   -3.9000   21.4620 F   0  0  0  0  0  0  0  0  0  0  0  0
  -21.4650   -3.4640   26.1200 F   0  0  0  0  0  0  0  0  0  0  0  0
  -22.8010  -13.2160   21.2460 C   0  0  0  0  0  0  0  0  0  0  0  0
  -22.1220  -12.5070   22.1410 N   0  0  0  0  0  0  0  0  0  0  0  0
  -22.3260  -14.2440   20.7620 O   0  0  0  0  0  0  0  0  0  0  0  0
  -22.5080  -11.6680   22.5520 H   0  0  0  0  0  0  0  0  0  0  0  0
  -21.1970  -12.8040   22.4210 H   0  0  0  0  0  0  0  0  0  0  0  0
  -25.4050  -14.9030   20.3170 N   0  0  0  0  0  0  0  0  0  0  0  0
  -24.7000  -15.5800   20.5830 H   0  0  0  0  0  0  0  0  0  0  0  0
  -26.2800  -15.3250   20.0340 H   0  0  0  0  0  0  0  0  0  0  0  0
  -29.0360  -22.3550   20.1740 N   0  0  0  0  0  4  0  0  0  0  0  0
  -28.9340  -22.2570   21.1740 H   0  0  0  0  0  0  0  0  0  0  0  0
  -30.0230  -22.2680   19.9830 H   0  0  0  0  0  0  0  0  0  0  0  0
  -28.5650  -23.7710   19.7530 C   0  0  0  0  0  3  0  0  0  0  0  0
  -28.6300  -25.0120   20.7510 C   0  0  0  0  0  3  0  0  0  0  0  0
  -28.6010  -26.3910   20.1900 O   0  0  0  0  0  0  0  0  0  0  0  0
  -24.6270  -31.6350   23.1520 C   0  0  0  0  0  0  0  0  0  0  0  0
  -27.4270  -27.1560   20.1770 C   0  0  0  0  0  0  0  0  0  0  0  0
  -23.4920  -30.2170   21.4730 C   0  0  0  0  0  3  0  0  0  0  0  0
  -25.0130  -28.6890   20.0920 C   0  0  0  0  0  0  0  0  0  0  0  0
  -26.0200  -30.5990   21.3470 C   0  0  0  0  0  2  0  0  0  0  0  0
  -26.1520  -29.2210   20.7100 C   0  0  0  0  0  0  0  0  0  0  0  0
  -27.3620  -28.4690   20.7380 C   0  0  0  0  0  3  0  0  0  0  0  0
  -26.2680  -26.6630   19.5420 C   0  0  0  0  0  3  0  0  0  0  0  0
  -25.0730  -27.4140   19.5000 C   0  0  0  0  0  3  0  0  0  0  0  0
  -23.7550  -29.5350   20.1040 C   0  0  0  0  0  2  0  0  0  0  0  0
  -24.7300  -30.8360   22.0480 N   0  0  0  0  0  0  0  0  0  0  0  0
  -23.5280  -31.8900   23.6680 O   0  0  0  0  0  0  0  0  0  0  0  0
  -22.8270  -29.1910   22.4200 C   0  0  0  0  0  0  0  0  0  0  0  0
  -21.5030  -29.0060   22.2760 N   0  0  0  0  0  0  0  0  0  0  0  0
  -23.5020  -28.5610   23.2360 O   0  0  0  0  0  0  0  0  0  0  0  0
  -21.0200  -29.5680   21.5910 H   0  0  0  0  0  0  0  0  0  0  0  0
  -18.1360  -27.7630   22.7380 C   0  0  0  0  0  0  0  0  0  0  0  0
  -20.6890  -28.0470   23.0260 C   0  0  0  0  0  3  0  0  0  0  0  0
  -20.8150  -26.6230   22.4370 C   0  0  0  0  0  2  0  0  0  0  0  0
  -19.7220  -26.2980   21.4160 C   0  0  0  0  0  2  0  0  0  0  0  0
  -18.3330  -26.4200   22.0540 C   0  0  0  0  0  2  0  0  0  0  0  0
  -19.2440  -28.5320   23.1820 C   0  0  0  0  0  0  0  0  0  0  0  0
  -19.0080  -29.7860   23.7820 C   0  0  0  0  0  3  0  0  0  0  0  0
  -17.6970  -30.2700   23.9480 C   0  0  0  0  0  3  0  0  0  0  0  0
  -16.6020  -29.5000   23.5160 C   0  0  0  0  0  3  0  0  0  0  0  0
  -16.8250  -28.2480   22.9190 C   0  0  0  0  0  3  0  0  0  0  0  0
  -25.8850  -32.2880   23.8030 C   0  0  0  0  0  3  0  0  0  0  0  0
  -25.5470  -33.6810   24.1320 N   0  0  0  0  0  0  0  0  0  0  0  0
  -25.8640  -34.7400   23.3760 C   0  0  0  0  0  0  0  0  0  0  0  0
  -26.5420  -34.6520   22.3500 O   0  0  0  0  0  0  0  0  0  0  0  0
  -24.9330  -33.8220   24.9220 H   0  0  0  0  0  0  0  0  0  0  0  0
  -24.0890  -36.4870   23.0200 C   0  0  0  0  0  1  0  0  0  0  0  0
  -25.3430  -36.1170   23.8280 C   0  0  0  0  0  3  0  0  0  0  0  0
  -27.4580  -37.0570   24.6470 C   0  0  0  0  0  1  0  0  0  0  0  0
  -26.3480  -37.1950   23.7090 N   0  0  0  0  0  0  0  0  0  0  0  0
  -25.9180  -38.1040   23.8560 H   0  0  0  0  0  0  0  0  0  0  0  0
  -26.3940  -31.5270   25.0890 C   0  0  1  0  0  0  0  0  0  0  0  0
  -25.2850  -31.2700   26.1360 C   0  0  0  0  0  1  0  0  0  0  0  0
  -27.0090  -30.1590   24.7100 C   0  0  0  0  0  1  0  0  0  0  0  0
  -27.5160  -32.3440   25.7760 C   0  0  0  0  0  1  0  0  0  0  0  0
  2  1  1  0
  2  5  1  0
  2 48  1  0
  3 11  1  0
  4  7  1  0
  4  5  1  0
  4  6  1  0
  5  3  1  0
  6  9  1  0
  6  3  1  0
  7  9  1  0
  8  7  1  0
 11 10  2  0
 12 10  1  0
 13 18  1  0
 14 15  1  0
 14 13  1  0
 15 16  1  0
 16 23  1  0
 16 17  1  0
 18 12  1  0
 18 17  1  0
 19 12  2  0
 20 21  2  0
 21 40  1  0
 22 21  1  0
 22 25  1  0
 23 24  1  0
 23 20  1  0
 24 22  2  0
 25 26  1  0
 26 27  2  0
 28 31  1  0
 28 27  1  0
 29 28  2  0
 30 29  1  0
 30 25  2  0
 31 32  1  0
 32 33  1  0
 33 34  2  0
 35 34  1  0
 35 39  1  0
 36 35  2  0
 37 32  2  0
 37 36  1  0
 38 37  1  0
 40 41  1  0
 41 44  1  0
 41 43  1  0
 42 40  2  0
 45 20  1  0
 45 46  1  0
 47 45  1  0
 48 49  1  0
 50 48  1  0
 51 48  1  0
 51 52  2  0
 53 52  1  0
 54 65  2  0
 54 80  1  0
 55 53  1  0
 55 60  1  0
 56 64  1  0
 56 66  1  0
 57 63  1  0
 57 59  1  0
 58 64  1  0
 59 60  2  0
 59 58  1  0
 61 55  2  0
 62 61  1  0
 62 57  2  0
 63 56  1  0
 64 54  1  0
 66 68  2  0
 67 66  1  0
 67 71  1  0
 69 67  1  0
 70 79  2  0
 70 75  1  0
 71 75  1  0
 72 71  1  0
 73 74  1  0
 73 72  1  0
 74 70  1  0
 75 76  2  0
 76 77  1  0
 78 77  2  0
 79 78  1  0
 80 81  1  0
 80 90  1  0
 81 84  1  0
 82 86  1  0
 82 81  1  0
 83 82  2  0
 85 86  1  0
 88 86  1  0
 88 89  1  0
 88 87  1  0
 90 93  1  1
 90 91  1  0
 92 90  1  0
M  ISO  4  10 100  12 100  52 101  53 101
M  END
>  <TORSDO>  (50) 
F 21

>  <SCORE>  (50) 
-9.861

>  <name>  (50) 
49

>  <ligand_id>  (50) 
49

>  <original_smiles>  (50) 
[H]C(C(=O)N1C([H])([H])C([H])([H])C([H])([H])C([H])(n2nc(-c3c([H])c([H])c(Oc4c([H])c([H])c(F)c([H])c4F)c([H])c3[H])c(C(=O)N([H])[H])c2N([H])[H])C1([H])[H])=C([H])C1([H])C2([H])OC([H])(C([H])([H])[H])C2([H])C1([H])C([H])(C([H])([H])[H])[N+]([H])([H])C([H])([H])C([H])([H])Oc1c([H])c([H])c2c(c1[H])C([H])([H])N(C(=O)C([H])(N([H])C(=O)C([H])(N([H])C([H])([H])[H])C([H])([H])[H])C(C([H])([H])[H])(C([H])([H])[H])C([H])([H])[H])C([H])(C(=O)N([H])C1([H])c3c([H])c([H])c([H])c([H])c3C([H])([H])C([H])([H])C1([H])[H])C2([H])[H]

>  <smiles>  (50) 
[H]C(C(=O)N1C([H])([H])C([H])([H])C([H])([H])C([H])(n2nc(-c3c([H])c([H])c(Oc4c([H])c([H])c(F)c([H])c4F)c([H])c3[H])c(C(=O)N([H])[H])c2N([H])[H])C1([H])[H])=C([H])C1([H])C2([H])OC([H])(C([H])([H])[H])C2([H])C1([H])C([H])(C([H])([H])[H])[N+]([H])([H])C([H])([H])C([H])([H])Oc1c([H])c([H])c2c(c1[H])C([H])([H])N(C(=O)C([H])(N([H])C(=O)C([H])(N([H])C([H])([H])[H])C([H])([H])[H])C(C([H])([H])[H])(C([H])([H])[H])C([H])([H])[H])C([H])(C(=O)N([H])C1([H])c3c([H])c([H])c([H])c([H])c3C([H])([H])C([H])([H])C1([H])[H])C2([H])[H]

$$$$
50:0:0
     RDKit          3D

 92100  0  0  1  0  0  0  0  0999 V2000
  -29.9330  -19.0270   20.5950 C   0  0  0  0  0  0  0  0  0  0  0  0
  -30.1060  -20.3590   20.3920 N   0  0  0  0  0  0  0  0  0  0  0  0
  -28.8340  -18.4770   20.4970 O   0  0  0  0  0  0  0  0  0  0  0  0
  -31.0670  -20.6700   20.4710 H   0  0  0  0  0  0  0  0  0  0  0  0
  -30.7610  -17.4120   23.3720 C   0  0  0  0  0  2  0  0  0  0  0  0
  -31.3710  -18.5760   22.5810 C   0  0  0  0  0  2  0  0  0  0  0  0
  -30.5680  -16.2580   22.3800 C   0  0  0  0  0  2  0  0  0  0  0  0
  -31.1970  -18.2410   21.0800 C   0  0  0  0  0  3  0  0  0  0  0  0
  -31.3040  -16.6460   21.0780 C   0  0  1  0  0  0  0  0  0  0  0  0
  -32.8090  -16.2860   21.2440 C   0  0  0  0  0  1  0  0  0  0  0  0
  -30.7100  -15.8560   19.8430 C   0  0  0  0  0  2  0  0  0  0  0  0
  -31.2860  -14.4550   19.4070 C   0  0  0  0  0  0  0  0  0  0  0  0
  -30.6700  -12.3610   18.2540 C   0  0  0  0  0  2  0  0  0  0  0  0
  -29.5830  -12.6890   17.2090 C   0  0  0  0  0  2  0  0  0  0  0  0
  -28.1780  -12.6230   17.8430 C   0  0  0  0  0  2  0  0  0  0  0  0
  -28.0850  -13.4040   19.1820 C   0  0  0  0  0  3  0  0  0  0  0  0
  -29.2810  -13.0910   20.1040 C   0  0  0  0  0  2  0  0  0  0  0  0
  -30.5200  -13.3270   19.3570 N   0  0  0  0  0  0  0  0  0  0  0  0
  -32.3990  -14.4790   18.8810 O   0  0  0  0  0  0  0  0  0  0  0  0
  -25.8960  -14.1120   20.3280 C   0  0  0  0  0  0  0  0  0  0  0  0
  -24.8330  -13.3880   20.7980 C   0  0  0  0  0  0  0  0  0  0  0  0
  -25.1640  -12.0160   20.5860 C   0  0  0  0  0  0  0  0  0  0  0  0
  -26.8080  -13.1810   19.8540 N   0  0  0  0  0  0  0  0  0  0  0  0
  -26.3830  -11.9100   20.0730 N   0  0  0  0  0  0  0  0  0  0  0  0
  -24.3680  -10.7980   20.7880 C   0  0  0  0  0  0  0  0  0  0  0  0
  -24.7790   -9.7840   21.6830 C   0  0  0  0  0  3  0  0  0  0  0  0
  -23.9860   -8.6310   21.8720 C   0  0  0  0  0  3  0  0  0  0  0  0
  -22.7670   -8.4850   21.1690 C   0  0  0  0  0  0  0  0  0  0  0  0
  -22.3730   -9.4880   20.2640 C   0  0  0  0  0  3  0  0  0  0  0  0
  -23.1670  -10.6320   20.0730 C   0  0  0  0  0  3  0  0  0  0  0  0
  -21.9460   -7.3880   21.2710 O   0  0  0  0  0  0  0  0  0  0  0  0
  -21.7950   -6.7080   22.4530 C   0  0  0  0  0  0  0  0  0  0  0  0
  -21.3520   -7.3460   23.6310 C   0  0  0  0  0  3  0  0  0  0  0  0
  -21.1470   -6.5950   24.8050 C   0  0  0  0  0  3  0  0  0  0  0  0
  -21.3740   -5.2060   24.8030 C   0  0  0  0  0  0  0  0  0  0  0  0
  -21.8130   -4.5670   23.6300 C   0  0  0  0  0  3  0  0  0  0  0  0
  -22.0200   -5.3160   22.4580 C   0  0  0  0  0  0  0  0  0  0  0  0
  -22.4210   -4.6900   21.3240 F   0  0  0  0  0  0  0  0  0  0  0  0
  -21.1720   -4.4830   25.9300 F   0  0  0  0  0  0  0  0  0  0  0  0
  -23.5380  -13.9440   21.3220 C   0  0  0  0  0  0  0  0  0  0  0  0
  -22.9050  -13.2610   22.2690 N   0  0  0  0  0  0  0  0  0  0  0  0
  -23.1000  -15.0220   20.9210 O   0  0  0  0  0  0  0  0  0  0  0  0
  -23.2630  -12.3850   22.6180 H   0  0  0  0  0  0  0  0  0  0  0  0
  -22.0490  -13.6270   22.6630 H   0  0  0  0  0  0  0  0  0  0  0  0
  -26.1520  -15.4770   20.2460 N   0  0  0  0  0  0  0  0  0  0  0  0
  -25.4820  -16.1640   20.5720 H   0  0  0  0  0  0  0  0  0  0  0  0
  -26.9870  -15.8920   19.8470 H   0  0  0  0  0  0  0  0  0  0  0  0
  -29.0960  -21.4490   20.4160 C   0  0  0  0  0  2  0  0  0  0  0  0
  -29.4050  -22.6280   19.4310 C   0  0  0  0  0  2  0  0  0  0  0  0
  -29.1970  -24.1140   19.9060 C   0  0  0  0  0  2  0  0  0  0  0  0
  -27.8970  -24.8780   19.5050 C   0  0  0  0  0  2  0  0  0  0  0  0
  -28.0470  -26.3270   19.5810 O   0  0  0  0  0  0  0  0  0  0  0  0
  -24.6090  -31.5670   23.0210 C   0  0  0  0  0  0  0  0  0  0  0  0
  -26.9060  -27.1240   19.6300 C   0  0  0  0  0  0  0  0  0  0  0  0
  -23.2530  -30.2440   21.4320 C   0  0  0  0  0  3  0  0  0  0  0  0
  -24.5640  -28.7220   19.8520 C   0  0  0  0  0  0  0  0  0  0  0  0
  -25.7710  -30.5430   21.0600 C   0  0  0  0  0  2  0  0  0  0  0  0
  -25.7760  -29.1890   20.3720 C   0  0  0  0  0  0  0  0  0  0  0  0
  -26.9500  -28.3990   20.2550 C   0  0  0  0  0  3  0  0  0  0  0  0
  -25.6740  -26.6950   19.0840 C   0  0  0  0  0  3  0  0  0  0  0  0
  -24.5120  -27.4800   19.1990 C   0  0  0  0  0  3  0  0  0  0  0  0
  -23.3470  -29.6070   20.0190 C   0  0  0  0  0  2  0  0  0  0  0  0
  -24.5680  -30.7970   21.8960 N   0  0  0  0  0  0  0  0  0  0  0  0
  -23.5750  -31.8440   23.6480 O   0  0  0  0  0  0  0  0  0  0  0  0
  -22.6500  -29.2070   22.4080 C   0  0  0  0  0  0  0  0  0  0  0  0
  -21.3310  -28.9790   22.3020 N   0  0  0  0  0  0  0  0  0  0  0  0
  -23.3650  -28.6080   23.2160 O   0  0  0  0  0  0  0  0  0  0  0  0
  -20.8120  -29.5170   21.6200 H   0  0  0  0  0  0  0  0  0  0  0  0
  -18.0300  -27.5790   22.7550 C   0  0  0  0  0  0  0  0  0  0  0  0
  -20.5570  -28.0160   23.0840 C   0  0  0  0  0  3  0  0  0  0  0  0
  -20.7690  -26.5770   22.5610 C   0  0  0  0  0  2  0  0  0  0  0  0
  -19.7200  -26.1480   21.5310 C   0  0  0  0  0  2  0  0  0  0  0  0
  -18.3130  -26.2210   22.1330 C   0  0  0  0  0  2  0  0  0  0  0  0
  -19.0830  -28.4270   23.1860 C   0  0  0  0  0  0  0  0  0  0  0  0
  -18.7650  -29.6940   23.7240 C   0  0  0  0  0  3  0  0  0  0  0  0
  -17.4260  -30.1120   23.8370 C   0  0  0  0  0  3  0  0  0  0  0  0
  -16.3870  -29.2610   23.4240 C   0  0  0  0  0  3  0  0  0  0  0  0
  -16.6890  -27.9970   22.8870 C   0  0  0  0  0  3  0  0  0  0  0  0
  -25.9520  -32.1520   23.5620 C   0  0  0  0  0  3  0  0  0  0  0  0
  -25.6790  -33.5140   24.0410 N   0  0  0  0  0  0  0  0  0  0  0  0
  -25.9610  -34.6310   23.3570 C   0  0  0  0  0  0  0  0  0  0  0  0
  -26.5520  -34.6210   22.2730 O   0  0  0  0  0  0  0  0  0  0  0  0
  -25.1550  -33.5970   24.9000 H   0  0  0  0  0  0  0  0  0  0  0  0
  -24.2310  -36.4570   23.2870 C   0  0  0  0  0  1  0  0  0  0  0  0
  -25.5190  -35.9730   23.9720 C   0  0  0  0  0  3  0  0  0  0  0  0
  -27.7130  -36.7690   24.7360 C   0  0  0  0  0  1  0  0  0  0  0  0
  -26.5520  -37.0290   23.8890 N   0  0  0  0  0  0  0  0  0  0  0  0
  -26.1650  -37.9310   24.1500 H   0  0  0  0  0  0  0  0  0  0  0  0
  -26.5920  -31.2800   24.7110 C   0  0  1  0  0  0  0  0  0  0  0  0
  -25.6010  -30.9140   25.8410 C   0  0  0  0  0  1  0  0  0  0  0  0
  -27.1630  -29.9600   24.1400 C   0  0  0  0  0  1  0  0  0  0  0  0
  -27.7790  -32.0370   25.3500 C   0  0  0  0  0  1  0  0  0  0  0  0
  2 48  1  0
  2  4  1  0
  2  1  1  0
  3  1  2  0
  6  5  1  0
  7  5  1  0
  8  1  1  0
  8  6  1  0
  9  8  1  0
  9 10  1  1
  9  7  1  0
 11  9  1  0
 12 11  1  0
 13 18  1  0
 14 15  1  0
 14 13  1  0
 16 15  1  0
 16 23  1  0
 16 17  1  0
 18 12  1  0
 18 17  1  0
 19 12  2  0
 20 21  2  0
 21 40  1  0
 22 25  1  0
 22 21  1  0
 23 24  1  0
 23 20  1  0
 24 22  2  0
 25 26  1  0
 26 27  2  0
 28 31  1  0
 28 27  1  0
 29 28  2  0
 30 29  1  0
 30 25  2  0
 31 32  1  0
 32 37  2  0
 32 33  1  0
 33 34  2  0
 35 34  1  0
 35 39  1  0
 36 35  2  0
 37 36  1  0
 38 37  1  0
 40 41  1  0
 41 43  1  0
 41 44  1  0
 42 40  2  0
 45 20  1  0
 45 46  1  0
 47 45  1  0
 49 50  1  0
 49 48  1  0
 51 52  1  0
 51 50  1  0
 52 54  1  0
 53 64  2  0
 54 59  1  0
 55 63  1  0
 55 65  1  0
 56 62  1  0
 56 58  1  0
 57 63  1  0
 58 57  1  0
 59 58  2  0
 60 61  1  0
 60 54  2  0
 61 56  2  0
 62 55  1  0
 63 53  1  0
 65 67  2  0
 66 65  1  0
 68 66  1  0
 69 78  2  0
 69 74  1  0
 70 66  1  0
 70 74  1  0
 71 70  1  0
 72 73  1  0
 72 71  1  0
 73 69  1  0
 74 75  2  0
 75 76  1  0
 77 76  2  0
 78 77  1  0
 79 53  1  0
 79 80  1  0
 79 89  1  0
 80 83  1  0
 81 85  1  0
 81 80  1  0
 82 81  2  0
 85 84  1  0
 87 85  1  0
 87 88  1  0
 87 86  1  0
 89 92  1  1
 89 90  1  0
 91 89  1  0
M  ISO  4  11 100  12 100  51 101  52 101
M  END
>  <TORSDO>  (51) 
F 22

>  <SCORE>  (51) 
-9.076

>  <name>  (51) 
50

>  <ligand_id>  (51) 
50

>  <original_smiles>  (51) 
[H]c1c([H])c([H])c2c(c1[H])C([H])([H])C([H])([H])C([H])([H])C2([H])N([H])C(=O)C1([H])N(C(=O)C([H])(N([H])C(=O)C([H])(N([H])C([H])([H])[H])C([H])([H])[H])C(C([H])([H])[H])(C([H])([H])[H])C([H])([H])[H])C([H])([H])c2c([H])c(OC([H])([H])C([H])([H])C([H])([H])C([H])([H])N([H])C(=O)C3([H])C([H])([H])C([H])([H])C([H])([H])C3(C([H])([H])[H])C([H])([H])C(=O)N3C([H])([H])C([H])([H])C([H])([H])C([H])(n4nc(-c5c([H])c([H])c(Oc6c([H])c([H])c(F)c([H])c6F)c([H])c5[H])c(C(=O)N([H])[H])c4N([H])[H])C3([H])[H])c([H])c([H])c2C1([H])[H]

>  <smiles>  (51) 
[H]c1c([H])c([H])c2c(c1[H])C([H])([H])C([H])([H])C([H])([H])C2([H])N([H])C(=O)C1([H])N(C(=O)C([H])(N([H])C(=O)C([H])(N([H])C([H])([H])[H])C([H])([H])[H])C(C([H])([H])[H])(C([H])([H])[H])C([H])([H])[H])C([H])([H])c2c([H])c(OC([H])([H])C([H])([H])C([H])([H])C([H])([H])N([H])C(=O)C3([H])C([H])([H])C([H])([H])C([H])([H])C3(C([H])([H])[H])C([H])([H])C(=O)N3C([H])([H])C([H])([H])C([H])([H])C([H])(n4nc(-c5c([H])c([H])c(Oc6c([H])c([H])c(F)c([H])c6F)c([H])c5[H])c(C(=O)N([H])[H])c4N([H])[H])C3([H])[H])c([H])c([H])c2C1([H])[H]

$$$$
51:0:0
     RDKit          3D

100107  0  0  1  0  0  0  0  0999 V2000
  -31.0330  -20.5610   22.5020 C   0  0  0  0  0  3  0  0  0  0  0  0
  -32.0400  -20.7630   24.7320 C   0  0  0  0  0  1  0  0  0  0  0  0
  -30.3340  -19.0910   24.4170 C   0  0  0  0  0  1  0  0  0  0  0  0
  -30.8640  -20.3720   23.9560 N   0  0  0  0  0  0  0  0  0  0  0  0
  -31.7510  -19.3910   21.7390 C   0  0  0  0  0  3  0  0  0  0  0  0
  -31.0350  -18.0850   21.8680 N   0  0  0  0  0  4  0  0  0  0  0  0
  -31.0120  -17.8500   22.8470 H   0  0  0  0  0  0  0  0  0  0  0  0
  -30.0790  -18.2170   21.5780 H   0  0  0  0  0  0  0  0  0  0  0  0
  -31.5880  -16.9330   21.1010 C   0  0  0  0  0  2  0  0  0  0  0  0
  -30.8350  -15.5990   21.3190 C   0  0  0  0  0  2  0  0  0  0  0  0
  -31.4340  -14.3920   20.5580 C   0  0  0  0  0  0  0  0  0  0  0  0
  -31.0410  -12.2170   19.4480 C   0  0  0  0  0  2  0  0  0  0  0  0
  -30.1410  -12.4070   18.2110 C   0  0  0  0  0  2  0  0  0  0  0  0
  -28.6500  -12.3810   18.6030 C   0  0  0  0  0  2  0  0  0  0  0  0
  -28.3360  -13.3160   19.8000 C   0  0  0  0  0  3  0  0  0  0  0  0
  -29.3350  -13.0700   20.9500 C   0  0  0  0  0  2  0  0  0  0  0  0
  -30.6960  -13.2610   20.4240 N   0  0  0  0  0  0  0  0  0  0  0  0
  -32.5400  -14.5150   20.0210 O   0  0  0  0  0  0  0  0  0  0  0  0
  -25.9990  -14.1380   20.5060 C   0  0  0  0  0  0  0  0  0  0  0  0
  -24.8550  -13.4620   20.8350 C   0  0  0  0  0  0  0  0  0  0  0  0
  -25.1820  -12.0720   20.7590 C   0  0  0  0  0  0  0  0  0  0  0  0
  -26.9540  -13.1650   20.2510 N   0  0  0  0  0  0  0  0  0  0  0  0
  -26.4650  -11.9180   20.4610 N   0  0  0  0  0  0  0  0  0  0  0  0
  -24.3340  -10.8820   20.8920 C   0  0  0  0  0  0  0  0  0  0  0  0
  -24.6540   -9.8440   21.7950 C   0  0  0  0  0  3  0  0  0  0  0  0
  -23.8120   -8.7160   21.9170 C   0  0  0  0  0  3  0  0  0  0  0  0
  -22.6370   -8.6210   21.1330 C   0  0  0  0  0  0  0  0  0  0  0  0
  -22.3350   -9.6460   20.2200 C   0  0  0  0  0  3  0  0  0  0  0  0
  -23.1770  -10.7650   20.0960 C   0  0  0  0  0  3  0  0  0  0  0  0
  -21.7730   -7.5520   21.1670 O   0  0  0  0  0  0  0  0  0  0  0  0
  -21.6130   -6.7920   22.2970 C   0  0  0  0  0  0  0  0  0  0  0  0
  -21.2140   -7.3600   23.5280 C   0  0  0  0  0  3  0  0  0  0  0  0
  -20.9930   -6.5320   24.6470 C   0  0  0  0  0  3  0  0  0  0  0  0
  -21.1610   -5.1390   24.5370 C   0  0  0  0  0  0  0  0  0  0  0  0
  -21.5540   -4.5710   23.3120 C   0  0  0  0  0  3  0  0  0  0  0  0
  -21.7750   -5.3950   22.1940 C   0  0  0  0  0  0  0  0  0  0  0  0
  -22.1330   -4.8410   21.0110 F   0  0  0  0  0  0  0  0  0  0  0  0
  -20.9400   -4.3430   25.6090 F   0  0  0  0  0  0  0  0  0  0  0  0
  -23.5080  -14.0630   21.1110 C   0  0  0  0  0  0  0  0  0  0  0  0
  -22.7170  -13.4320   21.9730 N   0  0  0  0  0  0  0  0  0  0  0  0
  -23.1660  -15.1280   20.5990 O   0  0  0  0  0  0  0  0  0  0  0  0
  -23.0040  -12.5690   22.4100 H   0  0  0  0  0  0  0  0  0  0  0  0
  -21.8120  -13.8180   22.2000 H   0  0  0  0  0  0  0  0  0  0  0  0
  -26.3020  -15.4910   20.3840 N   0  0  0  0  0  0  0  0  0  0  0  0
  -25.5990  -16.2120   20.5020 H   0  0  0  0  0  0  0  0  0  0  0  0
  -27.1930  -15.8520   20.0680 H   0  0  0  0  0  0  0  0  0  0  0  0
  -32.0640  -19.7810   20.2610 C   0  0  0  0  0  2  0  0  0  0  0  0
  -33.1780  -18.9000   19.6560 C   0  0  0  0  0  2  0  0  0  0  0  0
  -33.0800  -18.7120   18.1360 C   0  0  0  0  0  2  0  0  0  0  0  0
  -33.8480  -17.4610   17.6880 C   0  0  0  0  0  2  0  0  0  0  0  0
  -33.3210  -16.8310   16.3910 C   0  0  0  0  0  2  0  0  0  0  0  0
  -33.9390  -15.4430   16.1530 C   0  0  0  0  0  2  0  0  0  0  0  0
  -33.6970  -13.1390   15.0910 C   0  0  0  0  0  1  0  0  0  0  0  0
  -33.1330  -14.5640   15.1860 C   0  0  0  0  0  2  0  0  0  0  0  0
  -29.6980  -21.0420   21.8840 C   0  0  0  0  0  2  0  0  0  0  0  0
  -29.5480  -22.5770   21.9160 C   0  0  0  0  0  2  0  0  0  0  0  0
  -28.4660  -23.1070   20.9630 C   0  0  0  0  0  2  0  0  0  0  0  0
  -28.6040  -24.6170   20.7000 C   0  0  0  0  0  2  0  0  0  0  0  0
  -27.4410  -25.1730   19.8690 C   0  0  0  0  0  2  0  0  0  0  0  0
  -27.5880  -26.5880   19.7440 O   0  0  0  0  0  0  0  0  0  0  0  0
  -24.4130  -31.9270   23.1720 C   0  0  0  0  0  0  0  0  0  0  0  0
  -26.4480  -27.3580   19.8410 C   0  0  0  0  0  0  0  0  0  0  0  0
  -22.9620  -30.6110   21.6650 C   0  0  0  0  0  3  0  0  0  0  0  0
  -24.1630  -28.9980   20.0980 C   0  0  0  0  0  0  0  0  0  0  0  0
  -25.4720  -30.8160   21.2130 C   0  0  0  0  0  2  0  0  0  0  0  0
  -25.4030  -29.4490   20.5670 C   0  0  0  0  0  0  0  0  0  0  0  0
  -26.5490  -28.6330   20.4350 C   0  0  0  0  0  3  0  0  0  0  0  0
  -25.1890  -26.9250   19.3590 C   0  0  0  0  0  3  0  0  0  0  0  0
  -24.0480  -27.7350   19.4920 C   0  0  0  0  0  3  0  0  0  0  0  0
  -22.9850  -29.9270   20.2720 C   0  0  0  0  0  2  0  0  0  0  0  0
  -24.3070  -31.1300   22.0730 N   0  0  0  0  0  0  0  0  0  0  0  0
  -23.4110  -32.2640   23.8190 O   0  0  0  0  0  0  0  0  0  0  0  0
  -22.3520  -29.6240   22.6880 C   0  0  0  0  0  0  0  0  0  0  0  0
  -21.0510  -29.3260   22.5290 N   0  0  0  0  0  0  0  0  0  0  0  0
  -23.0460  -29.1260   23.5770 O   0  0  0  0  0  0  0  0  0  0  0  0
  -20.5520  -29.7850   21.7820 H   0  0  0  0  0  0  0  0  0  0  0  0
  -17.7850  -27.8360   22.9280 C   0  0  0  0  0  0  0  0  0  0  0  0
  -20.2740  -28.3950   23.3460 C   0  0  0  0  0  3  0  0  0  0  0  0
  -20.5660  -26.9280   22.9520 C   0  0  0  0  0  2  0  0  0  0  0  0
  -19.5880  -26.3790   21.9100 C   0  0  0  0  0  2  0  0  0  0  0  0
  -18.1500  -26.4470   22.4350 C   0  0  0  0  0  2  0  0  0  0  0  0
  -18.7850  -28.7570   23.3410 C   0  0  0  0  0  0  0  0  0  0  0  0
  -18.3960  -30.0490   23.7560 C   0  0  0  0  0  3  0  0  0  0  0  0
  -17.0390  -30.4230   23.7720 C   0  0  0  0  0  3  0  0  0  0  0  0
  -16.0530  -29.5020   23.3800 C   0  0  0  0  0  3  0  0  0  0  0  0
  -16.4270  -28.2120   22.9610 C   0  0  0  0  0  3  0  0  0  0  0  0
  -25.7920  -32.4730   23.6550 C   0  0  0  0  0  3  0  0  0  0  0  0
  -25.5940  -33.8730   24.0560 N   0  0  0  0  0  0  0  0  0  0  0  0
  -25.9160  -34.9320   23.3020 C   0  0  0  0  0  0  0  0  0  0  0  0
  -26.4810  -34.8300   22.2080 O   0  0  0  0  0  0  0  0  0  0  0  0
  -25.0830  -34.0270   24.9130 H   0  0  0  0  0  0  0  0  0  0  0  0
  -24.2660  -36.8250   23.1700 C   0  0  0  0  0  1  0  0  0  0  0  0
  -25.5530  -36.3250   23.8470 C   0  0  0  0  0  3  0  0  0  0  0  0
  -27.8070  -37.0570   24.4880 C   0  0  0  0  0  1  0  0  0  0  0  0
  -26.6270  -37.3240   23.6700 N   0  0  0  0  0  0  0  0  0  0  0  0
  -26.2920  -38.2570   23.8970 H   0  0  0  0  0  0  0  0  0  0  0  0
  -26.4170  -31.6350   24.8370 C   0  0  1  0  0  0  0  0  0  0  0  0
  -25.4200  -31.3520   25.9870 C   0  0  0  0  0  1  0  0  0  0  0  0
  -26.9450  -30.2750   24.3210 C   0  0  0  0  0  1  0  0  0  0  0  0
  -27.6310  -32.3860   25.4310 C   0  0  0  0  0  1  0  0  0  0  0  0
  1 55  1  0
  1  4  1  0
  4  3  1  0
  4  2  1  0
  5 47  1  0
  5  6  1  0
  5  1  1  0
  6  7  1  0
  8  6  1  0
  9 10  1  0
  9  6  1  0
 11 10  1  0
 12 17  1  0
 13 14  1  0
 13 12  1  0
 15 14  1  0
 15 22  1  0
 15 16  1  0
 17 11  1  0
 17 16  1  0
 18 11  2  0
 19 20  2  0
 20 39  1  0
 21 20  1  0
 21 24  1  0
 22 23  1  0
 22 19  1  0
 23 21  2  0
 24 25  1  0
 25 26  2  0
 27 30  1  0
 27 26  1  0
 28 27  2  0
 29 28  1  0
 29 24  2  0
 30 31  1  0
 31 32  1  0
 32 33  2  0
 34 33  1  0
 34 38  1  0
 35 34  2  0
 36 31  2  0
 36 35  1  0
 37 36  1  0
 39 40  1  0
 40 43  1  0
 40 42  1  0
 41 39  2  0
 44 45  1  0
 44 19  1  0
 46 44  1  0
 48 47  1  0
 49 48  1  0
 50 49  1  0
 51 50  1  0
 52 51  1  0
 53 54  1  0
 54 52  1  0
 55 56  1  0
 57 56  1  0
 58 57  1  0
 59 58  1  0
 60 62  1  0
 60 59  1  0
 61 72  2  0
 62 67  1  0
 63 71  1  0
 63 73  1  0
 64 70  1  0
 64 66  1  0
 65 71  1  0
 66 65  1  0
 67 66  2  0
 68 69  1  0
 68 62  2  0
 69 64  2  0
 70 63  1  0
 71 61  1  0
 73 75  2  0
 74 73  1  0
 76 74  1  0
 77 86  2  0
 77 82  1  0
 78 74  1  0
 79 78  1  0
 80 81  1  0
 80 79  1  0
 81 77  1  0
 82 78  1  0
 82 83  2  0
 83 84  1  0
 85 84  2  0
 86 85  1  0
 87 61  1  0
 87 88  1  0
 87 97  1  0
 88 91  1  0
 89 93  1  0
 89 88  1  0
 90 89  2  0
 93 92  1  0
 95 93  1  0
 95 96  1  0
 95 94  1  0
 97100  1  1
 97 98  1  0
 99 97  1  0
M  ISO  4  10 100  11 100  59 101  60 101
M  END
>  <TORSDO>  (52) 
F 33

>  <SCORE>  (52) 
-8.635

>  <name>  (52) 
51

>  <ligand_id>  (52) 
51

>  <original_smiles>  (52) 
[H]c1c([H])c([H])c2c(c1[H])C([H])([H])C([H])([H])C([H])([H])C2([H])N([H])C(=O)C1([H])N(C(=O)C([H])(N([H])C(=O)C([H])(N([H])C([H])([H])[H])C([H])([H])[H])C(C([H])([H])[H])(C([H])([H])[H])C([H])([H])[H])C([H])([H])c2c([H])c(OC([H])([H])C([H])([H])C([H])([H])C([H])([H])C([H])([H])C([H])(N(C([H])([H])[H])C([H])([H])[H])C([H])(C([H])([H])C([H])([H])C([H])([H])C([H])([H])C([H])([H])C([H])([H])C([H])([H])C([H])([H])[H])[N+]([H])([H])C([H])([H])C([H])([H])C(=O)N3C([H])([H])C([H])([H])C([H])([H])C([H])(n4nc(-c5c([H])c([H])c(Oc6c([H])c([H])c(F)c([H])c6F)c([H])c5[H])c(C(=O)N([H])[H])c4N([H])[H])C3([H])[H])c([H])c([H])c2C1([H])[H]

>  <smiles>  (52) 
[H]c1c([H])c([H])c2c(c1[H])C([H])([H])C([H])([H])C([H])([H])C2([H])N([H])C(=O)C1([H])N(C(=O)C([H])(N([H])C(=O)C([H])(N([H])C([H])([H])[H])C([H])([H])[H])C(C([H])([H])[H])(C([H])([H])[H])C([H])([H])[H])C([H])([H])c2c([H])c(OC([H])([H])C([H])([H])C([H])([H])C([H])([H])C([H])([H])C([H])(N(C([H])([H])[H])C([H])([H])[H])C([H])(C([H])([H])C([H])([H])C([H])([H])C([H])([H])C([H])([H])C([H])([H])C([H])([H])C([H])([H])[H])[N+]([H])([H])C([H])([H])C([H])([H])C(=O)N3C([H])([H])C([H])([H])C([H])([H])C([H])(n4nc(-c5c([H])c([H])c(Oc6c([H])c([H])c(F)c([H])c6F)c([H])c5[H])c(C(=O)N([H])[H])c4N([H])[H])C3([H])[H])c([H])c([H])c2C1([H])[H]

$$$$
52:0:0
     RDKit          3D

 89 96  0  0  1  0  0  0  0  0999 V2000
  -28.8010  -20.5390   20.2710 C   0  0  0  0  0  3  0  0  0  0  0  0
  -27.4060  -20.2820   19.8350 N   0  0  0  0  0  4  0  0  0  0  0  0
  -27.3390  -20.2490   18.8320 H   0  0  0  0  0  0  0  0  0  0  0  0
  -26.7720  -20.9840   20.1720 H   0  0  0  0  0  0  0  0  0  0  0  0
  -27.0800  -19.4050   20.1940 H   0  0  0  0  0  0  0  0  0  0  0  0
  -29.0270  -22.4010   20.0260 C   0  0  0  0  0  3  0  0  0  0  0  0
  -28.0220  -23.9940   20.2030 C   0  0  0  0  0  3  0  0  0  0  0  0
  -28.2180  -25.6990   20.2470 O   0  0  0  0  0  0  0  0  0  0  0  0
  -24.6470  -31.8670   23.1810 C   0  0  0  0  0  0  0  0  0  0  0  0
  -27.2030  -26.8420   20.2220 C   0  0  0  0  0  0  0  0  0  0  0  0
  -23.4600  -30.4350   21.5690 C   0  0  0  0  0  3  0  0  0  0  0  0
  -24.9060  -28.7890   20.1690 C   0  0  0  0  0  0  0  0  0  0  0  0
  -26.0310  -30.6140   21.4280 C   0  0  0  0  0  2  0  0  0  0  0  0
  -26.1000  -29.1850   20.7860 C   0  0  0  0  0  0  0  0  0  0  0  0
  -27.2390  -28.2370   20.7770 C   0  0  0  0  0  3  0  0  0  0  0  0
  -25.9680  -26.6300   19.5630 C   0  0  0  0  0  3  0  0  0  0  0  0
  -24.8710  -27.5390   19.5370 C   0  0  0  0  0  3  0  0  0  0  0  0
  -23.6870  -29.7180   20.2060 C   0  0  0  0  0  2  0  0  0  0  0  0
  -24.7350  -31.0080   22.1090 N   0  0  0  0  0  0  0  0  0  0  0  0
  -23.5540  -32.1670   23.6940 O   0  0  0  0  0  0  0  0  0  0  0  0
  -22.7550  -29.4670   22.5560 C   0  0  0  0  0  0  0  0  0  0  0  0
  -21.4230  -29.3100   22.4400 N   0  0  0  0  0  0  0  0  0  0  0  0
  -23.4190  -28.8600   23.3990 O   0  0  0  0  0  0  0  0  0  0  0  0
  -20.9410  -29.8450   21.7320 H   0  0  0  0  0  0  0  0  0  0  0  0
  -18.0430  -28.0990   22.9800 C   0  0  0  0  0  0  0  0  0  0  0  0
  -20.6040  -28.3840   23.2290 C   0  0  0  0  0  3  0  0  0  0  0  0
  -20.7060  -26.9420   22.6760 C   0  0  0  0  0  2  0  0  0  0  0  0
  -19.6010  -26.5980   21.6700 C   0  0  0  0  0  2  0  0  0  0  0  0
  -18.2230  -26.7430   22.3170 C   0  0  0  0  0  2  0  0  0  0  0  0
  -19.1600  -28.8750   23.3920 C   0  0  0  0  0  0  0  0  0  0  0  0
  -18.9310  -30.1420   23.9740 C   0  0  0  0  0  3  0  0  0  0  0  0
  -17.6220  -30.6290   24.1510 C   0  0  0  0  0  3  0  0  0  0  0  0
  -16.5210  -29.8520   23.7540 C   0  0  0  0  0  3  0  0  0  0  0  0
  -16.7330  -28.5890   23.1730 C   0  0  0  0  0  3  0  0  0  0  0  0
  -25.9140  -32.5260   23.8060 C   0  0  0  0  0  3  0  0  0  0  0  0
  -25.5850  -33.9270   24.1350 N   0  0  0  0  0  0  0  0  0  0  0  0
  -25.9090  -34.9930   23.3870 C   0  0  0  0  0  0  0  0  0  0  0  0
  -26.5820  -34.9010   22.3570 O   0  0  0  0  0  0  0  0  0  0  0  0
  -24.9940  -34.0690   24.9380 H   0  0  0  0  0  0  0  0  0  0  0  0
  -24.1810  -36.7930   23.0410 C   0  0  0  0  0  1  0  0  0  0  0  0
  -25.4170  -36.3780   23.8560 C   0  0  0  0  0  3  0  0  0  0  0  0
  -27.5430  -37.2680   24.7130 C   0  0  0  0  0  1  0  0  0  0  0  0
  -26.4470  -37.4380   23.7590 N   0  0  0  0  0  0  0  0  0  0  0  0
  -26.0350  -38.3530   23.9110 H   0  0  0  0  0  0  0  0  0  0  0  0
  -26.4270  -31.7800   25.1010 C   0  0  1  0  0  0  0  0  0  0  0  0
  -25.3290  -31.5580   26.1680 C   0  0  0  0  0  1  0  0  0  0  0  0
  -27.0180  -30.3950   24.7500 C   0  0  0  0  0  1  0  0  0  0  0  0
  -27.5690  -32.5900   25.7540 C   0  0  0  0  0  1  0  0  0  0  0  0
  -29.7070  -18.9130   19.8640 C   0  0  0  0  0  3  0  0  0  0  0  0
  -31.2390  -19.8520   18.1350 C   0  0  0  0  0  1  0  0  0  0  0  0
  -31.8720  -19.8800   20.4700 C   0  0  0  0  0  1  0  0  0  0  0  0
  -31.0950  -19.1860   19.4390 N   0  0  0  0  0  0  0  0  0  0  0  0
  -29.7580  -17.1630   20.5540 C   0  0  0  0  0  2  0  0  0  0  0  0
  -30.4270  -15.5090   20.1700 C   0  0  0  0  0  0  0  0  0  0  0  0
  -30.4450  -12.9930   19.3580 C   0  0  0  0  0  2  0  0  0  0  0  0
  -29.5300  -12.7330   18.1270 C   0  0  0  0  0  2  0  0  0  0  0  0
  -28.0980  -12.4130   18.5760 C   0  0  0  0  0  2  0  0  0  0  0  0
  -27.6230  -13.3820   19.6810 C   0  0  0  0  0  3  0  0  0  0  0  0
  -28.6720  -13.6140   20.7960 C   0  0  0  0  0  2  0  0  0  0  0  0
  -29.8910  -14.1630   20.1670 N   0  0  0  0  0  0  0  0  0  0  0  0
  -31.6230  -15.4430   19.8410 O   0  0  0  0  0  0  0  0  0  0  0  0
  -25.2550  -13.9080   20.4480 C   0  0  0  0  0  0  0  0  0  0  0  0
  -24.2010  -13.1230   20.8170 C   0  0  0  0  0  0  0  0  0  0  0  0
  -24.6790  -11.7750   20.7950 C   0  0  0  0  0  0  0  0  0  0  0  0
  -26.3040  -13.0450   20.1980 N   0  0  0  0  0  0  0  0  0  0  0  0
  -25.9740  -11.7530   20.4790 N   0  0  0  0  0  0  0  0  0  0  0  0
  -23.9580  -10.5080   20.9920 C   0  0  0  0  0  0  0  0  0  0  0  0
  -24.3930   -9.5490   21.9360 C   0  0  0  0  0  3  0  0  0  0  0  0
  -23.6730   -8.3470   22.1200 C   0  0  0  0  0  3  0  0  0  0  0  0
  -22.5050   -8.0950   21.3550 C   0  0  0  0  0  0  0  0  0  0  0  0
  -22.0930   -9.0380   20.3980 C   0  0  0  0  0  3  0  0  0  0  0  0
  -22.8170  -10.2340   20.2180 C   0  0  0  0  0  3  0  0  0  0  0  0
  -21.7530   -6.9480   21.4500 O   0  0  0  0  0  0  0  0  0  0  0  0
  -21.6950   -6.2180   22.6080 C   0  0  0  0  0  0  0  0  0  0  0  0
  -21.2370   -6.7790   23.8200 C   0  0  0  0  0  3  0  0  0  0  0  0
  -21.1290   -5.9730   24.9730 C   0  0  0  0  0  3  0  0  0  0  0  0
  -21.4740   -4.6100   24.9130 C   0  0  0  0  0  0  0  0  0  0  0  0
  -21.9240   -4.0470   23.7050 C   0  0  0  0  0  3  0  0  0  0  0  0
  -22.0340   -4.8490   22.5590 C   0  0  0  0  0  0  0  0  0  0  0  0
  -22.4500   -4.3000   21.3920 F   0  0  0  0  0  0  0  0  0  0  0  0
  -21.3600   -3.8360   26.0170 F   0  0  0  0  0  0  0  0  0  0  0  0
  -22.7970  -13.5850   21.0790 C   0  0  0  0  0  0  0  0  0  0  0  0
  -22.0740  -12.8840   21.9470 N   0  0  0  0  0  0  0  0  0  0  0  0
  -22.3540  -14.6030   20.5520 O   0  0  0  0  0  0  0  0  0  0  0  0
  -22.4470  -12.0640   22.3970 H   0  0  0  0  0  0  0  0  0  0  0  0
  -21.1290  -13.1700   22.1600 H   0  0  0  0  0  0  0  0  0  0  0  0
  -25.4020  -15.2790   20.2640 N   0  0  0  0  0  0  0  0  0  0  0  0
  -24.6320  -15.9270   20.3740 H   0  0  0  0  0  0  0  0  0  0  0  0
  -26.2310  -15.7070   19.8690 H   0  0  0  0  0  0  0  0  0  0  0  0
  1  6  1  0
  2  4  1  0
  2  5  1  0
  2  1  1  0
  3  2  1  0
  6  7  2  0
  7  8  1  0
  9 20  2  0
 10  8  1  0
 10 15  1  0
 11 19  1  0
 11 21  1  0
 12 18  1  0
 12 14  1  0
 13 19  1  0
 14 13  1  0
 15 14  2  0
 16 10  2  0
 17 16  1  0
 17 12  2  0
 18 11  1  0
 19  9  1  0
 21 23  2  0
 22 21  1  0
 24 22  1  0
 25 34  2  0
 25 30  1  0
 26 22  1  0
 26 30  1  0
 27 26  1  0
 28 29  1  0
 28 27  1  0
 29 25  1  0
 30 31  2  0
 31 32  1  0
 33 32  2  0
 34 33  1  0
 35  9  1  0
 35 36  1  0
 35 45  1  0
 36 39  1  0
 37 41  1  0
 37 36  1  0
 38 37  2  0
 41 40  1  0
 43 41  1  0
 43 44  1  0
 43 42  1  0
 45 48  1  1
 45 46  1  0
 47 45  1  0
 49  1  1  0
 49 53  1  0
 50 52  1  0
 52 49  1  0
 52 51  1  0
 54 53  1  0
 55 60  1  0
 56 57  1  0
 56 55  1  0
 58 57  1  0
 58 65  1  0
 58 59  1  0
 60 54  1  0
 60 59  1  0
 61 54  2  0
 62 63  2  0
 63 82  1  0
 64 63  1  0
 64 67  1  0
 65 62  1  0
 65 66  1  0
 66 64  2  0
 67 68  1  0
 68 69  2  0
 70 73  1  0
 70 69  1  0
 71 70  2  0
 72 71  1  0
 72 67  2  0
 73 74  1  0
 74 75  1  0
 75 76  2  0
 77 76  1  0
 77 81  1  0
 78 77  2  0
 79 74  2  0
 79 78  1  0
 80 79  1  0
 82 83  1  0
 83 86  1  0
 83 85  1  0
 84 82  2  0
 87 88  1  0
 87 62  1  0
 89 87  1  0
M  ISO  4   7 101   8 101  53 100  54 100
M  END
>  <TORSDO>  (53) 
F 22

>  <SCORE>  (53) 
-16.402

>  <name>  (53) 
52

>  <ligand_id>  (53) 
52

>  <original_smiles>  (53) 
[H]c1c([H])c([H])c2c(c1[H])C([H])([H])C([H])([H])C([H])([H])C2([H])N([H])C(=O)C1([H])N(C(=O)C([H])(N([H])C(=O)C([H])(N([H])C([H])([H])[H])C([H])([H])[H])C(C([H])([H])[H])(C([H])([H])[H])C([H])([H])[H])C([H])([H])c2c([H])c(OC([H])([H])C([H])([H])C([H])(C([H])(N(C([H])([H])[H])C([H])([H])[H])C([H])([H])C(=O)N3C([H])([H])C([H])([H])C([H])([H])C([H])(n4nc(-c5c([H])c([H])c(Oc6c([H])c([H])c(F)c([H])c6F)c([H])c5[H])c(C(=O)N([H])[H])c4N([H])[H])C3([H])[H])[N+]([H])([H])[H])c([H])c([H])c2C1([H])[H]

>  <smiles>  (53) 
[H]c1c([H])c([H])c2c(c1[H])C([H])([H])C([H])([H])C([H])([H])C2([H])N([H])C(=O)C1([H])N(C(=O)C([H])(N([H])C(=O)C([H])(N([H])C([H])([H])[H])C([H])([H])[H])C(C([H])([H])[H])(C([H])([H])[H])C([H])([H])[H])C([H])([H])c2c([H])c(OC([H])([H])C([H])([H])C([H])(C([H])(N(C([H])([H])[H])C([H])([H])[H])C([H])([H])C(=O)N3C([H])([H])C([H])([H])C([H])([H])C([H])(n4nc(-c5c([H])c([H])c(Oc6c([H])c([H])c(F)c([H])c6F)c([H])c5[H])c(C(=O)N([H])[H])c4N([H])[H])C3([H])[H])[N+]([H])([H])[H])c([H])c([H])c2C1([H])[H]

$$$$
53:0:0
     RDKit          3D

 94102  0  0  1  0  0  0  0  0999 V2000
  -28.3310  -20.7460   23.3380 C   0  0  0  0  0  2  0  0  0  0  0  0
  -29.4790  -19.8150   22.9310 C   0  0  0  0  0  2  0  0  0  0  0  0
  -28.2590  -21.8580   22.2780 C   0  0  0  0  0  2  0  0  0  0  0  0
  -29.8170  -20.2070   21.4830 C   0  0  0  0  0  3  0  0  0  0  0  0
  -29.3040  -21.6020   21.2680 N   0  0  2  0  0  4  0  0  0  0  0  0
  -28.7890  -21.4950   20.4080 H   0  0  0  0  0  0  0  0  0  0  0  0
  -31.2450  -19.8210   21.0170 C   0  0  0  0  0  0  0  0  0  0  0  0
  -31.6740  -18.5790   21.3000 N   0  0  0  0  0  0  0  0  0  0  0  0
  -31.9420  -20.5870   20.3510 O   0  0  0  0  0  0  0  0  0  0  0  0
  -31.0810  -18.0050   21.8860 H   0  0  0  0  0  0  0  0  0  0  0  0
  -32.8910  -17.9620   20.7510 C   0  0  0  0  0  2  0  0  0  0  0  0
  -32.6110  -17.3220   19.3660 C   0  0  0  0  0  2  0  0  0  0  0  0
  -33.2450  -15.9410   19.0830 C   0  0  0  0  0  0  0  0  0  0  0  0
  -32.6670  -13.6820   18.2640 C   0  0  0  0  0  2  0  0  0  0  0  0
  -31.6120  -13.8280   17.1380 C   0  0  0  0  0  2  0  0  0  0  0  0
  -30.1810  -13.9010   17.7120 C   0  0  0  0  0  2  0  0  0  0  0  0
  -30.0730  -14.9110   18.8810 C   0  0  0  0  0  3  0  0  0  0  0  0
  -31.2160  -14.6950   19.9000 C   0  0  0  0  0  2  0  0  0  0  0  0
  -32.4880  -14.8130   19.1810 N   0  0  0  0  0  0  0  0  0  0  0  0
  -34.3590  -15.9400   18.5510 O   0  0  0  0  0  0  0  0  0  0  0  0
  -27.9760  -15.8830   20.0080 C   0  0  0  0  0  0  0  0  0  0  0  0
  -26.8200  -15.2990   20.4330 C   0  0  0  0  0  0  0  0  0  0  0  0
  -26.9620  -13.8990   20.1740 C   0  0  0  0  0  0  0  0  0  0  0  0
  -28.7650  -14.8550   19.5210 N   0  0  0  0  0  0  0  0  0  0  0  0
  -28.1640  -13.6480   19.6750 N   0  0  0  0  0  0  0  0  0  0  0  0
  -26.0040  -12.7950   20.3090 C   0  0  0  0  0  0  0  0  0  0  0  0
  -26.3040  -11.6440   21.0730 C   0  0  0  0  0  3  0  0  0  0  0  0
  -25.3570  -10.6080   21.2050 C   0  0  0  0  0  3  0  0  0  0  0  0
  -24.0940  -10.7150   20.5760 C   0  0  0  0  0  0  0  0  0  0  0  0
  -23.8100  -11.8520   19.7990 C   0  0  0  0  0  3  0  0  0  0  0  0
  -24.7560  -12.8810   19.6630 C   0  0  0  0  0  3  0  0  0  0  0  0
  -23.1210   -9.7490   20.6320 O   0  0  0  0  0  0  0  0  0  0  0  0
  -22.9260   -8.9920   21.7590 C   0  0  0  0  0  0  0  0  0  0  0  0
  -22.6370   -9.5770   23.0110 C   0  0  0  0  0  3  0  0  0  0  0  0
  -22.3700   -8.7570   24.1250 C   0  0  0  0  0  3  0  0  0  0  0  0
  -22.3890   -7.3550   23.9900 C   0  0  0  0  0  0  0  0  0  0  0  0
  -22.6770   -6.7730   22.7420 C   0  0  0  0  0  3  0  0  0  0  0  0
  -22.9390   -7.5890   21.6280 C   0  0  0  0  0  0  0  0  0  0  0  0
  -23.1940   -7.0230   20.4240 F   0  0  0  0  0  0  0  0  0  0  0  0
  -22.1280   -6.5650   25.0570 F   0  0  0  0  0  0  0  0  0  0  0  0
  -25.6000  -15.9990   20.9590 C   0  0  0  0  0  0  0  0  0  0  0  0
  -24.8480  -15.3420   21.8270 N   0  0  0  0  0  0  0  0  0  0  0  0
  -25.3400  -17.1580   20.6330 O   0  0  0  0  0  0  0  0  0  0  0  0
  -25.0820  -14.3980   22.1060 H   0  0  0  0  0  0  0  0  0  0  0  0
  -24.0320  -15.7910   22.2190 H   0  0  0  0  0  0  0  0  0  0  0  0
  -28.4120  -17.2050   19.9730 N   0  0  0  0  0  0  0  0  0  0  0  0
  -27.7650  -17.9580   20.1710 H   0  0  0  0  0  0  0  0  0  0  0  0
  -29.2490  -17.5210   19.5040 H   0  0  0  0  0  0  0  0  0  0  0  0
  -30.1690  -22.7870   20.9590 C   0  0  0  0  0  2  0  0  0  0  0  0
  -31.0180  -23.3730   22.1320 C   0  0  0  0  0  2  0  0  0  0  0  0
  -30.4810  -24.7270   22.6730 C   0  0  0  0  0  2  0  0  0  0  0  0
  -31.4860  -25.9060   22.7930 C   0  0  0  0  0  2  0  0  0  0  0  0
  -31.7650  -26.6920   21.4800 C   0  0  0  0  0  2  0  0  0  0  0  0
  -31.3170  -28.0720   21.4970 O   0  0  0  0  0  0  0  0  0  0  0  0
  -25.5480  -31.6180   23.6640 C   0  0  0  0  0  0  0  0  0  0  0  0
  -29.9980  -28.3940   21.2110 C   0  0  0  0  0  0  0  0  0  0  0  0
  -25.1900  -30.0350   21.7980 C   0  0  0  0  0  3  0  0  0  0  0  0
  -27.2990  -29.1190   20.7030 C   0  0  0  0  0  0  0  0  0  0  0  0
  -27.4640  -31.1660   22.1260 C   0  0  0  0  0  2  0  0  0  0  0  0
  -28.0960  -29.9290   21.5200 C   0  0  0  0  0  0  0  0  0  0  0  0
  -29.4480  -29.5840   21.7580 C   0  0  0  0  0  3  0  0  0  0  0  0
  -29.1740  -27.6000   20.3780 C   0  0  0  0  0  3  0  0  0  0  0  0
  -27.8400  -27.9620   20.1200 C   0  0  0  0  0  3  0  0  0  0  0  0
  -25.8640  -29.5510   20.4880 C   0  0  0  0  0  2  0  0  0  0  0  0
  -26.0690  -30.9590   22.5870 N   0  0  0  0  0  0  0  0  0  0  0  0
  -24.3530  -31.4990   23.9760 O   0  0  0  0  0  0  0  0  0  0  0  0
  -24.7270  -28.8000   22.6050 C   0  0  0  0  0  0  0  0  0  0  0  0
  -23.6230  -28.1780   22.1590 N   0  0  0  0  0  0  0  0  0  0  0  0
  -25.3680  -28.4050   23.5800 O   0  0  0  0  0  0  0  0  0  0  0  0
  -23.1400  -28.5700   21.3630 H   0  0  0  0  0  0  0  0  0  0  0  0
  -20.8450  -25.8720   21.8600 C   0  0  0  0  0  0  0  0  0  0  0  0
  -23.0320  -26.9570   22.7090 C   0  0  0  0  0  3  0  0  0  0  0  0
  -23.7570  -25.6930   22.1900 C   0  0  0  0  0  2  0  0  0  0  0  0
  -23.0770  -25.0720   20.9640 C   0  0  0  0  0  2  0  0  0  0  0  0
  -21.6220  -24.7110   21.2670 C   0  0  0  0  0  2  0  0  0  0  0  0
  -21.5110  -26.9380   22.5120 C   0  0  0  0  0  0  0  0  0  0  0  0
  -20.7500  -28.0210   23.0050 C   0  0  0  0  0  3  0  0  0  0  0  0
  -19.3510  -28.0470   22.8510 C   0  0  0  0  0  3  0  0  0  0  0  0
  -18.6930  -26.9780   22.2110 C   0  0  0  0  0  3  0  0  0  0  0  0
  -19.4410  -25.8940   21.7230 C   0  0  0  0  0  3  0  0  0  0  0  0
  -26.4190  -32.5670   24.5430 C   0  0  0  0  0  3  0  0  0  0  0  0
  -25.7130  -33.8530   24.6410 N   0  0  0  0  0  0  0  0  0  0  0  0
  -26.0000  -34.9350   23.9020 C   0  0  0  0  0  0  0  0  0  0  0  0
  -26.9450  -34.9760   23.1080 O   0  0  0  0  0  0  0  0  0  0  0  0
  -24.8910  -33.8780   25.2290 H   0  0  0  0  0  0  0  0  0  0  0  0
  -24.0930  -36.2390   22.9020 C   0  0  0  0  0  1  0  0  0  0  0  0
  -25.0920  -36.1670   24.0690 C   0  0  0  0  0  3  0  0  0  0  0  0
  -26.6350  -37.5540   25.3850 C   0  0  0  0  0  1  0  0  0  0  0  0
  -25.8390  -37.4410   24.1640 N   0  0  0  0  0  0  0  0  0  0  0  0
  -25.2060  -38.2350   24.1220 H   0  0  0  0  0  0  0  0  0  0  0  0
  -26.7210  -31.9850   25.9770 C   0  0  1  0  0  0  0  0  0  0  0  0
  -25.4690  -31.4400   26.7060 C   0  0  0  0  0  1  0  0  0  0  0  0
  -27.7560  -30.8400   25.8930 C   0  0  0  0  0  1  0  0  0  0  0  0
  -27.3470  -33.0890   26.8640 C   0  0  0  0  0  1  0  0  0  0  0  0
  2  1  1  0
  3  1  1  0
  4  7  1  0
  4  2  1  0
  5  4  1  0
  5  3  1  0
  5  6  1  6
  7  8  1  0
  8 10  1  0
  9  7  2  0
 11  8  1  0
 12 11  1  0
 13 19  1  0
 13 12  1  0
 14 19  1  0
 15 16  1  0
 15 14  1  0
 17 16  1  0
 17 24  1  0
 17 18  1  0
 19 18  1  0
 20 13  2  0
 21 22  2  0
 22 41  1  0
 23 26  1  0
 23 22  1  0
 24 25  1  0
 24 21  1  0
 25 23  2  0
 26 27  1  0
 27 28  2  0
 29 32  1  0
 29 28  1  0
 30 29  2  0
 31 30  1  0
 31 26  2  0
 32 33  1  0
 33 34  1  0
 34 35  2  0
 36 35  1  0
 36 40  1  0
 37 36  2  0
 38 33  2  0
 38 37  1  0
 39 38  1  0
 41 42  1  0
 42 44  1  0
 42 45  1  0
 43 41  2  0
 46 21  1  0
 46 47  1  0
 48 46  1  0
 49  5  1  0
 49 50  1  0
 50 51  1  0
 51 52  1  0
 53 54  1  0
 53 52  1  0
 55 66  2  0
 56 54  1  0
 56 61  1  0
 57 65  1  0
 57 67  1  0
 58 60  1  0
 59 65  1  0
 60 61  2  0
 60 59  1  0
 62 56  2  0
 63 62  1  0
 63 58  2  0
 64 58  1  0
 64 57  1  0
 65 55  1  0
 67 69  2  0
 68 67  1  0
 70 68  1  0
 71 76  1  0
 72 68  1  0
 73 72  1  0
 74 75  1  0
 74 73  1  0
 75 71  1  0
 76 72  1  0
 76 77  2  0
 78 77  1  0
 79 78  2  0
 80 71  2  0
 80 79  1  0
 81 55  1  0
 81 82  1  0
 81 91  1  0
 82 85  1  0
 83 87  1  0
 83 82  1  0
 84 83  2  0
 87 86  1  0
 87 89  1  0
 89 88  1  0
 90 89  1  0
 91 92  1  1
 91 94  1  0
 93 91  1  0
M  ISO  4  12 100  13 100  53 101  54 101
M  END
>  <TORSDO>  (54) 
F 24

>  <SCORE>  (54) 
4.647

>  <name>  (54) 
53

>  <ligand_id>  (54) 
53

>  <original_smiles>  (54) 
[H]c1c([H])c([H])c2c(c1[H])C([H])([H])C([H])([H])C([H])([H])C2([H])N([H])C(=O)C1([H])N(C(=O)C([H])(N([H])C(=O)C([H])(N([H])C([H])([H])[H])C([H])([H])[H])C(C([H])([H])[H])(C([H])([H])[H])C([H])([H])[H])C([H])([H])c2c([H])c(OC([H])([H])C([H])([H])C([H])([H])C([H])([H])C([H])([H])[N+]3([H])C([H])([H])C([H])([H])C([H])([H])C3([H])C(=O)N([H])C([H])([H])C([H])([H])C(=O)N3C([H])([H])C([H])([H])C([H])([H])C([H])(n4nc(-c5c([H])c([H])c(Oc6c([H])c([H])c(F)c([H])c6F)c([H])c5[H])c(C(=O)N([H])[H])c4N([H])[H])C3([H])[H])c([H])c([H])c2C1([H])[H]

>  <smiles>  (54) 
[H]c1c([H])c([H])c2c(c1[H])C([H])([H])C([H])([H])C([H])([H])C2([H])N([H])C(=O)C1([H])N(C(=O)C([H])(N([H])C(=O)C([H])(N([H])C([H])([H])[H])C([H])([H])[H])C(C([H])([H])[H])(C([H])([H])[H])C([H])([H])[H])C([H])([H])c2c([H])c(OC([H])([H])C([H])([H])C([H])([H])C([H])([H])C([H])([H])[N+]3([H])C([H])([H])C([H])([H])C([H])([H])C3([H])C(=O)N([H])C([H])([H])C([H])([H])C(=O)N3C([H])([H])C([H])([H])C([H])([H])C([H])(n4nc(-c5c([H])c([H])c(Oc6c([H])c([H])c(F)c([H])c6F)c([H])c5[H])c(C(=O)N([H])[H])c4N([H])[H])C3([H])[H])c([H])c([H])c2C1([H])[H]

$$$$
54:0:0
     RDKit          3D

 86 94  0  0  1  0  0  0  0  0999 V2000
  -28.9460  -20.5690   19.1770 C   0  0  0  0  0  3  0  0  0  0  0  0
  -29.3940  -20.8150   21.4360 C   0  0  0  0  0  3  0  0  0  0  0  0
  -28.5410  -21.9850   19.1140 C   0  0  0  0  0  3  0  0  0  0  0  0
  -28.9800  -22.2360   21.3720 C   0  0  0  0  0  3  0  0  0  0  0  0
  -29.4030  -19.8500   20.3450 C   0  0  0  0  0  0  0  0  0  0  0  0
  -28.5310  -22.9550   20.1940 C   0  0  0  0  0  0  0  0  0  0  0  0
  -30.1270  -18.2960   20.3450 C   0  0  0  0  0  3  0  0  0  0  0  0
  -29.5740  -16.6590   20.5480 C   0  0  0  0  0  3  0  0  0  0  0  0
  -30.4210  -15.1860   20.3120 C   0  0  0  0  0  0  0  0  0  0  0  0
  -30.3610  -12.7960   19.3670 C   0  0  0  0  0  2  0  0  0  0  0  0
  -29.4150  -12.7170   18.1410 C   0  0  0  0  0  2  0  0  0  0  0  0
  -27.9600  -12.4750   18.5850 C   0  0  0  0  0  2  0  0  0  0  0  0
  -27.5520  -13.3870   19.7690 C   0  0  0  0  0  3  0  0  0  0  0  0
  -28.6190  -13.4280   20.8800 C   0  0  0  0  0  2  0  0  0  0  0  0
  -29.8740  -13.8870   20.2730 N   0  0  0  0  0  0  0  0  0  0  0  0
  -31.6220  -15.2330   20.0130 O   0  0  0  0  0  0  0  0  0  0  0  0
  -25.1840  -13.9370   20.5530 C   0  0  0  0  0  0  0  0  0  0  0  0
  -24.1280  -13.1530   20.9270 C   0  0  0  0  0  0  0  0  0  0  0  0
  -24.5980  -11.8040   20.8770 C   0  0  0  0  0  0  0  0  0  0  0  0
  -26.2260  -13.0680   20.2860 N   0  0  0  0  0  0  0  0  0  0  0  0
  -25.8860  -11.7780   20.5490 N   0  0  0  0  0  0  0  0  0  0  0  0
  -23.8770  -10.5370   21.0620 C   0  0  0  0  0  0  0  0  0  0  0  0
  -24.3190   -9.5630   21.9830 C   0  0  0  0  0  3  0  0  0  0  0  0
  -23.5960   -8.3630   22.1590 C   0  0  0  0  0  3  0  0  0  0  0  0
  -22.4170   -8.1300   21.4120 C   0  0  0  0  0  0  0  0  0  0  0  0
  -21.9940   -9.0930   20.4790 C   0  0  0  0  0  3  0  0  0  0  0  0
  -22.7180  -10.2840   20.3030 C   0  0  0  0  0  3  0  0  0  0  0  0
  -21.6640   -6.9830   21.4970 O   0  0  0  0  0  0  0  0  0  0  0  0
  -21.6180   -6.2350   22.6470 C   0  0  0  0  0  0  0  0  0  0  0  0
  -21.1770   -6.7790   23.8720 C   0  0  0  0  0  3  0  0  0  0  0  0
  -21.0790   -5.9570   25.0130 C   0  0  0  0  0  3  0  0  0  0  0  0
  -21.4130   -4.5930   24.9290 C   0  0  0  0  0  0  0  0  0  0  0  0
  -21.8480   -4.0470   23.7080 C   0  0  0  0  0  3  0  0  0  0  0  0
  -21.9480   -4.8670   22.5700 C   0  0  0  0  0  0  0  0  0  0  0  0
  -22.3460   -4.3310   21.3910 F   0  0  0  0  0  0  0  0  0  0  0  0
  -21.3130   -3.8010   26.0220 F   0  0  0  0  0  0  0  0  0  0  0  0
  -22.7320  -13.6220   21.2170 C   0  0  0  0  0  0  0  0  0  0  0  0
  -22.0170  -12.9200   22.0880 N   0  0  0  0  0  0  0  0  0  0  0  0
  -22.2840  -14.6480   20.7060 O   0  0  0  0  0  0  0  0  0  0  0  0
  -22.3940  -12.0900   22.5240 H   0  0  0  0  0  0  0  0  0  0  0  0
  -21.0820  -13.2160   22.3250 H   0  0  0  0  0  0  0  0  0  0  0  0
  -25.3400  -15.3110   20.3920 N   0  0  0  0  0  0  0  0  0  0  0  0
  -24.5730  -15.9630   20.5290 H   0  0  0  0  0  0  0  0  0  0  0  0
  -26.1880  -15.7600   20.0690 H   0  0  0  0  0  0  0  0  0  0  0  0
  -27.7530  -24.4770   20.0750 C   0  0  0  0  0  2  0  0  0  0  0  0
  -28.1700  -26.0150   20.2480 O   0  0  0  0  0  0  0  0  0  0  0  0
  -24.6350  -31.8930   23.2410 C   0  0  0  0  0  0  0  0  0  0  0  0
  -27.1660  -27.0940   20.1850 C   0  0  0  0  0  0  0  0  0  0  0  0
  -23.4260  -30.5080   21.6060 C   0  0  0  0  0  3  0  0  0  0  0  0
  -24.8630  -28.9280   20.1640 C   0  0  0  0  0  0  0  0  0  0  0  0
  -25.9880  -30.7380   21.4370 C   0  0  0  0  0  2  0  0  0  0  0  0
  -26.0530  -29.3400   20.7770 C   0  0  0  0  0  0  0  0  0  0  0  0
  -27.2040  -28.4420   20.7670 C   0  0  0  0  0  3  0  0  0  0  0  0
  -25.9470  -26.8210   19.5220 C   0  0  0  0  0  3  0  0  0  0  0  0
  -24.8300  -27.6860   19.5170 C   0  0  0  0  0  3  0  0  0  0  0  0
  -23.6420  -29.8390   20.2230 C   0  0  0  0  0  2  0  0  0  0  0  0
  -24.7040  -31.0700   22.1490 N   0  0  0  0  0  0  0  0  0  0  0  0
  -23.5510  -32.1810   23.7730 O   0  0  0  0  0  0  0  0  0  0  0  0
  -22.7440  -29.5020   22.5680 C   0  0  0  0  0  0  0  0  0  0  0  0
  -21.4150  -29.3300   22.4430 N   0  0  0  0  0  0  0  0  0  0  0  0
  -23.4140  -28.8770   23.3930 O   0  0  0  0  0  0  0  0  0  0  0  0
  -20.9290  -29.8840   21.7520 H   0  0  0  0  0  0  0  0  0  0  0  0
  -18.0370  -28.1070   22.9420 C   0  0  0  0  0  0  0  0  0  0  0  0
  -20.5940  -28.3910   23.2150 C   0  0  0  0  0  3  0  0  0  0  0  0
  -20.7080  -26.9570   22.6480 C   0  0  0  0  0  2  0  0  0  0  0  0
  -19.6110  -26.6220   21.6310 C   0  0  0  0  0  2  0  0  0  0  0  0
  -18.2260  -26.7580   22.2690 C   0  0  0  0  0  2  0  0  0  0  0  0
  -19.1480  -28.8800   23.3710 C   0  0  0  0  0  0  0  0  0  0  0  0
  -18.9160  -30.1410   23.9640 C   0  0  0  0  0  3  0  0  0  0  0  0
  -17.6060  -30.6300   24.1270 C   0  0  0  0  0  3  0  0  0  0  0  0
  -16.5100  -29.8540   23.7120 C   0  0  0  0  0  3  0  0  0  0  0  0
  -16.7260  -28.5950   23.1250 C   0  0  0  0  0  3  0  0  0  0  0  0
  -25.9150  -32.5280   23.8660 C   0  0  0  0  0  3  0  0  0  0  0  0
  -26.4240  -31.7570   25.1460 C   0  0  1  0  0  0  0  0  0  0  0  0
  -25.3290  -31.5310   26.2140 C   0  0  0  0  0  1  0  0  0  0  0  0
  -27.0000  -30.3740   24.7670 C   0  0  0  0  0  1  0  0  0  0  0  0
  -27.5810  -32.5470   25.8060 C   0  0  0  0  0  1  0  0  0  0  0  0
  -25.6050  -33.9270   24.2020 N   0  0  0  0  0  0  0  0  0  0  0  0
  -25.9180  -34.9850   23.4430 C   0  0  0  0  0  0  0  0  0  0  0  0
  -26.5620  -34.8870   22.3950 O   0  0  0  0  0  0  0  0  0  0  0  0
  -25.0290  -34.0780   25.0170 H   0  0  0  0  0  0  0  0  0  0  0  0
  -24.1720  -36.7770   23.1540 C   0  0  0  0  0  1  0  0  0  0  0  0
  -25.4430  -36.3730   23.9200 C   0  0  0  0  0  3  0  0  0  0  0  0
  -27.6020  -37.2690   24.6770 C   0  0  0  0  0  1  0  0  0  0  0  0
  -26.4680  -37.4310   23.7710 N   0  0  0  0  0  0  0  0  0  0  0  0
  -26.0630  -38.3500   23.9310 H   0  0  0  0  0  0  0  0  0  0  0  0
  1  5  1  0
  3  1  2  0
  3  6  1  0
  4  2  1  0
  5  2  2  0
  6  4  2  0
  7  5  1  0
  7  8  2  0
  9  8  1  0
 10 15  1  0
 11 12  1  0
 11 10  1  0
 13 12  1  0
 13 20  1  0
 13 14  1  0
 15  9  1  0
 15 14  1  0
 16  9  2  0
 17 18  2  0
 18 37  1  0
 19 18  1  0
 19 22  1  0
 20 21  1  0
 20 17  1  0
 21 19  2  0
 22 23  1  0
 23 24  2  0
 25 28  1  0
 25 24  1  0
 26 25  2  0
 27 26  1  0
 27 22  2  0
 28 29  1  0
 29 30  1  0
 30 31  2  0
 32 31  1  0
 32 36  1  0
 33 32  2  0
 34 29  2  0
 34 33  1  0
 35 34  1  0
 37 38  1  0
 38 41  1  0
 38 40  1  0
 39 37  2  0
 42 43  1  0
 42 17  1  0
 44 42  1  0
 45  6  1  0
 45 46  1  0
 47 58  2  0
 48 46  1  0
 48 53  1  0
 49 57  1  0
 49 59  1  0
 50 56  1  0
 50 52  1  0
 51 57  1  0
 52 51  1  0
 53 52  2  0
 54 48  2  0
 55 54  1  0
 55 50  2  0
 56 49  1  0
 57 47  1  0
 59 61  2  0
 60 59  1  0
 62 60  1  0
 63 72  2  0
 63 68  1  0
 64 60  1  0
 64 68  1  0
 65 64  1  0
 66 67  1  0
 66 65  1  0
 67 63  1  0
 68 69  2  0
 69 70  1  0
 71 70  2  0
 72 71  1  0
 73 47  1  0
 73 78  1  0
 73 74  1  0
 74 77  1  1
 74 75  1  0
 76 74  1  0
 78 81  1  0
 79 83  1  0
 79 78  1  0
 80 79  2  0
 83 82  1  0
 85 83  1  0
 85 86  1  0
 85 84  1  0
M  ISO  4   8 100   9 100  45 101  46 101
M  END
>  <TORSDO>  (55) 
F 19

>  <SCORE>  (55) 
-16.177

>  <name>  (55) 
54

>  <ligand_id>  (55) 
54

>  <original_smiles>  (55) 
[H]c1c([H])c([H])c2c(c1[H])C([H])([H])C([H])([H])C([H])([H])C2([H])N([H])C(=O)C1([H])N(C(=O)C([H])(N([H])C(=O)C([H])(N([H])C([H])([H])[H])C([H])([H])[H])C(C([H])([H])[H])(C([H])([H])[H])C([H])([H])[H])C([H])([H])c2c([H])c(OC([H])([H])c3c([H])c([H])c(C([H])([H])C([H])([H])C(=O)N4C([H])([H])C([H])([H])C([H])([H])C([H])(n5nc(-c6c([H])c([H])c(Oc7c([H])c([H])c(F)c([H])c7F)c([H])c6[H])c(C(=O)N([H])[H])c5N([H])[H])C4([H])[H])c([H])c3[H])c([H])c([H])c2C1([H])[H]

>  <smiles>  (55) 
[H]c1c([H])c([H])c2c(c1[H])C([H])([H])C([H])([H])C([H])([H])C2([H])N([H])C(=O)C1([H])N(C(=O)C([H])(N([H])C(=O)C([H])(N([H])C([H])([H])[H])C([H])([H])[H])C(C([H])([H])[H])(C([H])([H])[H])C([H])([H])[H])C([H])([H])c2c([H])c(OC([H])([H])c3c([H])c([H])c(C([H])([H])C([H])([H])C(=O)N4C([H])([H])C([H])([H])C([H])([H])C([H])(n5nc(-c6c([H])c([H])c(Oc7c([H])c([H])c(F)c([H])c7F)c([H])c6[H])c(C(=O)N([H])[H])c5N([H])[H])C4([H])[H])c([H])c3[H])c([H])c([H])c2C1([H])[H]

$$$$
55:0:0
     RDKit          3D

 90 97  0  0  1  0  0  0  0  0999 V2000
  -29.4180  -22.8750   19.9820 C   0  0  0  0  0  0  0  0  0  0  0  0
  -30.8380  -23.2610   20.3820 C   0  0  0  0  0  1  0  0  0  0  0  0
  -29.0140  -21.6470   19.8930 N   0  0  0  0  0  0  0  0  0  0  0  0
  -28.5410  -24.1060   19.6220 C   0  0  0  0  0  2  0  0  0  0  0  0
  -28.3990  -25.2110   20.7230 C   0  0  0  0  0  2  0  0  0  0  0  0
  -28.4410  -26.5810   20.2440 O   0  0  0  0  0  0  0  0  0  0  0  0
  -24.6150  -31.8400   23.2410 C   0  0  0  0  0  0  0  0  0  0  0  0
  -27.2690  -27.3180   20.2580 C   0  0  0  0  0  0  0  0  0  0  0  0
  -23.4190  -30.4290   21.6010 C   0  0  0  0  0  3  0  0  0  0  0  0
  -24.8800  -28.8520   20.2220 C   0  0  0  0  0  0  0  0  0  0  0  0
  -25.9510  -30.7610   21.4260 C   0  0  0  0  0  2  0  0  0  0  0  0
  -26.0380  -29.3760   20.8110 C   0  0  0  0  0  0  0  0  0  0  0  0
  -27.2370  -28.6210   20.8180 C   0  0  0  0  0  3  0  0  0  0  0  0
  -26.0940  -26.8110   19.6640 C   0  0  0  0  0  3  0  0  0  0  0  0
  -24.9050  -27.5680   19.6470 C   0  0  0  0  0  3  0  0  0  0  0  0
  -23.6420  -29.7230   20.2360 C   0  0  0  0  0  2  0  0  0  0  0  0
  -24.6810  -31.0260   22.1480 N   0  0  0  0  0  0  0  0  0  0  0  0
  -23.5300  -32.1300   23.7620 O   0  0  0  0  0  0  0  0  0  0  0  0
  -22.7450  -29.4300   22.5650 C   0  0  0  0  0  0  0  0  0  0  0  0
  -21.4180  -29.2640   22.4280 N   0  0  0  0  0  0  0  0  0  0  0  0
  -23.4140  -28.8000   23.3890 O   0  0  0  0  0  0  0  0  0  0  0  0
  -20.9390  -29.8200   21.7320 H   0  0  0  0  0  0  0  0  0  0  0  0
  -18.0260  -28.1220   22.9210 C   0  0  0  0  0  0  0  0  0  0  0  0
  -20.5860  -28.3420   23.2020 C   0  0  0  0  0  3  0  0  0  0  0  0
  -20.6680  -26.9060   22.6360 C   0  0  0  0  0  2  0  0  0  0  0  0
  -19.5670  -26.5950   21.6180 C   0  0  0  0  0  2  0  0  0  0  0  0
  -18.1840  -26.7650   22.2530 C   0  0  0  0  0  2  0  0  0  0  0  0
  -19.1550  -28.8670   23.3530 C   0  0  0  0  0  0  0  0  0  0  0  0
  -18.9520  -30.1370   23.9350 C   0  0  0  0  0  3  0  0  0  0  0  0
  -17.6540  -30.6610   24.0910 C   0  0  0  0  0  3  0  0  0  0  0  0
  -16.5400  -29.9110   23.6750 C   0  0  0  0  0  3  0  0  0  0  0  0
  -16.7270  -28.6450   23.0940 C   0  0  0  0  0  3  0  0  0  0  0  0
  -25.8980  -32.4680   23.8690 C   0  0  0  0  0  3  0  0  0  0  0  0
  -25.5910  -33.8660   24.2040 N   0  0  0  0  0  0  0  0  0  0  0  0
  -25.9250  -34.9200   23.4470 C   0  0  0  0  0  0  0  0  0  0  0  0
  -26.5970  -34.8180   22.4170 O   0  0  0  0  0  0  0  0  0  0  0  0
  -24.9920  -34.0200   25.0010 H   0  0  0  0  0  0  0  0  0  0  0  0
  -24.2030  -36.7190   23.0890 C   0  0  0  0  0  1  0  0  0  0  0  0
  -25.4370  -36.3070   23.9060 C   0  0  0  0  0  3  0  0  0  0  0  0
  -27.5720  -37.1820   24.7530 C   0  0  0  0  0  1  0  0  0  0  0  0
  -26.4740  -37.3590   23.8050 N   0  0  0  0  0  0  0  0  0  0  0  0
  -26.0690  -38.2780   23.9560 H   0  0  0  0  0  0  0  0  0  0  0  0
  -26.4130  -31.6900   25.1430 C   0  0  1  0  0  0  0  0  0  0  0  0
  -25.3150  -31.4410   26.2020 C   0  0  0  0  0  1  0  0  0  0  0  0
  -27.0030  -30.3160   24.7430 C   0  0  0  0  0  1  0  0  0  0  0  0
  -27.5580  -32.4840   25.8160 C   0  0  0  0  0  1  0  0  0  0  0  0
  -29.9750  -20.5400   20.0990 C   0  0  0  0  0  2  0  0  0  0  0  0
  -29.3540  -19.1080   20.0190 C   0  0  0  0  0  2  0  0  0  0  0  0
  -30.4290  -17.9830   20.2030 C   0  0  0  0  0  2  0  0  0  0  0  0
  -28.7300  -16.2560   21.0120 C   0  0  0  0  0  1  0  0  0  0  0  0
  -30.0160  -16.4560   20.1830 C   0  0  0  0  0  3  0  0  0  0  0  0
  -32.5740  -16.1050   20.4840 C   0  0  0  0  0  1  0  0  0  0  0  0
  -31.1880  -14.8430   21.9910 C   0  0  0  0  0  1  0  0  0  0  0  0
  -31.1800  -15.3940   20.5260 C   0  0  1  0  0  0  0  0  0  0  0  0
  -31.2550  -14.1990   19.4870 C   0  0  0  0  0  0  0  0  0  0  0  0
  -30.6550  -11.9710   18.5620 C   0  0  0  0  0  2  0  0  0  0  0  0
  -29.6090  -12.0750   17.4340 C   0  0  0  0  0  2  0  0  0  0  0  0
  -28.1880  -12.0330   18.0220 C   0  0  0  0  0  2  0  0  0  0  0  0
  -28.0120  -13.0430   19.1820 C   0  0  0  0  0  3  0  0  0  0  0  0
  -29.1630  -12.9330   20.2030 C   0  0  0  0  0  2  0  0  0  0  0  0
  -30.4480  -13.0910   19.5040 N   0  0  0  0  0  0  0  0  0  0  0  0
  -32.1540  -14.2690   18.6430 O   0  0  0  0  0  0  0  0  0  0  0  0
  -25.8080  -13.8700   20.2250 C   0  0  0  0  0  0  0  0  0  0  0  0
  -24.7160  -13.2010   20.7050 C   0  0  0  0  0  0  0  0  0  0  0  0
  -25.0120  -11.8090   20.5710 C   0  0  0  0  0  0  0  0  0  0  0  0
  -26.7080  -12.8930   19.8290 N   0  0  0  0  0  0  0  0  0  0  0  0
  -26.2400  -11.6440   20.0950 N   0  0  0  0  0  0  0  0  0  0  0  0
  -24.1770  -10.6270   20.8150 C   0  0  0  0  0  0  0  0  0  0  0  0
  -24.5780   -9.6090   21.7080 C   0  0  0  0  0  3  0  0  0  0  0  0
  -23.7500   -8.4900   21.9380 C   0  0  0  0  0  3  0  0  0  0  0  0
  -22.5040   -8.3810   21.2760 C   0  0  0  0  0  0  0  0  0  0  0  0
  -22.1180   -9.3860   20.3720 C   0  0  0  0  0  3  0  0  0  0  0  0
  -22.9460  -10.4970   20.1400 C   0  0  0  0  0  3  0  0  0  0  0  0
  -21.6450   -7.3170   21.4190 O   0  0  0  0  0  0  0  0  0  0  0  0
  -21.5820   -6.5940   22.5830 C   0  0  0  0  0  0  0  0  0  0  0  0
  -21.2750   -7.2000   23.8210 C   0  0  0  0  0  3  0  0  0  0  0  0
  -21.1500   -6.4100   24.9810 C   0  0  0  0  0  3  0  0  0  0  0  0
  -21.3230   -5.0150   24.9040 C   0  0  0  0  0  0  0  0  0  0  0  0
  -21.6240   -4.4090   23.6720 C   0  0  0  0  0  3  0  0  0  0  0  0
  -21.7500   -5.1960   22.5140 C   0  0  0  0  0  0  0  0  0  0  0  0
  -22.0190   -4.6040   21.3260 F   0  0  0  0  0  0  0  0  0  0  0  0
  -21.1960   -4.2540   26.0170 F   0  0  0  0  0  0  0  0  0  0  0  0
  -23.4270  -13.8140   21.1740 C   0  0  0  0  0  0  0  0  0  0  0  0
  -22.7580  -13.1800   22.1310 N   0  0  0  0  0  0  0  0  0  0  0  0
  -23.0300  -14.8880   20.7240 O   0  0  0  0  0  0  0  0  0  0  0  0
  -23.0930  -12.3090   22.5140 H   0  0  0  0  0  0  0  0  0  0  0  0
  -21.8990  -13.5730   22.4870 H   0  0  0  0  0  0  0  0  0  0  0  0
  -26.1030  -15.2220   20.0740 N   0  0  0  0  0  0  0  0  0  0  0  0
  -25.4410  -15.9480   20.3230 H   0  0  0  0  0  0  0  0  0  0  0  0
  -26.9620  -15.5850   19.6830 H   0  0  0  0  0  0  0  0  0  0  0  0
  1  2  1  0
  3  1  2  0
  3 47  1  0
  4  1  1  0
  4  5  1  0
  6  8  1  0
  6  5  1  0
  7 18  2  0
  8 13  1  0
  9 17  1  0
  9 19  1  0
 10 16  1  0
 10 12  1  0
 11 17  1  0
 12 13  2  0
 12 11  1  0
 14  8  2  0
 15 14  1  0
 15 10  2  0
 16  9  1  0
 17  7  1  0
 19 21  2  0
 20 19  1  0
 22 20  1  0
 23 32  2  0
 23 28  1  0
 24 20  1  0
 24 28  1  0
 25 24  1  0
 26 27  1  0
 26 25  1  0
 27 23  1  0
 28 29  2  0
 29 30  1  0
 31 30  2  0
 32 31  1  0
 33  7  1  0
 33 34  1  0
 33 43  1  0
 34 37  1  0
 35 39  1  0
 35 34  1  0
 36 35  2  0
 39 38  1  0
 41 39  1  0
 41 42  1  0
 41 40  1  0
 43 46  1  1
 43 44  1  0
 45 43  1  0
 48 47  1  0
 48 49  1  0
 51 49  1  0
 51 54  1  0
 51 50  1  0
 54 52  1  1
 54 53  1  0
 55 61  1  0
 55 54  1  0
 56 61  1  0
 57 58  1  0
 57 56  1  0
 59 58  1  0
 59 66  1  0
 59 60  1  0
 61 60  1  0
 62 55  2  0
 63 64  2  0
 64 83  1  0
 65 64  1  0
 65 68  1  0
 66 67  1  0
 66 63  1  0
 67 65  2  0
 68 69  1  0
 69 70  2  0
 71 74  1  0
 71 70  1  0
 72 71  2  0
 73 72  1  0
 73 68  2  0
 74 75  1  0
 75 76  1  0
 76 77  2  0
 78 77  1  0
 78 82  1  0
 79 78  2  0
 80 75  2  0
 80 79  1  0
 81 80  1  0
 83 84  1  0
 84 87  1  0
 84 86  1  0
 85 83  2  0
 88 63  1  0
 88 89  1  0
 90 88  1  0
M  ISO  4   5 101   6 101  54 100  55 100
M  END
>  <TORSDO>  (56) 
F 23

>  <SCORE>  (56) 
-11.520

>  <name>  (56) 
55

>  <ligand_id>  (56) 
55

>  <original_smiles>  (56) 
[H]c1c([H])c([H])c2c(c1[H])C([H])([H])C([H])([H])C([H])([H])C2([H])N([H])C(=O)C1([H])N(C(=O)C([H])(N([H])C(=O)C([H])(N([H])C([H])([H])[H])C([H])([H])[H])C(C([H])([H])[H])(C([H])([H])[H])C([H])([H])[H])C([H])([H])c2c([H])c(OC([H])([H])C([H])([H])C(=NC([H])([H])C([H])([H])C([H])([H])C([H])(C([H])([H])[H])C(C(=O)N3C([H])([H])C([H])([H])C([H])([H])C([H])(n4nc(-c5c([H])c([H])c(Oc6c([H])c([H])c(F)c([H])c6F)c([H])c5[H])c(C(=O)N([H])[H])c4N([H])[H])C3([H])[H])(C([H])([H])[H])C([H])([H])[H])C([H])([H])[H])c([H])c([H])c2C1([H])[H]

>  <smiles>  (56) 
[H]c1c([H])c([H])c2c(c1[H])C([H])([H])C([H])([H])C([H])([H])C2([H])N([H])C(=O)C1([H])N(C(=O)C([H])(N([H])C(=O)C([H])(N([H])C([H])([H])[H])C([H])([H])[H])C(C([H])([H])[H])(C([H])([H])[H])C([H])([H])[H])C([H])([H])c2c([H])c(OC([H])([H])C([H])([H])C(=NC([H])([H])C([H])([H])C([H])([H])C([H])(C([H])([H])[H])C(C(=O)N3C([H])([H])C([H])([H])C([H])([H])C([H])(n4nc(-c5c([H])c([H])c(Oc6c([H])c([H])c(F)c([H])c6F)c([H])c5[H])c(C(=O)N([H])[H])c4N([H])[H])C3([H])[H])(C([H])([H])[H])C([H])([H])[H])C([H])([H])[H])c([H])c([H])c2C1([H])[H]

$$$$
56:0:0
     RDKit          3D

 89 97  0  0  1  0  0  0  0  0999 V2000
  -28.9180  -20.6660   19.5940 C   0  0  0  0  0  2  0  0  0  0  0  0
  -29.9020  -18.2320   20.2020 C   0  0  0  0  0  3  0  0  0  0  0  0
  -31.3650  -18.6370   20.1040 C   0  0  0  0  0  2  0  0  0  0  0  0
  -30.3620  -16.6880   22.1600 C   0  0  0  0  0  2  0  0  0  0  0  0
  -31.8130  -17.2340   22.2270 C   0  0  0  0  0  2  0  0  0  0  0  0
  -29.8210  -16.6200   20.7100 C   0  0  0  0  0  3  0  0  0  0  0  0
  -31.9790  -18.6100   21.5290 C   0  0  0  0  0  3  0  0  0  0  0  0
  -33.4490  -19.0450   21.5170 C   0  0  0  0  0  1  0  0  0  0  0  0
  -28.9350  -19.1860   20.1780 N   0  0  0  0  0  2  0  0  0  0  0  0
  -30.5670  -15.2720   20.0340 C   0  0  0  0  0  0  0  0  0  0  0  0
  -30.4570  -12.9430   18.9940 C   0  0  0  0  0  2  0  0  0  0  0  0
  -29.4640  -12.9190   17.8090 C   0  0  0  0  0  2  0  0  0  0  0  0
  -28.0240  -12.6790   18.3030 C   0  0  0  0  0  2  0  0  0  0  0  0
  -27.6680  -13.5600   19.5280 C   0  0  0  0  0  3  0  0  0  0  0  0
  -28.7730  -13.5330   20.6020 C   0  0  0  0  0  2  0  0  0  0  0  0
  -30.0120  -13.9900   19.9610 N   0  0  0  0  0  0  0  0  0  0  0  0
  -31.7030  -15.3750   19.5520 O   0  0  0  0  0  0  0  0  0  0  0  0
  -25.3180  -14.0950   20.3960 C   0  0  0  0  0  0  0  0  0  0  0  0
  -24.2790  -13.2980   20.7970 C   0  0  0  0  0  0  0  0  0  0  0  0
  -24.7520  -11.9540   20.7020 C   0  0  0  0  0  0  0  0  0  0  0  0
  -26.3550  -13.2350   20.0770 N   0  0  0  0  0  0  0  0  0  0  0  0
  -26.0270  -11.9400   20.3260 N   0  0  0  0  0  0  0  0  0  0  0  0
  -24.0450  -10.6800   20.8950 C   0  0  0  0  0  0  0  0  0  0  0  0
  -24.4610   -9.7440   21.8670 C   0  0  0  0  0  3  0  0  0  0  0  0
  -23.7530   -8.5360   22.0460 C   0  0  0  0  0  3  0  0  0  0  0  0
  -22.6160   -8.2540   21.2520 C   0  0  0  0  0  0  0  0  0  0  0  0
  -22.2210   -9.1790   20.2690 C   0  0  0  0  0  3  0  0  0  0  0  0
  -22.9290  -10.3790   20.0890 C   0  0  0  0  0  3  0  0  0  0  0  0
  -21.8850   -7.0940   21.3370 O   0  0  0  0  0  0  0  0  0  0  0  0
  -21.7050   -6.4430   22.5320 C   0  0  0  0  0  0  0  0  0  0  0  0
  -21.0840   -7.0670   23.6350 C   0  0  0  0  0  3  0  0  0  0  0  0
  -20.8540   -6.3370   24.8190 C   0  0  0  0  0  3  0  0  0  0  0  0
  -21.2380   -4.9850   24.9010 C   0  0  0  0  0  0  0  0  0  0  0  0
  -21.8530   -4.3610   23.8010 C   0  0  0  0  0  3  0  0  0  0  0  0
  -22.0830   -5.0870   22.6190 C   0  0  0  0  0  0  0  0  0  0  0  0
  -22.6540   -4.4730   21.5550 F   0  0  0  0  0  0  0  0  0  0  0  0
  -21.0110   -4.2830   26.0360 F   0  0  0  0  0  0  0  0  0  0  0  0
  -22.8930  -13.7560   21.1510 C   0  0  0  0  0  0  0  0  0  0  0  0
  -22.2200  -13.0390   22.0450 N   0  0  0  0  0  0  0  0  0  0  0  0
  -22.4190  -14.7850   20.6720 O   0  0  0  0  0  0  0  0  0  0  0  0
  -22.6180  -12.2080   22.4580 H   0  0  0  0  0  0  0  0  0  0  0  0
  -21.2920  -13.3260   22.3230 H   0  0  0  0  0  0  0  0  0  0  0  0
  -25.4610  -15.4710   20.2490 N   0  0  0  0  0  0  0  0  0  0  0  0
  -24.6990  -16.1170   20.4260 H   0  0  0  0  0  0  0  0  0  0  0  0
  -26.2860  -15.9280   19.8860 H   0  0  0  0  0  0  0  0  0  0  0  0
  -28.7340  -22.0940   20.4720 C   0  0  0  0  0  2  0  0  0  0  0  0
  -27.8170  -23.4910   20.1480 C   0  0  0  0  0  2  0  0  0  0  0  0
  -28.2270  -24.9940   19.5070 C   0  0  0  0  0  2  0  0  0  0  0  0
  -28.0600  -26.4470   20.0380 O   0  0  0  0  0  0  0  0  0  0  0  0
  -24.4900  -31.9960   23.1870 C   0  0  0  0  0  0  0  0  0  0  0  0
  -26.9580  -27.3670   19.9600 C   0  0  0  0  0  0  0  0  0  0  0  0
  -23.2180  -30.6180   21.5800 C   0  0  0  0  0  3  0  0  0  0  0  0
  -24.6070  -29.0750   20.0540 C   0  0  0  0  0  0  0  0  0  0  0  0
  -25.7520  -30.9140   21.2930 C   0  0  0  0  0  2  0  0  0  0  0  0
  -25.8040  -29.5320   20.6170 C   0  0  0  0  0  0  0  0  0  0  0  0
  -26.9730  -28.6910   20.5530 C   0  0  0  0  0  3  0  0  0  0  0  0
  -25.7360  -26.9990   19.3600 C   0  0  0  0  0  3  0  0  0  0  0  0
  -24.5850  -27.8240   19.4100 C   0  0  0  0  0  3  0  0  0  0  0  0
  -23.3740  -29.9590   20.1790 C   0  0  0  0  0  2  0  0  0  0  0  0
  -24.5090  -31.1980   22.0760 N   0  0  0  0  0  0  0  0  0  0  0  0
  -23.4300  -32.2630   23.7750 O   0  0  0  0  0  0  0  0  0  0  0  0
  -22.5930  -29.5950   22.5590 C   0  0  0  0  0  0  0  0  0  0  0  0
  -21.2700  -29.3740   22.4560 N   0  0  0  0  0  0  0  0  0  0  0  0
  -23.3030  -28.9990   23.3740 O   0  0  0  0  0  0  0  0  0  0  0  0
  -20.7560  -29.9080   21.7690 H   0  0  0  0  0  0  0  0  0  0  0  0
  -17.9540  -28.0200   22.9770 C   0  0  0  0  0  0  0  0  0  0  0  0
  -20.4970  -28.4120   23.2440 C   0  0  0  0  0  3  0  0  0  0  0  0
  -20.6710  -26.9770   22.6940 C   0  0  0  0  0  2  0  0  0  0  0  0
  -19.5880  -26.5830   21.6830 C   0  0  0  0  0  2  0  0  0  0  0  0
  -18.1990  -26.6700   22.3230 C   0  0  0  0  0  2  0  0  0  0  0  0
  -19.0320  -28.8440   23.3950 C   0  0  0  0  0  0  0  0  0  0  0  0
  -18.7490  -30.1030   23.9670 C   0  0  0  0  0  3  0  0  0  0  0  0
  -17.4200  -30.5390   24.1240 C   0  0  0  0  0  3  0  0  0  0  0  0
  -16.3570  -29.7130   23.7230 C   0  0  0  0  0  3  0  0  0  0  0  0
  -16.6240  -28.4540   23.1550 C   0  0  0  0  0  3  0  0  0  0  0  0
  -25.7950  -32.6270   23.7640 C   0  0  0  0  0  3  0  0  0  0  0  0
  -26.3650  -31.8430   25.0110 C   0  0  1  0  0  0  0  0  0  0  0  0
  -25.3140  -31.5810   26.1150 C   0  0  0  0  0  1  0  0  0  0  0  0
  -26.9480  -30.4760   24.5810 C   0  0  0  0  0  1  0  0  0  0  0  0
  -27.5320  -32.6390   25.6420 C   0  0  0  0  0  1  0  0  0  0  0  0
  -25.4980  -34.0200   24.1290 N   0  0  0  0  0  0  0  0  0  0  0  0
  -25.8080  -35.0880   23.3820 C   0  0  0  0  0  0  0  0  0  0  0  0
  -26.4400  -35.0030   22.3250 O   0  0  0  0  0  0  0  0  0  0  0  0
  -24.9350  -34.1570   24.9560 H   0  0  0  0  0  0  0  0  0  0  0  0
  -24.0820  -36.8990   23.1170 C   0  0  0  0  0  1  0  0  0  0  0  0
  -25.3420  -36.4700   23.8850 C   0  0  0  0  0  3  0  0  0  0  0  0
  -27.4990  -37.3290   24.6810 C   0  0  0  0  0  1  0  0  0  0  0  0
  -26.3760  -37.5190   23.7680 N   0  0  0  0  0  0  0  0  0  0  0  0
  -25.9800  -38.4380   23.9400 H   0  0  0  0  0  0  0  0  0  0  0  0
  1  9  1  0
  1 46  1  0
  2  9  1  0
  2  6  1  0
  3  2  1  0
  3  7  1  0
  4  5  1  0
  6 10  1  0
  6  4  1  0
  7  8  1  0
  7  5  1  0
 11 16  1  0
 12 13  1  0
 12 11  1  0
 14 13  1  0
 14 21  1  0
 14 15  1  0
 16 10  1  0
 16 15  1  0
 17 10  2  0
 18 19  2  0
 19 38  1  0
 20 19  1  0
 20 23  1  0
 21 22  1  0
 21 18  1  0
 22 20  2  0
 23 24  1  0
 24 25  2  0
 26 29  1  0
 26 25  1  0
 27 26  2  0
 28 27  1  0
 28 23  2  0
 29 30  1  0
 30 35  2  0
 30 31  1  0
 31 32  2  0
 32 33  1  0
 33 37  1  0
 34 33  2  0
 35 34  1  0
 36 35  1  0
 38 39  1  0
 39 42  1  0
 39 41  1  0
 40 38  2  0
 43 18  1  0
 43 44  1  0
 45 43  1  0
 47 46  1  0
 48 49  1  0
 48 47  1  0
 50 61  2  0
 51 49  1  0
 51 56  1  0
 52 60  1  0
 52 62  1  0
 53 59  1  0
 53 55  1  0
 54 60  1  0
 55 54  1  0
 56 55  2  0
 57 58  1  0
 57 51  2  0
 58 53  2  0
 59 52  1  0
 60 50  1  0
 62 64  2  0
 63 62  1  0
 65 63  1  0
 66 75  2  0
 66 71  1  0
 67 63  1  0
 67 71  1  0
 68 67  1  0
 69 70  1  0
 69 68  1  0
 70 66  1  0
 71 72  2  0
 72 73  1  0
 74 73  2  0
 75 74  1  0
 76 50  1  0
 76 81  1  0
 76 77  1  0
 77 80  1  1
 77 78  1  0
 79 77  1  0
 81 84  1  0
 82 86  1  0
 82 81  1  0
 83 82  2  0
 86 85  1  0
 88 86  1  0
 88 89  1  0
 88 87  1  0
M  ISO  4   6 100  10 100  48 101  49 101
M  END
>  <TORSDO>  (57) 
F 20

>  <SCORE>  (57) 
-13.240

>  <name>  (57) 
56

>  <ligand_id>  (57) 
56

>  <original_smiles>  (57) 
[H]c1c([H])c([H])c2c(c1[H])C([H])([H])C([H])([H])C([H])([H])C2([H])N([H])C(=O)C1([H])N(C(=O)C([H])(N([H])C(=O)C([H])(N([H])C([H])([H])[H])C([H])([H])[H])C(C([H])([H])[H])(C([H])([H])[H])C([H])([H])[H])C([H])([H])c2c([H])c(OC([H])([H])C([H])([H])C([H])([H])C([H])([H])N=C3C([H])([H])C([H])(C([H])([H])[H])C([H])([H])C([H])([H])C3([H])C(=O)N3C([H])([H])C([H])([H])C([H])([H])C([H])(n4nc(-c5c([H])c([H])c(Oc6c([H])c([H])c(F)c([H])c6F)c([H])c5[H])c(C(=O)N([H])[H])c4N([H])[H])C3([H])[H])c([H])c([H])c2C1([H])[H]

>  <smiles>  (57) 
[H]c1c([H])c([H])c2c(c1[H])C([H])([H])C([H])([H])C([H])([H])C2([H])N([H])C(=O)C1([H])N(C(=O)C([H])(N([H])C(=O)C([H])(N([H])C([H])([H])[H])C([H])([H])[H])C(C([H])([H])[H])(C([H])([H])[H])C([H])([H])[H])C([H])([H])c2c([H])c(OC([H])([H])C([H])([H])C([H])([H])C([H])([H])N=C3C([H])([H])C([H])(C([H])([H])[H])C([H])([H])C([H])([H])C3([H])C(=O)N3C([H])([H])C([H])([H])C([H])([H])C([H])(n4nc(-c5c([H])c([H])c(Oc6c([H])c([H])c(F)c([H])c6F)c([H])c5[H])c(C(=O)N([H])[H])c4N([H])[H])C3([H])[H])c([H])c([H])c2C1([H])[H]

$$$$
57:0:0
     RDKit          3D

 96102  0  0  1  0  0  0  0  0999 V2000
  -30.9950  -18.4950   18.7250 C   0  0  0  0  0  3  0  0  0  0  0  0
  -30.1330  -17.3030   18.4810 N   0  0  0  0  0  4  0  0  0  0  0  0
  -29.2020  -17.6880   18.3480 H   0  0  0  0  0  0  0  0  0  0  0  0
  -30.3850  -16.9240   17.5760 H   0  0  0  0  0  0  0  0  0  0  0  0
  -28.9490  -15.1980   18.6550 C   0  0  0  0  0  1  0  0  0  0  0  0
  -29.9630  -16.1240   19.4020 C   0  0  0  0  0  3  0  0  0  0  0  0
  -29.9890  -16.2800   21.0160 C   0  0  0  0  0  2  0  0  0  0  0  0
  -30.8640  -15.2440   21.9150 C   0  0  0  0  0  0  0  0  0  0  0  0
  -32.2570  -11.6160   20.6580 C   0  0  0  0  0  1  0  0  0  0  0  0
  -30.9420  -10.2020   20.3870 C   0  0  0  0  0  3  0  0  0  0  0  0
  -29.0760  -10.5100   20.7810 C   0  0  0  0  0  3  0  0  0  0  0  0
  -28.2700  -12.1510   21.2480 C   0  0  0  0  0  3  0  0  0  0  0  0
  -29.0430  -13.5630   22.0030 C   0  0  0  0  0  2  0  0  0  0  0  0
  -30.7040  -13.9400   21.6790 N   0  0  0  0  0  2  0  0  0  0  0  0
  -31.8840  -15.5930   22.5070 O   0  0  0  0  0  0  0  0  0  0  0  0
  -26.0000  -13.2730   20.9540 C   0  0  0  0  0  0  0  0  0  0  0  0
  -24.7850  -12.6970   20.8510 C   0  0  0  0  0  0  0  0  0  0  0  0
  -25.0090  -11.3360   21.1960 C   0  0  0  0  0  0  0  0  0  0  0  0
  -26.8710  -12.2320   21.2830 N   0  0  0  0  0  0  0  0  0  0  0  0
  -26.2630  -11.0750   21.4710 N   0  0  0  0  0  0  0  0  0  0  0  0
  -24.1180  -10.2230   21.2400 C   0  0  0  0  0  0  0  0  0  0  0  0
  -24.1450   -9.3590   22.3540 C   0  0  0  0  0  3  0  0  0  0  0  0
  -23.2790   -8.2610   22.3840 C   0  0  0  0  0  3  0  0  0  0  0  0
  -22.3830   -8.0490   21.3080 C   0  0  0  0  0  0  0  0  0  0  0  0
  -22.3900   -8.9100   20.2010 C   0  0  0  0  0  3  0  0  0  0  0  0
  -23.2590   -9.9990   20.1610 C   0  0  0  0  0  3  0  0  0  0  0  0
  -21.5010   -7.0020   21.2620 O   0  0  0  0  0  0  0  0  0  0  0  0
  -21.1870   -6.3020   22.3910 C   0  0  0  0  0  0  0  0  0  0  0  0
  -20.5200   -6.9000   23.4860 C   0  0  0  0  0  3  0  0  0  0  0  0
  -20.1460   -6.1120   24.5970 C   0  0  0  0  0  3  0  0  0  0  0  0
  -20.4340   -4.7340   24.6040 C   0  0  0  0  0  0  0  0  0  0  0  0
  -21.0980   -4.1400   23.5180 C   0  0  0  0  0  3  0  0  0  0  0  0
  -21.4720   -4.9240   22.4150 C   0  0  0  0  0  0  0  0  0  0  0  0
  -22.0960   -4.3490   21.3570 F   0  0  0  0  0  0  0  0  0  0  0  0
  -20.0650   -3.9750   25.6650 F   0  0  0  0  0  0  0  0  0  0  0  0
  -23.5290  -13.3660   20.4070 C   0  0  0  0  0  0  0  0  0  0  0  0
  -22.4100  -12.9640   20.9950 N   0  0  0  0  0  0  0  0  0  0  0  0
  -23.5270  -14.2840   19.5880 O   0  0  0  0  0  0  0  0  0  0  0  0
  -22.4200  -12.2380   21.6920 H   0  0  0  0  0  0  0  0  0  0  0  0
  -21.5350  -13.3990   20.7420 H   0  0  0  0  0  0  0  0  0  0  0  0
  -26.3760  -14.5710   20.7250 N   0  0  0  0  0  0  0  0  0  0  0  0
  -25.7740  -15.2430   20.2520 H   0  0  0  0  0  0  0  0  0  0  0  0
  -27.3720  -14.7520   20.6590 H   0  0  0  0  0  0  0  0  0  0  0  0
  -32.7520  -18.2200   18.5480 C   0  0  0  0  0  3  0  0  0  0  0  0
  -33.5440  -14.3660   19.9820 C   0  0  0  0  0  1  0  0  0  0  0  0
  -32.8790  -15.6020   19.1720 C   0  0  0  0  0  2  0  0  0  0  0  0
  -35.7460  -14.2980   20.1190 C   0  0  0  0  0  1  0  0  0  0  0  0
  -35.4280  -16.7880   18.5300 C   0  0  0  0  0  3  0  0  0  0  0  0
  -33.7160  -16.8180   18.5820 C   0  0  0  0  0  0  0  0  0  0  0  0
  -36.4540  -15.6540   19.3160 C   0  0  0  0  0  0  0  0  0  0  0  0
  -37.7970  -15.7490   19.1850 F   0  0  0  0  0  0  0  0  0  0  0  0
  -30.1170  -19.4010   19.9380 C   0  0  0  0  0  2  0  0  0  0  0  0
  -29.1920  -20.8950   20.2690 C   0  0  0  0  0  3  0  0  0  0  0  0
  -27.8610  -21.9410   19.7870 C   0  0  0  0  0  3  0  0  0  0  0  0
  -27.2380  -23.4080   20.5580 C   0  0  0  0  0  2  0  0  0  0  0  0
  -27.2960  -25.0120   20.3420 O   0  0  0  0  0  0  0  0  0  0  0  0
  -24.3580  -31.2680   23.4760 C   0  0  0  0  0  0  0  0  0  0  0  0
  -26.2870  -26.0820   20.5000 C   0  0  0  0  0  0  0  0  0  0  0  0
  -22.9610  -29.9910   21.8940 C   0  0  0  0  0  3  0  0  0  0  0  0
  -24.1610  -28.1460   20.5490 C   0  0  0  0  0  0  0  0  0  0  0  0
  -25.5280  -29.8720   21.7090 C   0  0  0  0  0  2  0  0  0  0  0  0
  -25.4090  -28.4470   21.1090 C   0  0  0  0  0  0  0  0  0  0  0  0
  -26.4700  -27.4390   21.0560 C   0  0  0  0  0  3  0  0  0  0  0  0
  -24.9970  -25.8900   19.9620 C   0  0  0  0  0  3  0  0  0  0  0  0
  -23.9720  -26.8730   19.9810 C   0  0  0  0  0  3  0  0  0  0  0  0
  -23.0680  -29.2170   20.5500 C   0  0  0  0  0  2  0  0  0  0  0  0
  -24.3060  -30.4000   22.4140 N   0  0  0  0  0  0  0  0  0  0  0  0
  -23.3290  -31.7260   23.9970 O   0  0  0  0  0  0  0  0  0  0  0  0
  -22.1490  -29.1470   22.9040 C   0  0  0  0  0  0  0  0  0  0  0  0
  -20.8170  -29.0710   22.7230 N   0  0  0  0  0  0  0  0  0  0  0  0
  -22.7280  -28.5500   23.8140 O   0  0  0  0  0  0  0  0  0  0  0  0
  -20.4110  -29.5980   21.9610 H   0  0  0  0  0  0  0  0  0  0  0  0
  -17.3580  -28.0520   23.0660 C   0  0  0  0  0  0  0  0  0  0  0  0
  -19.8930  -28.2650   23.5250 C   0  0  0  0  0  3  0  0  0  0  0  0
  -19.9800  -26.7680   23.1450 C   0  0  0  0  0  2  0  0  0  0  0  0
  -18.9570  -26.3540   22.0830 C   0  0  0  0  0  2  0  0  0  0  0  0
  -17.5320  -26.6250   22.5770 C   0  0  0  0  0  2  0  0  0  0  0  0
  -18.4670  -28.8280   23.4980 C   0  0  0  0  0  0  0  0  0  0  0  0
  -18.2510  -30.1590   23.9150 C   0  0  0  0  0  3  0  0  0  0  0  0
  -16.9580  -30.7140   23.9070 C   0  0  0  0  0  3  0  0  0  0  0  0
  -15.8620  -29.9380   23.4910 C   0  0  0  0  0  3  0  0  0  0  0  0
  -16.0620  -28.6110   23.0750 C   0  0  0  0  0  3  0  0  0  0  0  0
  -25.7190  -31.7480   24.0690 C   0  0  0  0  0  3  0  0  0  0  0  0
  -26.1310  -30.9640   25.3760 C   0  0  1  0  0  0  0  0  0  0  0  0
  -25.0200  -30.9260   26.4510 C   0  0  0  0  0  1  0  0  0  0  0  0
  -26.5190  -29.5040   25.0480 C   0  0  0  0  0  1  0  0  0  0  0  0
  -27.3800  -31.6180   26.0140 C   0  0  0  0  0  1  0  0  0  0  0  0
  -25.6000  -33.1860   24.3620 N   0  0  0  0  0  0  0  0  0  0  0  0
  -26.1440  -34.1670   23.6300 C   0  0  0  0  0  0  0  0  0  0  0  0
  -26.8620  -33.9470   22.6520 O   0  0  0  0  0  0  0  0  0  0  0  0
  -24.9750  -33.4420   25.1120 H   0  0  0  0  0  0  0  0  0  0  0  0
  -24.7870  -36.2290   23.1190 C   0  0  0  0  0  1  0  0  0  0  0  0
  -25.8500  -35.6220   24.0480 C   0  0  0  0  0  3  0  0  0  0  0  0
  -27.9970  -36.1650   25.1150 C   0  0  0  0  0  1  0  0  0  0  0  0
  -27.0480  -36.4910   24.0550 N   0  0  0  0  0  0  0  0  0  0  0  0
  -26.7820  -37.4670   24.1590 H   0  0  0  0  0  0  0  0  0  0  0  0
  1 44  1  0
  1 52  1  0
  2  1  1  0
  2  6  1  0
  3  2  1  0
  4  2  1  0
  6  5  1  0
  6  7  1  0
  7  8  1  0
  8 15  2  0
 10  9  1  0
 10 11  2  0
 12 11  1  0
 12 19  1  0
 12 13  1  0
 14  8  1  0
 14 13  1  0
 16 19  1  0
 17 16  2  0
 17 18  1  0
 18 21  1  0
 18 20  2  0
 19 20  1  0
 21 22  1  0
 22 23  2  0
 24 23  1  0
 25 24  2  0
 26 25  1  0
 26 21  2  0
 27 24  1  0
 27 28  1  0
 28 33  2  0
 28 29  1  0
 29 30  2  0
 30 31  1  0
 31 35  1  0
 32 31  2  0
 33 32  1  0
 34 33  1  0
 36 17  1  0
 36 37  1  0
 37 39  1  0
 38 36  2  0
 40 37  1  0
 41 16  1  0
 42 41  1  0
 43 41  1  0
 44 49  2  0
 46 45  1  0
 48 49  1  0
 48 50  2  0
 49 46  1  0
 50 47  1  0
 51 50  1  0
 52 53  1  0
 54 53  2  0
 54 55  1  0
 56 58  1  0
 56 55  1  0
 57 68  2  0
 58 63  1  0
 59 67  1  0
 59 69  1  0
 60 66  1  0
 60 62  1  0
 61 67  1  0
 62 61  1  0
 63 62  2  0
 64 65  1  0
 64 58  2  0
 65 60  2  0
 66 59  1  0
 67 57  1  0
 69 71  2  0
 70 69  1  0
 72 70  1  0
 73 82  2  0
 73 78  1  0
 74 70  1  0
 75 74  1  0
 76 77  1  0
 76 75  1  0
 77 73  1  0
 78 74  1  0
 78 79  2  0
 80 79  1  0
 81 80  2  0
 82 81  1  0
 83 57  1  0
 83 88  1  0
 83 84  1  0
 84 87  1  1
 84 85  1  0
 86 84  1  0
 88 91  1  0
 89 93  1  0
 89 88  1  0
 90 89  2  0
 93 92  1  0
 93 95  1  0
 95 96  1  0
 95 94  1  0
M  ISO  4   7 100   8 100  55 101  56 101
M  END
>  <TORSDO>  (58) 
F 25

>  <SCORE>  (58) 
-8.461

>  <name>  (58) 
57

>  <ligand_id>  (58) 
57

>  <original_smiles>  (58) 
[H]c1c([H])c([H])c2c(c1[H])C([H])([H])C([H])([H])C([H])([H])C2([H])N([H])C(=O)C1([H])N(C(=O)C([H])(N([H])C(=O)C([H])(N([H])C([H])([H])[H])C([H])([H])[H])C(C([H])([H])[H])(C([H])([H])[H])C([H])([H])[H])C([H])([H])c2c([H])c(OC([H])([H])C([H])([H])C([H])([H])C([H])([H])C([H])(C([H])([H])c3c([H])c([H])c([H])c(F)c3[H])[N+]([H])([H])C([H])(C([H])([H])[H])C([H])([H])C(=O)N3C([H])([H])C([H])([H])C([H])([H])C([H])(n4nc(-c5c([H])c([H])c(Oc6c([H])c([H])c(F)c([H])c6F)c([H])c5[H])c(C(=O)N([H])[H])c4N([H])[H])C3([H])[H])c([H])c([H])c2C1([H])[H]

>  <smiles>  (58) 
[H]c1c([H])c([H])c2c(c1[H])C([H])([H])C([H])([H])C([H])([H])C2([H])N([H])C(=O)C1([H])N(C(=O)C([H])(N([H])C(=O)C([H])(N([H])C([H])([H])[H])C([H])([H])[H])C(C([H])([H])[H])(C([H])([H])[H])C([H])([H])[H])C([H])([H])c2c([H])c(OC([H])([H])C([H])([H])C([H])([H])C([H])([H])C([H])(C([H])([H])c3c([H])c([H])c([H])c(F)c3[H])[N+]([H])([H])C([H])(C([H])([H])[H])C([H])([H])C(=O)N3C([H])([H])C([H])([H])C([H])([H])C([H])(n4nc(-c5c([H])c([H])c(Oc6c([H])c([H])c(F)c([H])c6F)c([H])c5[H])c(C(=O)N([H])[H])c4N([H])[H])C3([H])[H])c([H])c([H])c2C1([H])[H]

$$$$
58:0:0
     RDKit          3D

 97106  0  0  1  0  0  0  0  0999 V2000
  -30.1490  -29.3990   18.3830 C   0  0  0  0  0  2  0  0  0  0  0  0
  -29.0110  -28.5460   17.8100 C   0  0  0  0  0  2  0  0  0  0  0  0
  -31.5130  -28.8630   17.9250 C   0  0  0  0  0  2  0  0  0  0  0  0
  -33.0220  -26.8540   17.6970 C   0  0  0  0  0  2  0  0  0  0  0  0
  -31.9080  -27.2550   19.8790 C   0  0  0  0  0  2  0  0  0  0  0  0
  -30.5190  -26.5320   17.7860 C   0  0  0  0  0  2  0  0  0  0  0  0
  -33.3020  -25.3690   18.0380 C   0  0  0  0  0  2  0  0  0  0  0  0
  -32.6330  -25.9630   20.3510 C   0  0  0  0  0  2  0  0  0  0  0  0
  -29.1220  -27.0310   18.1640 C   0  0  0  0  0  3  0  0  0  0  0  0
  -31.7180  -27.3780   18.3360 C   0  0  1  0  0  0  0  0  0  0  0  0
  -32.6500  -24.9140   19.2990 N   0  0  2  0  0  4  0  0  0  0  0  0
  -31.6790  -24.7900   19.0470 H   0  0  0  0  0  0  0  0  0  0  0  0
  -28.7520  -26.5960   19.5060 O   0  0  0  0  0  0  0  0  0  0  0  0
  -25.0620  -31.4170   23.2010 C   0  0  0  0  0  0  0  0  0  0  0  0
  -27.5390  -27.1270   19.8370 C   0  0  0  0  0  0  0  0  0  0  0  0
  -23.8040  -30.2010   21.4460 C   0  0  0  0  0  3  0  0  0  0  0  0
  -25.1930  -28.6550   19.9710 C   0  0  0  0  0  0  0  0  0  0  0  0
  -26.3390  -30.4270   21.3230 C   0  0  0  0  0  2  0  0  0  0  0  0
  -26.3540  -29.0890   20.6260 C   0  0  0  0  0  0  0  0  0  0  0  0
  -27.5210  -28.3100   20.5950 C   0  0  0  0  0  3  0  0  0  0  0  0
  -26.3600  -26.6580   19.2230 C   0  0  0  0  0  3  0  0  0  0  0  0
  -25.1760  -27.4190   19.2910 C   0  0  0  0  0  3  0  0  0  0  0  0
  -24.0050  -29.5870   20.0320 C   0  0  0  0  0  2  0  0  0  0  0  0
  -25.0830  -30.6910   22.0490 N   0  0  0  0  0  0  0  0  0  0  0  0
  -23.9940  -31.7260   23.7410 O   0  0  0  0  0  0  0  0  0  0  0  0
  -23.0770  -29.1590   22.3240 C   0  0  0  0  0  0  0  0  0  0  0  0
  -21.7420  -29.1040   22.1960 N   0  0  0  0  0  0  0  0  0  0  0  0
  -23.7100  -28.4070   23.0700 O   0  0  0  0  0  0  0  0  0  0  0  0
  -21.3000  -29.7640   21.5700 H   0  0  0  0  0  0  0  0  0  0  0  0
  -18.2770  -28.2220   22.6650 C   0  0  0  0  0  0  0  0  0  0  0  0
  -20.8500  -28.1750   22.8870 C   0  0  0  0  0  3  0  0  0  0  0  0
  -20.7850  -26.8120   22.1600 C   0  0  0  0  0  2  0  0  0  0  0  0
  -19.6360  -26.7180   21.1510 C   0  0  0  0  0  2  0  0  0  0  0  0
  -18.2910  -26.9430   21.8470 C   0  0  0  0  0  2  0  0  0  0  0  0
  -19.4780  -28.8130   23.1380 C   0  0  0  0  0  0  0  0  0  0  0  0
  -19.4080  -30.0290   23.8530 C   0  0  0  0  0  3  0  0  0  0  0  0
  -18.1690  -30.6460   24.1070 C   0  0  0  0  0  3  0  0  0  0  0  0
  -16.9810  -30.0460   23.6490 C   0  0  0  0  0  3  0  0  0  0  0  0
  -17.0380  -28.8370   22.9350 C   0  0  0  0  0  3  0  0  0  0  0  0
  -26.3780  -31.9180   23.8810 C   0  0  0  0  0  3  0  0  0  0  0  0
  -26.1470  -33.2990   24.3170 N   0  0  0  0  0  0  0  0  0  0  0  0
  -26.5580  -34.3840   23.6470 C   0  0  0  0  0  0  0  0  0  0  0  0
  -27.2450  -34.3210   22.6230 O   0  0  0  0  0  0  0  0  0  0  0  0
  -25.5410  -33.4340   25.1130 H   0  0  0  0  0  0  0  0  0  0  0  0
  -24.9430  -36.3000   23.4020 C   0  0  0  0  0  1  0  0  0  0  0  0
  -26.1370  -35.7580   24.2040 C   0  0  0  0  0  3  0  0  0  0  0  0
  -28.2960  -36.4470   25.1490 C   0  0  0  0  0  1  0  0  0  0  0  0
  -27.2280  -36.7560   24.2010 N   0  0  0  0  0  0  0  0  0  0  0  0
  -26.8730  -37.6820   24.4150 H   0  0  0  0  0  0  0  0  0  0  0  0
  -26.8320  -31.0070   25.0880 C   0  0  1  0  0  0  0  0  0  0  0  0
  -25.7110  -30.7500   26.1250 C   0  0  0  0  0  1  0  0  0  0  0  0
  -27.3360  -29.6330   24.5800 C   0  0  0  0  0  1  0  0  0  0  0  0
  -28.0210  -31.6660   25.8230 C   0  0  0  0  0  1  0  0  0  0  0  0
  -33.1230  -23.5770   19.7480 C   0  0  0  0  0  2  0  0  0  0  0  0
  -32.0120  -22.6940   20.3700 C   0  0  0  0  0  2  0  0  0  0  0  0
  -32.4810  -21.2310   20.5710 C   0  0  0  0  0  2  0  0  0  0  0  0
  -31.3640  -20.2330   20.9500 C   0  0  0  0  0  2  0  0  0  0  0  0
  -31.8700  -18.7770   21.0130 C   0  0  0  0  0  2  0  0  0  0  0  0
  -30.7630  -17.7000   20.9870 C   0  0  0  0  0  2  0  0  0  0  0  0
  -31.3190  -16.3120   21.3770 C   0  0  0  0  0  2  0  0  0  0  0  0
  -30.3550  -15.1160   21.1260 C   0  0  0  0  0  2  0  0  0  0  0  0
  -30.8560  -14.0380   20.1340 C   0  0  0  0  0  0  0  0  0  0  0  0
  -30.3830  -11.9900   18.8270 C   0  0  0  0  0  2  0  0  0  0  0  0
  -29.3720  -12.3120   17.7070 C   0  0  0  0  0  2  0  0  0  0  0  0
  -27.9280  -12.1890   18.2360 C   0  0  0  0  0  2  0  0  0  0  0  0
  -27.7120  -12.9660   19.5610 C   0  0  0  0  0  3  0  0  0  0  0  0
  -28.8240  -12.6280   20.5770 C   0  0  0  0  0  2  0  0  0  0  0  0
  -30.1230  -12.9100   19.9450 N   0  0  0  0  0  0  0  0  0  0  0  0
  -31.8850  -14.2550   19.4860 O   0  0  0  0  0  0  0  0  0  0  0  0
  -25.3780  -13.6240   20.4280 C   0  0  0  0  0  0  0  0  0  0  0  0
  -24.3130  -12.8690   20.8520 C   0  0  0  0  0  0  0  0  0  0  0  0
  -24.7380  -11.5100   20.7680 C   0  0  0  0  0  0  0  0  0  0  0  0
  -26.3820  -12.7190   20.1170 N   0  0  0  0  0  0  0  0  0  0  0  0
  -26.0040  -11.4430   20.3770 N   0  0  0  0  0  0  0  0  0  0  0  0
  -23.9960  -10.2600   20.9810 C   0  0  0  0  0  0  0  0  0  0  0  0
  -24.4370   -9.2930   21.9120 C   0  0  0  0  0  3  0  0  0  0  0  0
  -23.7010   -8.1040   22.1130 C   0  0  0  0  0  3  0  0  0  0  0  0
  -22.5090   -7.8760   21.3830 C   0  0  0  0  0  0  0  0  0  0  0  0
  -22.0880   -8.8330   20.4420 C   0  0  0  0  0  3  0  0  0  0  0  0
  -22.8240  -10.0120   20.2400 C   0  0  0  0  0  3  0  0  0  0  0  0
  -21.7440   -6.7410   21.4910 O   0  0  0  0  0  0  0  0  0  0  0  0
  -21.6810   -6.0250   22.6590 C   0  0  0  0  0  0  0  0  0  0  0  0
  -21.2300   -6.6080   23.8650 C   0  0  0  0  0  3  0  0  0  0  0  0
  -21.1160   -5.8190   25.0270 C   0  0  0  0  0  3  0  0  0  0  0  0
  -21.4360   -4.4490   24.9850 C   0  0  0  0  0  0  0  0  0  0  0  0
  -21.8760   -3.8660   23.7830 C   0  0  0  0  0  3  0  0  0  0  0  0
  -21.9930   -4.6520   22.6230 C   0  0  0  0  0  0  0  0  0  0  0  0
  -22.3990   -4.0820   21.4630 F   0  0  0  0  0  0  0  0  0  0  0  0
  -21.3170   -3.6890   26.0970 F   0  0  0  0  0  0  0  0  0  0  0  0
  -22.9490  -13.3750   21.2200 C   0  0  0  0  0  0  0  0  0  0  0  0
  -22.2570  -12.6750   22.1150 N   0  0  0  0  0  0  0  0  0  0  0  0
  -22.5050  -14.4210   20.7530 O   0  0  0  0  0  0  0  0  0  0  0  0
  -22.6230  -11.8230   22.5110 H   0  0  0  0  0  0  0  0  0  0  0  0
  -21.3460  -13.0010   22.4070 H   0  0  0  0  0  0  0  0  0  0  0  0
  -25.5730  -14.9900   20.2610 N   0  0  0  0  0  0  0  0  0  0  0  0
  -24.8500  -15.6800   20.4340 H   0  0  0  0  0  0  0  0  0  0  0  0
  -26.4260  -15.3940   19.8950 H   0  0  0  0  0  0  0  0  0  0  0  0
  2  9  1  0
  2  1  1  0
 10  3  1  1
  3  1  1  0
  4  7  1  0
  5  8  1  0
  6  9  1  0
  6 10  1  0
  7 11  1  0
  9 13  1  0
 10  4  1  0
 10  5  1  0
 11 54  1  0
 11  8  1  0
 11 12  1  6
 13 15  1  0
 14 25  2  0
 15 20  1  0
 16 24  1  0
 16 26  1  0
 17 23  1  0
 17 19  1  0
 18 24  1  0
 19 18  1  0
 20 19  2  0
 21 22  1  0
 21 15  2  0
 22 17  2  0
 23 16  1  0
 24 14  1  0
 26 28  2  0
 27 26  1  0
 29 27  1  0
 30 39  2  0
 30 35  1  0
 31 27  1  0
 31 35  1  0
 32 31  1  0
 33 34  1  0
 33 32  1  0
 34 30  1  0
 35 36  2  0
 36 37  1  0
 38 37  2  0
 39 38  1  0
 40 14  1  0
 40 41  1  0
 40 50  1  0
 41 44  1  0
 42 46  1  0
 42 41  1  0
 43 42  2  0
 46 45  1  0
 48 46  1  0
 48 49  1  0
 48 47  1  0
 50 53  1  1
 50 51  1  0
 52 50  1  0
 54 55  1  0
 55 56  1  0
 56 57  1  0
 57 58  1  0
 59 58  1  0
 59 60  1  0
 61 60  1  0
 62 61  1  0
 63 68  1  0
 64 65  1  0
 64 63  1  0
 66 65  1  0
 66 73  1  0
 66 67  1  0
 68 62  1  0
 68 67  1  0
 69 62  2  0
 70 71  2  0
 71 90  1  0
 72 71  1  0
 72 75  1  0
 73 74  1  0
 73 70  1  0
 74 72  2  0
 75 76  1  0
 76 77  2  0
 78 81  1  0
 78 77  1  0
 79 78  2  0
 80 79  1  0
 80 75  2  0
 81 82  1  0
 82 83  1  0
 83 84  2  0
 85 84  1  0
 85 89  1  0
 86 85  2  0
 87 82  2  0
 87 86  1  0
 88 87  1  0
 90 91  1  0
 91 94  1  0
 91 93  1  0
 92 90  2  0
 95 70  1  0
 95 96  1  0
 97 95  1  0
M  ISO  4   9 101  13 101  61 100  62 100
M  END
>  <TORSDO>  (59) 
F 24

>  <SCORE>  (59) 
-9.011

>  <name>  (59) 
58

>  <ligand_id>  (59) 
58

>  <original_smiles>  (59) 
[H]c1c([H])c([H])c2c(c1[H])C([H])([H])C([H])([H])C([H])([H])C2([H])N([H])C(=O)C1([H])N(C(=O)C([H])(N([H])C(=O)C([H])(N([H])C([H])([H])[H])C([H])([H])[H])C(C([H])([H])[H])(C([H])([H])[H])C([H])([H])[H])C([H])([H])c2c([H])c(OC3([H])C([H])([H])C([H])([H])C([H])([H])C4(C3([H])[H])C([H])([H])C([H])([H])[N+]([H])(C([H])([H])C([H])([H])C([H])([H])C([H])([H])C([H])([H])C([H])([H])C([H])([H])C([H])([H])C(=O)N3C([H])([H])C([H])([H])C([H])([H])C([H])(n5nc(-c6c([H])c([H])c(Oc7c([H])c([H])c(F)c([H])c7F)c([H])c6[H])c(C(=O)N([H])[H])c5N([H])[H])C3([H])[H])C([H])([H])C4([H])[H])c([H])c([H])c2C1([H])[H]

>  <smiles>  (59) 
[H]c1c([H])c([H])c2c(c1[H])C([H])([H])C([H])([H])C([H])([H])C2([H])N([H])C(=O)C1([H])N(C(=O)C([H])(N([H])C(=O)C([H])(N([H])C([H])([H])[H])C([H])([H])[H])C(C([H])([H])[H])(C([H])([H])[H])C([H])([H])[H])C([H])([H])c2c([H])c(OC3([H])C([H])([H])C([H])([H])C([H])([H])C4(C3([H])[H])C([H])([H])C([H])([H])[N+]([H])(C([H])([H])C([H])([H])C([H])([H])C([H])([H])C([H])([H])C([H])([H])C([H])([H])C([H])([H])C(=O)N3C([H])([H])C([H])([H])C([H])([H])C([H])(n5nc(-c6c([H])c([H])c(Oc7c([H])c([H])c(F)c([H])c7F)c([H])c6[H])c(C(=O)N([H])[H])c5N([H])[H])C3([H])[H])C([H])([H])C4([H])[H])c([H])c([H])c2C1([H])[H]

$$$$
59:0:0
     RDKit          3D

 96105  0  0  1  0  0  0  0  0999 V2000
  -27.4880  -19.7160   19.9250 C   0  0  0  0  0  2  0  0  0  0  0  0
  -27.9030  -21.5920   21.6170 C   0  0  0  0  0  2  0  0  0  0  0  0
  -28.8840  -21.8270   19.4120 C   0  0  0  0  0  2  0  0  0  0  0  0
  -28.3150  -18.4680   19.6010 C   0  0  0  0  0  2  0  0  0  0  0  0
  -29.7130  -19.8370   20.9210 C   0  0  0  0  0  2  0  0  0  0  0  0
  -27.3160  -22.8500   20.9460 C   0  0  0  0  0  3  0  0  0  0  0  0
  -28.4140  -23.2120   19.9350 C   0  0  0  0  0  3  0  0  0  0  0  0
  -28.5120  -20.7450   20.4760 C   0  0  2  0  0  0  0  0  0  0  0  0
  -29.3450  -18.4170   20.6550 N   0  0  2  0  0  4  0  0  0  0  0  0
  -28.8600  -18.1110   21.4850 H   0  0  0  0  0  0  0  0  0  0  0  0
  -26.9570  -23.9580   21.9520 C   0  0  0  0  0  0  0  0  0  0  0  0
  -25.6720  -24.2050   22.1660 N   0  0  0  0  0  0  0  0  0  0  0  0
  -27.8310  -24.5920   22.5430 O   0  0  0  0  0  0  0  0  0  0  0  0
  -24.9640  -23.6660   21.6880 H   0  0  0  0  0  0  0  0  0  0  0  0
  -25.3800  -24.9320   22.8020 H   0  0  0  0  0  0  0  0  0  0  0  0
  -28.0170  -24.2500   18.8320 C   0  0  0  0  0  3  0  0  0  0  0  0
  -28.4790  -25.7160   19.1020 C   0  0  0  0  0  3  0  0  0  0  0  0
  -28.0860  -26.6870   18.1160 O   0  0  0  0  0  0  0  0  0  0  0  0
  -24.8820  -31.2390   22.5740 C   0  0  0  0  0  0  0  0  0  0  0  0
  -26.9610  -27.4160   18.4170 C   0  0  0  0  0  0  0  0  0  0  0  0
  -23.4450  -30.1330   20.9130 C   0  0  0  0  0  3  0  0  0  0  0  0
  -24.6250  -28.8780   19.0360 C   0  0  0  0  0  0  0  0  0  0  0  0
  -25.9050  -30.5480   20.4020 C   0  0  0  0  0  2  0  0  0  0  0  0
  -25.8660  -29.3080   19.5290 C   0  0  0  0  0  0  0  0  0  0  0  0
  -27.0380  -28.5840   19.2140 C   0  0  0  0  0  3  0  0  0  0  0  0
  -25.7080  -27.0080   17.9230 C   0  0  0  0  0  3  0  0  0  0  0  0
  -24.5410  -27.7320   18.2260 C   0  0  0  0  0  3  0  0  0  0  0  0
  -23.4160  -29.6960   19.4210 C   0  0  0  0  0  2  0  0  0  0  0  0
  -24.7760  -30.6410   21.3530 N   0  0  0  0  0  0  0  0  0  0  0  0
  -23.8940  -31.3990   23.3060 O   0  0  0  0  0  0  0  0  0  0  0  0
  -22.9270  -28.9700   21.7790 C   0  0  0  0  0  0  0  0  0  0  0  0
  -21.6030  -28.8710   21.7610 N   0  0  0  0  0  0  0  0  0  0  0  0
  -23.6750  -28.1920   22.3720 O   0  0  0  0  0  0  0  0  0  0  0  0
  -21.1430  -29.6120   21.2470 H   0  0  0  0  0  0  0  0  0  0  0  0
  -18.2720  -27.2500   22.3210 C   0  0  0  0  0  0  0  0  0  0  0  0
  -20.7210  -27.7850   22.1160 C   0  0  0  0  0  3  0  0  0  0  0  0
  -21.0060  -26.3440   21.6920 C   0  0  0  0  0  2  0  0  0  0  0  0
  -19.8470  -25.8490   20.7970 C   0  0  0  0  0  2  0  0  0  0  0  0
  -18.4760  -25.9780   21.5000 C   0  0  0  0  0  2  0  0  0  0  0  0
  -19.3620  -28.0640   22.7120 C   0  0  0  0  0  0  0  0  0  0  0  0
  -19.1390  -29.2290   23.4730 C   0  0  0  0  0  3  0  0  0  0  0  0
  -17.8250  -29.6080   23.8050 C   0  0  0  0  0  3  0  0  0  0  0  0
  -16.7400  -28.8150   23.3910 C   0  0  0  0  0  3  0  0  0  0  0  0
  -16.9630  -27.6350   22.6650 C   0  0  0  0  0  3  0  0  0  0  0  0
  -26.2500  -31.7700   23.0960 C   0  0  0  0  0  3  0  0  0  0  0  0
  -25.9860  -32.9960   23.8560 N   0  0  0  0  0  0  0  0  0  0  0  0
  -26.2000  -34.2320   23.3900 C   0  0  0  0  0  0  0  0  0  0  0  0
  -26.7130  -34.4570   22.2920 O   0  0  0  0  0  0  0  0  0  0  0  0
  -25.5020  -32.8900   24.7350 H   0  0  0  0  0  0  0  0  0  0  0  0
  -24.4400  -35.9900   23.7850 C   0  0  0  0  0  1  0  0  0  0  0  0
  -25.7720  -35.4070   24.2890 C   0  0  0  0  0  3  0  0  0  0  0  0
  -27.9970  -36.0840   25.0780 C   0  0  0  0  0  1  0  0  0  0  0  0
  -26.7850  -36.4840   24.3680 N   0  0  0  0  0  0  0  0  0  0  0  0
  -26.4010  -37.3080   24.8260 H   0  0  0  0  0  0  0  0  0  0  0  0
  -27.0220  -30.7170   23.9840 C   0  0  1  0  0  0  0  0  0  0  0  0
  -26.1660  -30.1220   25.1250 C   0  0  0  0  0  1  0  0  0  0  0  0
  -27.5290  -29.5370   23.1220 C   0  0  0  0  0  1  0  0  0  0  0  0
  -28.2660  -31.3880   24.6140 C   0  0  0  0  0  1  0  0  0  0  0  0
  -30.4650  -17.4380   20.4260 C   0  0  0  0  0  2  0  0  0  0  0  0
  -30.2340  -16.0830   21.1650 C   0  0  0  0  0  2  0  0  0  0  0  0
  -30.9960  -14.8470   20.6010 C   0  0  0  0  0  0  0  0  0  0  0  0
  -30.8440  -12.5640   19.6500 C   0  0  0  0  0  2  0  0  0  0  0  0
  -29.9790  -12.6020   18.3730 C   0  0  0  0  0  2  0  0  0  0  0  0
  -28.4780  -12.4910   18.7110 C   0  0  0  0  0  2  0  0  0  0  0  0
  -28.0440  -13.4540   19.8520 C   0  0  0  0  0  3  0  0  0  0  0  0
  -29.0230  -13.3430   21.0420 C   0  0  0  0  0  2  0  0  0  0  0  0
  -30.3770  -13.6330   20.5440 N   0  0  0  0  0  0  0  0  0  0  0  0
  -32.1310  -15.0150   20.1410 O   0  0  0  0  0  0  0  0  0  0  0  0
  -25.6220  -14.1310   20.4010 C   0  0  0  0  0  0  0  0  0  0  0  0
  -24.5220  -13.3920   20.7410 C   0  0  0  0  0  0  0  0  0  0  0  0
  -24.9580  -12.0300   20.7830 C   0  0  0  0  0  0  0  0  0  0  0  0
  -26.6610  -13.2230   20.2600 N   0  0  0  0  0  0  0  0  0  0  0  0
  -26.2610  -11.9580   20.5450 N   0  0  0  0  0  0  0  0  0  0  0  0
  -24.2000  -10.7890   20.9740 C   0  0  0  0  0  0  0  0  0  0  0  0
  -24.5830   -9.8300   21.9380 C   0  0  0  0  0  3  0  0  0  0  0  0
  -23.8260   -8.6530   22.1160 C   0  0  0  0  0  3  0  0  0  0  0  0
  -22.6720   -8.4270   21.3330 C   0  0  0  0  0  0  0  0  0  0  0  0
  -22.3060   -9.3730   20.3600 C   0  0  0  0  0  3  0  0  0  0  0  0
  -23.0640  -10.5420   20.1780 C   0  0  0  0  0  3  0  0  0  0  0  0
  -21.8940   -7.2990   21.4160 O   0  0  0  0  0  0  0  0  0  0  0  0
  -21.8120   -6.5640   22.5720 C   0  0  0  0  0  0  0  0  0  0  0  0
  -21.4010   -7.1400   23.7930 C   0  0  0  0  0  3  0  0  0  0  0  0
  -21.2600   -6.3350   24.9420 C   0  0  0  0  0  3  0  0  0  0  0  0
  -21.5270   -4.9540   24.8700 C   0  0  0  0  0  0  0  0  0  0  0  0
  -21.9300   -4.3770   23.6540 C   0  0  0  0  0  3  0  0  0  0  0  0
  -22.0690   -5.1780   22.5070 C   0  0  0  0  0  0  0  0  0  0  0  0
  -22.4380   -4.6150   21.3310 F   0  0  0  0  0  0  0  0  0  0  0  0
  -21.3870   -4.1770   25.9680 F   0  0  0  0  0  0  0  0  0  0  0  0
  -23.1230  -13.9030   20.9320 C   0  0  0  0  0  0  0  0  0  0  0  0
  -22.3390  -13.2570   21.7850 N   0  0  0  0  0  0  0  0  0  0  0  0
  -22.7270  -14.9120   20.3480 O   0  0  0  0  0  0  0  0  0  0  0  0
  -22.6630  -12.4380   22.2770 H   0  0  0  0  0  0  0  0  0  0  0  0
  -21.3980  -13.5860   21.9580 H   0  0  0  0  0  0  0  0  0  0  0  0
  -25.8210  -15.4930   20.1710 N   0  0  0  0  0  0  0  0  0  0  0  0
  -25.0350  -16.1380   20.1500 H   0  0  0  0  0  0  0  0  0  0  0  0
  -26.6660  -15.8830   19.7740 H   0  0  0  0  0  0  0  0  0  0  0  0
  8  1  1  6
  3  7  1  0
  4  1  1  0
  4  9  1  0
  6  2  1  0
  6 11  1  0
  7 16  1  0
  7  6  1  0
  8  3  1  0
  8  5  1  0
  8  2  1  0
  9  5  1  0
  9 10  1  1
 11 12  1  0
 11 13  2  0
 12 15  1  0
 14 12  1  0
 16 17  2  0
 18 20  1  0
 18 17  1  0
 19 30  2  0
 20 25  1  0
 21 29  1  0
 21 31  1  0
 22 28  1  0
 22 24  1  0
 23 29  1  0
 24 23  1  0
 25 24  2  0
 26 27  1  0
 26 20  2  0
 27 22  2  0
 28 21  1  0
 29 19  1  0
 31 33  2  0
 32 31  1  0
 34 32  1  0
 35 44  2  0
 35 40  1  0
 36 32  1  0
 36 40  1  0
 37 36  1  0
 38 39  1  0
 38 37  1  0
 39 35  1  0
 40 41  2  0
 41 42  1  0
 43 42  2  0
 44 43  1  0
 45 19  1  0
 45 46  1  0
 45 55  1  0
 46 49  1  0
 47 46  1  0
 47 51  1  0
 48 47  2  0
 51 50  1  0
 51 53  1  0
 53 54  1  0
 53 52  1  0
 55 58  1  1
 55 56  1  0
 57 55  1  0
 59  9  1  0
 59 60  1  0
 61 60  1  0
 62 67  1  0
 63 64  1  0
 63 62  1  0
 65 64  1  0
 65 72  1  0
 65 66  1  0
 67 61  1  0
 67 66  1  0
 68 61  2  0
 69 70  2  0
 70 71  1  0
 70 89  1  0
 71 74  1  0
 72 69  1  0
 72 73  1  0
 73 71  2  0
 74 75  1  0
 75 76  2  0
 77 80  1  0
 77 76  1  0
 78 77  2  0
 79 78  1  0
 79 74  2  0
 80 81  1  0
 81 82  1  0
 82 83  2  0
 84 83  1  0
 84 88  1  0
 85 84  2  0
 86 81  2  0
 86 85  1  0
 87 86  1  0
 89 90  1  0
 90 93  1  0
 90 92  1  0
 91 89  2  0
 94 69  1  0
 95 94  1  0
 96 94  1  0
M  ISO  4  17 101  18 101  60 100  61 100
M  END
>  <TORSDO>  (60) 
F 21

>  <SCORE>  (60) 
-10.715

>  <name>  (60) 
59

>  <ligand_id>  (60) 
59

>  <original_smiles>  (60) 
[H]c1c([H])c([H])c2c(c1[H])C([H])([H])C([H])([H])C([H])([H])C2([H])N([H])C(=O)C1([H])N(C(=O)C([H])(N([H])C(=O)C([H])(N([H])C([H])([H])[H])C([H])([H])[H])C(C([H])([H])[H])(C([H])([H])[H])C([H])([H])[H])C([H])([H])c2c([H])c(OC([H])([H])C([H])([H])C3([H])C([H])([H])C4(C([H])([H])C3([H])C(=O)N([H])[H])C([H])([H])C([H])([H])[N+]([H])(C([H])([H])C([H])([H])C(=O)N3C([H])([H])C([H])([H])C([H])([H])C([H])(n5nc(-c6c([H])c([H])c(Oc7c([H])c([H])c(F)c([H])c7F)c([H])c6[H])c(C(=O)N([H])[H])c5N([H])[H])C3([H])[H])C4([H])[H])c([H])c([H])c2C1([H])[H]

>  <smiles>  (60) 
[H]c1c([H])c([H])c2c(c1[H])C([H])([H])C([H])([H])C([H])([H])C2([H])N([H])C(=O)C1([H])N(C(=O)C([H])(N([H])C(=O)C([H])(N([H])C([H])([H])[H])C([H])([H])[H])C(C([H])([H])[H])(C([H])([H])[H])C([H])([H])[H])C([H])([H])c2c([H])c(OC([H])([H])C([H])([H])C3([H])C([H])([H])C4(C([H])([H])C3([H])C(=O)N([H])[H])C([H])([H])C([H])([H])[N+]([H])(C([H])([H])C([H])([H])C(=O)N3C([H])([H])C([H])([H])C([H])([H])C([H])(n5nc(-c6c([H])c([H])c(Oc7c([H])c([H])c(F)c([H])c7F)c([H])c6[H])c(C(=O)N([H])[H])c5N([H])[H])C3([H])[H])C4([H])[H])c([H])c([H])c2C1([H])[H]

$$$$
60:0:0
     RDKit          3D

 88 96  0  0  1  0  0  0  0  0999 V2000
  -31.4590  -21.1920   21.1250 C   0  0  0  0  0  2  0  0  0  0  0  0
  -30.7230  -21.5920   19.8340 C   0  0  0  0  0  2  0  0  0  0  0  0
  -30.5650  -20.1520   21.8460 C   0  0  0  0  0  3  0  0  0  0  0  0
  -29.2550  -21.3390   20.1660 C   0  0  0  0  0  3  0  0  0  0  0  0
  -30.0840  -20.6000   23.2380 C   0  0  0  0  0  1  0  0  0  0  0  0
  -29.4310  -19.8830   20.9280 N   0  0  1  0  0  4  0  0  0  0  0  0
  -28.5930  -19.7400   21.4700 H   0  0  0  0  0  0  0  0  0  0  0  0
  -28.6860  -22.9010   20.8250 C   0  0  0  0  0  2  0  0  0  0  0  0
  -28.2770  -24.4590   20.0620 C   0  0  0  0  0  2  0  0  0  0  0  0
  -28.2570  -26.0290   20.5150 O   0  0  0  0  0  0  0  0  0  0  0  0
  -24.6190  -31.9530   23.3030 C   0  0  0  0  0  0  0  0  0  0  0  0
  -27.2240  -27.0820   20.3680 C   0  0  0  0  0  0  0  0  0  0  0  0
  -23.4390  -30.5240   21.6790 C   0  0  0  0  0  3  0  0  0  0  0  0
  -24.9030  -28.9130   20.2840 C   0  0  0  0  0  0  0  0  0  0  0  0
  -26.0000  -30.7610   21.5370 C   0  0  0  0  0  2  0  0  0  0  0  0
  -26.0810  -29.3460   20.9030 C   0  0  0  0  0  0  0  0  0  0  0  0
  -27.2340  -28.4480   20.9260 C   0  0  0  0  0  3  0  0  0  0  0  0
  -26.0200  -26.7930   19.6870 C   0  0  0  0  0  3  0  0  0  0  0  0
  -24.8960  -27.6550   19.6570 C   0  0  0  0  0  3  0  0  0  0  0  0
  -23.6770  -29.8210   20.3140 C   0  0  0  0  0  2  0  0  0  0  0  0
  -24.7070  -31.1070   22.2270 N   0  0  0  0  0  0  0  0  0  0  0  0
  -23.5280  -32.2430   23.8180 O   0  0  0  0  0  0  0  0  0  0  0  0
  -22.7500  -29.5390   22.6600 C   0  0  0  0  0  0  0  0  0  0  0  0
  -21.4260  -29.3490   22.5160 N   0  0  0  0  0  0  0  0  0  0  0  0
  -23.4130  -28.9460   23.5140 O   0  0  0  0  0  0  0  0  0  0  0  0
  -20.9450  -29.8820   21.8060 H   0  0  0  0  0  0  0  0  0  0  0  0
  -18.0600  -28.0700   22.9750 C   0  0  0  0  0  0  0  0  0  0  0  0
  -20.6050  -28.4150   23.2950 C   0  0  0  0  0  3  0  0  0  0  0  0
  -20.7580  -26.9680   22.7710 C   0  0  0  0  0  2  0  0  0  0  0  0
  -19.6930  -26.5820   21.7400 C   0  0  0  0  0  2  0  0  0  0  0  0
  -18.2920  -26.7060   22.3450 C   0  0  0  0  0  2  0  0  0  0  0  0
  -19.1470  -28.8790   23.4070 C   0  0  0  0  0  0  0  0  0  0  0  0
  -18.8770  -30.1480   23.9600 C   0  0  0  0  0  3  0  0  0  0  0  0
  -17.5540  -30.6140   24.0830 C   0  0  0  0  0  3  0  0  0  0  0  0
  -16.4830  -29.8060   23.6650 C   0  0  0  0  0  3  0  0  0  0  0  0
  -16.7370  -28.5350   23.1190 C   0  0  0  0  0  3  0  0  0  0  0  0
  -25.8860  -32.6090   23.9310 C   0  0  0  0  0  3  0  0  0  0  0  0
  -26.3780  -31.8790   25.2420 C   0  0  1  0  0  0  0  0  0  0  0  0
  -25.2660  -31.6740   26.2980 C   0  0  0  0  0  1  0  0  0  0  0  0
  -26.9680  -30.4890   24.9100 C   0  0  0  0  0  1  0  0  0  0  0  0
  -27.5200  -32.6910   25.8990 C   0  0  0  0  0  1  0  0  0  0  0  0
  -25.5690  -34.0180   24.2250 N   0  0  0  0  0  0  0  0  0  0  0  0
  -25.9070  -35.0590   23.4510 C   0  0  0  0  0  0  0  0  0  0  0  0
  -26.5820  -34.9350   22.4260 O   0  0  0  0  0  0  0  0  0  0  0  0
  -24.9650  -34.1880   25.0160 H   0  0  0  0  0  0  0  0  0  0  0  0
  -24.1820  -36.8520   23.0590 C   0  0  0  0  0  1  0  0  0  0  0  0
  -25.4210  -36.4590   23.8790 C   0  0  0  0  0  3  0  0  0  0  0  0
  -27.5530  -37.3640   24.7010 C   0  0  0  0  0  1  0  0  0  0  0  0
  -26.4560  -37.5080   23.7470 N   0  0  0  0  0  0  0  0  0  0  0  0
  -26.0510  -38.4320   23.8680 H   0  0  0  0  0  0  0  0  0  0  0  0
  -29.7390  -18.4160   20.2210 C   0  0  0  0  0  2  0  0  0  0  0  0
  -29.7490  -16.7990   20.9570 C   0  0  0  0  0  2  0  0  0  0  0  0
  -30.5720  -15.3170   20.5850 C   0  0  0  0  0  0  0  0  0  0  0  0
  -30.6200  -12.8910   19.6820 C   0  0  0  0  0  2  0  0  0  0  0  0
  -29.7560  -12.7580   18.4030 C   0  0  0  0  0  2  0  0  0  0  0  0
  -28.2830  -12.4850   18.7630 C   0  0  0  0  0  2  0  0  0  0  0  0
  -27.7870  -13.4090   19.9030 C   0  0  0  0  0  3  0  0  0  0  0  0
  -28.7840  -13.4980   21.0770 C   0  0  0  0  0  2  0  0  0  0  0  0
  -30.0550  -13.9980   20.5320 N   0  0  0  0  0  0  0  0  0  0  0  0
  -31.7740  -15.3690   20.2890 O   0  0  0  0  0  0  0  0  0  0  0  0
  -25.3680  -13.9320   20.5210 C   0  0  0  0  0  0  0  0  0  0  0  0
  -24.3060  -13.1380   20.8520 C   0  0  0  0  0  0  0  0  0  0  0  0
  -24.8010  -11.7980   20.8680 C   0  0  0  0  0  0  0  0  0  0  0  0
  -26.4390  -13.0750   20.3440 N   0  0  0  0  0  0  0  0  0  0  0  0
  -26.1070  -11.7870   20.6210 N   0  0  0  0  0  0  0  0  0  0  0  0
  -24.0920  -10.5230   21.0460 C   0  0  0  0  0  0  0  0  0  0  0  0
  -24.4940   -9.5820   22.0190 C   0  0  0  0  0  3  0  0  0  0  0  0
  -23.7810   -8.3740   22.1850 C   0  0  0  0  0  3  0  0  0  0  0  0
  -22.6530   -8.0990   21.3750 C   0  0  0  0  0  0  0  0  0  0  0  0
  -22.2720   -9.0290   20.3920 C   0  0  0  0  0  3  0  0  0  0  0  0
  -22.9850  -10.2280   20.2260 C   0  0  0  0  0  3  0  0  0  0  0  0
  -21.9180   -6.9410   21.4450 O   0  0  0  0  0  0  0  0  0  0  0  0
  -21.8270   -6.2150   22.6060 C   0  0  0  0  0  0  0  0  0  0  0  0
  -21.3140   -6.7750   23.7960 C   0  0  0  0  0  3  0  0  0  0  0  0
  -21.1740   -5.9750   24.9470 C   0  0  0  0  0  3  0  0  0  0  0  0
  -21.5360   -4.6150   24.9080 C   0  0  0  0  0  0  0  0  0  0  0  0
  -22.0420   -4.0540   23.7220 C   0  0  0  0  0  3  0  0  0  0  0  0
  -22.1840   -4.8520   22.5740 C   0  0  0  0  0  0  0  0  0  0  0  0
  -22.6530   -4.3020   21.4280 F   0  0  0  0  0  0  0  0  0  0  0  0
  -21.3940   -3.8440   26.0120 F   0  0  0  0  0  0  0  0  0  0  0  0
  -22.8870  -13.5900   21.0420 C   0  0  0  0  0  0  0  0  0  0  0  0
  -22.1310  -12.8930   21.8810 N   0  0  0  0  0  0  0  0  0  0  0  0
  -22.4560  -14.5960   20.4800 O   0  0  0  0  0  0  0  0  0  0  0  0
  -22.4940  -12.0810   22.3590 H   0  0  0  0  0  0  0  0  0  0  0  0
  -21.1770  -13.1750   22.0510 H   0  0  0  0  0  0  0  0  0  0  0  0
  -25.5110  -15.3030   20.3280 N   0  0  0  0  0  0  0  0  0  0  0  0
  -24.7250  -15.9420   20.3870 H   0  0  0  0  0  0  0  0  0  0  0  0
  -26.3630  -15.7510   20.0150 H   0  0  0  0  0  0  0  0  0  0  0  0
  1  3  1  0
  2  4  1  0
  2  1  1  0
  3  5  1  0
  4  8  1  0
  4  6  1  0
  6  7  1  1
  6  3  1  0
  9 10  1  0
  9  8  1  0
 11 22  2  0
 12 10  1  0
 12 17  1  0
 13 21  1  0
 13 23  1  0
 14 20  1  0
 14 16  1  0
 15 21  1  0
 16 17  2  0
 16 15  1  0
 18 12  2  0
 19 18  1  0
 19 14  2  0
 20 13  1  0
 21 11  1  0
 23 25  2  0
 24 23  1  0
 26 24  1  0
 27 36  2  0
 27 32  1  0
 28 24  1  0
 28 32  1  0
 29 28  1  0
 30 31  1  0
 30 29  1  0
 31 27  1  0
 32 33  2  0
 33 34  1  0
 35 34  2  0
 36 35  1  0
 37 11  1  0
 37 42  1  0
 37 38  1  0
 38 41  1  1
 38 39  1  0
 40 38  1  0
 42 45  1  0
 43 47  1  0
 43 42  1  0
 44 43  2  0
 47 46  1  0
 49 50  1  0
 49 47  1  0
 49 48  1  0
 51  6  1  0
 51 52  1  0
 53 52  1  0
 54 59  1  0
 55 56  1  0
 55 54  1  0
 57 56  1  0
 57 64  1  0
 57 58  1  0
 59 53  1  0
 59 58  1  0
 60 53  2  0
 61 62  2  0
 62 63  1  0
 62 81  1  0
 63 66  1  0
 64 61  1  0
 64 65  1  0
 65 63  2  0
 66 67  1  0
 67 68  2  0
 69 72  1  0
 69 68  1  0
 70 69  2  0
 71 70  1  0
 71 66  2  0
 72 73  1  0
 73 74  1  0
 74 75  2  0
 76 75  1  0
 76 80  1  0
 77 76  2  0
 78 73  2  0
 78 77  1  0
 79 78  1  0
 81 82  1  0
 82 85  1  0
 82 84  1  0
 83 81  2  0
 86 87  1  0
 86 61  1  0
 88 86  1  0
M  ISO  4   9 101  10 101  52 100  53 100
M  END
>  <TORSDO>  (61) 
F 20

>  <SCORE>  (61) 
-15.442

>  <name>  (61) 
60

>  <ligand_id>  (61) 
60

>  <original_smiles>  (61) 
[H]c1c([H])c([H])c2c(c1[H])C([H])([H])C([H])([H])C([H])([H])C2([H])N([H])C(=O)C1([H])N(C(=O)C([H])(N([H])C(=O)C([H])(N([H])C([H])([H])[H])C([H])([H])[H])C(C([H])([H])[H])(C([H])([H])[H])C([H])([H])[H])C([H])([H])c2c([H])c(OC([H])([H])C([H])([H])C3([H])C([H])([H])C([H])([H])C([H])(C([H])([H])[H])[N+]3([H])C([H])([H])C([H])([H])C(=O)N3C([H])([H])C([H])([H])C([H])([H])C([H])(n4nc(-c5c([H])c([H])c(Oc6c([H])c([H])c(F)c([H])c6F)c([H])c5[H])c(C(=O)N([H])[H])c4N([H])[H])C3([H])[H])c([H])c([H])c2C1([H])[H]

>  <smiles>  (61) 
[H]c1c([H])c([H])c2c(c1[H])C([H])([H])C([H])([H])C([H])([H])C2([H])N([H])C(=O)C1([H])N(C(=O)C([H])(N([H])C(=O)C([H])(N([H])C([H])([H])[H])C([H])([H])[H])C(C([H])([H])[H])(C([H])([H])[H])C([H])([H])[H])C([H])([H])c2c([H])c(OC([H])([H])C([H])([H])C3([H])C([H])([H])C([H])([H])C([H])(C([H])([H])[H])[N+]3([H])C([H])([H])C([H])([H])C(=O)N3C([H])([H])C([H])([H])C([H])([H])C([H])(n4nc(-c5c([H])c([H])c(Oc6c([H])c([H])c(F)c([H])c6F)c([H])c5[H])c(C(=O)N([H])[H])c4N([H])[H])C3([H])[H])c([H])c([H])c2C1([H])[H]

$$$$
61:0:0
     RDKit          3D

 98107  0  0  1  0  0  0  0  0999 V2000
  -28.0210  -24.0700   22.7970 C   0  0  0  0  0  2  0  0  0  0  0  0
  -30.1160  -22.8300   23.3650 C   0  0  0  0  0  2  0  0  0  0  0  0
  -27.6720  -23.0000   21.7470 C   0  0  0  0  0  2  0  0  0  0  0  0
  -29.7360  -21.7430   22.3350 C   0  0  0  0  0  2  0  0  0  0  0  0
  -30.1500  -24.5720   21.5730 C   0  0  0  0  0  2  0  0  0  0  0  0
  -29.8420  -23.4670   20.5180 C   0  0  0  0  0  3  0  0  0  0  0  0
  -29.5550  -24.2150   22.9570 C   0  0  1  0  0  0  0  0  0  0  0  0
  -28.9440  -22.3500   21.1490 C   0  0  2  0  0  0  0  0  0  0  0  0
  -29.2980  -24.0870   19.2170 C   0  0  0  0  0  1  0  0  0  0  0  0
  -28.4930  -21.2470   20.1580 C   0  0  0  0  0  2  0  0  0  0  0  0
  -29.5730  -20.6610   19.2320 C   0  0  0  0  0  2  0  0  0  0  0  0
  -29.0490  -20.5080   17.7950 C   0  0  0  0  0  2  0  0  0  0  0  0
  -31.2860  -20.4990   16.6340 C   0  0  0  0  0  3  0  0  0  0  0  0
  -30.0880  -19.9160   16.8540 C   0  0  0  0  0  0  0  0  0  0  0  0
  -30.6610  -17.9560   15.2480 C   0  0  0  0  0  1  0  0  0  0  0  0
  -29.6420  -18.6170   16.1880 C   0  0  0  0  0  2  0  0  0  0  0  0
  -31.7930  -21.7740   17.2860 C   0  0  0  0  0  2  0  0  0  0  0  0
  -33.0590  -21.5300   18.1210 C   0  0  0  0  0  2  0  0  0  0  0  0
  -33.6380  -22.8410   18.6820 C   0  0  0  0  0  2  0  0  0  0  0  0
  -35.0490  -22.6530   19.2720 C   0  0  0  0  0  0  0  0  0  0  0  0
  -37.5000  -22.9530   19.1880 C   0  0  0  0  0  2  0  0  0  0  0  0
  -37.9250  -24.3190   19.7620 C   0  0  0  0  0  2  0  0  0  0  0  0
  -37.8530  -25.4200   18.6860 C   0  0  0  0  0  2  0  0  0  0  0  0
  -36.5070  -25.4090   17.9140 C   0  0  0  0  0  3  0  0  0  0  0  0
  -36.1840  -23.9800   17.4340 C   0  0  0  0  0  2  0  0  0  0  0  0
  -36.1540  -23.0960   18.6130 N   0  0  0  0  0  0  0  0  0  0  0  0
  -35.1240  -22.0760   20.3620 O   0  0  0  0  0  0  0  0  0  0  0  0
  -35.7750  -27.5200   16.6290 C   0  0  0  0  0  0  0  0  0  0  0  0
  -36.2150  -28.0750   15.4560 C   0  0  0  0  0  0  0  0  0  0  0  0
  -37.2370  -27.2060   14.9670 C   0  0  0  0  0  0  0  0  0  0  0  0
  -36.5170  -26.3620   16.8030 N   0  0  0  0  0  0  0  0  0  0  0  0
  -37.3680  -26.1530   15.7670 N   0  0  0  0  0  0  0  0  0  0  0  0
  -38.1420  -27.3420   13.8190 C   0  0  0  0  0  0  0  0  0  0  0  0
  -38.2570  -26.3250   12.8460 C   0  0  0  0  0  3  0  0  0  0  0  0
  -39.1200  -26.4870   11.7400 C   0  0  0  0  0  3  0  0  0  0  0  0
  -39.8750  -27.6750   11.5990 C   0  0  0  0  0  0  0  0  0  0  0  0
  -39.7720  -28.6750   12.5810 C   0  0  0  0  0  3  0  0  0  0  0  0
  -38.9170  -28.5100   13.6840 C   0  0  0  0  0  3  0  0  0  0  0  0
  -40.7580  -27.9100   10.5710 O   0  0  0  0  0  0  0  0  0  0  0  0
  -40.6150  -27.3060    9.3490 C   0  0  0  0  0  0  0  0  0  0  0  0
  -39.4380  -27.4450    8.5810 C   0  0  0  0  0  3  0  0  0  0  0  0
  -39.3610  -26.8640    7.2990 C   0  0  0  0  0  3  0  0  0  0  0  0
  -40.4600  -26.1540    6.7800 C   0  0  0  0  0  0  0  0  0  0  0  0
  -41.6350  -26.0200    7.5400 C   0  0  0  0  0  3  0  0  0  0  0  0
  -41.7130  -26.5960    8.8200 C   0  0  0  0  0  0  0  0  0  0  0  0
  -42.8540  -26.4820    9.5400 F   0  0  0  0  0  0  0  0  0  0  0  0
  -40.3900  -25.6040    5.5450 F   0  0  0  0  0  0  0  0  0  0  0  0
  -35.7810  -29.3860   14.8680 C   0  0  0  0  0  0  0  0  0  0  0  0
  -35.7670  -29.4900   13.5430 N   0  0  0  0  0  0  0  0  0  0  0  0
  -35.4030  -30.3140   15.5830 O   0  0  0  0  0  0  0  0  0  0  0  0
  -36.0580  -28.7230   12.9560 H   0  0  0  0  0  0  0  0  0  0  0  0
  -35.4600  -30.3490   13.1100 H   0  0  0  0  0  0  0  0  0  0  0  0
  -34.8220  -27.9120   17.5630 N   0  0  0  0  0  0  0  0  0  0  0  0
  -34.3080  -28.7820   17.4780 H   0  0  0  0  0  0  0  0  0  0  0  0
  -34.6070  -27.4050   18.4130 H   0  0  0  0  0  0  0  0  0  0  0  0
  -29.9060  -25.2460   24.0570 C   0  0  0  0  0  2  0  0  0  0  0  0
  -30.1730  -26.6940   23.6020 C   0  0  0  0  0  2  0  0  0  0  0  0
  -30.0140  -27.5090   24.7560 O   0  0  0  0  0  0  0  0  0  0  0  0
  -28.0580  -34.2970   24.0240 C   0  0  0  0  0  0  0  0  0  0  0  0
  -30.4250  -28.8150   24.6480 C   0  0  0  0  0  0  0  0  0  0  0  0
  -30.4900  -33.8620   23.8890 C   0  0  0  0  0  3  0  0  0  0  0  0
  -31.2330  -31.5150   24.5490 C   0  0  0  0  0  0  0  0  0  0  0  0
  -28.9620  -32.3160   25.2340 C   0  0  0  0  0  2  0  0  0  0  0  0
  -29.9190  -31.1900   24.9070 C   0  0  0  0  0  0  0  0  0  0  0  0
  -29.5120  -29.8410   24.9670 C   0  0  0  0  0  3  0  0  0  0  0  0
  -31.7420  -29.1500   24.2730 C   0  0  0  0  0  3  0  0  0  0  0  0
  -32.1520  -30.4990   24.2250 C   0  0  0  0  0  3  0  0  0  0  0  0
  -31.5930  -32.9820   24.5370 C   0  0  0  0  0  2  0  0  0  0  0  0
  -29.1120  -33.5010   24.3570 N   0  0  0  0  0  0  0  0  0  0  0  0
  -28.2220  -35.3430   23.3790 O   0  0  0  0  0  0  0  0  0  0  0  0
  -30.6540  -33.7970   22.3540 C   0  0  0  0  0  0  0  0  0  0  0  0
  -31.7400  -34.3970   21.8440 N   0  0  0  0  0  0  0  0  0  0  0  0
  -29.8350  -33.1940   21.6550 O   0  0  0  0  0  0  0  0  0  0  0  0
  -32.3610  -34.8760   22.4810 H   0  0  0  0  0  0  0  0  0  0  0  0
  -34.4650  -35.1190   19.5840 C   0  0  0  0  0  0  0  0  0  0  0  0
  -32.1230  -34.4280   20.4330 C   0  0  0  0  0  3  0  0  0  0  0  0
  -32.4650  -33.0110   19.9190 C   0  0  0  0  0  2  0  0  0  0  0  0
  -33.9560  -32.6760   20.0200 C   0  0  0  0  0  2  0  0  0  0  0  0
  -34.7880  -33.6810   19.2160 C   0  0  0  0  0  2  0  0  0  0  0  0
  -33.2210  -35.4670   20.1730 C   0  0  0  0  0  0  0  0  0  0  0  0
  -32.9870  -36.8110   20.5340 C   0  0  0  0  0  3  0  0  0  0  0  0
  -33.9660  -37.7980   20.3140 C   0  0  0  0  0  3  0  0  0  0  0  0
  -35.1900  -37.4500   19.7180 C   0  0  0  0  0  3  0  0  0  0  0  0
  -35.4360  -36.1150   19.3500 C   0  0  0  0  0  3  0  0  0  0  0  0
  -26.5970  -33.9490   24.4560 C   0  0  0  0  0  3  0  0  0  0  0  0
  -26.2270  -32.4310   24.2340 C   0  0  1  0  0  0  0  0  0  0  0  0
  -26.3620  -31.9690   22.7650 C   0  0  0  0  0  1  0  0  0  0  0  0
  -27.1250  -31.5200   25.1030 C   0  0  0  0  0  1  0  0  0  0  0  0
  -24.7690  -32.1750   24.6840 C   0  0  0  0  0  1  0  0  0  0  0  0
  -25.6910  -34.8210   23.6990 N   0  0  0  0  0  0  0  0  0  0  0  0
  -25.1610  -35.9580   24.1710 C   0  0  0  0  0  0  0  0  0  0  0  0
  -25.3340  -36.3490   25.3300 O   0  0  0  0  0  0  0  0  0  0  0  0
  -25.5460  -34.5910   22.7260 H   0  0  0  0  0  0  0  0  0  0  0  0
  -24.9140  -38.2050   23.0710 C   0  0  0  0  0  1  0  0  0  0  0  0
  -24.3090  -36.7990   23.2030 C   0  0  0  0  0  3  0  0  0  0  0  0
  -22.1420  -35.6610   23.4010 C   0  0  0  0  0  1  0  0  0  0  0  0
  -22.8880  -36.9000   23.6060 N   0  0  0  0  0  0  0  0  0  0  0  0
  -22.4210  -37.6410   23.0920 H   0  0  0  0  0  0  0  0  0  0  0  0
  1  7  1  0
  3  1  1  0
  4  2  1  0
  5  7  1  0
  6  9  1  0
  6  8  1  0
  6  5  1  0
  7  2  1  0
  7 56  1  1
  8 10  1  6
  8  3  1  0
  8  4  1  0
 11 10  1  0
 12 11  1  0
 13 14  2  0
 13 17  1  0
 14 12  1  0
 15 16  1  0
 16 14  1  0
 17 18  1  0
 18 19  1  0
 19 20  1  0
 20 27  2  0
 21 22  1  0
 23 22  1  0
 24 31  1  0
 24 23  1  0
 25 24  1  0
 25 26  1  0
 26 21  1  0
 26 20  1  0
 28 31  1  0
 28 53  1  0
 29 28  2  0
 30 29  1  0
 30 32  2  0
 32 31  1  0
 33 30  1  0
 34 33  2  0
 35 34  1  0
 36 35  2  0
 36 37  1  0
 37 38  2  0
 38 33  1  0
 39 36  1  0
 40 39  1  0
 41 40  2  0
 42 41  1  0
 43 42  2  0
 43 44  1  0
 44 45  2  0
 45 40  1  0
 45 46  1  0
 47 43  1  0
 48 29  1  0
 48 50  2  0
 49 48  1  0
 51 49  1  0
 52 49  1  0
 53 55  1  0
 54 53  1  0
 57 56  1  0
 57 58  1  0
 59 69  1  0
 60 58  1  0
 60 65  1  0
 61 71  1  0
 61 69  1  0
 61 68  1  0
 62 64  1  0
 64 65  2  0
 64 63  1  0
 66 60  2  0
 67 66  1  0
 67 62  2  0
 68 62  1  0
 69 63  1  0
 70 59  2  0
 72 71  1  0
 72 74  1  0
 73 71  2  0
 75 80  1  0
 76 72  1  0
 77 78  1  0
 77 76  1  0
 79 75  1  0
 79 78  1  0
 80 76  1  0
 80 81  2  0
 82 81  1  0
 83 82  2  0
 84 75  2  0
 84 83  1  0
 85 59  1  0
 86 85  1  0
 86 89  1  1
 86 88  1  0
 87 86  1  0
 90 91  1  0
 90 85  1  0
 91 92  2  0
 93 90  1  0
 95 94  1  0
 95 97  1  0
 95 91  1  0
 96 97  1  0
 98 97  1  0
M  ISO  4  19 100  20 100  57 101  58 101
M  END
>  <TORSDO>  (62) 
F 26

>  <SCORE>  (62) 
4.942

>  <name>  (62) 
61

>  <ligand_id>  (62) 
61

>  <original_smiles>  (62) 
[H]C(=C(C([H])([H])C([H])([H])[H])C([H])([H])C([H])([H])C([H])([H])C12C([H])([H])C([H])([H])C(C([H])([H])C([H])([H])Oc3c([H])c([H])c4c(c3[H])C([H])([H])N(C(=O)C([H])(N([H])C(=O)C([H])(N([H])C([H])([H])[H])C([H])([H])[H])C(C([H])([H])[H])(C([H])([H])[H])C([H])([H])[H])C([H])(C(=O)N([H])C3([H])c5c([H])c([H])c([H])c([H])c5C([H])([H])C([H])([H])C3([H])[H])C4([H])[H])(C([H])([H])C1([H])[H])C([H])([H])C2([H])C([H])([H])[H])C([H])([H])C([H])([H])C([H])([H])C(=O)N1C([H])([H])C([H])([H])C([H])([H])C([H])(n2nc(-c3c([H])c([H])c(Oc4c([H])c([H])c(F)c([H])c4F)c([H])c3[H])c(C(=O)N([H])[H])c2N([H])[H])C1([H])[H]

>  <smiles>  (62) 
[H]C(=C(C([H])([H])C([H])([H])[H])C([H])([H])C([H])([H])C([H])([H])C12C([H])([H])C([H])([H])C(C([H])([H])C([H])([H])Oc3c([H])c([H])c4c(c3[H])C([H])([H])N(C(=O)C([H])(N([H])C(=O)C([H])(N([H])C([H])([H])[H])C([H])([H])[H])C(C([H])([H])[H])(C([H])([H])[H])C([H])([H])[H])C([H])(C(=O)N([H])C3([H])c5c([H])c([H])c([H])c([H])c5C([H])([H])C([H])([H])C3([H])[H])C4([H])[H])(C([H])([H])C1([H])[H])C([H])([H])C2([H])C([H])([H])[H])C([H])([H])C([H])([H])C([H])([H])C(=O)N1C([H])([H])C([H])([H])C([H])([H])C([H])(n2nc(-c3c([H])c([H])c(Oc4c([H])c([H])c(F)c([H])c4F)c([H])c3[H])c(C(=O)N([H])[H])c2N([H])[H])C1([H])[H]

$$$$
62:0:0
     RDKit          3D

 93101  0  0  1  0  0  0  0  0999 V2000
  -29.4540  -20.3660   20.1050 C   0  0  0  0  0  3  0  0  0  0  0  0
  -30.1520  -19.7910   15.7320 C   0  0  0  0  0  2  0  0  0  0  0  0
  -29.4260  -21.0630   16.1650 C   0  0  0  0  0  2  0  0  0  0  0  0
  -29.6020  -18.5950   16.5070 C   0  0  0  0  0  2  0  0  0  0  0  0
  -29.5490  -21.2840   17.6830 C   0  0  0  0  0  2  0  0  0  0  0  0
  -29.7070  -18.8030   18.0300 C   0  0  0  0  0  2  0  0  0  0  0  0
  -29.0570  -20.1100   18.5810 C   0  0  1  0  0  0  0  0  0  0  0  0
  -27.5150  -19.9890   18.4510 C   0  0  0  0  0  1  0  0  0  0  0  0
  -29.2750  -19.0150   20.9110 N   0  0  0  0  0  4  0  0  0  0  0  0
  -29.1770  -19.2780   21.8790 H   0  0  0  0  0  0  0  0  0  0  0  0
  -28.3740  -18.6610   20.6330 H   0  0  0  0  0  0  0  0  0  0  0  0
  -30.2800  -17.7900   20.9190 C   0  0  0  0  0  3  0  0  0  0  0  0
  -29.7840  -16.2340   21.2650 C   0  0  0  0  0  3  0  0  0  0  0  0
  -30.6630  -14.8640   21.0060 C   0  0  0  0  0  0  0  0  0  0  0  0
  -30.6540  -12.5150   20.0660 C   0  0  0  0  0  2  0  0  0  0  0  0
  -29.8240  -12.4950   18.7590 C   0  0  0  0  0  2  0  0  0  0  0  0
  -28.3270  -12.2860   19.0610 C   0  0  0  0  0  2  0  0  0  0  0  0
  -27.8230  -13.2070   20.2020 C   0  0  0  0  0  3  0  0  0  0  0  0
  -28.7780  -13.2010   21.4140 C   0  0  0  0  0  2  0  0  0  0  0  0
  -30.1100  -13.5930   20.9350 N   0  0  0  0  0  0  0  0  0  0  0  0
  -31.8680  -14.9700   20.7490 O   0  0  0  0  0  0  0  0  0  0  0  0
  -25.3810  -13.7790   20.7250 C   0  0  0  0  0  0  0  0  0  0  0  0
  -24.2950  -13.0000   21.0150 C   0  0  0  0  0  0  0  0  0  0  0  0
  -24.7710  -11.6530   21.0450 C   0  0  0  0  0  0  0  0  0  0  0  0
  -26.4470  -12.9070   20.5860 N   0  0  0  0  0  0  0  0  0  0  0  0
  -26.0840  -11.6240   20.8440 N   0  0  0  0  0  0  0  0  0  0  0  0
  -24.0410  -10.3870   21.1930 C   0  0  0  0  0  0  0  0  0  0  0  0
  -24.4060   -9.4340   22.1680 C   0  0  0  0  0  3  0  0  0  0  0  0
  -23.6760   -8.2320   22.3020 C   0  0  0  0  0  3  0  0  0  0  0  0
  -22.5670   -7.9770   21.4600 C   0  0  0  0  0  0  0  0  0  0  0  0
  -22.2230   -8.9210   20.4760 C   0  0  0  0  0  3  0  0  0  0  0  0
  -22.9530  -10.1120   20.3400 C   0  0  0  0  0  3  0  0  0  0  0  0
  -21.8160   -6.8280   21.5010 O   0  0  0  0  0  0  0  0  0  0  0  0
  -21.6950   -6.0880   22.6500 C   0  0  0  0  0  0  0  0  0  0  0  0
  -21.1560   -6.6340   23.8350 C   0  0  0  0  0  3  0  0  0  0  0  0
  -20.9860   -5.8180   24.9730 C   0  0  0  0  0  3  0  0  0  0  0  0
  -21.3450   -4.4590   24.9250 C   0  0  0  0  0  0  0  0  0  0  0  0
  -21.8760   -3.9110   23.7420 C   0  0  0  0  0  3  0  0  0  0  0  0
  -22.0480   -4.7240   22.6080 C   0  0  0  0  0  0  0  0  0  0  0  0
  -22.5410   -4.1880   21.4660 F   0  0  0  0  0  0  0  0  0  0  0  0
  -21.1740   -3.6730   26.0130 F   0  0  0  0  0  0  0  0  0  0  0  0
  -22.8760  -13.4690   21.1600 C   0  0  0  0  0  0  0  0  0  0  0  0
  -22.0830  -12.7820   21.9750 N   0  0  0  0  0  0  0  0  0  0  0  0
  -22.4750  -14.4790   20.5830 O   0  0  0  0  0  0  0  0  0  0  0  0
  -22.4190  -11.9660   22.4640 H   0  0  0  0  0  0  0  0  0  0  0  0
  -21.1280  -13.0800   22.1140 H   0  0  0  0  0  0  0  0  0  0  0  0
  -25.5480  -15.1490   20.5400 N   0  0  0  0  0  0  0  0  0  0  0  0
  -24.7660  -15.7940   20.5670 H   0  0  0  0  0  0  0  0  0  0  0  0
  -26.4110  -15.5830   20.2460 H   0  0  0  0  0  0  0  0  0  0  0  0
  -28.6900  -21.7640   20.6670 C   0  0  0  0  0  2  0  0  0  0  0  0
  -29.0530  -23.3710   20.3140 C   0  0  0  0  0  3  0  0  0  0  0  0
  -27.9540  -24.6220   20.3460 C   0  0  0  0  0  3  0  0  0  0  0  0
  -28.2440  -26.1340   20.1910 O   0  0  0  0  0  0  0  0  0  0  0  0
  -24.5530  -31.7570   23.1560 C   0  0  0  0  0  0  0  0  0  0  0  0
  -27.1760  -27.0910   20.1360 C   0  0  0  0  0  0  0  0  0  0  0  0
  -23.3760  -30.3760   21.4870 C   0  0  0  0  0  3  0  0  0  0  0  0
  -24.8450  -28.8160   20.0760 C   0  0  0  0  0  0  0  0  0  0  0  0
  -25.9300  -30.6490   21.3640 C   0  0  0  0  0  2  0  0  0  0  0  0
  -26.0140  -29.2630   20.7060 C   0  0  0  0  0  0  0  0  0  0  0  0
  -27.1810  -28.4170   20.7190 C   0  0  0  0  0  3  0  0  0  0  0  0
  -25.9850  -26.7440   19.4600 C   0  0  0  0  0  3  0  0  0  0  0  0
  -24.8410  -27.5680   19.4380 C   0  0  0  0  0  3  0  0  0  0  0  0
  -23.6170  -29.7100   20.1070 C   0  0  0  0  0  2  0  0  0  0  0  0
  -24.6390  -30.9470   22.0580 N   0  0  0  0  0  0  0  0  0  0  0  0
  -23.4580  -32.0390   23.6690 O   0  0  0  0  0  0  0  0  0  0  0  0
  -22.6830  -29.3610   22.4280 C   0  0  0  0  0  0  0  0  0  0  0  0
  -21.3550  -29.1980   22.2820 N   0  0  0  0  0  0  0  0  0  0  0  0
  -23.3400  -28.7220   23.2540 O   0  0  0  0  0  0  0  0  0  0  0  0
  -20.8820  -29.7640   21.5920 H   0  0  0  0  0  0  0  0  0  0  0  0
  -17.9570  -28.0350   22.7460 C   0  0  0  0  0  0  0  0  0  0  0  0
  -20.5180  -28.2590   23.0330 C   0  0  0  0  0  3  0  0  0  0  0  0
  -20.6030  -26.8350   22.4360 C   0  0  0  0  0  2  0  0  0  0  0  0
  -19.5040  -26.5430   21.4100 C   0  0  0  0  0  2  0  0  0  0  0  0
  -18.1200  -26.6950   22.0490 C   0  0  0  0  0  2  0  0  0  0  0  0
  -19.0820  -28.7770   23.1950 C   0  0  0  0  0  0  0  0  0  0  0  0
  -18.8750  -30.0320   23.8080 C   0  0  0  0  0  3  0  0  0  0  0  0
  -17.5760  -30.5450   23.9760 C   0  0  0  0  0  3  0  0  0  0  0  0
  -16.4650  -29.8010   23.5440 C   0  0  0  0  0  3  0  0  0  0  0  0
  -16.6560  -28.5480   22.9350 C   0  0  0  0  0  3  0  0  0  0  0  0
  -25.8230  -32.3830   23.8080 C   0  0  0  0  0  3  0  0  0  0  0  0
  -25.5120  -33.7840   24.1340 N   0  0  0  0  0  0  0  0  0  0  0  0
  -25.8760  -34.8400   23.3940 C   0  0  0  0  0  0  0  0  0  0  0  0
  -26.5750  -34.7370   22.3830 O   0  0  0  0  0  0  0  0  0  0  0  0
  -24.8930  -33.9380   24.9170 H   0  0  0  0  0  0  0  0  0  0  0  0
  -24.1850  -36.6590   22.9940 C   0  0  0  0  0  1  0  0  0  0  0  0
  -25.3890  -36.2300   23.8470 C   0  0  0  0  0  3  0  0  0  0  0  0
  -27.4970  -37.0880   24.7730 C   0  0  0  0  0  1  0  0  0  0  0  0
  -26.4390  -37.2710   23.7820 N   0  0  0  0  0  0  0  0  0  0  0  0
  -26.0370  -38.1960   23.9160 H   0  0  0  0  0  0  0  0  0  0  0  0
  -26.3030  -31.6100   25.0990 C   0  0  1  0  0  0  0  0  0  0  0  0
  -25.1820  -31.3820   26.1400 C   0  0  0  0  0  1  0  0  0  0  0  0
  -26.8850  -30.2280   24.7250 C   0  0  0  0  0  1  0  0  0  0  0  0
  -27.4420  -32.3990   25.7860 C   0  0  0  0  0  1  0  0  0  0  0  0
  1 50  1  0
  1  9  1  0
  2  3  1  0
  2  4  1  0
  3  5  1  0
  4  6  1  0
  5  7  1  0
  6  7  1  0
  7  1  1  0
  7  8  1  1
  9 12  1  0
  9 10  1  0
 11  9  1  0
 12 13  2  0
 14 13  1  0
 15 20  1  0
 16 17  1  0
 16 15  1  0
 18 17  1  0
 18 25  1  0
 18 19  1  0
 20 14  1  0
 20 19  1  0
 21 14  2  0
 22 23  2  0
 23 24  1  0
 23 42  1  0
 24 27  1  0
 25 22  1  0
 25 26  1  0
 26 24  2  0
 27 28  1  0
 28 29  2  0
 30 33  1  0
 30 29  1  0
 31 30  2  0
 32 31  1  0
 32 27  2  0
 33 34  1  0
 34 35  1  0
 35 36  2  0
 37 36  1  0
 37 41  1  0
 38 37  2  0
 39 34  2  0
 39 38  1  0
 40 39  1  0
 42 43  1  0
 43 46  1  0
 43 45  1  0
 44 42  2  0
 47 48  1  0
 47 22  1  0
 49 47  1  0
 51 52  2  0
 51 50  1  0
 53 52  1  0
 54 65  2  0
 55 53  1  0
 55 60  1  0
 56 64  1  0
 56 66  1  0
 57 63  1  0
 57 59  1  0
 58 64  1  0
 59 60  2  0
 59 58  1  0
 61 55  2  0
 62 61  1  0
 62 57  2  0
 63 56  1  0
 64 54  1  0
 66 68  2  0
 67 66  1  0
 69 67  1  0
 70 79  2  0
 70 75  1  0
 71 67  1  0
 71 75  1  0
 72 71  1  0
 73 74  1  0
 73 72  1  0
 74 70  1  0
 75 76  2  0
 76 77  1  0
 78 77  2  0
 79 78  1  0
 80 54  1  0
 80 81  1  0
 80 90  1  0
 81 84  1  0
 82 86  1  0
 82 81  1  0
 83 82  2  0
 86 85  1  0
 88 86  1  0
 88 89  1  0
 88 87  1  0
 90 93  1  1
 90 91  1  0
 92 90  1  0
M  ISO  4  13 100  14 100  52 101  53 101
M  END
>  <TORSDO>  (63) 
F 23

>  <SCORE>  (63) 
-12.645

>  <name>  (63) 
62

>  <ligand_id>  (63) 
62

>  <original_smiles>  (63) 
[H]c1c([H])c([H])c2c(c1[H])C([H])([H])C([H])([H])C([H])([H])C2([H])N([H])C(=O)C1([H])N(C(=O)C([H])(N([H])C(=O)C([H])(N([H])C([H])([H])[H])C([H])([H])[H])C(C([H])([H])[H])(C([H])([H])[H])C([H])([H])[H])C([H])([H])c2c([H])c(OC([H])([H])C([H])([H])C([H])([H])C([H])(C3(C([H])([H])[H])C([H])([H])C([H])([H])C([H])([H])C([H])([H])C3([H])[H])[N+]([H])([H])C([H])([H])C([H])([H])C(=O)N3C([H])([H])C([H])([H])C([H])([H])C([H])(n4nc(-c5c([H])c([H])c(Oc6c([H])c([H])c(F)c([H])c6F)c([H])c5[H])c(C(=O)N([H])[H])c4N([H])[H])C3([H])[H])c([H])c([H])c2C1([H])[H]

>  <smiles>  (63) 
[H]c1c([H])c([H])c2c(c1[H])C([H])([H])C([H])([H])C([H])([H])C2([H])N([H])C(=O)C1([H])N(C(=O)C([H])(N([H])C(=O)C([H])(N([H])C([H])([H])[H])C([H])([H])[H])C(C([H])([H])[H])(C([H])([H])[H])C([H])([H])[H])C([H])([H])c2c([H])c(OC([H])([H])C([H])([H])C([H])([H])C([H])(C3(C([H])([H])[H])C([H])([H])C([H])([H])C([H])([H])C([H])([H])C3([H])[H])[N+]([H])([H])C([H])([H])C([H])([H])C(=O)N3C([H])([H])C([H])([H])C([H])([H])C([H])(n4nc(-c5c([H])c([H])c(Oc6c([H])c([H])c(F)c([H])c6F)c([H])c5[H])c(C(=O)N([H])[H])c4N([H])[H])C3([H])[H])c([H])c([H])c2C1([H])[H]

$$$$
63:0:0
     RDKit          3D

 86 94  0  0  1  0  0  0  0  0999 V2000
  -29.2490  -22.2950   19.8100 C   0  0  0  0  0  3  0  0  0  0  0  0
  -28.5500  -19.6970   20.7680 C   0  0  0  0  0  0  0  0  0  0  0  0
  -28.9250  -18.1120   20.8530 C   0  0  0  0  0  2  0  0  0  0  0  0
  -30.1260  -19.2220   19.3400 C   0  0  0  0  0  2  0  0  0  0  0  0
  -29.6710  -17.4970   19.5900 C   0  0  2  0  0  0  0  0  0  0  0  0
  -28.6290  -17.2690   18.4830 C   0  0  0  0  0  1  0  0  0  0  0  0
  -29.1930  -20.5090   19.8680 N   0  0  0  0  0  0  0  0  0  0  0  0
  -27.7210  -20.1570   21.5580 O   0  0  0  0  0  0  0  0  0  0  0  0
  -30.5440  -15.8230   19.6360 C   0  0  0  0  0  0  0  0  0  0  0  0
  -30.6560  -13.2420   18.9200 C   0  0  0  0  0  2  0  0  0  0  0  0
  -29.6910  -12.7990   17.7790 C   0  0  0  0  0  2  0  0  0  0  0  0
  -28.3050  -12.4320   18.3320 C   0  0  0  0  0  2  0  0  0  0  0  0
  -27.8430  -13.4600   19.3880 C   0  0  0  0  0  3  0  0  0  0  0  0
  -28.9350  -13.8310   20.4170 C   0  0  0  0  0  2  0  0  0  0  0  0
  -30.0710  -14.4360   19.6830 N   0  0  0  0  0  0  0  0  0  0  0  0
  -31.7660  -15.7700   19.4000 O   0  0  0  0  0  0  0  0  0  0  0  0
  -25.5680  -13.9870   20.3980 C   0  0  0  0  0  0  0  0  0  0  0  0
  -24.5310  -13.2060   20.8160 C   0  0  0  0  0  0  0  0  0  0  0  0
  -24.9720  -11.8540   20.6730 C   0  0  0  0  0  0  0  0  0  0  0  0
  -26.5710  -13.1170   20.0100 N   0  0  0  0  0  0  0  0  0  0  0  0
  -26.2330  -11.8210   20.2460 N   0  0  0  0  0  0  0  0  0  0  0  0
  -24.2400  -10.5950   20.8610 C   0  0  0  0  0  0  0  0  0  0  0  0
  -24.6320   -9.6490   21.8330 C   0  0  0  0  0  3  0  0  0  0  0  0
  -23.8940   -8.4580   22.0100 C   0  0  0  0  0  3  0  0  0  0  0  0
  -22.7510   -8.2050   21.2140 C   0  0  0  0  0  0  0  0  0  0  0  0
  -22.3790   -9.1410   20.2320 C   0  0  0  0  0  3  0  0  0  0  0  0
  -23.1160  -10.3230   20.0550 C   0  0  0  0  0  3  0  0  0  0  0  0
  -21.9900   -7.0650   21.2970 O   0  0  0  0  0  0  0  0  0  0  0  0
  -21.7580   -6.4400   22.4960 C   0  0  0  0  0  0  0  0  0  0  0  0
  -21.1240   -7.1020   23.5700 C   0  0  0  0  0  3  0  0  0  0  0  0
  -20.8420   -6.4030   24.7610 C   0  0  0  0  0  3  0  0  0  0  0  0
  -21.1850   -5.0420   24.8770 C   0  0  0  0  0  0  0  0  0  0  0  0
  -21.8120   -4.3800   23.8060 C   0  0  0  0  0  3  0  0  0  0  0  0
  -22.0950   -5.0770   22.6180 C   0  0  0  0  0  0  0  0  0  0  0  0
  -22.6800   -4.4290   21.5820 F   0  0  0  0  0  0  0  0  0  0  0  0
  -20.9080   -4.3670   26.0160 F   0  0  0  0  0  0  0  0  0  0  0  0
  -23.1710  -13.6890   21.2250 C   0  0  0  0  0  0  0  0  0  0  0  0
  -22.5090  -12.9700   22.1220 N   0  0  0  0  0  0  0  0  0  0  0  0
  -22.7110  -14.7430   20.7850 O   0  0  0  0  0  0  0  0  0  0  0  0
  -22.8970  -12.1170   22.4980 H   0  0  0  0  0  0  0  0  0  0  0  0
  -21.6000  -13.2760   22.4380 H   0  0  0  0  0  0  0  0  0  0  0  0
  -25.7260  -15.3630   20.2820 N   0  0  0  0  0  0  0  0  0  0  0  0
  -24.9730  -16.0070   20.4980 H   0  0  0  0  0  0  0  0  0  0  0  0
  -26.5390  -15.8190   19.8950 H   0  0  0  0  0  0  0  0  0  0  0  0
  -28.1700  -23.8980   19.9670 C   0  0  0  0  0  3  0  0  0  0  0  0
  -28.3090  -25.6570   19.9910 O   0  0  0  0  0  0  0  0  0  0  0  0
  -24.7240  -31.8200   23.0880 C   0  0  0  0  0  0  0  0  0  0  0  0
  -27.3010  -26.8400   19.9900 C   0  0  0  0  0  0  0  0  0  0  0  0
  -23.5410  -30.4370   21.4360 C   0  0  0  0  0  3  0  0  0  0  0  0
  -24.9990  -28.8330   19.9850 C   0  0  0  0  0  0  0  0  0  0  0  0
  -26.1170  -30.6200   21.2950 C   0  0  0  0  0  2  0  0  0  0  0  0
  -26.1950  -29.2000   20.6120 C   0  0  0  0  0  0  0  0  0  0  0  0
  -27.3310  -28.2340   20.5790 C   0  0  0  0  0  3  0  0  0  0  0  0
  -26.0640  -26.6800   19.3150 C   0  0  0  0  0  3  0  0  0  0  0  0
  -24.9710  -27.5990   19.3120 C   0  0  0  0  0  3  0  0  0  0  0  0
  -23.7800  -29.7660   20.0520 C   0  0  0  0  0  2  0  0  0  0  0  0
  -24.8180  -30.9910   21.9920 N   0  0  0  0  0  0  0  0  0  0  0  0
  -23.6310  -32.0950   23.6140 O   0  0  0  0  0  0  0  0  0  0  0  0
  -22.8460  -29.4320   22.3950 C   0  0  0  0  0  0  0  0  0  0  0  0
  -21.5180  -29.2490   22.2640 N   0  0  0  0  0  0  0  0  0  0  0  0
  -23.5150  -28.8150   23.2280 O   0  0  0  0  0  0  0  0  0  0  0  0
  -21.0270  -29.7970   21.5720 H   0  0  0  0  0  0  0  0  0  0  0  0
  -18.1540  -27.9710   22.7740 C   0  0  0  0  0  0  0  0  0  0  0  0
  -20.7110  -28.2850   23.0250 C   0  0  0  0  0  3  0  0  0  0  0  0
  -20.8350  -26.8640   22.4280 C   0  0  0  0  0  2  0  0  0  0  0  0
  -19.7340  -26.5370   21.4150 C   0  0  0  0  0  2  0  0  0  0  0  0
  -18.3530  -26.6410   22.0690 C   0  0  0  0  0  2  0  0  0  0  0  0
  -19.2600  -28.7500   23.2090 C   0  0  0  0  0  0  0  0  0  0  0  0
  -19.0160  -29.9930   23.8350 C   0  0  0  0  0  3  0  0  0  0  0  0
  -17.7010  -30.4570   24.0260 C   0  0  0  0  0  3  0  0  0  0  0  0
  -16.6110  -29.6760   23.6040 C   0  0  0  0  0  3  0  0  0  0  0  0
  -16.8390  -28.4350   22.9850 C   0  0  0  0  0  3  0  0  0  0  0  0
  -25.9840  -32.4750   23.7320 C   0  0  0  0  0  3  0  0  0  0  0  0
  -25.6430  -33.8630   24.1000 N   0  0  0  0  0  0  0  0  0  0  0  0
  -25.9370  -34.9500   23.3730 C   0  0  0  0  0  0  0  0  0  0  0  0
  -26.5790  -34.8900   22.3230 O   0  0  0  0  0  0  0  0  0  0  0  0
  -25.0650  -33.9810   24.9190 H   0  0  0  0  0  0  0  0  0  0  0  0
  -24.1650  -36.7270   23.1400 C   0  0  0  0  0  1  0  0  0  0  0  0
  -25.4440  -36.3190   23.8890 C   0  0  0  0  0  3  0  0  0  0  0  0
  -27.5840  -37.2370   24.6710 C   0  0  0  0  0  1  0  0  0  0  0  0
  -26.4510  -37.3960   23.7640 N   0  0  0  0  0  0  0  0  0  0  0  0
  -26.0310  -38.3060   23.9380 H   0  0  0  0  0  0  0  0  0  0  0  0
  -26.5030  -31.6970   25.0050 C   0  0  1  0  0  0  0  0  0  0  0  0
  -25.4080  -31.4330   26.0660 C   0  0  0  0  0  1  0  0  0  0  0  0
  -27.1080  -30.3310   24.6120 C   0  0  0  0  0  1  0  0  0  0  0  0
  -27.6390  -32.5000   25.6820 C   0  0  0  0  0  1  0  0  0  0  0  0
  1  7  1  0
  1 45  2  0
  2  3  1  0
  2  8  2  0
  4  5  1  0
  4  7  1  0
  5  6  1  6
  5  9  1  0
  5  3  1  0
  7  2  1  0
  9 15  1  0
 10 15  1  0
 11 12  1  0
 11 10  1  0
 13 12  1  0
 13 20  1  0
 13 14  1  0
 15 14  1  0
 16  9  2  0
 17 18  2  0
 18 37  1  0
 19 18  1  0
 19 22  1  0
 20 21  1  0
 20 17  1  0
 21 19  2  0
 22 23  1  0
 23 24  2  0
 25 28  1  0
 25 24  1  0
 26 25  2  0
 27 26  1  0
 27 22  2  0
 28 29  1  0
 29 34  2  0
 29 30  1  0
 30 31  2  0
 31 32  1  0
 32 36  1  0
 33 32  2  0
 34 33  1  0
 35 34  1  0
 37 38  1  0
 38 41  1  0
 38 40  1  0
 39 37  2  0
 42 17  1  0
 42 43  1  0
 44 42  1  0
 45 46  1  0
 47 58  2  0
 48 46  1  0
 48 53  1  0
 49 57  1  0
 49 59  1  0
 50 56  1  0
 50 52  1  0
 51 57  1  0
 52 51  1  0
 53 52  2  0
 54 48  2  0
 55 54  1  0
 55 50  2  0
 56 49  1  0
 57 47  1  0
 59 61  2  0
 60 59  1  0
 62 60  1  0
 63 72  2  0
 63 68  1  0
 64 60  1  0
 64 68  1  0
 65 64  1  0
 66 67  1  0
 66 65  1  0
 67 63  1  0
 68 69  2  0
 69 70  1  0
 71 70  2  0
 72 71  1  0
 73 47  1  0
 73 74  1  0
 73 83  1  0
 74 77  1  0
 75 79  1  0
 75 74  1  0
 76 75  2  0
 79 78  1  0
 81 79  1  0
 81 82  1  0
 81 80  1  0
 83 86  1  1
 83 84  1  0
 85 83  1  0
M  ISO  4   5 100   9 100  45 101  46 101
M  END
>  <TORSDO>  (64) 
F 18

>  <SCORE>  (64) 
-14.415

>  <name>  (64) 
63

>  <ligand_id>  (64) 
63

>  <original_smiles>  (64) 
[H]c1c([H])c([H])c2c(c1[H])C([H])([H])C([H])([H])C([H])([H])C2([H])N([H])C(=O)C1([H])N(C(=O)C([H])(N([H])C(=O)C([H])(N([H])C([H])([H])[H])C([H])([H])[H])C(C([H])([H])[H])(C([H])([H])[H])C([H])([H])[H])C([H])([H])c2c([H])c(OC([H])([H])C([H])([H])N3C(=O)C([H])([H])C(C(=O)N4C([H])([H])C([H])([H])C([H])([H])C([H])(n5nc(-c6c([H])c([H])c(Oc7c([H])c([H])c(F)c([H])c7F)c([H])c6[H])c(C(=O)N([H])[H])c5N([H])[H])C4([H])[H])(C([H])([H])[H])C3([H])[H])c([H])c([H])c2C1([H])[H]

>  <smiles>  (64) 
[H]c1c([H])c([H])c2c(c1[H])C([H])([H])C([H])([H])C([H])([H])C2([H])N([H])C(=O)C1([H])N(C(=O)C([H])(N([H])C(=O)C([H])(N([H])C([H])([H])[H])C([H])([H])[H])C(C([H])([H])[H])(C([H])([H])[H])C([H])([H])[H])C([H])([H])c2c([H])c(OC([H])([H])C([H])([H])N3C(=O)C([H])([H])C(C(=O)N4C([H])([H])C([H])([H])C([H])([H])C([H])(n5nc(-c6c([H])c([H])c(Oc7c([H])c([H])c(F)c([H])c7F)c([H])c6[H])c(C(=O)N([H])[H])c5N([H])[H])C4([H])[H])(C([H])([H])[H])C3([H])[H])c([H])c([H])c2C1([H])[H]

$$$$
64:0:0
     RDKit          3D

 89 97  0  0  1  0  0  0  0  0999 V2000
  -29.4250  -21.5590   20.7940 C   0  0  0  0  0  3  0  0  0  0  0  0
  -29.9000  -20.2460   20.0670 C   0  0  0  0  0  2  0  0  0  0  0  0
  -30.2280  -18.2230   21.8710 C   0  0  0  0  0  3  0  0  0  0  0  0
  -30.6280  -17.1010   20.8970 C   0  0  0  0  0  3  0  0  0  0  0  0
  -29.4820  -18.8660   20.6830 C   0  0  1  0  0  0  0  0  0  0  0  0
  -31.3130  -18.9870   22.6280 C   0  0  0  0  0  1  0  0  0  0  0  0
  -27.9560  -18.7260   20.6750 C   0  0  0  0  0  1  0  0  0  0  0  0
  -29.9610  -17.8000   19.8000 O   0  0  0  0  0  0  0  0  0  0  0  0
  -30.1120  -15.6390   21.1010 C   0  0  0  0  0  2  0  0  0  0  0  0
  -30.7370  -14.5170   20.2130 C   0  0  0  0  0  0  0  0  0  0  0  0
  -30.3830  -12.4230   18.9210 C   0  0  0  0  0  2  0  0  0  0  0  0
  -29.3760  -12.6830   17.7830 C   0  0  0  0  0  2  0  0  0  0  0  0
  -27.9270  -12.5240   18.2810 C   0  0  0  0  0  2  0  0  0  0  0  0
  -27.6620  -13.3130   19.5920 C   0  0  0  0  0  3  0  0  0  0  0  0
  -28.7640  -13.0110   20.6320 C   0  0  0  0  0  2  0  0  0  0  0  0
  -30.0610  -13.3480   20.0230 N   0  0  0  0  0  0  0  0  0  0  0  0
  -31.8160  -14.7300   19.6480 O   0  0  0  0  0  0  0  0  0  0  0  0
  -25.2940  -13.9300   20.3940 C   0  0  0  0  0  0  0  0  0  0  0  0
  -24.2370  -13.1560   20.8000 C   0  0  0  0  0  0  0  0  0  0  0  0
  -24.6920  -11.8040   20.7420 C   0  0  0  0  0  0  0  0  0  0  0  0
  -26.3260  -13.0430   20.1190 N   0  0  0  0  0  0  0  0  0  0  0  0
  -25.9700  -11.7600   20.3820 N   0  0  0  0  0  0  0  0  0  0  0  0
  -23.9690  -10.5420   20.9500 C   0  0  0  0  0  0  0  0  0  0  0  0
  -24.4230   -9.5720   21.8700 C   0  0  0  0  0  3  0  0  0  0  0  0
  -23.6990   -8.3750   22.0640 C   0  0  0  0  0  3  0  0  0  0  0  0
  -22.5070   -8.1410   21.3400 C   0  0  0  0  0  0  0  0  0  0  0  0
  -22.0720   -9.0990   20.4070 C   0  0  0  0  0  3  0  0  0  0  0  0
  -22.7960  -10.2870   20.2100 C   0  0  0  0  0  3  0  0  0  0  0  0
  -21.7530   -6.9970   21.4470 O   0  0  0  0  0  0  0  0  0  0  0  0
  -21.7150   -6.2650   22.6070 C   0  0  0  0  0  0  0  0  0  0  0  0
  -21.3100   -6.8330   23.8350 C   0  0  0  0  0  3  0  0  0  0  0  0
  -21.2180   -6.0280   24.9880 C   0  0  0  0  0  3  0  0  0  0  0  0
  -21.5230   -4.6550   24.9140 C   0  0  0  0  0  0  0  0  0  0  0  0
  -21.9210   -4.0870   23.6920 C   0  0  0  0  0  3  0  0  0  0  0  0
  -22.0140   -4.8880   22.5420 C   0  0  0  0  0  0  0  0  0  0  0  0
  -22.3780   -4.3320   21.3610 F   0  0  0  0  0  0  0  0  0  0  0  0
  -21.4290   -3.8770   26.0190 F   0  0  0  0  0  0  0  0  0  0  0  0
  -22.8540  -13.6340   21.1340 C   0  0  0  0  0  0  0  0  0  0  0  0
  -22.1600  -12.9350   22.0260 N   0  0  0  0  0  0  0  0  0  0  0  0
  -22.3970  -14.6630   20.6380 O   0  0  0  0  0  0  0  0  0  0  0  0
  -22.5410  -12.1000   22.4460 H   0  0  0  0  0  0  0  0  0  0  0  0
  -21.2320  -13.2380   22.2920 H   0  0  0  0  0  0  0  0  0  0  0  0
  -25.4560  -15.3010   20.2210 N   0  0  0  0  0  0  0  0  0  0  0  0
  -24.6960  -15.9590   20.3460 H   0  0  0  0  0  0  0  0  0  0  0  0
  -26.3000  -15.7310   19.8620 H   0  0  0  0  0  0  0  0  0  0  0  0
  -29.3140  -22.8330   19.8830 C   0  0  0  0  0  3  0  0  0  0  0  0
  -28.8490  -24.1720   20.5640 C   0  0  0  0  0  2  0  0  0  0  0  0
  -28.6710  -25.3780   19.5800 C   0  0  0  0  0  2  0  0  0  0  0  0
  -28.4740  -26.6830   20.1980 O   0  0  0  0  0  0  0  0  0  0  0  0
  -24.6050  -31.8720   23.2230 C   0  0  0  0  0  0  0  0  0  0  0  0
  -27.2770  -27.3940   20.1480 C   0  0  0  0  0  0  0  0  0  0  0  0
  -23.4110  -30.4800   21.5620 C   0  0  0  0  0  3  0  0  0  0  0  0
  -24.8760  -28.9360   20.1470 C   0  0  0  0  0  0  0  0  0  0  0  0
  -25.9480  -30.8140   21.4060 C   0  0  0  0  0  2  0  0  0  0  0  0
  -26.0310  -29.4450   20.7520 C   0  0  0  0  0  0  0  0  0  0  0  0
  -27.2250  -28.6800   20.7500 C   0  0  0  0  0  3  0  0  0  0  0  0
  -26.0950  -26.9100   19.5370 C   0  0  0  0  0  3  0  0  0  0  0  0
  -24.9060  -27.6710   19.5380 C   0  0  0  0  0  3  0  0  0  0  0  0
  -23.6330  -29.8000   20.1850 C   0  0  0  0  0  2  0  0  0  0  0  0
  -24.6720  -31.0710   22.1200 N   0  0  0  0  0  0  0  0  0  0  0  0
  -23.5170  -32.1470   23.7500 O   0  0  0  0  0  0  0  0  0  0  0  0
  -22.7450  -29.4610   22.5140 C   0  0  0  0  0  0  0  0  0  0  0  0
  -21.4200  -29.2790   22.3730 N   0  0  0  0  0  0  0  0  0  0  0  0
  -23.4180  -28.8320   23.3340 O   0  0  0  0  0  0  0  0  0  0  0  0
  -20.9350  -29.8320   21.6800 H   0  0  0  0  0  0  0  0  0  0  0  0
  -18.0450  -28.0790   22.8390 C   0  0  0  0  0  0  0  0  0  0  0  0
  -20.6000  -28.3420   23.1380 C   0  0  0  0  0  3  0  0  0  0  0  0
  -20.7110  -26.9110   22.5610 C   0  0  0  0  0  2  0  0  0  0  0  0
  -19.6210  -26.5870   21.5360 C   0  0  0  0  0  2  0  0  0  0  0  0
  -18.2310  -26.7300   22.1630 C   0  0  0  0  0  2  0  0  0  0  0  0
  -19.1570  -28.8420   23.2830 C   0  0  0  0  0  0  0  0  0  0  0  0
  -18.9300  -30.1050   23.8720 C   0  0  0  0  0  3  0  0  0  0  0  0
  -17.6240  -30.6050   24.0230 C   0  0  0  0  0  3  0  0  0  0  0  0
  -16.5250  -29.8390   23.5960 C   0  0  0  0  0  3  0  0  0  0  0  0
  -16.7370  -28.5790   23.0110 C   0  0  0  0  0  3  0  0  0  0  0  0
  -25.8840  -32.5000   23.8560 C   0  0  0  0  0  3  0  0  0  0  0  0
  -25.5750  -33.8960   24.1940 N   0  0  0  0  0  0  0  0  0  0  0  0
  -25.9160  -34.9530   23.4430 C   0  0  0  0  0  0  0  0  0  0  0  0
  -26.5910  -34.8560   22.4140 O   0  0  0  0  0  0  0  0  0  0  0  0
  -24.9730  -34.0500   24.9900 H   0  0  0  0  0  0  0  0  0  0  0  0
  -24.1840  -36.7450   23.0970 C   0  0  0  0  0  1  0  0  0  0  0  0
  -25.4250  -36.3370   23.9070 C   0  0  0  0  0  3  0  0  0  0  0  0
  -27.5570  -37.2160   24.7510 C   0  0  0  0  0  1  0  0  0  0  0  0
  -26.4560  -37.3930   23.8060 N   0  0  0  0  0  0  0  0  0  0  0  0
  -26.0470  -38.3100   23.9640 H   0  0  0  0  0  0  0  0  0  0  0  0
  -26.3990  -31.7210   25.1310 C   0  0  1  0  0  0  0  0  0  0  0  0
  -25.3030  -31.4710   26.1900 C   0  0  0  0  0  1  0  0  0  0  0  0
  -26.9920  -30.3480   24.7370 C   0  0  0  0  0  1  0  0  0  0  0  0
  -27.5410  -32.5190   25.8040 C   0  0  0  0  0  1  0  0  0  0  0  0
  2  5  1  0
  2  1  1  0
  3  6  1  0
  4  9  1  0
  4  3  1  0
  5  7  1  1
  5  3  1  0
  8  5  1  0
  8  4  1  0
 10  9  1  0
 11 16  1  0
 12 13  1  0
 12 11  1  0
 14 13  1  0
 14 21  1  0
 14 15  1  0
 16 10  1  0
 16 15  1  0
 17 10  2  0
 18 19  2  0
 19 38  1  0
 20 19  1  0
 20 23  1  0
 21 22  1  0
 21 18  1  0
 22 20  2  0
 23 24  1  0
 24 25  2  0
 26 29  1  0
 26 25  1  0
 27 26  2  0
 28 27  1  0
 28 23  2  0
 29 30  1  0
 30 31  1  0
 31 32  2  0
 33 32  1  0
 33 37  1  0
 34 33  2  0
 35 30  2  0
 35 34  1  0
 36 35  1  0
 38 39  1  0
 39 42  1  0
 39 41  1  0
 40 38  2  0
 43 44  1  0
 43 18  1  0
 45 43  1  0
 46 47  1  0
 46  1  2  0
 48 49  1  0
 48 47  1  0
 50 61  2  0
 51 49  1  0
 51 56  1  0
 52 60  1  0
 52 62  1  0
 53 59  1  0
 53 55  1  0
 54 60  1  0
 55 54  1  0
 56 55  2  0
 57 58  1  0
 57 51  2  0
 58 53  2  0
 59 52  1  0
 60 50  1  0
 62 64  2  0
 63 62  1  0
 65 63  1  0
 66 75  2  0
 66 71  1  0
 67 63  1  0
 67 71  1  0
 68 67  1  0
 69 70  1  0
 69 68  1  0
 70 66  1  0
 71 72  2  0
 72 73  1  0
 74 73  2  0
 75 74  1  0
 76 50  1  0
 76 77  1  0
 76 86  1  0
 77 80  1  0
 78 82  1  0
 78 77  1  0
 79 78  2  0
 82 81  1  0
 84 82  1  0
 84 85  1  0
 84 83  1  0
 86 89  1  1
 86 87  1  0
 88 86  1  0
M  ISO  4   9 100  10 100  48 101  49 101
M  END
>  <TORSDO>  (65) 
F 22

>  <SCORE>  (65) 
-12.650

>  <name>  (65) 
64

>  <ligand_id>  (65) 
64

>  <original_smiles>  (65) 
[H]c1c([H])c([H])c2c(c1[H])C([H])([H])C([H])([H])C([H])([H])C2([H])N([H])C(=O)C1([H])N(C(=O)C([H])(N([H])C(=O)C([H])(N([H])C([H])([H])[H])C([H])([H])[H])C(C([H])([H])[H])(C([H])([H])[H])C([H])([H])[H])C([H])([H])c2c([H])c(OC([H])([H])C([H])([H])C([H])([H])C([H])([H])C([H])([H])C3(C([H])([H])[H])OC([H])(C([H])([H])C(=O)N4C([H])([H])C([H])([H])C([H])([H])C([H])(n5nc(-c6c([H])c([H])c(Oc7c([H])c([H])c(F)c([H])c7F)c([H])c6[H])c(C(=O)N([H])[H])c5N([H])[H])C4([H])[H])C3([H])C([H])([H])[H])c([H])c([H])c2C1([H])[H]

>  <smiles>  (65) 
[H]c1c([H])c([H])c2c(c1[H])C([H])([H])C([H])([H])C([H])([H])C2([H])N([H])C(=O)C1([H])N(C(=O)C([H])(N([H])C(=O)C([H])(N([H])C([H])([H])[H])C([H])([H])[H])C(C([H])([H])[H])(C([H])([H])[H])C([H])([H])[H])C([H])([H])c2c([H])c(OC([H])([H])C([H])([H])C([H])([H])C([H])([H])C([H])([H])C3(C([H])([H])[H])OC([H])(C([H])([H])C(=O)N4C([H])([H])C([H])([H])C([H])([H])C([H])(n5nc(-c6c([H])c([H])c(Oc7c([H])c([H])c(F)c([H])c7F)c([H])c6[H])c(C(=O)N([H])[H])c5N([H])[H])C4([H])[H])C3([H])C([H])([H])[H])c([H])c([H])c2C1([H])[H]

$$$$
65:0:0
     RDKit          3D

 93101  0  0  1  0  0  0  0  0999 V2000
  -30.4110  -22.5750   21.1050 N   0  0  0  0  0  4  0  0  0  0  0  0
  -30.8780  -23.1010   21.8260 H   0  0  0  0  0  0  0  0  0  0  0  0
  -31.1010  -22.3410   20.4080 H   0  0  0  0  0  0  0  0  0  0  0  0
  -29.8960  -21.4080   23.2400 C   0  0  0  0  0  1  0  0  0  0  0  0
  -29.8820  -21.3190   21.6980 C   0  0  0  0  0  3  0  0  0  0  0  0
  -30.6680  -20.0860   21.1730 C   0  0  0  0  0  2  0  0  0  0  0  0
  -31.4400  -16.5650   22.7750 C   0  0  0  0  0  2  0  0  0  0  0  0
  -31.5530  -15.5100   21.6600 C   0  0  0  0  0  2  0  0  0  0  0  0
  -30.0670  -16.8170   20.0110 C   0  0  0  0  0  2  0  0  0  0  0  0
  -31.6240  -18.0020   22.2610 C   0  0  0  0  0  2  0  0  0  0  0  0
  -29.3880  -17.8350   20.9490 C   0  0  0  0  0  2  0  0  0  0  0  0
  -30.3560  -15.4520   20.6850 C   0  0  0  0  0  3  0  0  0  0  0  0
  -30.3270  -18.7130   21.8160 C   0  0  0  0  0  3  0  0  0  0  0  0
  -30.6260  -14.3700   19.6080 C   0  0  0  0  0  0  0  0  0  0  0  0
  -30.1500  -12.2210   18.4830 C   0  0  0  0  0  2  0  0  0  0  0  0
  -29.0760  -12.3760   17.3910 C   0  0  0  0  0  2  0  0  0  0  0  0
  -27.6620  -12.2460   17.9880 C   0  0  0  0  0  2  0  0  0  0  0  0
  -27.4670  -13.1280   19.2500 C   0  0  0  0  0  3  0  0  0  0  0  0
  -28.6360  -12.9210   20.2380 C   0  0  0  0  0  2  0  0  0  0  0  0
  -29.8940  -13.2240   19.5310 N   0  0  0  0  0  0  0  0  0  0  0  0
  -31.5540  -14.5950   18.8240 O   0  0  0  0  0  0  0  0  0  0  0  0
  -25.2030  -13.7750   20.2970 C   0  0  0  0  0  0  0  0  0  0  0  0
  -24.1590  -13.0180   20.7580 C   0  0  0  0  0  0  0  0  0  0  0  0
  -24.5530  -11.6550   20.5850 C   0  0  0  0  0  0  0  0  0  0  0  0
  -26.1730  -12.8740   19.8820 N   0  0  0  0  0  0  0  0  0  0  0  0
  -25.7890  -11.5910   20.1060 N   0  0  0  0  0  0  0  0  0  0  0  0
  -23.8050  -10.4090   20.7960 C   0  0  0  0  0  0  0  0  0  0  0  0
  -24.1430   -9.5110   21.8320 C   0  0  0  0  0  3  0  0  0  0  0  0
  -23.3990   -8.3280   22.0250 C   0  0  0  0  0  3  0  0  0  0  0  0
  -22.3010   -8.0340   21.1820 C   0  0  0  0  0  0  0  0  0  0  0  0
  -21.9840   -8.9210   20.1370 C   0  0  0  0  0  3  0  0  0  0  0  0
  -22.7300  -10.0950   19.9430 C   0  0  0  0  0  3  0  0  0  0  0  0
  -21.5370   -6.8970   21.2780 O   0  0  0  0  0  0  0  0  0  0  0  0
  -21.2320   -6.3350   22.4920 C   0  0  0  0  0  0  0  0  0  0  0  0
  -20.5310   -7.0480   23.4880 C   0  0  0  0  0  3  0  0  0  0  0  0
  -20.1780   -6.4100   24.6930 C   0  0  0  0  0  3  0  0  0  0  0  0
  -20.5150   -5.0600   24.9020 C   0  0  0  0  0  0  0  0  0  0  0  0
  -21.2100   -4.3470   23.9090 C   0  0  0  0  0  3  0  0  0  0  0  0
  -21.5640   -4.9810   22.7060 C   0  0  0  0  0  0  0  0  0  0  0  0
  -22.2140   -4.2840   21.7440 F   0  0  0  0  0  0  0  0  0  0  0  0
  -20.1700   -4.4440   26.0570 F   0  0  0  0  0  0  0  0  0  0  0  0
  -22.8310  -13.5230   21.2430 C   0  0  0  0  0  0  0  0  0  0  0  0
  -22.2340  -12.8440   22.2180 N   0  0  0  0  0  0  0  0  0  0  0  0
  -22.3360  -14.5570   20.7940 O   0  0  0  0  0  0  0  0  0  0  0  0
  -22.6500  -12.0080   22.6010 H   0  0  0  0  0  0  0  0  0  0  0  0
  -21.3490  -13.1650   22.5850 H   0  0  0  0  0  0  0  0  0  0  0  0
  -25.4020  -15.1470   20.1820 N   0  0  0  0  0  0  0  0  0  0  0  0
  -24.6890  -15.8230   20.4330 H   0  0  0  0  0  0  0  0  0  0  0  0
  -26.2320  -15.5740   19.7900 H   0  0  0  0  0  0  0  0  0  0  0  0
  -29.3810  -23.4170   20.4490 C   0  0  0  0  0  2  0  0  0  0  0  0
  -29.7630  -24.9120   20.3550 C   0  0  0  0  0  2  0  0  0  0  0  0
  -28.6610  -25.7050   19.6330 C   0  0  0  0  0  2  0  0  0  0  0  0
  -28.7490  -27.1110   19.8880 O   0  0  0  0  0  0  0  0  0  0  0  0
  -24.7530  -31.7960   23.4270 C   0  0  0  0  0  0  0  0  0  0  0  0
  -27.5550  -27.8020   19.9130 C   0  0  0  0  0  0  0  0  0  0  0  0
  -23.6020  -30.5490   21.6280 C   0  0  0  0  0  3  0  0  0  0  0  0
  -25.1120  -29.2240   20.0590 C   0  0  0  0  0  0  0  0  0  0  0  0
  -26.1170  -31.0010   21.5010 C   0  0  0  0  0  2  0  0  0  0  0  0
  -26.2480  -29.7130   20.7160 C   0  0  0  0  0  0  0  0  0  0  0  0
  -27.4720  -29.0090   20.6410 C   0  0  0  0  0  3  0  0  0  0  0  0
  -26.3990  -27.3360   19.2390 C   0  0  0  0  0  3  0  0  0  0  0  0
  -25.1820  -28.0340   19.3180 C   0  0  0  0  0  3  0  0  0  0  0  0
  -23.8420  -30.0320   20.1850 C   0  0  0  0  0  2  0  0  0  0  0  0
  -24.8410  -31.1230   22.2450 N   0  0  0  0  0  0  0  0  0  0  0  0
  -23.6580  -31.9760   23.9810 O   0  0  0  0  0  0  0  0  0  0  0  0
  -22.9760  -29.4080   22.4620 C   0  0  0  0  0  0  0  0  0  0  0  0
  -21.6720  -29.1600   22.2520 N   0  0  0  0  0  0  0  0  0  0  0  0
  -23.6590  -28.7530   23.2530 O   0  0  0  0  0  0  0  0  0  0  0  0
  -21.1800  -29.7470   21.5940 H   0  0  0  0  0  0  0  0  0  0  0  0
  -18.3540  -27.7530   22.4890 C   0  0  0  0  0  0  0  0  0  0  0  0
  -20.8810  -28.1140   22.8970 C   0  0  0  0  0  3  0  0  0  0  0  0
  -21.0850  -26.7500   22.1970 C   0  0  0  0  0  2  0  0  0  0  0  0
  -20.0440  -26.4690   21.1100 C   0  0  0  0  0  2  0  0  0  0  0  0
  -18.6310  -26.4820   21.7020 C   0  0  0  0  0  2  0  0  0  0  0  0
  -19.4110  -28.5260   23.0370 C   0  0  0  0  0  0  0  0  0  0  0  0
  -19.1000  -29.7170   23.7290 C   0  0  0  0  0  3  0  0  0  0  0  0
  -17.7660  -30.1340   23.8810 C   0  0  0  0  0  3  0  0  0  0  0  0
  -16.7220  -29.3560   23.3510 C   0  0  0  0  0  3  0  0  0  0  0  0
  -17.0160  -28.1670   22.6610 C   0  0  0  0  0  3  0  0  0  0  0  0
  -26.0140  -32.3910   24.1260 C   0  0  0  0  0  3  0  0  0  0  0  0
  -25.7040  -33.7790   24.4910 N   0  0  0  0  0  0  0  0  0  0  0  0
  -26.0690  -34.8520   23.7780 C   0  0  0  0  0  0  0  0  0  0  0  0
  -26.7750  -34.7780   22.7690 O   0  0  0  0  0  0  0  0  0  0  0  0
  -25.0820  -33.9120   25.2750 H   0  0  0  0  0  0  0  0  0  0  0  0
  -24.3670  -36.6670   23.4150 C   0  0  0  0  0  1  0  0  0  0  0  0
  -25.5730  -36.2280   24.2620 C   0  0  0  0  0  3  0  0  0  0  0  0
  -27.6680  -37.0780   25.2170 C   0  0  0  0  0  1  0  0  0  0  0  0
  -26.6160  -37.2760   24.2250 N   0  0  0  0  0  0  0  0  0  0  0  0
  -26.2080  -38.1950   24.3730 H   0  0  0  0  0  0  0  0  0  0  0  0
  -26.4710  -31.5670   25.3930 C   0  0  1  0  0  0  0  0  0  0  0  0
  -25.3250  -31.2790   26.3910 C   0  0  0  0  0  1  0  0  0  0  0  0
  -27.0820  -30.2120   24.9700 C   0  0  0  0  0  1  0  0  0  0  0  0
  -27.5800  -32.3380   26.1470 C   0  0  0  0  0  1  0  0  0  0  0  0
  1  5  1  0
  1  2  1  0
  3  1  1  0
  5  4  1  0
  6  5  1  0
  8  7  1  0
  9 12  1  0
  9 11  1  0
 10  7  1  0
 11 13  1  0
 12 14  1  0
 12  8  1  0
 13  6  1  0
 13 10  1  0
 15 20  1  0
 16 17  1  0
 16 15  1  0
 18 17  1  0
 18 25  1  0
 18 19  1  0
 20 14  1  0
 20 19  1  0
 21 14  2  0
 22 23  2  0
 23 42  1  0
 24 23  1  0
 24 27  1  0
 25 26  1  0
 25 22  1  0
 26 24  2  0
 27 28  1  0
 28 29  2  0
 30 33  1  0
 30 29  1  0
 31 30  2  0
 32 31  1  0
 32 27  2  0
 33 34  1  0
 34 39  2  0
 34 35  1  0
 35 36  2  0
 36 37  1  0
 37 41  1  0
 38 37  2  0
 39 38  1  0
 40 39  1  0
 42 43  1  0
 43 46  1  0
 43 45  1  0
 44 42  2  0
 47 22  1  0
 47 48  1  0
 49 47  1  0
 50  1  1  0
 51 50  1  0
 52 53  1  0
 52 51  1  0
 53 55  1  0
 54 65  2  0
 55 60  1  0
 56 64  1  0
 56 66  1  0
 57 63  1  0
 57 59  1  0
 58 64  1  0
 59 58  1  0
 60 59  2  0
 61 62  1  0
 61 55  2  0
 62 57  2  0
 63 56  1  0
 64 54  1  0
 66 68  2  0
 67 66  1  0
 69 67  1  0
 70 79  2  0
 70 75  1  0
 71 67  1  0
 71 75  1  0
 72 71  1  0
 73 74  1  0
 73 72  1  0
 74 70  1  0
 75 76  2  0
 76 77  1  0
 78 77  2  0
 79 78  1  0
 80 54  1  0
 80 81  1  0
 80 90  1  0
 81 84  1  0
 82 86  1  0
 82 81  1  0
 83 82  2  0
 86 85  1  0
 88 86  1  0
 88 89  1  0
 88 87  1  0
 90 93  1  1
 90 91  1  0
 92 90  1  0
M  ISO  4  12 100  14 100  52 101  53 101
M  END
>  <TORSDO>  (66) 
F 22

>  <SCORE>  (66) 
-9.736

>  <name>  (66) 
65

>  <ligand_id>  (66) 
65

>  <original_smiles>  (66) 
[H]c1c([H])c([H])c2c(c1[H])C([H])([H])C([H])([H])C([H])([H])C2([H])N([H])C(=O)C1([H])N(C(=O)C([H])(N([H])C(=O)C([H])(N([H])C([H])([H])[H])C([H])([H])[H])C(C([H])([H])[H])(C([H])([H])[H])C([H])([H])[H])C([H])([H])c2c([H])c(OC([H])([H])C([H])([H])C([H])([H])[N+]([H])([H])C([H])(C([H])([H])[H])C([H])([H])C3([H])C([H])([H])C([H])([H])C([H])([H])C([H])(C(=O)N4C([H])([H])C([H])([H])C([H])([H])C([H])(n5nc(-c6c([H])c([H])c(Oc7c([H])c([H])c(F)c([H])c7F)c([H])c6[H])c(C(=O)N([H])[H])c5N([H])[H])C4([H])[H])C([H])([H])C3([H])[H])c([H])c([H])c2C1([H])[H]

>  <smiles>  (66) 
[H]c1c([H])c([H])c2c(c1[H])C([H])([H])C([H])([H])C([H])([H])C2([H])N([H])C(=O)C1([H])N(C(=O)C([H])(N([H])C(=O)C([H])(N([H])C([H])([H])[H])C([H])([H])[H])C(C([H])([H])[H])(C([H])([H])[H])C([H])([H])[H])C([H])([H])c2c([H])c(OC([H])([H])C([H])([H])C([H])([H])[N+]([H])([H])C([H])(C([H])([H])[H])C([H])([H])C3([H])C([H])([H])C([H])([H])C([H])([H])C([H])(C(=O)N4C([H])([H])C([H])([H])C([H])([H])C([H])(n5nc(-c6c([H])c([H])c(Oc7c([H])c([H])c(F)c([H])c7F)c([H])c6[H])c(C(=O)N([H])[H])c5N([H])[H])C4([H])[H])C([H])([H])C3([H])[H])c([H])c([H])c2C1([H])[H]

$$$$
66:0:0
     RDKit          3D

 88 96  0  0  1  0  0  0  0  0999 V2000
  -28.3550  -21.8100   21.3260 C   0  0  0  0  0  2  0  0  0  0  0  0
  -27.6810  -24.3920   21.0170 C   0  0  0  0  0  2  0  0  0  0  0  0
  -29.3370  -23.2560   19.4650 C   0  0  0  0  0  2  0  0  0  0  0  0
  -27.2250  -22.9180   21.3180 C   0  0  0  0  0  3  0  0  0  0  0  0
  -29.0290  -21.5850   19.9460 C   0  0  0  0  0  3  0  0  0  0  0  0
  -28.2460  -24.6310   19.5950 C   0  0  0  0  0  3  0  0  0  0  0  0
  -26.4210  -22.9060   22.6380 C   0  0  0  0  0  1  0  0  0  0  0  0
  -30.5790  -19.0170   20.1040 C   0  0  0  0  0  0  0  0  0  0  0  0
  -32.0770  -18.9960   19.8010 C   0  0  0  0  0  1  0  0  0  0  0  0
  -30.1790  -20.3850   19.9640 N   0  0  0  0  0  0  0  0  0  0  0  0
  -30.0970  -17.3270   20.4610 C   0  0  0  0  0  2  0  0  0  0  0  0
  -30.9340  -15.7690   20.2480 C   0  0  0  0  0  0  0  0  0  0  0  0
  -30.9630  -13.3010   19.3950 C   0  0  0  0  0  2  0  0  0  0  0  0
  -30.0440  -13.0910   18.1610 C   0  0  0  0  0  2  0  0  0  0  0  0
  -28.6040  -12.7750   18.6040 C   0  0  0  0  0  2  0  0  0  0  0  0
  -28.1330  -13.7410   19.7160 C   0  0  0  0  0  3  0  0  0  0  0  0
  -29.1750  -13.9180   20.8430 C   0  0  0  0  0  2  0  0  0  0  0  0
  -30.4080  -14.4370   20.2280 N   0  0  0  0  0  0  0  0  0  0  0  0
  -32.1440  -15.7580   19.9860 O   0  0  0  0  0  0  0  0  0  0  0  0
  -25.7630  -14.2760   20.4820 C   0  0  0  0  0  0  0  0  0  0  0  0
  -24.7000  -13.4880   20.8320 C   0  0  0  0  0  0  0  0  0  0  0  0
  -25.1680  -12.1380   20.7720 C   0  0  0  0  0  0  0  0  0  0  0  0
  -26.8060  -13.4090   20.2210 N   0  0  0  0  0  0  0  0  0  0  0  0
  -26.4600  -12.1150   20.4610 N   0  0  0  0  0  0  0  0  0  0  0  0
  -24.4420  -10.8720   20.9350 C   0  0  0  0  0  0  0  0  0  0  0  0
  -24.8230   -9.9230   21.9080 C   0  0  0  0  0  3  0  0  0  0  0  0
  -24.1000   -8.7200   22.0590 C   0  0  0  0  0  3  0  0  0  0  0  0
  -22.9810   -8.4550   21.2330 C   0  0  0  0  0  0  0  0  0  0  0  0
  -22.6210   -9.3930   20.2480 C   0  0  0  0  0  3  0  0  0  0  0  0
  -23.3450  -10.5890   20.0980 C   0  0  0  0  0  3  0  0  0  0  0  0
  -22.2350   -7.2990   21.2870 O   0  0  0  0  0  0  0  0  0  0  0  0
  -22.0370   -6.6220   22.4640 C   0  0  0  0  0  0  0  0  0  0  0  0
  -21.3960   -7.2250   23.5680 C   0  0  0  0  0  3  0  0  0  0  0  0
  -21.1540   -6.4790   24.7380 C   0  0  0  0  0  3  0  0  0  0  0  0
  -21.5360   -5.1250   24.8010 C   0  0  0  0  0  0  0  0  0  0  0  0
  -22.1650   -4.5180   23.7000 C   0  0  0  0  0  3  0  0  0  0  0  0
  -22.4120   -5.2650   22.5360 C   0  0  0  0  0  0  0  0  0  0  0  0
  -23.0000   -4.6700   21.4710 F   0  0  0  0  0  0  0  0  0  0  0  0
  -21.2970   -4.4050   25.9210 F   0  0  0  0  0  0  0  0  0  0  0  0
  -23.3000  -13.9540   21.1100 C   0  0  0  0  0  0  0  0  0  0  0  0
  -22.5750  -13.2430   21.9670 N   0  0  0  0  0  0  0  0  0  0  0  0
  -22.8610  -14.9870   20.6080 O   0  0  0  0  0  0  0  0  0  0  0  0
  -22.9450  -12.4050   22.3900 H   0  0  0  0  0  0  0  0  0  0  0  0
  -21.6360  -13.5410   22.1880 H   0  0  0  0  0  0  0  0  0  0  0  0
  -25.9340  -15.6520   20.3320 N   0  0  0  0  0  0  0  0  0  0  0  0
  -25.1850  -16.3260   20.4400 H   0  0  0  0  0  0  0  0  0  0  0  0
  -26.7930  -16.0720   20.0010 H   0  0  0  0  0  0  0  0  0  0  0  0
  -28.4320  -26.2530   19.3960 O   0  0  0  0  0  0  0  0  0  0  0  0
  -24.8610  -31.7660   23.0910 C   0  0  0  0  0  0  0  0  0  0  0  0
  -27.3950  -27.3150   19.4980 C   0  0  0  0  0  0  0  0  0  0  0  0
  -23.6450  -30.5680   21.3120 C   0  0  0  0  0  3  0  0  0  0  0  0
  -25.0790  -29.1490   19.6970 C   0  0  0  0  0  0  0  0  0  0  0  0
  -26.2050  -30.8210   21.1500 C   0  0  0  0  0  2  0  0  0  0  0  0
  -26.2750  -29.4970   20.3410 C   0  0  0  0  0  0  0  0  0  0  0  0
  -27.4270  -28.6050   20.2160 C   0  0  0  0  0  3  0  0  0  0  0  0
  -26.1710  -27.1200   18.8200 C   0  0  0  0  0  3  0  0  0  0  0  0
  -25.0500  -27.9810   18.9140 C   0  0  0  0  0  3  0  0  0  0  0  0
  -23.8550  -30.0440   19.8660 C   0  0  0  0  0  2  0  0  0  0  0  0
  -24.9270  -31.0730   21.9070 N   0  0  0  0  0  0  0  0  0  0  0  0
  -23.7780  -31.9850   23.6600 O   0  0  0  0  0  0  0  0  0  0  0  0
  -22.9700  -29.4630   22.1650 C   0  0  0  0  0  0  0  0  0  0  0  0
  -21.6380  -29.3120   22.0440 N   0  0  0  0  0  0  0  0  0  0  0  0
  -23.6490  -28.7390   22.8990 O   0  0  0  0  0  0  0  0  0  0  0  0
  -21.1410  -29.9480   21.4390 H   0  0  0  0  0  0  0  0  0  0  0  0
  -18.2520  -28.1150   22.5550 C   0  0  0  0  0  0  0  0  0  0  0  0
  -20.8300  -28.2860   22.7100 C   0  0  0  0  0  3  0  0  0  0  0  0
  -20.8560  -26.9550   21.9220 C   0  0  0  0  0  2  0  0  0  0  0  0
  -19.6940  -26.8170   20.9330 C   0  0  0  0  0  2  0  0  0  0  0  0
  -18.3530  -26.8850   21.6680 C   0  0  0  0  0  2  0  0  0  0  0  0
  -19.4130  -28.7820   23.0300 C   0  0  0  0  0  0  0  0  0  0  0  0
  -19.2590  -29.9430   23.8190 C   0  0  0  0  0  3  0  0  0  0  0  0
  -17.9780  -30.4340   24.1390 C   0  0  0  0  0  3  0  0  0  0  0  0
  -16.8340  -29.7620   23.6760 C   0  0  0  0  0  3  0  0  0  0  0  0
  -16.9710  -28.6030   22.8920 C   0  0  0  0  0  3  0  0  0  0  0  0
  -26.1410  -32.3320   23.7750 C   0  0  0  0  0  3  0  0  0  0  0  0
  -25.8220  -33.6740   24.2940 N   0  0  0  0  0  0  0  0  0  0  0  0
  -26.1320  -34.8260   23.6830 C   0  0  0  0  0  0  0  0  0  0  0  0
  -26.7830  -34.8680   22.6360 O   0  0  0  0  0  0  0  0  0  0  0  0
  -25.2370  -33.7110   25.1160 H   0  0  0  0  0  0  0  0  0  0  0  0
  -24.3860  -36.6370   23.6160 C   0  0  0  0  0  1  0  0  0  0  0  0
  -25.6510  -36.1390   24.3350 C   0  0  0  0  0  3  0  0  0  0  0  0
  -27.7950  -36.9360   25.2300 C   0  0  0  0  0  1  0  0  0  0  0  0
  -26.6740  -37.2090   24.3340 N   0  0  0  0  0  0  0  0  0  0  0  0
  -26.2670  -38.1010   24.5990 H   0  0  0  0  0  0  0  0  0  0  0  0
  -26.6790  -31.4080   24.9390 C   0  0  1  0  0  0  0  0  0  0  0  0
  -25.6020  -31.0430   25.9870 C   0  0  0  0  0  1  0  0  0  0  0  0
  -27.2570  -30.0840   24.3820 C   0  0  0  0  0  1  0  0  0  0  0  0
  -27.8400  -32.1140   25.6790 C   0  0  0  0  0  1  0  0  0  0  0  0
  2  4  1  0
  3  6  1  0
  3  5  1  0
  4  1  1  0
  4  7  1  0
  5 10  1  0
  5  1  1  0
  6 48  1  0
  6  2  1  0
  8 11  1  0
  9  8  1  0
 10  8  2  0
 12 11  1  0
 13 18  1  0
 14 15  1  0
 14 13  1  0
 16 15  1  0
 16 23  1  0
 16 17  1  0
 18 12  1  0
 18 17  1  0
 19 12  2  0
 20 21  2  0
 21 40  1  0
 22 21  1  0
 22 25  1  0
 23 24  1  0
 23 20  1  0
 24 22  2  0
 25 26  1  0
 26 27  2  0
 28 31  1  0
 28 27  1  0
 29 28  2  0
 30 29  1  0
 30 25  2  0
 31 32  1  0
 32 37  2  0
 32 33  1  0
 33 34  2  0
 34 35  1  0
 35 39  1  0
 36 35  2  0
 37 36  1  0
 38 37  1  0
 40 41  1  0
 41 44  1  0
 41 43  1  0
 42 40  2  0
 45 46  1  0
 45 20  1  0
 47 45  1  0
 48 50  1  0
 49 60  2  0
 50 55  1  0
 51 59  1  0
 51 61  1  0
 52 58  1  0
 52 54  1  0
 53 59  1  0
 54 53  1  0
 55 54  2  0
 56 57  1  0
 56 50  2  0
 57 52  2  0
 58 51  1  0
 59 49  1  0
 61 63  2  0
 62 61  1  0
 64 62  1  0
 65 74  2  0
 65 70  1  0
 66 62  1  0
 66 70  1  0
 67 66  1  0
 68 69  1  0
 68 67  1  0
 69 65  1  0
 70 71  2  0
 71 72  1  0
 73 72  2  0
 74 73  1  0
 75 49  1  0
 75 76  1  0
 75 85  1  0
 76 79  1  0
 77 76  1  0
 77 81  1  0
 78 77  2  0
 81 80  1  0
 83 81  1  0
 83 84  1  0
 83 82  1  0
 85 88  1  1
 85 86  1  0
 87 85  1  0
M  ISO  4   6 101  11 100  12 100  48 101
M  END
>  <TORSDO>  (67) 
F 18

>  <SCORE>  (67) 
-12.337

>  <name>  (67) 
66

>  <ligand_id>  (67) 
66

>  <original_smiles>  (67) 
[H]c1c([H])c([H])c2c(c1[H])C([H])([H])C([H])([H])C([H])([H])C2([H])N([H])C(=O)C1([H])N(C(=O)C([H])(N([H])C(=O)C([H])(N([H])C([H])([H])[H])C([H])([H])[H])C(C([H])([H])[H])(C([H])([H])[H])C([H])([H])[H])C([H])([H])c2c([H])c(OC3([H])C([H])([H])C([H])(N=C(C([H])([H])[H])C([H])([H])C(=O)N4C([H])([H])C([H])([H])C([H])([H])C([H])(n5nc(-c6c([H])c([H])c(Oc7c([H])c([H])c(F)c([H])c7F)c([H])c6[H])c(C(=O)N([H])[H])c5N([H])[H])C4([H])[H])C([H])([H])C([H])(C([H])([H])[H])C3([H])[H])c([H])c([H])c2C1([H])[H]

>  <smiles>  (67) 
[H]c1c([H])c([H])c2c(c1[H])C([H])([H])C([H])([H])C([H])([H])C2([H])N([H])C(=O)C1([H])N(C(=O)C([H])(N([H])C(=O)C([H])(N([H])C([H])([H])[H])C([H])([H])[H])C(C([H])([H])[H])(C([H])([H])[H])C([H])([H])[H])C([H])([H])c2c([H])c(OC3([H])C([H])([H])C([H])(N=C(C([H])([H])[H])C([H])([H])C(=O)N4C([H])([H])C([H])([H])C([H])([H])C([H])(n5nc(-c6c([H])c([H])c(Oc7c([H])c([H])c(F)c([H])c7F)c([H])c6[H])c(C(=O)N([H])[H])c5N([H])[H])C4([H])[H])C([H])([H])C([H])(C([H])([H])[H])C3([H])[H])c([H])c([H])c2C1([H])[H]

$$$$
67:0:0
     RDKit          3D

 93101  0  0  1  0  0  0  0  0999 V2000
  -25.4580  -21.7310   19.6200 C   0  0  0  0  0  2  0  0  0  0  0  0
  -26.3060  -21.1450   18.4910 C   0  0  0  0  0  2  0  0  0  0  0  0
  -26.3920  -22.7750   20.2630 C   0  0  0  0  0  3  0  0  0  0  0  0
  -27.7080  -21.1360   19.1080 C   0  0  0  0  0  3  0  0  0  0  0  0
  -26.2800  -22.8650   21.7900 C   0  0  0  0  0  1  0  0  0  0  0  0
  -27.7860  -22.4360   19.8300 N   0  0  1  0  0  4  0  0  0  0  0  0
  -28.3220  -22.2020   20.6560 H   0  0  0  0  0  0  0  0  0  0  0  0
  -27.8010  -19.9460   20.1120 C   0  0  0  0  0  2  0  0  0  0  0  0
  -29.5090  -18.2910   19.9940 C   0  0  0  0  0  0  0  0  0  0  0  0
  -28.7350  -17.3860   19.0420 C   0  0  0  0  0  1  0  0  0  0  0  0
  -29.1490  -19.4600   20.3760 N   0  0  0  0  0  0  0  0  0  0  0  0
  -30.7790  -17.6590   20.5270 C   0  0  0  0  0  2  0  0  0  0  0  0
  -30.4940  -16.3500   21.3310 C   0  0  0  0  0  2  0  0  0  0  0  0
  -31.2180  -15.1130   20.7700 C   0  0  0  0  0  0  0  0  0  0  0  0
  -31.0450  -12.8680   19.7640 C   0  0  0  0  0  2  0  0  0  0  0  0
  -30.1780  -12.9560   18.4950 C   0  0  0  0  0  2  0  0  0  0  0  0
  -28.6820  -12.8020   18.8410 C   0  0  0  0  0  2  0  0  0  0  0  0
  -28.2420  -13.7210   20.0150 C   0  0  0  0  0  3  0  0  0  0  0  0
  -29.2340  -13.6150   21.1970 C   0  0  0  0  0  2  0  0  0  0  0  0
  -30.5830  -13.9130   20.6890 N   0  0  0  0  0  0  0  0  0  0  0  0
  -32.3560  -15.2730   20.3160 O   0  0  0  0  0  0  0  0  0  0  0  0
  -25.8180  -14.3190   20.6480 C   0  0  0  0  0  0  0  0  0  0  0  0
  -24.7280  -13.5370   20.9370 C   0  0  0  0  0  0  0  0  0  0  0  0
  -25.1810  -12.1860   20.8590 C   0  0  0  0  0  0  0  0  0  0  0  0
  -26.8670  -13.4380   20.4240 N   0  0  0  0  0  0  0  0  0  0  0  0
  -26.4840  -12.1490   20.6030 N   0  0  0  0  0  0  0  0  0  0  0  0
  -24.4360  -10.9250   20.9620 C   0  0  0  0  0  0  0  0  0  0  0  0
  -24.7920   -9.9350   21.9040 C   0  0  0  0  0  3  0  0  0  0  0  0
  -24.0520   -8.7350   21.9950 C   0  0  0  0  0  3  0  0  0  0  0  0
  -22.9400   -8.5210   21.1450 C   0  0  0  0  0  0  0  0  0  0  0  0
  -22.6040   -9.5000   20.1960 C   0  0  0  0  0  3  0  0  0  0  0  0
  -23.3430  -10.6910   20.1040 C   0  0  0  0  0  3  0  0  0  0  0  0
  -22.1770   -7.3770   21.1490 O   0  0  0  0  0  0  0  0  0  0  0  0
  -21.9600   -6.6580   22.2980 C   0  0  0  0  0  0  0  0  0  0  0  0
  -21.3470   -7.2350   23.4320 C   0  0  0  0  0  3  0  0  0  0  0  0
  -21.0800   -6.4440   24.5660 C   0  0  0  0  0  3  0  0  0  0  0  0
  -21.4110   -5.0750   24.5640 C   0  0  0  0  0  0  0  0  0  0  0  0
  -22.0140   -4.4970   23.4330 C   0  0  0  0  0  3  0  0  0  0  0  0
  -22.2850   -5.2870   22.3010 C   0  0  0  0  0  0  0  0  0  0  0  0
  -22.8470   -4.7200   21.2050 F   0  0  0  0  0  0  0  0  0  0  0  0
  -21.1460   -4.3150   25.6510 F   0  0  0  0  0  0  0  0  0  0  0  0
  -23.3260  -14.0170   21.1750 C   0  0  0  0  0  0  0  0  0  0  0  0
  -22.5600  -13.3010   21.9910 N   0  0  0  0  0  0  0  0  0  0  0  0
  -22.9180  -15.0630   20.6730 O   0  0  0  0  0  0  0  0  0  0  0  0
  -22.8960  -12.4540   22.4270 H   0  0  0  0  0  0  0  0  0  0  0  0
  -21.6160  -13.6070   22.1800 H   0  0  0  0  0  0  0  0  0  0  0  0
  -25.9990  -15.6920   20.5420 N   0  0  0  0  0  0  0  0  0  0  0  0
  -25.2410  -16.3520   20.6700 H   0  0  0  0  0  0  0  0  0  0  0  0
  -26.8800  -16.1350   20.3220 H   0  0  0  0  0  0  0  0  0  0  0  0
  -28.5900  -23.5330   19.1730 C   0  0  0  0  0  3  0  0  0  0  0  0
  -27.7880  -24.7570   18.6370 C   0  0  0  0  0  3  0  0  0  0  0  0
  -28.5850  -25.9900   18.1300 C   0  0  0  0  0  2  0  0  0  0  0  0
  -28.4810  -27.1690   18.9510 O   0  0  0  0  0  0  0  0  0  0  0  0
  -24.6410  -31.4980   23.1000 C   0  0  0  0  0  0  0  0  0  0  0  0
  -27.2740  -27.8320   19.0990 C   0  0  0  0  0  0  0  0  0  0  0  0
  -23.3990  -30.3880   21.2730 C   0  0  0  0  0  3  0  0  0  0  0  0
  -24.8300  -29.2090   19.5180 C   0  0  0  0  0  0  0  0  0  0  0  0
  -25.9030  -30.8680   21.0460 C   0  0  0  0  0  2  0  0  0  0  0  0
  -25.9970  -29.6460   20.1540 C   0  0  0  0  0  0  0  0  0  0  0  0
  -27.2150  -28.9570   19.9550 C   0  0  0  0  0  3  0  0  0  0  0  0
  -26.0870  -27.4300   18.4400 C   0  0  0  0  0  3  0  0  0  0  0  0
  -24.8680  -28.0980   18.6620 C   0  0  0  0  0  3  0  0  0  0  0  0
  -23.5640  -29.9920   19.7810 C   0  0  0  0  0  2  0  0  0  0  0  0
  -24.6680  -30.9230   21.8650 N   0  0  0  0  0  0  0  0  0  0  0  0
  -23.5790  -31.6200   23.7270 O   0  0  0  0  0  0  0  0  0  0  0  0
  -22.8270  -29.1770   22.0440 C   0  0  0  0  0  0  0  0  0  0  0  0
  -21.5100  -28.9530   21.9140 N   0  0  0  0  0  0  0  0  0  0  0  0
  -23.5650  -28.4480   22.7130 O   0  0  0  0  0  0  0  0  0  0  0  0
  -20.9730  -29.5990   21.3500 H   0  0  0  0  0  0  0  0  0  0  0  0
  -18.2220  -27.4860   22.2150 C   0  0  0  0  0  0  0  0  0  0  0  0
  -20.7620  -27.8520   22.5210 C   0  0  0  0  0  3  0  0  0  0  0  0
  -20.9460  -26.5450   21.7150 C   0  0  0  0  0  2  0  0  0  0  0  0
  -19.8520  -26.3270   20.6650 C   0  0  0  0  0  2  0  0  0  0  0  0
  -18.4720  -26.2800   21.3250 C   0  0  0  0  0  2  0  0  0  0  0  0
  -19.2980  -28.2320   22.7640 C   0  0  0  0  0  0  0  0  0  0  0  0
  -19.0110  -29.3670   23.5560 C   0  0  0  0  0  3  0  0  0  0  0  0
  -17.6820  -29.7540   23.8050 C   0  0  0  0  0  3  0  0  0  0  0  0
  -16.6200  -29.0010   23.2700 C   0  0  0  0  0  3  0  0  0  0  0  0
  -16.8910  -27.8690   22.4810 C   0  0  0  0  0  3  0  0  0  0  0  0
  -25.9350  -32.0500   23.7760 C   0  0  0  0  0  3  0  0  0  0  0  0
  -25.6300  -33.3960   24.2740 N   0  0  0  0  0  0  0  0  0  0  0  0
  -25.9820  -34.5330   23.6580 C   0  0  0  0  0  0  0  0  0  0  0  0
  -26.6690  -34.5560   22.6330 O   0  0  0  0  0  0  0  0  0  0  0  0
  -25.0240  -33.4540   25.0790 H   0  0  0  0  0  0  0  0  0  0  0  0
  -24.2860  -36.3830   23.4890 C   0  0  0  0  0  1  0  0  0  0  0  0
  -25.4970  -35.8580   24.2770 C   0  0  0  0  0  3  0  0  0  0  0  0
  -27.6140  -36.5970   25.2820 C   0  0  0  0  0  1  0  0  0  0  0  0
  -26.5460  -36.9000   24.3330 N   0  0  0  0  0  0  0  0  0  0  0  0
  -26.1450  -37.8010   24.5810 H   0  0  0  0  0  0  0  0  0  0  0  0
  -26.4690  -31.1270   24.9380 C   0  0  1  0  0  0  0  0  0  0  0  0
  -25.3940  -30.7720   25.9900 C   0  0  0  0  0  1  0  0  0  0  0  0
  -27.0310  -29.8020   24.3690 C   0  0  0  0  0  1  0  0  0  0  0  0
  -27.6380  -31.8300   25.6650 C   0  0  0  0  0  1  0  0  0  0  0  0
  1  3  1  0
  2  4  1  0
  2  1  1  0
  3  5  1  0
  4  6  1  0
  4  8  1  0
  6  3  1  0
  6  7  1  1
  8 11  1  0
  9 11  2  0
  9 12  1  0
 10  9  1  0
 12 13  1  0
 14 13  1  0
 15 20  1  0
 16 17  1  0
 16 15  1  0
 18 17  1  0
 18 25  1  0
 18 19  1  0
 20 14  1  0
 20 19  1  0
 21 14  2  0
 22 23  2  0
 23 42  1  0
 24 23  1  0
 24 27  1  0
 25 26  1  0
 25 22  1  0
 26 24  2  0
 27 28  1  0
 28 29  2  0
 30 33  1  0
 30 29  1  0
 31 30  2  0
 32 31  1  0
 32 27  2  0
 33 34  1  0
 34 39  2  0
 34 35  1  0
 35 36  2  0
 37 36  1  0
 37 41  1  0
 38 37  2  0
 39 38  1  0
 40 39  1  0
 42 43  1  0
 43 46  1  0
 43 45  1  0
 44 42  2  0
 47 22  1  0
 47 48  1  0
 49 47  1  0
 50  6  1  0
 51 50  2  0
 52 51  1  0
 52 53  1  0
 53 55  1  0
 54 65  2  0
 55 60  1  0
 56 64  1  0
 56 66  1  0
 57 63  1  0
 57 59  1  0
 58 64  1  0
 59 58  1  0
 60 59  2  0
 61 62  1  0
 61 55  2  0
 62 57  2  0
 63 56  1  0
 64 54  1  0
 66 68  2  0
 67 66  1  0
 69 67  1  0
 70 79  2  0
 70 75  1  0
 71 67  1  0
 71 75  1  0
 72 71  1  0
 73 74  1  0
 73 72  1  0
 74 70  1  0
 75 76  2  0
 76 77  1  0
 78 77  2  0
 79 78  1  0
 80 54  1  0
 80 81  1  0
 80 90  1  0
 81 84  1  0
 82 81  1  0
 82 86  1  0
 83 82  2  0
 86 85  1  0
 86 88  1  0
 88 89  1  0
 88 87  1  0
 90 93  1  1
 90 91  1  0
 92 90  1  0
M  ISO  4  13 100  14 100  52 101  53 101
M  END
>  <TORSDO>  (68) 
F 23

>  <SCORE>  (68) 
-9.811

>  <name>  (68) 
67

>  <ligand_id>  (68) 
67

>  <original_smiles>  (68) 
[H]c1c([H])c([H])c2c(c1[H])C([H])([H])C([H])([H])C([H])([H])C2([H])N([H])C(=O)C1([H])N(C(=O)C([H])(N([H])C(=O)C([H])(N([H])C([H])([H])[H])C([H])([H])[H])C(C([H])([H])[H])(C([H])([H])[H])C([H])([H])[H])C([H])([H])c2c([H])c(OC([H])([H])C([H])([H])C([H])([H])[N+]3([H])C([H])(C([H])([H])[H])C([H])([H])C([H])([H])C3([H])C([H])([H])N=C(C([H])([H])[H])C([H])([H])C([H])([H])C(=O)N3C([H])([H])C([H])([H])C([H])([H])C([H])(n4nc(-c5c([H])c([H])c(Oc6c([H])c([H])c(F)c([H])c6F)c([H])c5[H])c(C(=O)N([H])[H])c4N([H])[H])C3([H])[H])c([H])c([H])c2C1([H])[H]

>  <smiles>  (68) 
[H]c1c([H])c([H])c2c(c1[H])C([H])([H])C([H])([H])C([H])([H])C2([H])N([H])C(=O)C1([H])N(C(=O)C([H])(N([H])C(=O)C([H])(N([H])C([H])([H])[H])C([H])([H])[H])C(C([H])([H])[H])(C([H])([H])[H])C([H])([H])[H])C([H])([H])c2c([H])c(OC([H])([H])C([H])([H])C([H])([H])[N+]3([H])C([H])(C([H])([H])[H])C([H])([H])C([H])([H])C3([H])C([H])([H])N=C(C([H])([H])[H])C([H])([H])C([H])([H])C(=O)N3C([H])([H])C([H])([H])C([H])([H])C([H])(n4nc(-c5c([H])c([H])c(Oc6c([H])c([H])c(F)c([H])c6F)c([H])c5[H])c(C(=O)N([H])[H])c4N([H])[H])C3([H])[H])c([H])c([H])c2C1([H])[H]

$$$$
68:0:0
     RDKit          3D

 94102  0  0  1  0  0  0  0  0999 V2000
  -31.8840  -20.3730   20.0760 C   0  0  0  0  0  1  0  0  0  0  0  0
  -30.6810  -19.8800   19.3590 N   0  0  1  0  0  4  0  0  0  0  0  0
  -29.9590  -19.7680   20.0570 H   0  0  0  0  0  0  0  0  0  0  0  0
  -30.1630  -20.9240   18.4020 C   0  0  0  0  0  2  0  0  0  0  0  0
  -29.1750  -21.9610   19.0510 C   0  0  0  0  0  2  0  0  0  0  0  0
  -28.9730  -23.3380   18.3200 C   0  0  0  0  0  2  0  0  0  0  0  0
  -27.9820  -24.3220   19.0350 C   0  0  0  0  0  2  0  0  0  0  0  0
  -28.3320  -25.8460   19.1190 C   0  0  0  0  0  2  0  0  0  0  0  0
  -27.7430  -26.7200   18.1410 O   0  0  0  0  0  0  0  0  0  0  0  0
  -24.4510  -31.2800   22.6400 C   0  0  0  0  0  0  0  0  0  0  0  0
  -26.6380  -27.4620   18.5100 C   0  0  0  0  0  0  0  0  0  0  0  0
  -23.0490  -30.2400   20.8890 C   0  0  0  0  0  3  0  0  0  0  0  0
  -24.3100  -28.9850   19.0580 C   0  0  0  0  0  0  0  0  0  0  0  0
  -25.5560  -30.5910   20.5100 C   0  0  0  0  0  2  0  0  0  0  0  0
  -25.5380  -29.3610   19.6200 C   0  0  0  0  0  0  0  0  0  0  0  0
  -26.7070  -28.6050   19.3490 C   0  0  0  0  0  3  0  0  0  0  0  0
  -25.3960  -27.1130   17.9460 C   0  0  0  0  0  3  0  0  0  0  0  0
  -24.2340  -27.8580   18.2220 C   0  0  0  0  0  3  0  0  0  0  0  0
  -23.1050  -29.8380   19.3910 C   0  0  0  0  0  2  0  0  0  0  0  0
  -24.3760  -30.7080   21.4040 N   0  0  0  0  0  0  0  0  0  0  0  0
  -23.4370  -31.4540   23.3300 O   0  0  0  0  0  0  0  0  0  0  0  0
  -22.4610  -29.0610   21.6970 C   0  0  0  0  0  0  0  0  0  0  0  0
  -21.1230  -28.9400   21.6970 N   0  0  0  0  0  0  0  0  0  0  0  0
  -23.2000  -28.2640   22.2790 O   0  0  0  0  0  0  0  0  0  0  0  0
  -20.5840  -29.6380   21.2040 H   0  0  0  0  0  0  0  0  0  0  0  0
  -17.7720  -27.7940   22.4200 C   0  0  0  0  0  0  0  0  0  0  0  0
  -20.3550  -27.8830   22.3550 C   0  0  0  0  0  3  0  0  0  0  0  0
  -20.2740  -26.6190   21.4680 C   0  0  0  0  0  2  0  0  0  0  0  0
  -19.0230  -26.5810   20.5840 C   0  0  0  0  0  2  0  0  0  0  0  0
  -17.7570  -26.6290   21.4440 C   0  0  0  0  0  2  0  0  0  0  0  0
  -18.9900  -28.3930   22.8350 C   0  0  0  0  0  0  0  0  0  0  0  0
  -18.9460  -29.4950   23.7160 C   0  0  0  0  0  3  0  0  0  0  0  0
  -17.7160  -29.9960   24.1820 C   0  0  0  0  0  3  0  0  0  0  0  0
  -16.5130  -29.3900   23.7780 C   0  0  0  0  0  3  0  0  0  0  0  0
  -16.5430  -28.2900   22.9030 C   0  0  0  0  0  3  0  0  0  0  0  0
  -25.8110  -31.7620   23.2360 C   0  0  0  0  0  3  0  0  0  0  0  0
  -26.4080  -30.7690   24.3070 C   0  0  1  0  0  0  0  0  0  0  0  0
  -25.4070  -30.3800   25.4200 C   0  0  0  0  0  1  0  0  0  0  0  0
  -26.8930  -29.4650   23.6310 C   0  0  0  0  0  1  0  0  0  0  0  0
  -27.6460  -31.4050   24.9800 C   0  0  0  0  0  1  0  0  0  0  0  0
  -25.5900  -33.0890   23.8260 N   0  0  0  0  0  0  0  0  0  0  0  0
  -25.9500  -34.2450   23.2510 C   0  0  0  0  0  0  0  0  0  0  0  0
  -26.5730  -34.3000   22.1880 O   0  0  0  0  0  0  0  0  0  0  0  0
  -25.0380  -33.1230   24.6690 H   0  0  0  0  0  0  0  0  0  0  0  0
  -24.3370  -36.1740   23.2730 C   0  0  0  0  0  1  0  0  0  0  0  0
  -25.5550  -35.5490   23.9720 C   0  0  0  0  0  3  0  0  0  0  0  0
  -27.7370  -36.1350   24.9320 C   0  0  0  0  0  1  0  0  0  0  0  0
  -26.6510  -36.5380   24.0420 N   0  0  0  0  0  0  0  0  0  0  0  0
  -26.3030  -37.4390   24.3550 H   0  0  0  0  0  0  0  0  0  0  0  0
  -30.8690  -18.4920   18.7920 C   0  0  0  0  0  2  0  0  0  0  0  0
  -31.3490  -17.4100   19.8390 C   0  0  0  0  0  3  0  0  0  0  0  0
  -30.9880  -18.9900   23.8830 C   0  0  0  0  0  3  0  0  0  0  0  0
  -29.8300  -18.7120   23.1320 C   0  0  0  0  0  3  0  0  0  0  0  0
  -32.2590  -18.7560   23.3270 C   0  0  0  0  0  3  0  0  0  0  0  0
  -29.9440  -18.2050   21.8230 C   0  0  0  0  0  3  0  0  0  0  0  0
  -32.3750  -18.2480   22.0190 C   0  0  0  0  0  3  0  0  0  0  0  0
  -31.2180  -17.9750   21.2540 C   0  0  0  0  0  0  0  0  0  0  0  0
  -30.6040  -16.0210   19.7990 C   0  0  0  0  0  2  0  0  0  0  0  0
  -31.2720  -14.7580   19.1730 C   0  0  0  0  0  0  0  0  0  0  0  0
  -31.0060  -12.3630   18.5460 C   0  0  0  0  0  2  0  0  0  0  0  0
  -29.9410  -12.2290   17.4370 C   0  0  0  0  0  2  0  0  0  0  0  0
  -28.5190  -12.1650   18.0320 C   0  0  0  0  0  2  0  0  0  0  0  0
  -28.2620  -13.2800   19.0780 C   0  0  0  0  0  3  0  0  0  0  0  0
  -29.4190  -13.3350   20.1000 C   0  0  0  0  0  2  0  0  0  0  0  0
  -30.6700  -13.5470   19.3540 N   0  0  0  0  0  0  0  0  0  0  0  0
  -32.2990  -14.8790   18.4970 O   0  0  0  0  0  0  0  0  0  0  0  0
  -26.0580  -14.0890   20.1360 C   0  0  0  0  0  0  0  0  0  0  0  0
  -24.9750  -13.4090   20.6260 C   0  0  0  0  0  0  0  0  0  0  0  0
  -25.2860  -12.0210   20.4880 C   0  0  0  0  0  0  0  0  0  0  0  0
  -26.9650  -13.1200   19.7320 N   0  0  0  0  0  0  0  0  0  0  0  0
  -26.5100  -11.8690   19.9990 N   0  0  0  0  0  0  0  0  0  0  0  0
  -24.4660  -10.8300   20.7360 C   0  0  0  0  0  0  0  0  0  0  0  0
  -24.8560   -9.8490   21.6740 C   0  0  0  0  0  3  0  0  0  0  0  0
  -24.0430   -8.7190   21.9100 C   0  0  0  0  0  3  0  0  0  0  0  0
  -22.8240   -8.5640   21.2080 C   0  0  0  0  0  0  0  0  0  0  0  0
  -22.4510   -9.5320   20.2580 C   0  0  0  0  0  3  0  0  0  0  0  0
  -23.2650  -10.6530   20.0210 C   0  0  0  0  0  3  0  0  0  0  0  0
  -21.9820   -7.4870   21.3510 O   0  0  0  0  0  0  0  0  0  0  0  0
  -21.8330   -6.8470   22.5560 C   0  0  0  0  0  0  0  0  0  0  0  0
  -21.3350   -7.5140   23.6970 C   0  0  0  0  0  3  0  0  0  0  0  0
  -21.1320   -6.8000   24.8950 C   0  0  0  0  0  3  0  0  0  0  0  0
  -21.4150   -5.4220   24.9530 C   0  0  0  0  0  0  0  0  0  0  0  0
  -21.9050   -4.7560   23.8150 C   0  0  0  0  0  3  0  0  0  0  0  0
  -22.1100   -5.4670   22.6190 C   0  0  0  0  0  0  0  0  0  0  0  0
  -22.5620   -4.8160   21.5200 F   0  0  0  0  0  0  0  0  0  0  0  0
  -21.2120   -4.7350   26.1010 F   0  0  0  0  0  0  0  0  0  0  0  0
  -23.6850  -14.0080   21.1080 C   0  0  0  0  0  0  0  0  0  0  0  0
  -23.0280  -13.3610   22.0640 N   0  0  0  0  0  0  0  0  0  0  0  0
  -23.2760  -15.0820   20.6700 O   0  0  0  0  0  0  0  0  0  0  0  0
  -23.3730  -12.4890   22.4370 H   0  0  0  0  0  0  0  0  0  0  0  0
  -22.1660  -13.7430   22.4280 H   0  0  0  0  0  0  0  0  0  0  0  0
  -26.3380  -15.4440   19.9800 N   0  0  0  0  0  0  0  0  0  0  0  0
  -25.6640  -16.1640   20.2100 H   0  0  0  0  0  0  0  0  0  0  0  0
  -27.1720  -15.8080   19.5380 H   0  0  0  0  0  0  0  0  0  0  0  0
  2  3  1  1
  2  1  1  0
  4  5  1  0
  4  2  1  0
  6  7  1  0
  6  5  1  0
  7  8  1  0
  9 11  1  0
  9  8  1  0
 10 21  2  0
 11 16  1  0
 12 20  1  0
 12 22  1  0
 13 19  1  0
 13 15  1  0
 14 20  1  0
 15 14  1  0
 16 15  2  0
 17 18  1  0
 17 11  2  0
 18 13  2  0
 19 12  1  0
 20 10  1  0
 22 23  1  0
 22 24  2  0
 25 23  1  0
 26 31  2  0
 26 35  1  0
 27 23  1  0
 27 31  1  0
 28 27  1  0
 29 30  1  0
 29 28  1  0
 30 26  1  0
 31 32  1  0
 32 33  2  0
 34 33  1  0
 35 34  2  0
 36 10  1  0
 36 41  1  0
 36 37  1  0
 37 40  1  1
 37 38  1  0
 39 37  1  0
 41 44  1  0
 42 41  1  0
 42 46  1  0
 43 42  2  0
 46 45  1  0
 46 48  1  0
 48 49  1  0
 48 47  1  0
 50  2  1  0
 51 50  1  0
 51 57  1  0
 53 52  2  0
 54 52  1  0
 55 53  1  0
 56 54  2  0
 57 55  2  0
 57 56  1  0
 58 51  1  0
 59 65  1  0
 59 58  1  0
 60 65  1  0
 61 62  1  0
 61 60  1  0
 63 62  1  0
 63 70  1  0
 63 64  1  0
 65 64  1  0
 66 59  2  0
 67 68  2  0
 68 87  1  0
 69 68  1  0
 69 72  1  0
 70 71  1  0
 70 67  1  0
 71 69  2  0
 72 73  1  0
 73 74  2  0
 75 78  1  0
 75 74  1  0
 76 75  2  0
 77 76  1  0
 77 72  2  0
 78 79  1  0
 79 84  2  0
 79 80  1  0
 80 81  2  0
 81 82  1  0
 82 86  1  0
 83 82  2  0
 84 83  1  0
 85 84  1  0
 87 88  1  0
 88 91  1  0
 88 90  1  0
 89 87  2  0
 92 67  1  0
 92 93  1  0
 94 92  1  0
M  ISO  4   8 101   9 101  58 100  59 100
M  END
>  <TORSDO>  (69) 
F 25

>  <SCORE>  (69) 
-5.943

>  <name>  (69) 
68

>  <ligand_id>  (69) 
68

>  <original_smiles>  (69) 
[H]c1c([H])c([H])c(C([H])(C([H])([H])C(=O)N2C([H])([H])C([H])([H])C([H])([H])C([H])(n3nc(-c4c([H])c([H])c(Oc5c([H])c([H])c(F)c([H])c5F)c([H])c4[H])c(C(=O)N([H])[H])c3N([H])[H])C2([H])[H])C([H])([H])[N+]([H])(C([H])([H])[H])C([H])([H])C([H])([H])C([H])([H])C([H])([H])C([H])([H])Oc2c([H])c([H])c3c(c2[H])C([H])([H])N(C(=O)C([H])(N([H])C(=O)C([H])(N([H])C([H])([H])[H])C([H])([H])[H])C(C([H])([H])[H])(C([H])([H])[H])C([H])([H])[H])C([H])(C(=O)N([H])C2([H])c4c([H])c([H])c([H])c([H])c4C([H])([H])C([H])([H])C2([H])[H])C3([H])[H])c([H])c1[H]

>  <smiles>  (69) 
[H]c1c([H])c([H])c(C([H])(C([H])([H])C(=O)N2C([H])([H])C([H])([H])C([H])([H])C([H])(n3nc(-c4c([H])c([H])c(Oc5c([H])c([H])c(F)c([H])c5F)c([H])c4[H])c(C(=O)N([H])[H])c3N([H])[H])C2([H])[H])C([H])([H])[N+]([H])(C([H])([H])[H])C([H])([H])C([H])([H])C([H])([H])C([H])([H])C([H])([H])Oc2c([H])c([H])c3c(c2[H])C([H])([H])N(C(=O)C([H])(N([H])C(=O)C([H])(N([H])C([H])([H])[H])C([H])([H])[H])C(C([H])([H])[H])(C([H])([H])[H])C([H])([H])[H])C([H])(C(=O)N([H])C2([H])c4c([H])c([H])c([H])c([H])c4C([H])([H])C([H])([H])C2([H])[H])C3([H])[H])c([H])c1[H]

$$$$
69:0:0
     RDKit          3D

 95102  0  0  1  0  0  0  0  0999 V2000
  -29.2660  -23.2920   21.1760 C   0  0  0  0  0  2  0  0  0  0  0  0
  -29.0760  -21.9130   20.5010 C   0  0  0  0  0  2  0  0  0  0  0  0
  -30.3060  -20.9970   20.6600 C   0  0  0  0  0  2  0  0  0  0  0  0
  -30.2800  -19.7400   19.7630 C   0  0  0  0  0  2  0  0  0  0  0  0
  -29.6300  -17.3500   19.9230 C   0  0  0  0  0  0  0  0  0  0  0  0
  -29.8790  -18.5380   20.4910 N   0  0  0  0  0  0  0  0  0  0  0  0
  -29.5280  -17.2080   18.7030 O   0  0  0  0  0  0  0  0  0  0  0  0
  -29.9180  -18.5750   21.5010 H   0  0  0  0  0  0  0  0  0  0  0  0
  -29.4770  -16.1370   20.8580 C   0  0  0  0  0  2  0  0  0  0  0  0
  -30.6770  -14.3250   22.2310 C   0  0  0  0  0  1  0  0  0  0  0  0
  -32.0130  -15.9800   20.9820 C   0  0  0  0  0  1  0  0  0  0  0  0
  -30.6940  -15.1510   20.9080 C   0  0  2  0  0  0  0  0  0  0  0  0
  -30.7500  -14.2190   19.6470 C   0  0  0  0  0  0  0  0  0  0  0  0
  -30.1980  -12.1170   18.4580 C   0  0  0  0  0  2  0  0  0  0  0  0
  -29.1110  -12.2980   17.3840 C   0  0  0  0  0  2  0  0  0  0  0  0
  -27.7100  -12.1440   18.0030 C   0  0  0  0  0  2  0  0  0  0  0  0
  -27.5350  -13.0200   19.2690 C   0  0  0  0  0  3  0  0  0  0  0  0
  -28.7150  -12.8240   20.2420 C   0  0  0  0  0  2  0  0  0  0  0  0
  -29.9720  -13.1050   19.5280 N   0  0  0  0  0  0  0  0  0  0  0  0
  -31.6000  -14.4800   18.7880 O   0  0  0  0  0  0  0  0  0  0  0  0
  -25.2720  -13.6670   20.3130 C   0  0  0  0  0  0  0  0  0  0  0  0
  -24.2490  -12.9100   20.8190 C   0  0  0  0  0  0  0  0  0  0  0  0
  -24.6710  -11.5510   20.7060 C   0  0  0  0  0  0  0  0  0  0  0  0
  -26.2540  -12.7680   19.9250 N   0  0  0  0  0  0  0  0  0  0  0  0
  -25.9020  -11.4900   20.2160 N   0  0  0  0  0  0  0  0  0  0  0  0
  -23.9520  -10.3000   20.9830 C   0  0  0  0  0  0  0  0  0  0  0  0
  -24.4410   -9.3570   21.9140 C   0  0  0  0  0  3  0  0  0  0  0  0
  -23.7240   -8.1700   22.1750 C   0  0  0  0  0  3  0  0  0  0  0  0
  -22.5030   -7.9170   21.5060 C   0  0  0  0  0  0  0  0  0  0  0  0
  -22.0320   -8.8480   20.5650 C   0  0  0  0  0  3  0  0  0  0  0  0
  -22.7500  -10.0270   20.3020 C   0  0  0  0  0  3  0  0  0  0  0  0
  -21.7520   -6.7780   21.6760 O   0  0  0  0  0  0  0  0  0  0  0  0
  -21.7290   -6.1030   22.8700 C   0  0  0  0  0  0  0  0  0  0  0  0
  -21.3290   -6.7290   24.0710 C   0  0  0  0  0  3  0  0  0  0  0  0
  -21.2480   -5.9790   25.2620 C   0  0  0  0  0  3  0  0  0  0  0  0
  -21.5610   -4.6070   25.2520 C   0  0  0  0  0  0  0  0  0  0  0  0
  -21.9560   -3.9810   24.0580 C   0  0  0  0  0  3  0  0  0  0  0  0
  -22.0360   -4.7270   22.8680 C   0  0  0  0  0  0  0  0  0  0  0  0
  -22.3950   -4.1160   21.7140 F   0  0  0  0  0  0  0  0  0  0  0  0
  -21.4770   -3.8850   26.3950 F   0  0  0  0  0  0  0  0  0  0  0  0
  -22.9140  -13.4120   21.2920 C   0  0  0  0  0  0  0  0  0  0  0  0
  -22.3180  -12.7400   22.2700 N   0  0  0  0  0  0  0  0  0  0  0  0
  -22.4130  -14.4350   20.8260 O   0  0  0  0  0  0  0  0  0  0  0  0
  -22.7370  -11.9140   22.6690 H   0  0  0  0  0  0  0  0  0  0  0  0
  -21.4290  -13.0610   22.6270 H   0  0  0  0  0  0  0  0  0  0  0  0
  -25.4400  -15.0370   20.1330 N   0  0  0  0  0  0  0  0  0  0  0  0
  -24.7020  -15.6980   20.3490 H   0  0  0  0  0  0  0  0  0  0  0  0
  -26.2370  -15.4660   19.6790 H   0  0  0  0  0  0  0  0  0  0  0  0
  -28.2690  -24.3840   20.7010 C   0  0  0  0  0  3  0  0  0  0  0  0
  -26.8920  -24.0790   21.1520 N   0  0  0  0  0  4  0  0  0  0  0  0
  -26.8260  -24.0650   22.1570 H   0  0  0  0  0  0  0  0  0  0  0  0
  -26.5920  -23.1830   20.8070 H   0  0  0  0  0  0  0  0  0  0  0  0
  -26.2420  -24.7660   20.8120 H   0  0  0  0  0  0  0  0  0  0  0  0
  -28.6980  -25.8090   21.1430 C   0  0  0  0  0  2  0  0  0  0  0  0
  -28.4590  -26.7610   20.1070 O   0  0  0  0  0  0  0  0  0  0  0  0
  -24.5680  -31.8740   23.2080 C   0  0  0  0  0  0  0  0  0  0  0  0
  -27.2770  -27.4530   20.1760 C   0  0  0  0  0  0  0  0  0  0  0  0
  -23.3900  -30.4640   21.5480 C   0  0  0  0  0  3  0  0  0  0  0  0
  -24.8710  -28.9240   20.1560 C   0  0  0  0  0  0  0  0  0  0  0  0
  -25.9140  -30.8350   21.3880 C   0  0  0  0  0  2  0  0  0  0  0  0
  -26.0140  -29.4580   20.7660 C   0  0  0  0  0  0  0  0  0  0  0  0
  -27.2200  -28.7280   20.7790 C   0  0  0  0  0  3  0  0  0  0  0  0
  -26.1270  -26.9290   19.5540 C   0  0  0  0  0  3  0  0  0  0  0  0
  -24.9200  -27.6560   19.5500 C   0  0  0  0  0  3  0  0  0  0  0  0
  -23.6230  -29.7780   20.1750 C   0  0  0  0  0  2  0  0  0  0  0  0
  -24.6410  -31.0730   22.1070 N   0  0  0  0  0  0  0  0  0  0  0  0
  -23.4790  -32.1440   23.7310 O   0  0  0  0  0  0  0  0  0  0  0  0
  -22.7290  -29.4440   22.5010 C   0  0  0  0  0  0  0  0  0  0  0  0
  -21.4050  -29.2660   22.3590 N   0  0  0  0  0  0  0  0  0  0  0  0
  -23.4020  -28.8130   23.3210 O   0  0  0  0  0  0  0  0  0  0  0  0
  -20.9240  -29.8270   21.6690 H   0  0  0  0  0  0  0  0  0  0  0  0
  -18.0190  -28.0970   22.8270 C   0  0  0  0  0  0  0  0  0  0  0  0
  -20.5770  -28.3290   23.1180 C   0  0  0  0  0  3  0  0  0  0  0  0
  -20.6710  -26.9010   22.5300 C   0  0  0  0  0  2  0  0  0  0  0  0
  -19.5720  -26.5980   21.5060 C   0  0  0  0  0  2  0  0  0  0  0  0
  -18.1880  -26.7510   22.1430 C   0  0  0  0  0  2  0  0  0  0  0  0
  -19.1420  -28.8450   23.2700 C   0  0  0  0  0  0  0  0  0  0  0  0
  -18.9320  -30.1070   23.8680 C   0  0  0  0  0  3  0  0  0  0  0  0
  -17.6320  -30.6200   24.0280 C   0  0  0  0  0  3  0  0  0  0  0  0
  -16.5220  -29.8690   23.6030 C   0  0  0  0  0  3  0  0  0  0  0  0
  -16.7180  -28.6090   23.0070 C   0  0  0  0  0  3  0  0  0  0  0  0
  -25.8450  -32.5070   23.8450 C   0  0  0  0  0  3  0  0  0  0  0  0
  -26.3460  -31.7380   25.1290 C   0  0  1  0  0  0  0  0  0  0  0  0
  -25.2400  -31.4970   26.1820 C   0  0  0  0  0  1  0  0  0  0  0  0
  -26.9380  -30.3630   24.7430 C   0  0  0  0  0  1  0  0  0  0  0  0
  -27.4860  -32.5350   25.8060 C   0  0  0  0  0  1  0  0  0  0  0  0
  -25.5330  -33.9050   24.1660 N   0  0  0  0  0  0  0  0  0  0  0  0
  -25.8790  -34.9540   23.4090 C   0  0  0  0  0  0  0  0  0  0  0  0
  -26.5690  -34.8470   22.3920 O   0  0  0  0  0  0  0  0  0  0  0  0
  -24.9250  -34.0630   24.9570 H   0  0  0  0  0  0  0  0  0  0  0  0
  -24.1690  -36.7510   23.0010 C   0  0  0  0  0  1  0  0  0  0  0  0
  -25.3820  -36.3440   23.8510 C   0  0  0  0  0  3  0  0  0  0  0  0
  -27.4930  -37.2210   24.7480 C   0  0  0  0  0  1  0  0  0  0  0  0
  -26.4220  -37.3950   23.7710 N   0  0  0  0  0  0  0  0  0  0  0  0
  -26.0140  -38.3150   23.9090 H   0  0  0  0  0  0  0  0  0  0  0  0
  2  3  1  0
  2  1  1  0
  4  6  1  0
  4  3  1  0
  5  6  1  0
  5  9  1  0
  6  8  1  0
  7  5  2  0
  9 12  1  0
 12 11  1  1
 12 10  1  0
 13 12  1  0
 14 19  1  0
 15 16  1  0
 15 14  1  0
 17 16  1  0
 17 24  1  0
 17 18  1  0
 19 13  1  0
 19 18  1  0
 20 13  2  0
 21 22  2  0
 22 41  1  0
 23 22  1  0
 23 26  1  0
 24 25  1  0
 24 21  1  0
 25 23  2  0
 26 27  1  0
 27 28  2  0
 29 32  1  0
 29 28  1  0
 30 29  2  0
 31 30  1  0
 31 26  2  0
 32 33  1  0
 33 34  1  0
 34 35  2  0
 36 35  1  0
 36 40  1  0
 37 36  2  0
 38 33  2  0
 38 37  1  0
 39 38  1  0
 41 42  1  0
 42 45  1  0
 42 44  1  0
 43 41  2  0
 46 21  1  0
 46 47  1  0
 48 46  1  0
 49 54  1  0
 49 50  1  0
 49  1  1  0
 50 51  1  0
 52 50  1  0
 53 50  1  0
 55 57  1  0
 55 54  1  0
 56 67  2  0
 57 62  1  0
 58 66  1  0
 58 68  1  0
 59 65  1  0
 59 61  1  0
 60 66  1  0
 61 62  2  0
 61 60  1  0
 63 57  2  0
 64 63  1  0
 64 59  2  0
 65 58  1  0
 66 56  1  0
 68 70  2  0
 69 68  1  0
 71 69  1  0
 72 81  2  0
 72 77  1  0
 73 69  1  0
 73 77  1  0
 74 73  1  0
 75 76  1  0
 75 74  1  0
 76 72  1  0
 77 78  2  0
 78 79  1  0
 80 79  2  0
 81 80  1  0
 82 56  1  0
 82 87  1  0
 82 83  1  0
 83 86  1  1
 83 84  1  0
 85 83  1  0
 87 90  1  0
 88 92  1  0
 88 87  1  0
 89 88  2  0
 92 91  1  0
 94 92  1  0
 94 95  1  0
 94 93  1  0
M  ISO  4  12 100  13 100  54 101  55 101
M  END
>  <TORSDO>  (70) 
F 25

>  <SCORE>  (70) 
-10.682

>  <name>  (70) 
69

>  <ligand_id>  (70) 
69

>  <original_smiles>  (70) 
[H]c1c([H])c([H])c2c(c1[H])C([H])([H])C([H])([H])C([H])([H])C2([H])N([H])C(=O)C1([H])N(C(=O)C([H])(N([H])C(=O)C([H])(N([H])C([H])([H])[H])C([H])([H])[H])C(C([H])([H])[H])(C([H])([H])[H])C([H])([H])[H])C([H])([H])c2c([H])c(OC([H])([H])C([H])(C([H])([H])C([H])([H])C([H])([H])C([H])([H])N([H])C(=O)C([H])([H])C(C(=O)N3C([H])([H])C([H])([H])C([H])([H])C([H])(n4nc(-c5c([H])c([H])c(Oc6c([H])c([H])c(F)c([H])c6F)c([H])c5[H])c(C(=O)N([H])[H])c4N([H])[H])C3([H])[H])(C([H])([H])[H])C([H])([H])[H])[N+]([H])([H])[H])c([H])c([H])c2C1([H])[H]

>  <smiles>  (70) 
[H]c1c([H])c([H])c2c(c1[H])C([H])([H])C([H])([H])C([H])([H])C2([H])N([H])C(=O)C1([H])N(C(=O)C([H])(N([H])C(=O)C([H])(N([H])C([H])([H])[H])C([H])([H])[H])C(C([H])([H])[H])(C([H])([H])[H])C([H])([H])[H])C([H])([H])c2c([H])c(OC([H])([H])C([H])(C([H])([H])C([H])([H])C([H])([H])C([H])([H])N([H])C(=O)C([H])([H])C(C(=O)N3C([H])([H])C([H])([H])C([H])([H])C([H])(n4nc(-c5c([H])c([H])c(Oc6c([H])c([H])c(F)c([H])c6F)c([H])c5[H])c(C(=O)N([H])[H])c4N([H])[H])C3([H])[H])(C([H])([H])[H])C([H])([H])[H])[N+]([H])([H])[H])c([H])c([H])c2C1([H])[H]

$$$$
70:0:0
     RDKit          3D

 93101  0  0  1  0  0  0  0  0999 V2000
  -26.8720  -22.2610   20.4320 C   0  0  0  0  0  3  0  0  0  0  0  0
  -29.1640  -21.9440   21.1910 C   0  0  0  0  0  3  0  0  0  0  0  0
  -26.7740  -20.8810   20.1540 C   0  0  0  0  0  3  0  0  0  0  0  0
  -29.0640  -20.5630   20.9180 C   0  0  0  0  0  3  0  0  0  0  0  0
  -28.0660  -22.7980   20.9570 C   0  0  0  0  0  0  0  0  0  0  0  0
  -27.8650  -20.0190   20.4060 C   0  0  0  0  0  0  0  0  0  0  0  0
  -28.1550  -24.2800   21.2990 C   0  0  0  0  0  2  0  0  0  0  0  0
  -29.0450  -25.0730   20.3250 C   0  0  0  0  0  2  0  0  0  0  0  0
  -29.1640  -26.5760   20.6700 C   0  0  0  0  0  2  0  0  0  0  0  0
  -28.7280  -27.3900   19.5820 O   0  0  0  0  0  0  0  0  0  0  0  0
  -24.9190  -31.8520   23.6350 C   0  0  0  0  0  0  0  0  0  0  0  0
  -27.5570  -28.0710   19.7920 C   0  0  0  0  0  0  0  0  0  0  0  0
  -23.6940  -30.7270   21.8030 C   0  0  0  0  0  3  0  0  0  0  0  0
  -25.1380  -29.4820   20.1050 C   0  0  0  0  0  0  0  0  0  0  0  0
  -26.2030  -31.1720   21.6120 C   0  0  0  0  0  2  0  0  0  0  0  0
  -26.2960  -29.9270   20.7550 C   0  0  0  0  0  0  0  0  0  0  0  0
  -27.5120  -29.2250   20.6040 C   0  0  0  0  0  3  0  0  0  0  0  0
  -26.3900  -27.6360   19.1360 C   0  0  0  0  0  3  0  0  0  0  0  0
  -25.1750  -28.3330   19.2970 C   0  0  0  0  0  3  0  0  0  0  0  0
  -23.8800  -30.2960   20.3220 C   0  0  0  0  0  2  0  0  0  0  0  0
  -24.9580  -31.2560   22.4110 N   0  0  0  0  0  0  0  0  0  0  0  0
  -23.8490  -32.0050   24.2410 O   0  0  0  0  0  0  0  0  0  0  0  0
  -23.0860  -29.5440   22.5890 C   0  0  0  0  0  0  0  0  0  0  0  0
  -21.7860  -29.2870   22.3730 N   0  0  0  0  0  0  0  0  0  0  0  0
  -23.7820  -28.8640   23.3460 O   0  0  0  0  0  0  0  0  0  0  0  0
  -21.2810  -29.8970   21.7440 H   0  0  0  0  0  0  0  0  0  0  0  0
  -18.5390  -27.7070   22.4140 C   0  0  0  0  0  0  0  0  0  0  0  0
  -21.0130  -28.1990   22.9720 C   0  0  0  0  0  3  0  0  0  0  0  0
  -21.3300  -26.8500   22.2890 C   0  0  0  0  0  2  0  0  0  0  0  0
  -20.3720  -26.5150   21.1410 C   0  0  0  0  0  2  0  0  0  0  0  0
  -18.9270  -26.4550   21.6480 C   0  0  0  0  0  2  0  0  0  0  0  0
  -19.5180  -28.5350   23.0210 C   0  0  0  0  0  0  0  0  0  0  0  0
  -19.1050  -29.7090   23.6900 C   0  0  0  0  0  3  0  0  0  0  0  0
  -17.7420  -30.0560   23.7590 C   0  0  0  0  0  3  0  0  0  0  0  0
  -16.7760  -29.2240   23.1700 C   0  0  0  0  0  3  0  0  0  0  0  0
  -17.1730  -28.0510   22.5020 C   0  0  0  0  0  3  0  0  0  0  0  0
  -26.2110  -32.3930   24.3240 C   0  0  0  0  0  3  0  0  0  0  0  0
  -25.9450  -33.7760   24.7430 N   0  0  0  0  0  0  0  0  0  0  0  0
  -26.3560  -34.8640   24.0770 C   0  0  0  0  0  0  0  0  0  0  0  0
  -27.0720  -34.8050   23.0740 O   0  0  0  0  0  0  0  0  0  0  0  0
  -25.3190  -33.9000   25.5270 H   0  0  0  0  0  0  0  0  0  0  0  0
  -24.7310  -36.7550   23.7620 C   0  0  0  0  0  1  0  0  0  0  0  0
  -25.9020  -36.2360   24.6110 C   0  0  0  0  0  3  0  0  0  0  0  0
  -28.0250  -36.9490   25.6190 C   0  0  0  0  0  1  0  0  0  0  0  0
  -26.9840  -37.2440   24.6370 N   0  0  0  0  0  0  0  0  0  0  0  0
  -26.6110  -38.1680   24.8390 H   0  0  0  0  0  0  0  0  0  0  0  0
  -26.6760  -31.5160   25.5510 C   0  0  1  0  0  0  0  0  0  0  0  0
  -25.5500  -31.2200   26.5690 C   0  0  0  0  0  1  0  0  0  0  0  0
  -27.2410  -30.1610   25.0660 C   0  0  0  0  0  1  0  0  0  0  0  0
  -27.8230  -32.2320   26.3030 C   0  0  0  0  0  1  0  0  0  0  0  0
  -27.7360  -18.5170   20.1540 C   0  0  0  0  0  2  0  0  0  0  0  0
  -28.9480  -17.9520   19.5300 N   0  0  0  0  0  4  0  0  0  0  0  0
  -29.4520  -18.7130   19.1030 H   0  0  0  0  0  0  0  0  0  0  0  0
  -28.6440  -17.3250   18.7920 H   0  0  0  0  0  0  0  0  0  0  0  0
  -29.8350  -17.1940   20.4430 C   0  0  0  0  0  2  0  0  0  0  0  0
  -30.8130  -16.2800   19.6780 C   0  0  0  0  0  2  0  0  0  0  0  0
  -31.5960  -15.2890   20.5720 C   0  0  0  0  0  2  0  0  0  0  0  0
  -31.9710  -13.9910   19.8330 C   0  0  0  0  0  0  0  0  0  0  0  0
  -31.4530  -11.6600   19.1800 C   0  0  0  0  0  2  0  0  0  0  0  0
  -30.4780  -11.6090   17.9890 C   0  0  0  0  0  2  0  0  0  0  0  0
  -29.0180  -11.6790   18.4730 C   0  0  0  0  0  2  0  0  0  0  0  0
  -28.7830  -12.8460   19.4640 C   0  0  0  0  0  3  0  0  0  0  0  0
  -29.8550  -12.8500   20.5770 C   0  0  0  0  0  2  0  0  0  0  0  0
  -31.1840  -12.8870   19.9450 N   0  0  0  0  0  0  0  0  0  0  0  0
  -32.9970  -14.0060   19.1470 O   0  0  0  0  0  0  0  0  0  0  0  0
  -26.6150  -13.8790   20.3930 C   0  0  0  0  0  0  0  0  0  0  0  0
  -25.4340  -13.3100   20.7860 C   0  0  0  0  0  0  0  0  0  0  0  0
  -25.6000  -11.8980   20.6270 C   0  0  0  0  0  0  0  0  0  0  0  0
  -27.4350  -12.8230   20.0210 N   0  0  0  0  0  0  0  0  0  0  0  0
  -26.8320  -11.6250   20.2200 N   0  0  0  0  0  0  0  0  0  0  0  0
  -24.6400  -10.7970   20.7770 C   0  0  0  0  0  0  0  0  0  0  0  0
  -24.8920   -9.7170   21.6520 C   0  0  0  0  0  3  0  0  0  0  0  0
  -23.9490   -8.6760   21.7930 C   0  0  0  0  0  3  0  0  0  0  0  0
  -22.7380   -8.7100   21.0620 C   0  0  0  0  0  0  0  0  0  0  0  0
  -22.5040   -9.7770   20.1760 C   0  0  0  0  0  3  0  0  0  0  0  0
  -23.4450  -10.8100   20.0310 C   0  0  0  0  0  3  0  0  0  0  0  0
  -21.7750   -7.7320   21.1180 O   0  0  0  0  0  0  0  0  0  0  0  0
  -21.5440   -7.0170   22.2650 C   0  0  0  0  0  0  0  0  0  0  0  0
  -21.1920   -7.6480   23.4780 C   0  0  0  0  0  3  0  0  0  0  0  0
  -20.8930   -6.8710   24.6150 C   0  0  0  0  0  3  0  0  0  0  0  0
  -20.9370   -5.4660   24.5390 C   0  0  0  0  0  0  0  0  0  0  0  0
  -21.2820   -4.8350   23.3310 C   0  0  0  0  0  3  0  0  0  0  0  0
  -21.5820   -5.6100   22.1960 C   0  0  0  0  0  0  0  0  0  0  0  0
  -21.8930   -4.9980   21.0290 F   0  0  0  0  0  0  0  0  0  0  0  0
  -20.6410   -4.7200   25.6290 F   0  0  0  0  0  0  0  0  0  0  0  0
  -24.1790  -14.0320   21.1840 C   0  0  0  0  0  0  0  0  0  0  0  0
  -23.3830  -13.4430   22.0700 N   0  0  0  0  0  0  0  0  0  0  0  0
  -23.9260  -15.1520   20.7430 O   0  0  0  0  0  0  0  0  0  0  0  0
  -23.6010  -12.5300   22.4440 H   0  0  0  0  0  0  0  0  0  0  0  0
  -22.5430  -13.9080   22.3820 H   0  0  0  0  0  0  0  0  0  0  0  0
  -27.0510  -15.2030   20.2760 N   0  0  0  0  0  0  0  0  0  0  0  0
  -26.2350  -15.8080   20.2810 H   0  0  0  0  0  0  0  0  0  0  0  0
  -27.5450  -15.3120   19.3980 H   0  0  0  0  0  0  0  0  0  0  0  0
  1  5  1  0
  3  6  1  0
  3  1  2  0
  4  2  1  0
  5  2  2  0
  5  7  1  0
  6  4  2  0
  8  9  1  0
  8  7  1  0
 10 12  1  0
 10  9  1  0
 11 22  2  0
 12 17  1  0
 13 21  1  0
 13 23  1  0
 14 20  1  0
 14 16  1  0
 15 21  1  0
 16 15  1  0
 17 16  2  0
 18 19  1  0
 18 12  2  0
 19 14  2  0
 20 13  1  0
 21 11  1  0
 23 25  2  0
 24 23  1  0
 26 24  1  0
 27 36  2  0
 27 32  1  0
 28 24  1  0
 28 32  1  0
 29 28  1  0
 30 31  1  0
 30 29  1  0
 31 27  1  0
 32 33  2  0
 33 34  1  0
 35 34  2  0
 36 35  1  0
 37 11  1  0
 37 38  1  0
 37 47  1  0
 38 41  1  0
 39 43  1  0
 39 38  1  0
 40 39  2  0
 43 42  1  0
 43 45  1  0
 45 46  1  0
 45 44  1  0
 47 50  1  1
 47 48  1  0
 49 47  1  0
 51  6  1  0
 52 51  1  0
 52 55  1  0
 53 52  1  0
 54 52  1  0
 56 55  1  0
 56 57  1  0
 58 64  1  0
 58 57  1  0
 59 64  1  0
 60 61  1  0
 60 59  1  0
 62 61  1  0
 62 69  1  0
 62 63  1  0
 64 63  1  0
 65 58  2  0
 66 67  2  0
 67 86  1  0
 68 71  1  0
 68 67  1  0
 69 70  1  0
 69 66  1  0
 70 68  2  0
 71 72  1  0
 72 73  2  0
 74 77  1  0
 74 73  1  0
 75 74  2  0
 76 75  1  0
 76 71  2  0
 77 78  1  0
 78 79  1  0
 79 80  2  0
 81 80  1  0
 81 85  1  0
 82 81  2  0
 83 78  2  0
 83 82  1  0
 84 83  1  0
 86 87  1  0
 87 90  1  0
 87 89  1  0
 88 86  2  0
 91 92  1  0
 91 66  1  0
 93 91  1  0
M  ISO  4   9 101  10 101  57 100  58 100
M  END
>  <TORSDO>  (71) 
F 24

>  <SCORE>  (71) 
-9.454

>  <name>  (71) 
70

>  <ligand_id>  (71) 
70

>  <original_smiles>  (71) 
[H]c1c([H])c([H])c2c(c1[H])C([H])([H])C([H])([H])C([H])([H])C2([H])N([H])C(=O)C1([H])N(C(=O)C([H])(N([H])C(=O)C([H])(N([H])C([H])([H])[H])C([H])([H])[H])C(C([H])([H])[H])(C([H])([H])[H])C([H])([H])[H])C([H])([H])c2c([H])c(OC([H])([H])C([H])([H])C([H])([H])c3c([H])c([H])c(C([H])([H])[N+]([H])([H])C([H])([H])C([H])([H])C([H])([H])C(=O)N4C([H])([H])C([H])([H])C([H])([H])C([H])(n5nc(-c6c([H])c([H])c(Oc7c([H])c([H])c(F)c([H])c7F)c([H])c6[H])c(C(=O)N([H])[H])c5N([H])[H])C4([H])[H])c([H])c3[H])c([H])c([H])c2C1([H])[H]

>  <smiles>  (71) 
[H]c1c([H])c([H])c2c(c1[H])C([H])([H])C([H])([H])C([H])([H])C2([H])N([H])C(=O)C1([H])N(C(=O)C([H])(N([H])C(=O)C([H])(N([H])C([H])([H])[H])C([H])([H])[H])C(C([H])([H])[H])(C([H])([H])[H])C([H])([H])[H])C([H])([H])c2c([H])c(OC([H])([H])C([H])([H])C([H])([H])c3c([H])c([H])c(C([H])([H])[N+]([H])([H])C([H])([H])C([H])([H])C([H])([H])C(=O)N4C([H])([H])C([H])([H])C([H])([H])C([H])(n5nc(-c6c([H])c([H])c(Oc7c([H])c([H])c(F)c([H])c7F)c([H])c6[H])c(C(=O)N([H])[H])c5N([H])[H])C4([H])[H])c([H])c3[H])c([H])c([H])c2C1([H])[H]

$$$$
71:0:0
     RDKit          3D

 91 98  0  0  1  0  0  0  0  0999 V2000
  -32.0640  -22.6820   18.4070 C   0  0  0  0  0  1  0  0  0  0  0  0
  -31.2460  -22.2780   19.5770 N   0  0  2  0  0  4  0  0  0  0  0  0
  -30.3200  -22.0950   19.2200 H   0  0  0  0  0  0  0  0  0  0  0  0
  -31.1290  -23.3560   20.5990 C   0  0  0  0  0  2  0  0  0  0  0  0
  -30.3770  -24.6220   20.1260 C   0  0  0  0  0  2  0  0  0  0  0  0
  -30.1000  -25.5930   21.2930 C   0  0  0  0  0  2  0  0  0  0  0  0
  -29.4950  -26.9430   20.8740 C   0  0  0  0  0  2  0  0  0  0  0  0
  -28.3670  -26.6770   20.0480 O   0  0  0  0  0  0  0  0  0  0  0  0
  -24.6060  -31.8850   23.2150 C   0  0  0  0  0  0  0  0  0  0  0  0
  -27.2490  -27.4740   20.1260 C   0  0  0  0  0  0  0  0  0  0  0  0
  -23.3890  -30.4870   21.5760 C   0  0  0  0  0  3  0  0  0  0  0  0
  -24.8410  -28.9520   20.1470 C   0  0  0  0  0  0  0  0  0  0  0  0
  -25.9100  -30.8560   21.3630 C   0  0  0  0  0  2  0  0  0  0  0  0
  -25.9970  -29.4860   20.7280 C   0  0  0  0  0  0  0  0  0  0  0  0
  -27.2050  -28.7590   20.7180 C   0  0  0  0  0  3  0  0  0  0  0  0
  -26.0760  -26.9520   19.5430 C   0  0  0  0  0  3  0  0  0  0  0  0
  -24.8720  -27.6810   19.5540 C   0  0  0  0  0  3  0  0  0  0  0  0
  -23.5950  -29.8080   20.1950 C   0  0  0  0  0  2  0  0  0  0  0  0
  -24.6540  -31.0900   22.1110 N   0  0  0  0  0  0  0  0  0  0  0  0
  -23.5280  -32.1580   23.7610 O   0  0  0  0  0  0  0  0  0  0  0  0
  -22.7450  -29.4640   22.5360 C   0  0  0  0  0  0  0  0  0  0  0  0
  -21.4210  -29.2820   22.4110 N   0  0  0  0  0  0  0  0  0  0  0  0
  -23.4310  -28.8340   23.3460 O   0  0  0  0  0  0  0  0  0  0  0  0
  -20.9280  -29.8430   21.7310 H   0  0  0  0  0  0  0  0  0  0  0  0
  -18.0450  -28.0940   22.9060 C   0  0  0  0  0  0  0  0  0  0  0  0
  -20.6030  -28.3460   23.1830 C   0  0  0  0  0  3  0  0  0  0  0  0
  -20.7040  -26.9140   22.6060 C   0  0  0  0  0  2  0  0  0  0  0  0
  -19.6030  -26.5930   21.5920 C   0  0  0  0  0  2  0  0  0  0  0  0
  -18.2200  -26.7430   22.2330 C   0  0  0  0  0  2  0  0  0  0  0  0
  -19.1650  -28.8540   23.3370 C   0  0  0  0  0  0  0  0  0  0  0  0
  -18.9500  -30.1200   23.9230 C   0  0  0  0  0  3  0  0  0  0  0  0
  -17.6460  -30.6260   24.0850 C   0  0  0  0  0  3  0  0  0  0  0  0
  -16.5400  -29.8630   23.6710 C   0  0  0  0  0  3  0  0  0  0  0  0
  -16.7420  -28.5990   23.0870 C   0  0  0  0  0  3  0  0  0  0  0  0
  -25.8980  -32.5120   23.8300 C   0  0  0  0  0  3  0  0  0  0  0  0
  -26.4290  -31.7280   25.0910 C   0  0  1  0  0  0  0  0  0  0  0  0
  -25.3470  -31.4790   26.1680 C   0  0  0  0  0  1  0  0  0  0  0  0
  -27.0070  -30.3550   24.6770 C   0  0  0  0  0  1  0  0  0  0  0  0
  -27.5870  -32.5160   25.7490 C   0  0  0  0  0  1  0  0  0  0  0  0
  -25.5930  -33.9060   24.1720 N   0  0  0  0  0  0  0  0  0  0  0  0
  -25.9230  -34.9640   23.4160 C   0  0  0  0  0  0  0  0  0  0  0  0
  -26.5890  -34.8670   22.3820 O   0  0  0  0  0  0  0  0  0  0  0  0
  -24.9990  -34.0560   24.9750 H   0  0  0  0  0  0  0  0  0  0  0  0
  -24.1910  -36.7520   23.0810 C   0  0  0  0  0  1  0  0  0  0  0  0
  -25.4360  -36.3470   23.8850 C   0  0  0  0  0  3  0  0  0  0  0  0
  -27.5760  -37.2240   24.7080 C   0  0  0  0  0  1  0  0  0  0  0  0
  -26.4670  -37.4020   23.7740 N   0  0  0  0  0  0  0  0  0  0  0  0
  -26.0630  -38.3210   23.9330 H   0  0  0  0  0  0  0  0  0  0  0  0
  -31.7160  -21.0010   20.1880 C   0  0  0  0  0  2  0  0  0  0  0  0
  -30.5610  -20.0460   20.5810 C   0  0  0  0  0  2  0  0  0  0  0  0
  -30.3390  -17.6190   19.8340 C   0  0  0  0  0  3  0  0  0  0  0  0
  -30.2730  -18.9420   19.5590 C   0  0  0  0  0  0  0  0  0  0  0  0
  -29.8850  -19.4290   18.1740 C   0  0  0  0  0  1  0  0  0  0  0  0
  -30.6710  -16.9740   21.1770 C   0  0  0  0  0  2  0  0  0  0  0  0
  -30.0730  -15.5580   21.3800 C   0  0  0  0  0  2  0  0  0  0  0  0
  -30.6950  -14.4380   20.5240 C   0  0  0  0  0  0  0  0  0  0  0  0
  -30.3650  -12.3300   19.2840 C   0  0  0  0  0  2  0  0  0  0  0  0
  -29.4100  -12.5750   18.1010 C   0  0  0  0  0  2  0  0  0  0  0  0
  -27.9380  -12.4390   18.5410 C   0  0  0  0  0  2  0  0  0  0  0  0
  -27.6220  -13.2500   19.8270 C   0  0  0  0  0  3  0  0  0  0  0  0
  -28.6870  -12.9810   20.9160 C   0  0  0  0  0  2  0  0  0  0  0  0
  -30.0100  -13.2810   20.3460 N   0  0  0  0  0  0  0  0  0  0  0  0
  -31.7780  -14.6520   19.9700 O   0  0  0  0  0  0  0  0  0  0  0  0
  -25.2270  -13.8670   20.5440 C   0  0  0  0  0  0  0  0  0  0  0  0
  -24.1570  -13.0990   20.9170 C   0  0  0  0  0  0  0  0  0  0  0  0
  -24.6120  -11.7450   20.8820 C   0  0  0  0  0  0  0  0  0  0  0  0
  -26.2690  -12.9820   20.3080 N   0  0  0  0  0  0  0  0  0  0  0  0
  -25.9020  -11.7010   20.5680 N   0  0  0  0  0  0  0  0  0  0  0  0
  -23.8840  -10.4850   21.0730 C   0  0  0  0  0  0  0  0  0  0  0  0
  -24.3340   -9.5080   21.9870 C   0  0  0  0  0  3  0  0  0  0  0  0
  -23.6110   -8.3100   22.1710 C   0  0  0  0  0  3  0  0  0  0  0  0
  -22.4210   -8.0800   21.4400 C   0  0  0  0  0  0  0  0  0  0  0  0
  -21.9860   -9.0480   20.5160 C   0  0  0  0  0  3  0  0  0  0  0  0
  -22.7100  -10.2380   20.3310 C   0  0  0  0  0  3  0  0  0  0  0  0
  -21.6660   -6.9350   21.5320 O   0  0  0  0  0  0  0  0  0  0  0  0
  -21.6560   -6.1700   22.6710 C   0  0  0  0  0  0  0  0  0  0  0  0
  -21.2930   -6.7050   23.9270 C   0  0  0  0  0  3  0  0  0  0  0  0
  -21.2300   -5.8680   25.0580 C   0  0  0  0  0  3  0  0  0  0  0  0
  -21.5160   -4.4940   24.9330 C   0  0  0  0  0  0  0  0  0  0  0  0
  -21.8700   -3.9570   23.6820 C   0  0  0  0  0  3  0  0  0  0  0  0
  -21.9370   -4.7940   22.5540 C   0  0  0  0  0  0  0  0  0  0  0  0
  -22.2580   -4.2680   21.3470 F   0  0  0  0  0  0  0  0  0  0  0  0
  -21.4460   -3.6860   26.0170 F   0  0  0  0  0  0  0  0  0  0  0  0
  -22.7630  -13.5800   21.2000 C   0  0  0  0  0  0  0  0  0  0  0  0
  -22.0400  -12.8860   22.0720 N   0  0  0  0  0  0  0  0  0  0  0  0
  -22.3220  -14.6030   20.6780 O   0  0  0  0  0  0  0  0  0  0  0  0
  -22.4110  -12.0600   22.5170 H   0  0  0  0  0  0  0  0  0  0  0  0
  -21.1010  -13.1840   22.2950 H   0  0  0  0  0  0  0  0  0  0  0  0
  -25.4000  -15.2380   20.3690 N   0  0  0  0  0  0  0  0  0  0  0  0
  -24.6420  -15.9020   20.4830 H   0  0  0  0  0  0  0  0  0  0  0  0
  -26.2620  -15.6670   20.0590 H   0  0  0  0  0  0  0  0  0  0  0  0
  1  2  1  0
  2 49  1  0
  2  4  1  0
  2  3  1  6
  5  4  1  0
  5  6  1  0
  7  6  1  0
  8 10  1  0
  8  7  1  0
  9 20  2  0
 10 15  1  0
 11 19  1  0
 11 21  1  0
 12 18  1  0
 12 14  1  0
 13 19  1  0
 14 13  1  0
 15 14  2  0
 16 17  1  0
 16 10  2  0
 17 12  2  0
 18 11  1  0
 19  9  1  0
 21 23  2  0
 22 21  1  0
 24 22  1  0
 25 34  2  0
 25 30  1  0
 26 22  1  0
 26 30  1  0
 27 26  1  0
 28 29  1  0
 28 27  1  0
 29 25  1  0
 30 31  2  0
 31 32  1  0
 33 32  2  0
 34 33  1  0
 35  9  1  0
 35 40  1  0
 35 36  1  0
 36 39  1  1
 36 37  1  0
 38 36  1  0
 40 43  1  0
 41 45  1  0
 41 40  1  0
 42 41  2  0
 45 44  1  0
 47 45  1  0
 47 48  1  0
 47 46  1  0
 49 50  1  0
 51 54  1  0
 52 51  2  0
 52 50  1  0
 53 52  1  0
 54 55  1  0
 56 55  1  0
 57 62  1  0
 58 59  1  0
 58 57  1  0
 60 59  1  0
 60 67  1  0
 60 61  1  0
 62 56  1  0
 62 61  1  0
 63 56  2  0
 64 65  2  0
 65 84  1  0
 66 65  1  0
 66 69  1  0
 67 64  1  0
 67 68  1  0
 68 66  2  0
 69 70  1  0
 70 71  2  0
 72 75  1  0
 72 71  1  0
 73 72  2  0
 74 73  1  0
 74 69  2  0
 75 76  1  0
 76 77  1  0
 77 78  2  0
 79 78  1  0
 79 83  1  0
 80 79  2  0
 81 76  2  0
 81 80  1  0
 82 81  1  0
 84 85  1  0
 85 88  1  0
 85 87  1  0
 86 84  2  0
 89 90  1  0
 89 64  1  0
 91 89  1  0
M  ISO  4   7 101   8 101  55 100  56 100
M  END
>  <TORSDO>  (72) 
F 25

>  <SCORE>  (72) 
-12.183

>  <name>  (72) 
71

>  <ligand_id>  (72) 
71

>  <original_smiles>  (72) 
[H]C(=C(C([H])([H])[H])C([H])([H])C([H])([H])[N+]([H])(C([H])([H])[H])C([H])([H])C([H])([H])C([H])([H])C([H])([H])Oc1c([H])c([H])c2c(c1[H])C([H])([H])N(C(=O)C([H])(N([H])C(=O)C([H])(N([H])C([H])([H])[H])C([H])([H])[H])C(C([H])([H])[H])(C([H])([H])[H])C([H])([H])[H])C([H])(C(=O)N([H])C1([H])c3c([H])c([H])c([H])c([H])c3C([H])([H])C([H])([H])C1([H])[H])C2([H])[H])C([H])([H])C([H])([H])C(=O)N1C([H])([H])C([H])([H])C([H])([H])C([H])(n2nc(-c3c([H])c([H])c(Oc4c([H])c([H])c(F)c([H])c4F)c([H])c3[H])c(C(=O)N([H])[H])c2N([H])[H])C1([H])[H]

>  <smiles>  (72) 
[H]C(=C(C([H])([H])[H])C([H])([H])C([H])([H])[N+]([H])(C([H])([H])[H])C([H])([H])C([H])([H])C([H])([H])C([H])([H])Oc1c([H])c([H])c2c(c1[H])C([H])([H])N(C(=O)C([H])(N([H])C(=O)C([H])(N([H])C([H])([H])[H])C([H])([H])[H])C(C([H])([H])[H])(C([H])([H])[H])C([H])([H])[H])C([H])(C(=O)N([H])C1([H])c3c([H])c([H])c([H])c([H])c3C([H])([H])C([H])([H])C1([H])[H])C2([H])[H])C([H])([H])C([H])([H])C(=O)N1C([H])([H])C([H])([H])C([H])([H])C([H])(n2nc(-c3c([H])c([H])c(Oc4c([H])c([H])c(F)c([H])c4F)c([H])c3[H])c(C(=O)N([H])[H])c2N([H])[H])C1([H])[H]

$$$$
72:0:0
     RDKit          3D

 88 96  0  0  1  0  0  0  0  0999 V2000
  -31.0920  -22.4670   21.0840 C   0  0  0  0  0  3  0  0  0  0  0  0
  -30.2040  -23.5510   20.8570 C   0  0  0  0  0  3  0  0  0  0  0  0
  -30.7200  -21.1070   20.9260 C   0  0  0  0  0  3  0  0  0  0  0  0
  -28.5260  -21.8930   20.3090 C   0  0  0  0  0  3  0  0  0  0  0  0
  -28.8700  -23.3360   20.4570 C   0  0  0  0  0  0  0  0  0  0  0  0
  -29.4220  -20.7170   20.5310 C   0  0  0  0  0  0  0  0  0  0  0  0
  -27.9240  -19.0790   19.5670 C   0  0  0  0  0  1  0  0  0  0  0  0
  -29.1200  -19.2540   20.3850 N   0  0  0  0  0  0  0  0  0  0  0  0
  -30.0920  -18.0070   20.4200 C   0  0  0  0  0  3  0  0  0  0  0  0
  -29.6140  -16.3930   20.6760 C   0  0  0  0  0  3  0  0  0  0  0  0
  -30.4730  -14.9930   20.3620 C   0  0  0  0  0  0  0  0  0  0  0  0
  -30.3810  -12.6460   19.3710 C   0  0  0  0  0  2  0  0  0  0  0  0
  -29.4380  -12.6410   18.1430 C   0  0  0  0  0  2  0  0  0  0  0  0
  -27.9730  -12.4230   18.5700 C   0  0  0  0  0  2  0  0  0  0  0  0
  -27.5770  -13.3090   19.7790 C   0  0  0  0  0  3  0  0  0  0  0  0
  -28.6400  -13.2850   20.8980 C   0  0  0  0  0  2  0  0  0  0  0  0
  -29.9150  -13.7120   20.3070 N   0  0  0  0  0  0  0  0  0  0  0  0
  -31.6610  -15.0800   20.0280 O   0  0  0  0  0  0  0  0  0  0  0  0
  -25.1930  -13.8700   20.5220 C   0  0  0  0  0  0  0  0  0  0  0  0
  -24.1360  -13.0890   20.8960 C   0  0  0  0  0  0  0  0  0  0  0  0
  -24.6110  -11.7410   20.8670 C   0  0  0  0  0  0  0  0  0  0  0  0
  -26.2430  -13.0020   20.2800 N   0  0  0  0  0  0  0  0  0  0  0  0
  -25.9010  -11.7140   20.5520 N   0  0  0  0  0  0  0  0  0  0  0  0
  -23.8940  -10.4740   21.0620 C   0  0  0  0  0  0  0  0  0  0  0  0
  -24.3420   -9.5060   21.9880 C   0  0  0  0  0  3  0  0  0  0  0  0
  -23.6220   -8.3060   22.1710 C   0  0  0  0  0  3  0  0  0  0  0  0
  -22.4440   -8.0630   21.4280 C   0  0  0  0  0  0  0  0  0  0  0  0
  -22.0140   -9.0210   20.4910 C   0  0  0  0  0  3  0  0  0  0  0  0
  -22.7340  -10.2130   20.3060 C   0  0  0  0  0  3  0  0  0  0  0  0
  -21.6950   -6.9150   21.5220 O   0  0  0  0  0  0  0  0  0  0  0  0
  -21.6690   -6.1620   22.6680 C   0  0  0  0  0  0  0  0  0  0  0  0
  -21.2620   -6.7030   23.9060 C   0  0  0  0  0  3  0  0  0  0  0  0
  -21.1840   -5.8760   25.0430 C   0  0  0  0  0  3  0  0  0  0  0  0
  -21.5060   -4.5090   24.9450 C   0  0  0  0  0  0  0  0  0  0  0  0
  -21.9060   -3.9670   23.7110 C   0  0  0  0  0  3  0  0  0  0  0  0
  -21.9860   -4.7920   22.5760 C   0  0  0  0  0  0  0  0  0  0  0  0
  -22.3520   -4.2600   21.3840 F   0  0  0  0  0  0  0  0  0  0  0  0
  -21.4230   -3.7130   26.0370 F   0  0  0  0  0  0  0  0  0  0  0  0
  -22.7370  -13.5560   21.1720 C   0  0  0  0  0  0  0  0  0  0  0  0
  -22.0160  -12.8590   22.0410 N   0  0  0  0  0  0  0  0  0  0  0  0
  -22.2930  -14.5790   20.6510 O   0  0  0  0  0  0  0  0  0  0  0  0
  -22.3900  -12.0360   22.4910 H   0  0  0  0  0  0  0  0  0  0  0  0
  -21.0760  -13.1560   22.2630 H   0  0  0  0  0  0  0  0  0  0  0  0
  -25.3440  -15.2440   20.3460 N   0  0  0  0  0  0  0  0  0  0  0  0
  -24.5740  -15.8900   20.4750 H   0  0  0  0  0  0  0  0  0  0  0  0
  -26.1910  -15.6980   20.0310 H   0  0  0  0  0  0  0  0  0  0  0  0
  -27.8750  -24.6310   20.1960 C   0  0  0  0  0  2  0  0  0  0  0  0
  -28.2140  -26.1490   20.3440 O   0  0  0  0  0  0  0  0  0  0  0  0
  -24.6220  -31.9030   23.2430 C   0  0  0  0  0  0  0  0  0  0  0  0
  -27.1760  -27.1520   20.2500 C   0  0  0  0  0  0  0  0  0  0  0  0
  -23.4190  -30.5080   21.6060 C   0  0  0  0  0  3  0  0  0  0  0  0
  -24.8620  -28.9240   20.1880 C   0  0  0  0  0  0  0  0  0  0  0  0
  -25.9750  -30.7580   21.4450 C   0  0  0  0  0  2  0  0  0  0  0  0
  -26.0420  -29.3610   20.8020 C   0  0  0  0  0  0  0  0  0  0  0  0
  -27.2000  -28.4930   20.8140 C   0  0  0  0  0  3  0  0  0  0  0  0
  -25.9690  -26.8220   19.5930 C   0  0  0  0  0  3  0  0  0  0  0  0
  -24.8390  -27.6690   19.5640 C   0  0  0  0  0  3  0  0  0  0  0  0
  -23.6390  -29.8290   20.2290 C   0  0  0  0  0  2  0  0  0  0  0  0
  -24.6930  -31.0770   22.1540 N   0  0  0  0  0  0  0  0  0  0  0  0
  -23.5360  -32.1980   23.7660 O   0  0  0  0  0  0  0  0  0  0  0  0
  -22.7320  -29.5080   22.5710 C   0  0  0  0  0  0  0  0  0  0  0  0
  -21.4020  -29.3480   22.4410 N   0  0  0  0  0  0  0  0  0  0  0  0
  -23.3960  -28.8810   23.4000 O   0  0  0  0  0  0  0  0  0  0  0  0
  -20.9260  -29.9030   21.7450 H   0  0  0  0  0  0  0  0  0  0  0  0
  -18.0090  -28.1720   22.9290 C   0  0  0  0  0  0  0  0  0  0  0  0
  -20.5690  -28.4220   23.2110 C   0  0  0  0  0  3  0  0  0  0  0  0
  -20.6670  -26.9860   22.6460 C   0  0  0  0  0  2  0  0  0  0  0  0
  -19.5690  -26.6630   21.6270 C   0  0  0  0  0  2  0  0  0  0  0  0
  -18.1830  -26.8180   22.2610 C   0  0  0  0  0  2  0  0  0  0  0  0
  -19.1300  -28.9320   23.3620 C   0  0  0  0  0  0  0  0  0  0  0  0
  -18.9110  -30.1960   23.9480 C   0  0  0  0  0  3  0  0  0  0  0  0
  -17.6070  -30.7030   24.1050 C   0  0  0  0  0  3  0  0  0  0  0  0
  -16.5020  -29.9410   23.6880 C   0  0  0  0  0  3  0  0  0  0  0  0
  -16.7040  -28.6780   23.1050 C   0  0  0  0  0  3  0  0  0  0  0  0
  -25.9010  -32.5310   23.8750 C   0  0  0  0  0  3  0  0  0  0  0  0
  -26.4050  -31.7570   25.1550 C   0  0  1  0  0  0  0  0  0  0  0  0
  -25.3050  -31.5290   26.2190 C   0  0  0  0  0  1  0  0  0  0  0  0
  -26.9760  -30.3720   24.7700 C   0  0  0  0  0  1  0  0  0  0  0  0
  -27.5560  -32.5420   25.8240 C   0  0  0  0  0  1  0  0  0  0  0  0
  -25.5940  -33.9310   24.2100 N   0  0  0  0  0  0  0  0  0  0  0  0
  -25.9130  -34.9880   23.4510 C   0  0  0  0  0  0  0  0  0  0  0  0
  -26.5640  -34.8860   22.4080 O   0  0  0  0  0  0  0  0  0  0  0  0
  -25.0080  -34.0820   25.0190 H   0  0  0  0  0  0  0  0  0  0  0  0
  -24.1690  -36.7800   23.1530 C   0  0  0  0  0  1  0  0  0  0  0  0
  -25.4390  -36.3770   23.9230 C   0  0  0  0  0  3  0  0  0  0  0  0
  -27.5960  -37.2740   24.6810 C   0  0  0  0  0  1  0  0  0  0  0  0
  -26.4640  -37.4330   23.7720 N   0  0  0  0  0  0  0  0  0  0  0  0
  -26.0590  -38.3530   23.9300 H   0  0  0  0  0  0  0  0  0  0  0  0
  2  1  2  0
  3  1  1  0
  4  5  2  0
  4  6  1  0
  5  2  1  0
  6  3  2  0
  7  8  1  0
  8  9  1  0
  8  6  1  0
  9 10  2  0
 11 10  1  0
 12 17  1  0
 13 14  1  0
 13 12  1  0
 15 14  1  0
 15 22  1  0
 15 16  1  0
 17 11  1  0
 17 16  1  0
 18 11  2  0
 19 20  2  0
 20 39  1  0
 21 20  1  0
 21 24  1  0
 22 19  1  0
 22 23  1  0
 23 21  2  0
 24 25  1  0
 25 26  2  0
 27 30  1  0
 27 26  1  0
 28 27  2  0
 29 28  1  0
 29 24  2  0
 30 31  1  0
 31 32  1  0
 32 33  2  0
 34 33  1  0
 34 38  1  0
 35 34  2  0
 36 31  2  0
 36 35  1  0
 37 36  1  0
 39 40  1  0
 40 43  1  0
 40 42  1  0
 41 39  2  0
 44 45  1  0
 44 19  1  0
 46 44  1  0
 47 48  1  0
 47  5  1  0
 49 60  2  0
 50 48  1  0
 50 55  1  0
 51 59  1  0
 51 61  1  0
 52 58  1  0
 52 54  1  0
 53 59  1  0
 54 55  2  0
 54 53  1  0
 56 50  2  0
 57 56  1  0
 57 52  2  0
 58 51  1  0
 59 49  1  0
 61 63  2  0
 62 61  1  0
 64 62  1  0
 65 74  2  0
 65 70  1  0
 66 62  1  0
 66 70  1  0
 67 66  1  0
 68 69  1  0
 68 67  1  0
 69 65  1  0
 70 71  2  0
 71 72  1  0
 73 72  2  0
 74 73  1  0
 75 49  1  0
 75 80  1  0
 75 76  1  0
 76 79  1  1
 76 77  1  0
 78 76  1  0
 80 83  1  0
 81 85  1  0
 81 80  1  0
 82 81  2  0
 85 84  1  0
 87 85  1  0
 87 88  1  0
 87 86  1  0
M  ISO  4  10 100  11 100  47 101  48 101
M  END
>  <TORSDO>  (73) 
F 20

>  <SCORE>  (73) 
-14.769

>  <name>  (73) 
72

>  <ligand_id>  (73) 
72

>  <original_smiles>  (73) 
[H]c1c([H])c(N(C([H])([H])[H])C([H])([H])C([H])([H])C(=O)N2C([H])([H])C([H])([H])C([H])([H])C([H])(n3nc(-c4c([H])c([H])c(Oc5c([H])c([H])c(F)c([H])c5F)c([H])c4[H])c(C(=O)N([H])[H])c3N([H])[H])C2([H])[H])c([H])c(C([H])([H])Oc2c([H])c([H])c3c(c2[H])C([H])([H])N(C(=O)C([H])(N([H])C(=O)C([H])(N([H])C([H])([H])[H])C([H])([H])[H])C(C([H])([H])[H])(C([H])([H])[H])C([H])([H])[H])C([H])(C(=O)N([H])C2([H])c4c([H])c([H])c([H])c([H])c4C([H])([H])C([H])([H])C2([H])[H])C3([H])[H])c1[H]

>  <smiles>  (73) 
[H]c1c([H])c(N(C([H])([H])[H])C([H])([H])C([H])([H])C(=O)N2C([H])([H])C([H])([H])C([H])([H])C([H])(n3nc(-c4c([H])c([H])c(Oc5c([H])c([H])c(F)c([H])c5F)c([H])c4[H])c(C(=O)N([H])[H])c3N([H])[H])C2([H])[H])c([H])c(C([H])([H])Oc2c([H])c([H])c3c(c2[H])C([H])([H])N(C(=O)C([H])(N([H])C(=O)C([H])(N([H])C([H])([H])[H])C([H])([H])[H])C(C([H])([H])[H])(C([H])([H])[H])C([H])([H])[H])C([H])(C(=O)N([H])C2([H])c4c([H])c([H])c([H])c([H])c4C([H])([H])C([H])([H])C2([H])[H])C3([H])[H])c1[H]

$$$$
73:0:0
     RDKit          3D

 98108  0  0  1  0  0  0  0  0999 V2000
  -30.2130  -20.5700   22.0500 C   0  0  0  0  0  3  0  0  0  0  0  0
  -30.7580  -19.2800   22.2260 C   0  0  0  0  0  3  0  0  0  0  0  0
  -29.6150  -18.4840   20.2020 C   0  0  0  0  0  3  0  0  0  0  0  0
  -29.3660  -20.7800   20.9470 C   0  0  0  0  0  0  0  0  0  0  0  0
  -29.0630  -19.7660   20.0540 C   0  0  0  0  0  0  0  0  0  0  0  0
  -30.4650  -18.2370   21.3090 C   0  0  0  0  0  0  0  0  0  0  0  0
  -28.1750  -20.2860   18.9480 C   0  0  0  0  0  2  0  0  0  0  0  0
  -26.1610  -22.9840   19.5240 C   0  0  0  0  0  2  0  0  0  0  0  0
  -27.4710  -22.3600   21.3690 C   0  0  0  0  0  2  0  0  0  0  0  0
  -27.2940  -22.6430   18.5250 C   0  0  0  0  0  2  0  0  0  0  0  0
  -28.7120  -22.0590   20.5090 C   0  0  0  0  0  3  0  0  0  0  0  0
  -26.7480  -23.4860   20.7730 N   0  0  0  0  0  0  0  0  0  0  0  0
  -28.3370  -21.7540   19.1010 N   0  0  1  0  0  4  0  0  0  0  0  0
  -29.1750  -21.9490   18.5800 H   0  0  0  0  0  0  0  0  0  0  0  0
  -31.1630  -16.8920   21.4590 C   0  0  0  0  0  2  0  0  0  0  0  0
  -30.2390  -15.6430   21.3430 C   0  0  0  0  0  2  0  0  0  0  0  0
  -30.7680  -14.5510   20.3950 C   0  0  0  0  0  0  0  0  0  0  0  0
  -30.3880  -12.4620   19.1370 C   0  0  0  0  0  2  0  0  0  0  0  0
  -29.4180  -12.7140   17.9670 C   0  0  0  0  0  2  0  0  0  0  0  0
  -27.9580  -12.5580   18.4320 C   0  0  0  0  0  2  0  0  0  0  0  0
  -27.6550  -13.3620   19.7260 C   0  0  0  0  0  3  0  0  0  0  0  0
  -28.7390  -13.1190   20.8010 C   0  0  0  0  0  2  0  0  0  0  0  0
  -30.0530  -13.4110   20.2080 N   0  0  0  0  0  0  0  0  0  0  0  0
  -31.8160  -14.7640   19.7780 O   0  0  0  0  0  0  0  0  0  0  0  0
  -25.2690  -13.9370   20.5100 C   0  0  0  0  0  0  0  0  0  0  0  0
  -24.2140  -13.1480   20.8830 C   0  0  0  0  0  0  0  0  0  0  0  0
  -24.6790  -11.8000   20.8000 C   0  0  0  0  0  0  0  0  0  0  0  0
  -26.3140  -13.0680   20.2290 N   0  0  0  0  0  0  0  0  0  0  0  0
  -25.9610  -11.7760   20.4580 N   0  0  0  0  0  0  0  0  0  0  0  0
  -23.9620  -10.5290   20.9720 C   0  0  0  0  0  0  0  0  0  0  0  0
  -24.4150   -9.5420   21.8750 C   0  0  0  0  0  3  0  0  0  0  0  0
  -23.6970   -8.3370   22.0370 C   0  0  0  0  0  3  0  0  0  0  0  0
  -22.5150   -8.1100   21.2950 C   0  0  0  0  0  0  0  0  0  0  0  0
  -22.0820   -9.0850   20.3800 C   0  0  0  0  0  3  0  0  0  0  0  0
  -22.7980  -10.2810   20.2160 C   0  0  0  0  0  3  0  0  0  0  0  0
  -21.7670   -6.9580   21.3660 O   0  0  0  0  0  0  0  0  0  0  0  0
  -21.7280   -6.1970   22.5070 C   0  0  0  0  0  0  0  0  0  0  0  0
  -21.3020   -6.7290   23.7430 C   0  0  0  0  0  3  0  0  0  0  0  0
  -21.2090   -5.8950   24.8750 C   0  0  0  0  0  3  0  0  0  0  0  0
  -21.5310   -4.5280   24.7720 C   0  0  0  0  0  0  0  0  0  0  0  0
  -21.9480   -3.9940   23.5400 C   0  0  0  0  0  3  0  0  0  0  0  0
  -22.0430   -4.8260   22.4100 C   0  0  0  0  0  0  0  0  0  0  0  0
  -22.4260   -4.3030   21.2200 F   0  0  0  0  0  0  0  0  0  0  0  0
  -21.4340   -3.7240   25.8560 F   0  0  0  0  0  0  0  0  0  0  0  0
  -22.8220  -13.6100   21.2070 C   0  0  0  0  0  0  0  0  0  0  0  0
  -22.1230  -12.8890   22.0760 N   0  0  0  0  0  0  0  0  0  0  0  0
  -22.3630  -14.6460   20.7250 O   0  0  0  0  0  0  0  0  0  0  0  0
  -22.5050  -12.0510   22.4860 H   0  0  0  0  0  0  0  0  0  0  0  0
  -21.1900  -13.1810   22.3340 H   0  0  0  0  0  0  0  0  0  0  0  0
  -25.4250  -15.3120   20.3690 N   0  0  0  0  0  0  0  0  0  0  0  0
  -24.6580  -15.9610   20.5160 H   0  0  0  0  0  0  0  0  0  0  0  0
  -26.2720  -15.7640   20.0470 H   0  0  0  0  0  0  0  0  0  0  0  0
  -25.7460  -24.0420   21.6830 C   0  0  0  0  0  2  0  0  0  0  0  0
  -26.3850  -24.8260   22.8580 C   0  0  0  0  0  2  0  0  0  0  0  0
  -27.1710  -26.0860   22.4370 C   0  0  0  0  0  2  0  0  0  0  0  0
  -28.6130  -25.8260   21.9270 C   0  0  0  0  0  2  0  0  0  0  0  0
  -29.2360  -26.9300   21.0470 C   0  0  0  0  0  2  0  0  0  0  0  0
  -28.5590  -27.0670   19.7870 O   0  0  0  0  0  0  0  0  0  0  0  0
  -24.6210  -31.8840   23.1800 C   0  0  0  0  0  0  0  0  0  0  0  0
  -27.3900  -27.7900   19.8090 C   0  0  0  0  0  0  0  0  0  0  0  0
  -23.4340  -30.5350   21.4740 C   0  0  0  0  0  3  0  0  0  0  0  0
  -24.9210  -29.1510   19.9260 C   0  0  0  0  0  0  0  0  0  0  0  0
  -25.9270  -31.0230   21.2510 C   0  0  0  0  0  2  0  0  0  0  0  0
  -26.0570  -29.7040   20.5260 C   0  0  0  0  0  0  0  0  0  0  0  0
  -27.2910  -29.0360   20.4610 C   0  0  0  0  0  3  0  0  0  0  0  0
  -26.2480  -27.2470   19.1850 C   0  0  0  0  0  3  0  0  0  0  0  0
  -25.0080  -27.9180   19.2500 C   0  0  0  0  0  3  0  0  0  0  0  0
  -23.6370  -29.9410   20.0510 C   0  0  0  0  0  2  0  0  0  0  0  0
  -24.6790  -31.1580   22.0290 N   0  0  0  0  0  0  0  0  0  0  0  0
  -23.5430  -32.0810   23.7580 O   0  0  0  0  0  0  0  0  0  0  0  0
  -22.8430  -29.4360   22.3820 C   0  0  0  0  0  0  0  0  0  0  0  0
  -21.5220  -29.2280   22.2740 N   0  0  0  0  0  0  0  0  0  0  0  0
  -23.5660  -28.7760   23.1340 O   0  0  0  0  0  0  0  0  0  0  0  0
  -21.0050  -29.8120   21.6320 H   0  0  0  0  0  0  0  0  0  0  0  0
  -18.1880  -27.9370   22.7770 C   0  0  0  0  0  0  0  0  0  0  0  0
  -20.7460  -28.2260   23.0000 C   0  0  0  0  0  3  0  0  0  0  0  0
  -20.8620  -26.8410   22.3230 C   0  0  0  0  0  2  0  0  0  0  0  0
  -19.7380  -26.5660   21.3170 C   0  0  0  0  0  2  0  0  0  0  0  0
  -18.3710  -26.6410   22.0030 C   0  0  0  0  0  2  0  0  0  0  0  0
  -19.3040  -28.6890   23.2290 C   0  0  0  0  0  0  0  0  0  0  0  0
  -19.0800  -29.9040   23.9130 C   0  0  0  0  0  3  0  0  0  0  0  0
  -17.7720  -30.3680   24.1470 C   0  0  0  0  0  3  0  0  0  0  0  0
  -16.6710  -29.6090   23.7140 C   0  0  0  0  0  3  0  0  0  0  0  0
  -16.8790  -28.3950   23.0370 C   0  0  0  0  0  3  0  0  0  0  0  0
  -25.8990  -32.5200   23.8140 C   0  0  0  0  0  3  0  0  0  0  0  0
  -25.5770  -33.9110   24.1570 N   0  0  0  0  0  0  0  0  0  0  0  0
  -25.9150  -34.9740   23.4140 C   0  0  0  0  0  0  0  0  0  0  0  0
  -26.6030  -34.8860   22.3930 O   0  0  0  0  0  0  0  0  0  0  0  0
  -24.9760  -34.0530   24.9550 H   0  0  0  0  0  0  0  0  0  0  0  0
  -24.1820  -36.7510   23.0370 C   0  0  0  0  0  1  0  0  0  0  0  0
  -25.4070  -36.3530   23.8740 C   0  0  0  0  0  3  0  0  0  0  0  0
  -27.5170  -37.2380   24.7620 C   0  0  0  0  0  1  0  0  0  0  0  0
  -26.4360  -37.4140   23.7960 N   0  0  0  0  0  0  0  0  0  0  0  0
  -26.0220  -38.3300   23.9500 H   0  0  0  0  0  0  0  0  0  0  0  0
  -26.4180  -31.7380   25.0830 C   0  0  1  0  0  0  0  0  0  0  0  0
  -25.3220  -31.4800   26.1430 C   0  0  0  0  0  1  0  0  0  0  0  0
  -27.0120  -30.3710   24.6710 C   0  0  0  0  0  1  0  0  0  0  0  0
  -27.5590  -32.5350   25.7570 C   0  0  0  0  0  1  0  0  0  0  0  0
  1  2  1  0
  3  6  1  0
  4  1  2  0
  5  3  2  0
  5  4  1  0
  6 15  1  0
  6  2  2  0
  7 13  1  0
  7  5  1  0
  8 12  1  0
 10 13  1  0
 10  8  1  0
 11  4  1  0
 11  9  1  0
 12  9  1  0
 12 53  1  0
 13 14  1  6
 13 11  1  0
 16 15  1  0
 17 16  1  0
 18 23  1  0
 19 20  1  0
 19 18  1  0
 21 20  1  0
 21 28  1  0
 21 22  1  0
 23 17  1  0
 23 22  1  0
 24 17  2  0
 25 26  2  0
 26 45  1  0
 27 26  1  0
 27 30  1  0
 28 29  1  0
 28 25  1  0
 29 27  2  0
 30 31  1  0
 31 32  2  0
 33 36  1  0
 33 32  1  0
 34 33  2  0
 35 34  1  0
 35 30  2  0
 36 37  1  0
 37 38  1  0
 38 39  2  0
 40 39  1  0
 40 44  1  0
 41 40  2  0
 42 37  2  0
 42 41  1  0
 43 42  1  0
 45 46  1  0
 46 49  1  0
 46 48  1  0
 47 45  2  0
 50 25  1  0
 50 51  1  0
 52 50  1  0
 53 54  1  0
 55 54  1  0
 56 55  1  0
 57 56  1  0
 58 60  1  0
 58 57  1  0
 59 70  2  0
 60 65  1  0
 61 69  1  0
 61 71  1  0
 62 68  1  0
 62 64  1  0
 63 69  1  0
 64 63  1  0
 65 64  2  0
 66 67  1  0
 66 60  2  0
 67 62  2  0
 68 61  1  0
 69 59  1  0
 71 73  2  0
 72 71  1  0
 74 72  1  0
 75 84  2  0
 75 80  1  0
 76 72  1  0
 76 80  1  0
 77 76  1  0
 78 79  1  0
 78 77  1  0
 79 75  1  0
 80 81  2  0
 81 82  1  0
 83 82  2  0
 84 83  1  0
 85 59  1  0
 85 86  1  0
 85 95  1  0
 86 89  1  0
 87 91  1  0
 87 86  1  0
 88 87  2  0
 91 90  1  0
 93 91  1  0
 93 94  1  0
 93 92  1  0
 95 98  1  1
 95 96  1  0
 97 95  1  0
M  ISO  4  16 100  17 100  57 101  58 101
M  END
>  <TORSDO>  (74) 
F 23

>  <SCORE>  (74) 
-12.846

>  <name>  (74) 
73

>  <ligand_id>  (74) 
73

>  <original_smiles>  (74) 
[H]c1c([H])c([H])c2c(c1[H])C([H])([H])C([H])([H])C([H])([H])C2([H])N([H])C(=O)C1([H])N(C(=O)C([H])(N([H])C(=O)C([H])(N([H])C([H])([H])[H])C([H])([H])[H])C(C([H])([H])[H])(C([H])([H])[H])C([H])([H])[H])C([H])([H])c2c([H])c(OC([H])([H])C([H])([H])C([H])([H])C([H])([H])C([H])([H])N3C([H])([H])C([H])([H])[N+]4([H])C([H])([H])c5c([H])c(C([H])([H])C([H])([H])C(=O)N6C([H])([H])C([H])([H])C([H])([H])C([H])(n7nc(-c8c([H])c([H])c(Oc9c([H])c([H])c(F)c([H])c9F)c([H])c8[H])c(C(=O)N([H])[H])c7N([H])[H])C6([H])[H])c([H])c([H])c5C4([H])C3([H])[H])c([H])c([H])c2C1([H])[H]

>  <smiles>  (74) 
[H]c1c([H])c([H])c2c(c1[H])C([H])([H])C([H])([H])C([H])([H])C2([H])N([H])C(=O)C1([H])N(C(=O)C([H])(N([H])C(=O)C([H])(N([H])C([H])([H])[H])C([H])([H])[H])C(C([H])([H])[H])(C([H])([H])[H])C([H])([H])[H])C([H])([H])c2c([H])c(OC([H])([H])C([H])([H])C([H])([H])C([H])([H])C([H])([H])N3C([H])([H])C([H])([H])[N+]4([H])C([H])([H])c5c([H])c(C([H])([H])C([H])([H])C(=O)N6C([H])([H])C([H])([H])C([H])([H])C([H])(n7nc(-c8c([H])c([H])c(Oc9c([H])c([H])c(F)c([H])c9F)c([H])c8[H])c(C(=O)N([H])[H])c7N([H])[H])C6([H])[H])c([H])c([H])c5C4([H])C3([H])[H])c([H])c([H])c2C1([H])[H]

$$$$
74:0:0
     RDKit          3D

 90 97  0  0  1  0  0  0  0  0999 V2000
  -29.9200  -21.1990   20.2980 C   0  0  0  0  0  3  0  0  0  0  0  0
  -28.8430  -22.3790   20.2820 C   0  0  0  0  0  3  0  0  0  0  0  0
  -29.2970  -23.8970   20.4660 C   0  0  0  0  0  3  0  0  0  0  0  0
  -28.1700  -24.9900   20.2150 C   0  0  0  0  0  3  0  0  0  0  0  0
  -28.4430  -26.4430   20.3680 O   0  0  0  0  0  0  0  0  0  0  0  0
  -24.5810  -31.7750   23.3500 C   0  0  0  0  0  0  0  0  0  0  0  0
  -27.3360  -27.3100   20.2830 C   0  0  0  0  0  0  0  0  0  0  0  0
  -23.4610  -30.4340   21.6080 C   0  0  0  0  0  3  0  0  0  0  0  0
  -24.9810  -28.9380   20.2020 C   0  0  0  0  0  0  0  0  0  0  0  0
  -26.0080  -30.7560   21.5620 C   0  0  0  0  0  2  0  0  0  0  0  0
  -26.1180  -29.4000   20.8740 C   0  0  0  0  0  0  0  0  0  0  0  0
  -27.2990  -28.5960   20.9060 C   0  0  0  0  0  3  0  0  0  0  0  0
  -26.1680  -26.9060   19.5920 C   0  0  0  0  0  3  0  0  0  0  0  0
  -25.0100  -27.6980   19.5520 C   0  0  0  0  0  3  0  0  0  0  0  0
  -23.7410  -29.8060   20.2190 C   0  0  0  0  0  2  0  0  0  0  0  0
  -24.6990  -31.0040   22.2300 N   0  0  0  0  0  0  0  0  0  0  0  0
  -23.4710  -32.0340   23.8380 O   0  0  0  0  0  0  0  0  0  0  0  0
  -22.7540  -29.3840   22.4990 C   0  0  0  0  0  0  0  0  0  0  0  0
  -21.4360  -29.2120   22.3020 N   0  0  0  0  0  0  0  0  0  0  0  0
  -23.3930  -28.7290   23.3270 O   0  0  0  0  0  0  0  0  0  0  0  0
  -20.9800  -29.7920   21.6080 H   0  0  0  0  0  0  0  0  0  0  0  0
  -18.0320  -28.0300   22.6070 C   0  0  0  0  0  0  0  0  0  0  0  0
  -20.5780  -28.2540   23.0010 C   0  0  0  0  0  3  0  0  0  0  0  0
  -20.6950  -26.8450   22.3750 C   0  0  0  0  0  2  0  0  0  0  0  0
  -19.6360  -26.5710   21.3040 C   0  0  0  0  0  2  0  0  0  0  0  0
  -18.2290  -26.7040   21.8920 C   0  0  0  0  0  2  0  0  0  0  0  0
  -19.1370  -28.7640   23.1150 C   0  0  0  0  0  0  0  0  0  0  0  0
  -18.9020  -30.0060   23.7460 C   0  0  0  0  0  3  0  0  0  0  0  0
  -17.5950  -30.5110   23.8760 C   0  0  0  0  0  3  0  0  0  0  0  0
  -16.5050  -29.7710   23.3890 C   0  0  0  0  0  3  0  0  0  0  0  0
  -16.7230  -28.5330   22.7580 C   0  0  0  0  0  3  0  0  0  0  0  0
  -25.8320  -32.3840   24.0550 C   0  0  0  0  0  3  0  0  0  0  0  0
  -25.5140  -33.7770   24.3930 N   0  0  0  0  0  0  0  0  0  0  0  0
  -25.8920  -34.8420   23.6730 C   0  0  0  0  0  0  0  0  0  0  0  0
  -26.6120  -34.7510   22.6750 O   0  0  0  0  0  0  0  0  0  0  0  0
  -24.8830  -33.9240   25.1660 H   0  0  0  0  0  0  0  0  0  0  0  0
  -24.1950  -36.6550   23.2640 C   0  0  0  0  0  1  0  0  0  0  0  0
  -25.3910  -36.2260   24.1310 C   0  0  0  0  0  3  0  0  0  0  0  0
  -27.4770  -37.0880   25.0940 C   0  0  0  0  0  1  0  0  0  0  0  0
  -26.4340  -37.2740   24.0900 N   0  0  0  0  0  0  0  0  0  0  0  0
  -26.0250  -38.1940   24.2230 H   0  0  0  0  0  0  0  0  0  0  0  0
  -26.2710  -31.5840   25.3440 C   0  0  1  0  0  0  0  0  0  0  0  0
  -25.1160  -31.3290   26.3410 C   0  0  0  0  0  1  0  0  0  0  0  0
  -26.8720  -30.2120   24.9630 C   0  0  0  0  0  1  0  0  0  0  0  0
  -27.3840  -32.3610   26.0890 C   0  0  0  0  0  1  0  0  0  0  0  0
  -29.4600  -19.6560   20.2620 C   0  0  0  0  0  3  0  0  0  0  0  0
  -30.6160  -18.6770   22.2650 C   0  0  0  0  0  1  0  0  0  0  0  0
  -30.5200  -18.6760   20.7840 N   0  0  1  0  0  4  0  0  0  0  0  0
  -31.3610  -19.1600   20.5070 H   0  0  0  0  0  0  0  0  0  0  0  0
  -30.8110  -17.2990   20.1750 C   0  0  0  0  0  3  0  0  0  0  0  0
  -30.1270  -15.9540   20.7210 C   0  0  0  0  0  3  0  0  0  0  0  0
  -30.7990  -14.5850   20.2750 C   0  0  0  0  0  0  0  0  0  0  0  0
  -30.4800  -12.3420   19.2360 C   0  0  0  0  0  2  0  0  0  0  0  0
  -29.5460  -12.4720   18.0130 C   0  0  0  0  0  2  0  0  0  0  0  0
  -28.0730  -12.3580   18.4430 C   0  0  0  0  0  2  0  0  0  0  0  0
  -27.7310  -13.2580   19.6590 C   0  0  0  0  0  3  0  0  0  0  0  0
  -28.7880  -13.1290   20.7810 C   0  0  0  0  0  2  0  0  0  0  0  0
  -30.1110  -13.4000   20.2020 N   0  0  0  0  0  0  0  0  0  0  0  0
  -31.9600  -14.6330   19.8620 O   0  0  0  0  0  0  0  0  0  0  0  0
  -25.3480  -13.9160   20.3470 C   0  0  0  0  0  0  0  0  0  0  0  0
  -24.2650  -13.1720   20.7320 C   0  0  0  0  0  0  0  0  0  0  0  0
  -24.7030  -11.8120   20.7470 C   0  0  0  0  0  0  0  0  0  0  0  0
  -26.3770  -13.0110   20.1490 N   0  0  0  0  0  0  0  0  0  0  0  0
  -25.9950  -11.7440   20.4520 N   0  0  0  0  0  0  0  0  0  0  0  0
  -23.9520  -10.5700   20.9650 C   0  0  0  0  0  0  0  0  0  0  0  0
  -24.3460   -9.6320   21.9450 C   0  0  0  0  0  3  0  0  0  0  0  0
  -23.5980   -8.4530   22.1540 C   0  0  0  0  0  3  0  0  0  0  0  0
  -22.4380   -8.2030   21.3810 C   0  0  0  0  0  0  0  0  0  0  0  0
  -22.0590   -9.1300   20.3950 C   0  0  0  0  0  3  0  0  0  0  0  0
  -22.8090  -10.3010   20.1840 C   0  0  0  0  0  3  0  0  0  0  0  0
  -21.6650   -7.0740   21.4950 O   0  0  0  0  0  0  0  0  0  0  0  0
  -21.5620   -6.3870   22.6780 C   0  0  0  0  0  0  0  0  0  0  0  0
  -21.0680   -6.9950   23.8520 C   0  0  0  0  0  3  0  0  0  0  0  0
  -20.9180   -6.2330   25.0300 C   0  0  0  0  0  3  0  0  0  0  0  0
  -21.2480   -4.8660   25.0290 C   0  0  0  0  0  0  0  0  0  0  0  0
  -21.7340   -4.2570   23.8590 C   0  0  0  0  0  3  0  0  0  0  0  0
  -21.8880   -5.0170   22.6850 C   0  0  0  0  0  0  0  0  0  0  0  0
  -22.3350   -4.4220   21.5540 F   0  0  0  0  0  0  0  0  0  0  0  0
  -21.0980   -4.1310   26.1560 F   0  0  0  0  0  0  0  0  0  0  0  0
  -22.8770  -13.6830   20.9720 C   0  0  0  0  0  0  0  0  0  0  0  0
  -22.1320  -13.0390   21.8640 N   0  0  0  0  0  0  0  0  0  0  0  0
  -22.4600  -14.6940   20.4060 O   0  0  0  0  0  0  0  0  0  0  0  0
  -22.4840  -12.2270   22.3480 H   0  0  0  0  0  0  0  0  0  0  0  0
  -21.1930  -13.3610   22.0560 H   0  0  0  0  0  0  0  0  0  0  0  0
  -25.5290  -15.2780   20.1260 N   0  0  0  0  0  0  0  0  0  0  0  0
  -24.7530  -15.9270   20.1890 H   0  0  0  0  0  0  0  0  0  0  0  0
  -26.3670  -15.7010   19.7500 H   0  0  0  0  0  0  0  0  0  0  0  0
  -27.2960  -19.6810   18.8500 C   0  0  0  0  0  1  0  0  0  0  0  0
  -29.5500  -19.5130   17.6670 C   0  0  0  0  0  1  0  0  0  0  0  0
  -28.7580  -19.1910   18.9490 C   0  0  0  0  0  3  0  0  0  0  0  0
  2  1  2  0
  2  3  1  0
  4  5  1  0
  4  3  2  0
  6 17  2  0
  7  5  1  0
  7 12  1  0
  8 16  1  0
  8 18  1  0
  9 15  1  0
  9 11  1  0
 10 16  1  0
 11 12  2  0
 11 10  1  0
 13  7  2  0
 14 13  1  0
 14  9  2  0
 15  8  1  0
 16  6  1  0
 18 20  2  0
 19 18  1  0
 21 19  1  0
 22 31  2  0
 22 27  1  0
 23 19  1  0
 23 27  1  0
 24 23  1  0
 25 26  1  0
 25 24  1  0
 26 22  1  0
 27 28  2  0
 28 29  1  0
 30 29  2  0
 31 30  1  0
 32  6  1  0
 32 33  1  0
 32 42  1  0
 33 36  1  0
 34 38  1  0
 34 33  1  0
 35 34  2  0
 38 37  1  0
 40 38  1  0
 40 41  1  0
 40 39  1  0
 42 45  1  1
 42 43  1  0
 44 42  1  0
 46  1  1  0
 46 48  1  0
 48 47  1  0
 48 49  1  6
 50 51  2  0
 50 48  1  0
 52 51  1  0
 53 58  1  0
 54 55  1  0
 54 53  1  0
 56 55  1  0
 56 63  1  0
 56 57  1  0
 58 52  1  0
 58 57  1  0
 59 52  2  0
 60 61  2  0
 61 62  1  0
 61 80  1  0
 62 65  1  0
 63 60  1  0
 63 64  1  0
 64 62  2  0
 65 66  1  0
 66 67  2  0
 68 71  1  0
 68 67  1  0
 69 68  2  0
 70 69  1  0
 70 65  2  0
 71 72  1  0
 72 77  2  0
 72 73  1  0
 73 74  2  0
 75 74  1  0
 75 79  1  0
 76 75  2  0
 77 76  1  0
 78 77  1  0
 80 81  1  0
 81 84  1  0
 81 83  1  0
 82 80  2  0
 85 86  1  0
 85 60  1  0
 87 85  1  0
 88 90  1  0
 89 90  1  0
 90 46  1  0
M  ISO  4   4 101   5 101  51 100  52 100
M  END
>  <TORSDO>  (75) 
F 24

>  <SCORE>  (75) 
-11.963

>  <name>  (75) 
74

>  <ligand_id>  (75) 
74

>  <original_smiles>  (75) 
[H]c1c([H])c([H])c2c(c1[H])C([H])([H])C([H])([H])C([H])([H])C2([H])N([H])C(=O)C1([H])N(C(=O)C([H])(N([H])C(=O)C([H])(N([H])C([H])([H])[H])C([H])([H])[H])C(C([H])([H])[H])(C([H])([H])[H])C([H])([H])[H])C([H])([H])c2c([H])c(OC([H])([H])C([H])([H])C([H])([H])C([H])([H])C([H])(C([H])(C([H])([H])[H])C([H])([H])[H])[N+]([H])(C([H])([H])[H])C([H])([H])C([H])([H])C(=O)N3C([H])([H])C([H])([H])C([H])([H])C([H])(n4nc(-c5c([H])c([H])c(Oc6c([H])c([H])c(F)c([H])c6F)c([H])c5[H])c(C(=O)N([H])[H])c4N([H])[H])C3([H])[H])c([H])c([H])c2C1([H])[H]

>  <smiles>  (75) 
[H]c1c([H])c([H])c2c(c1[H])C([H])([H])C([H])([H])C([H])([H])C2([H])N([H])C(=O)C1([H])N(C(=O)C([H])(N([H])C(=O)C([H])(N([H])C([H])([H])[H])C([H])([H])[H])C(C([H])([H])[H])(C([H])([H])[H])C([H])([H])[H])C([H])([H])c2c([H])c(OC([H])([H])C([H])([H])C([H])([H])C([H])([H])C([H])(C([H])(C([H])([H])[H])C([H])([H])[H])[N+]([H])(C([H])([H])[H])C([H])([H])C([H])([H])C(=O)N3C([H])([H])C([H])([H])C([H])([H])C([H])(n4nc(-c5c([H])c([H])c(Oc6c([H])c([H])c(F)c([H])c6F)c([H])c5[H])c(C(=O)N([H])[H])c4N([H])[H])C3([H])[H])c([H])c([H])c2C1([H])[H]

$$$$
75:0:0
     RDKit          3D

 91 98  0  0  1  0  0  0  0  0999 V2000
  -28.6120  -20.9250   20.6980 N   0  0  0  0  0  4  0  0  0  0  0  0
  -29.0910  -20.7960   21.5750 H   0  0  0  0  0  0  0  0  0  0  0  0
  -29.3080  -21.1000   19.9930 H   0  0  0  0  0  0  0  0  0  0  0  0
  -27.5700  -19.5760   18.8710 C   0  0  0  0  0  1  0  0  0  0  0  0
  -27.9060  -19.6570   20.3710 C   0  0  0  0  0  3  0  0  0  0  0  0
  -28.6750  -18.3860   20.8490 C   0  0  0  0  0  2  0  0  0  0  0  0
  -31.1370  -18.9590   21.2820 C   0  0  0  0  0  1  0  0  0  0  0  0
  -30.1390  -18.2490   20.3490 C   0  0  0  0  0  3  0  0  0  0  0  0
  -30.1590  -15.6290   20.4670 C   0  0  0  0  0  3  0  0  0  0  0  0
  -30.6450  -16.8330   20.0800 C   0  0  0  0  0  3  0  0  0  0  0  0
  -30.8710  -14.4240   20.0250 C   0  0  0  0  0  0  0  0  0  0  0  0
  -30.5000  -12.2390   18.9680 C   0  0  0  0  0  2  0  0  0  0  0  0
  -29.5310  -12.4300   17.7840 C   0  0  0  0  0  2  0  0  0  0  0  0
  -28.0670  -12.3310   18.2560 C   0  0  0  0  0  2  0  0  0  0  0  0
  -27.7770  -13.1910   19.5160 C   0  0  0  0  0  3  0  0  0  0  0  0
  -28.8630  -12.9780   20.5920 C   0  0  0  0  0  2  0  0  0  0  0  0
  -30.1700  -13.2570   19.9810 N   0  0  0  0  0  0  0  0  0  0  0  0
  -32.0120  -14.4960   19.5580 O   0  0  0  0  0  0  0  0  0  0  0  0
  -25.4080  -13.8290   20.2910 C   0  0  0  0  0  0  0  0  0  0  0  0
  -24.3440  -13.0720   20.7010 C   0  0  0  0  0  0  0  0  0  0  0  0
  -24.7900  -11.7150   20.6690 C   0  0  0  0  0  0  0  0  0  0  0  0
  -26.4370  -12.9350   20.0390 N   0  0  0  0  0  0  0  0  0  0  0  0
  -26.0690  -11.6580   20.3200 N   0  0  0  0  0  0  0  0  0  0  0  0
  -24.0560  -10.4620   20.8900 C   0  0  0  0  0  0  0  0  0  0  0  0
  -24.4750   -9.5230   21.8580 C   0  0  0  0  0  3  0  0  0  0  0  0
  -23.7430   -8.3340   22.0670 C   0  0  0  0  0  3  0  0  0  0  0  0
  -22.5770   -8.0760   21.3080 C   0  0  0  0  0  0  0  0  0  0  0  0
  -22.1760   -9.0040   20.3300 C   0  0  0  0  0  3  0  0  0  0  0  0
  -22.9080  -10.1840   20.1200 C   0  0  0  0  0  3  0  0  0  0  0  0
  -21.8160   -6.9380   21.4240 O   0  0  0  0  0  0  0  0  0  0  0  0
  -21.7150   -6.2580   22.6110 C   0  0  0  0  0  0  0  0  0  0  0  0
  -21.2210   -6.8720   23.7820 C   0  0  0  0  0  3  0  0  0  0  0  0
  -21.0690   -6.1180   24.9620 C   0  0  0  0  0  3  0  0  0  0  0  0
  -21.4010   -4.7490   24.9720 C   0  0  0  0  0  0  0  0  0  0  0  0
  -21.8880   -4.1350   23.8050 C   0  0  0  0  0  3  0  0  0  0  0  0
  -22.0410   -4.8870   22.6270 C   0  0  0  0  0  0  0  0  0  0  0  0
  -22.4910   -4.2850   21.5000 F   0  0  0  0  0  0  0  0  0  0  0  0
  -21.2490   -4.0220   26.1040 F   0  0  0  0  0  0  0  0  0  0  0  0
  -22.9610  -13.5660   21.0140 C   0  0  0  0  0  0  0  0  0  0  0  0
  -22.2510  -12.8830   21.9050 N   0  0  0  0  0  0  0  0  0  0  0  0
  -22.5180  -14.5940   20.5010 O   0  0  0  0  0  0  0  0  0  0  0  0
  -22.6230  -12.0530   22.3430 H   0  0  0  0  0  0  0  0  0  0  0  0
  -21.3230  -13.1940   22.1530 H   0  0  0  0  0  0  0  0  0  0  0  0
  -25.5830  -15.1960   20.0930 N   0  0  0  0  0  0  0  0  0  0  0  0
  -24.8260  -15.8600   20.2120 H   0  0  0  0  0  0  0  0  0  0  0  0
  -26.4260  -15.6130   19.7200 H   0  0  0  0  0  0  0  0  0  0  0  0
  -27.7550  -22.1290   20.8490 C   0  0  0  0  0  2  0  0  0  0  0  0
  -28.5880  -23.4300   20.9560 C   0  0  0  0  0  2  0  0  0  0  0  0
  -27.8050  -24.6100   21.5690 C   0  0  0  0  0  2  0  0  0  0  0  0
  -28.5640  -25.9590   21.5730 C   0  0  0  0  0  2  0  0  0  0  0  0
  -28.4160  -26.7000   20.3560 O   0  0  0  0  0  0  0  0  0  0  0  0
  -24.5660  -31.9150   23.2970 C   0  0  0  0  0  0  0  0  0  0  0  0
  -27.2740  -27.4610   20.3190 C   0  0  0  0  0  0  0  0  0  0  0  0
  -23.3890  -30.4840   21.6570 C   0  0  0  0  0  3  0  0  0  0  0  0
  -24.8730  -28.9400   20.2680 C   0  0  0  0  0  0  0  0  0  0  0  0
  -25.9100  -30.8620   21.4840 C   0  0  0  0  0  2  0  0  0  0  0  0
  -26.0160  -29.4820   20.8710 C   0  0  0  0  0  0  0  0  0  0  0  0
  -27.2200  -28.7450   20.9050 C   0  0  0  0  0  3  0  0  0  0  0  0
  -26.1270  -26.9370   19.6930 C   0  0  0  0  0  3  0  0  0  0  0  0
  -24.9220  -27.6630   19.6790 C   0  0  0  0  0  3  0  0  0  0  0  0
  -23.6190  -29.7860   20.2890 C   0  0  0  0  0  2  0  0  0  0  0  0
  -24.6380  -31.1010   22.2060 N   0  0  0  0  0  0  0  0  0  0  0  0
  -23.4770  -32.1880   23.8200 O   0  0  0  0  0  0  0  0  0  0  0  0
  -22.7330  -29.4700   22.6220 C   0  0  0  0  0  0  0  0  0  0  0  0
  -21.4140  -29.2720   22.4720 N   0  0  0  0  0  0  0  0  0  0  0  0
  -23.4090  -28.8660   23.4590 O   0  0  0  0  0  0  0  0  0  0  0  0
  -20.9330  -29.8120   21.7660 H   0  0  0  0  0  0  0  0  0  0  0  0
  -18.0450  -28.0460   22.9120 C   0  0  0  0  0  0  0  0  0  0  0  0
  -20.5910  -28.3370   23.2390 C   0  0  0  0  0  3  0  0  0  0  0  0
  -20.7260  -26.8980   22.6880 C   0  0  0  0  0  2  0  0  0  0  0  0
  -19.6500  -26.5460   21.6560 C   0  0  0  0  0  2  0  0  0  0  0  0
  -18.2520  -26.6880   22.2640 C   0  0  0  0  0  2  0  0  0  0  0  0
  -19.1440  -28.8280   23.3550 C   0  0  0  0  0  0  0  0  0  0  0  0
  -18.9000  -30.1000   23.9170 C   0  0  0  0  0  3  0  0  0  0  0  0
  -17.5870  -30.5920   24.0390 C   0  0  0  0  0  3  0  0  0  0  0  0
  -16.5010  -29.8080   23.6130 C   0  0  0  0  0  3  0  0  0  0  0  0
  -16.7300  -28.5360   23.0570 C   0  0  0  0  0  3  0  0  0  0  0  0
  -25.8420  -32.5600   23.9250 C   0  0  0  0  0  3  0  0  0  0  0  0
  -26.3280  -31.8250   25.2340 C   0  0  1  0  0  0  0  0  0  0  0  0
  -25.2090  -31.6190   26.2810 C   0  0  0  0  0  1  0  0  0  0  0  0
  -26.9210  -30.4390   24.8910 C   0  0  0  0  0  1  0  0  0  0  0  0
  -27.4640  -32.6380   25.9010 C   0  0  0  0  0  1  0  0  0  0  0  0
  -25.5370  -33.9690   24.2000 N   0  0  0  0  0  0  0  0  0  0  0  0
  -25.8950  -34.9920   23.4130 C   0  0  0  0  0  0  0  0  0  0  0  0
  -26.5920  -34.8480   22.4040 O   0  0  0  0  0  0  0  0  0  0  0  0
  -24.9300  -34.1550   24.9850 H   0  0  0  0  0  0  0  0  0  0  0  0
  -24.1920  -36.7780   22.9400 C   0  0  0  0  0  1  0  0  0  0  0  0
  -25.4030  -36.3970   23.8050 C   0  0  0  0  0  3  0  0  0  0  0  0
  -27.5130  -37.2990   24.6790 C   0  0  0  0  0  1  0  0  0  0  0  0
  -26.4460  -37.4400   23.6900 N   0  0  0  0  0  0  0  0  0  0  0  0
  -26.0420  -38.3670   23.7930 H   0  0  0  0  0  0  0  0  0  0  0  0
  1 47  1  0
  1  2  1  0
  3  1  1  0
  5  4  1  0
  5  1  1  0
  5  6  1  0
  8  6  1  0
  8  7  1  0
 10  8  1  0
 10  9  2  0
 11  9  1  0
 12 17  1  0
 13 14  1  0
 13 12  1  0
 15 14  1  0
 15 22  1  0
 15 16  1  0
 17 11  1  0
 17 16  1  0
 18 11  2  0
 19 20  2  0
 20 39  1  0
 21 20  1  0
 21 24  1  0
 22 19  1  0
 22 23  1  0
 23 21  2  0
 24 25  1  0
 25 26  2  0
 27 30  1  0
 27 26  1  0
 28 27  2  0
 29 28  1  0
 29 24  2  0
 30 31  1  0
 31 36  2  0
 31 32  1  0
 32 33  2  0
 33 34  1  0
 34 38  1  0
 35 34  2  0
 36 35  1  0
 37 36  1  0
 39 40  1  0
 40 43  1  0
 40 42  1  0
 41 39  2  0
 44 45  1  0
 44 19  1  0
 46 44  1  0
 47 48  1  0
 48 49  1  0
 49 50  1  0
 51 50  1  0
 52 63  2  0
 53 51  1  0
 53 58  1  0
 54 62  1  0
 54 64  1  0
 55 61  1  0
 55 57  1  0
 56 62  1  0
 57 58  2  0
 57 56  1  0
 59 53  2  0
 60 59  1  0
 60 55  2  0
 61 54  1  0
 62 52  1  0
 64 66  2  0
 65 64  1  0
 67 65  1  0
 68 77  2  0
 68 73  1  0
 69 65  1  0
 69 73  1  0
 70 69  1  0
 71 72  1  0
 71 70  1  0
 72 68  1  0
 73 74  2  0
 74 75  1  0
 76 75  2  0
 77 76  1  0
 78 52  1  0
 78 83  1  0
 78 79  1  0
 79 82  1  1
 79 80  1  0
 81 79  1  0
 83 86  1  0
 84 88  1  0
 84 83  1  0
 85 84  2  0
 88 87  1  0
 90 91  1  0
 90 88  1  0
 90 89  1  0
M  ISO  4   9 100  11 100  50 101  51 101
M  END
>  <TORSDO>  (76) 
F 24

>  <SCORE>  (76) 
-12.194

>  <name>  (76) 
75

>  <ligand_id>  (76) 
75

>  <original_smiles>  (76) 
[H]C(C(=O)N1C([H])([H])C([H])([H])C([H])([H])C([H])(n2nc(-c3c([H])c([H])c(Oc4c([H])c([H])c(F)c([H])c4F)c([H])c3[H])c(C(=O)N([H])[H])c2N([H])[H])C1([H])[H])=C([H])C([H])(C([H])([H])[H])C([H])([H])C([H])(C([H])([H])[H])[N+]([H])([H])C([H])([H])C([H])([H])C([H])([H])C([H])([H])Oc1c([H])c([H])c2c(c1[H])C([H])([H])N(C(=O)C([H])(N([H])C(=O)C([H])(N([H])C([H])([H])[H])C([H])([H])[H])C(C([H])([H])[H])(C([H])([H])[H])C([H])([H])[H])C([H])(C(=O)N([H])C1([H])c3c([H])c([H])c([H])c([H])c3C([H])([H])C([H])([H])C1([H])[H])C2([H])[H]

>  <smiles>  (76) 
[H]C(C(=O)N1C([H])([H])C([H])([H])C([H])([H])C([H])(n2nc(-c3c([H])c([H])c(Oc4c([H])c([H])c(F)c([H])c4F)c([H])c3[H])c(C(=O)N([H])[H])c2N([H])[H])C1([H])[H])=C([H])C([H])(C([H])([H])[H])C([H])([H])C([H])(C([H])([H])[H])[N+]([H])([H])C([H])([H])C([H])([H])C([H])([H])C([H])([H])Oc1c([H])c([H])c2c(c1[H])C([H])([H])N(C(=O)C([H])(N([H])C(=O)C([H])(N([H])C([H])([H])[H])C([H])([H])[H])C(C([H])([H])[H])(C([H])([H])[H])C([H])([H])[H])C([H])(C(=O)N([H])C1([H])c3c([H])c([H])c([H])c([H])c3C([H])([H])C([H])([H])C1([H])[H])C2([H])[H]

$$$$
76:0:0
     RDKit          3D

 95104  0  0  1  0  0  0  0  0999 V2000
  -31.1000  -19.5020   21.5490 C   0  0  0  0  0  2  0  0  0  0  0  0
  -30.3930  -20.8260   21.8930 C   0  0  0  0  0  2  0  0  0  0  0  0
  -29.1650  -18.8210   20.1080 C   0  0  0  0  0  2  0  0  0  0  0  0
  -28.4500  -20.1660   20.4010 C   0  0  0  0  0  3  0  0  0  0  0  0
  -30.1050  -18.3620   21.2440 C   0  0  0  0  0  3  0  0  0  0  0  0
  -29.4460  -21.3050   20.7720 C   0  0  0  0  0  3  0  0  0  0  0  0
  -25.8430  -21.2740   17.0880 C   0  0  0  0  0  3  0  0  0  0  0  0
  -27.2270  -21.1270   16.8730 C   0  0  0  0  0  3  0  0  0  0  0  0
  -25.3050  -21.0630   18.3710 C   0  0  0  0  0  3  0  0  0  0  0  0
  -28.0720  -20.7700   17.9430 C   0  0  0  0  0  3  0  0  0  0  0  0
  -26.1510  -20.7010   19.4390 C   0  0  0  0  0  3  0  0  0  0  0  0
  -27.5400  -20.5510   19.2350 C   0  0  0  0  0  0  0  0  0  0  0  0
  -30.8690  -17.0560   20.8960 C   0  0  0  0  0  2  0  0  0  0  0  0
  -30.0870  -15.7220   21.0630 C   0  0  0  0  0  2  0  0  0  0  0  0
  -30.7430  -14.5290   20.3250 C   0  0  0  0  0  0  0  0  0  0  0  0
  -30.4140  -12.3950   19.1250 C   0  0  0  0  0  2  0  0  0  0  0  0
  -29.4340  -12.6060   17.9540 C   0  0  0  0  0  2  0  0  0  0  0  0
  -27.9750  -12.4520   18.4280 C   0  0  0  0  0  2  0  0  0  0  0  0
  -27.6690  -13.2830   19.7030 C   0  0  0  0  0  3  0  0  0  0  0  0
  -28.7560  -13.0590   20.7780 C   0  0  0  0  0  2  0  0  0  0  0  0
  -30.0640  -13.3600   20.1800 N   0  0  0  0  0  0  0  0  0  0  0  0
  -31.8410  -14.7110   19.7920 O   0  0  0  0  0  0  0  0  0  0  0  0
  -25.3020  -13.8790   20.5240 C   0  0  0  0  0  0  0  0  0  0  0  0
  -24.2380  -13.1000   20.8910 C   0  0  0  0  0  0  0  0  0  0  0  0
  -24.6840  -11.7470   20.7810 C   0  0  0  0  0  0  0  0  0  0  0  0
  -26.3290  -13.0000   20.2160 N   0  0  0  0  0  0  0  0  0  0  0  0
  -25.9620  -11.7110   20.4280 N   0  0  0  0  0  0  0  0  0  0  0  0
  -23.9510  -10.4830   20.9350 C   0  0  0  0  0  0  0  0  0  0  0  0
  -24.4040   -9.4690   21.8080 C   0  0  0  0  0  3  0  0  0  0  0  0
  -23.6730   -8.2710   21.9520 C   0  0  0  0  0  3  0  0  0  0  0  0
  -22.4760   -8.0760   21.2230 C   0  0  0  0  0  0  0  0  0  0  0  0
  -22.0420   -9.0790   20.3390 C   0  0  0  0  0  3  0  0  0  0  0  0
  -22.7730  -10.2700   20.1910 C   0  0  0  0  0  3  0  0  0  0  0  0
  -21.7160   -6.9340   21.2810 O   0  0  0  0  0  0  0  0  0  0  0  0
  -21.6840   -6.1450   22.4030 C   0  0  0  0  0  0  0  0  0  0  0  0
  -21.3000   -6.6550   23.6620 C   0  0  0  0  0  3  0  0  0  0  0  0
  -21.2160   -5.7940   24.7740 C   0  0  0  0  0  3  0  0  0  0  0  0
  -21.5060   -4.4230   24.6280 C   0  0  0  0  0  0  0  0  0  0  0  0
  -21.8830   -3.9140   23.3740 C   0  0  0  0  0  3  0  0  0  0  0  0
  -21.9710   -4.7720   22.2640 C   0  0  0  0  0  0  0  0  0  0  0  0
  -22.3140   -4.2720   21.0530 F   0  0  0  0  0  0  0  0  0  0  0  0
  -21.4170   -3.5950   25.6940 F   0  0  0  0  0  0  0  0  0  0  0  0
  -22.8550  -13.5750   21.2320 C   0  0  0  0  0  0  0  0  0  0  0  0
  -22.1510  -12.8470   22.0920 N   0  0  0  0  0  0  0  0  0  0  0  0
  -22.4060  -14.6250   20.7710 O   0  0  0  0  0  0  0  0  0  0  0  0
  -22.5240  -11.9960   22.4840 H   0  0  0  0  0  0  0  0  0  0  0  0
  -21.2220  -13.1440   22.3570 H   0  0  0  0  0  0  0  0  0  0  0  0
  -25.4770  -15.2550   20.4060 N   0  0  0  0  0  0  0  0  0  0  0  0
  -24.7270  -15.9130   20.5750 H   0  0  0  0  0  0  0  0  0  0  0  0
  -26.3260  -15.6970   20.0760 H   0  0  0  0  0  0  0  0  0  0  0  0
  -28.7330  -22.6250   21.1880 C   0  0  0  0  0  2  0  0  0  0  0  0
  -29.4620  -23.9250   20.7850 C   0  0  0  0  0  2  0  0  0  0  0  0
  -28.8700  -25.1680   21.4890 C   0  0  0  0  0  2  0  0  0  0  0  0
  -29.3410  -26.5220   20.9190 C   0  0  0  0  0  2  0  0  0  0  0  0
  -28.6300  -26.8280   19.7210 O   0  0  0  0  0  0  0  0  0  0  0  0
  -24.6050  -31.7050   23.0830 C   0  0  0  0  0  0  0  0  0  0  0  0
  -27.4460  -27.5180   19.8420 C   0  0  0  0  0  0  0  0  0  0  0  0
  -23.4580  -30.3200   21.3800 C   0  0  0  0  0  3  0  0  0  0  0  0
  -24.9800  -28.8970   19.9060 C   0  0  0  0  0  0  0  0  0  0  0  0
  -25.9620  -30.7970   21.2030 C   0  0  0  0  0  2  0  0  0  0  0  0
  -26.1090  -29.4520   20.5240 C   0  0  0  0  0  0  0  0  0  0  0  0
  -27.3430  -28.7670   20.4990 C   0  0  0  0  0  3  0  0  0  0  0  0
  -26.3050  -26.9760   19.2180 C   0  0  0  0  0  3  0  0  0  0  0  0
  -25.0700  -27.6520   19.2570 C   0  0  0  0  0  3  0  0  0  0  0  0
  -23.7000  -29.6980   19.9760 C   0  0  0  0  0  2  0  0  0  0  0  0
  -24.6920  -30.9530   21.9480 N   0  0  0  0  0  0  0  0  0  0  0  0
  -23.5150  -31.9110   23.6320 O   0  0  0  0  0  0  0  0  0  0  0  0
  -22.8490  -29.2360   22.2990 C   0  0  0  0  0  0  0  0  0  0  0  0
  -21.5280  -29.0260   22.1810 N   0  0  0  0  0  0  0  0  0  0  0  0
  -23.5590  -28.5890   23.0740 O   0  0  0  0  0  0  0  0  0  0  0  0
  -21.0160  -29.6050   21.5310 H   0  0  0  0  0  0  0  0  0  0  0  0
  -18.1890  -27.7380   22.6570 C   0  0  0  0  0  0  0  0  0  0  0  0
  -20.7440  -28.0320   22.9110 C   0  0  0  0  0  3  0  0  0  0  0  0
  -20.8680  -26.6370   22.2550 C   0  0  0  0  0  2  0  0  0  0  0  0
  -19.7570  -26.3480   21.2390 C   0  0  0  0  0  2  0  0  0  0  0  0
  -18.3820  -26.4290   21.9100 C   0  0  0  0  0  2  0  0  0  0  0  0
  -19.2990  -28.4990   23.1120 C   0  0  0  0  0  0  0  0  0  0  0  0
  -19.0640  -29.7260   23.7690 C   0  0  0  0  0  3  0  0  0  0  0  0
  -17.7530  -30.1930   23.9750 C   0  0  0  0  0  3  0  0  0  0  0  0
  -16.6580  -29.4270   23.5390 C   0  0  0  0  0  3  0  0  0  0  0  0
  -16.8770  -28.2020   22.8850 C   0  0  0  0  0  3  0  0  0  0  0  0
  -25.8680  -32.3580   23.7290 C   0  0  0  0  0  3  0  0  0  0  0  0
  -25.5140  -33.7330   24.1020 N   0  0  0  0  0  0  0  0  0  0  0  0
  -25.8040  -34.8160   23.3700 C   0  0  0  0  0  0  0  0  0  0  0  0
  -26.4730  -34.7660   22.3330 O   0  0  0  0  0  0  0  0  0  0  0  0
  -24.9200  -33.8430   24.9110 H   0  0  0  0  0  0  0  0  0  0  0  0
  -24.0010  -36.5420   23.0740 C   0  0  0  0  0  1  0  0  0  0  0  0
  -25.2660  -36.1710   23.8650 C   0  0  0  0  0  3  0  0  0  0  0  0
  -27.3710  -37.1220   24.6930 C   0  0  0  0  0  1  0  0  0  0  0  0
  -26.2520  -37.2680   23.7660 N   0  0  0  0  0  0  0  0  0  0  0  0
  -25.8110  -38.1660   23.9430 H   0  0  0  0  0  0  0  0  0  0  0  0
  -26.4050  -31.5610   24.9800 C   0  0  1  0  0  0  0  0  0  0  0  0
  -25.3190  -31.2580   26.0370 C   0  0  0  0  0  1  0  0  0  0  0  0
  -27.0300  -30.2180   24.5370 C   0  0  0  0  0  1  0  0  0  0  0  0
  -27.5270  -32.3670   25.6740 C   0  0  0  0  0  1  0  0  0  0  0  0
  1  2  1  0
  3  4  1  0
  3  5  1  0
  4 12  1  0
  4  6  1  0
  5 13  1  0
  5  1  1  0
  6 51  1  0
  6  2  1  0
  7  9  1  0
  8  7  2  0
  8 10  1  0
  9 11  2  0
 10 12  2  0
 12 11  1  0
 13 14  1  0
 15 14  1  0
 16 21  1  0
 17 18  1  0
 17 16  1  0
 19 18  1  0
 19 26  1  0
 19 20  1  0
 21 15  1  0
 21 20  1  0
 22 15  2  0
 23 24  2  0
 24 43  1  0
 25 24  1  0
 25 28  1  0
 26 27  1  0
 26 23  1  0
 27 25  2  0
 28 29  1  0
 29 30  2  0
 31 34  1  0
 31 30  1  0
 32 31  2  0
 33 32  1  0
 33 28  2  0
 34 35  1  0
 35 36  1  0
 36 37  2  0
 38 37  1  0
 38 42  1  0
 39 38  2  0
 40 35  2  0
 40 39  1  0
 41 40  1  0
 43 44  1  0
 44 47  1  0
 44 46  1  0
 45 43  2  0
 48 23  1  0
 48 49  1  0
 50 48  1  0
 52 51  1  0
 52 53  1  0
 54 53  1  0
 55 57  1  0
 55 54  1  0
 56 67  2  0
 57 62  1  0
 58 66  1  0
 58 68  1  0
 59 65  1  0
 59 61  1  0
 60 66  1  0
 61 60  1  0
 62 61  2  0
 63 64  1  0
 63 57  2  0
 64 59  2  0
 65 58  1  0
 66 56  1  0
 68 70  2  0
 69 68  1  0
 71 69  1  0
 72 81  2  0
 72 77  1  0
 73 69  1  0
 73 77  1  0
 74 73  1  0
 75 76  1  0
 75 74  1  0
 76 72  1  0
 77 78  2  0
 78 79  1  0
 80 79  2  0
 81 80  1  0
 82 56  1  0
 82 83  1  0
 82 92  1  0
 83 86  1  0
 84 88  1  0
 84 83  1  0
 85 84  2  0
 88 87  1  0
 90 88  1  0
 90 91  1  0
 90 89  1  0
 92 95  1  1
 92 93  1  0
 94 92  1  0
M  ISO  4  14 100  15 100  54 101  55 101
M  END
>  <TORSDO>  (77) 
F 23

>  <SCORE>  (77) 
-11.386

>  <name>  (77) 
76

>  <ligand_id>  (77) 
76

>  <original_smiles>  (77) 
[H]c1c([H])c([H])c(C2([H])C([H])([H])C([H])(C([H])([H])C([H])([H])C(=O)N3C([H])([H])C([H])([H])C([H])([H])C([H])(n4nc(-c5c([H])c([H])c(Oc6c([H])c([H])c(F)c([H])c6F)c([H])c5[H])c(C(=O)N([H])[H])c4N([H])[H])C3([H])[H])C([H])([H])C([H])([H])C2([H])C([H])([H])C([H])([H])C([H])([H])C([H])([H])Oc2c([H])c([H])c3c(c2[H])C([H])([H])N(C(=O)C([H])(N([H])C(=O)C([H])(N([H])C([H])([H])[H])C([H])([H])[H])C(C([H])([H])[H])(C([H])([H])[H])C([H])([H])[H])C([H])(C(=O)N([H])C2([H])c4c([H])c([H])c([H])c([H])c4C([H])([H])C([H])([H])C2([H])[H])C3([H])[H])c([H])c1[H]

>  <smiles>  (77) 
[H]c1c([H])c([H])c(C2([H])C([H])([H])C([H])(C([H])([H])C([H])([H])C(=O)N3C([H])([H])C([H])([H])C([H])([H])C([H])(n4nc(-c5c([H])c([H])c(Oc6c([H])c([H])c(F)c([H])c6F)c([H])c5[H])c(C(=O)N([H])[H])c4N([H])[H])C3([H])[H])C([H])([H])C([H])([H])C2([H])C([H])([H])C([H])([H])C([H])([H])C([H])([H])Oc2c([H])c([H])c3c(c2[H])C([H])([H])N(C(=O)C([H])(N([H])C(=O)C([H])(N([H])C([H])([H])[H])C([H])([H])[H])C(C([H])([H])[H])(C([H])([H])[H])C([H])([H])[H])C([H])(C(=O)N([H])C2([H])c4c([H])c([H])c([H])c([H])c4C([H])([H])C([H])([H])C2([H])[H])C3([H])[H])c([H])c1[H]

$$$$
77:0:0
     RDKit          3D

 86 93  0  0  1  0  0  0  0  0999 V2000
  -29.0360  -23.4940   20.3470 C   0  0  0  0  0  3  0  0  0  0  0  0
  -28.5950  -21.8770   20.3190 C   0  0  0  0  0  2  0  0  0  0  0  0
  -30.6630  -20.9700   21.4240 C   0  0  0  0  0  1  0  0  0  0  0  0
  -29.6260  -20.6840   20.4080 N   0  0  1  0  0  4  0  0  0  0  0  0
  -30.1120  -20.7120   19.5240 H   0  0  0  0  0  0  0  0  0  0  0  0
  -29.1220  -19.1930   20.5320 C   0  0  0  0  0  3  0  0  0  0  0  0
  -30.1290  -17.8590   20.4070 C   0  0  0  0  0  3  0  0  0  0  0  0
  -29.6360  -16.2900   20.6890 C   0  0  0  0  0  2  0  0  0  0  0  0
  -30.4930  -14.9220   20.3730 C   0  0  0  0  0  0  0  0  0  0  0  0
  -30.3690  -12.6050   19.3710 C   0  0  0  0  0  2  0  0  0  0  0  0
  -29.4250  -12.6390   18.1450 C   0  0  0  0  0  2  0  0  0  0  0  0
  -27.9580  -12.4390   18.5720 C   0  0  0  0  0  2  0  0  0  0  0  0
  -27.5700  -13.3290   19.7810 C   0  0  0  0  0  3  0  0  0  0  0  0
  -28.6300  -13.2710   20.9020 C   0  0  0  0  0  2  0  0  0  0  0  0
  -29.9200  -13.6580   20.3200 N   0  0  0  0  0  0  0  0  0  0  0  0
  -31.6770  -15.0260   20.0350 O   0  0  0  0  0  0  0  0  0  0  0  0
  -25.1880  -13.9110   20.5220 C   0  0  0  0  0  0  0  0  0  0  0  0
  -24.1220  -13.1360   20.8890 C   0  0  0  0  0  0  0  0  0  0  0  0
  -24.5870  -11.7850   20.8540 C   0  0  0  0  0  0  0  0  0  0  0  0
  -26.2310  -13.0330   20.2770 N   0  0  0  0  0  0  0  0  0  0  0  0
  -25.8770  -11.7490   20.5430 N   0  0  0  0  0  0  0  0  0  0  0  0
  -23.8600  -10.5220   21.0400 C   0  0  0  0  0  0  0  0  0  0  0  0
  -24.2860   -9.5550   21.9780 C   0  0  0  0  0  3  0  0  0  0  0  0
  -23.5580   -8.3580   22.1520 C   0  0  0  0  0  3  0  0  0  0  0  0
  -22.3910   -8.1190   21.3880 C   0  0  0  0  0  0  0  0  0  0  0  0
  -21.9850   -9.0740   20.4390 C   0  0  0  0  0  3  0  0  0  0  0  0
  -22.7130  -10.2630   20.2630 C   0  0  0  0  0  3  0  0  0  0  0  0
  -21.6360   -6.9740   21.4700 O   0  0  0  0  0  0  0  0  0  0  0  0
  -21.5700   -6.2370   22.6260 C   0  0  0  0  0  0  0  0  0  0  0  0
  -21.1100   -6.7940   23.8390 C   0  0  0  0  0  3  0  0  0  0  0  0
  -20.9930   -5.9830   24.9850 C   0  0  0  0  0  3  0  0  0  0  0  0
  -21.3250   -4.6160   24.9190 C   0  0  0  0  0  0  0  0  0  0  0  0
  -21.7780   -4.0600   23.7110 C   0  0  0  0  0  3  0  0  0  0  0  0
  -21.8970   -4.8670   22.5670 C   0  0  0  0  0  0  0  0  0  0  0  0
  -22.3140   -4.3210   21.3990 F   0  0  0  0  0  0  0  0  0  0  0  0
  -21.2050   -3.8360   26.0190 F   0  0  0  0  0  0  0  0  0  0  0  0
  -22.7260  -13.6120   21.1620 C   0  0  0  0  0  0  0  0  0  0  0  0
  -21.9980  -12.9160   22.0290 N   0  0  0  0  0  0  0  0  0  0  0  0
  -22.2870  -14.6380   20.6420 O   0  0  0  0  0  0  0  0  0  0  0  0
  -22.3660  -12.0860   22.4710 H   0  0  0  0  0  0  0  0  0  0  0  0
  -21.0600  -13.2170   22.2530 H   0  0  0  0  0  0  0  0  0  0  0  0
  -25.3530  -15.2830   20.3510 N   0  0  0  0  0  0  0  0  0  0  0  0
  -24.5880  -15.9380   20.4700 H   0  0  0  0  0  0  0  0  0  0  0  0
  -26.2040  -15.7230   20.0280 H   0  0  0  0  0  0  0  0  0  0  0  0
  -27.9730  -24.7540   20.1030 C   0  0  0  0  0  3  0  0  0  0  0  0
  -28.2520  -26.2650   20.2420 O   0  0  0  0  0  0  0  0  0  0  0  0
  -24.6180  -31.8930   23.2440 C   0  0  0  0  0  0  0  0  0  0  0  0
  -27.1820  -27.2200   20.1850 C   0  0  0  0  0  0  0  0  0  0  0  0
  -23.4070  -30.5040   21.6060 C   0  0  0  0  0  3  0  0  0  0  0  0
  -24.8470  -28.9380   20.1700 C   0  0  0  0  0  0  0  0  0  0  0  0
  -25.9580  -30.7780   21.4260 C   0  0  0  0  0  2  0  0  0  0  0  0
  -26.0270  -29.3910   20.7700 C   0  0  0  0  0  0  0  0  0  0  0  0
  -27.1970  -28.5480   20.7600 C   0  0  0  0  0  3  0  0  0  0  0  0
  -25.9710  -26.8580   19.5520 C   0  0  0  0  0  3  0  0  0  0  0  0
  -24.8280  -27.6830   19.5470 C   0  0  0  0  0  3  0  0  0  0  0  0
  -23.6180  -29.8310   20.2250 C   0  0  0  0  0  2  0  0  0  0  0  0
  -24.6810  -31.0800   22.1480 N   0  0  0  0  0  0  0  0  0  0  0  0
  -23.5360  -32.1770   23.7780 O   0  0  0  0  0  0  0  0  0  0  0  0
  -22.7340  -29.4930   22.5680 C   0  0  0  0  0  0  0  0  0  0  0  0
  -21.4060  -29.3240   22.4450 N   0  0  0  0  0  0  0  0  0  0  0  0
  -23.4080  -28.8660   23.3880 O   0  0  0  0  0  0  0  0  0  0  0  0
  -20.9180  -29.8830   21.7580 H   0  0  0  0  0  0  0  0  0  0  0  0
  -18.0250  -28.1280   22.9520 C   0  0  0  0  0  0  0  0  0  0  0  0
  -20.5840  -28.3870   23.2170 C   0  0  0  0  0  3  0  0  0  0  0  0
  -20.6840  -26.9550   22.6420 C   0  0  0  0  0  2  0  0  0  0  0  0
  -19.5800  -26.6330   21.6300 C   0  0  0  0  0  2  0  0  0  0  0  0
  -18.1990  -26.7780   22.2750 C   0  0  0  0  0  2  0  0  0  0  0  0
  -19.1450  -28.8900   23.3800 C   0  0  0  0  0  0  0  0  0  0  0  0
  -18.9260  -30.1520   23.9740 C   0  0  0  0  0  3  0  0  0  0  0  0
  -17.6210  -30.6520   24.1440 C   0  0  0  0  0  3  0  0  0  0  0  0
  -16.5160  -29.8870   23.7320 C   0  0  0  0  0  3  0  0  0  0  0  0
  -16.7190  -28.6270   23.1410 C   0  0  0  0  0  3  0  0  0  0  0  0
  -25.9020  -32.5240   23.8660 C   0  0  0  0  0  3  0  0  0  0  0  0
  -25.5930  -33.9210   24.2080 N   0  0  0  0  0  0  0  0  0  0  0  0
  -25.8970  -34.9790   23.4450 C   0  0  0  0  0  0  0  0  0  0  0  0
  -26.5360  -34.8820   22.3930 O   0  0  0  0  0  0  0  0  0  0  0  0
  -25.0210  -34.0690   25.0270 H   0  0  0  0  0  0  0  0  0  0  0  0
  -24.1400  -36.7600   23.1690 C   0  0  0  0  0  1  0  0  0  0  0  0
  -25.4200  -36.3650   23.9240 C   0  0  0  0  0  3  0  0  0  0  0  0
  -27.5810  -37.2710   24.6590 C   0  0  0  0  0  1  0  0  0  0  0  0
  -26.4380  -37.4260   23.7640 N   0  0  0  0  0  0  0  0  0  0  0  0
  -26.0310  -38.3440   23.9250 H   0  0  0  0  0  0  0  0  0  0  0  0
  -26.4190  -31.7470   25.1390 C   0  0  1  0  0  0  0  0  0  0  0  0
  -25.3270  -31.5090   26.2100 C   0  0  0  0  0  1  0  0  0  0  0  0
  -26.9980  -30.3690   24.7450 C   0  0  0  0  0  1  0  0  0  0  0  0
  -27.5730  -32.5360   25.8010 C   0  0  0  0  0  1  0  0  0  0  0  0
  2  1  1  0
  2  4  1  0
  4  6  1  0
  4  3  1  0
  4  5  1  6
  7  6  2  0
  7  8  1  0
  9  8  1  0
 10 15  1  0
 11 12  1  0
 11 10  1  0
 13 12  1  0
 13 20  1  0
 13 14  1  0
 15  9  1  0
 15 14  1  0
 16  9  2  0
 17 18  2  0
 18 37  1  0
 19 18  1  0
 19 22  1  0
 20 17  1  0
 20 21  1  0
 21 19  2  0
 22 23  1  0
 23 24  2  0
 25 28  1  0
 25 24  1  0
 26 25  2  0
 27 26  1  0
 27 22  2  0
 28 29  1  0
 29 30  1  0
 30 31  2  0
 32 31  1  0
 32 36  1  0
 33 32  2  0
 34 29  2  0
 34 33  1  0
 35 34  1  0
 37 38  1  0
 38 41  1  0
 38 40  1  0
 39 37  2  0
 42 43  1  0
 42 17  1  0
 44 42  1  0
 45 46  1  0
 45  1  2  0
 47 58  2  0
 48 46  1  0
 48 53  1  0
 49 57  1  0
 49 59  1  0
 50 56  1  0
 50 52  1  0
 51 57  1  0
 52 51  1  0
 53 52  2  0
 54 48  2  0
 55 54  1  0
 55 50  2  0
 56 49  1  0
 57 47  1  0
 59 61  2  0
 60 59  1  0
 62 60  1  0
 63 72  2  0
 63 68  1  0
 64 60  1  0
 64 68  1  0
 65 64  1  0
 66 67  1  0
 66 65  1  0
 67 63  1  0
 68 69  2  0
 69 70  1  0
 71 70  2  0
 72 71  1  0
 73 47  1  0
 73 74  1  0
 73 83  1  0
 74 77  1  0
 75 79  1  0
 75 74  1  0
 76 75  2  0
 79 78  1  0
 81 79  1  0
 81 82  1  0
 81 80  1  0
 83 86  1  1
 83 84  1  0
 85 83  1  0
M  ISO  4   8 100   9 100  45 101  46 101
M  END
>  <TORSDO>  (78) 
F 22

>  <SCORE>  (78) 
-12.921

>  <name>  (78) 
77

>  <ligand_id>  (78) 
77

>  <original_smiles>  (78) 
[H]c1c([H])c([H])c2c(c1[H])C([H])([H])C([H])([H])C([H])([H])C2([H])N([H])C(=O)C1([H])N(C(=O)C([H])(N([H])C(=O)C([H])(N([H])C([H])([H])[H])C([H])([H])[H])C(C([H])([H])[H])(C([H])([H])[H])C([H])([H])[H])C([H])([H])c2c([H])c(OC([H])([H])C([H])([H])C([H])([H])[N+]([H])(C([H])([H])[H])C([H])([H])C([H])([H])C([H])([H])C(=O)N3C([H])([H])C([H])([H])C([H])([H])C([H])(n4nc(-c5c([H])c([H])c(Oc6c([H])c([H])c(F)c([H])c6F)c([H])c5[H])c(C(=O)N([H])[H])c4N([H])[H])C3([H])[H])c([H])c([H])c2C1([H])[H]

>  <smiles>  (78) 
[H]c1c([H])c([H])c2c(c1[H])C([H])([H])C([H])([H])C([H])([H])C2([H])N([H])C(=O)C1([H])N(C(=O)C([H])(N([H])C(=O)C([H])(N([H])C([H])([H])[H])C([H])([H])[H])C(C([H])([H])[H])(C([H])([H])[H])C([H])([H])[H])C([H])([H])c2c([H])c(OC([H])([H])C([H])([H])C([H])([H])[N+]([H])(C([H])([H])[H])C([H])([H])C([H])([H])C([H])([H])C(=O)N3C([H])([H])C([H])([H])C([H])([H])C([H])(n4nc(-c5c([H])c([H])c(Oc6c([H])c([H])c(F)c([H])c6F)c([H])c5[H])c(C(=O)N([H])[H])c4N([H])[H])C3([H])[H])c([H])c([H])c2C1([H])[H]

$$$$
78:0:0
     RDKit          3D

 88 96  0  0  1  0  0  0  0  0999 V2000
  -28.9670  -23.2170   18.7780 C   0  0  0  0  0  2  0  0  0  0  0  0
  -29.5460  -21.7700   18.8530 C   0  0  0  0  0  2  0  0  0  0  0  0
  -28.7390  -22.4270   20.9740 C   0  0  0  0  0  2  0  0  0  0  0  0
  -29.0050  -23.7840   20.2080 C   0  0  0  0  0  3  0  0  0  0  0  0
  -29.4660  -21.3090   20.2660 N   0  0  1  0  0  4  0  0  0  0  0  0
  -30.4090  -21.3430   20.6260 H   0  0  0  0  0  0  0  0  0  0  0  0
  -28.0170  -25.0050   20.5310 C   0  0  0  0  0  2  0  0  0  0  0  0
  -28.2990  -26.4190   20.1440 O   0  0  0  0  0  0  0  0  0  0  0  0
  -24.6400  -31.8770   23.2220 C   0  0  0  0  0  0  0  0  0  0  0  0
  -27.2010  -27.3000   20.1320 C   0  0  0  0  0  0  0  0  0  0  0  0
  -23.4170  -30.4810   21.5980 C   0  0  0  0  0  3  0  0  0  0  0  0
  -24.8470  -28.9290   20.1570 C   0  0  0  0  0  0  0  0  0  0  0  0
  -25.9570  -30.7860   21.3910 C   0  0  0  0  0  2  0  0  0  0  0  0
  -26.0260  -29.4060   20.7430 C   0  0  0  0  0  0  0  0  0  0  0  0
  -27.2070  -28.6040   20.7240 C   0  0  0  0  0  3  0  0  0  0  0  0
  -26.0040  -26.8900   19.5020 C   0  0  0  0  0  3  0  0  0  0  0  0
  -24.8390  -27.6760   19.5270 C   0  0  0  0  0  3  0  0  0  0  0  0
  -23.6150  -29.8080   20.2140 C   0  0  0  0  0  2  0  0  0  0  0  0
  -24.6920  -31.0630   22.1280 N   0  0  0  0  0  0  0  0  0  0  0  0
  -23.5620  -32.1610   23.7640 O   0  0  0  0  0  0  0  0  0  0  0  0
  -22.7630  -29.4670   22.5650 C   0  0  0  0  0  0  0  0  0  0  0  0
  -21.4360  -29.2950   22.4520 N   0  0  0  0  0  0  0  0  0  0  0  0
  -23.4470  -28.8350   23.3730 O   0  0  0  0  0  0  0  0  0  0  0  0
  -20.9390  -29.8610   21.7760 H   0  0  0  0  0  0  0  0  0  0  0  0
  -18.0620  -28.0910   22.9650 C   0  0  0  0  0  0  0  0  0  0  0  0
  -20.6220  -28.3580   23.2290 C   0  0  0  0  0  3  0  0  0  0  0  0
  -20.7270  -26.9260   22.6600 C   0  0  0  0  0  2  0  0  0  0  0  0
  -19.6250  -26.5990   21.6480 C   0  0  0  0  0  2  0  0  0  0  0  0
  -18.2420  -26.7430   22.2890 C   0  0  0  0  0  2  0  0  0  0  0  0
  -19.1800  -28.8570   23.3880 C   0  0  0  0  0  0  0  0  0  0  0  0
  -18.9610  -30.1230   23.9760 C   0  0  0  0  0  3  0  0  0  0  0  0
  -17.6560  -30.6230   24.1440 C   0  0  0  0  0  3  0  0  0  0  0  0
  -16.5520  -29.8540   23.7380 C   0  0  0  0  0  3  0  0  0  0  0  0
  -16.7560  -28.5910   23.1530 C   0  0  0  0  0  3  0  0  0  0  0  0
  -25.9320  -32.5070   23.8300 C   0  0  0  0  0  3  0  0  0  0  0  0
  -25.6210  -33.9020   24.1800 N   0  0  0  0  0  0  0  0  0  0  0  0
  -25.9350  -34.9620   23.4240 C   0  0  0  0  0  0  0  0  0  0  0  0
  -26.5860  -34.8710   22.3800 O   0  0  0  0  0  0  0  0  0  0  0  0
  -25.0410  -34.0460   24.9920 H   0  0  0  0  0  0  0  0  0  0  0  0
  -24.1880  -36.7480   23.1250 C   0  0  0  0  0  1  0  0  0  0  0  0
  -25.4500  -36.3440   23.9050 C   0  0  0  0  0  3  0  0  0  0  0  0
  -27.5990  -37.2300   24.6920 C   0  0  0  0  0  1  0  0  0  0  0  0
  -26.4740  -37.4040   23.7780 N   0  0  0  0  0  0  0  0  0  0  0  0
  -26.0680  -38.3200   23.9450 H   0  0  0  0  0  0  0  0  0  0  0  0
  -26.4650  -31.7250   25.0910 C   0  0  1  0  0  0  0  0  0  0  0  0
  -25.3880  -31.4810   26.1740 C   0  0  0  0  0  1  0  0  0  0  0  0
  -27.0430  -30.3520   24.6810 C   0  0  0  0  0  1  0  0  0  0  0  0
  -27.6250  -32.5130   25.7430 C   0  0  0  0  0  1  0  0  0  0  0  0
  -28.9770  -19.8730   20.4820 C   0  0  0  0  0  3  0  0  0  0  0  0
  -30.0150  -18.6750   20.2450 C   0  0  0  0  0  3  0  0  0  0  0  0
  -29.4850  -17.1630   20.1130 C   0  0  0  0  0  2  0  0  0  0  0  0
  -30.0020  -15.9680   21.0530 C   0  0  0  0  0  2  0  0  0  0  0  0
  -30.6240  -14.6520   20.4120 C   0  0  0  0  0  0  0  0  0  0  0  0
  -30.3630  -12.4100   19.3440 C   0  0  0  0  0  2  0  0  0  0  0  0
  -29.4230  -12.5420   18.1250 C   0  0  0  0  0  2  0  0  0  0  0  0
  -27.9490  -12.4030   18.5520 C   0  0  0  0  0  2  0  0  0  0  0  0
  -27.6050  -13.2640   19.7980 C   0  0  0  0  0  3  0  0  0  0  0  0
  -28.6650  -13.1050   20.9080 C   0  0  0  0  0  2  0  0  0  0  0  0
  -29.9730  -13.4420   20.3300 N   0  0  0  0  0  0  0  0  0  0  0  0
  -31.7520  -14.7660   19.9260 O   0  0  0  0  0  0  0  0  0  0  0  0
  -25.2150  -13.8760   20.5180 C   0  0  0  0  0  0  0  0  0  0  0  0
  -24.1440  -13.1110   20.8910 C   0  0  0  0  0  0  0  0  0  0  0  0
  -24.5980  -11.7570   20.8650 C   0  0  0  0  0  0  0  0  0  0  0  0
  -26.2560  -12.9890   20.2890 N   0  0  0  0  0  0  0  0  0  0  0  0
  -25.8880  -11.7090   20.5580 N   0  0  0  0  0  0  0  0  0  0  0  0
  -23.8650  -10.5000   21.0670 C   0  0  0  0  0  0  0  0  0  0  0  0
  -24.3100   -9.5210   21.9840 C   0  0  0  0  0  3  0  0  0  0  0  0
  -23.5760   -8.3280   22.1730 C   0  0  0  0  0  3  0  0  0  0  0  0
  -22.3840   -8.1060   21.4420 C   0  0  0  0  0  0  0  0  0  0  0  0
  -21.9590   -9.0730   20.5130 C   0  0  0  0  0  3  0  0  0  0  0  0
  -22.6920  -10.2560   20.3240 C   0  0  0  0  0  3  0  0  0  0  0  0
  -21.6230   -6.9640   21.5370 O   0  0  0  0  0  0  0  0  0  0  0  0
  -21.6100   -6.2020   22.6760 C   0  0  0  0  0  0  0  0  0  0  0  0
  -21.2570   -6.7430   23.9310 C   0  0  0  0  0  3  0  0  0  0  0  0
  -21.1900   -5.9080   25.0640 C   0  0  0  0  0  3  0  0  0  0  0  0
  -21.4680   -4.5340   24.9440 C   0  0  0  0  0  0  0  0  0  0  0  0
  -21.8150   -3.9920   23.6950 C   0  0  0  0  0  3  0  0  0  0  0  0
  -21.8840   -4.8240   22.5620 C   0  0  0  0  0  0  0  0  0  0  0  0
  -22.2000   -4.2940   21.3560 F   0  0  0  0  0  0  0  0  0  0  0  0
  -21.3970   -3.7300   26.0310 F   0  0  0  0  0  0  0  0  0  0  0  0
  -22.7490  -13.5990   21.1630 C   0  0  0  0  0  0  0  0  0  0  0  0
  -22.0190  -12.9140   22.0380 N   0  0  0  0  0  0  0  0  0  0  0  0
  -22.3140  -14.6210   20.6360 O   0  0  0  0  0  0  0  0  0  0  0  0
  -22.3840  -12.0860   22.4840 H   0  0  0  0  0  0  0  0  0  0  0  0
  -21.0860  -13.2250   22.2690 H   0  0  0  0  0  0  0  0  0  0  0  0
  -25.3850  -15.2470   20.3350 N   0  0  0  0  0  0  0  0  0  0  0  0
  -24.6250  -15.9050   20.4650 H   0  0  0  0  0  0  0  0  0  0  0  0
  -26.2450  -15.6820   20.0290 H   0  0  0  0  0  0  0  0  0  0  0  0
  1  2  1  0
  1  4  1  0
  2  5  1  0
  4  7  1  0
  4  3  1  0
  5 49  1  0
  5  6  1  1
  5  3  1  0
  8  7  1  0
  9 20  2  0
 10  8  1  0
 10 15  1  0
 11 19  1  0
 11 21  1  0
 12 18  1  0
 12 14  1  0
 13 19  1  0
 14 13  1  0
 15 14  2  0
 16 17  1  0
 16 10  2  0
 17 12  2  0
 18 11  1  0
 19  9  1  0
 21 23  2  0
 22 21  1  0
 24 22  1  0
 25 34  2  0
 25 30  1  0
 26 22  1  0
 26 30  1  0
 27 26  1  0
 28 29  1  0
 28 27  1  0
 29 25  1  0
 30 31  2  0
 31 32  1  0
 33 32  2  0
 34 33  1  0
 35  9  1  0
 35 36  1  0
 35 45  1  0
 36 39  1  0
 37 41  1  0
 37 36  1  0
 38 37  2  0
 41 40  1  0
 43 41  1  0
 43 44  1  0
 43 42  1  0
 45 48  1  1
 45 46  1  0
 47 45  1  0
 50 49  2  0
 51 50  1  0
 51 52  1  0
 53 52  1  0
 54 59  1  0
 55 56  1  0
 55 54  1  0
 57 56  1  0
 57 64  1  0
 57 58  1  0
 59 53  1  0
 59 58  1  0
 60 53  2  0
 61 62  2  0
 62 81  1  0
 63 62  1  0
 63 66  1  0
 64 61  1  0
 64 65  1  0
 65 63  2  0
 66 67  1  0
 67 68  2  0
 69 72  1  0
 69 68  1  0
 70 69  2  0
 71 70  1  0
 71 66  2  0
 72 73  1  0
 73 74  1  0
 74 75  2  0
 76 75  1  0
 76 80  1  0
 77 76  2  0
 78 73  2  0
 78 77  1  0
 79 78  1  0
 81 82  1  0
 82 85  1  0
 82 84  1  0
 83 81  2  0
 86 87  1  0
 86 61  1  0
 88 86  1  0
M  ISO  4   7 101   8 101  52 100  53 100
M  END
>  <TORSDO>  (79) 
F 21

>  <SCORE>  (79) 
-13.368

>  <name>  (79) 
78

>  <ligand_id>  (79) 
78

>  <original_smiles>  (79) 
[H]c1c([H])c([H])c2c(c1[H])C([H])([H])C([H])([H])C([H])([H])C2([H])N([H])C(=O)C1([H])N(C(=O)C([H])(N([H])C(=O)C([H])(N([H])C([H])([H])[H])C([H])([H])[H])C(C([H])([H])[H])(C([H])([H])[H])C([H])([H])[H])C([H])([H])c2c([H])c(OC([H])([H])C3([H])C([H])([H])C([H])([H])[N+]([H])(C([H])([H])C([H])([H])C([H])([H])C([H])([H])C(=O)N4C([H])([H])C([H])([H])C([H])([H])C([H])(n5nc(-c6c([H])c([H])c(Oc7c([H])c([H])c(F)c([H])c7F)c([H])c6[H])c(C(=O)N([H])[H])c5N([H])[H])C4([H])[H])C3([H])[H])c([H])c([H])c2C1([H])[H]

>  <smiles>  (79) 
[H]c1c([H])c([H])c2c(c1[H])C([H])([H])C([H])([H])C([H])([H])C2([H])N([H])C(=O)C1([H])N(C(=O)C([H])(N([H])C(=O)C([H])(N([H])C([H])([H])[H])C([H])([H])[H])C(C([H])([H])[H])(C([H])([H])[H])C([H])([H])[H])C([H])([H])c2c([H])c(OC([H])([H])C3([H])C([H])([H])C([H])([H])[N+]([H])(C([H])([H])C([H])([H])C([H])([H])C([H])([H])C(=O)N4C([H])([H])C([H])([H])C([H])([H])C([H])(n5nc(-c6c([H])c([H])c(Oc7c([H])c([H])c(F)c([H])c7F)c([H])c6[H])c(C(=O)N([H])[H])c5N([H])[H])C4([H])[H])C3([H])[H])c([H])c([H])c2C1([H])[H]

$$$$
79:0:0
     RDKit          3D

 92100  0  0  1  0  0  0  0  0999 V2000
  -31.1290  -19.4860   19.8490 C   0  0  0  0  0  2  0  0  0  0  0  0
  -30.9770  -21.0600   20.0890 C   0  0  0  0  0  2  0  0  0  0  0  0
  -29.9010  -18.7800   20.4590 C   0  0  0  0  0  3  0  0  0  0  0  0
  -29.4810  -21.4980   20.3930 C   0  0  1  0  0  0  0  0  0  0  0  0
  -28.8950  -20.0150   20.1850 N   0  0  0  0  0  4  0  0  0  0  0  0
  -28.1250  -19.9700   20.8400 H   0  0  0  0  0  0  0  0  0  0  0  0
  -28.5250  -19.9520   19.2520 H   0  0  0  0  0  0  0  0  0  0  0  0
  -29.2560  -21.7400   21.8990 C   0  0  0  0  0  0  0  0  0  0  0  0
  -30.1630  -22.4370   22.5770 N   0  0  0  0  0  0  0  0  0  0  0  0
  -28.2480  -21.3030   22.4560 O   0  0  0  0  0  0  0  0  0  0  0  0
  -30.9880  -22.7940   22.1170 H   0  0  0  0  0  0  0  0  0  0  0  0
  -30.0370  -22.6060   23.5640 H   0  0  0  0  0  0  0  0  0  0  0  0
  -29.5910  -17.0250   20.2210 C   0  0  0  0  0  2  0  0  0  0  0  0
  -30.5060  -15.5330   20.1930 C   0  0  0  0  0  0  0  0  0  0  0  0
  -30.5110  -13.1120   19.2640 C   0  0  0  0  0  2  0  0  0  0  0  0
  -29.5780  -12.9810   18.0310 C   0  0  0  0  0  2  0  0  0  0  0  0
  -28.1230  -12.7140   18.4630 C   0  0  0  0  0  2  0  0  0  0  0  0
  -27.6880  -13.6350   19.6310 C   0  0  0  0  0  3  0  0  0  0  0  0
  -28.7440  -13.7070   20.7510 C   0  0  0  0  0  2  0  0  0  0  0  0
  -29.9880  -14.2110   20.1500 N   0  0  0  0  0  0  0  0  0  0  0  0
  -31.7270  -15.5680   19.9780 O   0  0  0  0  0  0  0  0  0  0  0  0
  -25.3090  -14.1730   20.3770 C   0  0  0  0  0  0  0  0  0  0  0  0
  -24.2560  -13.3870   20.7510 C   0  0  0  0  0  0  0  0  0  0  0  0
  -24.7400  -12.0420   20.7330 C   0  0  0  0  0  0  0  0  0  0  0  0
  -26.3630  -13.3080   20.1390 N   0  0  0  0  0  0  0  0  0  0  0  0
  -26.0320  -12.0200   20.4230 N   0  0  0  0  0  0  0  0  0  0  0  0
  -24.0270  -10.7730   20.9320 C   0  0  0  0  0  0  0  0  0  0  0  0
  -24.4540   -9.8260   21.8900 C   0  0  0  0  0  3  0  0  0  0  0  0
  -23.7370   -8.6240   22.0760 C   0  0  0  0  0  3  0  0  0  0  0  0
  -22.5820   -8.3580   21.3040 C   0  0  0  0  0  0  0  0  0  0  0  0
  -22.1750   -9.2940   20.3350 C   0  0  0  0  0  3  0  0  0  0  0  0
  -22.8910  -10.4870   20.1470 C   0  0  0  0  0  3  0  0  0  0  0  0
  -21.8380   -7.2060   21.3970 O   0  0  0  0  0  0  0  0  0  0  0  0
  -21.7750   -6.4840   22.5610 C   0  0  0  0  0  0  0  0  0  0  0  0
  -21.2850   -7.0440   23.7610 C   0  0  0  0  0  3  0  0  0  0  0  0
  -21.1710   -6.2460   24.9170 C   0  0  0  0  0  3  0  0  0  0  0  0
  -21.5380   -4.8870   24.8730 C   0  0  0  0  0  0  0  0  0  0  0  0
  -22.0210   -4.3260   23.6780 C   0  0  0  0  0  3  0  0  0  0  0  0
  -22.1360   -5.1210   22.5250 C   0  0  0  0  0  0  0  0  0  0  0  0
  -22.5810   -4.5700   21.3710 F   0  0  0  0  0  0  0  0  0  0  0  0
  -21.4230   -4.1180   25.9810 F   0  0  0  0  0  0  0  0  0  0  0  0
  -22.8520  -13.8490   21.0110 C   0  0  0  0  0  0  0  0  0  0  0  0
  -22.1280  -13.1530   21.8790 N   0  0  0  0  0  0  0  0  0  0  0  0
  -22.4060  -14.8640   20.4780 O   0  0  0  0  0  0  0  0  0  0  0  0
  -22.5010  -12.3320   22.3310 H   0  0  0  0  0  0  0  0  0  0  0  0
  -21.1870  -13.4480   22.0980 H   0  0  0  0  0  0  0  0  0  0  0  0
  -25.4570  -15.5440   20.1900 N   0  0  0  0  0  0  0  0  0  0  0  0
  -24.6810  -16.1910   20.2890 H   0  0  0  0  0  0  0  0  0  0  0  0
  -26.3000  -15.9860   19.8450 H   0  0  0  0  0  0  0  0  0  0  0  0
  -28.9850  -23.0580   19.6310 C   0  0  0  0  0  2  0  0  0  0  0  0
  -28.3170  -24.6200   20.2160 C   0  0  0  0  0  2  0  0  0  0  0  0
  -28.3460  -26.1920   19.7460 O   0  0  0  0  0  0  0  0  0  0  0  0
  -24.5460  -31.8760   22.9580 C   0  0  0  0  0  0  0  0  0  0  0  0
  -27.2650  -27.2070   19.8040 C   0  0  0  0  0  0  0  0  0  0  0  0
  -23.3940  -30.4880   21.2830 C   0  0  0  0  0  3  0  0  0  0  0  0
  -24.8920  -28.9770   19.8160 C   0  0  0  0  0  0  0  0  0  0  0  0
  -25.9490  -30.8040   21.1310 C   0  0  0  0  0  2  0  0  0  0  0  0
  -26.0680  -29.4190   20.4370 C   0  0  0  0  0  0  0  0  0  0  0  0
  -27.2520  -28.5580   20.3990 C   0  0  0  0  0  3  0  0  0  0  0  0
  -26.0500  -26.9020   19.1520 C   0  0  0  0  0  3  0  0  0  0  0  0
  -24.9040  -27.7390   19.1540 C   0  0  0  0  0  3  0  0  0  0  0  0
  -23.6430  -29.8520   19.8870 C   0  0  0  0  0  2  0  0  0  0  0  0
  -24.6510  -31.0820   21.8460 N   0  0  0  0  0  0  0  0  0  0  0  0
  -23.4500  -32.1110   23.4930 O   0  0  0  0  0  0  0  0  0  0  0  0
  -22.7400  -29.4400   22.2210 C   0  0  0  0  0  0  0  0  0  0  0  0
  -21.4120  -29.2550   22.1160 N   0  0  0  0  0  0  0  0  0  0  0  0
  -23.4350  -28.7940   23.0100 O   0  0  0  0  0  0  0  0  0  0  0  0
  -20.9050  -29.8280   21.4550 H   0  0  0  0  0  0  0  0  0  0  0  0
  -18.0540  -28.0090   22.6920 C   0  0  0  0  0  0  0  0  0  0  0  0
  -20.6220  -28.2710   22.8650 C   0  0  0  0  0  3  0  0  0  0  0  0
  -20.7030  -26.8740   22.2050 C   0  0  0  0  0  2  0  0  0  0  0  0
  -19.5610  -26.6060   21.2200 C   0  0  0  0  0  2  0  0  0  0  0  0
  -18.2070  -26.7030   21.9280 C   0  0  0  0  0  2  0  0  0  0  0  0
  -19.1870  -28.7520   23.1160 C   0  0  0  0  0  0  0  0  0  0  0  0
  -18.9880  -29.9720   23.7980 C   0  0  0  0  0  3  0  0  0  0  0  0
  -17.6880  -30.4520   24.0540 C   0  0  0  0  0  3  0  0  0  0  0  0
  -16.5710  -29.7040   23.6410 C   0  0  0  0  0  3  0  0  0  0  0  0
  -16.7550  -28.4840   22.9670 C   0  0  0  0  0  3  0  0  0  0  0  0
  -25.7960  -32.5440   23.6060 C   0  0  0  0  0  3  0  0  0  0  0  0
  -26.3450  -31.7490   24.8560 C   0  0  1  0  0  0  0  0  0  0  0  0
  -25.2660  -31.4290   25.9170 C   0  0  0  0  0  1  0  0  0  0  0  0
  -26.9820  -30.4100   24.4210 C   0  0  0  0  0  1  0  0  0  0  0  0
  -27.4670  -32.5630   25.5440 C   0  0  0  0  0  1  0  0  0  0  0  0
  -25.4250  -33.9130   24.0020 N   0  0  0  0  0  0  0  0  0  0  0  0
  -25.7230  -35.0200   23.3100 C   0  0  0  0  0  0  0  0  0  0  0  0
  -26.4030  -34.9980   22.2810 O   0  0  0  0  0  0  0  0  0  0  0  0
  -24.8180  -34.0010   24.8050 H   0  0  0  0  0  0  0  0  0  0  0  0
  -23.9420  -36.7800   23.0390 C   0  0  0  0  0  1  0  0  0  0  0  0
  -25.1860  -36.3650   23.8410 C   0  0  0  0  0  3  0  0  0  0  0  0
  -27.2770  -37.2730   24.7570 C   0  0  0  0  0  1  0  0  0  0  0  0
  -26.1860  -37.4560   23.8040 N   0  0  0  0  0  0  0  0  0  0  0  0
  -25.7470  -38.3540   23.9940 H   0  0  0  0  0  0  0  0  0  0  0  0
  1  2  1  0
  1  3  1  0
  2  4  1  0
  3 13  1  0
  4 50  1  6
  4  8  1  0
  5  4  1  0
  5  3  1  0
  5  6  1  0
  7  5  1  0
  8 10  2  0
  8  9  1  0
  9 12  1  0
 11  9  1  0
 14 13  1  0
 15 20  1  0
 16 17  1  0
 16 15  1  0
 18 17  1  0
 18 25  1  0
 18 19  1  0
 20 14  1  0
 20 19  1  0
 21 14  2  0
 22 23  2  0
 23 42  1  0
 24 23  1  0
 24 27  1  0
 25 22  1  0
 25 26  1  0
 26 24  2  0
 27 28  1  0
 28 29  2  0
 30 33  1  0
 30 29  1  0
 31 30  2  0
 32 31  1  0
 32 27  2  0
 33 34  1  0
 34 35  1  0
 35 36  2  0
 37 36  1  0
 37 41  1  0
 38 37  2  0
 39 34  2  0
 39 38  1  0
 40 39  1  0
 42 43  1  0
 43 46  1  0
 43 45  1  0
 44 42  2  0
 47 48  1  0
 47 22  1  0
 49 47  1  0
 50 51  1  0
 52 54  1  0
 52 51  1  0
 53 64  2  0
 54 59  1  0
 55 63  1  0
 55 65  1  0
 56 62  1  0
 56 58  1  0
 57 63  1  0
 58 57  1  0
 59 58  2  0
 60 61  1  0
 60 54  2  0
 61 56  2  0
 62 55  1  0
 63 53  1  0
 65 67  2  0
 66 65  1  0
 68 66  1  0
 69 78  2  0
 69 74  1  0
 70 66  1  0
 70 74  1  0
 71 70  1  0
 72 73  1  0
 72 71  1  0
 73 69  1  0
 74 75  2  0
 75 76  1  0
 77 76  2  0
 78 77  1  0
 79 53  1  0
 79 84  1  0
 79 80  1  0
 80 83  1  1
 80 81  1  0
 82 80  1  0
 84 87  1  0
 85 89  1  0
 85 84  1  0
 86 85  2  0
 89 88  1  0
 91 89  1  0
 91 92  1  0
 91 90  1  0
M  ISO  4  13 100  14 100  51 101  52 101
M  END
>  <TORSDO>  (80) 
F 20

>  <SCORE>  (80) 
-14.824

>  <name>  (80) 
79

>  <ligand_id>  (80) 
79

>  <original_smiles>  (80) 
[H]c1c([H])c([H])c2c(c1[H])C([H])([H])C([H])([H])C([H])([H])C2([H])N([H])C(=O)C1([H])N(C(=O)C([H])(N([H])C(=O)C([H])(N([H])C([H])([H])[H])C([H])([H])[H])C(C([H])([H])[H])(C([H])([H])[H])C([H])([H])[H])C([H])([H])c2c([H])c(OC([H])([H])C([H])([H])C3(C(=O)N([H])[H])C([H])([H])C([H])([H])C([H])(C([H])([H])C(=O)N4C([H])([H])C([H])([H])C([H])([H])C([H])(n5nc(-c6c([H])c([H])c(Oc7c([H])c([H])c(F)c([H])c7F)c([H])c6[H])c(C(=O)N([H])[H])c5N([H])[H])C4([H])[H])[N+]3([H])[H])c([H])c([H])c2C1([H])[H]

>  <smiles>  (80) 
[H]c1c([H])c([H])c2c(c1[H])C([H])([H])C([H])([H])C([H])([H])C2([H])N([H])C(=O)C1([H])N(C(=O)C([H])(N([H])C(=O)C([H])(N([H])C([H])([H])[H])C([H])([H])[H])C(C([H])([H])[H])(C([H])([H])[H])C([H])([H])[H])C([H])([H])c2c([H])c(OC([H])([H])C([H])([H])C3(C(=O)N([H])[H])C([H])([H])C([H])([H])C([H])(C([H])([H])C(=O)N4C([H])([H])C([H])([H])C([H])([H])C([H])(n5nc(-c6c([H])c([H])c(Oc7c([H])c([H])c(F)c([H])c7F)c([H])c6[H])c(C(=O)N([H])[H])c5N([H])[H])C4([H])[H])[N+]3([H])[H])c([H])c([H])c2C1([H])[H]

$$$$
80:0:0
     RDKit          3D

 95103  0  0  1  0  0  0  0  0999 V2000
  -29.6260  -21.1420   22.4720 C   0  0  0  0  0  0  0  0  0  0  0  0
  -29.0340  -22.5340   22.1670 C   0  0  0  0  0  3  0  0  0  0  0  0
  -29.1500  -20.6110   21.0930 C   0  0  0  0  0  3  0  0  0  0  0  0
  -28.9770  -22.1270   20.6710 C   0  0  0  0  0  3  0  0  0  0  0  0
  -30.2270  -20.6700   23.4390 O   0  0  0  0  0  0  0  0  0  0  0  0
  -31.2400  -20.4120   19.6540 C   0  0  0  0  0  1  0  0  0  0  0  0
  -30.1520  -19.7180   20.3880 N   0  0  1  0  0  4  0  0  0  0  0  0
  -29.5810  -19.3560   19.6370 H   0  0  0  0  0  0  0  0  0  0  0  0
  -32.0500  -18.5200   21.6080 C   0  0  0  0  0  1  0  0  0  0  0  0
  -30.5810  -18.4610   21.1130 C   0  0  0  0  0  3  0  0  0  0  0  0
  -30.3830  -17.1740   20.2510 C   0  0  0  0  0  2  0  0  0  0  0  0
  -30.4460  -15.8210   21.0380 C   0  0  0  0  0  2  0  0  0  0  0  0
  -31.0260  -14.6210   20.2390 C   0  0  0  0  0  0  0  0  0  0  0  0
  -30.6580  -12.4940   19.0290 C   0  0  0  0  0  2  0  0  0  0  0  0
  -29.6850  -12.7450   17.8590 C   0  0  0  0  0  2  0  0  0  0  0  0
  -28.2180  -12.6400   18.3250 C   0  0  0  0  0  2  0  0  0  0  0  0
  -27.9430  -13.4520   19.6200 C   0  0  0  0  0  3  0  0  0  0  0  0
  -29.0200  -13.1510   20.6850 C   0  0  0  0  0  2  0  0  0  0  0  0
  -30.3320  -13.4570   20.0950 N   0  0  0  0  0  0  0  0  0  0  0  0
  -32.1160  -14.7940   19.6840 O   0  0  0  0  0  0  0  0  0  0  0  0
  -25.5850  -14.1180   20.4090 C   0  0  0  0  0  0  0  0  0  0  0  0
  -24.5010  -13.3710   20.7870 C   0  0  0  0  0  0  0  0  0  0  0  0
  -24.9160  -12.0070   20.7060 C   0  0  0  0  0  0  0  0  0  0  0  0
  -26.5940  -13.2100   20.1270 N   0  0  0  0  0  0  0  0  0  0  0  0
  -26.1950  -11.9330   20.3590 N   0  0  0  0  0  0  0  0  0  0  0  0
  -24.1540  -10.7640   20.8830 C   0  0  0  0  0  0  0  0  0  0  0  0
  -24.5700   -9.7660   21.7930 C   0  0  0  0  0  3  0  0  0  0  0  0
  -23.8120   -8.5880   21.9580 C   0  0  0  0  0  3  0  0  0  0  0  0
  -22.6220   -8.3980   21.2150 C   0  0  0  0  0  0  0  0  0  0  0  0
  -22.2250   -9.3840   20.2950 C   0  0  0  0  0  3  0  0  0  0  0  0
  -22.9850  -10.5540   20.1260 C   0  0  0  0  0  3  0  0  0  0  0  0
  -21.8360   -7.2750   21.2920 O   0  0  0  0  0  0  0  0  0  0  0  0
  -21.7600   -6.5250   22.4390 C   0  0  0  0  0  0  0  0  0  0  0  0
  -21.3140   -7.0760   23.6600 C   0  0  0  0  0  3  0  0  0  0  0  0
  -21.1860   -6.2540   24.7970 C   0  0  0  0  0  3  0  0  0  0  0  0
  -21.4920   -4.8820   24.7140 C   0  0  0  0  0  0  0  0  0  0  0  0
  -21.9310   -4.3310   23.4970 C   0  0  0  0  0  3  0  0  0  0  0  0
  -22.0610   -5.1500   22.3620 C   0  0  0  0  0  0  0  0  0  0  0  0
  -22.4640   -4.6110   21.1870 F   0  0  0  0  0  0  0  0  0  0  0  0
  -21.3620   -4.0910   25.8030 F   0  0  0  0  0  0  0  0  0  0  0  0
  -23.1300  -13.8850   21.1140 C   0  0  0  0  0  0  0  0  0  0  0  0
  -22.4090  -13.1940   21.9890 N   0  0  0  0  0  0  0  0  0  0  0  0
  -22.7080  -14.9350   20.6300 O   0  0  0  0  0  0  0  0  0  0  0  0
  -22.7620  -12.3440   22.4030 H   0  0  0  0  0  0  0  0  0  0  0  0
  -21.4880  -13.5200   22.2500 H   0  0  0  0  0  0  0  0  0  0  0  0
  -25.7910  -15.4860   20.2630 N   0  0  0  0  0  0  0  0  0  0  0  0
  -25.0500  -16.1640   20.4060 H   0  0  0  0  0  0  0  0  0  0  0  0
  -26.6480  -15.9030   19.9220 H   0  0  0  0  0  0  0  0  0  0  0  0
  -29.9270  -23.6980   22.6170 C   0  0  0  0  0  2  0  0  0  0  0  0
  -28.1410  -25.3690   23.4000 C   0  0  0  0  0  1  0  0  0  0  0  0
  -29.3520  -24.5080   23.7910 C   0  0  0  0  0  2  0  0  0  0  0  0
  -27.7340  -22.5870   19.8750 C   0  0  0  0  0  2  0  0  0  0  0  0
  -27.3180  -24.0830   20.0520 C   0  0  0  0  0  2  0  0  0  0  0  0
  -27.9870  -25.0990   19.0890 C   0  0  0  0  0  2  0  0  0  0  0  0
  -28.0150  -26.4520   19.5870 O   0  0  0  0  0  0  0  0  0  0  0  0
  -24.5250  -31.5590   23.1080 C   0  0  0  0  0  0  0  0  0  0  0  0
  -26.8650  -27.2190   19.6380 C   0  0  0  0  0  0  0  0  0  0  0  0
  -23.2120  -30.3470   21.4000 C   0  0  0  0  0  3  0  0  0  0  0  0
  -24.5490  -28.8480   19.8260 C   0  0  0  0  0  0  0  0  0  0  0  0
  -25.7490  -30.5860   21.1650 C   0  0  0  0  0  2  0  0  0  0  0  0
  -25.7460  -29.2640   20.4230 C   0  0  0  0  0  0  0  0  0  0  0  0
  -26.9030  -28.4560   20.3270 C   0  0  0  0  0  3  0  0  0  0  0  0
  -25.6490  -26.8280   19.0290 C   0  0  0  0  0  3  0  0  0  0  0  0
  -24.4970  -27.6310   19.1270 C   0  0  0  0  0  3  0  0  0  0  0  0
  -23.3540  -29.7630   19.9680 C   0  0  0  0  0  2  0  0  0  0  0  0
  -24.5160  -30.8410   21.9500 N   0  0  0  0  0  0  0  0  0  0  0  0
  -23.4710  -31.8450   23.6940 O   0  0  0  0  0  0  0  0  0  0  0  0
  -22.5300  -29.2900   22.2990 C   0  0  0  0  0  0  0  0  0  0  0  0
  -21.1930  -29.1990   22.2060 N   0  0  0  0  0  0  0  0  0  0  0  0
  -23.1990  -28.5600   23.0350 O   0  0  0  0  0  0  0  0  0  0  0  0
  -20.7180  -29.8390   21.5860 H   0  0  0  0  0  0  0  0  0  0  0  0
  -17.7670  -28.1780   22.7340 C   0  0  0  0  0  0  0  0  0  0  0  0
  -20.3440  -28.2510   22.9270 C   0  0  0  0  0  3  0  0  0  0  0  0
  -20.3340  -26.8710   22.2310 C   0  0  0  0  0  2  0  0  0  0  0  0
  -19.1800  -26.7050   21.2360 C   0  0  0  0  0  2  0  0  0  0  0  0
  -17.8330  -26.8810   21.9430 C   0  0  0  0  0  2  0  0  0  0  0  0
  -18.9470  -28.8290   23.1820 C   0  0  0  0  0  0  0  0  0  0  0  0
  -18.8320  -30.0500   23.8820 C   0  0  0  0  0  3  0  0  0  0  0  0
  -17.5690  -30.6160   24.1380 C   0  0  0  0  0  3  0  0  0  0  0  0
  -16.4040  -29.9590   23.7060 C   0  0  0  0  0  3  0  0  0  0  0  0
  -16.5040  -28.7410   23.0100 C   0  0  0  0  0  3  0  0  0  0  0  0
  -25.8550  -32.0770   23.7390 C   0  0  0  0  0  3  0  0  0  0  0  0
  -26.3490  -31.2000   24.9560 C   0  0  1  0  0  0  0  0  0  0  0  0
  -25.2650  -30.9640   26.0330 C   0  0  0  0  0  1  0  0  0  0  0  0
  -26.8390  -29.8180   24.4670 C   0  0  0  0  0  1  0  0  0  0  0  0
  -27.5580  -31.8840   25.6370 C   0  0  0  0  0  1  0  0  0  0  0  0
  -25.6340  -33.4680   24.1590 N   0  0  0  0  0  0  0  0  0  0  0  0
  -26.0410  -34.5430   23.4710 C   0  0  0  0  0  0  0  0  0  0  0  0
  -26.7120  -34.4630   22.4390 O   0  0  0  0  0  0  0  0  0  0  0  0
  -25.0440  -33.6080   24.9660 H   0  0  0  0  0  0  0  0  0  0  0  0
  -24.4410  -36.4650   23.2160 C   0  0  0  0  0  1  0  0  0  0  0  0
  -25.6380  -35.9270   24.0140 C   0  0  0  0  0  3  0  0  0  0  0  0
  -27.8070  -36.6140   24.9370 C   0  0  0  0  0  1  0  0  0  0  0  0
  -26.7390  -36.9140   23.9860 N   0  0  0  0  0  0  0  0  0  0  0  0
  -26.3920  -37.8480   24.1830 H   0  0  0  0  0  0  0  0  0  0  0  0
  1  5  2  0
  2  1  1  0
  2 49  1  0
  3  7  1  0
  3  1  1  0
  4 52  1  0
  4  3  1  0
  4  2  1  0
  6  7  1  0
  7 10  1  0
  7  8  1  6
 10  9  1  0
 11 12  1  0
 11 10  1  0
 13 12  1  0
 14 19  1  0
 15 16  1  0
 15 14  1  0
 17 16  1  0
 17 24  1  0
 17 18  1  0
 19 13  1  0
 19 18  1  0
 20 13  2  0
 21 22  2  0
 22 41  1  0
 23 22  1  0
 23 26  1  0
 24 25  1  0
 24 21  1  0
 25 23  2  0
 26 27  1  0
 27 28  2  0
 29 32  1  0
 29 28  1  0
 30 29  2  0
 31 30  1  0
 31 26  2  0
 32 33  1  0
 33 34  1  0
 34 35  2  0
 36 35  1  0
 36 40  1  0
 37 36  2  0
 38 33  2  0
 38 37  1  0
 39 38  1  0
 41 42  1  0
 42 45  1  0
 42 44  1  0
 43 41  2  0
 46 47  1  0
 46 21  1  0
 48 46  1  0
 49 51  1  0
 50 51  1  0
 52 53  1  0
 54 55  1  0
 54 53  1  0
 55 57  1  0
 56 67  2  0
 57 62  1  0
 58 66  1  0
 58 68  1  0
 59 65  1  0
 59 61  1  0
 60 66  1  0
 61 60  1  0
 62 61  2  0
 63 64  1  0
 63 57  2  0
 64 59  2  0
 65 58  1  0
 66 56  1  0
 68 70  2  0
 69 68  1  0
 71 69  1  0
 72 81  2  0
 72 77  1  0
 73 69  1  0
 73 77  1  0
 74 73  1  0
 75 76  1  0
 75 74  1  0
 76 72  1  0
 77 78  2  0
 78 79  1  0
 80 79  2  0
 81 80  1  0
 82 56  1  0
 82 87  1  0
 82 83  1  0
 83 86  1  1
 83 84  1  0
 85 83  1  0
 87 90  1  0
 88 92  1  0
 88 87  1  0
 89 88  2  0
 92 91  1  0
 94 92  1  0
 94 95  1  0
 94 93  1  0
M  ISO  4  12 100  13 100  54 101  55 101
M  END
>  <TORSDO>  (81) 
F 25

>  <SCORE>  (81) 
-11.322

>  <name>  (81) 
80

>  <ligand_id>  (81) 
80

>  <original_smiles>  (81) 
[H]c1c([H])c([H])c2c(c1[H])C([H])([H])C([H])([H])C([H])([H])C2([H])N([H])C(=O)C1([H])N(C(=O)C([H])(N([H])C(=O)C([H])(N([H])C([H])([H])[H])C([H])([H])[H])C(C([H])([H])[H])(C([H])([H])[H])C([H])([H])[H])C([H])([H])c2c([H])c(OC([H])([H])C([H])([H])C([H])([H])C3([H])C([H])(C([H])([H])C([H])([H])C([H])([H])[H])C(=O)C3([H])[N+]([H])(C([H])([H])[H])C([H])(C([H])([H])[H])C([H])([H])C([H])([H])C(=O)N3C([H])([H])C([H])([H])C([H])([H])C([H])(n4nc(-c5c([H])c([H])c(Oc6c([H])c([H])c(F)c([H])c6F)c([H])c5[H])c(C(=O)N([H])[H])c4N([H])[H])C3([H])[H])c([H])c([H])c2C1([H])[H]

>  <smiles>  (81) 
[H]c1c([H])c([H])c2c(c1[H])C([H])([H])C([H])([H])C([H])([H])C2([H])N([H])C(=O)C1([H])N(C(=O)C([H])(N([H])C(=O)C([H])(N([H])C([H])([H])[H])C([H])([H])[H])C(C([H])([H])[H])(C([H])([H])[H])C([H])([H])[H])C([H])([H])c2c([H])c(OC([H])([H])C([H])([H])C([H])([H])C3([H])C([H])(C([H])([H])C([H])([H])C([H])([H])[H])C(=O)C3([H])[N+]([H])(C([H])([H])[H])C([H])(C([H])([H])[H])C([H])([H])C([H])([H])C(=O)N3C([H])([H])C([H])([H])C([H])([H])C([H])(n4nc(-c5c([H])c([H])c(Oc6c([H])c([H])c(F)c([H])c6F)c([H])c5[H])c(C(=O)N([H])[H])c4N([H])[H])C3([H])[H])c([H])c([H])c2C1([H])[H]

$$$$
81:0:0
     RDKit          3D

 91 99  0  0  1  0  0  0  0  0999 V2000
  -29.7130  -20.2370   20.0840 C   0  0  0  0  0  3  0  0  0  0  0  0
  -30.2230  -21.3920   19.6190 C   0  0  0  0  0  3  0  0  0  0  0  0
  -30.3600  -17.7570   20.2230 C   0  0  0  0  0  2  0  0  0  0  0  0
  -30.0580  -18.9560   22.2650 C   0  0  0  0  0  2  0  0  0  0  0  0
  -30.5040  -19.1620   20.8150 C   0  0  0  0  0  3  0  0  0  0  0  0
  -30.7800  -16.8300   21.3820 C   0  0  0  0  0  3  0  0  0  0  0  0
  -31.4600  -17.4890   23.6910 C   0  0  0  0  0  1  0  0  0  0  0  0
  -30.4320  -17.5690   22.6290 N   0  0  1  0  0  4  0  0  0  0  0  0
  -29.5950  -17.1590   23.0140 H   0  0  0  0  0  0  0  0  0  0  0  0
  -30.1210  -15.4240   21.3510 C   0  0  0  0  0  2  0  0  0  0  0  0
  -30.6390  -14.4520   20.2680 C   0  0  0  0  0  0  0  0  0  0  0  0
  -30.2810  -12.3950   18.9290 C   0  0  0  0  0  2  0  0  0  0  0  0
  -29.2710  -12.6510   17.7930 C   0  0  0  0  0  2  0  0  0  0  0  0
  -27.8220  -12.4800   18.2900 C   0  0  0  0  0  2  0  0  0  0  0  0
  -27.5510  -13.2540   19.6070 C   0  0  0  0  0  3  0  0  0  0  0  0
  -28.6560  -12.9510   20.6430 C   0  0  0  0  0  2  0  0  0  0  0  0
  -29.9520  -13.3020   20.0390 N   0  0  0  0  0  0  0  0  0  0  0  0
  -31.6570  -14.7450   19.6340 O   0  0  0  0  0  0  0  0  0  0  0  0
  -25.1670  -13.8280   20.3980 C   0  0  0  0  0  0  0  0  0  0  0  0
  -24.1220  -13.0390   20.7960 C   0  0  0  0  0  0  0  0  0  0  0  0
  -24.5990  -11.6930   20.7390 C   0  0  0  0  0  0  0  0  0  0  0  0
  -26.2170  -12.9620   20.1290 N   0  0  0  0  0  0  0  0  0  0  0  0
  -25.8780  -11.6730   20.3870 N   0  0  0  0  0  0  0  0  0  0  0  0
  -23.8980  -10.4210   20.9480 C   0  0  0  0  0  0  0  0  0  0  0  0
  -24.3480   -9.4760   21.8950 C   0  0  0  0  0  3  0  0  0  0  0  0
  -23.6470   -8.2660   22.0890 C   0  0  0  0  0  3  0  0  0  0  0  0
  -22.4810   -7.9940   21.3370 C   0  0  0  0  0  0  0  0  0  0  0  0
  -22.0480   -8.9280   20.3780 C   0  0  0  0  0  3  0  0  0  0  0  0
  -22.7510  -10.1290   20.1830 C   0  0  0  0  0  3  0  0  0  0  0  0
  -21.7490   -6.8360   21.4410 O   0  0  0  0  0  0  0  0  0  0  0  0
  -21.6860   -6.1270   22.6140 C   0  0  0  0  0  0  0  0  0  0  0  0
  -21.2000   -6.7040   23.8070 C   0  0  0  0  0  3  0  0  0  0  0  0
  -21.0850   -5.9200   24.9730 C   0  0  0  0  0  3  0  0  0  0  0  0
  -21.4490   -4.5610   24.9450 C   0  0  0  0  0  0  0  0  0  0  0  0
  -21.9290   -3.9830   23.7570 C   0  0  0  0  0  3  0  0  0  0  0  0
  -22.0450   -4.7640   22.5940 C   0  0  0  0  0  0  0  0  0  0  0  0
  -22.4890   -4.1980   21.4450 F   0  0  0  0  0  0  0  0  0  0  0  0
  -21.3320   -3.8050   26.0620 F   0  0  0  0  0  0  0  0  0  0  0  0
  -22.7290  -13.4940   21.1240 C   0  0  0  0  0  0  0  0  0  0  0  0
  -22.0430  -12.7810   22.0090 N   0  0  0  0  0  0  0  0  0  0  0  0
  -22.2580  -14.5190   20.6320 O   0  0  0  0  0  0  0  0  0  0  0  0
  -22.4350  -11.9510   22.4280 H   0  0  0  0  0  0  0  0  0  0  0  0
  -21.1100  -13.0700   22.2720 H   0  0  0  0  0  0  0  0  0  0  0  0
  -25.3100  -15.2020   20.2290 N   0  0  0  0  0  0  0  0  0  0  0  0
  -24.5430  -15.8500   20.3800 H   0  0  0  0  0  0  0  0  0  0  0  0
  -26.1550  -15.6600   19.9110 H   0  0  0  0  0  0  0  0  0  0  0  0
  -29.4190  -22.4280   18.8530 C   0  0  0  0  0  2  0  0  0  0  0  0
  -29.5770  -23.8700   19.3760 C   0  0  0  0  0  2  0  0  0  0  0  0
  -28.6960  -24.8480   18.5740 C   0  0  0  0  0  2  0  0  0  0  0  0
  -28.9660  -26.3480   18.8170 C   0  0  0  0  0  2  0  0  0  0  0  0
  -28.5210  -26.8370   20.0850 O   0  0  0  0  0  0  0  0  0  0  0  0
  -24.6540  -31.9260   23.2250 C   0  0  0  0  0  0  0  0  0  0  0  0
  -27.3290  -27.5290   20.1030 C   0  0  0  0  0  0  0  0  0  0  0  0
  -23.4470  -30.5140   21.5930 C   0  0  0  0  0  3  0  0  0  0  0  0
  -24.9070  -28.9890   20.1580 C   0  0  0  0  0  0  0  0  0  0  0  0
  -25.9680  -30.8940   21.3810 C   0  0  0  0  0  2  0  0  0  0  0  0
  -26.0620  -29.5240   20.7420 C   0  0  0  0  0  0  0  0  0  0  0  0
  -27.2710  -28.7930   20.7280 C   0  0  0  0  0  3  0  0  0  0  0  0
  -26.1540  -26.9990   19.5250 C   0  0  0  0  0  3  0  0  0  0  0  0
  -24.9450  -27.7210   19.5540 C   0  0  0  0  0  3  0  0  0  0  0  0
  -23.6530  -29.8340   20.2120 C   0  0  0  0  0  2  0  0  0  0  0  0
  -24.7070  -31.1280   22.1230 N   0  0  0  0  0  0  0  0  0  0  0  0
  -23.5750  -32.1900   23.7740 O   0  0  0  0  0  0  0  0  0  0  0  0
  -22.8150  -29.4860   22.5580 C   0  0  0  0  0  0  0  0  0  0  0  0
  -21.4940  -29.2840   22.4330 N   0  0  0  0  0  0  0  0  0  0  0  0
  -23.5100  -28.8740   23.3730 O   0  0  0  0  0  0  0  0  0  0  0  0
  -20.9950  -29.8270   21.7420 H   0  0  0  0  0  0  0  0  0  0  0  0
  -18.1360  -28.0550   22.9440 C   0  0  0  0  0  0  0  0  0  0  0  0
  -20.6900  -28.3380   23.2060 C   0  0  0  0  0  3  0  0  0  0  0  0
  -20.8070  -26.9100   22.6270 C   0  0  0  0  0  2  0  0  0  0  0  0
  -19.7030  -26.5750   21.6190 C   0  0  0  0  0  2  0  0  0  0  0  0
  -18.3220  -26.7080   22.2670 C   0  0  0  0  0  2  0  0  0  0  0  0
  -19.2470  -28.8280   23.3690 C   0  0  0  0  0  0  0  0  0  0  0  0
  -19.0180  -30.0920   23.9580 C   0  0  0  0  0  3  0  0  0  0  0  0
  -17.7090  -30.5800   24.1270 C   0  0  0  0  0  3  0  0  0  0  0  0
  -16.6110  -29.8030   23.7180 C   0  0  0  0  0  3  0  0  0  0  0  0
  -16.8260  -28.5430   23.1320 C   0  0  0  0  0  3  0  0  0  0  0  0
  -25.9390  -32.5670   23.8360 C   0  0  0  0  0  3  0  0  0  0  0  0
  -25.6190  -33.9600   24.1700 N   0  0  0  0  0  0  0  0  0  0  0  0
  -25.9460  -35.0180   23.4150 C   0  0  0  0  0  0  0  0  0  0  0  0
  -26.6200  -34.9240   22.3860 O   0  0  0  0  0  0  0  0  0  0  0  0
  -25.0150  -34.1060   24.9670 H   0  0  0  0  0  0  0  0  0  0  0  0
  -24.2130  -36.8050   23.0560 C   0  0  0  0  0  1  0  0  0  0  0  0
  -25.4470  -36.4000   23.8780 C   0  0  0  0  0  3  0  0  0  0  0  0
  -27.5660  -37.2910   24.7410 C   0  0  0  0  0  1  0  0  0  0  0  0
  -26.4740  -37.4590   23.7840 N   0  0  0  0  0  0  0  0  0  0  0  0
  -26.0620  -38.3760   23.9310 H   0  0  0  0  0  0  0  0  0  0  0  0
  -26.4780  -31.7960   25.1020 C   0  0  1  0  0  0  0  0  0  0  0  0
  -25.3970  -31.5340   26.1770 C   0  0  0  0  0  1  0  0  0  0  0  0
  -27.0780  -30.4280   24.6970 C   0  0  0  0  0  1  0  0  0  0  0  0
  -27.6230  -32.6030   25.7590 C   0  0  0  0  0  1  0  0  0  0  0  0
  2  1  2  0
  3  5  1  0
  3  6  1  0
  4  8  1  0
  5  1  1  0
  5  4  1  0
  6 10  1  0
  6  8  1  0
  8  9  1  1
  8  7  1  0
 11 10  1  0
 12 17  1  0
 13 14  1  0
 13 12  1  0
 15 14  1  0
 15 22  1  0
 15 16  1  0
 17 11  1  0
 17 16  1  0
 18 11  2  0
 19 20  2  0
 20 39  1  0
 21 20  1  0
 21 24  1  0
 22 23  1  0
 22 19  1  0
 23 21  2  0
 24 25  1  0
 25 26  2  0
 27 30  1  0
 27 26  1  0
 28 27  2  0
 29 28  1  0
 29 24  2  0
 30 31  1  0
 31 32  1  0
 32 33  2  0
 34 33  1  0
 34 38  1  0
 35 34  2  0
 36 31  2  0
 36 35  1  0
 37 36  1  0
 39 40  1  0
 40 43  1  0
 40 42  1  0
 41 39  2  0
 44 45  1  0
 44 19  1  0
 46 44  1  0
 47 48  1  0
 47  2  1  0
 49 50  1  0
 49 48  1  0
 50 51  1  0
 51 53  1  0
 52 63  2  0
 53 58  1  0
 54 62  1  0
 54 64  1  0
 55 61  1  0
 55 57  1  0
 56 62  1  0
 57 56  1  0
 58 57  2  0
 59 60  1  0
 59 53  2  0
 60 55  2  0
 61 54  1  0
 62 52  1  0
 64 66  2  0
 65 64  1  0
 67 65  1  0
 68 77  2  0
 68 73  1  0
 69 65  1  0
 69 73  1  0
 70 69  1  0
 71 72  1  0
 71 70  1  0
 72 68  1  0
 73 74  2  0
 74 75  1  0
 76 75  2  0
 77 76  1  0
 78 52  1  0
 78 79  1  0
 78 88  1  0
 79 82  1  0
 80 84  1  0
 80 79  1  0
 81 80  2  0
 84 83  1  0
 86 84  1  0
 86 87  1  0
 86 85  1  0
 88 91  1  1
 88 89  1  0
 90 88  1  0
M  ISO  4  10 100  11 100  50 101  51 101
M  END
>  <TORSDO>  (82) 
F 22

>  <SCORE>  (82) 
-11.296

>  <name>  (82) 
81

>  <ligand_id>  (82) 
81

>  <original_smiles>  (82) 
[H]C(=C([H])C1([H])C([H])([H])C([H])(C([H])([H])C(=O)N2C([H])([H])C([H])([H])C([H])([H])C([H])(n3nc(-c4c([H])c([H])c(Oc5c([H])c([H])c(F)c([H])c5F)c([H])c4[H])c(C(=O)N([H])[H])c3N([H])[H])C2([H])[H])[N+]([H])(C([H])([H])[H])C1([H])[H])C([H])([H])C([H])([H])C([H])([H])C([H])([H])Oc1c([H])c([H])c2c(c1[H])C([H])([H])N(C(=O)C([H])(N([H])C(=O)C([H])(N([H])C([H])([H])[H])C([H])([H])[H])C(C([H])([H])[H])(C([H])([H])[H])C([H])([H])[H])C([H])(C(=O)N([H])C1([H])c3c([H])c([H])c([H])c([H])c3C([H])([H])C([H])([H])C1([H])[H])C2([H])[H]

>  <smiles>  (82) 
[H]C(=C([H])C1([H])C([H])([H])C([H])(C([H])([H])C(=O)N2C([H])([H])C([H])([H])C([H])([H])C([H])(n3nc(-c4c([H])c([H])c(Oc5c([H])c([H])c(F)c([H])c5F)c([H])c4[H])c(C(=O)N([H])[H])c3N([H])[H])C2([H])[H])[N+]([H])(C([H])([H])[H])C1([H])[H])C([H])([H])C([H])([H])C([H])([H])C([H])([H])Oc1c([H])c([H])c2c(c1[H])C([H])([H])N(C(=O)C([H])(N([H])C(=O)C([H])(N([H])C([H])([H])[H])C([H])([H])[H])C(C([H])([H])[H])(C([H])([H])[H])C([H])([H])[H])C([H])(C(=O)N([H])C1([H])c3c([H])c([H])c([H])c([H])c3C([H])([H])C([H])([H])C1([H])[H])C2([H])[H]

$$$$
82:0:0
     RDKit          3D

 95103  0  0  1  0  0  0  0  0999 V2000
  -29.2950  -20.4420   19.7950 C   0  0  0  0  0  3  0  0  0  0  0  0
  -29.4740  -21.6100   20.4750 C   0  0  0  0  0  0  0  0  0  0  0  0
  -28.8330  -19.0560   20.2900 C   0  0  0  0  0  2  0  0  0  0  0  0
  -29.8870  -18.0760   20.3990 O   0  0  0  0  0  0  0  0  0  0  0  0
  -29.4800  -16.7140   20.1230 C   0  0  0  0  0  2  0  0  0  0  0  0
  -30.2290  -15.6270   20.9640 C   0  0  0  0  0  2  0  0  0  0  0  0
  -30.7550  -14.4020   20.1590 C   0  0  0  0  0  0  0  0  0  0  0  0
  -30.3610  -12.2610   18.9770 C   0  0  0  0  0  2  0  0  0  0  0  0
  -29.3820  -12.5010   17.8090 C   0  0  0  0  0  2  0  0  0  0  0  0
  -27.9230  -12.3850   18.2870 C   0  0  0  0  0  2  0  0  0  0  0  0
  -27.6500  -13.2070   19.5770 C   0  0  0  0  0  3  0  0  0  0  0  0
  -28.7400  -12.9500   20.6400 C   0  0  0  0  0  2  0  0  0  0  0  0
  -30.0470  -13.2410   20.0340 N   0  0  0  0  0  0  0  0  0  0  0  0
  -31.8380  -14.5490   19.5860 O   0  0  0  0  0  0  0  0  0  0  0  0
  -25.2840  -13.8450   20.3610 C   0  0  0  0  0  0  0  0  0  0  0  0
  -24.2170  -13.0880   20.7660 C   0  0  0  0  0  0  0  0  0  0  0  0
  -24.6600  -11.7300   20.7260 C   0  0  0  0  0  0  0  0  0  0  0  0
  -26.3100  -12.9490   20.1010 N   0  0  0  0  0  0  0  0  0  0  0  0
  -25.9390  -11.6720   20.3770 N   0  0  0  0  0  0  0  0  0  0  0  0
  -23.9210  -10.4790   20.9430 C   0  0  0  0  0  0  0  0  0  0  0  0
  -24.3610   -9.5150   21.8770 C   0  0  0  0  0  3  0  0  0  0  0  0
  -23.6240   -8.3280   22.0820 C   0  0  0  0  0  3  0  0  0  0  0  0
  -22.4330   -8.0980   21.3530 C   0  0  0  0  0  0  0  0  0  0  0  0
  -22.0120   -9.0500   20.4080 C   0  0  0  0  0  3  0  0  0  0  0  0
  -22.7500  -10.2270   20.2010 C   0  0  0  0  0  3  0  0  0  0  0  0
  -21.6660   -6.9640   21.4680 O   0  0  0  0  0  0  0  0  0  0  0  0
  -21.6110   -6.2450   22.6350 C   0  0  0  0  0  0  0  0  0  0  0  0
  -21.2010   -6.8330   23.8530 C   0  0  0  0  0  3  0  0  0  0  0  0
  -21.0930   -6.0440   25.0140 C   0  0  0  0  0  3  0  0  0  0  0  0
  -21.3860   -4.6670   24.9600 C   0  0  0  0  0  0  0  0  0  0  0  0
  -21.7890   -4.0800   23.7480 C   0  0  0  0  0  3  0  0  0  0  0  0
  -21.9000   -4.8670   22.5890 C   0  0  0  0  0  0  0  0  0  0  0  0
  -22.2680   -4.2920   21.4190 F   0  0  0  0  0  0  0  0  0  0  0  0
  -21.2760   -3.9070   26.0750 F   0  0  0  0  0  0  0  0  0  0  0  0
  -22.8360  -13.5850   21.0830 C   0  0  0  0  0  0  0  0  0  0  0  0
  -22.1310  -12.9050   21.9800 N   0  0  0  0  0  0  0  0  0  0  0  0
  -22.3950  -14.6120   20.5700 O   0  0  0  0  0  0  0  0  0  0  0  0
  -22.5020  -12.0740   22.4150 H   0  0  0  0  0  0  0  0  0  0  0  0
  -21.2060  -13.2190   22.2350 H   0  0  0  0  0  0  0  0  0  0  0  0
  -25.4600  -15.2120   20.1730 N   0  0  0  0  0  0  0  0  0  0  0  0
  -24.7010  -15.8720   20.2990 H   0  0  0  0  0  0  0  0  0  0  0  0
  -26.2970  -15.6380   19.7950 H   0  0  0  0  0  0  0  0  0  0  0  0
  -29.9120  -22.8860   19.7090 C   0  0  0  0  0  2  0  0  0  0  0  0
  -29.6380  -24.3310   20.2690 C   0  0  0  0  0  2  0  0  0  0  0  0
  -28.3270  -25.0600   19.8530 C   0  0  0  0  0  2  0  0  0  0  0  0
  -28.4030  -26.4900   20.1010 O   0  0  0  0  0  0  0  0  0  0  0  0
  -24.5660  -31.6910   23.1460 C   0  0  0  0  0  0  0  0  0  0  0  0
  -27.2350  -27.2430   20.0540 C   0  0  0  0  0  0  0  0  0  0  0  0
  -23.3760  -30.3050   21.4810 C   0  0  0  0  0  3  0  0  0  0  0  0
  -24.8440  -28.7800   20.0520 C   0  0  0  0  0  0  0  0  0  0  0  0
  -25.9080  -30.6570   21.3110 C   0  0  0  0  0  2  0  0  0  0  0  0
  -25.9990  -29.2900   20.6560 C   0  0  0  0  0  0  0  0  0  0  0  0
  -27.1960  -28.5300   20.6500 C   0  0  0  0  0  3  0  0  0  0  0  0
  -26.0580  -26.7620   19.4330 C   0  0  0  0  0  3  0  0  0  0  0  0
  -24.8710  -27.5190   19.4360 C   0  0  0  0  0  3  0  0  0  0  0  0
  -23.6000  -29.6400   20.0960 C   0  0  0  0  0  2  0  0  0  0  0  0
  -24.6350  -30.8990   22.0380 N   0  0  0  0  0  0  0  0  0  0  0  0
  -23.4800  -31.9580   23.6770 O   0  0  0  0  0  0  0  0  0  0  0  0
  -22.7160  -29.2750   22.4250 C   0  0  0  0  0  0  0  0  0  0  0  0
  -21.3910  -29.1010   22.2920 N   0  0  0  0  0  0  0  0  0  0  0  0
  -23.3940  -28.6340   23.2340 O   0  0  0  0  0  0  0  0  0  0  0  0
  -20.9050  -29.6700   21.6120 H   0  0  0  0  0  0  0  0  0  0  0  0
  -18.0090  -27.9200   22.7660 C   0  0  0  0  0  0  0  0  0  0  0  0
  -20.5670  -28.1580   23.0480 C   0  0  0  0  0  3  0  0  0  0  0  0
  -20.6620  -26.7340   22.4510 C   0  0  0  0  0  2  0  0  0  0  0  0
  -19.5610  -26.4340   21.4290 C   0  0  0  0  0  2  0  0  0  0  0  0
  -18.1780  -26.5780   22.0720 C   0  0  0  0  0  2  0  0  0  0  0  0
  -19.1310  -28.6680   23.2110 C   0  0  0  0  0  0  0  0  0  0  0  0
  -18.9190  -29.9250   23.8190 C   0  0  0  0  0  3  0  0  0  0  0  0
  -17.6180  -30.4330   23.9880 C   0  0  0  0  0  3  0  0  0  0  0  0
  -16.5090  -29.6800   23.5610 C   0  0  0  0  0  3  0  0  0  0  0  0
  -16.7060  -28.4260   22.9560 C   0  0  0  0  0  3  0  0  0  0  0  0
  -25.8460  -32.3180   23.7830 C   0  0  0  0  0  3  0  0  0  0  0  0
  -26.3440  -31.5450   25.0650 C   0  0  1  0  0  0  0  0  0  0  0  0
  -25.2390  -31.3140   26.1220 C   0  0  0  0  0  1  0  0  0  0  0  0
  -26.9200  -30.1620   24.6780 C   0  0  0  0  0  1  0  0  0  0  0  0
  -27.4950  -32.3300   25.7380 C   0  0  0  0  0  1  0  0  0  0  0  0
  -25.5380  -33.7170   24.1090 N   0  0  0  0  0  0  0  0  0  0  0  0
  -25.8790  -34.7670   23.3500 C   0  0  0  0  0  0  0  0  0  0  0  0
  -26.5560  -34.6600   22.3240 O   0  0  0  0  0  0  0  0  0  0  0  0
  -24.9370  -33.8750   24.9050 H   0  0  0  0  0  0  0  0  0  0  0  0
  -24.1530  -36.5600   22.9830 C   0  0  0  0  0  1  0  0  0  0  0  0
  -25.3910  -36.1580   23.8000 C   0  0  0  0  0  3  0  0  0  0  0  0
  -27.5220  -37.0440   24.6370 C   0  0  0  0  0  1  0  0  0  0  0  0
  -26.4250  -37.2090   23.6880 N   0  0  0  0  0  0  0  0  0  0  0  0
  -26.0190  -38.1300   23.8310 H   0  0  0  0  0  0  0  0  0  0  0  0
  -29.3170  -21.7190   21.9910 C   0  0  0  0  0  2  0  0  0  0  0  0
  -32.3080  -20.2840   23.6340 C   0  0  0  0  0  2  0  0  0  0  0  0
  -32.0570  -21.4800   24.5470 C   0  0  0  0  0  2  0  0  0  0  0  0
  -31.5490  -20.6250   22.3470 C   0  0  0  0  0  2  0  0  0  0  0  0
  -30.6650  -21.9810   24.1320 C   0  0  2  0  0  0  0  0  0  0  0  0
  -30.5030  -23.4730   24.4760 C   0  0  0  0  0  1  0  0  0  0  0  0
  -29.5750  -21.1600   24.8620 C   0  0  0  0  0  1  0  0  0  0  0  0
  -30.6470  -21.7660   22.6570 N   0  0  2  0  0  4  0  0  0  0  0  0
  -31.1240  -22.5660   22.2690 H   0  0  0  0  0  0  0  0  0  0  0  0
  1  3  1  0
  1  2  2  0
  2 87  1  0
  3  4  1  0
  5  4  1  0
  5  6  1  0
  7  6  1  0
  8 13  1  0
  9 10  1  0
  9  8  1  0
 11 10  1  0
 11 18  1  0
 11 12  1  0
 13  7  1  0
 13 12  1  0
 14  7  2  0
 15 16  2  0
 16 35  1  0
 17 16  1  0
 17 20  1  0
 18 15  1  0
 18 19  1  0
 19 17  2  0
 20 21  1  0
 21 22  2  0
 23 26  1  0
 23 22  1  0
 24 23  2  0
 25 24  1  0
 25 20  2  0
 26 27  1  0
 27 28  1  0
 28 29  2  0
 30 29  1  0
 30 34  1  0
 31 30  2  0
 32 27  2  0
 32 31  1  0
 33 32  1  0
 35 36  1  0
 36 39  1  0
 36 38  1  0
 37 35  2  0
 40 41  1  0
 40 15  1  0
 42 40  1  0
 43 44  1  0
 43  2  1  0
 45 46  1  0
 45 44  1  0
 47 58  2  0
 48 46  1  0
 48 53  1  0
 49 57  1  0
 49 59  1  0
 50 56  1  0
 50 52  1  0
 51 57  1  0
 52 51  1  0
 53 52  2  0
 54 55  1  0
 54 48  2  0
 55 50  2  0
 56 49  1  0
 57 47  1  0
 59 61  2  0
 60 59  1  0
 62 60  1  0
 63 72  2  0
 63 68  1  0
 64 60  1  0
 64 68  1  0
 65 64  1  0
 66 67  1  0
 66 65  1  0
 67 63  1  0
 68 69  2  0
 69 70  1  0
 71 70  2  0
 72 71  1  0
 73 47  1  0
 73 78  1  0
 73 74  1  0
 74 77  1  1
 74 75  1  0
 76 74  1  0
 78 81  1  0
 79 83  1  0
 79 78  1  0
 80 79  2  0
 83 82  1  0
 85 83  1  0
 85 86  1  0
 85 84  1  0
 87 94  1  0
 88 89  1  0
 90 94  1  0
 90 88  1  0
 91 92  1  6
 91 89  1  0
 91 93  1  0
 94 91  1  0
 94 95  1  6
M  ISO  4   6 100   7 100  45 101  46 101
M  END
>  <TORSDO>  (83) 
F 25

>  <SCORE>  (83) 
-11.094

>  <name>  (83) 
82

>  <ligand_id>  (83) 
82

>  <original_smiles>  (83) 
[H]C(=C(C([H])([H])C([H])([H])C([H])([H])Oc1c([H])c([H])c2c(c1[H])C([H])([H])N(C(=O)C([H])(N([H])C(=O)C([H])(N([H])C([H])([H])[H])C([H])([H])[H])C(C([H])([H])[H])(C([H])([H])[H])C([H])([H])[H])C([H])(C(=O)N([H])C1([H])c3c([H])c([H])c([H])c([H])c3C([H])([H])C([H])([H])C1([H])[H])C2([H])[H])C([H])([H])[N+]1([H])C([H])([H])C([H])([H])C([H])([H])C1(C([H])([H])[H])C([H])([H])[H])C([H])([H])OC([H])([H])C([H])([H])C(=O)N1C([H])([H])C([H])([H])C([H])([H])C([H])(n2nc(-c3c([H])c([H])c(Oc4c([H])c([H])c(F)c([H])c4F)c([H])c3[H])c(C(=O)N([H])[H])c2N([H])[H])C1([H])[H]

>  <smiles>  (83) 
[H]C(=C(C([H])([H])C([H])([H])C([H])([H])Oc1c([H])c([H])c2c(c1[H])C([H])([H])N(C(=O)C([H])(N([H])C(=O)C([H])(N([H])C([H])([H])[H])C([H])([H])[H])C(C([H])([H])[H])(C([H])([H])[H])C([H])([H])[H])C([H])(C(=O)N([H])C1([H])c3c([H])c([H])c([H])c([H])c3C([H])([H])C([H])([H])C1([H])[H])C2([H])[H])C([H])([H])[N+]1([H])C([H])([H])C([H])([H])C([H])([H])C1(C([H])([H])[H])C([H])([H])[H])C([H])([H])OC([H])([H])C([H])([H])C(=O)N1C([H])([H])C([H])([H])C([H])([H])C([H])(n2nc(-c3c([H])c([H])c(Oc4c([H])c([H])c(F)c([H])c4F)c([H])c3[H])c(C(=O)N([H])[H])c2N([H])[H])C1([H])[H]

$$$$
83:0:0
     RDKit          3D

 91 99  0  0  1  0  0  0  0  0999 V2000
  -28.1440  -22.7680   21.1450 C   0  0  0  0  0  3  0  0  0  0  0  0
  -28.7740  -23.8780   20.6520 C   0  0  0  0  0  0  0  0  0  0  0  0
  -29.8930  -23.7320   19.6240 C   0  0  0  0  0  2  0  0  0  0  0  0
  -30.8460  -22.4990   19.8040 C   0  0  0  0  0  2  0  0  0  0  0  0
  -28.1950  -21.2400   20.7970 C   0  0  0  0  0  3  0  0  0  0  0  0
  -29.5550  -20.4480   20.5660 C   0  0  0  0  0  3  0  0  0  0  0  0
  -27.1520  -20.9740   19.6940 C   0  0  0  0  0  1  0  0  0  0  0  0
  -30.3070  -21.1380   19.4860 N   0  0  0  0  0  4  0  0  0  0  0  0
  -31.1100  -20.5630   19.2860 H   0  0  0  0  0  0  0  0  0  0  0  0
  -29.7590  -21.1750   18.6440 H   0  0  0  0  0  0  0  0  0  0  0  0
  -28.3640  -25.3260   21.1790 C   0  0  0  0  0  2  0  0  0  0  0  0
  -28.5130  -26.5700   20.3790 O   0  0  0  0  0  0  0  0  0  0  0  0
  -24.6220  -31.9760   23.2710 C   0  0  0  0  0  0  0  0  0  0  0  0
  -27.4030  -27.4300   20.3420 C   0  0  0  0  0  0  0  0  0  0  0  0
  -23.4930  -30.5430   21.6060 C   0  0  0  0  0  3  0  0  0  0  0  0
  -25.0140  -29.0020   20.2410 C   0  0  0  0  0  0  0  0  0  0  0  0
  -26.0300  -30.9050   21.4960 C   0  0  0  0  0  2  0  0  0  0  0  0
  -26.1570  -29.5190   20.8670 C   0  0  0  0  0  0  0  0  0  0  0  0
  -27.3580  -28.7460   20.9050 C   0  0  0  0  0  3  0  0  0  0  0  0
  -26.2410  -26.9640   19.6960 C   0  0  0  0  0  3  0  0  0  0  0  0
  -25.0590  -27.7300   19.6450 C   0  0  0  0  0  3  0  0  0  0  0  0
  -23.7610  -29.8570   20.2410 C   0  0  0  0  0  2  0  0  0  0  0  0
  -24.7320  -31.1600   22.1820 N   0  0  0  0  0  0  0  0  0  0  0  0
  -23.5180  -32.2390   23.7710 O   0  0  0  0  0  0  0  0  0  0  0  0
  -22.8170  -29.5250   22.5570 C   0  0  0  0  0  0  0  0  0  0  0  0
  -21.4920  -29.3460   22.4120 N   0  0  0  0  0  0  0  0  0  0  0  0
  -23.4840  -28.8990   23.3840 O   0  0  0  0  0  0  0  0  0  0  0  0
  -21.0130  -29.9040   21.7180 H   0  0  0  0  0  0  0  0  0  0  0  0
  -18.1030  -28.1790   22.8980 C   0  0  0  0  0  0  0  0  0  0  0  0
  -20.6640  -28.4060   23.1680 C   0  0  0  0  0  3  0  0  0  0  0  0
  -20.7490  -26.9820   22.5700 C   0  0  0  0  0  2  0  0  0  0  0  0
  -19.6430  -26.6880   21.5520 C   0  0  0  0  0  2  0  0  0  0  0  0
  -18.2630  -26.8390   22.2000 C   0  0  0  0  0  2  0  0  0  0  0  0
  -19.2300  -28.9220   23.3380 C   0  0  0  0  0  0  0  0  0  0  0  0
  -19.0250  -30.1770   23.9510 C   0  0  0  0  0  3  0  0  0  0  0  0
  -17.7260  -30.6890   24.1280 C   0  0  0  0  0  3  0  0  0  0  0  0
  -16.6130  -29.9430   23.7030 C   0  0  0  0  0  3  0  0  0  0  0  0
  -16.8030  -28.6890   23.0940 C   0  0  0  0  0  3  0  0  0  0  0  0
  -25.8740  -32.6360   23.9270 C   0  0  0  0  0  3  0  0  0  0  0  0
  -26.3520  -31.8950   25.2370 C   0  0  1  0  0  0  0  0  0  0  0  0
  -25.2220  -31.6610   26.2660 C   0  0  0  0  0  1  0  0  0  0  0  0
  -26.9690  -30.5190   24.8930 C   0  0  0  0  0  1  0  0  0  0  0  0
  -27.4650  -32.7180   25.9280 C   0  0  0  0  0  1  0  0  0  0  0  0
  -25.5370  -34.0360   24.2190 N   0  0  0  0  0  0  0  0  0  0  0  0
  -25.8850  -35.0790   23.4540 C   0  0  0  0  0  0  0  0  0  0  0  0
  -26.5920  -34.9660   22.4490 O   0  0  0  0  0  0  0  0  0  0  0  0
  -24.9140  -34.1980   24.9970 H   0  0  0  0  0  0  0  0  0  0  0  0
  -24.1580  -36.8530   23.0010 C   0  0  0  0  0  1  0  0  0  0  0  0
  -25.3690  -36.4710   23.8700 C   0  0  0  0  0  3  0  0  0  0  0  0
  -27.4560  -37.3920   24.7780 C   0  0  0  0  0  1  0  0  0  0  0  0
  -26.3960  -37.5310   23.7820 N   0  0  0  0  0  0  0  0  0  0  0  0
  -25.9760  -38.4510   23.8920 H   0  0  0  0  0  0  0  0  0  0  0  0
  -29.3380  -18.8470   20.3230 C   0  0  0  0  0  2  0  0  0  0  0  0
  -30.4760  -17.7010   20.3810 C   0  0  0  0  0  2  0  0  0  0  0  0
  -29.9890  -16.1780   20.6450 C   0  0  0  0  0  2  0  0  0  0  0  0
  -30.8230  -14.8840   20.1900 C   0  0  0  0  0  0  0  0  0  0  0  0
  -30.6260  -12.6290   19.1200 C   0  0  0  0  0  2  0  0  0  0  0  0
  -29.6480  -12.7380   17.9260 C   0  0  0  0  0  2  0  0  0  0  0  0
  -28.1890  -12.5550   18.3890 C   0  0  0  0  0  2  0  0  0  0  0  0
  -27.8500  -13.4170   19.6320 C   0  0  0  0  0  3  0  0  0  0  0  0
  -28.9370  -13.2890   20.7220 C   0  0  0  0  0  2  0  0  0  0  0  0
  -30.2290  -13.6450   20.1190 N   0  0  0  0  0  0  0  0  0  0  0  0
  -31.9760  -15.0330   19.7730 O   0  0  0  0  0  0  0  0  0  0  0  0
  -25.4830  -14.0130   20.4270 C   0  0  0  0  0  0  0  0  0  0  0  0
  -24.4240  -13.2370   20.8160 C   0  0  0  0  0  0  0  0  0  0  0  0
  -24.8820  -11.8860   20.7580 C   0  0  0  0  0  0  0  0  0  0  0  0
  -26.5180  -13.1320   20.1530 N   0  0  0  0  0  0  0  0  0  0  0  0
  -26.1640  -11.8480   20.4140 N   0  0  0  0  0  0  0  0  0  0  0  0
  -24.1590  -10.6230   20.9520 C   0  0  0  0  0  0  0  0  0  0  0  0
  -24.5820   -9.6680   21.9020 C   0  0  0  0  0  3  0  0  0  0  0  0
  -23.8580   -8.4700   22.0840 C   0  0  0  0  0  3  0  0  0  0  0  0
  -22.6980   -8.2190   21.3140 C   0  0  0  0  0  0  0  0  0  0  0  0
  -22.2930   -9.1620   20.3540 C   0  0  0  0  0  3  0  0  0  0  0  0
  -23.0180  -10.3520   20.1700 C   0  0  0  0  0  3  0  0  0  0  0  0
  -21.9460   -7.0710   21.4040 O   0  0  0  0  0  0  0  0  0  0  0  0
  -21.8460   -6.3660   22.5770 C   0  0  0  0  0  0  0  0  0  0  0  0
  -21.3260   -6.9490   23.7530 C   0  0  0  0  0  3  0  0  0  0  0  0
  -21.1760   -6.1690   24.9170 C   0  0  0  0  0  3  0  0  0  0  0  0
  -21.5340   -4.8070   24.9050 C   0  0  0  0  0  0  0  0  0  0  0  0
  -22.0470   -4.2250   23.7330 C   0  0  0  0  0  3  0  0  0  0  0  0
  -22.1990   -5.0020   22.5710 C   0  0  0  0  0  0  0  0  0  0  0  0
  -22.6730   -4.4310   21.4380 F   0  0  0  0  0  0  0  0  0  0  0  0
  -21.3820   -4.0560   26.0210 F   0  0  0  0  0  0  0  0  0  0  0  0
  -23.0360  -13.7140   21.1300 C   0  0  0  0  0  0  0  0  0  0  0  0
  -22.3270  -13.0080   22.0030 N   0  0  0  0  0  0  0  0  0  0  0  0
  -22.5870  -14.7480   20.6350 O   0  0  0  0  0  0  0  0  0  0  0  0
  -22.7030  -12.1710   22.4240 H   0  0  0  0  0  0  0  0  0  0  0  0
  -21.3960  -13.3090   22.2560 H   0  0  0  0  0  0  0  0  0  0  0  0
  -25.6470  -15.3850   20.2640 N   0  0  0  0  0  0  0  0  0  0  0  0
  -24.8860  -16.0420   20.4060 H   0  0  0  0  0  0  0  0  0  0  0  0
  -26.4920  -15.8270   19.9270 H   0  0  0  0  0  0  0  0  0  0  0  0
  2  1  2  0
  2 11  1  0
  3  4  1  0
  3  2  1  0
  5  7  1  0
  5  1  1  0
  6 53  1  0
  6  5  1  0
  8  4  1  0
  8  6  1  0
  9  8  1  0
 10  8  1  0
 12 11  1  0
 13 24  2  0
 14 12  1  0
 14 19  1  0
 15 23  1  0
 15 25  1  0
 16 22  1  0
 16 18  1  0
 17 23  1  0
 18 19  2  0
 18 17  1  0
 20 14  2  0
 21 20  1  0
 21 16  2  0
 22 15  1  0
 23 13  1  0
 25 27  2  0
 26 25  1  0
 28 26  1  0
 29 38  2  0
 29 34  1  0
 30 26  1  0
 30 34  1  0
 31 30  1  0
 32 33  1  0
 32 31  1  0
 33 29  1  0
 34 35  2  0
 35 36  1  0
 37 36  2  0
 38 37  1  0
 39 13  1  0
 39 44  1  0
 39 40  1  0
 40 43  1  1
 40 41  1  0
 42 40  1  0
 44 47  1  0
 45 49  1  0
 45 44  1  0
 46 45  2  0
 49 48  1  0
 51 49  1  0
 51 52  1  0
 51 50  1  0
 53 54  1  0
 54 55  1  0
 56 55  1  0
 57 62  1  0
 58 59  1  0
 58 57  1  0
 60 59  1  0
 60 67  1  0
 60 61  1  0
 62 56  1  0
 62 61  1  0
 63 56  2  0
 64 65  2  0
 65 84  1  0
 66 65  1  0
 66 69  1  0
 67 68  1  0
 67 64  1  0
 68 66  2  0
 69 70  1  0
 70 71  2  0
 72 75  1  0
 72 71  1  0
 73 72  2  0
 74 73  1  0
 74 69  2  0
 75 76  1  0
 76 77  1  0
 77 78  2  0
 79 78  1  0
 79 83  1  0
 80 79  2  0
 81 76  2  0
 81 80  1  0
 82 81  1  0
 84 85  1  0
 85 88  1  0
 85 87  1  0
 86 84  2  0
 89 90  1  0
 89 64  1  0
 91 89  1  0
M  ISO  4  11 101  12 101  55 100  56 100
M  END
>  <TORSDO>  (84) 
F 20

>  <SCORE>  (84) 
-13.541

>  <name>  (84) 
83

>  <ligand_id>  (84) 
83

>  <original_smiles>  (84) 
[H]C1=C(C([H])([H])Oc2c([H])c([H])c3c(c2[H])C([H])([H])N(C(=O)C([H])(N([H])C(=O)C([H])(N([H])C([H])([H])[H])C([H])([H])[H])C(C([H])([H])[H])(C([H])([H])[H])C([H])([H])[H])C([H])(C(=O)N([H])C2([H])c4c([H])c([H])c([H])c([H])c4C([H])([H])C([H])([H])C2([H])[H])C3([H])[H])C([H])([H])C([H])([H])[N+]([H])([H])C([H])(C([H])([H])C([H])([H])C([H])([H])C(=O)N2C([H])([H])C([H])([H])C([H])([H])C([H])(n3nc(-c4c([H])c([H])c(Oc5c([H])c([H])c(F)c([H])c5F)c([H])c4[H])c(C(=O)N([H])[H])c3N([H])[H])C2([H])[H])C1([H])C([H])([H])[H]

>  <smiles>  (84) 
[H]C1=C(C([H])([H])Oc2c([H])c([H])c3c(c2[H])C([H])([H])N(C(=O)C([H])(N([H])C(=O)C([H])(N([H])C([H])([H])[H])C([H])([H])[H])C(C([H])([H])[H])(C([H])([H])[H])C([H])([H])[H])C([H])(C(=O)N([H])C2([H])c4c([H])c([H])c([H])c([H])c4C([H])([H])C([H])([H])C2([H])[H])C3([H])[H])C([H])([H])C([H])([H])[N+]([H])([H])C([H])(C([H])([H])C([H])([H])C([H])([H])C(=O)N2C([H])([H])C([H])([H])C([H])([H])C([H])(n3nc(-c4c([H])c([H])c(Oc5c([H])c([H])c(F)c([H])c5F)c([H])c4[H])c(C(=O)N([H])[H])c3N([H])[H])C2([H])[H])C1([H])C([H])([H])[H]

$$$$
84:0:0
     RDKit          3D

 91100  0  0  1  0  0  0  0  0999 V2000
  -30.3360  -21.8460   20.2960 N   0  0  0  0  0  0  0  0  0  0  0  0
  -30.6880  -22.1380   19.3870 H   0  0  0  0  0  0  0  0  0  0  0  0
  -30.1360  -18.2970   21.7250 C   0  0  0  0  0  3  0  0  0  0  0  0
  -30.1910  -19.7280   21.6650 C   0  0  0  0  0  3  0  0  0  0  0  0
  -30.2960  -19.6440   19.2460 C   0  0  0  0  0  3  0  0  0  0  0  0
  -30.1390  -17.5290   20.5330 C   0  0  0  0  0  0  0  0  0  0  0  0
  -30.2010  -18.2350   19.3250 C   0  0  0  0  0  0  0  0  0  0  0  0
  -30.2640  -20.4280   20.4240 C   0  0  0  0  0  0  0  0  0  0  0  0
  -29.9030  -17.3390   18.1680 C   0  0  0  0  0  2  0  0  0  0  0  0
  -29.1380  -16.1960   18.8570 C   0  0  0  0  0  2  0  0  0  0  0  0
  -29.6630  -16.0550   20.3200 C   0  0  0  0  0  3  0  0  0  0  0  0
  -30.6310  -14.7850   20.3790 C   0  0  0  0  0  0  0  0  0  0  0  0
  -30.4800  -12.5250   19.3640 C   0  0  0  0  0  2  0  0  0  0  0  0
  -29.5240  -12.6020   18.1480 C   0  0  0  0  0  2  0  0  0  0  0  0
  -28.0400  -12.5010   18.5710 C   0  0  0  0  0  2  0  0  0  0  0  0
  -27.6810  -13.3350   19.8300 C   0  0  0  0  0  3  0  0  0  0  0  0
  -28.7560  -13.1840   20.9290 C   0  0  0  0  0  2  0  0  0  0  0  0
  -30.0630  -13.5350   20.3550 N   0  0  0  0  0  0  0  0  0  0  0  0
  -31.8320  -14.9340   20.1360 O   0  0  0  0  0  0  0  0  0  0  0  0
  -25.2930  -13.9170   20.5790 C   0  0  0  0  0  0  0  0  0  0  0  0
  -24.2320  -13.1320   20.9400 C   0  0  0  0  0  0  0  0  0  0  0  0
  -24.7050  -11.7850   20.8880 C   0  0  0  0  0  0  0  0  0  0  0  0
  -26.3400  -13.0450   20.3250 N   0  0  0  0  0  0  0  0  0  0  0  0
  -25.9930  -11.7580   20.5760 N   0  0  0  0  0  0  0  0  0  0  0  0
  -23.9910  -10.5150   21.0590 C   0  0  0  0  0  0  0  0  0  0  0  0
  -24.4050   -9.5590   22.0130 C   0  0  0  0  0  3  0  0  0  0  0  0
  -23.6920   -8.3520   22.1710 C   0  0  0  0  0  3  0  0  0  0  0  0
  -22.5520   -8.0910   21.3760 C   0  0  0  0  0  0  0  0  0  0  0  0
  -22.1580   -9.0360   20.4110 C   0  0  0  0  0  3  0  0  0  0  0  0
  -22.8710  -10.2360   20.2510 C   0  0  0  0  0  3  0  0  0  0  0  0
  -21.8130   -6.9350   21.4430 O   0  0  0  0  0  0  0  0  0  0  0  0
  -21.6910   -6.2270   22.6110 C   0  0  0  0  0  0  0  0  0  0  0  0
  -21.1280   -6.7970   23.7730 C   0  0  0  0  0  3  0  0  0  0  0  0
  -20.9570   -6.0130   24.9310 C   0  0  0  0  0  3  0  0  0  0  0  0
  -21.3400   -4.6580   24.9270 C   0  0  0  0  0  0  0  0  0  0  0  0
  -21.8980   -4.0870   23.7690 C   0  0  0  0  0  3  0  0  0  0  0  0
  -22.0700   -4.8700   22.6130 C   0  0  0  0  0  0  0  0  0  0  0  0
  -22.5880   -4.3090   21.4930 F   0  0  0  0  0  0  0  0  0  0  0  0
  -21.1700   -3.9020   26.0360 F   0  0  0  0  0  0  0  0  0  0  0  0
  -22.8320  -13.5940   21.2240 C   0  0  0  0  0  0  0  0  0  0  0  0
  -22.1110  -12.8760   22.0780 N   0  0  0  0  0  0  0  0  0  0  0  0
  -22.3840  -14.6250   20.7240 O   0  0  0  0  0  0  0  0  0  0  0  0
  -22.4860  -12.0410   22.5050 H   0  0  0  0  0  0  0  0  0  0  0  0
  -21.1720  -13.1660   22.3110 H   0  0  0  0  0  0  0  0  0  0  0  0
  -25.4440  -15.2930   20.4240 N   0  0  0  0  0  0  0  0  0  0  0  0
  -24.6720  -15.9380   20.5530 H   0  0  0  0  0  0  0  0  0  0  0  0
  -26.2900  -15.7490   20.1080 H   0  0  0  0  0  0  0  0  0  0  0  0
  -29.2960  -22.7670   20.8160 C   0  0  0  0  0  2  0  0  0  0  0  0
  -29.4560  -24.2660   20.3240 C   0  0  0  0  0  3  0  0  0  0  0  0
  -28.3210  -25.2820   20.7270 C   0  0  0  0  0  3  0  0  0  0  0  0
  -28.4800  -26.6740   20.2790 O   0  0  0  0  0  0  0  0  0  0  0  0
  -24.5760  -31.9280   23.2420 C   0  0  0  0  0  0  0  0  0  0  0  0
  -27.3300  -27.4620   20.2320 C   0  0  0  0  0  0  0  0  0  0  0  0
  -23.4290  -30.5290   21.5590 C   0  0  0  0  0  3  0  0  0  0  0  0
  -24.9340  -29.0080   20.1640 C   0  0  0  0  0  0  0  0  0  0  0  0
  -25.9630  -30.8920   21.4400 C   0  0  0  0  0  2  0  0  0  0  0  0
  -26.0780  -29.5200   20.7920 C   0  0  0  0  0  0  0  0  0  0  0  0
  -27.2780  -28.7600   20.8150 C   0  0  0  0  0  3  0  0  0  0  0  0
  -26.1700  -26.9930   19.5750 C   0  0  0  0  0  3  0  0  0  0  0  0
  -24.9810  -27.7470   19.5470 C   0  0  0  0  0  3  0  0  0  0  0  0
  -23.6850  -29.8620   20.1810 C   0  0  0  0  0  2  0  0  0  0  0  0
  -24.6730  -31.1320   22.1390 N   0  0  0  0  0  0  0  0  0  0  0  0
  -23.4770  -32.1900   23.7520 O   0  0  0  0  0  0  0  0  0  0  0  0
  -22.7540  -29.4980   22.4940 C   0  0  0  0  0  0  0  0  0  0  0  0
  -21.4360  -29.3000   22.3230 N   0  0  0  0  0  0  0  0  0  0  0  0
  -23.4160  -28.8790   23.3320 O   0  0  0  0  0  0  0  0  0  0  0  0
  -20.9620  -29.8530   21.6220 H   0  0  0  0  0  0  0  0  0  0  0  0
  -18.0590  -28.0700   22.7190 C   0  0  0  0  0  0  0  0  0  0  0  0
  -20.6060  -28.3490   23.0630 C   0  0  0  0  0  3  0  0  0  0  0  0
  -20.7380  -26.9230   22.4790 C   0  0  0  0  0  2  0  0  0  0  0  0
  -19.6680  -26.5990   21.4320 C   0  0  0  0  0  2  0  0  0  0  0  0
  -18.2670  -26.7270   22.0380 C   0  0  0  0  0  2  0  0  0  0  0  0
  -19.1580  -28.8380   23.1850 C   0  0  0  0  0  0  0  0  0  0  0  0
  -18.9120  -30.0950   23.7800 C   0  0  0  0  0  3  0  0  0  0  0  0
  -17.5980  -30.5830   23.9130 C   0  0  0  0  0  3  0  0  0  0  0  0
  -16.5130  -29.8120   23.4630 C   0  0  0  0  0  3  0  0  0  0  0  0
  -16.7440  -28.5570   22.8710 C   0  0  0  0  0  3  0  0  0  0  0  0
  -25.8380  -32.5660   23.9020 C   0  0  0  0  0  3  0  0  0  0  0  0
  -26.3050  -31.8110   25.2070 C   0  0  1  0  0  0  0  0  0  0  0  0
  -25.1730  -31.5840   26.2350 C   0  0  0  0  0  1  0  0  0  0  0  0
  -26.9050  -30.4300   24.8540 C   0  0  0  0  0  1  0  0  0  0  0  0
  -27.4310  -32.6130   25.9030 C   0  0  0  0  0  1  0  0  0  0  0  0
  -25.5200  -33.9690   24.2020 N   0  0  0  0  0  0  0  0  0  0  0  0
  -25.8860  -35.0100   23.4430 C   0  0  0  0  0  0  0  0  0  0  0  0
  -26.5960  -34.8910   22.4400 O   0  0  0  0  0  0  0  0  0  0  0  0
  -24.8960  -34.1360   24.9780 H   0  0  0  0  0  0  0  0  0  0  0  0
  -24.1910  -36.8100   22.9840 C   0  0  0  0  0  1  0  0  0  0  0  0
  -25.3860  -36.4060   23.8620 C   0  0  0  0  0  3  0  0  0  0  0  0
  -27.4770  -37.2900   24.7970 C   0  0  0  0  0  1  0  0  0  0  0  0
  -26.4310  -37.4510   23.7920 N   0  0  0  0  0  0  0  0  0  0  0  0
  -26.0230  -38.3760   23.9050 H   0  0  0  0  0  0  0  0  0  0  0  0
  1  8  1  0
  1 48  1  0
  2  1  1  0
  4  3  1  0
  5  7  2  0
  5  8  1  0
  6  3  2  0
  7  6  1  0
  8  4  2  0
  9 10  1  0
  9  7  1  0
 10 11  1  0
 11 12  1  0
 11  6  1  0
 13 18  1  0
 14 15  1  0
 14 13  1  0
 16 15  1  0
 16 23  1  0
 16 17  1  0
 18 12  1  0
 18 17  1  0
 19 12  2  0
 20 21  2  0
 21 40  1  0
 22 21  1  0
 22 25  1  0
 23 24  1  0
 23 20  1  0
 24 22  2  0
 25 26  1  0
 26 27  2  0
 28 31  1  0
 28 27  1  0
 29 28  2  0
 30 29  1  0
 30 25  2  0
 31 32  1  0
 32 37  2  0
 32 33  1  0
 33 34  2  0
 35 34  1  0
 35 39  1  0
 36 35  2  0
 37 36  1  0
 38 37  1  0
 40 41  1  0
 41 44  1  0
 41 43  1  0
 42 40  2  0
 45 46  1  0
 45 20  1  0
 47 45  1  0
 49 50  2  0
 49 48  1  0
 51 50  1  0
 52 63  2  0
 53 51  1  0
 53 58  1  0
 54 62  1  0
 54 64  1  0
 55 61  1  0
 55 57  1  0
 56 62  1  0
 57 58  2  0
 57 56  1  0
 59 53  2  0
 60 59  1  0
 60 55  2  0
 61 54  1  0
 62 52  1  0
 64 66  2  0
 65 64  1  0
 67 65  1  0
 68 77  2  0
 68 73  1  0
 69 65  1  0
 69 73  1  0
 70 69  1  0
 71 72  1  0
 71 70  1  0
 72 68  1  0
 73 74  2  0
 74 75  1  0
 76 75  2  0
 77 76  1  0
 78 52  1  0
 78 83  1  0
 78 79  1  0
 79 82  1  1
 79 80  1  0
 81 79  1  0
 83 86  1  0
 84 88  1  0
 84 83  1  0
 85 84  2  0
 88 87  1  0
 90 88  1  0
 90 91  1  0
 90 89  1  0
M  ISO  4  11 100  12 100  50 101  51 101
M  END
>  <TORSDO>  (85) 
F 20

>  <SCORE>  (85) 
-13.198

>  <name>  (85) 
84

>  <ligand_id>  (85) 
84

>  <original_smiles>  (85) 
[H]c1c([H])c([H])c2c(c1[H])C([H])([H])C([H])([H])C([H])([H])C2([H])N([H])C(=O)C1([H])N(C(=O)C([H])(N([H])C(=O)C([H])(N([H])C([H])([H])[H])C([H])([H])[H])C(C([H])([H])[H])(C([H])([H])[H])C([H])([H])[H])C([H])([H])c2c([H])c(OC([H])([H])C([H])([H])C([H])([H])N([H])c3c([H])c([H])c4c(c3[H])C([H])([H])C([H])([H])C4([H])C(=O)N3C([H])([H])C([H])([H])C([H])([H])C([H])(n4nc(-c5c([H])c([H])c(Oc6c([H])c([H])c(F)c([H])c6F)c([H])c5[H])c(C(=O)N([H])[H])c4N([H])[H])C3([H])[H])c([H])c([H])c2C1([H])[H]

>  <smiles>  (85) 
[H]c1c([H])c([H])c2c(c1[H])C([H])([H])C([H])([H])C([H])([H])C2([H])N([H])C(=O)C1([H])N(C(=O)C([H])(N([H])C(=O)C([H])(N([H])C([H])([H])[H])C([H])([H])[H])C(C([H])([H])[H])(C([H])([H])[H])C([H])([H])[H])C([H])([H])c2c([H])c(OC([H])([H])C([H])([H])C([H])([H])N([H])c3c([H])c([H])c4c(c3[H])C([H])([H])C([H])([H])C4([H])C(=O)N3C([H])([H])C([H])([H])C([H])([H])C([H])(n4nc(-c5c([H])c([H])c(Oc6c([H])c([H])c(F)c([H])c6F)c([H])c5[H])c(C(=O)N([H])[H])c4N([H])[H])C3([H])[H])c([H])c([H])c2C1([H])[H]

$$$$
85:0:0
     RDKit          3D

 93102  0  0  1  0  0  0  0  0999 V2000
  -28.7330  -16.2220   21.4990 C   0  0  0  0  0  2  0  0  0  0  0  0
  -30.2280  -16.0550   21.9160 C   0  0  0  0  0  2  0  0  0  0  0  0
  -28.7320  -19.0290   18.9430 C   0  0  0  0  0  2  0  0  0  0  0  0
  -27.8530  -18.1910   19.9010 C   0  0  0  0  0  3  0  0  0  0  0  0
  -28.7610  -16.9850   20.1640 C   0  0  0  0  0  3  0  0  0  0  0  0
  -31.0710  -16.5370   20.7110 C   0  0  0  0  0  3  0  0  0  0  0  0
  -30.1690  -18.8850   19.4940 C   0  0  0  0  0  3  0  0  0  0  0  0
  -26.4740  -17.8190   19.3240 C   0  0  0  0  0  1  0  0  0  0  0  0
  -30.0980  -17.5510   20.1910 N   0  0  1  0  0  4  0  0  0  0  0  0
  -30.0170  -18.0000   21.0910 H   0  0  0  0  0  0  0  0  0  0  0  0
  -31.3310  -15.3140   19.7580 C   0  0  0  0  0  2  0  0  0  0  0  0
  -32.0770  -14.0370   20.2920 C   0  0  0  0  0  0  0  0  0  0  0  0
  -31.8210  -11.5850   20.1280 C   0  0  0  0  0  2  0  0  0  0  0  0
  -30.9980  -11.2720   18.8580 C   0  0  0  0  0  2  0  0  0  0  0  0
  -29.4820  -11.3070   19.1440 C   0  0  0  0  0  2  0  0  0  0  0  0
  -29.0560  -12.5670   19.9300 C   0  0  0  0  0  3  0  0  0  0  0  0
  -30.0040  -12.8510   21.1150 C   0  0  0  0  0  2  0  0  0  0  0  0
  -31.3830  -12.9050   20.6150 N   0  0  0  0  0  0  0  0  0  0  0  0
  -33.2990  -14.0090   20.1290 O   0  0  0  0  0  0  0  0  0  0  0  0
  -26.7600  -13.5570   20.5130 C   0  0  0  0  0  0  0  0  0  0  0  0
  -25.5720  -12.9780   20.8500 C   0  0  0  0  0  0  0  0  0  0  0  0
  -25.8120  -11.5700   20.8680 C   0  0  0  0  0  0  0  0  0  0  0  0
  -27.6610  -12.5160   20.3530 N   0  0  0  0  0  0  0  0  0  0  0  0
  -27.0930  -11.3170   20.6310 N   0  0  0  0  0  0  0  0  0  0  0  0
  -24.8870  -10.4480   21.0350 C   0  0  0  0  0  0  0  0  0  0  0  0
  -25.1470   -9.4160   21.9600 C   0  0  0  0  0  3  0  0  0  0  0  0
  -24.2380   -8.3490   22.1170 C   0  0  0  0  0  3  0  0  0  0  0  0
  -23.0490   -8.3120   21.3450 C   0  0  0  0  0  0  0  0  0  0  0  0
  -22.8070   -9.3340   20.4100 C   0  0  0  0  0  3  0  0  0  0  0  0
  -23.7180  -10.3900   20.2530 C   0  0  0  0  0  3  0  0  0  0  0  0
  -22.1190   -7.3040   21.4090 O   0  0  0  0  0  0  0  0  0  0  0  0
  -21.9310   -6.5720   22.5540 C   0  0  0  0  0  0  0  0  0  0  0  0
  -21.5980   -7.1820   23.7830 C   0  0  0  0  0  3  0  0  0  0  0  0
  -21.3400   -6.3840   24.9160 C   0  0  0  0  0  3  0  0  0  0  0  0
  -21.4150   -4.9830   24.8210 C   0  0  0  0  0  0  0  0  0  0  0  0
  -21.7460   -4.3740   23.5970 C   0  0  0  0  0  3  0  0  0  0  0  0
  -21.9970   -5.1680   22.4650 C   0  0  0  0  0  0  0  0  0  0  0  0
  -22.2910   -4.5770   21.2810 F   0  0  0  0  0  0  0  0  0  0  0  0
  -21.1580   -4.2160   25.9060 F   0  0  0  0  0  0  0  0  0  0  0  0
  -24.2560  -13.6800   21.0290 C   0  0  0  0  0  0  0  0  0  0  0  0
  -23.3810  -13.1380   21.8660 N   0  0  0  0  0  0  0  0  0  0  0  0
  -24.0230  -14.7460   20.4610 O   0  0  0  0  0  0  0  0  0  0  0  0
  -23.5930  -12.2820   22.3560 H   0  0  0  0  0  0  0  0  0  0  0  0
  -22.4940  -13.5960   22.0280 H   0  0  0  0  0  0  0  0  0  0  0  0
  -27.1510  -14.8730   20.2810 N   0  0  0  0  0  0  0  0  0  0  0  0
  -26.4300  -15.5810   20.2010 H   0  0  0  0  0  0  0  0  0  0  0  0
  -27.8860  -14.9990   19.5980 H   0  0  0  0  0  0  0  0  0  0  0  0
  -31.3010  -19.2140   18.4750 C   0  0  0  0  0  2  0  0  0  0  0  0
  -31.5130  -20.7220   18.0180 C   0  0  0  0  0  3  0  0  0  0  0  0
  -31.2590  -21.9300   18.9970 C   0  0  0  0  0  3  0  0  0  0  0  0
  -31.0990  -23.3580   18.3400 C   0  0  0  0  0  3  0  0  0  0  0  0
  -30.4060  -24.4470   19.2340 C   0  0  0  0  0  3  0  0  0  0  0  0
  -30.3880  -25.8090   18.7150 O   0  0  0  0  0  0  0  0  0  0  0  0
  -26.6900  -29.5520   23.5970 C   0  0  0  0  0  0  0  0  0  0  0  0
  -29.2780  -26.5940   19.0060 C   0  0  0  0  0  0  0  0  0  0  0  0
  -25.5300  -29.1000   21.4590 C   0  0  0  0  0  3  0  0  0  0  0  0
  -26.9940  -28.1990   19.5660 C   0  0  0  0  0  0  0  0  0  0  0  0
  -28.0850  -29.2700   21.5440 C   0  0  0  0  0  2  0  0  0  0  0  0
  -28.1370  -28.3020   20.3730 C   0  0  0  0  0  0  0  0  0  0  0  0
  -29.2820  -27.5130   20.0880 C   0  0  0  0  0  3  0  0  0  0  0  0
  -28.1190  -26.5180   18.2030 C   0  0  0  0  0  3  0  0  0  0  0  0
  -26.9870  -27.3140   18.4730 C   0  0  0  0  0  3  0  0  0  0  0  0
  -25.8050  -29.0640   19.9310 C   0  0  0  0  0  2  0  0  0  0  0  0
  -26.7830  -29.2950   22.2600 N   0  0  0  0  0  0  0  0  0  0  0  0
  -25.5880  -29.6610   24.1530 O   0  0  0  0  0  0  0  0  0  0  0  0
  -24.7430  -27.8290   21.8550 C   0  0  0  0  0  0  0  0  0  0  0  0
  -23.4280  -27.8310   21.5820 N   0  0  0  0  0  0  0  0  0  0  0  0
  -25.3150  -26.8660   22.3700 O   0  0  0  0  0  0  0  0  0  0  0  0
  -23.0270  -28.6590   21.1680 H   0  0  0  0  0  0  0  0  0  0  0  0
  -19.9780  -26.7990   21.2760 C   0  0  0  0  0  0  0  0  0  0  0  0
  -22.5040  -26.7230   21.8270 C   0  0  0  0  0  3  0  0  0  0  0  0
  -22.6090  -25.6570   20.7110 C   0  0  0  0  0  2  0  0  0  0  0  0
  -21.5990  -25.8640   19.5780 C   0  0  0  0  0  2  0  0  0  0  0  0
  -20.1680  -25.8290   20.1240 C   0  0  0  0  0  2  0  0  0  0  0  0
  -21.0780  -27.2300   22.0660 C   0  0  0  0  0  0  0  0  0  0  0  0
  -20.8510  -28.1600   23.1050 C   0  0  0  0  0  3  0  0  0  0  0  0
  -19.5580  -28.6560   23.3590 C   0  0  0  0  0  3  0  0  0  0  0  0
  -18.4730  -28.2120   22.5820 C   0  0  0  0  0  3  0  0  0  0  0  0
  -18.6830  -27.2820   21.5500 C   0  0  0  0  0  3  0  0  0  0  0  0
  -27.9590  -29.7420   24.4830 C   0  0  0  0  0  3  0  0  0  0  0  0
  -27.6700  -30.8070   25.4530 N   0  0  0  0  0  0  0  0  0  0  0  0
  -28.1490  -32.0580   25.3750 C   0  0  0  0  0  0  0  0  0  0  0  0
  -28.9490  -32.4150   24.5060 O   0  0  0  0  0  0  0  0  0  0  0  0
  -26.9790  -30.6010   26.1590 H   0  0  0  0  0  0  0  0  0  0  0  0
  -26.6170  -34.0050   25.8060 C   0  0  0  0  0  1  0  0  0  0  0  0
  -27.6650  -33.0700   26.4320 C   0  0  0  0  0  3  0  0  0  0  0  0
  -29.6530  -33.0900   27.8740 C   0  0  0  0  0  1  0  0  0  0  0  0
  -28.7590  -33.8710   27.0230 N   0  0  0  0  0  0  0  0  0  0  0  0
  -28.3850  -34.6370   27.5760 H   0  0  0  0  0  0  0  0  0  0  0  0
  -28.4050  -28.4210   25.2230 C   0  0  1  0  0  0  0  0  0  0  0  0
  -27.2610  -27.7310   26.0040 C   0  0  0  0  0  1  0  0  0  0  0  0
  -28.9700  -27.3950   24.2150 C   0  0  0  0  0  1  0  0  0  0  0  0
  -29.5440  -28.7350   26.2200 C   0  0  0  0  0  1  0  0  0  0  0  0
  1  2  1  0
  3  7  1  0
  3  4  1  0
  4  8  1  0
  4  5  1  0
  5  9  1  0
  5  1  1  0
  6 11  1  0
  6  2  1  0
  7 48  1  0
  7  9  1  0
  9  6  1  0
  9 10  1  1
 11 12  1  0
 12 18  1  0
 13 18  1  0
 14 15  1  0
 14 13  1  0
 16 15  1  0
 16 23  1  0
 16 17  1  0
 18 17  1  0
 19 12  2  0
 20 21  2  0
 21 22  1  0
 21 40  1  0
 22 25  1  0
 23 20  1  0
 23 24  1  0
 24 22  2  0
 25 26  1  0
 26 27  2  0
 28 31  1  0
 28 27  1  0
 29 28  2  0
 30 29  1  0
 30 25  2  0
 31 32  1  0
 32 33  1  0
 33 34  2  0
 35 34  1  0
 35 39  1  0
 36 35  2  0
 37 32  2  0
 37 36  1  0
 38 37  1  0
 40 41  1  0
 41 44  1  0
 41 43  1  0
 42 40  2  0
 45 20  1  0
 46 45  1  0
 47 45  1  0
 49 48  1  0
 49 50  2  0
 51 50  1  0
 51 52  2  0
 53 55  1  0
 53 52  1  0
 54 65  2  0
 55 60  1  0
 56 66  1  0
 56 64  1  0
 57 63  1  0
 57 59  1  0
 58 64  1  0
 59 58  1  0
 60 59  2  0
 61 62  1  0
 61 55  2  0
 62 57  2  0
 63 56  1  0
 64 54  1  0
 66 68  2  0
 67 66  1  0
 69 67  1  0
 70 79  2  0
 70 75  1  0
 71 67  1  0
 71 75  1  0
 72 71  1  0
 73 74  1  0
 73 72  1  0
 74 70  1  0
 75 76  2  0
 76 77  1  0
 78 77  2  0
 79 78  1  0
 80 54  1  0
 80 90  1  0
 80 81  1  0
 81 84  1  0
 82 81  1  0
 82 86  1  0
 83 82  2  0
 86 85  1  0
 86 88  1  0
 88 89  1  0
 88 87  1  0
 90 91  1  1
 90 93  1  0
 92 90  1  0
M  ISO  4  11 100  12 100  52 101  53 101
M  END
>  <TORSDO>  (86) 
F 22

>  <SCORE>  (86) 
-8.797

>  <name>  (86) 
85

>  <ligand_id>  (86) 
85

>  <original_smiles>  (86) 
[H]c1c([H])c([H])c2c(c1[H])C([H])([H])C([H])([H])C([H])([H])C2([H])N([H])C(=O)C1([H])N(C(=O)C([H])(N([H])C(=O)C([H])(N([H])C([H])([H])[H])C([H])([H])[H])C(C([H])([H])[H])(C([H])([H])[H])C([H])([H])[H])C([H])([H])c2c([H])c(OC([H])([H])C([H])([H])C([H])([H])C([H])([H])C([H])([H])C3([H])C([H])([H])C([H])(C([H])([H])[H])C4([H])C([H])([H])C([H])([H])C([H])(C([H])([H])C(=O)N5C([H])([H])C([H])([H])C([H])([H])C([H])(n6nc(-c7c([H])c([H])c(Oc8c([H])c([H])c(F)c([H])c8F)c([H])c7[H])c(C(=O)N([H])[H])c6N([H])[H])C5([H])[H])[N+]34[H])c([H])c([H])c2C1([H])[H]

>  <smiles>  (86) 
[H]c1c([H])c([H])c2c(c1[H])C([H])([H])C([H])([H])C([H])([H])C2([H])N([H])C(=O)C1([H])N(C(=O)C([H])(N([H])C(=O)C([H])(N([H])C([H])([H])[H])C([H])([H])[H])C(C([H])([H])[H])(C([H])([H])[H])C([H])([H])[H])C([H])([H])c2c([H])c(OC([H])([H])C([H])([H])C([H])([H])C([H])([H])C([H])([H])C3([H])C([H])([H])C([H])(C([H])([H])[H])C4([H])C([H])([H])C([H])([H])C([H])(C([H])([H])C(=O)N5C([H])([H])C([H])([H])C([H])([H])C([H])(n6nc(-c7c([H])c([H])c(Oc8c([H])c([H])c(F)c([H])c8F)c([H])c7[H])c(C(=O)N([H])[H])c6N([H])[H])C5([H])[H])[N+]34[H])c([H])c([H])c2C1([H])[H]

$$$$
86:0:0
     RDKit          3D

 89 97  0  0  1  0  0  0  0  0999 V2000
  -29.2940  -19.8370   20.1070 C   0  0  0  0  0  2  0  0  0  0  0  0
  -31.2330  -17.1800   18.0590 C   0  0  0  0  0  2  0  0  0  0  0  0
  -29.8100  -16.8060   18.5560 C   0  0  0  0  0  2  0  0  0  0  0  0
  -31.8000  -18.4540   18.7320 C   0  0  0  0  0  2  0  0  0  0  0  0
  -29.7530  -16.6850   20.1000 C   0  0  0  0  0  3  0  0  0  0  0  0
  -30.1240  -18.3360   20.5730 C   0  0  0  0  0  3  0  0  0  0  0  0
  -31.5520  -18.4960   20.2020 N   0  0  0  0  0  4  0  0  0  0  0  0
  -31.9210  -19.3460   20.6020 H   0  0  0  0  0  0  0  0  0  0  0  0
  -32.0690  -17.7330   20.6140 H   0  0  0  0  0  0  0  0  0  0  0  0
  -30.5450  -15.1850   20.4000 C   0  0  0  0  0  0  0  0  0  0  0  0
  -30.4940  -12.7720   19.5410 C   0  0  0  0  0  2  0  0  0  0  0  0
  -29.6010  -12.6460   18.2820 C   0  0  0  0  0  2  0  0  0  0  0  0
  -28.1290  -12.4180   18.6740 C   0  0  0  0  0  2  0  0  0  0  0  0
  -27.6630  -13.3690   19.8030 C   0  0  0  0  0  3  0  0  0  0  0  0
  -28.6870  -13.4660   20.9520 C   0  0  0  0  0  2  0  0  0  0  0  0
  -29.9670  -13.8990   20.3760 N   0  0  0  0  0  0  0  0  0  0  0  0
  -31.7810  -15.1730   20.3400 O   0  0  0  0  0  0  0  0  0  0  0  0
  -25.2650  -13.9220   20.4890 C   0  0  0  0  0  0  0  0  0  0  0  0
  -24.1980  -13.1370   20.8370 C   0  0  0  0  0  0  0  0  0  0  0  0
  -24.6800  -11.7900   20.8340 C   0  0  0  0  0  0  0  0  0  0  0  0
  -26.3210  -13.0520   20.2810 N   0  0  0  0  0  0  0  0  0  0  0  0
  -25.9810  -11.7680   20.5610 N   0  0  0  0  0  0  0  0  0  0  0  0
  -23.9600  -10.5240   21.0190 C   0  0  0  0  0  0  0  0  0  0  0  0
  -24.3700   -9.5700   21.9770 C   0  0  0  0  0  3  0  0  0  0  0  0
  -23.6440   -8.3700   22.1470 C   0  0  0  0  0  3  0  0  0  0  0  0
  -22.4980   -8.1150   21.3580 C   0  0  0  0  0  0  0  0  0  0  0  0
  -22.1090   -9.0570   20.3890 C   0  0  0  0  0  3  0  0  0  0  0  0
  -22.8340  -10.2460   20.2190 C   0  0  0  0  0  3  0  0  0  0  0  0
  -21.7510   -6.9630   21.4360 O   0  0  0  0  0  0  0  0  0  0  0  0
  -21.6650   -6.2340   22.5950 C   0  0  0  0  0  0  0  0  0  0  0  0
  -21.1750   -6.7970   23.7930 C   0  0  0  0  0  3  0  0  0  0  0  0
  -21.0370   -5.9950   24.9440 C   0  0  0  0  0  3  0  0  0  0  0  0
  -21.3830   -4.6320   24.8980 C   0  0  0  0  0  0  0  0  0  0  0  0
  -21.8660   -4.0690   23.7040 C   0  0  0  0  0  3  0  0  0  0  0  0
  -22.0050   -4.8670   22.5540 C   0  0  0  0  0  0  0  0  0  0  0  0
  -22.4520   -4.3130   21.4000 F   0  0  0  0  0  0  0  0  0  0  0  0
  -21.2440   -3.8590   25.9990 F   0  0  0  0  0  0  0  0  0  0  0  0
  -22.7910  -13.6020   21.0580 C   0  0  0  0  0  0  0  0  0  0  0  0
  -22.0390  -12.9030   21.9050 N   0  0  0  0  0  0  0  0  0  0  0  0
  -22.3590  -14.6190   20.5170 O   0  0  0  0  0  0  0  0  0  0  0  0
  -22.4010  -12.0800   22.3620 H   0  0  0  0  0  0  0  0  0  0  0  0
  -21.0940  -13.2020   22.0980 H   0  0  0  0  0  0  0  0  0  0  0  0
  -25.4160  -15.2930   20.3060 N   0  0  0  0  0  0  0  0  0  0  0  0
  -24.6380  -15.9360   20.4030 H   0  0  0  0  0  0  0  0  0  0  0  0
  -26.2670  -15.7460   19.9970 H   0  0  0  0  0  0  0  0  0  0  0  0
  -29.2200  -21.4600   20.7830 C   0  0  0  0  0  2  0  0  0  0  0  0
  -28.8170  -23.0120   20.0460 C   0  0  0  0  0  2  0  0  0  0  0  0
  -28.2730  -24.5430   20.7380 C   0  0  0  0  0  2  0  0  0  0  0  0
  -28.3060  -26.0950   20.2880 O   0  0  0  0  0  0  0  0  0  0  0  0
  -24.6040  -31.9180   23.2620 C   0  0  0  0  0  0  0  0  0  0  0  0
  -27.2190  -27.0920   20.3140 C   0  0  0  0  0  0  0  0  0  0  0  0
  -23.4160  -30.5040   21.6260 C   0  0  0  0  0  3  0  0  0  0  0  0
  -24.8790  -28.8930   20.2340 C   0  0  0  0  0  0  0  0  0  0  0  0
  -25.9730  -30.7500   21.4770 C   0  0  0  0  0  2  0  0  0  0  0  0
  -26.0590  -29.3360   20.8490 C   0  0  0  0  0  0  0  0  0  0  0  0
  -27.2240  -28.4580   20.8630 C   0  0  0  0  0  3  0  0  0  0  0  0
  -26.0020  -26.7660   19.6730 C   0  0  0  0  0  3  0  0  0  0  0  0
  -24.8700  -27.6230   19.6330 C   0  0  0  0  0  3  0  0  0  0  0  0
  -23.6490  -29.8020   20.2590 C   0  0  0  0  0  2  0  0  0  0  0  0
  -24.6840  -31.0830   22.1760 N   0  0  0  0  0  0  0  0  0  0  0  0
  -23.5130  -32.2080   23.7760 O   0  0  0  0  0  0  0  0  0  0  0  0
  -22.7280  -29.5130   22.5980 C   0  0  0  0  0  0  0  0  0  0  0  0
  -21.4020  -29.3390   22.4630 N   0  0  0  0  0  0  0  0  0  0  0  0
  -23.3930  -28.9010   23.4370 O   0  0  0  0  0  0  0  0  0  0  0  0
  -20.9180  -29.8870   21.7640 H   0  0  0  0  0  0  0  0  0  0  0  0
  -18.0240  -28.1230   22.9710 C   0  0  0  0  0  0  0  0  0  0  0  0
  -20.5800  -28.4050   23.2380 C   0  0  0  0  0  3  0  0  0  0  0  0
  -20.6910  -26.9680   22.6780 C   0  0  0  0  0  2  0  0  0  0  0  0
  -19.5970  -26.6310   21.6610 C   0  0  0  0  0  2  0  0  0  0  0  0
  -18.2120  -26.7710   22.2990 C   0  0  0  0  0  2  0  0  0  0  0  0
  -19.1370  -28.8940   23.3960 C   0  0  0  0  0  0  0  0  0  0  0  0
  -18.9110  -30.1570   23.9890 C   0  0  0  0  0  3  0  0  0  0  0  0
  -17.6040  -30.6490   24.1560 C   0  0  0  0  0  3  0  0  0  0  0  0
  -16.5040  -29.8770   23.7400 C   0  0  0  0  0  3  0  0  0  0  0  0
  -16.7160  -28.6150   23.1570 C   0  0  0  0  0  3  0  0  0  0  0  0
  -25.8760  -32.5630   23.8920 C   0  0  0  0  0  3  0  0  0  0  0  0
  -26.3660  -31.8240   25.1990 C   0  0  1  0  0  0  0  0  0  0  0  0
  -25.2510  -31.6190   26.2520 C   0  0  0  0  0  1  0  0  0  0  0  0
  -26.9530  -30.4330   24.8620 C   0  0  0  0  0  1  0  0  0  0  0  0
  -27.5060  -32.6320   25.8630 C   0  0  0  0  0  1  0  0  0  0  0  0
  -25.5580  -33.9700   24.1930 N   0  0  0  0  0  0  0  0  0  0  0  0
  -25.9090  -35.0160   23.4330 C   0  0  0  0  0  0  0  0  0  0  0  0
  -26.5970  -34.9020   22.4170 O   0  0  0  0  0  0  0  0  0  0  0  0
  -24.9440  -34.1320   24.9780 H   0  0  0  0  0  0  0  0  0  0  0  0
  -24.2020  -36.8290   23.0310 C   0  0  0  0  0  1  0  0  0  0  0  0
  -25.4200  -36.4130   23.8700 C   0  0  0  0  0  3  0  0  0  0  0  0
  -27.5380  -37.2960   24.7490 C   0  0  0  0  0  1  0  0  0  0  0  0
  -26.4620  -37.4600   23.7760 N   0  0  0  0  0  0  0  0  0  0  0  0
  -26.0550  -38.3830   23.9050 H   0  0  0  0  0  0  0  0  0  0  0  0
  1 46  1  0
  2  3  1  0
  2  4  1  0
  3  5  1  0
  4  7  1  0
  5 10  1  0
  5  6  1  0
  6  1  1  0
  7  6  1  0
  7  8  1  0
  7  9  1  0
 11 16  1  0
 12 13  1  0
 12 11  1  0
 14 13  1  0
 14 21  1  0
 14 15  1  0
 16 10  1  0
 16 15  1  0
 17 10  2  0
 18 19  2  0
 19 38  1  0
 20 19  1  0
 20 23  1  0
 21 18  1  0
 21 22  1  0
 22 20  2  0
 23 24  1  0
 24 25  2  0
 26 29  1  0
 26 25  1  0
 27 26  2  0
 28 27  1  0
 28 23  2  0
 29 30  1  0
 30 31  1  0
 31 32  2  0
 33 32  1  0
 33 37  1  0
 34 33  2  0
 35 30  2  0
 35 34  1  0
 36 35  1  0
 38 39  1  0
 39 42  1  0
 39 41  1  0
 40 38  2  0
 43 44  1  0
 43 18  1  0
 45 43  1  0
 47 48  1  0
 47 46  1  0
 49 51  1  0
 49 48  1  0
 50 61  2  0
 51 56  1  0
 52 60  1  0
 52 62  1  0
 53 59  1  0
 53 55  1  0
 54 60  1  0
 55 56  2  0
 55 54  1  0
 57 51  2  0
 58 57  1  0
 58 53  2  0
 59 52  1  0
 60 50  1  0
 62 64  2  0
 63 62  1  0
 65 63  1  0
 66 75  2  0
 66 71  1  0
 67 63  1  0
 67 71  1  0
 68 67  1  0
 69 70  1  0
 69 68  1  0
 70 66  1  0
 71 72  2  0
 72 73  1  0
 74 73  2  0
 75 74  1  0
 76 50  1  0
 76 81  1  0
 76 77  1  0
 77 80  1  1
 77 78  1  0
 79 77  1  0
 81 84  1  0
 82 86  1  0
 82 81  1  0
 83 82  2  0
 86 85  1  0
 88 86  1  0
 88 89  1  0
 88 87  1  0
M  ISO  4   5 100  10 100  48 101  49 101
M  END
>  <TORSDO>  (87) 
F 20

>  <SCORE>  (87) 
-15.828

>  <name>  (87) 
86

>  <ligand_id>  (87) 
86

>  <original_smiles>  (87) 
[H]c1c([H])c([H])c2c(c1[H])C([H])([H])C([H])([H])C([H])([H])C2([H])N([H])C(=O)C1([H])N(C(=O)C([H])(N([H])C(=O)C([H])(N([H])C([H])([H])[H])C([H])([H])[H])C(C([H])([H])[H])(C([H])([H])[H])C([H])([H])[H])C([H])([H])c2c([H])c(OC([H])([H])C([H])([H])C([H])([H])C([H])([H])C3([H])C([H])(C(=O)N4C([H])([H])C([H])([H])C([H])([H])C([H])(n5nc(-c6c([H])c([H])c(Oc7c([H])c([H])c(F)c([H])c7F)c([H])c6[H])c(C(=O)N([H])[H])c5N([H])[H])C4([H])[H])C([H])([H])C([H])([H])C([H])([H])[N+]3([H])[H])c([H])c([H])c2C1([H])[H]

>  <smiles>  (87) 
[H]c1c([H])c([H])c2c(c1[H])C([H])([H])C([H])([H])C([H])([H])C2([H])N([H])C(=O)C1([H])N(C(=O)C([H])(N([H])C(=O)C([H])(N([H])C([H])([H])[H])C([H])([H])[H])C(C([H])([H])[H])(C([H])([H])[H])C([H])([H])[H])C([H])([H])c2c([H])c(OC([H])([H])C([H])([H])C([H])([H])C([H])([H])C3([H])C([H])(C(=O)N4C([H])([H])C([H])([H])C([H])([H])C([H])(n5nc(-c6c([H])c([H])c(Oc7c([H])c([H])c(F)c([H])c7F)c([H])c6[H])c(C(=O)N([H])[H])c5N([H])[H])C4([H])[H])C([H])([H])C([H])([H])C([H])([H])[N+]3([H])[H])c([H])c([H])c2C1([H])[H]

$$$$
87:0:0
     RDKit          3D

 91 99  0  0  1  0  0  0  0  0999 V2000
  -28.1710  -21.6600   21.3910 C   0  0  0  0  0  3  0  0  0  0  0  0
  -27.5560  -22.8560   21.1970 C   0  0  0  0  0  0  0  0  0  0  0  0
  -26.2210  -23.1080   21.8890 C   0  0  0  0  0  1  0  0  0  0  0  0
  -30.4980  -20.9610   22.0480 C   0  0  0  0  0  2  0  0  0  0  0  0
  -31.0610  -19.5320   21.9700 C   0  0  0  0  0  2  0  0  0  0  0  0
  -29.4260  -19.6830   20.2680 C   0  0  0  0  0  2  0  0  0  0  0  0
  -29.5080  -21.1180   20.8780 C   0  0  0  0  0  3  0  0  0  0  0  0
  -30.0870  -18.7240   21.2050 N   0  0  1  0  0  4  0  0  0  0  0  0
  -29.3830  -18.4370   21.8670 H   0  0  0  0  0  0  0  0  0  0  0  0
  -30.6740  -17.4790   20.5800 C   0  0  0  0  0  2  0  0  0  0  0  0
  -30.2560  -16.1150   21.2200 C   0  0  0  0  0  2  0  0  0  0  0  0
  -30.9170  -14.8940   20.5060 C   0  0  0  0  0  0  0  0  0  0  0  0
  -30.6820  -12.6970   19.3890 C   0  0  0  0  0  2  0  0  0  0  0  0
  -29.7680  -12.8470   18.1570 C   0  0  0  0  0  2  0  0  0  0  0  0
  -28.2850  -12.7040   18.5560 C   0  0  0  0  0  2  0  0  0  0  0  0
  -27.9130  -13.5780   19.7860 C   0  0  0  0  0  3  0  0  0  0  0  0
  -28.9340  -13.3710   20.9210 C   0  0  0  0  0  2  0  0  0  0  0  0
  -30.2640  -13.7000   20.3810 N   0  0  0  0  0  0  0  0  0  0  0  0
  -32.0260  -15.0630   19.9860 O   0  0  0  0  0  0  0  0  0  0  0  0
  -25.4970  -14.2010   20.4250 C   0  0  0  0  0  0  0  0  0  0  0  0
  -24.4180  -13.4440   20.7770 C   0  0  0  0  0  0  0  0  0  0  0  0
  -24.8730  -12.0880   20.7790 C   0  0  0  0  0  0  0  0  0  0  0  0
  -26.5450  -13.3150   20.2340 N   0  0  0  0  0  0  0  0  0  0  0  0
  -26.1680  -12.0360   20.4940 N   0  0  0  0  0  0  0  0  0  0  0  0
  -24.1350  -10.8340   20.9720 C   0  0  0  0  0  0  0  0  0  0  0  0
  -24.5250   -9.8900   21.9480 C   0  0  0  0  0  3  0  0  0  0  0  0
  -23.7870   -8.7000   22.1230 C   0  0  0  0  0  3  0  0  0  0  0  0
  -22.6450   -8.4450   21.3230 C   0  0  0  0  0  0  0  0  0  0  0  0
  -22.2790   -9.3780   20.3360 C   0  0  0  0  0  3  0  0  0  0  0  0
  -23.0190  -10.5580   20.1580 C   0  0  0  0  0  3  0  0  0  0  0  0
  -21.8840   -7.3060   21.4060 O   0  0  0  0  0  0  0  0  0  0  0  0
  -21.7670   -6.6030   22.5780 C   0  0  0  0  0  0  0  0  0  0  0  0
  -21.2410   -7.1900   23.7490 C   0  0  0  0  0  3  0  0  0  0  0  0
  -21.0740   -6.4120   24.9120 C   0  0  0  0  0  3  0  0  0  0  0  0
  -21.4220   -5.0490   24.9050 C   0  0  0  0  0  0  0  0  0  0  0  0
  -21.9420   -4.4610   23.7400 C   0  0  0  0  0  3  0  0  0  0  0  0
  -22.1120   -5.2360   22.5780 C   0  0  0  0  0  0  0  0  0  0  0  0
  -22.5920   -4.6600   21.4500 F   0  0  0  0  0  0  0  0  0  0  0  0
  -21.2560   -4.2990   26.0210 F   0  0  0  0  0  0  0  0  0  0  0  0
  -23.0190  -13.9360   21.0140 C   0  0  0  0  0  0  0  0  0  0  0  0
  -22.2760  -13.2600   21.8810 N   0  0  0  0  0  0  0  0  0  0  0  0
  -22.5950  -14.9570   20.4700 O   0  0  0  0  0  0  0  0  0  0  0  0
  -22.6360  -12.4350   22.3410 H   0  0  0  0  0  0  0  0  0  0  0  0
  -21.3380  -13.5690   22.0960 H   0  0  0  0  0  0  0  0  0  0  0  0
  -25.6780  -15.5690   20.2340 N   0  0  0  0  0  0  0  0  0  0  0  0
  -24.9150  -16.2330   20.3050 H   0  0  0  0  0  0  0  0  0  0  0  0
  -26.5410  -15.9800   19.8990 H   0  0  0  0  0  0  0  0  0  0  0  0
  -28.0360  -24.0340   20.3260 C   0  0  0  0  0  2  0  0  0  0  0  0
  -29.2120  -24.8720   20.9070 C   0  0  0  0  0  2  0  0  0  0  0  0
  -28.9800  -26.3990   21.1050 C   0  0  0  0  0  2  0  0  0  0  0  0
  -28.7270  -27.1360   19.8970 O   0  0  0  0  0  0  0  0  0  0  0  0
  -24.5940  -31.9180   23.1940 C   0  0  0  0  0  0  0  0  0  0  0  0
  -27.5510  -27.8450   19.9130 C   0  0  0  0  0  0  0  0  0  0  0  0
  -23.4970  -30.5190   21.4700 C   0  0  0  0  0  3  0  0  0  0  0  0
  -25.0630  -29.1780   19.9720 C   0  0  0  0  0  0  0  0  0  0  0  0
  -25.9890  -31.0780   21.3070 C   0  0  0  0  0  2  0  0  0  0  0  0
  -26.1780  -29.7540   20.5940 C   0  0  0  0  0  0  0  0  0  0  0  0
  -27.4280  -29.0930   20.5680 C   0  0  0  0  0  3  0  0  0  0  0  0
  -26.4280  -27.2850   19.2780 C   0  0  0  0  0  3  0  0  0  0  0  0
  -25.1820  -27.9400   19.3150 C   0  0  0  0  0  3  0  0  0  0  0  0
  -23.7590  -29.9370   20.0570 C   0  0  0  0  0  2  0  0  0  0  0  0
  -24.7070  -31.1860   22.0470 N   0  0  0  0  0  0  0  0  0  0  0  0
  -23.4950  -32.0760   23.7470 O   0  0  0  0  0  0  0  0  0  0  0  0
  -22.9290  -29.4010   22.3720 C   0  0  0  0  0  0  0  0  0  0  0  0
  -21.6160  -29.1390   22.2480 N   0  0  0  0  0  0  0  0  0  0  0  0
  -23.6650  -28.7800   23.1440 O   0  0  0  0  0  0  0  0  0  0  0  0
  -21.0800  -29.7060   21.6060 H   0  0  0  0  0  0  0  0  0  0  0  0
  -18.3340  -27.7050   22.7170 C   0  0  0  0  0  0  0  0  0  0  0  0
  -20.8760  -28.1010   22.9680 C   0  0  0  0  0  3  0  0  0  0  0  0
  -21.0550  -26.7200   22.3000 C   0  0  0  0  0  2  0  0  0  0  0  0
  -19.9610  -26.4010   21.2790 C   0  0  0  0  0  2  0  0  0  0  0  0
  -18.5810  -26.4220   21.9430 C   0  0  0  0  0  2  0  0  0  0  0  0
  -19.4130  -28.5020   23.1820 C   0  0  0  0  0  0  0  0  0  0  0  0
  -19.1320  -29.7090   23.8560 C   0  0  0  0  0  3  0  0  0  0  0  0
  -17.8050  -30.1270   24.0630 C   0  0  0  0  0  3  0  0  0  0  0  0
  -16.7420  -29.3240   23.6170 C   0  0  0  0  0  3  0  0  0  0  0  0
  -17.0070  -28.1120   22.9550 C   0  0  0  0  0  3  0  0  0  0  0  0
  -25.8310  -32.6080   23.8490 C   0  0  0  0  0  3  0  0  0  0  0  0
  -25.4490  -33.9930   24.1620 N   0  0  0  0  0  0  0  0  0  0  0  0
  -25.7610  -35.0530   23.4060 C   0  0  0  0  0  0  0  0  0  0  0  0
  -26.4680  -34.9780   22.3980 O   0  0  0  0  0  0  0  0  0  0  0  0
  -24.8140  -34.1200   24.9360 H   0  0  0  0  0  0  0  0  0  0  0  0
  -23.9620  -36.7610   22.9960 C   0  0  0  0  0  1  0  0  0  0  0  0
  -25.2010  -36.4220   23.8380 C   0  0  0  0  0  3  0  0  0  0  0  0
  -27.2690  -37.4150   24.7170 C   0  0  0  0  0  1  0  0  0  0  0  0
  -26.1880  -37.5180   23.7390 N   0  0  0  0  0  0  0  0  0  0  0  0
  -25.7370  -38.4210   23.8580 H   0  0  0  0  0  0  0  0  0  0  0  0
  -26.3480  -31.8630   25.1400 C   0  0  1  0  0  0  0  0  0  0  0  0
  -25.2400  -31.5710   26.1790 C   0  0  0  0  0  1  0  0  0  0  0  0
  -27.0050  -30.5130   24.7640 C   0  0  0  0  0  1  0  0  0  0  0  0
  -27.4420  -32.7120   25.8280 C   0  0  0  0  0  1  0  0  0  0  0  0
  2  1  2  0
  2  3  1  0
  5  4  1  0
  6  7  1  0
  6  8  1  0
  7  1  1  0
  7  4  1  0
  8  9  1  1
  8  5  1  0
 10  8  1  0
 10 11  1  0
 12 11  1  0
 13 18  1  0
 14 15  1  0
 14 13  1  0
 16 15  1  0
 16 23  1  0
 16 17  1  0
 18 12  1  0
 18 17  1  0
 19 12  2  0
 20 21  2  0
 21 22  1  0
 21 40  1  0
 22 25  1  0
 23 20  1  0
 23 24  1  0
 24 22  2  0
 25 26  1  0
 26 27  2  0
 28 31  1  0
 28 27  1  0
 29 28  2  0
 30 29  1  0
 30 25  2  0
 31 32  1  0
 32 37  2  0
 32 33  1  0
 33 34  2  0
 35 34  1  0
 35 39  1  0
 36 35  2  0
 37 36  1  0
 38 37  1  0
 40 41  1  0
 41 44  1  0
 41 43  1  0
 42 40  2  0
 45 46  1  0
 45 20  1  0
 47 45  1  0
 48 49  1  0
 48  2  1  0
 49 50  1  0
 51 53  1  0
 51 50  1  0
 52 63  2  0
 53 58  1  0
 54 62  1  0
 54 64  1  0
 55 61  1  0
 55 57  1  0
 56 62  1  0
 57 56  1  0
 58 57  2  0
 59 60  1  0
 59 53  2  0
 60 55  2  0
 61 54  1  0
 62 52  1  0
 64 66  2  0
 65 64  1  0
 67 65  1  0
 68 77  2  0
 68 73  1  0
 69 65  1  0
 69 73  1  0
 70 69  1  0
 71 72  1  0
 71 70  1  0
 72 68  1  0
 73 74  2  0
 74 75  1  0
 76 75  2  0
 77 76  1  0
 78 52  1  0
 78 79  1  0
 78 88  1  0
 79 82  1  0
 80 84  1  0
 80 79  1  0
 81 80  2  0
 84 83  1  0
 86 84  1  0
 86 87  1  0
 86 85  1  0
 88 91  1  1
 88 89  1  0
 90 88  1  0
M  ISO  4  11 100  12 100  50 101  51 101
M  END
>  <TORSDO>  (88) 
F 22

>  <SCORE>  (88) 
-12.627

>  <name>  (88) 
87

>  <ligand_id>  (88) 
87

>  <original_smiles>  (88) 
[H]C(=C(C([H])([H])[H])C([H])([H])C([H])([H])C([H])([H])Oc1c([H])c([H])c2c(c1[H])C([H])([H])N(C(=O)C([H])(N([H])C(=O)C([H])(N([H])C([H])([H])[H])C([H])([H])[H])C(C([H])([H])[H])(C([H])([H])[H])C([H])([H])[H])C([H])(C(=O)N([H])C1([H])c3c([H])c([H])c([H])c([H])c3C([H])([H])C([H])([H])C1([H])[H])C2([H])[H])C1([H])C([H])([H])C([H])([H])[N+]([H])(C([H])([H])C([H])([H])C(=O)N2C([H])([H])C([H])([H])C([H])([H])C([H])(n3nc(-c4c([H])c([H])c(Oc5c([H])c([H])c(F)c([H])c5F)c([H])c4[H])c(C(=O)N([H])[H])c3N([H])[H])C2([H])[H])C1([H])[H]

>  <smiles>  (88) 
[H]C(=C(C([H])([H])[H])C([H])([H])C([H])([H])C([H])([H])Oc1c([H])c([H])c2c(c1[H])C([H])([H])N(C(=O)C([H])(N([H])C(=O)C([H])(N([H])C([H])([H])[H])C([H])([H])[H])C(C([H])([H])[H])(C([H])([H])[H])C([H])([H])[H])C([H])(C(=O)N([H])C1([H])c3c([H])c([H])c([H])c([H])c3C([H])([H])C([H])([H])C1([H])[H])C2([H])[H])C1([H])C([H])([H])C([H])([H])[N+]([H])(C([H])([H])C([H])([H])C(=O)N2C([H])([H])C([H])([H])C([H])([H])C([H])(n3nc(-c4c([H])c([H])c(Oc5c([H])c([H])c(F)c([H])c5F)c([H])c4[H])c(C(=O)N([H])[H])c3N([H])[H])C2([H])[H])C1([H])[H]

$$$$
88:0:0
     RDKit          3D

 93102  0  0  1  0  0  0  0  0999 V2000
  -29.8200  -21.8150   19.0670 N   0  0  1  0  0  4  0  0  0  0  0  0
  -30.5960  -22.0580   19.6660 H   0  0  0  0  0  0  0  0  0  0  0  0
  -30.9680  -16.3720   21.8060 C   0  0  0  0  0  2  0  0  0  0  0  0
  -29.0350  -20.3070   20.9870 C   0  0  0  0  0  2  0  0  0  0  0  0
  -31.3860  -17.7320   21.2220 C   0  0  0  0  0  2  0  0  0  0  0  0
  -29.0890  -18.8110   21.3040 C   0  0  0  0  0  2  0  0  0  0  0  0
  -29.7320  -16.8630   19.7530 C   0  0  0  0  0  2  0  0  0  0  0  0
  -30.5280  -19.3400   19.3910 C   0  0  0  0  0  2  0  0  0  0  0  0
  -30.0220  -15.7170   20.7720 C   0  0  0  0  0  3  0  0  0  0  0  0
  -29.4230  -20.4250   19.5060 C   0  0  0  0  0  3  0  0  0  0  0  0
  -30.1820  -18.2010   20.3960 C   0  0  2  0  0  0  0  0  0  0  0  0
  -30.6580  -14.4610   20.1020 C   0  0  0  0  0  0  0  0  0  0  0  0
  -30.2870  -12.3320   18.9120 C   0  0  0  0  0  2  0  0  0  0  0  0
  -29.2830  -12.5870   17.7680 C   0  0  0  0  0  2  0  0  0  0  0  0
  -27.8310  -12.4550   18.2710 C   0  0  0  0  0  2  0  0  0  0  0  0
  -27.5760  -13.2480   19.5820 C   0  0  0  0  0  3  0  0  0  0  0  0
  -28.6870  -12.9610   20.6150 C   0  0  0  0  0  2  0  0  0  0  0  0
  -29.9780  -13.2860   19.9910 N   0  0  0  0  0  0  0  0  0  0  0  0
  -31.7610  -14.6150   19.5660 O   0  0  0  0  0  0  0  0  0  0  0  0
  -25.2130  -13.8530   20.4020 C   0  0  0  0  0  0  0  0  0  0  0  0
  -24.1620  -13.0770   20.8170 C   0  0  0  0  0  0  0  0  0  0  0  0
  -24.6190  -11.7270   20.7560 C   0  0  0  0  0  0  0  0  0  0  0  0
  -26.2450  -12.9710   20.1220 N   0  0  0  0  0  0  0  0  0  0  0  0
  -25.8940  -11.6870   20.3890 N   0  0  0  0  0  0  0  0  0  0  0  0
  -23.9000  -10.4640   20.9740 C   0  0  0  0  0  0  0  0  0  0  0  0
  -24.3630   -9.5010   21.8970 C   0  0  0  0  0  3  0  0  0  0  0  0
  -23.6460   -8.3020   22.1020 C   0  0  0  0  0  3  0  0  0  0  0  0
  -22.4510   -8.0590   21.3830 C   0  0  0  0  0  0  0  0  0  0  0  0
  -22.0050   -9.0120   20.4510 C   0  0  0  0  0  3  0  0  0  0  0  0
  -22.7230  -10.2020   20.2440 C   0  0  0  0  0  3  0  0  0  0  0  0
  -21.7010   -6.9140   21.5000 O   0  0  0  0  0  0  0  0  0  0  0  0
  -21.6780   -6.1820   22.6600 C   0  0  0  0  0  0  0  0  0  0  0  0
  -21.2700   -6.7450   23.8900 C   0  0  0  0  0  3  0  0  0  0  0  0
  -21.1970   -5.9400   25.0430 C   0  0  0  0  0  3  0  0  0  0  0  0
  -21.5190   -4.5720   24.9690 C   0  0  0  0  0  0  0  0  0  0  0  0
  -21.9210   -4.0070   23.7440 C   0  0  0  0  0  3  0  0  0  0  0  0
  -21.9960   -4.8110   22.5930 C   0  0  0  0  0  0  0  0  0  0  0  0
  -22.3620   -4.2570   21.4120 F   0  0  0  0  0  0  0  0  0  0  0  0
  -21.4410   -3.7950   26.0750 F   0  0  0  0  0  0  0  0  0  0  0  0
  -22.7790  -13.5560   21.1580 C   0  0  0  0  0  0  0  0  0  0  0  0
  -22.0920  -12.8540   22.0540 N   0  0  0  0  0  0  0  0  0  0  0  0
  -22.3160  -14.5830   20.6640 O   0  0  0  0  0  0  0  0  0  0  0  0
  -22.4790  -12.0220   22.4740 H   0  0  0  0  0  0  0  0  0  0  0  0
  -21.1660  -13.1550   22.3240 H   0  0  0  0  0  0  0  0  0  0  0  0
  -25.3700  -15.2230   20.2240 N   0  0  0  0  0  0  0  0  0  0  0  0
  -24.6090  -15.8790   20.3670 H   0  0  0  0  0  0  0  0  0  0  0  0
  -26.2120  -15.6630   19.8740 H   0  0  0  0  0  0  0  0  0  0  0  0
  -29.4110  -21.4610   16.5570 C   0  0  0  0  0  1  0  0  0  0  0  0
  -30.3860  -21.8630   17.6840 C   0  0  0  0  0  2  0  0  0  0  0  0
  -28.7780  -22.8690   19.3330 C   0  0  0  0  0  2  0  0  0  0  0  0
  -29.2690  -24.3540   19.3650 C   0  0  0  0  0  2  0  0  0  0  0  0
  -28.3390  -25.2390   20.2520 C   0  0  0  0  0  2  0  0  0  0  0  0
  -28.4530  -26.6750   20.0920 O   0  0  0  0  0  0  0  0  0  0  0  0
  -24.6160  -31.8740   23.2410 C   0  0  0  0  0  0  0  0  0  0  0  0
  -27.2790  -27.4180   20.1300 C   0  0  0  0  0  0  0  0  0  0  0  0
  -23.4220  -30.4770   21.5910 C   0  0  0  0  0  3  0  0  0  0  0  0
  -24.8820  -28.9470   20.1640 C   0  0  0  0  0  0  0  0  0  0  0  0
  -25.9540  -30.8200   21.4180 C   0  0  0  0  0  2  0  0  0  0  0  0
  -26.0420  -29.4520   20.7660 C   0  0  0  0  0  0  0  0  0  0  0  0
  -27.2410  -28.6950   20.7490 C   0  0  0  0  0  3  0  0  0  0  0  0
  -26.0970  -26.9450   19.5130 C   0  0  0  0  0  3  0  0  0  0  0  0
  -24.9070  -27.6910   19.5370 C   0  0  0  0  0  3  0  0  0  0  0  0
  -23.6380  -29.8070   20.2100 C   0  0  0  0  0  2  0  0  0  0  0  0
  -24.6820  -31.0710   22.1410 N   0  0  0  0  0  0  0  0  0  0  0  0
  -23.5310  -32.1470   23.7710 O   0  0  0  0  0  0  0  0  0  0  0  0
  -22.7650  -29.4500   22.5420 C   0  0  0  0  0  0  0  0  0  0  0  0
  -21.4420  -29.2650   22.4020 N   0  0  0  0  0  0  0  0  0  0  0  0
  -23.4430  -28.8260   23.3640 O   0  0  0  0  0  0  0  0  0  0  0  0
  -20.9570  -29.8170   21.7080 H   0  0  0  0  0  0  0  0  0  0  0  0
  -18.0660  -28.0590   22.8670 C   0  0  0  0  0  0  0  0  0  0  0  0
  -20.6200  -28.3240   23.1630 C   0  0  0  0  0  3  0  0  0  0  0  0
  -20.7330  -26.8940   22.5870 C   0  0  0  0  0  2  0  0  0  0  0  0
  -19.6420  -26.5670   21.5630 C   0  0  0  0  0  2  0  0  0  0  0  0
  -18.2520  -26.7110   22.1910 C   0  0  0  0  0  2  0  0  0  0  0  0
  -19.1780  -28.8240   23.3070 C   0  0  0  0  0  0  0  0  0  0  0  0
  -18.9510  -30.0870   23.8950 C   0  0  0  0  0  3  0  0  0  0  0  0
  -17.6440  -30.5850   24.0500 C   0  0  0  0  0  3  0  0  0  0  0  0
  -16.5460  -29.8160   23.6270 C   0  0  0  0  0  3  0  0  0  0  0  0
  -16.7570  -28.5550   23.0430 C   0  0  0  0  0  3  0  0  0  0  0  0
  -25.8980  -32.5050   23.8680 C   0  0  0  0  0  3  0  0  0  0  0  0
  -25.5870  -33.9020   24.1980 N   0  0  0  0  0  0  0  0  0  0  0  0
  -25.9160  -34.9550   23.4370 C   0  0  0  0  0  0  0  0  0  0  0  0
  -26.5880  -34.8530   22.4060 O   0  0  0  0  0  0  0  0  0  0  0  0
  -24.9940  -34.0530   25.0000 H   0  0  0  0  0  0  0  0  0  0  0  0
  -24.1810  -36.7400   23.0740 C   0  0  0  0  0  1  0  0  0  0  0  0
  -25.4210  -36.3410   23.8900 C   0  0  0  0  0  3  0  0  0  0  0  0
  -27.5490  -37.2300   24.7300 C   0  0  0  0  0  1  0  0  0  0  0  0
  -26.4510  -37.3980   23.7830 N   0  0  0  0  0  0  0  0  0  0  0  0
  -26.0420  -38.3160   23.9350 H   0  0  0  0  0  0  0  0  0  0  0  0
  -26.4110  -31.7340   25.1460 C   0  0  1  0  0  0  0  0  0  0  0  0
  -25.3130  -31.4840   26.2060 C   0  0  0  0  0  1  0  0  0  0  0  0
  -27.0060  -30.3600   24.7560 C   0  0  0  0  0  1  0  0  0  0  0  0
  -27.5550  -32.5310   25.8150 C   0  0  0  0  0  1  0  0  0  0  0  0
  1 50  1  0
  1  2  1  1
  4  6  1  0
  5  3  1  0
 11  7  1  6
  7  9  1  0
  8 10  1  0
  9 12  1  0
  9  3  1  0
 10  1  1  0
 10  4  1  0
 11  8  1  0
 11  5  1  0
 11  6  1  0
 13 18  1  0
 14 15  1  0
 14 13  1  0
 16 15  1  0
 16 23  1  0
 16 17  1  0
 18 12  1  0
 18 17  1  0
 19 12  2  0
 20 21  2  0
 21 40  1  0
 22 21  1  0
 22 25  1  0
 23 24  1  0
 23 20  1  0
 24 22  2  0
 25 26  1  0
 26 27  2  0
 28 31  1  0
 28 27  1  0
 29 28  2  0
 30 29  1  0
 30 25  2  0
 31 32  1  0
 32 33  1  0
 33 34  2  0
 35 34  1  0
 35 39  1  0
 36 35  2  0
 37 32  2  0
 37 36  1  0
 38 37  1  0
 40 41  1  0
 41 44  1  0
 41 43  1  0
 42 40  2  0
 45 46  1  0
 45 20  1  0
 47 45  1  0
 48 49  1  0
 49  1  1  0
 50 51  1  0
 51 52  1  0
 53 55  1  0
 53 52  1  0
 54 65  2  0
 55 60  1  0
 56 64  1  0
 56 66  1  0
 57 63  1  0
 57 59  1  0
 58 64  1  0
 59 58  1  0
 60 59  2  0
 61 62  1  0
 61 55  2  0
 62 57  2  0
 63 56  1  0
 64 54  1  0
 66 68  2  0
 67 66  1  0
 69 67  1  0
 70 79  2  0
 70 75  1  0
 71 67  1  0
 71 75  1  0
 72 71  1  0
 73 74  1  0
 73 72  1  0
 74 70  1  0
 75 76  2  0
 76 77  1  0
 78 77  2  0
 79 78  1  0
 80 54  1  0
 80 81  1  0
 80 90  1  0
 81 84  1  0
 82 86  1  0
 82 81  1  0
 83 82  2  0
 86 85  1  0
 88 86  1  0
 88 89  1  0
 88 87  1  0
 90 93  1  1
 90 91  1  0
 92 90  1  0
M  ISO  4   9 100  12 100  52 101  53 101
M  END
>  <TORSDO>  (89) 
F 21

>  <SCORE>  (89) 
-13.095

>  <name>  (89) 
88

>  <ligand_id>  (89) 
88

>  <original_smiles>  (89) 
[H]c1c([H])c([H])c2c(c1[H])C([H])([H])C([H])([H])C([H])([H])C2([H])N([H])C(=O)C1([H])N(C(=O)C([H])(N([H])C(=O)C([H])(N([H])C([H])([H])[H])C([H])([H])[H])C(C([H])([H])[H])(C([H])([H])[H])C([H])([H])[H])C([H])([H])c2c([H])c(OC([H])([H])C([H])([H])C([H])([H])[N+]([H])(C([H])([H])C([H])([H])[H])C3([H])C([H])([H])C([H])([H])C4(C([H])([H])C([H])([H])C([H])(C(=O)N5C([H])([H])C([H])([H])C([H])([H])C([H])(n6nc(-c7c([H])c([H])c(Oc8c([H])c([H])c(F)c([H])c8F)c([H])c7[H])c(C(=O)N([H])[H])c6N([H])[H])C5([H])[H])C4([H])[H])C3([H])[H])c([H])c([H])c2C1([H])[H]

>  <smiles>  (89) 
[H]c1c([H])c([H])c2c(c1[H])C([H])([H])C([H])([H])C([H])([H])C2([H])N([H])C(=O)C1([H])N(C(=O)C([H])(N([H])C(=O)C([H])(N([H])C([H])([H])[H])C([H])([H])[H])C(C([H])([H])[H])(C([H])([H])[H])C([H])([H])[H])C([H])([H])c2c([H])c(OC([H])([H])C([H])([H])C([H])([H])[N+]([H])(C([H])([H])C([H])([H])[H])C3([H])C([H])([H])C([H])([H])C4(C([H])([H])C([H])([H])C([H])(C(=O)N5C([H])([H])C([H])([H])C([H])([H])C([H])(n6nc(-c7c([H])c([H])c(Oc8c([H])c([H])c(F)c([H])c8F)c([H])c7[H])c(C(=O)N([H])[H])c6N([H])[H])C5([H])[H])C4([H])[H])C3([H])[H])c([H])c([H])c2C1([H])[H]

$$$$
89:0:0
     RDKit          3D

 90 98  0  0  1  0  0  0  0  0999 V2000
  -28.9370  -21.2120   20.1030 C   0  0  0  0  0  2  0  0  0  0  0  0
  -29.0500  -22.5370   21.0130 C   0  0  0  0  0  2  0  0  0  0  0  0
  -28.1010  -23.8410   20.8420 C   0  0  0  0  0  2  0  0  0  0  0  0
  -28.5000  -25.0910   19.9160 C   0  0  0  0  0  2  0  0  0  0  0  0
  -28.3670  -26.5170   20.3440 O   0  0  0  0  0  0  0  0  0  0  0  0
  -24.6010  -31.9020   23.2290 C   0  0  0  0  0  0  0  0  0  0  0  0
  -27.2190  -27.3190   20.2290 C   0  0  0  0  0  0  0  0  0  0  0  0
  -23.3950  -30.4940   21.5930 C   0  0  0  0  0  3  0  0  0  0  0  0
  -24.8450  -28.9260   20.1760 C   0  0  0  0  0  0  0  0  0  0  0  0
  -25.9270  -30.8160   21.4030 C   0  0  0  0  0  2  0  0  0  0  0  0
  -26.0070  -29.4290   20.7670 C   0  0  0  0  0  0  0  0  0  0  0  0
  -27.1930  -28.6390   20.7770 C   0  0  0  0  0  3  0  0  0  0  0  0
  -26.0340  -26.8580   19.6140 C   0  0  0  0  0  3  0  0  0  0  0  0
  -24.8610  -27.6470   19.5840 C   0  0  0  0  0  3  0  0  0  0  0  0
  -23.6100  -29.8080   20.2130 C   0  0  0  0  0  2  0  0  0  0  0  0
  -24.6600  -31.0890   22.1310 N   0  0  0  0  0  0  0  0  0  0  0  0
  -23.5210  -32.1860   23.7640 O   0  0  0  0  0  0  0  0  0  0  0  0
  -22.7330  -29.4880   22.5640 C   0  0  0  0  0  0  0  0  0  0  0  0
  -21.4080  -29.3060   22.4340 N   0  0  0  0  0  0  0  0  0  0  0  0
  -23.4110  -28.8730   23.3900 O   0  0  0  0  0  0  0  0  0  0  0  0
  -20.9220  -29.8560   21.7390 H   0  0  0  0  0  0  0  0  0  0  0  0
  -18.0360  -28.1050   22.9510 C   0  0  0  0  0  0  0  0  0  0  0  0
  -20.5920  -28.3760   23.2160 C   0  0  0  0  0  3  0  0  0  0  0  0
  -20.6960  -26.9360   22.6570 C   0  0  0  0  0  2  0  0  0  0  0  0
  -19.5960  -26.6010   21.6450 C   0  0  0  0  0  2  0  0  0  0  0  0
  -18.2150  -26.7490   22.2880 C   0  0  0  0  0  2  0  0  0  0  0  0
  -19.1520  -28.8750   23.3760 C   0  0  0  0  0  0  0  0  0  0  0  0
  -18.9290  -30.1410   23.9560 C   0  0  0  0  0  3  0  0  0  0  0  0
  -17.6220  -30.6370   24.1210 C   0  0  0  0  0  3  0  0  0  0  0  0
  -16.5200  -29.8680   23.7080 C   0  0  0  0  0  3  0  0  0  0  0  0
  -16.7280  -28.6050   23.1300 C   0  0  0  0  0  3  0  0  0  0  0  0
  -25.8890  -32.5350   23.8410 C   0  0  0  0  0  3  0  0  0  0  0  0
  -25.5760  -33.9340   24.1690 N   0  0  0  0  0  0  0  0  0  0  0  0
  -25.9050  -34.9890   23.4140 C   0  0  0  0  0  0  0  0  0  0  0  0
  -26.5740  -34.8890   22.3830 O   0  0  0  0  0  0  0  0  0  0  0  0
  -24.9810  -34.0820   24.9690 H   0  0  0  0  0  0  0  0  0  0  0  0
  -24.1770  -36.7870   23.0550 C   0  0  0  0  0  1  0  0  0  0  0  0
  -25.4180  -36.3800   23.8670 C   0  0  0  0  0  3  0  0  0  0  0  0
  -27.5510  -37.2650   24.7000 C   0  0  0  0  0  1  0  0  0  0  0  0
  -26.4500  -37.4350   23.7570 N   0  0  0  0  0  0  0  0  0  0  0  0
  -26.0430  -38.3520   23.9080 H   0  0  0  0  0  0  0  0  0  0  0  0
  -26.4130  -31.7730   25.1220 C   0  0  1  0  0  0  0  0  0  0  0  0
  -25.3230  -31.5390   26.1970 C   0  0  0  0  0  1  0  0  0  0  0  0
  -26.9940  -30.3930   24.7320 C   0  0  0  0  0  1  0  0  0  0  0  0
  -27.5670  -32.5740   25.7760 C   0  0  0  0  0  1  0  0  0  0  0  0
  -28.9710  -19.7220   20.7540 C   0  0  0  0  0  2  0  0  0  0  0  0
  -32.6560  -18.1910   20.2640 C   0  0  0  0  0  2  0  0  0  0  0  0
  -31.9590  -18.1540   18.8660 C   0  0  0  0  0  2  0  0  0  0  0  0
  -31.8500  -17.4860   21.4190 C   0  0  0  0  0  2  0  0  0  0  0  0
  -30.4410  -18.5180   18.9200 C   0  0  0  0  0  2  0  0  0  0  0  0
  -30.3220  -17.4420   21.1610 C   0  0  0  0  0  3  0  0  0  0  0  0
  -30.0400  -18.7000   20.3390 N   0  0  2  0  0  4  0  0  0  0  0  0
  -30.8430  -19.2340   20.6390 H   0  0  0  0  0  0  0  0  0  0  0  0
  -29.7110  -15.9870   20.7460 C   0  0  0  0  0  2  0  0  0  0  0  0
  -30.5390  -14.7080   20.2290 C   0  0  0  0  0  0  0  0  0  0  0  0
  -30.3500  -12.4530   19.1380 C   0  0  0  0  0  2  0  0  0  0  0  0
  -29.3720  -12.5490   17.9430 C   0  0  0  0  0  2  0  0  0  0  0  0
  -27.9070  -12.3830   18.4010 C   0  0  0  0  0  2  0  0  0  0  0  0
  -27.5760  -13.2480   19.6480 C   0  0  0  0  0  3  0  0  0  0  0  0
  -28.6620  -13.0750   20.7310 C   0  0  0  0  0  2  0  0  0  0  0  0
  -29.9510  -13.4650   20.1430 N   0  0  0  0  0  0  0  0  0  0  0  0
  -31.6780  -14.8610   19.7780 O   0  0  0  0  0  0  0  0  0  0  0  0
  -25.2040  -13.8510   20.4270 C   0  0  0  0  0  0  0  0  0  0  0  0
  -24.1420  -13.0740   20.8210 C   0  0  0  0  0  0  0  0  0  0  0  0
  -24.6050  -11.7270   20.7750 C   0  0  0  0  0  0  0  0  0  0  0  0
  -26.2390  -12.9700   20.1650 N   0  0  0  0  0  0  0  0  0  0  0  0
  -25.8840  -11.6890   20.4300 N   0  0  0  0  0  0  0  0  0  0  0  0
  -23.8840  -10.4620   20.9800 C   0  0  0  0  0  0  0  0  0  0  0  0
  -24.3270   -9.4990   21.9140 C   0  0  0  0  0  3  0  0  0  0  0  0
  -23.6050   -8.3000   22.1000 C   0  0  0  0  0  3  0  0  0  0  0  0
  -22.4280   -8.0590   21.3540 C   0  0  0  0  0  0  0  0  0  0  0  0
  -22.0050   -9.0100   20.4080 C   0  0  0  0  0  3  0  0  0  0  0  0
  -22.7270  -10.2010   20.2200 C   0  0  0  0  0  3  0  0  0  0  0  0
  -21.6730   -6.9150   21.4540 O   0  0  0  0  0  0  0  0  0  0  0  0
  -21.6290   -6.1820   22.6140 C   0  0  0  0  0  0  0  0  0  0  0  0
  -21.1990   -6.7450   23.8340 C   0  0  0  0  0  3  0  0  0  0  0  0
  -21.1020   -5.9400   24.9870 C   0  0  0  0  0  3  0  0  0  0  0  0
  -21.4230   -4.5710   24.9190 C   0  0  0  0  0  0  0  0  0  0  0  0
  -21.8470   -4.0070   23.7030 C   0  0  0  0  0  3  0  0  0  0  0  0
  -21.9460   -4.8100   22.5530 C   0  0  0  0  0  0  0  0  0  0  0  0
  -22.3360   -4.2570   21.3790 F   0  0  0  0  0  0  0  0  0  0  0  0
  -21.3230   -3.7950   26.0230 F   0  0  0  0  0  0  0  0  0  0  0  0
  -22.7540  -13.5590   21.1270 C   0  0  0  0  0  0  0  0  0  0  0  0
  -22.0390  -12.8610   22.0070 N   0  0  0  0  0  0  0  0  0  0  0  0
  -22.3130  -14.5900   20.6270 O   0  0  0  0  0  0  0  0  0  0  0  0
  -22.4030  -12.0240   22.4370 H   0  0  0  0  0  0  0  0  0  0  0  0
  -21.1150  -13.1820   22.2560 H   0  0  0  0  0  0  0  0  0  0  0  0
  -25.3660  -15.2200   20.2510 N   0  0  0  0  0  0  0  0  0  0  0  0
  -24.6040  -15.8790   20.3720 H   0  0  0  0  0  0  0  0  0  0  0  0
  -26.2050  -15.6520   19.8820 H   0  0  0  0  0  0  0  0  0  0  0  0
  1 46  1  0
  1  2  1  0
  3  2  1  0
  4  5  1  0
  4  3  1  0
  6 17  2  0
  7  5  1  0
  7 12  1  0
  8 16  1  0
  8 18  1  0
  9 15  1  0
  9 11  1  0
 10 16  1  0
 11 12  2  0
 11 10  1  0
 13  7  2  0
 14 13  1  0
 14  9  2  0
 15  8  1  0
 16  6  1  0
 18 20  2  0
 19 18  1  0
 21 19  1  0
 22 31  2  0
 22 27  1  0
 23 19  1  0
 23 27  1  0
 24 23  1  0
 25 26  1  0
 25 24  1  0
 26 22  1  0
 27 28  2  0
 28 29  1  0
 30 29  2  0
 31 30  1  0
 32  6  1  0
 32 33  1  0
 32 42  1  0
 33 36  1  0
 34 38  1  0
 34 33  1  0
 35 34  2  0
 38 37  1  0
 40 38  1  0
 40 41  1  0
 40 39  1  0
 42 45  1  1
 42 43  1  0
 44 42  1  0
 47 49  1  0
 48 50  1  0
 48 47  1  0
 50 52  1  0
 51 54  1  0
 51 49  1  0
 52 53  1  1
 52 46  1  0
 52 51  1  0
 55 54  1  0
 56 61  1  0
 57 58  1  0
 57 56  1  0
 59 58  1  0
 59 66  1  0
 59 60  1  0
 61 55  1  0
 61 60  1  0
 62 55  2  0
 63 64  2  0
 64 83  1  0
 65 64  1  0
 65 68  1  0
 66 63  1  0
 66 67  1  0
 67 65  2  0
 68 69  1  0
 69 70  2  0
 71 74  1  0
 71 70  1  0
 72 71  2  0
 73 72  1  0
 73 68  2  0
 74 75  1  0
 75 76  1  0
 76 77  2  0
 78 77  1  0
 78 82  1  0
 79 78  2  0
 80 75  2  0
 80 79  1  0
 81 80  1  0
 83 84  1  0
 84 87  1  0
 84 86  1  0
 85 83  2  0
 88 89  1  0
 88 63  1  0
 90 88  1  0
M  ISO  4   4 101   5 101  54 100  55 100
M  END
>  <TORSDO>  (90) 
F 22

>  <SCORE>  (90) 
-13.017

>  <name>  (90) 
89

>  <ligand_id>  (90) 
89

>  <original_smiles>  (90) 
[H]c1c([H])c([H])c2c(c1[H])C([H])([H])C([H])([H])C([H])([H])C2([H])N([H])C(=O)C1([H])N(C(=O)C([H])(N([H])C(=O)C([H])(N([H])C([H])([H])[H])C([H])([H])[H])C(C([H])([H])[H])(C([H])([H])[H])C([H])([H])[H])C([H])([H])c2c([H])c(OC([H])([H])C([H])([H])C([H])([H])C([H])([H])C([H])([H])[N+]3([H])C([H])([H])C([H])([H])C([H])([H])C([H])([H])C3([H])C([H])([H])C(=O)N3C([H])([H])C([H])([H])C([H])([H])C([H])(n4nc(-c5c([H])c([H])c(Oc6c([H])c([H])c(F)c([H])c6F)c([H])c5[H])c(C(=O)N([H])[H])c4N([H])[H])C3([H])[H])c([H])c([H])c2C1([H])[H]

>  <smiles>  (90) 
[H]c1c([H])c([H])c2c(c1[H])C([H])([H])C([H])([H])C([H])([H])C2([H])N([H])C(=O)C1([H])N(C(=O)C([H])(N([H])C(=O)C([H])(N([H])C([H])([H])[H])C([H])([H])[H])C(C([H])([H])[H])(C([H])([H])[H])C([H])([H])[H])C([H])([H])c2c([H])c(OC([H])([H])C([H])([H])C([H])([H])C([H])([H])C([H])([H])[N+]3([H])C([H])([H])C([H])([H])C([H])([H])C([H])([H])C3([H])C([H])([H])C(=O)N3C([H])([H])C([H])([H])C([H])([H])C([H])(n4nc(-c5c([H])c([H])c(Oc6c([H])c([H])c(F)c([H])c6F)c([H])c5[H])c(C(=O)N([H])[H])c4N([H])[H])C3([H])[H])c([H])c([H])c2C1([H])[H]

$$$$
90:0:0
     RDKit          3D

 94102  0  0  1  0  0  0  0  0999 V2000
  -29.7970  -19.8630   20.5660 C   0  0  0  0  0  3  0  0  0  0  0  0
  -30.5710  -18.2950   24.1690 C   0  0  0  0  0  2  0  0  0  0  0  0
  -31.4290  -17.0740   23.8880 C   0  0  0  0  0  2  0  0  0  0  0  0
  -30.5950  -19.2710   22.9850 C   0  0  0  0  0  2  0  0  0  0  0  0
  -30.9220  -16.3840   22.6240 C   0  0  0  0  0  2  0  0  0  0  0  0
  -30.1070  -18.6550   21.6320 C   0  0  0  0  0  3  0  0  0  0  0  0
  -30.9400  -17.2530   21.3260 C   0  0  1  0  0  0  0  0  0  0  0  0
  -32.4280  -17.5530   21.0060 C   0  0  0  0  0  1  0  0  0  0  0  0
  -30.3610  -16.2070   20.2560 C   0  0  0  0  0  2  0  0  0  0  0  0
  -31.0510  -14.7800   20.0110 C   0  0  0  0  0  0  0  0  0  0  0  0
  -30.6710  -12.5780   18.9180 C   0  0  0  0  0  2  0  0  0  0  0  0
  -29.7050  -12.7860   17.7290 C   0  0  0  0  0  2  0  0  0  0  0  0
  -28.2400  -12.6780   18.1920 C   0  0  0  0  0  2  0  0  0  0  0  0
  -27.9560  -13.5160   19.4660 C   0  0  0  0  0  3  0  0  0  0  0  0
  -29.0440  -13.3220   20.5410 C   0  0  0  0  0  2  0  0  0  0  0  0
  -30.3480  -13.6010   19.9320 N   0  0  0  0  0  0  0  0  0  0  0  0
  -32.2260  -14.8020   19.6400 O   0  0  0  0  0  0  0  0  0  0  0  0
  -25.6120  -14.1770   20.2760 C   0  0  0  0  0  0  0  0  0  0  0  0
  -24.5330  -13.4350   20.6700 C   0  0  0  0  0  0  0  0  0  0  0  0
  -24.9510  -12.0710   20.6170 C   0  0  0  0  0  0  0  0  0  0  0  0
  -26.6190  -13.2660   19.9990 N   0  0  0  0  0  0  0  0  0  0  0  0
  -26.2300  -11.9920   20.2670 N   0  0  0  0  0  0  0  0  0  0  0  0
  -24.1890  -10.8310   20.8210 C   0  0  0  0  0  0  0  0  0  0  0  0
  -24.6080   -9.8540   21.7520 C   0  0  0  0  0  3  0  0  0  0  0  0
  -23.8490   -8.6790   21.9460 C   0  0  0  0  0  3  0  0  0  0  0  0
  -22.6580   -8.4740   21.2090 C   0  0  0  0  0  0  0  0  0  0  0  0
  -22.2580   -9.4390   20.2670 C   0  0  0  0  0  3  0  0  0  0  0  0
  -23.0150  -10.6060   20.0730 C   0  0  0  0  0  3  0  0  0  0  0  0
  -21.8720   -7.3520   21.3100 O   0  0  0  0  0  0  0  0  0  0  0  0
  -21.7970   -6.6250   22.4720 C   0  0  0  0  0  0  0  0  0  0  0  0
  -21.4110   -7.2160   23.6940 C   0  0  0  0  0  3  0  0  0  0  0  0
  -21.2810   -6.4220   24.8500 C   0  0  0  0  0  3  0  0  0  0  0  0
  -21.5250   -5.0370   24.7850 C   0  0  0  0  0  0  0  0  0  0  0  0
  -21.9020   -4.4450   23.5650 C   0  0  0  0  0  3  0  0  0  0  0  0
  -22.0360   -5.2380   22.4130 C   0  0  0  0  0  0  0  0  0  0  0  0
  -22.3800   -4.6580   21.2370 F   0  0  0  0  0  0  0  0  0  0  0  0
  -21.3910   -4.2720   25.8940 F   0  0  0  0  0  0  0  0  0  0  0  0
  -23.1590  -13.9530   20.9850 C   0  0  0  0  0  0  0  0  0  0  0  0
  -22.4440  -13.2850   21.8810 N   0  0  0  0  0  0  0  0  0  0  0  0
  -22.7320  -14.9870   20.4720 O   0  0  0  0  0  0  0  0  0  0  0  0
  -22.8070  -12.4520   22.3190 H   0  0  0  0  0  0  0  0  0  0  0  0
  -21.5220  -13.6090   22.1320 H   0  0  0  0  0  0  0  0  0  0  0  0
  -25.8160  -15.5430   20.1050 N   0  0  0  0  0  0  0  0  0  0  0  0
  -25.0710  -16.2200   20.2430 H   0  0  0  0  0  0  0  0  0  0  0  0
  -26.6710  -15.9600   19.7610 H   0  0  0  0  0  0  0  0  0  0  0  0
  -29.3430  -21.2100   21.1640 N   0  0  0  0  0  4  0  0  0  0  0  0
  -28.6720  -20.9970   21.8840 H   0  0  0  0  0  0  0  0  0  0  0  0
  -30.1450  -21.6060   21.6280 H   0  0  0  0  0  0  0  0  0  0  0  0
  -28.7020  -22.3030   20.3080 C   0  0  0  0  0  2  0  0  0  0  0  0
  -28.7730  -23.8290   20.8280 C   0  0  0  0  0  3  0  0  0  0  0  0
  -27.9120  -24.9300   20.0460 C   0  0  0  0  0  3  0  0  0  0  0  0
  -28.1110  -26.3960   20.2670 O   0  0  0  0  0  0  0  0  0  0  0  0
  -24.5590  -31.9370   23.2130 C   0  0  0  0  0  0  0  0  0  0  0  0
  -27.0180  -27.2810   20.1710 C   0  0  0  0  0  0  0  0  0  0  0  0
  -23.2970  -30.5440   21.6120 C   0  0  0  0  0  3  0  0  0  0  0  0
  -24.6900  -28.9550   20.1700 C   0  0  0  0  0  0  0  0  0  0  0  0
  -25.8380  -30.8090   21.3790 C   0  0  0  0  0  2  0  0  0  0  0  0
  -25.8780  -29.4210   20.7470 C   0  0  0  0  0  0  0  0  0  0  0  0
  -27.0430  -28.5960   20.7390 C   0  0  0  0  0  3  0  0  0  0  0  0
  -25.8160  -26.8910   19.5350 C   0  0  0  0  0  3  0  0  0  0  0  0
  -24.6640  -27.6990   19.5500 C   0  0  0  0  0  3  0  0  0  0  0  0
  -23.4710  -29.8540   20.2340 C   0  0  0  0  0  2  0  0  0  0  0  0
  -24.5860  -31.1150   22.1230 N   0  0  0  0  0  0  0  0  0  0  0  0
  -23.4930  -32.2390   23.7660 O   0  0  0  0  0  0  0  0  0  0  0  0
  -22.6350  -29.5490   22.5960 C   0  0  0  0  0  0  0  0  0  0  0  0
  -21.3080  -29.3730   22.4780 N   0  0  0  0  0  0  0  0  0  0  0  0
  -23.3150  -28.9400   23.4270 O   0  0  0  0  0  0  0  0  0  0  0  0
  -20.8180  -29.9170   21.7810 H   0  0  0  0  0  0  0  0  0  0  0  0
  -17.9390  -28.1550   22.9780 C   0  0  0  0  0  0  0  0  0  0  0  0
  -20.4900  -28.4550   23.2720 C   0  0  0  0  0  3  0  0  0  0  0  0
  -20.6150  -27.0040   22.7540 C   0  0  0  0  0  2  0  0  0  0  0  0
  -19.5320  -26.6300   21.7370 C   0  0  0  0  0  2  0  0  0  0  0  0
  -18.1400  -26.7830   22.3560 C   0  0  0  0  0  2  0  0  0  0  0  0
  -19.0420  -28.9460   23.3950 C   0  0  0  0  0  0  0  0  0  0  0  0
  -18.8010  -30.2260   23.9370 C   0  0  0  0  0  3  0  0  0  0  0  0
  -17.4880  -30.7180   24.0670 C   0  0  0  0  0  3  0  0  0  0  0  0
  -16.3980  -29.9250   23.6680 C   0  0  0  0  0  3  0  0  0  0  0  0
  -16.6250  -28.6460   23.1290 C   0  0  0  0  0  3  0  0  0  0  0  0
  -25.8660  -32.5530   23.8020 C   0  0  0  0  0  3  0  0  0  0  0  0
  -25.5720  -33.9440   24.1750 N   0  0  0  0  0  0  0  0  0  0  0  0
  -25.8760  -35.0140   23.4270 C   0  0  0  0  0  0  0  0  0  0  0  0
  -26.5060  -34.9320   22.3690 O   0  0  0  0  0  0  0  0  0  0  0  0
  -25.0090  -34.0810   25.0000 H   0  0  0  0  0  0  0  0  0  0  0  0
  -24.1350  -36.8150   23.1880 C   0  0  0  0  0  1  0  0  0  0  0  0
  -25.4110  -36.3920   23.9340 C   0  0  0  0  0  3  0  0  0  0  0  0
  -27.5820  -37.2600   24.6850 C   0  0  0  0  0  1  0  0  0  0  0  0
  -26.4380  -37.4480   23.7980 N   0  0  0  0  0  0  0  0  0  0  0  0
  -26.0390  -38.3640   23.9850 H   0  0  0  0  0  0  0  0  0  0  0  0
  -26.4240  -31.7530   25.0440 C   0  0  1  0  0  0  0  0  0  0  0  0
  -25.3670  -31.4880   26.1410 C   0  0  0  0  0  1  0  0  0  0  0  0
  -26.9960  -30.3850   24.6030 C   0  0  0  0  0  1  0  0  0  0  0  0
  -27.5940  -32.5350   25.6870 C   0  0  0  0  0  1  0  0  0  0  0  0
  -32.0990  -20.9420   20.0180 C   0  0  0  0  0  1  0  0  0  0  0  0
  -30.9020  -20.1150   19.5170 C   0  0  0  0  0  2  0  0  0  0  0  0
  1 94  1  0
  1 46  1  0
  3  2  1  0
  4  2  1  0
  5  3  1  0
  6  1  1  0
  6  4  1  0
  7  8  1  6
  7  6  1  0
  7  5  1  0
  9  7  1  0
 10  9  1  0
 11 16  1  0
 12 13  1  0
 12 11  1  0
 14 13  1  0
 14 21  1  0
 14 15  1  0
 16 10  1  0
 16 15  1  0
 17 10  2  0
 18 19  2  0
 19 38  1  0
 20 19  1  0
 20 23  1  0
 21 22  1  0
 21 18  1  0
 22 20  2  0
 23 24  1  0
 24 25  2  0
 26 29  1  0
 26 25  1  0
 27 26  2  0
 28 27  1  0
 28 23  2  0
 29 30  1  0
 30 31  1  0
 31 32  2  0
 33 32  1  0
 33 37  1  0
 34 33  2  0
 35 30  2  0
 35 34  1  0
 36 35  1  0
 38 39  1  0
 39 42  1  0
 39 41  1  0
 40 38  2  0
 43 44  1  0
 43 18  1  0
 45 43  1  0
 46 48  1  0
 46 47  1  0
 49 50  1  0
 49 46  1  0
 51 52  1  0
 51 50  2  0
 53 64  2  0
 54 52  1  0
 54 59  1  0
 55 63  1  0
 55 65  1  0
 56 62  1  0
 56 58  1  0
 57 63  1  0
 58 57  1  0
 59 58  2  0
 60 61  1  0
 60 54  2  0
 61 56  2  0
 62 55  1  0
 63 53  1  0
 65 67  2  0
 66 65  1  0
 68 66  1  0
 69 78  2  0
 69 74  1  0
 70 66  1  0
 70 74  1  0
 71 70  1  0
 72 73  1  0
 72 71  1  0
 73 69  1  0
 74 75  2  0
 75 76  1  0
 77 76  2  0
 78 77  1  0
 79 53  1  0
 79 80  1  0
 79 89  1  0
 80 83  1  0
 81 85  1  0
 81 80  1  0
 82 81  2  0
 85 84  1  0
 87 85  1  0
 87 88  1  0
 87 86  1  0
 89 92  1  1
 89 90  1  0
 91 89  1  0
 94 93  1  0
M  ISO  4   9 100  10 100  51 101  52 101
M  END
>  <TORSDO>  (91) 
F 23

>  <SCORE>  (91) 
-9.313

>  <name>  (91) 
90

>  <ligand_id>  (91) 
90

>  <original_smiles>  (91) 
[H]c1c([H])c([H])c2c(c1[H])C([H])([H])C([H])([H])C([H])([H])C2([H])N([H])C(=O)C1([H])N(C(=O)C([H])(N([H])C(=O)C([H])(N([H])C([H])([H])[H])C([H])([H])[H])C(C([H])([H])[H])(C([H])([H])[H])C([H])([H])[H])C([H])([H])c2c([H])c(OC([H])([H])C([H])([H])C([H])([H])[N+]([H])([H])C([H])(C([H])([H])C([H])([H])[H])C3([H])C([H])([H])C([H])([H])C([H])([H])C([H])([H])C3(C([H])([H])[H])C([H])([H])C(=O)N3C([H])([H])C([H])([H])C([H])([H])C([H])(n4nc(-c5c([H])c([H])c(Oc6c([H])c([H])c(F)c([H])c6F)c([H])c5[H])c(C(=O)N([H])[H])c4N([H])[H])C3([H])[H])c([H])c([H])c2C1([H])[H]

>  <smiles>  (91) 
[H]c1c([H])c([H])c2c(c1[H])C([H])([H])C([H])([H])C([H])([H])C2([H])N([H])C(=O)C1([H])N(C(=O)C([H])(N([H])C(=O)C([H])(N([H])C([H])([H])[H])C([H])([H])[H])C(C([H])([H])[H])(C([H])([H])[H])C([H])([H])[H])C([H])([H])c2c([H])c(OC([H])([H])C([H])([H])C([H])([H])[N+]([H])([H])C([H])(C([H])([H])C([H])([H])[H])C3([H])C([H])([H])C([H])([H])C([H])([H])C([H])([H])C3(C([H])([H])[H])C([H])([H])C(=O)N3C([H])([H])C([H])([H])C([H])([H])C([H])(n4nc(-c5c([H])c([H])c(Oc6c([H])c([H])c(F)c([H])c6F)c([H])c5[H])c(C(=O)N([H])[H])c4N([H])[H])C3([H])[H])c([H])c([H])c2C1([H])[H]

$$$$
91:0:0
     RDKit          3D

 93101  0  0  1  0  0  0  0  0999 V2000
  -29.3170  -20.7060   20.9080 N   0  0  0  0  0  4  0  0  0  0  0  0
  -29.8270  -20.6610   21.7750 H   0  0  0  0  0  0  0  0  0  0  0  0
  -28.3490  -20.6600   21.1840 H   0  0  0  0  0  0  0  0  0  0  0  0
  -28.8680  -17.0560   19.5350 C   0  0  0  0  0  0  0  0  0  0  0  0
  -30.5580  -18.1150   20.7580 C   0  0  0  0  0  2  0  0  0  0  0  0
  -28.3950  -18.4980   19.9130 C   0  0  0  0  0  3  0  0  0  0  0  0
  -29.6580  -19.3570   20.1490 C   0  0  0  0  0  3  0  0  0  0  0  0
  -30.3400  -16.7230   19.9020 C   0  0  2  0  0  0  0  0  0  0  0  0
  -31.1280  -16.9560   18.5790 C   0  0  0  0  0  1  0  0  0  0  0  0
  -28.1940  -16.3800   18.7700 O   0  0  0  0  0  0  0  0  0  0  0  0
  -30.8570  -15.1540   20.3320 C   0  0  0  0  0  0  0  0  0  0  0  0
  -30.6770  -12.7570   19.5270 C   0  0  0  0  0  2  0  0  0  0  0  0
  -29.7810  -12.6190   18.2760 C   0  0  0  0  0  2  0  0  0  0  0  0
  -28.3240  -12.3620   18.7020 C   0  0  0  0  0  2  0  0  0  0  0  0
  -27.8700  -13.3520   19.7930 C   0  0  0  0  0  3  0  0  0  0  0  0
  -28.8990  -13.5570   20.9260 C   0  0  0  0  0  2  0  0  0  0  0  0
  -30.1810  -13.9260   20.3140 N   0  0  0  0  0  0  0  0  0  0  0  0
  -32.0880  -15.0340   20.3320 O   0  0  0  0  0  0  0  0  0  0  0  0
  -25.5130  -14.0340   20.5220 C   0  0  0  0  0  0  0  0  0  0  0  0
  -24.4160  -13.2980   20.8710 C   0  0  0  0  0  0  0  0  0  0  0  0
  -24.8390  -11.9350   20.8380 C   0  0  0  0  0  0  0  0  0  0  0  0
  -26.5250  -13.1170   20.2870 N   0  0  0  0  0  0  0  0  0  0  0  0
  -26.1310  -11.8490   20.5500 N   0  0  0  0  0  0  0  0  0  0  0  0
  -24.0750  -10.6980   21.0000 C   0  0  0  0  0  0  0  0  0  0  0  0
  -24.4750   -9.7030   21.9170 C   0  0  0  0  0  3  0  0  0  0  0  0
  -23.7130   -8.5260   22.0680 C   0  0  0  0  0  3  0  0  0  0  0  0
  -22.5380   -8.3390   21.3030 C   0  0  0  0  0  0  0  0  0  0  0  0
  -22.1580   -9.3230   20.3720 C   0  0  0  0  0  3  0  0  0  0  0  0
  -22.9210  -10.4920   20.2190 C   0  0  0  0  0  3  0  0  0  0  0  0
  -21.7490   -7.2180   21.3680 O   0  0  0  0  0  0  0  0  0  0  0  0
  -21.6810   -6.4540   22.5060 C   0  0  0  0  0  0  0  0  0  0  0  0
  -21.2690   -6.9960   23.7440 C   0  0  0  0  0  3  0  0  0  0  0  0
  -21.1440   -6.1590   24.8700 C   0  0  0  0  0  3  0  0  0  0  0  0
  -21.4220   -4.7840   24.7610 C   0  0  0  0  0  0  0  0  0  0  0  0
  -21.8300   -4.2440   23.5280 C   0  0  0  0  0  3  0  0  0  0  0  0
  -21.9570   -5.0770   22.4040 C   0  0  0  0  0  0  0  0  0  0  0  0
  -22.3300   -4.5470   21.2140 F   0  0  0  0  0  0  0  0  0  0  0  0
  -21.2930   -3.9780   25.8400 F   0  0  0  0  0  0  0  0  0  0  0  0
  -23.0320  -13.8230   21.1140 C   0  0  0  0  0  0  0  0  0  0  0  0
  -22.2690  -13.1670   21.9820 N   0  0  0  0  0  0  0  0  0  0  0  0
  -22.6320  -14.8510   20.5670 O   0  0  0  0  0  0  0  0  0  0  0  0
  -22.6030  -12.3360   22.4470 H   0  0  0  0  0  0  0  0  0  0  0  0
  -21.3380  -13.5010   22.1880 H   0  0  0  0  0  0  0  0  0  0  0  0
  -25.7180  -15.3940   20.3530 N   0  0  0  0  0  0  0  0  0  0  0  0
  -24.9400  -16.0420   20.3490 H   0  0  0  0  0  0  0  0  0  0  0  0
  -26.5460  -15.7570   19.8800 H   0  0  0  0  0  0  0  0  0  0  0  0
  -27.4110  -19.1240   18.8880 C   0  0  0  0  0  2  0  0  0  0  0  0
  -24.9620  -19.4530   18.2070 C   0  0  0  0  0  1  0  0  0  0  0  0
  -25.9350  -18.9100   19.2620 C   0  0  0  0  0  2  0  0  0  0  0  0
  -29.5780  -22.1730   20.3800 C   0  0  0  0  0  2  0  0  0  0  0  0
  -28.4340  -23.3910   20.1610 C   0  0  0  0  0  2  0  0  0  0  0  0
  -28.3480  -24.8910   20.9070 C   0  0  0  0  0  2  0  0  0  0  0  0
  -28.3770  -26.3180   20.3180 O   0  0  0  0  0  0  0  0  0  0  0  0
  -24.6000  -31.9050   23.2920 C   0  0  0  0  0  0  0  0  0  0  0  0
  -27.2670  -27.2210   20.3390 C   0  0  0  0  0  0  0  0  0  0  0  0
  -23.4320  -30.4810   21.6500 C   0  0  0  0  0  3  0  0  0  0  0  0
  -24.9110  -28.9030   20.2660 C   0  0  0  0  0  0  0  0  0  0  0  0
  -25.9790  -30.7840   21.5030 C   0  0  0  0  0  2  0  0  0  0  0  0
  -26.0770  -29.3850   20.8740 C   0  0  0  0  0  0  0  0  0  0  0  0
  -27.2610  -28.5630   20.8840 C   0  0  0  0  0  3  0  0  0  0  0  0
  -26.0710  -26.8150   19.7140 C   0  0  0  0  0  3  0  0  0  0  0  0
  -24.9170  -27.6300   19.6710 C   0  0  0  0  0  3  0  0  0  0  0  0
  -23.6770  -29.7890   20.2820 C   0  0  0  0  0  2  0  0  0  0  0  0
  -24.6900  -31.0800   22.2050 N   0  0  0  0  0  0  0  0  0  0  0  0
  -23.5050  -32.1840   23.8050 O   0  0  0  0  0  0  0  0  0  0  0  0
  -22.7510  -29.4790   22.6140 C   0  0  0  0  0  0  0  0  0  0  0  0
  -21.4250  -29.3020   22.4760 N   0  0  0  0  0  0  0  0  0  0  0  0
  -23.4190  -28.8600   23.4470 O   0  0  0  0  0  0  0  0  0  0  0  0
  -20.9460  -29.8550   21.7800 H   0  0  0  0  0  0  0  0  0  0  0  0
  -18.0430  -28.1000   22.9640 C   0  0  0  0  0  0  0  0  0  0  0  0
  -20.6010  -28.3670   23.2450 C   0  0  0  0  0  3  0  0  0  0  0  0
  -20.7070  -26.9330   22.6760 C   0  0  0  0  0  2  0  0  0  0  0  0
  -19.6120  -26.6040   21.6560 C   0  0  0  0  0  2  0  0  0  0  0  0
  -18.2270  -26.7480   22.2920 C   0  0  0  0  0  2  0  0  0  0  0  0
  -19.1580  -28.8660   23.3970 C   0  0  0  0  0  0  0  0  0  0  0  0
  -18.9330  -30.1290   23.9880 C   0  0  0  0  0  3  0  0  0  0  0  0
  -17.6250  -30.6270   24.1450 C   0  0  0  0  0  3  0  0  0  0  0  0
  -16.5260  -29.8590   23.7270 C   0  0  0  0  0  3  0  0  0  0  0  0
  -16.7350  -28.5960   23.1430 C   0  0  0  0  0  3  0  0  0  0  0  0
  -25.8650  -32.5580   23.9320 C   0  0  0  0  0  3  0  0  0  0  0  0
  -25.5450  -33.9630   24.2260 N   0  0  0  0  0  0  0  0  0  0  0  0
  -25.8950  -35.0040   23.4580 C   0  0  0  0  0  0  0  0  0  0  0  0
  -26.5870  -34.8810   22.4430 O   0  0  0  0  0  0  0  0  0  0  0  0
  -24.9350  -34.1320   25.0120 H   0  0  0  0  0  0  0  0  0  0  0  0
  -24.1840  -36.7990   23.0270 C   0  0  0  0  0  1  0  0  0  0  0  0
  -25.4000  -36.4020   23.8800 C   0  0  0  0  0  3  0  0  0  0  0  0
  -27.5120  -37.2960   24.7620 C   0  0  0  0  0  1  0  0  0  0  0  0
  -26.4410  -37.4490   23.7810 N   0  0  0  0  0  0  0  0  0  0  0  0
  -26.0350  -38.3740   23.8970 H   0  0  0  0  0  0  0  0  0  0  0  0
  -26.3520  -31.8180   25.2380 C   0  0  1  0  0  0  0  0  0  0  0  0
  -25.2350  -31.6060   26.2880 C   0  0  0  0  0  1  0  0  0  0  0  0
  -26.9440  -30.4320   24.8930 C   0  0  0  0  0  1  0  0  0  0  0  0
  -27.4900  -32.6290   25.9050 C   0  0  0  0  0  1  0  0  0  0  0  0
  1  3  1  0
  1  2  1  0
  4  8  1  0
  4  6  1  0
  6 47  1  0
  6  7  1  0
  7  5  1  0
  7  1  1  0
  8  9  1  6
  8 11  1  0
  8  5  1  0
 10  4  2  0
 11 18  2  0
 12 17  1  0
 13 14  1  0
 13 12  1  0
 15 14  1  0
 15 22  1  0
 15 16  1  0
 17 11  1  0
 17 16  1  0
 19 20  2  0
 20 39  1  0
 21 20  1  0
 21 24  1  0
 22 19  1  0
 22 23  1  0
 23 21  2  0
 24 25  1  0
 25 26  2  0
 27 30  1  0
 27 26  1  0
 28 27  2  0
 29 28  1  0
 29 24  2  0
 30 31  1  0
 31 32  1  0
 32 33  2  0
 34 33  1  0
 34 38  1  0
 35 34  2  0
 36 31  2  0
 36 35  1  0
 37 36  1  0
 39 40  1  0
 40 43  1  0
 40 42  1  0
 41 39  2  0
 44 19  1  0
 45 44  1  0
 46 44  1  0
 47 49  1  0
 48 49  1  0
 50  1  1  0
 51 50  1  0
 51 52  1  0
 53 55  1  0
 53 52  1  0
 54 65  2  0
 55 60  1  0
 56 64  1  0
 56 66  1  0
 57 63  1  0
 57 59  1  0
 58 64  1  0
 59 60  2  0
 59 58  1  0
 61 55  2  0
 62 61  1  0
 62 57  2  0
 63 56  1  0
 64 54  1  0
 66 68  2  0
 67 66  1  0
 69 67  1  0
 70 79  2  0
 70 75  1  0
 71 67  1  0
 71 75  1  0
 72 71  1  0
 73 74  1  0
 73 72  1  0
 74 70  1  0
 75 76  2  0
 76 77  1  0
 78 77  2  0
 79 78  1  0
 80 54  1  0
 80 81  1  0
 80 90  1  0
 81 84  1  0
 82 86  1  0
 82 81  1  0
 83 82  2  0
 86 85  1  0
 88 86  1  0
 88 89  1  0
 88 87  1  0
 90 93  1  1
 90 91  1  0
 92 90  1  0
M  ISO  4   8 100  11 100  52 101  53 101
M  END
>  <TORSDO>  (92) 
F 22

>  <SCORE>  (92) 
-12.450

>  <name>  (92) 
91

>  <ligand_id>  (92) 
91

>  <original_smiles>  (92) 
[H]c1c([H])c([H])c2c(c1[H])C([H])([H])C([H])([H])C([H])([H])C2([H])N([H])C(=O)C1([H])N(C(=O)C([H])(N([H])C(=O)C([H])(N([H])C([H])([H])[H])C([H])([H])[H])C(C([H])([H])[H])(C([H])([H])[H])C([H])([H])[H])C([H])([H])c2c([H])c(OC([H])([H])C([H])([H])C([H])([H])[N+]([H])([H])C3([H])C([H])([H])C(C(=O)N4C([H])([H])C([H])([H])C([H])([H])C([H])(n5nc(-c6c([H])c([H])c(Oc7c([H])c([H])c(F)c([H])c7F)c([H])c6[H])c(C(=O)N([H])[H])c5N([H])[H])C4([H])[H])(C([H])([H])[H])C(=O)C3([H])C([H])([H])C([H])([H])C([H])([H])[H])c([H])c([H])c2C1([H])[H]

>  <smiles>  (92) 
[H]c1c([H])c([H])c2c(c1[H])C([H])([H])C([H])([H])C([H])([H])C2([H])N([H])C(=O)C1([H])N(C(=O)C([H])(N([H])C(=O)C([H])(N([H])C([H])([H])[H])C([H])([H])[H])C(C([H])([H])[H])(C([H])([H])[H])C([H])([H])[H])C([H])([H])c2c([H])c(OC([H])([H])C([H])([H])C([H])([H])[N+]([H])([H])C3([H])C([H])([H])C(C(=O)N4C([H])([H])C([H])([H])C([H])([H])C([H])(n5nc(-c6c([H])c([H])c(Oc7c([H])c([H])c(F)c([H])c7F)c([H])c6[H])c(C(=O)N([H])[H])c5N([H])[H])C4([H])[H])(C([H])([H])[H])C(=O)C3([H])C([H])([H])C([H])([H])C([H])([H])[H])c([H])c([H])c2C1([H])[H]

$$$$
92:0:0
     RDKit          3D

 99107  0  0  1  0  0  0  0  0999 V2000
  -30.5020  -22.6220   24.4550 C   0  0  0  0  0  2  0  0  0  0  0  0
  -30.8640  -21.3040   23.7510 C   0  0  0  0  0  2  0  0  0  0  0  0
  -29.3300  -22.5900   22.3600 C   0  0  0  0  0  2  0  0  0  0  0  0
  -29.1980  -23.0820   23.8050 C   0  0  0  0  0  3  0  0  0  0  0  0
  -30.0030  -21.2080   22.4670 C   0  0  0  0  0  3  0  0  0  0  0  0
  -28.8260  -24.5700   24.0250 C   0  0  0  0  0  2  0  0  0  0  0  0
  -30.1140  -26.6690   23.8710 C   0  0  0  0  0  1  0  0  0  0  0  0
  -29.5360  -25.5230   23.1230 N   0  0  2  0  0  4  0  0  0  0  0  0
  -30.3230  -25.0150   22.7470 H   0  0  0  0  0  0  0  0  0  0  0  0
  -28.6780  -25.9530   21.9810 C   0  0  0  0  0  2  0  0  0  0  0  0
  -29.4350  -26.7000   20.8570 C   0  0  0  0  0  2  0  0  0  0  0  0
  -28.6200  -26.7850   19.6870 O   0  0  0  0  0  0  0  0  0  0  0  0
  -24.6640  -31.7090   23.0300 C   0  0  0  0  0  0  0  0  0  0  0  0
  -27.4530  -27.5060   19.7750 C   0  0  0  0  0  0  0  0  0  0  0  0
  -23.4950  -30.3240   21.3460 C   0  0  0  0  0  3  0  0  0  0  0  0
  -24.9940  -28.8930   19.8570 C   0  0  0  0  0  0  0  0  0  0  0  0
  -26.0020  -30.7810   21.1520 C   0  0  0  0  0  2  0  0  0  0  0  0
  -26.1300  -29.4430   20.4620 C   0  0  0  0  0  0  0  0  0  0  0  0
  -27.3600  -28.7580   20.4270 C   0  0  0  0  0  3  0  0  0  0  0  0
  -26.3060  -26.9690   19.1560 C   0  0  0  0  0  3  0  0  0  0  0  0
  -25.0740  -27.6500   19.2020 C   0  0  0  0  0  3  0  0  0  0  0  0
  -23.7180  -29.6990   19.9420 C   0  0  0  0  0  2  0  0  0  0  0  0
  -24.7370  -30.9510   21.9010 N   0  0  0  0  0  0  0  0  0  0  0  0
  -23.5800  -31.9270   23.5860 O   0  0  0  0  0  0  0  0  0  0  0  0
  -22.8880  -29.2470   22.2720 C   0  0  0  0  0  0  0  0  0  0  0  0
  -21.5680  -29.0380   22.1570 N   0  0  0  0  0  0  0  0  0  0  0  0
  -23.6030  -28.6040   23.0460 O   0  0  0  0  0  0  0  0  0  0  0  0
  -21.0540  -29.6070   21.4990 H   0  0  0  0  0  0  0  0  0  0  0  0
  -18.2270  -27.7620   22.6760 C   0  0  0  0  0  0  0  0  0  0  0  0
  -20.7850  -28.0500   22.8990 C   0  0  0  0  0  3  0  0  0  0  0  0
  -20.8990  -26.6520   22.2490 C   0  0  0  0  0  2  0  0  0  0  0  0
  -19.7770  -26.3600   21.2460 C   0  0  0  0  0  2  0  0  0  0  0  0
  -18.4090  -26.4500   21.9300 C   0  0  0  0  0  2  0  0  0  0  0  0
  -19.3430  -28.5210   23.1150 C   0  0  0  0  0  0  0  0  0  0  0  0
  -19.1210  -29.7500   23.7720 C   0  0  0  0  0  3  0  0  0  0  0  0
  -17.8140  -30.2240   23.9890 C   0  0  0  0  0  3  0  0  0  0  0  0
  -16.7120  -29.4610   23.5670 C   0  0  0  0  0  3  0  0  0  0  0  0
  -16.9190  -28.2320   22.9160 C   0  0  0  0  0  3  0  0  0  0  0  0
  -25.9370  -32.3590   23.6620 C   0  0  0  0  0  3  0  0  0  0  0  0
  -25.5840  -33.7320   24.0420 N   0  0  0  0  0  0  0  0  0  0  0  0
  -25.8840  -34.8220   23.3220 C   0  0  0  0  0  0  0  0  0  0  0  0
  -26.5580  -34.7770   22.2900 O   0  0  0  0  0  0  0  0  0  0  0  0
  -24.9810  -33.8400   24.8450 H   0  0  0  0  0  0  0  0  0  0  0  0
  -24.0960  -36.5650   23.0350 C   0  0  0  0  0  1  0  0  0  0  0  0
  -25.3520  -36.1740   23.8300 C   0  0  0  0  0  3  0  0  0  0  0  0
  -27.4580  -37.0970   24.6920 C   0  0  0  0  0  1  0  0  0  0  0  0
  -26.3490  -37.2650   23.7550 N   0  0  0  0  0  0  0  0  0  0  0  0
  -25.9140  -38.1650   23.9360 H   0  0  0  0  0  0  0  0  0  0  0  0
  -26.4930  -31.5590   24.9040 C   0  0  1  0  0  0  0  0  0  0  0  0
  -25.4180  -31.2490   25.9700 C   0  0  0  0  0  1  0  0  0  0  0  0
  -27.1160  -30.2150   24.4580 C   0  0  0  0  0  1  0  0  0  0  0  0
  -27.6220  -32.3690   25.5840 C   0  0  0  0  0  1  0  0  0  0  0  0
  -30.8090  -20.7980   21.2000 C   0  0  0  0  0  3  0  0  0  0  0  0
  -31.4480  -19.4610   21.3430 N   0  0  0  0  0  4  0  0  0  0  0  0
  -31.9980  -19.3060   20.5130 H   0  0  0  0  0  0  0  0  0  0  0  0
  -32.1010  -19.4970   22.1090 H   0  0  0  0  0  0  0  0  0  0  0  0
  -30.5720  -18.2780   21.5410 C   0  0  0  0  0  2  0  0  0  0  0  0
  -31.3090  -16.9840   21.1410 C   0  0  0  0  0  2  0  0  0  0  0  0
  -30.4900  -15.6770   21.3060 C   0  0  0  0  0  2  0  0  0  0  0  0
  -31.1020  -14.4890   20.5330 C   0  0  0  0  0  0  0  0  0  0  0  0
  -30.7550  -12.3620   19.3280 C   0  0  0  0  0  2  0  0  0  0  0  0
  -29.8530  -12.6080   18.1020 C   0  0  0  0  0  2  0  0  0  0  0  0
  -28.3670  -12.5010   18.4950 C   0  0  0  0  0  2  0  0  0  0  0  0
  -28.0190  -13.3450   19.7510 C   0  0  0  0  0  3  0  0  0  0  0  0
  -29.0400  -13.1000   20.8860 C   0  0  0  0  0  2  0  0  0  0  0  0
  -30.3870  -13.3470   20.3550 N   0  0  0  0  0  0  0  0  0  0  0  0
  -32.2130  -14.6480   20.0160 O   0  0  0  0  0  0  0  0  0  0  0  0
  -25.6080  -14.0030   20.3690 C   0  0  0  0  0  0  0  0  0  0  0  0
  -24.5170  -13.2550   20.7210 C   0  0  0  0  0  0  0  0  0  0  0  0
  -24.9580  -11.8960   20.7350 C   0  0  0  0  0  0  0  0  0  0  0  0
  -26.6470  -13.1020   20.1920 N   0  0  0  0  0  0  0  0  0  0  0  0
  -26.2560  -11.8310   20.4680 N   0  0  0  0  0  0  0  0  0  0  0  0
  -24.2080  -10.6490   20.9310 C   0  0  0  0  0  0  0  0  0  0  0  0
  -24.5920   -9.7010   21.9050 C   0  0  0  0  0  3  0  0  0  0  0  0
  -23.8440   -8.5180   22.0860 C   0  0  0  0  0  3  0  0  0  0  0  0
  -22.6970   -8.2740   21.2940 C   0  0  0  0  0  0  0  0  0  0  0  0
  -22.3320   -9.2100   20.3110 C   0  0  0  0  0  3  0  0  0  0  0  0
  -23.0810  -10.3850   20.1270 C   0  0  0  0  0  3  0  0  0  0  0  0
  -21.9250   -7.1410   21.3820 O   0  0  0  0  0  0  0  0  0  0  0  0
  -21.8140   -6.4350   22.5540 C   0  0  0  0  0  0  0  0  0  0  0  0
  -21.3500   -7.0360   23.7440 C   0  0  0  0  0  3  0  0  0  0  0  0
  -21.1840   -6.2580   24.9070 C   0  0  0  0  0  3  0  0  0  0  0  0
  -21.4730   -4.8810   24.8810 C   0  0  0  0  0  0  0  0  0  0  0  0
  -21.9310   -4.2800   23.6950 C   0  0  0  0  0  3  0  0  0  0  0  0
  -22.0980   -5.0550   22.5340 C   0  0  0  0  0  0  0  0  0  0  0  0
  -22.5180   -4.4670   21.3880 F   0  0  0  0  0  0  0  0  0  0  0  0
  -21.3070   -4.1310   25.9950 F   0  0  0  0  0  0  0  0  0  0  0  0
  -23.1200  -13.7580   20.9410 C   0  0  0  0  0  0  0  0  0  0  0  0
  -22.3590  -13.0960   21.8050 N   0  0  0  0  0  0  0  0  0  0  0  0
  -22.7100  -14.7730   20.3800 O   0  0  0  0  0  0  0  0  0  0  0  0
  -22.7000  -12.2730   22.2790 H   0  0  0  0  0  0  0  0  0  0  0  0
  -21.4190  -13.4160   21.9930 H   0  0  0  0  0  0  0  0  0  0  0  0
  -25.7990  -15.3660   20.1650 N   0  0  0  0  0  0  0  0  0  0  0  0
  -25.0400  -16.0350   20.2320 H   0  0  0  0  0  0  0  0  0  0  0  0
  -26.6670  -15.7830   19.8530 H   0  0  0  0  0  0  0  0  0  0  0  0
  -29.9960  -20.9290   19.8790 C   0  0  0  0  0  2  0  0  0  0  0  0
  -31.8090  -21.8990   18.3360 C   0  0  0  0  0  1  0  0  0  0  0  0
  -29.8600  -20.6340   17.3640 C   0  0  0  0  0  1  0  0  0  0  0  0
  -30.8050  -20.7540   18.5710 C   0  0  0  0  0  3  0  0  0  0  0  0
  2  1  1  0
  3  5  1  0
  3  4  1  0
  4  6  1  0
  4  1  1  0
  5 53  1  0
  5  2  1  0
  8  7  1  0
  8  6  1  0
  8  9  1  6
 10  8  1  0
 11 10  1  0
 12 14  1  0
 12 11  1  0
 13 24  2  0
 14 19  1  0
 15 23  1  0
 15 25  1  0
 16 22  1  0
 16 18  1  0
 17 23  1  0
 18 17  1  0
 19 18  2  0
 20 21  1  0
 20 14  2  0
 21 16  2  0
 22 15  1  0
 23 13  1  0
 25 27  2  0
 26 25  1  0
 28 26  1  0
 29 38  2  0
 29 34  1  0
 30 26  1  0
 30 34  1  0
 31 30  1  0
 32 33  1  0
 32 31  1  0
 33 29  1  0
 34 35  2  0
 35 36  1  0
 37 36  2  0
 38 37  1  0
 39 13  1  0
 39 40  1  0
 39 49  1  0
 40 43  1  0
 41 45  1  0
 41 40  1  0
 42 41  2  0
 45 44  1  0
 47 45  1  0
 47 48  1  0
 47 46  1  0
 49 52  1  1
 49 50  1  0
 51 49  1  0
 53 96  1  0
 53 54  1  0
 54 57  1  0
 54 56  1  0
 55 54  1  0
 58 59  1  0
 58 57  1  0
 60 59  1  0
 61 66  1  0
 62 63  1  0
 62 61  1  0
 64 63  1  0
 64 71  1  0
 64 65  1  0
 66 60  1  0
 66 65  1  0
 67 60  2  0
 68 69  2  0
 69 70  1  0
 69 88  1  0
 70 73  1  0
 71 68  1  0
 71 72  1  0
 72 70  2  0
 73 74  1  0
 74 75  2  0
 76 79  1  0
 76 75  1  0
 77 76  2  0
 78 77  1  0
 78 73  2  0
 79 80  1  0
 80 81  1  0
 81 82  2  0
 83 82  1  0
 83 87  1  0
 84 83  2  0
 85 80  2  0
 85 84  1  0
 86 85  1  0
 88 89  1  0
 89 92  1  0
 89 91  1  0
 90 88  2  0
 93 94  1  0
 93 68  1  0
 95 93  1  0
 97 99  1  0
 98 99  1  0
 99 96  1  0
M  ISO  4  11 101  12 101  59 100  60 100
M  END
>  <TORSDO>  (93) 
F 27

>  <SCORE>  (93) 
-10.715

>  <name>  (93) 
92

>  <ligand_id>  (93) 
92

>  <original_smiles>  (93) 
[H]c1c([H])c([H])c2c(c1[H])C([H])([H])C([H])([H])C([H])([H])C2([H])N([H])C(=O)C1([H])N(C(=O)C([H])(N([H])C(=O)C([H])(N([H])C([H])([H])[H])C([H])([H])[H])C(C([H])([H])[H])(C([H])([H])[H])C([H])([H])[H])C([H])([H])c2c([H])c(OC([H])([H])C([H])([H])[N+]([H])(C([H])([H])[H])C([H])([H])C3([H])C([H])([H])C([H])([H])C([H])(C([H])(C([H])([H])C([H])(C([H])([H])[H])C([H])([H])[H])[N+]([H])([H])C([H])([H])C([H])([H])C([H])([H])C(=O)N4C([H])([H])C([H])([H])C([H])([H])C([H])(n5nc(-c6c([H])c([H])c(Oc7c([H])c([H])c(F)c([H])c7F)c([H])c6[H])c(C(=O)N([H])[H])c5N([H])[H])C4([H])[H])C3([H])[H])c([H])c([H])c2C1([H])[H]

>  <smiles>  (93) 
[H]c1c([H])c([H])c2c(c1[H])C([H])([H])C([H])([H])C([H])([H])C2([H])N([H])C(=O)C1([H])N(C(=O)C([H])(N([H])C(=O)C([H])(N([H])C([H])([H])[H])C([H])([H])[H])C(C([H])([H])[H])(C([H])([H])[H])C([H])([H])[H])C([H])([H])c2c([H])c(OC([H])([H])C([H])([H])[N+]([H])(C([H])([H])[H])C([H])([H])C3([H])C([H])([H])C([H])([H])C([H])(C([H])(C([H])([H])C([H])(C([H])([H])[H])C([H])([H])[H])[N+]([H])([H])C([H])([H])C([H])([H])C([H])([H])C(=O)N4C([H])([H])C([H])([H])C([H])([H])C([H])(n5nc(-c6c([H])c([H])c(Oc7c([H])c([H])c(F)c([H])c7F)c([H])c6[H])c(C(=O)N([H])[H])c5N([H])[H])C4([H])[H])C3([H])[H])c([H])c([H])c2C1([H])[H]

$$$$
93:0:0
     RDKit          3D

 85 93  0  0  1  0  0  0  0  0999 V2000
  -31.1670  -21.1360   20.2400 C   0  0  0  0  0  3  0  0  0  0  0  0
  -30.8250  -19.7430   20.2650 C   0  0  0  0  0  3  0  0  0  0  0  0
  -30.2710  -22.2580   20.2500 C   0  0  0  0  0  3  0  0  0  0  0  0
  -28.5720  -20.5660   20.3130 C   0  0  0  0  0  3  0  0  0  0  0  0
  -29.5010  -19.2410   20.3060 C   0  0  0  0  0  0  0  0  0  0  0  0
  -28.8590  -22.1580   20.2870 C   0  0  0  0  0  0  0  0  0  0  0  0
  -29.2940  -17.3740   20.3760 C   0  0  0  0  0  2  0  0  0  0  0  0
  -30.2040  -15.7230   20.2110 C   0  0  0  0  0  0  0  0  0  0  0  0
  -30.3610  -13.1660   19.3880 C   0  0  0  0  0  2  0  0  0  0  0  0
  -29.4560  -12.7820   18.1780 C   0  0  0  0  0  2  0  0  0  0  0  0
  -28.0360  -12.4150   18.6360 C   0  0  0  0  0  2  0  0  0  0  0  0
  -27.5310  -13.3970   19.7160 C   0  0  0  0  0  3  0  0  0  0  0  0
  -28.5700  -13.6920   20.8210 C   0  0  0  0  0  2  0  0  0  0  0  0
  -29.7470  -14.3260   20.1820 N   0  0  0  0  0  0  0  0  0  0  0  0
  -31.4290  -15.6900   19.9790 O   0  0  0  0  0  0  0  0  0  0  0  0
  -25.1690  -13.8950   20.5050 C   0  0  0  0  0  0  0  0  0  0  0  0
  -24.1260  -13.1010   20.8850 C   0  0  0  0  0  0  0  0  0  0  0  0
  -24.6160  -11.7590   20.8540 C   0  0  0  0  0  0  0  0  0  0  0  0
  -26.2240  -13.0400   20.2500 N   0  0  0  0  0  0  0  0  0  0  0  0
  -25.9070  -11.7460   20.5280 N   0  0  0  0  0  0  0  0  0  0  0  0
  -23.9080  -10.4860   21.0560 C   0  0  0  0  0  0  0  0  0  0  0  0
  -24.3450   -9.5360   22.0050 C   0  0  0  0  0  3  0  0  0  0  0  0
  -23.6330   -8.3320   22.1960 C   0  0  0  0  0  3  0  0  0  0  0  0
  -22.4680   -8.0690   21.4360 C   0  0  0  0  0  0  0  0  0  0  0  0
  -22.0480   -9.0070   20.4760 C   0  0  0  0  0  3  0  0  0  0  0  0
  -22.7630  -10.2020   20.2840 C   0  0  0  0  0  3  0  0  0  0  0  0
  -21.7260   -6.9150   21.5350 O   0  0  0  0  0  0  0  0  0  0  0  0
  -21.6650   -6.1960   22.7020 C   0  0  0  0  0  0  0  0  0  0  0  0
  -21.1830   -6.7630   23.9020 C   0  0  0  0  0  3  0  0  0  0  0  0
  -21.0720   -5.9700   25.0610 C   0  0  0  0  0  3  0  0  0  0  0  0
  -21.4310   -4.6090   25.0200 C   0  0  0  0  0  0  0  0  0  0  0  0
  -21.9070   -4.0410   23.8250 C   0  0  0  0  0  3  0  0  0  0  0  0
  -22.0190   -4.8330   22.6690 C   0  0  0  0  0  0  0  0  0  0  0  0
  -22.4570   -4.2750   21.5140 F   0  0  0  0  0  0  0  0  0  0  0  0
  -21.3180   -3.8440   26.1320 F   0  0  0  0  0  0  0  0  0  0  0  0
  -22.7230  -13.5580   21.1600 C   0  0  0  0  0  0  0  0  0  0  0  0
  -22.0110  -12.8560   22.0340 N   0  0  0  0  0  0  0  0  0  0  0  0
  -22.2690  -14.5730   20.6340 O   0  0  0  0  0  0  0  0  0  0  0  0
  -22.3930  -12.0360   22.4810 H   0  0  0  0  0  0  0  0  0  0  0  0
  -21.0700  -13.1460   22.2620 H   0  0  0  0  0  0  0  0  0  0  0  0
  -25.3060  -15.2680   20.3230 N   0  0  0  0  0  0  0  0  0  0  0  0
  -24.5300  -15.9090   20.4440 H   0  0  0  0  0  0  0  0  0  0  0  0
  -26.1450  -15.7220   19.9840 H   0  0  0  0  0  0  0  0  0  0  0  0
  -27.8890  -23.7650   20.2510 C   0  0  0  0  0  2  0  0  0  0  0  0
  -28.1440  -25.5170   20.3220 O   0  0  0  0  0  0  0  0  0  0  0  0
  -24.6860  -31.8830   23.2040 C   0  0  0  0  0  0  0  0  0  0  0  0
  -27.1840  -26.7460   20.2660 C   0  0  0  0  0  0  0  0  0  0  0  0
  -23.4900  -30.4770   21.5830 C   0  0  0  0  0  3  0  0  0  0  0  0
  -24.9270  -28.8020   20.1870 C   0  0  0  0  0  0  0  0  0  0  0  0
  -26.0700  -30.5980   21.4590 C   0  0  0  0  0  2  0  0  0  0  0  0
  -26.1260  -29.1570   20.8170 C   0  0  0  0  0  0  0  0  0  0  0  0
  -27.2390  -28.1580   20.8210 C   0  0  0  0  0  3  0  0  0  0  0  0
  -25.9500  -26.6080   19.5790 C   0  0  0  0  0  3  0  0  0  0  0  0
  -24.8790  -27.5540   19.5440 C   0  0  0  0  0  3  0  0  0  0  0  0
  -23.7260  -29.7630   20.2200 C   0  0  0  0  0  2  0  0  0  0  0  0
  -24.7730  -31.0190   22.1340 N   0  0  0  0  0  0  0  0  0  0  0  0
  -23.5950  -32.1940   23.7120 O   0  0  0  0  0  0  0  0  0  0  0  0
  -22.7670  -29.5140   22.5640 C   0  0  0  0  0  0  0  0  0  0  0  0
  -21.4330  -29.3660   22.4410 N   0  0  0  0  0  0  0  0  0  0  0  0
  -23.4180  -28.8970   23.4110 O   0  0  0  0  0  0  0  0  0  0  0  0
  -20.9570  -29.9140   21.7370 H   0  0  0  0  0  0  0  0  0  0  0  0
  -18.0400  -28.1730   22.9640 C   0  0  0  0  0  0  0  0  0  0  0  0
  -20.6010  -28.4430   23.2240 C   0  0  0  0  0  3  0  0  0  0  0  0
  -20.7000  -27.0010   22.6690 C   0  0  0  0  0  2  0  0  0  0  0  0
  -19.5980  -26.6680   21.6580 C   0  0  0  0  0  2  0  0  0  0  0  0
  -18.2170  -26.8180   22.2990 C   0  0  0  0  0  2  0  0  0  0  0  0
  -19.1590  -28.9420   23.3840 C   0  0  0  0  0  0  0  0  0  0  0  0
  -18.9350  -30.2060   23.9720 C   0  0  0  0  0  3  0  0  0  0  0  0
  -17.6290  -30.7030   24.1410 C   0  0  0  0  0  3  0  0  0  0  0  0
  -16.5260  -29.9320   23.7340 C   0  0  0  0  0  3  0  0  0  0  0  0
  -16.7320  -28.6690   23.1520 C   0  0  0  0  0  3  0  0  0  0  0  0
  -25.9530  -32.5340   23.8390 C   0  0  0  0  0  3  0  0  0  0  0  0
  -25.6290  -33.9320   24.1860 N   0  0  0  0  0  0  0  0  0  0  0  0
  -25.9300  -35.0030   23.4390 C   0  0  0  0  0  0  0  0  0  0  0  0
  -26.5650  -34.9190   22.3860 O   0  0  0  0  0  0  0  0  0  0  0  0
  -25.0580  -34.0690   25.0070 H   0  0  0  0  0  0  0  0  0  0  0  0
  -24.1670  -36.7890   23.1990 C   0  0  0  0  0  1  0  0  0  0  0  0
  -25.4550  -36.3860   23.9360 C   0  0  0  0  0  3  0  0  0  0  0  0
  -27.6180  -37.2990   24.6620 C   0  0  0  0  0  1  0  0  0  0  0  0
  -26.4680  -37.4530   23.7750 N   0  0  0  0  0  0  0  0  0  0  0  0
  -26.0580  -38.3680   23.9430 H   0  0  0  0  0  0  0  0  0  0  0  0
  -26.4600  -31.7690   25.1250 C   0  0  1  0  0  0  0  0  0  0  0  0
  -25.3670  -31.5580   26.1990 C   0  0  0  0  0  1  0  0  0  0  0  0
  -27.0270  -30.3800   24.7590 C   0  0  0  0  0  1  0  0  0  0  0  0
  -27.6220  -32.5560   25.7770 C   0  0  0  0  0  1  0  0  0  0  0  0
  1  3  2  0
  1  2  1  0
  2  5  2  0
  3  6  1  0
  5  4  1  0
  5  7  1  0
  6  4  2  0
  8  7  1  0
  9 14  1  0
 10 11  1  0
 10  9  1  0
 12 11  1  0
 12 19  1  0
 12 13  1  0
 14  8  1  0
 14 13  1  0
 15  8  2  0
 16 17  2  0
 17 36  1  0
 18 17  1  0
 18 21  1  0
 19 16  1  0
 19 20  1  0
 20 18  2  0
 21 22  1  0
 22 23  2  0
 24 27  1  0
 24 23  1  0
 25 24  2  0
 26 25  1  0
 26 21  2  0
 27 28  1  0
 28 29  1  0
 29 30  2  0
 31 30  1  0
 31 35  1  0
 32 31  2  0
 33 28  2  0
 33 32  1  0
 34 33  1  0
 36 37  1  0
 37 40  1  0
 37 39  1  0
 38 36  2  0
 41 42  1  0
 41 16  1  0
 43 41  1  0
 44  6  1  0
 44 45  1  0
 46 57  2  0
 47 45  1  0
 47 52  1  0
 48 56  1  0
 48 58  1  0
 49 55  1  0
 49 51  1  0
 50 56  1  0
 51 52  2  0
 51 50  1  0
 53 47  2  0
 54 53  1  0
 54 49  2  0
 55 48  1  0
 56 46  1  0
 58 60  2  0
 59 58  1  0
 61 59  1  0
 62 71  2  0
 62 67  1  0
 63 59  1  0
 63 67  1  0
 64 63  1  0
 65 66  1  0
 65 64  1  0
 66 62  1  0
 67 68  2  0
 68 69  1  0
 70 69  2  0
 71 70  1  0
 72 46  1  0
 72 73  1  0
 72 82  1  0
 73 76  1  0
 74 78  1  0
 74 73  1  0
 75 74  2  0
 78 77  1  0
 80 78  1  0
 80 81  1  0
 80 79  1  0
 82 85  1  1
 82 83  1  0
 84 82  1  0
M  ISO  4   7 100   8 100  44 101  45 101
M  END
>  <TORSDO>  (94) 
F 18

>  <SCORE>  (94) 
-16.576

>  <name>  (94) 
93

>  <ligand_id>  (94) 
93

>  <original_smiles>  (94) 
[H]c1c([H])c(C([H])([H])Oc2c([H])c([H])c3c(c2[H])C([H])([H])N(C(=O)C([H])(N([H])C(=O)C([H])(N([H])C([H])([H])[H])C([H])([H])[H])C(C([H])([H])[H])(C([H])([H])[H])C([H])([H])[H])C([H])(C(=O)N([H])C2([H])c4c([H])c([H])c([H])c([H])c4C([H])([H])C([H])([H])C2([H])[H])C3([H])[H])c([H])c(C([H])([H])C(=O)N2C([H])([H])C([H])([H])C([H])([H])C([H])(n3nc(-c4c([H])c([H])c(Oc5c([H])c([H])c(F)c([H])c5F)c([H])c4[H])c(C(=O)N([H])[H])c3N([H])[H])C2([H])[H])c1[H]

>  <smiles>  (94) 
[H]c1c([H])c(C([H])([H])Oc2c([H])c([H])c3c(c2[H])C([H])([H])N(C(=O)C([H])(N([H])C(=O)C([H])(N([H])C([H])([H])[H])C([H])([H])[H])C(C([H])([H])[H])(C([H])([H])[H])C([H])([H])[H])C([H])(C(=O)N([H])C2([H])c4c([H])c([H])c([H])c([H])c4C([H])([H])C([H])([H])C2([H])[H])C3([H])[H])c([H])c(C([H])([H])C(=O)N2C([H])([H])C([H])([H])C([H])([H])C([H])(n3nc(-c4c([H])c([H])c(Oc5c([H])c([H])c(F)c([H])c5F)c([H])c4[H])c(C(=O)N([H])[H])c3N([H])[H])C2([H])[H])c1[H]

$$$$
94:0:0
     RDKit          3D

 90 98  0  0  1  0  0  0  0  0999 V2000
  -27.9680  -21.9920   21.2130 C   0  0  0  0  0  2  0  0  0  0  0  0
  -28.6450  -23.3550   20.8550 C   0  0  0  0  0  2  0  0  0  0  0  0
  -27.8470  -24.6140   21.2920 C   0  0  0  0  0  2  0  0  0  0  0  0
  -28.5840  -25.9820   21.1380 C   0  0  0  0  0  2  0  0  0  0  0  0
  -28.3120  -26.6860   19.9150 O   0  0  0  0  0  0  0  0  0  0  0  0
  -24.5410  -31.8330   23.1000 C   0  0  0  0  0  0  0  0  0  0  0  0
  -27.1680  -27.4510   19.9410 C   0  0  0  0  0  0  0  0  0  0  0  0
  -23.3150  -30.4250   21.4750 C   0  0  0  0  0  3  0  0  0  0  0  0
  -24.7600  -28.9250   20.0020 C   0  0  0  0  0  0  0  0  0  0  0  0
  -25.8290  -30.8270   21.2240 C   0  0  0  0  0  2  0  0  0  0  0  0
  -25.9230  -29.4590   20.5760 C   0  0  0  0  0  0  0  0  0  0  0  0
  -27.1310  -28.7270   20.5480 C   0  0  0  0  0  3  0  0  0  0  0  0
  -26.0010  -26.9390   19.3390 C   0  0  0  0  0  3  0  0  0  0  0  0
  -24.7950  -27.6650   19.3770 C   0  0  0  0  0  3  0  0  0  0  0  0
  -23.5020  -29.7590   20.0840 C   0  0  0  0  0  2  0  0  0  0  0  0
  -24.5800  -31.0400   21.9930 N   0  0  0  0  0  0  0  0  0  0  0  0
  -23.4690  -32.0860   23.6670 O   0  0  0  0  0  0  0  0  0  0  0  0
  -22.7010  -29.3880   22.4440 C   0  0  0  0  0  0  0  0  0  0  0  0
  -21.3810  -29.1670   22.3280 N   0  0  0  0  0  0  0  0  0  0  0  0
  -23.4080  -28.7860   23.2580 O   0  0  0  0  0  0  0  0  0  0  0  0
  -20.8660  -29.7060   21.6450 H   0  0  0  0  0  0  0  0  0  0  0  0
  -18.0540  -27.8680   22.8400 C   0  0  0  0  0  0  0  0  0  0  0  0
  -20.5990  -28.2090   23.1080 C   0  0  0  0  0  3  0  0  0  0  0  0
  -20.7500  -26.7770   22.5420 C   0  0  0  0  0  2  0  0  0  0  0  0
  -19.6610  -26.4120   21.5300 C   0  0  0  0  0  2  0  0  0  0  0  0
  -18.2750  -26.5200   22.1720 C   0  0  0  0  0  2  0  0  0  0  0  0
  -19.1450  -28.6670   23.2640 C   0  0  0  0  0  0  0  0  0  0  0  0
  -18.8870  -29.9280   23.8440 C   0  0  0  0  0  3  0  0  0  0  0  0
  -17.5670  -30.3890   24.0050 C   0  0  0  0  0  3  0  0  0  0  0  0
  -16.4880  -29.5850   23.6000 C   0  0  0  0  0  3  0  0  0  0  0  0
  -16.7330  -28.3260   23.0240 C   0  0  0  0  0  3  0  0  0  0  0  0
  -25.8350  -32.4770   23.6950 C   0  0  0  0  0  3  0  0  0  0  0  0
  -25.5090  -33.8600   24.0690 N   0  0  0  0  0  0  0  0  0  0  0  0
  -25.8090  -34.9380   23.3330 C   0  0  0  0  0  0  0  0  0  0  0  0
  -26.4610  -34.8730   22.2860 O   0  0  0  0  0  0  0  0  0  0  0  0
  -24.9310  -33.9830   24.8880 H   0  0  0  0  0  0  0  0  0  0  0  0
  -24.0510  -36.7100   23.0480 C   0  0  0  0  0  1  0  0  0  0  0  0
  -25.3060  -36.3030   23.8360 C   0  0  0  0  0  3  0  0  0  0  0  0
  -27.4350  -37.1940   24.6720 C   0  0  0  0  0  1  0  0  0  0  0  0
  -26.3220  -37.3730   23.7440 N   0  0  0  0  0  0  0  0  0  0  0  0
  -25.9030  -38.2810   23.9270 H   0  0  0  0  0  0  0  0  0  0  0  0
  -26.4150  -31.6830   24.9290 C   0  0  1  0  0  0  0  0  0  0  0  0
  -25.3650  -31.3790   26.0210 C   0  0  0  0  0  1  0  0  0  0  0  0
  -27.0260  -30.3370   24.4740 C   0  0  0  0  0  1  0  0  0  0  0  0
  -27.5620  -32.4900   25.5760 C   0  0  0  0  0  1  0  0  0  0  0  0
  -28.6330  -20.7500   20.5560 C   0  0  0  0  0  2  0  0  0  0  0  0
  -29.0930  -19.7870   21.5240 O   0  0  0  0  0  0  0  0  0  0  0  0
  -30.0590  -16.8630   19.3790 C   0  0  0  0  0  3  0  0  0  0  0  0
  -29.5850  -18.1440   19.7380 C   0  0  0  0  0  3  0  0  0  0  0  0
  -29.9610  -17.6040   22.0670 C   0  0  0  0  0  3  0  0  0  0  0  0
  -30.4940  -15.9310   20.3530 C   0  0  0  0  0  0  0  0  0  0  0  0
  -29.5340  -18.5410   21.0960 C   0  0  0  0  0  0  0  0  0  0  0  0
  -30.4400  -16.3190   21.7110 C   0  0  0  0  0  0  0  0  0  0  0  0
  -30.8860  -15.4890   22.6850 F   0  0  0  0  0  0  0  0  0  0  0  0
  -31.1380  -14.6440   19.8720 C   0  0  0  0  0  0  0  0  0  0  0  0
  -30.6970  -12.4890   18.7760 C   0  0  0  0  0  2  0  0  0  0  0  0
  -29.6580  -12.7340   17.6650 C   0  0  0  0  0  2  0  0  0  0  0  0
  -28.2260  -12.6030   18.2220 C   0  0  0  0  0  2  0  0  0  0  0  0
  -28.0200  -13.4160   19.5310 C   0  0  0  0  0  3  0  0  0  0  0  0
  -29.1750  -13.1890   20.5270 C   0  0  0  0  0  2  0  0  0  0  0  0
  -30.4420  -13.4720   19.8440 N   0  0  0  0  0  0  0  0  0  0  0  0
  -32.2240  -14.7700   19.2960 O   0  0  0  0  0  0  0  0  0  0  0  0
  -25.7840  -14.0120   20.6480 C   0  0  0  0  0  0  0  0  0  0  0  0
  -24.7220  -13.2430   21.0430 C   0  0  0  0  0  0  0  0  0  0  0  0
  -25.0820  -11.8920   20.7480 C   0  0  0  0  0  0  0  0  0  0  0  0
  -26.7250  -13.1290   20.1430 N   0  0  0  0  0  0  0  0  0  0  0  0
  -26.3140  -11.8390   20.2600 N   0  0  0  0  0  0  0  0  0  0  0  0
  -24.3000  -10.6530   20.8480 C   0  0  0  0  0  0  0  0  0  0  0  0
  -24.7210   -9.5730   21.6530 C   0  0  0  0  0  3  0  0  0  0  0  0
  -23.9440   -8.3980   21.7420 C   0  0  0  0  0  3  0  0  0  0  0  0
  -22.7280   -8.2950   21.0260 C   0  0  0  0  0  0  0  0  0  0  0  0
  -22.3230   -9.3620   20.2050 C   0  0  0  0  0  3  0  0  0  0  0  0
  -23.1030  -10.5300   20.1140 C   0  0  0  0  0  3  0  0  0  0  0  0
  -21.9200   -7.1830   21.0330 O   0  0  0  0  0  0  0  0  0  0  0  0
  -21.8190   -6.3740   22.1360 C   0  0  0  0  0  0  0  0  0  0  0  0
  -21.4170   -6.8730   23.3940 C   0  0  0  0  0  3  0  0  0  0  0  0
  -21.2620   -5.9920   24.4820 C   0  0  0  0  0  3  0  0  0  0  0  0
  -21.4970   -4.6140   24.3130 C   0  0  0  0  0  0  0  0  0  0  0  0
  -21.8940   -4.1160   23.0600 C   0  0  0  0  0  3  0  0  0  0  0  0
  -22.0530   -4.9940   21.9740 C   0  0  0  0  0  0  0  0  0  0  0  0
  -22.4130   -4.5050   20.7630 F   0  0  0  0  0  0  0  0  0  0  0  0
  -21.3400   -3.7650   25.3570 F   0  0  0  0  0  0  0  0  0  0  0  0
  -23.4080  -13.7380   21.5740 C   0  0  0  0  0  0  0  0  0  0  0  0
  -22.7670  -12.9710   22.4520 N   0  0  0  0  0  0  0  0  0  0  0  0
  -22.9620  -14.8370   21.2480 O   0  0  0  0  0  0  0  0  0  0  0  0
  -23.1340  -12.0780   22.7390 H   0  0  0  0  0  0  0  0  0  0  0  0
  -21.8910  -13.2900   22.8430 H   0  0  0  0  0  0  0  0  0  0  0  0
  -26.0190  -15.3820   20.6560 N   0  0  0  0  0  0  0  0  0  0  0  0
  -25.3230  -16.0500   20.9700 H   0  0  0  0  0  0  0  0  0  0  0  0
  -26.8620  -15.8250   20.3090 H   0  0  0  0  0  0  0  0  0  0  0  0
  2  1  1  0
  2  3  1  0
  4  3  1  0
  5  7  1  0
  5  4  1  0
  6 17  2  0
  7 12  1  0
  8 16  1  0
  8 18  1  0
  9 15  1  0
  9 11  1  0
 10 16  1  0
 11 10  1  0
 12 11  2  0
 13 14  1  0
 13  7  2  0
 14  9  2  0
 15  8  1  0
 16  6  1  0
 18 20  2  0
 19 18  1  0
 21 19  1  0
 22 31  2  0
 22 27  1  0
 23 19  1  0
 23 27  1  0
 24 23  1  0
 25 26  1  0
 25 24  1  0
 26 22  1  0
 27 28  2  0
 28 29  1  0
 30 29  2  0
 31 30  1  0
 32  6  1  0
 32 33  1  0
 32 42  1  0
 33 36  1  0
 34 38  1  0
 34 33  1  0
 35 34  2  0
 38 37  1  0
 40 38  1  0
 40 41  1  0
 40 39  1  0
 42 45  1  1
 42 43  1  0
 44 42  1  0
 46  1  1  0
 46 47  1  0
 48 49  2  0
 48 51  1  0
 49 52  1  0
 51 53  2  0
 52 47  1  0
 52 50  2  0
 53 50  1  0
 53 54  1  0
 55 51  1  0
 56 61  1  0
 57 58  1  0
 57 56  1  0
 59 58  1  0
 59 66  1  0
 59 60  1  0
 61 55  1  0
 61 60  1  0
 62 55  2  0
 63 88  1  0
 63 64  2  0
 64 83  1  0
 65 68  1  0
 65 64  1  0
 66 67  1  0
 66 63  1  0
 67 65  2  0
 68 69  1  0
 69 70  2  0
 71 74  1  0
 71 70  1  0
 72 71  2  0
 73 72  1  0
 73 68  2  0
 74 75  1  0
 75 76  1  0
 76 77  2  0
 78 77  1  0
 78 82  1  0
 79 78  2  0
 80 75  2  0
 80 79  1  0
 81 80  1  0
 83 84  1  0
 84 86  1  0
 84 87  1  0
 85 83  2  0
 88 89  1  0
 90 88  1  0
M  ISO  4   4 101   5 101  51 100  55 100
M  END
>  <TORSDO>  (95) 
F 22

>  <SCORE>  (95) 
-11.116

>  <name>  (95) 
94

>  <ligand_id>  (95) 
94

>  <original_smiles>  (95) 
[H]c1c([H])c([H])c2c(c1[H])C([H])([H])C([H])([H])C([H])([H])C2([H])N([H])C(=O)C1([H])N(C(=O)C([H])(N([H])C(=O)C([H])(N([H])C([H])([H])[H])C([H])([H])[H])C(C([H])([H])[H])(C([H])([H])[H])C([H])([H])[H])C([H])([H])c2c([H])c(OC([H])([H])C([H])([H])C([H])([H])C([H])([H])C([H])([H])Oc3c([H])c([H])c(C(=O)N4C([H])([H])C([H])([H])C([H])([H])C([H])(n5nc(-c6c([H])c([H])c(Oc7c([H])c([H])c(F)c([H])c7F)c([H])c6[H])c(C(=O)N([H])[H])c5N([H])[H])C4([H])[H])c(F)c3[H])c([H])c([H])c2C1([H])[H]

>  <smiles>  (95) 
[H]c1c([H])c([H])c2c(c1[H])C([H])([H])C([H])([H])C([H])([H])C2([H])N([H])C(=O)C1([H])N(C(=O)C([H])(N([H])C(=O)C([H])(N([H])C([H])([H])[H])C([H])([H])[H])C(C([H])([H])[H])(C([H])([H])[H])C([H])([H])[H])C([H])([H])c2c([H])c(OC([H])([H])C([H])([H])C([H])([H])C([H])([H])C([H])([H])Oc3c([H])c([H])c(C(=O)N4C([H])([H])C([H])([H])C([H])([H])C([H])(n5nc(-c6c([H])c([H])c(Oc7c([H])c([H])c(F)c([H])c7F)c([H])c6[H])c(C(=O)N([H])[H])c5N([H])[H])C4([H])[H])c(F)c3[H])c([H])c([H])c2C1([H])[H]

$$$$
95:0:0
     RDKit          3D

 95103  0  0  1  0  0  0  0  0999 V2000
  -31.0660  -22.9920   24.1790 C   0  0  0  0  0  2  0  0  0  0  0  0
  -31.1170  -21.6820   23.3990 C   0  0  0  0  0  2  0  0  0  0  0  0
  -30.4320  -23.9580   23.1810 C   0  0  0  0  0  2  0  0  0  0  0  0
  -29.8180  -21.7010   22.5760 C   0  0  0  0  0  3  0  0  0  0  0  0
  -29.4870  -23.1460   22.3700 N   0  0  1  0  0  4  0  0  0  0  0  0
  -29.6900  -23.3710   21.4080 H   0  0  0  0  0  0  0  0  0  0  0  0
  -29.9080  -20.9300   21.2270 C   0  0  0  0  0  2  0  0  0  0  0  0
  -28.9480  -19.0450   19.8420 C   0  0  0  0  0  1  0  0  0  0  0  0
  -29.5280  -19.4150   21.2270 C   0  0  0  0  0  3  0  0  0  0  0  0
  -30.6550  -18.4970   21.5660 N   0  0  0  0  0  4  0  0  0  0  0  0
  -31.2760  -18.4350   20.7760 H   0  0  0  0  0  0  0  0  0  0  0  0
  -31.1940  -18.8780   22.3260 H   0  0  0  0  0  0  0  0  0  0  0  0
  -30.2480  -17.1200   21.9700 C   0  0  0  0  0  2  0  0  0  0  0  0
  -30.9000  -16.0100   21.1050 C   0  0  0  0  0  2  0  0  0  0  0  0
  -30.1810  -14.6300   21.1870 C   0  0  0  0  0  2  0  0  0  0  0  0
  -30.6630  -13.5910   20.1450 C   0  0  0  0  0  0  0  0  0  0  0  0
  -30.2500  -11.5500   18.8000 C   0  0  0  0  0  2  0  0  0  0  0  0
  -29.2250  -11.8240   17.6830 C   0  0  0  0  0  2  0  0  0  0  0  0
  -27.7890  -11.6310   18.2050 C   0  0  0  0  0  2  0  0  0  0  0  0
  -27.5330  -12.3890   19.5340 C   0  0  0  0  0  3  0  0  0  0  0  0
  -28.6630  -12.1180   20.5560 C   0  0  0  0  0  2  0  0  0  0  0  0
  -29.9500  -12.4530   19.9240 N   0  0  0  0  0  0  0  0  0  0  0  0
  -31.6820  -13.8530   19.4960 O   0  0  0  0  0  0  0  0  0  0  0  0
  -25.1340  -12.9100   20.3200 C   0  0  0  0  0  0  0  0  0  0  0  0
  -24.1230  -12.1030   20.7650 C   0  0  0  0  0  0  0  0  0  0  0  0
  -24.6500  -10.7750   20.7690 C   0  0  0  0  0  0  0  0  0  0  0  0
  -26.2140  -12.0720   20.0810 N   0  0  0  0  0  0  0  0  0  0  0  0
  -25.9260  -10.7860   20.4080 N   0  0  0  0  0  0  0  0  0  0  0  0
  -23.9950   -9.4880   21.0430 C   0  0  0  0  0  0  0  0  0  0  0  0
  -24.4170   -8.6550   22.1010 C   0  0  0  0  0  3  0  0  0  0  0  0
  -23.7610   -7.4320   22.3560 C   0  0  0  0  0  3  0  0  0  0  0  0
  -22.6680   -7.0320   21.5520 C   0  0  0  0  0  0  0  0  0  0  0  0
  -22.2650   -7.8540   20.4850 C   0  0  0  0  0  3  0  0  0  0  0  0
  -22.9230   -9.0690   20.2290 C   0  0  0  0  0  3  0  0  0  0  0  0
  -21.9860   -5.8490   21.7100 O   0  0  0  0  0  0  0  0  0  0  0  0
  -21.8020   -5.2840   22.9460 C   0  0  0  0  0  0  0  0  0  0  0  0
  -21.0990   -5.9510   23.9730 C   0  0  0  0  0  3  0  0  0  0  0  0
  -20.8730   -5.3050   25.2050 C   0  0  0  0  0  3  0  0  0  0  0  0
  -21.3390   -3.9930   25.4090 C   0  0  0  0  0  0  0  0  0  0  0  0
  -22.0340   -3.3250   24.3860 C   0  0  0  0  0  3  0  0  0  0  0  0
  -22.2630   -3.9680   23.1570 C   0  0  0  0  0  0  0  0  0  0  0  0
  -22.9150   -3.3120   22.1660 F   0  0  0  0  0  0  0  0  0  0  0  0
  -21.1150   -3.3690   26.5890 F   0  0  0  0  0  0  0  0  0  0  0  0
  -22.7150  -12.5220   21.0790 C   0  0  0  0  0  0  0  0  0  0  0  0
  -22.0600  -11.8280   22.0020 N   0  0  0  0  0  0  0  0  0  0  0  0
  -22.2060  -13.5060   20.5420 O   0  0  0  0  0  0  0  0  0  0  0  0
  -22.4840  -11.0330   22.4570 H   0  0  0  0  0  0  0  0  0  0  0  0
  -21.1190  -12.0930   22.2570 H   0  0  0  0  0  0  0  0  0  0  0  0
  -25.2240  -14.2780   20.0780 N   0  0  0  0  0  0  0  0  0  0  0  0
  -24.4320  -14.9010   20.1920 H   0  0  0  0  0  0  0  0  0  0  0  0
  -26.0410  -14.7410   19.7000 H   0  0  0  0  0  0  0  0  0  0  0  0
  -28.0530  -23.4810   22.6190 C   0  0  0  0  0  2  0  0  0  0  0  0
  -27.5860  -24.7850   21.9330 C   0  0  0  0  0  2  0  0  0  0  0  0
  -27.4210  -24.6500   20.4040 C   0  0  0  0  0  2  0  0  0  0  0  0
  -27.4380  -25.9240   19.7730 O   0  0  0  0  0  0  0  0  0  0  0  0
  -24.3640  -31.1800   23.4330 C   0  0  0  0  0  0  0  0  0  0  0  0
  -26.3330  -26.7270   19.9300 C   0  0  0  0  0  0  0  0  0  0  0  0
  -22.9480  -30.1110   21.7030 C   0  0  0  0  0  3  0  0  0  0  0  0
  -24.1540  -28.5090   20.1240 C   0  0  0  0  0  0  0  0  0  0  0  0
  -25.4930  -30.1400   21.4730 C   0  0  0  0  0  2  0  0  0  0  0  0
  -25.3780  -28.8300   20.7240 C   0  0  0  0  0  0  0  0  0  0  0  0
  -26.4710  -27.9450   20.6220 C   0  0  0  0  0  3  0  0  0  0  0  0
  -25.0930  -26.4020   19.3410 C   0  0  0  0  0  3  0  0  0  0  0  0
  -24.0020  -27.2920   19.4320 C   0  0  0  0  0  3  0  0  0  0  0  0
  -23.0430  -29.5250   20.2680 C   0  0  0  0  0  2  0  0  0  0  0  0
  -24.2880  -30.4830   22.2640 N   0  0  0  0  0  0  0  0  0  0  0  0
  -23.3430  -31.5560   24.0220 O   0  0  0  0  0  0  0  0  0  0  0  0
  -22.1690  -29.1180   22.5910 C   0  0  0  0  0  0  0  0  0  0  0  0
  -20.8380  -29.0800   22.4240 N   0  0  0  0  0  0  0  0  0  0  0  0
  -22.7610  -28.3820   23.3860 O   0  0  0  0  0  0  0  0  0  0  0  0
  -20.4300  -29.7260   21.7620 H   0  0  0  0  0  0  0  0  0  0  0  0
  -17.3510  -28.1840   22.7160 C   0  0  0  0  0  0  0  0  0  0  0  0
  -19.9050  -28.1920   23.1160 C   0  0  0  0  0  3  0  0  0  0  0  0
  -19.9080  -26.7820   22.4820 C   0  0  0  0  0  2  0  0  0  0  0  0
  -18.8310  -26.6010   21.4060 C   0  0  0  0  0  2  0  0  0  0  0  0
  -17.4380  -26.8500   21.9950 C   0  0  0  0  0  2  0  0  0  0  0  0
  -18.5120  -28.8220   23.2280 C   0  0  0  0  0  0  0  0  0  0  0  0
  -18.3850  -30.0780   23.8600 C   0  0  0  0  0  3  0  0  0  0  0  0
  -17.1260  -30.6930   23.9870 C   0  0  0  0  0  3  0  0  0  0  0  0
  -15.9760  -30.0490   23.4960 C   0  0  0  0  0  3  0  0  0  0  0  0
  -16.0900  -28.7970   22.8670 C   0  0  0  0  0  3  0  0  0  0  0  0
  -25.7370  -31.5620   24.0720 C   0  0  0  0  0  3  0  0  0  0  0  0
  -26.1420  -30.6320   25.2810 C   0  0  1  0  0  0  0  0  0  0  0  0
  -25.0350  -30.4830   26.3500 C   0  0  0  0  0  1  0  0  0  0  0  0
  -26.5120  -29.2160   24.7780 C   0  0  0  0  0  1  0  0  0  0  0  0
  -27.4040  -31.1950   25.9800 C   0  0  0  0  0  1  0  0  0  0  0  0
  -25.6530  -32.9630   24.4990 N   0  0  0  0  0  0  0  0  0  0  0  0
  -26.1660  -33.9980   23.8190 C   0  0  0  0  0  0  0  0  0  0  0  0
  -26.8320  -33.8600   22.7870 O   0  0  0  0  0  0  0  0  0  0  0  0
  -25.0790  -33.1540   25.3080 H   0  0  0  0  0  0  0  0  0  0  0  0
  -24.7600  -36.0690   23.5730 C   0  0  0  0  0  1  0  0  0  0  0  0
  -25.9000  -35.4120   24.3690 C   0  0  0  0  0  3  0  0  0  0  0  0
  -28.1240  -35.8860   25.2950 C   0  0  0  0  0  1  0  0  0  0  0  0
  -27.0920  -36.2870   24.3420 N   0  0  0  0  0  0  0  0  0  0  0  0
  -26.8350  -37.2480   24.5460 H   0  0  0  0  0  0  0  0  0  0  0  0
  2  1  1  0
  3  1  1  0
  4  7  1  0
  4  2  1  0
  5  4  1  0
  5 52  1  0
  5  3  1  0
  5  6  1  6
  9  8  1  0
  9  7  1  0
  9 10  1  0
 10 13  1  0
 10 12  1  0
 11 10  1  0
 14 15  1  0
 14 13  1  0
 16 15  1  0
 17 22  1  0
 18 19  1  0
 18 17  1  0
 20 19  1  0
 20 27  1  0
 20 21  1  0
 22 16  1  0
 22 21  1  0
 23 16  2  0
 24 25  2  0
 25 26  1  0
 25 44  1  0
 26 29  1  0
 27 24  1  0
 27 28  1  0
 28 26  2  0
 29 30  1  0
 30 31  2  0
 32 35  1  0
 32 31  1  0
 33 32  2  0
 34 33  1  0
 34 29  2  0
 35 36  1  0
 36 41  2  0
 36 37  1  0
 37 38  2  0
 38 39  1  0
 39 43  1  0
 40 39  2  0
 41 40  1  0
 42 41  1  0
 44 45  1  0
 45 48  1  0
 45 47  1  0
 46 44  2  0
 49 50  1  0
 49 24  1  0
 51 49  1  0
 53 52  1  0
 54 53  1  0
 55 57  1  0
 55 54  1  0
 56 67  2  0
 57 62  1  0
 58 66  1  0
 58 68  1  0
 59 65  1  0
 59 61  1  0
 60 66  1  0
 61 60  1  0
 62 61  2  0
 63 64  1  0
 63 57  2  0
 64 59  2  0
 65 58  1  0
 66 56  1  0
 68 70  2  0
 69 68  1  0
 71 69  1  0
 72 81  2  0
 72 77  1  0
 73 69  1  0
 73 77  1  0
 74 73  1  0
 75 76  1  0
 75 74  1  0
 76 72  1  0
 77 78  2  0
 78 79  1  0
 80 79  2  0
 81 80  1  0
 82 56  1  0
 82 87  1  0
 82 83  1  0
 83 86  1  1
 83 84  1  0
 85 83  1  0
 87 90  1  0
 88 92  1  0
 88 87  1  0
 89 88  2  0
 92 91  1  0
 94 92  1  0
 94 95  1  0
 94 93  1  0
M  ISO  4  15 100  16 100  54 101  55 101
M  END
>  <TORSDO>  (96) 
F 25

>  <SCORE>  (96) 
-6.801

>  <name>  (96) 
95

>  <ligand_id>  (96) 
95

>  <original_smiles>  (96) 
[H]c1c([H])c([H])c2c(c1[H])C([H])([H])C([H])([H])C([H])([H])C2([H])N([H])C(=O)C1([H])N(C(=O)C([H])(N([H])C(=O)C([H])(N([H])C([H])([H])[H])C([H])([H])[H])C(C([H])([H])[H])(C([H])([H])[H])C([H])([H])[H])C([H])([H])c2c([H])c(OC([H])([H])C([H])([H])C([H])([H])[N+]3([H])C([H])([H])C([H])([H])C([H])([H])C3([H])C([H])([H])C([H])(C([H])([H])[H])[N+]([H])([H])C([H])([H])C([H])([H])C([H])([H])C(=O)N3C([H])([H])C([H])([H])C([H])([H])C([H])(n4nc(-c5c([H])c([H])c(Oc6c([H])c([H])c(F)c([H])c6F)c([H])c5[H])c(C(=O)N([H])[H])c4N([H])[H])C3([H])[H])c([H])c([H])c2C1([H])[H]

>  <smiles>  (96) 
[H]c1c([H])c([H])c2c(c1[H])C([H])([H])C([H])([H])C([H])([H])C2([H])N([H])C(=O)C1([H])N(C(=O)C([H])(N([H])C(=O)C([H])(N([H])C([H])([H])[H])C([H])([H])[H])C(C([H])([H])[H])(C([H])([H])[H])C([H])([H])[H])C([H])([H])c2c([H])c(OC([H])([H])C([H])([H])C([H])([H])[N+]3([H])C([H])([H])C([H])([H])C([H])([H])C3([H])C([H])([H])C([H])(C([H])([H])[H])[N+]([H])([H])C([H])([H])C([H])([H])C([H])([H])C(=O)N3C([H])([H])C([H])([H])C([H])([H])C([H])(n4nc(-c5c([H])c([H])c(Oc6c([H])c([H])c(F)c([H])c6F)c([H])c5[H])c(C(=O)N([H])[H])c4N([H])[H])C3([H])[H])c([H])c([H])c2C1([H])[H]

$$$$
96:0:0
     RDKit          3D

 93102  0  0  1  0  0  0  0  0999 V2000
  -29.2840  -20.8460   22.1340 N   0  0  0  0  0  4  0  0  0  0  0  0
  -28.7010  -20.7480   22.9500 H   0  0  0  0  0  0  0  0  0  0  0  0
  -28.7240  -20.6130   21.3320 H   0  0  0  0  0  0  0  0  0  0  0  0
  -29.4570  -16.7100   20.1610 C   0  0  0  0  0  3  0  0  0  0  0  0
  -29.3520  -18.0550   20.5850 C   0  0  0  0  0  3  0  0  0  0  0  0
  -30.9360  -16.1920   22.0430 C   0  0  0  0  0  3  0  0  0  0  0  0
  -30.2980  -15.7910   20.8430 C   0  0  0  0  0  0  0  0  0  0  0  0
  -30.0820  -18.4580   21.7210 C   0  0  0  0  0  0  0  0  0  0  0  0
  -30.8060  -17.5310   22.4650 C   0  0  0  0  0  0  0  0  0  0  0  0
  -31.5360  -18.1930   23.6080 C   0  0  0  0  0  2  0  0  0  0  0  0
  -31.0010  -19.6470   23.5930 C   0  0  0  0  0  2  0  0  0  0  0  0
  -30.3960  -19.8690   22.1850 C   0  0  0  0  0  3  0  0  0  0  0  0
  -30.7900  -14.5720   20.1120 C   0  0  0  0  0  0  0  0  0  0  0  0
  -30.3180  -12.4750   18.9180 C   0  0  0  0  0  2  0  0  0  0  0  0
  -29.3210  -12.7260   17.7720 C   0  0  0  0  0  2  0  0  0  0  0  0
  -27.8810  -12.5760   18.2900 C   0  0  0  0  0  2  0  0  0  0  0  0
  -27.6210  -13.3990   19.5820 C   0  0  0  0  0  3  0  0  0  0  0  0
  -28.7400  -13.1950   20.6280 C   0  0  0  0  0  2  0  0  0  0  0  0
  -30.0310  -13.4540   19.9790 N   0  0  0  0  0  0  0  0  0  0  0  0
  -31.8630  -14.7180   19.5240 O   0  0  0  0  0  0  0  0  0  0  0  0
  -25.2770  -13.9830   20.4660 C   0  0  0  0  0  0  0  0  0  0  0  0
  -24.2300  -13.2000   20.8720 C   0  0  0  0  0  0  0  0  0  0  0  0
  -24.6830  -11.8490   20.7670 C   0  0  0  0  0  0  0  0  0  0  0  0
  -26.3010  -13.1090   20.1390 N   0  0  0  0  0  0  0  0  0  0  0  0
  -25.9510  -11.8170   20.3780 N   0  0  0  0  0  0  0  0  0  0  0  0
  -23.9630  -10.5820   20.9580 C   0  0  0  0  0  0  0  0  0  0  0  0
  -24.3990   -9.6200   21.8950 C   0  0  0  0  0  3  0  0  0  0  0  0
  -23.6800   -8.4180   22.0750 C   0  0  0  0  0  3  0  0  0  0  0  0
  -22.5090   -8.1720   21.3180 C   0  0  0  0  0  0  0  0  0  0  0  0
  -22.0930   -9.1230   20.3700 C   0  0  0  0  0  3  0  0  0  0  0  0
  -22.8150  -10.3160   20.1880 C   0  0  0  0  0  3  0  0  0  0  0  0
  -21.7610   -7.0230   21.4070 O   0  0  0  0  0  0  0  0  0  0  0  0
  -21.6490   -6.3270   22.5840 C   0  0  0  0  0  0  0  0  0  0  0  0
  -21.1470   -6.9270   23.7590 C   0  0  0  0  0  3  0  0  0  0  0  0
  -20.9820   -6.1560   24.9280 C   0  0  0  0  0  3  0  0  0  0  0  0
  -21.3090   -4.7870   24.9210 C   0  0  0  0  0  0  0  0  0  0  0  0
  -21.8030   -4.1870   23.7490 C   0  0  0  0  0  3  0  0  0  0  0  0
  -21.9700   -4.9540   22.5830 C   0  0  0  0  0  0  0  0  0  0  0  0
  -22.4260   -4.3660   21.4510 F   0  0  0  0  0  0  0  0  0  0  0  0
  -21.1440   -4.0440   26.0410 F   0  0  0  0  0  0  0  0  0  0  0  0
  -22.8550  -13.6700   21.2490 C   0  0  0  0  0  0  0  0  0  0  0  0
  -22.1800  -12.9450   22.1350 N   0  0  0  0  0  0  0  0  0  0  0  0
  -22.3890  -14.7150   20.7960 O   0  0  0  0  0  0  0  0  0  0  0  0
  -22.5690  -12.0980   22.5220 H   0  0  0  0  0  0  0  0  0  0  0  0
  -21.2590  -13.2390   22.4290 H   0  0  0  0  0  0  0  0  0  0  0  0
  -25.4390  -15.3580   20.3250 N   0  0  0  0  0  0  0  0  0  0  0  0
  -24.6950  -16.0210   20.5090 H   0  0  0  0  0  0  0  0  0  0  0  0
  -26.2930  -15.8000   20.0080 H   0  0  0  0  0  0  0  0  0  0  0  0
  -29.7330  -22.2570   21.9770 C   0  0  0  0  0  2  0  0  0  0  0  0
  -28.6440  -23.1620   21.3640 C   0  0  0  0  0  2  0  0  0  0  0  0
  -29.0970  -24.6110   21.0590 C   0  0  0  0  0  2  0  0  0  0  0  0
  -28.0350  -25.3490   20.2280 C   0  0  0  0  0  2  0  0  0  0  0  0
  -28.2700  -26.7580   20.0740 O   0  0  0  0  0  0  0  0  0  0  0  0
  -24.4650  -31.8770   23.1760 C   0  0  0  0  0  0  0  0  0  0  0  0
  -27.1160  -27.5140   20.0140 C   0  0  0  0  0  0  0  0  0  0  0  0
  -23.2510  -30.4680   21.5470 C   0  0  0  0  0  3  0  0  0  0  0  0
  -24.7030  -28.9840   20.0680 C   0  0  0  0  0  0  0  0  0  0  0  0
  -25.7650  -30.8800   21.3020 C   0  0  0  0  0  2  0  0  0  0  0  0
  -25.8630  -29.5210   20.6420 C   0  0  0  0  0  0  0  0  0  0  0  0
  -27.0760  -28.7940   20.6100 C   0  0  0  0  0  3  0  0  0  0  0  0
  -25.9440  -27.0100   19.4020 C   0  0  0  0  0  3  0  0  0  0  0  0
  -24.7390  -27.7280   19.4420 C   0  0  0  0  0  3  0  0  0  0  0  0
  -23.4420  -29.8110   20.1550 C   0  0  0  0  0  2  0  0  0  0  0  0
  -24.5130  -31.0890   22.0650 N   0  0  0  0  0  0  0  0  0  0  0  0
  -23.3900  -32.1240   23.7410 O   0  0  0  0  0  0  0  0  0  0  0  0
  -22.6420  -29.4230   22.5090 C   0  0  0  0  0  0  0  0  0  0  0  0
  -21.3210  -29.2070   22.4000 N   0  0  0  0  0  0  0  0  0  0  0  0
  -23.3540  -28.8090   23.3100 O   0  0  0  0  0  0  0  0  0  0  0  0
  -20.8070  -29.7540   21.7230 H   0  0  0  0  0  0  0  0  0  0  0  0
  -17.9840  -27.9310   22.9380 C   0  0  0  0  0  0  0  0  0  0  0  0
  -20.5390  -28.2460   23.1760 C   0  0  0  0  0  3  0  0  0  0  0  0
  -20.6670  -26.8220   22.5900 C   0  0  0  0  0  2  0  0  0  0  0  0
  -19.5590  -26.4800   21.5880 C   0  0  0  0  0  2  0  0  0  0  0  0
  -18.1830  -26.5890   22.2520 C   0  0  0  0  0  2  0  0  0  0  0  0
  -19.0910  -28.7160   23.3570 C   0  0  0  0  0  0  0  0  0  0  0  0
  -18.8530  -29.9710   23.9570 C   0  0  0  0  0  3  0  0  0  0  0  0
  -17.5400  -30.4430   24.1430 C   0  0  0  0  0  3  0  0  0  0  0  0
  -16.4480  -29.6540   23.7420 C   0  0  0  0  0  3  0  0  0  0  0  0
  -16.6700  -28.4000   23.1450 C   0  0  0  0  0  3  0  0  0  0  0  0
  -25.7530  -32.5270   23.7730 C   0  0  0  0  0  3  0  0  0  0  0  0
  -25.4300  -33.9200   24.1080 N   0  0  0  0  0  0  0  0  0  0  0  0
  -25.7410  -34.9770   23.3460 C   0  0  0  0  0  0  0  0  0  0  0  0
  -26.4030  -34.8820   22.3080 O   0  0  0  0  0  0  0  0  0  0  0  0
  -24.8440  -34.0660   24.9170 H   0  0  0  0  0  0  0  0  0  0  0  0
  -23.9920  -36.7480   22.9970 C   0  0  0  0  0  1  0  0  0  0  0  0
  -25.2380  -36.3570   23.8080 C   0  0  0  0  0  3  0  0  0  0  0  0
  -27.3610  -37.2640   24.6420 C   0  0  0  0  0  1  0  0  0  0  0  0
  -26.2580  -37.4220   23.6970 N   0  0  0  0  0  0  0  0  0  0  0  0
  -25.8400  -38.3370   23.8470 H   0  0  0  0  0  0  0  0  0  0  0  0
  -26.3070  -31.7620   25.0370 C   0  0  1  0  0  0  0  0  0  0  0  0
  -25.2380  -31.5030   26.1250 C   0  0  0  0  0  1  0  0  0  0  0  0
  -26.9070  -30.3960   24.6300 C   0  0  0  0  0  1  0  0  0  0  0  0
  -27.4540  -32.5760   25.6810 C   0  0  0  0  0  1  0  0  0  0  0  0
  1  2  1  0
  3  1  1  0
  4  5  2  0
  4  7  1  0
  5  8  1  0
  6  9  1  0
  7  6  2  0
  8 12  1  0
  8  9  2  0
  9 10  1  0
 11 10  1  0
 12  1  1  0
 12 11  1  0
 13  7  1  0
 14 19  1  0
 15 16  1  0
 15 14  1  0
 17 16  1  0
 17 24  1  0
 17 18  1  0
 19 13  1  0
 19 18  1  0
 20 13  2  0
 21 22  2  0
 22 41  1  0
 23 22  1  0
 23 26  1  0
 24 25  1  0
 24 21  1  0
 25 23  2  0
 26 27  1  0
 27 28  2  0
 29 32  1  0
 29 28  1  0
 30 29  2  0
 31 30  1  0
 31 26  2  0
 32 33  1  0
 33 34  1  0
 34 35  2  0
 36 35  1  0
 36 40  1  0
 37 36  2  0
 38 33  2  0
 38 37  1  0
 39 38  1  0
 41 42  1  0
 42 45  1  0
 42 44  1  0
 43 41  2  0
 46 21  1  0
 46 47  1  0
 48 46  1  0
 49  1  1  0
 50 49  1  0
 51 50  1  0
 52 51  1  0
 53 52  1  0
 54 65  2  0
 55 53  1  0
 55 60  1  0
 56 64  1  0
 56 66  1  0
 57 63  1  0
 57 59  1  0
 58 64  1  0
 59 58  1  0
 60 59  2  0
 61 62  1  0
 61 55  2  0
 62 57  2  0
 63 56  1  0
 64 54  1  0
 66 68  2  0
 67 66  1  0
 69 67  1  0
 70 79  2  0
 70 75  1  0
 71 67  1  0
 71 75  1  0
 72 71  1  0
 73 74  1  0
 73 72  1  0
 74 70  1  0
 75 76  2  0
 76 77  1  0
 78 77  2  0
 79 78  1  0
 80 54  1  0
 80 81  1  0
 80 90  1  0
 81 84  1  0
 82 86  1  0
 82 81  1  0
 83 82  2  0
 86 85  1  0
 88 86  1  0
 88 89  1  0
 88 87  1  0
 90 93  1  1
 90 91  1  0
 92 90  1  0
M  ISO  4   7 100  13 100  52 101  53 101
M  END
>  <TORSDO>  (97) 
F 21

>  <SCORE>  (97) 
-12.036

>  <name>  (97) 
96

>  <ligand_id>  (97) 
96

>  <original_smiles>  (97) 
[H]c1c([H])c([H])c2c(c1[H])C([H])([H])C([H])([H])C([H])([H])C2([H])N([H])C(=O)C1([H])N(C(=O)C([H])(N([H])C(=O)C([H])(N([H])C([H])([H])[H])C([H])([H])[H])C(C([H])([H])[H])(C([H])([H])[H])C([H])([H])[H])C([H])([H])c2c([H])c(OC([H])([H])C([H])([H])C([H])([H])C([H])([H])[N+]([H])([H])C3([H])c4c([H])c([H])c(C(=O)N5C([H])([H])C([H])([H])C([H])([H])C([H])(n6nc(-c7c([H])c([H])c(Oc8c([H])c([H])c(F)c([H])c8F)c([H])c7[H])c(C(=O)N([H])[H])c6N([H])[H])C5([H])[H])c([H])c4C([H])([H])C3([H])[H])c([H])c([H])c2C1([H])[H]

>  <smiles>  (97) 
[H]c1c([H])c([H])c2c(c1[H])C([H])([H])C([H])([H])C([H])([H])C2([H])N([H])C(=O)C1([H])N(C(=O)C([H])(N([H])C(=O)C([H])(N([H])C([H])([H])[H])C([H])([H])[H])C(C([H])([H])[H])(C([H])([H])[H])C([H])([H])[H])C([H])([H])c2c([H])c(OC([H])([H])C([H])([H])C([H])([H])C([H])([H])[N+]([H])([H])C3([H])c4c([H])c([H])c(C(=O)N5C([H])([H])C([H])([H])C([H])([H])C([H])(n6nc(-c7c([H])c([H])c(Oc8c([H])c([H])c(F)c([H])c8F)c([H])c7[H])c(C(=O)N([H])[H])c6N([H])[H])C5([H])[H])c([H])c4C([H])([H])C3([H])[H])c([H])c([H])c2C1([H])[H]

$$$$
97:0:0
     RDKit          3D

 95104  0  0  1  0  0  0  0  0999 V2000
  -31.1140  -23.0790   21.2890 C   0  0  0  0  0  2  0  0  0  0  0  0
  -29.1000  -22.4940   22.7000 C   0  0  0  0  0  2  0  0  0  0  0  0
  -31.9020  -21.9620   21.9690 C   0  0  0  0  0  2  0  0  0  0  0  0
  -29.8930  -21.3260   23.3350 C   0  0  0  0  0  2  0  0  0  0  0  0
  -30.4180  -20.0490   21.1740 C   0  0  0  0  0  2  0  0  0  0  0  0
  -31.9700  -19.7940   23.1530 C   0  0  0  0  0  2  0  0  0  0  0  0
  -29.8740  -18.6420   21.4980 C   0  0  0  0  0  2  0  0  0  0  0  0
  -31.4400  -18.3580   23.3210 C   0  0  0  0  0  2  0  0  0  0  0  0
  -30.0260  -23.6330   22.2260 C   0  0  0  0  0  3  0  0  0  0  0  0
  -31.0170  -20.7730   22.4110 C   0  0  1  0  0  0  0  0  0  0  0  0
  -30.9900  -17.8120   22.0150 N   0  0  1  0  0  4  0  0  0  0  0  0
  -31.7540  -17.9880   21.3810 H   0  0  0  0  0  0  0  0  0  0  0  0
  -29.2410  -24.7740   21.5540 C   0  0  0  0  0  2  0  0  0  0  0  0
  -30.1560  -25.9180   21.0750 C   0  0  0  0  0  2  0  0  0  0  0  0
  -29.3960  -27.2010   20.7440 C   0  0  0  0  0  2  0  0  0  0  0  0
  -28.4040  -26.9460   19.7520 O   0  0  0  0  0  0  0  0  0  0  0  0
  -24.5330  -31.8600   23.1600 C   0  0  0  0  0  0  0  0  0  0  0  0
  -27.2490  -27.6910   19.8240 C   0  0  0  0  0  0  0  0  0  0  0  0
  -23.3330  -30.5260   21.4530 C   0  0  0  0  0  3  0  0  0  0  0  0
  -24.8010  -29.1000   19.9310 C   0  0  0  0  0  0  0  0  0  0  0  0
  -25.8370  -30.9680   21.2380 C   0  0  0  0  0  2  0  0  0  0  0  0
  -25.9460  -29.6360   20.5310 C   0  0  0  0  0  0  0  0  0  0  0  0
  -27.1690  -28.9460   20.4710 C   0  0  0  0  0  3  0  0  0  0  0  0
  -26.0900  -27.1650   19.2140 C   0  0  0  0  0  3  0  0  0  0  0  0
  -24.8660  -27.8610   19.2680 C   0  0  0  0  0  3  0  0  0  0  0  0
  -23.5370  -29.9230   20.0350 C   0  0  0  0  0  2  0  0  0  0  0  0
  -24.5870  -31.1280   22.0110 N   0  0  0  0  0  0  0  0  0  0  0  0
  -23.4550  -32.0800   23.7280 O   0  0  0  0  0  0  0  0  0  0  0  0
  -22.7140  -29.4420   22.3630 C   0  0  0  0  0  0  0  0  0  0  0  0
  -21.3940  -29.2360   22.2290 N   0  0  0  0  0  0  0  0  0  0  0  0
  -23.4170  -28.7930   23.1420 O   0  0  0  0  0  0  0  0  0  0  0  0
  -20.8900  -29.8140   21.5720 H   0  0  0  0  0  0  0  0  0  0  0  0
  -18.0480  -27.9540   22.6760 C   0  0  0  0  0  0  0  0  0  0  0  0
  -20.6010  -28.2420   22.9520 C   0  0  0  0  0  3  0  0  0  0  0  0
  -20.7270  -26.8480   22.2980 C   0  0  0  0  0  2  0  0  0  0  0  0
  -19.6270  -26.5620   21.2720 C   0  0  0  0  0  2  0  0  0  0  0  0
  -18.2460  -26.6470   21.9280 C   0  0  0  0  0  2  0  0  0  0  0  0
  -19.1550  -28.7120   23.1430 C   0  0  0  0  0  0  0  0  0  0  0  0
  -18.9170  -29.9370   23.8010 C   0  0  0  0  0  3  0  0  0  0  0  0
  -17.6050  -30.4070   23.9980 C   0  0  0  0  0  3  0  0  0  0  0  0
  -16.5120  -29.6460   23.5480 C   0  0  0  0  0  3  0  0  0  0  0  0
  -16.7350  -28.4210   22.8930 C   0  0  0  0  0  3  0  0  0  0  0  0
  -25.8170  -32.4760   23.8000 C   0  0  0  0  0  3  0  0  0  0  0  0
  -25.5080  -33.8660   24.1610 N   0  0  0  0  0  0  0  0  0  0  0  0
  -25.8510  -34.9340   23.4280 C   0  0  0  0  0  0  0  0  0  0  0  0
  -26.5310  -34.8530   22.4020 O   0  0  0  0  0  0  0  0  0  0  0  0
  -24.9050  -34.0040   24.9580 H   0  0  0  0  0  0  0  0  0  0  0  0
  -24.1220  -36.7280   23.0970 C   0  0  0  0  0  1  0  0  0  0  0  0
  -25.3580  -36.3120   23.9100 C   0  0  0  0  0  3  0  0  0  0  0  0
  -27.4830  -37.1780   24.7800 C   0  0  0  0  0  1  0  0  0  0  0  0
  -26.3920  -37.3670   23.8290 N   0  0  0  0  0  0  0  0  0  0  0  0
  -25.9840  -38.2840   23.9910 H   0  0  0  0  0  0  0  0  0  0  0  0
  -26.3340  -31.6730   25.0570 C   0  0  1  0  0  0  0  0  0  0  0  0
  -25.2350  -31.3880   26.1070 C   0  0  0  0  0  1  0  0  0  0  0  0
  -26.9340  -30.3160   24.6220 C   0  0  0  0  0  1  0  0  0  0  0  0
  -27.4700  -32.4600   25.7510 C   0  0  0  0  0  1  0  0  0  0  0  0
  -30.8720  -16.3170   21.9960 C   0  0  0  0  0  2  0  0  0  0  0  0
  -29.6740  -15.6720   21.2430 C   0  0  0  0  0  2  0  0  0  0  0  0
  -29.7780  -15.5430   19.7010 C   0  0  0  0  0  2  0  0  0  0  0  0
  -30.4210  -14.2530   19.1660 C   0  0  0  0  0  0  0  0  0  0  0  0
  -30.1150  -11.9020   18.4780 C   0  0  0  0  0  2  0  0  0  0  0  0
  -29.0140  -11.8270   17.4020 C   0  0  0  0  0  2  0  0  0  0  0  0
  -27.6210  -11.6980   18.0490 C   0  0  0  0  0  2  0  0  0  0  0  0
  -27.3790  -12.7670   19.1470 C   0  0  0  0  0  3  0  0  0  0  0  0
  -28.5790  -12.8230   20.1210 C   0  0  0  0  0  2  0  0  0  0  0  0
  -29.8060  -13.0530   19.3380 N   0  0  0  0  0  0  0  0  0  0  0  0
  -31.4240  -14.3870   18.4610 O   0  0  0  0  0  0  0  0  0  0  0  0
  -25.1500  -13.4340   20.2610 C   0  0  0  0  0  0  0  0  0  0  0  0
  -24.1340  -12.6880   20.7950 C   0  0  0  0  0  0  0  0  0  0  0  0
  -24.5380  -11.3230   20.6630 C   0  0  0  0  0  0  0  0  0  0  0  0
  -26.1150  -12.5280   19.8460 N   0  0  0  0  0  0  0  0  0  0  0  0
  -25.7540  -11.2520   20.1380 N   0  0  0  0  0  0  0  0  0  0  0  0
  -23.8100  -10.0790   20.9520 C   0  0  0  0  0  0  0  0  0  0  0  0
  -24.2970   -9.1410   21.8870 C   0  0  0  0  0  3  0  0  0  0  0  0
  -23.5690   -7.9620   22.1660 C   0  0  0  0  0  3  0  0  0  0  0  0
  -22.3400   -7.7130   21.5080 C   0  0  0  0  0  0  0  0  0  0  0  0
  -21.8710   -8.6430   20.5630 C   0  0  0  0  0  3  0  0  0  0  0  0
  -22.6000   -9.8120   20.2820 C   0  0  0  0  0  3  0  0  0  0  0  0
  -21.5760   -6.5860   21.7000 O   0  0  0  0  0  0  0  0  0  0  0  0
  -21.5440   -5.9350   22.9070 C   0  0  0  0  0  0  0  0  0  0  0  0
  -21.1300   -6.5780   24.0950 C   0  0  0  0  0  3  0  0  0  0  0  0
  -21.0440   -5.8460   25.2960 C   0  0  0  0  0  3  0  0  0  0  0  0
  -21.3650   -4.4750   25.3130 C   0  0  0  0  0  0  0  0  0  0  0  0
  -21.7740   -3.8350   24.1300 C   0  0  0  0  0  3  0  0  0  0  0  0
  -21.8590   -4.5610   22.9300 C   0  0  0  0  0  0  0  0  0  0  0  0
  -22.2310   -3.9320   21.7890 F   0  0  0  0  0  0  0  0  0  0  0  0
  -21.2720   -3.7720   26.4640 F   0  0  0  0  0  0  0  0  0  0  0  0
  -22.8210  -13.1960   21.3200 C   0  0  0  0  0  0  0  0  0  0  0  0
  -22.2440  -12.5160   22.3070 N   0  0  0  0  0  0  0  0  0  0  0  0
  -22.3180  -14.2310   20.8840 O   0  0  0  0  0  0  0  0  0  0  0  0
  -22.6470  -11.6660   22.6750 H   0  0  0  0  0  0  0  0  0  0  0  0
  -21.3770  -12.8540   22.7000 H   0  0  0  0  0  0  0  0  0  0  0  0
  -25.3340  -14.8060   20.0810 N   0  0  0  0  0  0  0  0  0  0  0  0
  -24.6200  -15.4960   20.2910 H   0  0  0  0  0  0  0  0  0  0  0  0
  -26.1830  -15.2170   19.7180 H   0  0  0  0  0  0  0  0  0  0  0  0
  1  3  1  0
  1  9  1  0
  2  4  1  0
 10  3  1  6
  5  7  1  0
  6  8  1  0
  7 11  1  0
  9 13  1  0
  9  2  1  0
 10  5  1  0
 10  6  1  0
 10  4  1  0
 11  8  1  0
 11 12  1  6
 14 13  1  0
 15 14  1  0
 16 18  1  0
 16 15  1  0
 17 28  2  0
 18 23  1  0
 19 27  1  0
 19 29  1  0
 20 26  1  0
 20 22  1  0
 21 27  1  0
 22 21  1  0
 23 22  2  0
 24 25  1  0
 24 18  2  0
 25 20  2  0
 26 19  1  0
 27 17  1  0
 29 31  2  0
 30 29  1  0
 32 30  1  0
 33 42  2  0
 33 38  1  0
 34 30  1  0
 34 38  1  0
 35 34  1  0
 36 37  1  0
 36 35  1  0
 37 33  1  0
 38 39  2  0
 39 40  1  0
 41 40  2  0
 42 41  1  0
 43 17  1  0
 43 44  1  0
 43 53  1  0
 44 47  1  0
 45 49  1  0
 45 44  1  0
 46 45  2  0
 49 48  1  0
 51 49  1  0
 51 52  1  0
 51 50  1  0
 53 56  1  1
 53 54  1  0
 55 53  1  0
 57 11  1  0
 58 57  1  0
 59 58  1  0
 60 66  1  0
 60 59  1  0
 61 66  1  0
 62 63  1  0
 62 61  1  0
 64 63  1  0
 64 71  1  0
 64 65  1  0
 66 65  1  0
 67 60  2  0
 68 69  2  0
 69 88  1  0
 70 69  1  0
 70 73  1  0
 71 72  1  0
 71 68  1  0
 72 70  2  0
 73 74  1  0
 74 75  2  0
 76 79  1  0
 76 75  1  0
 77 76  2  0
 78 77  1  0
 78 73  2  0
 79 80  1  0
 80 85  2  0
 80 81  1  0
 81 82  2  0
 82 83  1  0
 83 87  1  0
 84 83  2  0
 85 84  1  0
 86 85  1  0
 88 89  1  0
 89 91  1  0
 89 92  1  0
 90 88  2  0
 93 68  1  0
 93 94  1  0
 95 93  1  0
M  ISO  4  15 101  16 101  59 100  60 100
M  END
>  <TORSDO>  (98) 
F 22

>  <SCORE>  (98) 
-10.960

>  <name>  (98) 
97

>  <ligand_id>  (98) 
97

>  <original_smiles>  (98) 
[H]c1c([H])c([H])c2c(c1[H])C([H])([H])C([H])([H])C([H])([H])C2([H])N([H])C(=O)C1([H])N(C(=O)C([H])(N([H])C(=O)C([H])(N([H])C([H])([H])[H])C([H])([H])[H])C(C([H])([H])[H])(C([H])([H])[H])C([H])([H])[H])C([H])([H])c2c([H])c(OC([H])([H])C([H])([H])C([H])([H])C3([H])C([H])([H])C([H])([H])C4(C([H])([H])C3([H])[H])C([H])([H])C([H])([H])[N+]([H])(C([H])([H])C([H])([H])C([H])([H])C(=O)N3C([H])([H])C([H])([H])C([H])([H])C([H])(n5nc(-c6c([H])c([H])c(Oc7c([H])c([H])c(F)c([H])c7F)c([H])c6[H])c(C(=O)N([H])[H])c5N([H])[H])C3([H])[H])C([H])([H])C4([H])[H])c([H])c([H])c2C1([H])[H]

>  <smiles>  (98) 
[H]c1c([H])c([H])c2c(c1[H])C([H])([H])C([H])([H])C([H])([H])C2([H])N([H])C(=O)C1([H])N(C(=O)C([H])(N([H])C(=O)C([H])(N([H])C([H])([H])[H])C([H])([H])[H])C(C([H])([H])[H])(C([H])([H])[H])C([H])([H])[H])C([H])([H])c2c([H])c(OC([H])([H])C([H])([H])C([H])([H])C3([H])C([H])([H])C([H])([H])C4(C([H])([H])C3([H])[H])C([H])([H])C([H])([H])[N+]([H])(C([H])([H])C([H])([H])C([H])([H])C(=O)N3C([H])([H])C([H])([H])C([H])([H])C([H])(n5nc(-c6c([H])c([H])c(Oc7c([H])c([H])c(F)c([H])c7F)c([H])c6[H])c(C(=O)N([H])[H])c5N([H])[H])C3([H])[H])C([H])([H])C4([H])[H])c([H])c([H])c2C1([H])[H]

$$$$
98:0:0
     RDKit          3D

 91 98  0  0  1  0  0  0  0  0999 V2000
  -30.7390  -19.6510   20.8180 C   0  0  0  0  0  0  0  0  0  0  0  0
  -29.8150  -20.6200   20.7290 N   0  0  0  0  0  0  0  0  0  0  0  0
  -31.9210  -19.8520   20.5270 O   0  0  0  0  0  0  0  0  0  0  0  0
  -28.8630  -20.3910   20.9860 H   0  0  0  0  0  0  0  0  0  0  0  0
  -30.3180  -18.2650   21.3400 C   0  0  0  0  0  2  0  0  0  0  0  0
  -28.4990  -17.2440   19.8850 C   0  0  0  0  0  1  0  0  0  0  0  0
  -29.9770  -17.1090   20.3190 C   0  0  1  0  0  0  0  0  0  0  0  0
  -30.4860  -18.1600   17.8960 C   0  0  0  0  0  1  0  0  0  0  0  0
  -30.8620  -17.1650   19.0170 C   0  0  0  0  0  2  0  0  0  0  0  0
  -30.1210  -15.7410   21.1320 C   0  0  0  0  0  2  0  0  0  0  0  0
  -30.7130  -14.4810   20.4370 C   0  0  0  0  0  0  0  0  0  0  0  0
  -30.3630  -12.3660   19.2240 C   0  0  0  0  0  2  0  0  0  0  0  0
  -29.4130  -12.6190   18.0350 C   0  0  0  0  0  2  0  0  0  0  0  0
  -27.9420  -12.4820   18.4740 C   0  0  0  0  0  2  0  0  0  0  0  0
  -27.6240  -13.2760   19.7700 C   0  0  0  0  0  3  0  0  0  0  0  0
  -28.6920  -13.0140   20.8540 C   0  0  0  0  0  2  0  0  0  0  0  0
  -30.0080  -13.3280   20.2810 N   0  0  0  0  0  0  0  0  0  0  0  0
  -31.8540  -14.5900   19.9810 O   0  0  0  0  0  0  0  0  0  0  0  0
  -25.2240  -13.8650   20.4860 C   0  0  0  0  0  0  0  0  0  0  0  0
  -24.1630  -13.0850   20.8590 C   0  0  0  0  0  0  0  0  0  0  0  0
  -24.6350  -11.7370   20.8310 C   0  0  0  0  0  0  0  0  0  0  0  0
  -26.2750  -12.9920   20.2560 N   0  0  0  0  0  0  0  0  0  0  0  0
  -25.9230  -11.7060   20.5200 N   0  0  0  0  0  0  0  0  0  0  0  0
  -23.9200  -10.4700   21.0300 C   0  0  0  0  0  0  0  0  0  0  0  0
  -24.3650   -9.5070   21.9620 C   0  0  0  0  0  3  0  0  0  0  0  0
  -23.6520   -8.3030   22.1460 C   0  0  0  0  0  3  0  0  0  0  0  0
  -22.4760   -8.0540   21.3970 C   0  0  0  0  0  0  0  0  0  0  0  0
  -22.0500   -9.0040   20.4530 C   0  0  0  0  0  3  0  0  0  0  0  0
  -22.7650  -10.2000   20.2660 C   0  0  0  0  0  3  0  0  0  0  0  0
  -21.7340   -6.9010   21.4880 O   0  0  0  0  0  0  0  0  0  0  0  0
  -21.6990   -6.1580   22.6410 C   0  0  0  0  0  0  0  0  0  0  0  0
  -21.2790   -6.7090   23.8710 C   0  0  0  0  0  3  0  0  0  0  0  0
  -21.1910   -5.8910   25.0150 C   0  0  0  0  0  3  0  0  0  0  0  0
  -21.5130   -4.5220   24.9290 C   0  0  0  0  0  0  0  0  0  0  0  0
  -21.9260   -3.9710   23.7040 C   0  0  0  0  0  3  0  0  0  0  0  0
  -22.0150   -4.7870   22.5620 C   0  0  0  0  0  0  0  0  0  0  0  0
  -22.3920   -4.2460   21.3790 F   0  0  0  0  0  0  0  0  0  0  0  0
  -21.4220   -3.7350   26.0270 F   0  0  0  0  0  0  0  0  0  0  0  0
  -22.7630  -13.5520   21.1360 C   0  0  0  0  0  0  0  0  0  0  0  0
  -22.0430  -12.8510   22.0050 N   0  0  0  0  0  0  0  0  0  0  0  0
  -22.3140  -14.5720   20.6140 O   0  0  0  0  0  0  0  0  0  0  0  0
  -22.4180  -12.0260   22.4500 H   0  0  0  0  0  0  0  0  0  0  0  0
  -21.1020  -13.1430   22.2290 H   0  0  0  0  0  0  0  0  0  0  0  0
  -25.3780  -15.2360   20.3030 N   0  0  0  0  0  0  0  0  0  0  0  0
  -24.6070  -15.8870   20.4090 H   0  0  0  0  0  0  0  0  0  0  0  0
  -26.2300  -15.6800   19.9840 H   0  0  0  0  0  0  0  0  0  0  0  0
  -30.0790  -21.9690   20.2200 C   0  0  0  0  0  2  0  0  0  0  0  0
  -29.0770  -22.9980   20.7690 C   0  0  0  0  0  2  0  0  0  0  0  0
  -29.2840  -24.4210   20.2050 C   0  0  0  0  0  2  0  0  0  0  0  0
  -28.2830  -25.4290   20.7950 C   0  0  0  0  0  2  0  0  0  0  0  0
  -28.4070  -26.7220   20.1910 O   0  0  0  0  0  0  0  0  0  0  0  0
  -24.5700  -31.8850   23.2380 C   0  0  0  0  0  0  0  0  0  0  0  0
  -27.2440  -27.4590   20.1790 C   0  0  0  0  0  0  0  0  0  0  0  0
  -23.3770  -30.4770   21.5910 C   0  0  0  0  0  3  0  0  0  0  0  0
  -24.8430  -28.9460   20.1750 C   0  0  0  0  0  0  0  0  0  0  0  0
  -25.9020  -30.8490   21.4060 C   0  0  0  0  0  2  0  0  0  0  0  0
  -25.9970  -29.4780   20.7680 C   0  0  0  0  0  0  0  0  0  0  0  0
  -27.2030  -28.7420   20.7650 C   0  0  0  0  0  3  0  0  0  0  0  0
  -26.0790  -26.9430   19.5690 C   0  0  0  0  0  3  0  0  0  0  0  0
  -24.8790  -27.6780   19.5720 C   0  0  0  0  0  3  0  0  0  0  0  0
  -23.5950  -29.7980   20.2120 C   0  0  0  0  0  2  0  0  0  0  0  0
  -24.6340  -31.0850   22.1370 N   0  0  0  0  0  0  0  0  0  0  0  0
  -23.4850  -32.1550   23.7710 O   0  0  0  0  0  0  0  0  0  0  0  0
  -22.7250  -29.4540   22.5480 C   0  0  0  0  0  0  0  0  0  0  0  0
  -21.4010  -29.2710   22.4170 N   0  0  0  0  0  0  0  0  0  0  0  0
  -23.4070  -28.8280   23.3640 O   0  0  0  0  0  0  0  0  0  0  0  0
  -20.9120  -29.8300   21.7310 H   0  0  0  0  0  0  0  0  0  0  0  0
  -18.0230  -28.0880   22.9100 C   0  0  0  0  0  0  0  0  0  0  0  0
  -20.5820  -28.3340   23.1830 C   0  0  0  0  0  3  0  0  0  0  0  0
  -20.6780  -26.9040   22.6000 C   0  0  0  0  0  2  0  0  0  0  0  0
  -19.5750  -26.5910   21.5850 C   0  0  0  0  0  2  0  0  0  0  0  0
  -18.1940  -26.7400   22.2300 C   0  0  0  0  0  2  0  0  0  0  0  0
  -19.1450  -28.8430   23.3440 C   0  0  0  0  0  0  0  0  0  0  0  0
  -18.9330  -30.1060   23.9390 C   0  0  0  0  0  3  0  0  0  0  0  0
  -17.6300  -30.6130   24.1050 C   0  0  0  0  0  3  0  0  0  0  0  0
  -16.5220  -29.8560   23.6880 C   0  0  0  0  0  3  0  0  0  0  0  0
  -16.7200  -28.5950   23.0970 C   0  0  0  0  0  3  0  0  0  0  0  0
  -25.8510  -32.5210   23.8630 C   0  0  0  0  0  3  0  0  0  0  0  0
  -25.5390  -33.9200   24.1820 N   0  0  0  0  0  0  0  0  0  0  0  0
  -25.8820  -34.9670   23.4210 C   0  0  0  0  0  0  0  0  0  0  0  0
  -26.5650  -34.8580   22.3990 O   0  0  0  0  0  0  0  0  0  0  0  0
  -24.9340  -34.0790   24.9760 H   0  0  0  0  0  0  0  0  0  0  0  0
  -24.1620  -36.7590   23.0280 C   0  0  0  0  0  1  0  0  0  0  0  0
  -25.3880  -36.3580   23.8640 C   0  0  0  0  0  3  0  0  0  0  0  0
  -27.5080  -37.2410   24.7280 C   0  0  0  0  0  1  0  0  0  0  0  0
  -26.4240  -37.4090   23.7660 N   0  0  0  0  0  0  0  0  0  0  0  0
  -26.0160  -38.3300   23.9030 H   0  0  0  0  0  0  0  0  0  0  0  0
  -26.3620  -31.7550   25.1450 C   0  0  1  0  0  0  0  0  0  0  0  0
  -25.2640  -31.5190   26.2080 C   0  0  0  0  0  1  0  0  0  0  0  0
  -26.9500  -30.3770   24.7590 C   0  0  0  0  0  1  0  0  0  0  0  0
  -27.5070  -32.5540   25.8120 C   0  0  0  0  0  1  0  0  0  0  0  0
  1  5  1  0
  2  1  1  0
  2  4  1  0
  3  1  2  0
  7  6  1  6
  7 10  1  0
  7  5  1  0
  8  9  1  0
  9  7  1  0
 11 10  1  0
 12 17  1  0
 13 14  1  0
 13 12  1  0
 15 14  1  0
 15 22  1  0
 15 16  1  0
 17 11  1  0
 17 16  1  0
 18 11  2  0
 19 20  2  0
 20 39  1  0
 21 20  1  0
 21 24  1  0
 22 19  1  0
 22 23  1  0
 23 21  2  0
 24 25  1  0
 25 26  2  0
 27 30  1  0
 27 26  1  0
 28 27  2  0
 29 28  1  0
 29 24  2  0
 30 31  1  0
 31 32  1  0
 32 33  2  0
 34 33  1  0
 34 38  1  0
 35 34  2  0
 36 31  2  0
 36 35  1  0
 37 36  1  0
 39 40  1  0
 40 43  1  0
 40 42  1  0
 41 39  2  0
 44 45  1  0
 44 19  1  0
 46 44  1  0
 47  2  1  0
 47 48  1  0
 49 48  1  0
 49 50  1  0
 51 50  1  0
 52 63  2  0
 53 51  1  0
 53 58  1  0
 54 62  1  0
 54 64  1  0
 55 61  1  0
 55 57  1  0
 56 62  1  0
 57 56  1  0
 58 57  2  0
 59 60  1  0
 59 53  2  0
 60 55  2  0
 61 54  1  0
 62 52  1  0
 64 66  2  0
 65 64  1  0
 67 65  1  0
 68 77  2  0
 68 73  1  0
 69 65  1  0
 69 73  1  0
 70 69  1  0
 71 72  1  0
 71 70  1  0
 72 68  1  0
 73 74  2  0
 74 75  1  0
 76 75  2  0
 77 76  1  0
 78 52  1  0
 78 79  1  0
 78 88  1  0
 79 82  1  0
 80 84  1  0
 80 79  1  0
 81 80  2  0
 84 83  1  0
 86 84  1  0
 86 87  1  0
 86 85  1  0
 88 91  1  1
 88 89  1  0
 90 88  1  0
M  ISO  4  10 100  11 100  50 101  51 101
M  END
>  <TORSDO>  (99) 
F 24

>  <SCORE>  (99) 
-12.654

>  <name>  (99) 
98

>  <ligand_id>  (99) 
98

>  <original_smiles>  (99) 
[H]c1c([H])c([H])c2c(c1[H])C([H])([H])C([H])([H])C([H])([H])C2([H])N([H])C(=O)C1([H])N(C(=O)C([H])(N([H])C(=O)C([H])(N([H])C([H])([H])[H])C([H])([H])[H])C(C([H])([H])[H])(C([H])([H])[H])C([H])([H])[H])C([H])([H])c2c([H])c(OC([H])([H])C([H])([H])C([H])([H])C([H])([H])N([H])C(=O)C([H])([H])C(C([H])([H])[H])(C([H])([H])C(=O)N3C([H])([H])C([H])([H])C([H])([H])C([H])(n4nc(-c5c([H])c([H])c(Oc6c([H])c([H])c(F)c([H])c6F)c([H])c5[H])c(C(=O)N([H])[H])c4N([H])[H])C3([H])[H])C([H])([H])C([H])([H])[H])c([H])c([H])c2C1([H])[H]

>  <smiles>  (99) 
[H]c1c([H])c([H])c2c(c1[H])C([H])([H])C([H])([H])C([H])([H])C2([H])N([H])C(=O)C1([H])N(C(=O)C([H])(N([H])C(=O)C([H])(N([H])C([H])([H])[H])C([H])([H])[H])C(C([H])([H])[H])(C([H])([H])[H])C([H])([H])[H])C([H])([H])c2c([H])c(OC([H])([H])C([H])([H])C([H])([H])C([H])([H])N([H])C(=O)C([H])([H])C(C([H])([H])[H])(C([H])([H])C(=O)N3C([H])([H])C([H])([H])C([H])([H])C([H])(n4nc(-c5c([H])c([H])c(Oc6c([H])c([H])c(F)c([H])c6F)c([H])c5[H])c(C(=O)N([H])[H])c4N([H])[H])C3([H])[H])C([H])([H])C([H])([H])[H])c([H])c([H])c2C1([H])[H]

$$$$
99:0:0
     RDKit          3D

 89 96  0  0  1  0  0  0  0  0999 V2000
  -29.1410  -19.8490   20.0860 C   0  0  0  0  0  2  0  0  0  0  0  0
  -29.4410  -21.5670   19.8640 C   0  0  0  0  0  2  0  0  0  0  0  0
  -28.6090  -22.9940   20.4430 C   0  0  0  0  0  2  0  0  0  0  0  0
  -28.3960  -24.5810   19.7400 C   0  0  0  0  0  2  0  0  0  0  0  0
  -28.2840  -26.0690   20.3330 O   0  0  0  0  0  0  0  0  0  0  0  0
  -24.6300  -31.8820   23.2220 C   0  0  0  0  0  0  0  0  0  0  0  0
  -27.2250  -27.0780   20.2180 C   0  0  0  0  0  0  0  0  0  0  0  0
  -23.4360  -30.4640   21.6000 C   0  0  0  0  0  3  0  0  0  0  0  0
  -24.8890  -28.8700   20.1800 C   0  0  0  0  0  0  0  0  0  0  0  0
  -25.9940  -30.7110   21.4390 C   0  0  0  0  0  2  0  0  0  0  0  0
  -26.0700  -29.3080   20.7890 C   0  0  0  0  0  0  0  0  0  0  0  0
  -27.2280  -28.4270   20.7940 C   0  0  0  0  0  3  0  0  0  0  0  0
  -26.0090  -26.7600   19.5660 C   0  0  0  0  0  3  0  0  0  0  0  0
  -24.8760  -27.6110   19.5540 C   0  0  0  0  0  3  0  0  0  0  0  0
  -23.6570  -29.7670   20.2290 C   0  0  0  0  0  2  0  0  0  0  0  0
  -24.7060  -31.0440   22.1410 N   0  0  0  0  0  0  0  0  0  0  0  0
  -23.5450  -32.1770   23.7460 O   0  0  0  0  0  0  0  0  0  0  0  0
  -22.7560  -29.4710   22.5780 C   0  0  0  0  0  0  0  0  0  0  0  0
  -21.4280  -29.2990   22.4520 N   0  0  0  0  0  0  0  0  0  0  0  0
  -23.4280  -28.8570   23.4090 O   0  0  0  0  0  0  0  0  0  0  0  0
  -20.9450  -29.8400   21.7500 H   0  0  0  0  0  0  0  0  0  0  0  0
  -18.0520  -28.0850   22.9730 C   0  0  0  0  0  0  0  0  0  0  0  0
  -20.6090  -28.3670   23.2350 C   0  0  0  0  0  3  0  0  0  0  0  0
  -20.7190  -26.9280   22.6780 C   0  0  0  0  0  2  0  0  0  0  0  0
  -19.6200  -26.5860   21.6690 C   0  0  0  0  0  2  0  0  0  0  0  0
  -18.2360  -26.7290   22.3110 C   0  0  0  0  0  2  0  0  0  0  0  0
  -19.1660  -28.8600   23.3910 C   0  0  0  0  0  0  0  0  0  0  0  0
  -18.9390  -30.1260   23.9720 C   0  0  0  0  0  3  0  0  0  0  0  0
  -17.6290  -30.6170   24.1400 C   0  0  0  0  0  3  0  0  0  0  0  0
  -16.5300  -29.8390   23.7360 C   0  0  0  0  0  3  0  0  0  0  0  0
  -16.7430  -28.5740   23.1570 C   0  0  0  0  0  3  0  0  0  0  0  0
  -25.9050  -32.5320   23.8430 C   0  0  0  0  0  3  0  0  0  0  0  0
  -25.5840  -33.9290   24.1760 N   0  0  0  0  0  0  0  0  0  0  0  0
  -25.8980  -34.9900   23.4190 C   0  0  0  0  0  0  0  0  0  0  0  0
  -26.5560  -34.8930   22.3800 O   0  0  0  0  0  0  0  0  0  0  0  0
  -24.9910  -34.0760   24.9810 H   0  0  0  0  0  0  0  0  0  0  0  0
  -24.1490  -36.7700   23.0930 C   0  0  0  0  0  1  0  0  0  0  0  0
  -25.4060  -36.3740   23.8850 C   0  0  0  0  0  3  0  0  0  0  0  0
  -27.5440  -37.2800   24.6850 C   0  0  0  0  0  1  0  0  0  0  0  0
  -26.4290  -37.4370   23.7560 N   0  0  0  0  0  0  0  0  0  0  0  0
  -26.0180  -38.3570   23.9040 H   0  0  0  0  0  0  0  0  0  0  0  0
  -26.4260  -31.7700   25.1240 C   0  0  1  0  0  0  0  0  0  0  0  0
  -25.3360  -31.5320   26.1940 C   0  0  0  0  0  1  0  0  0  0  0  0
  -27.0210  -30.3920   24.7510 C   0  0  0  0  0  1  0  0  0  0  0  0
  -27.5740  -32.5750   25.7770 C   0  0  0  0  0  1  0  0  0  0  0  0
  -30.1700  -18.4100   20.0870 C   0  0  0  0  0  3  0  0  0  0  0  0
  -32.4220  -19.2450   19.4040 C   0  0  0  0  0  1  0  0  0  0  0  0
  -31.1940  -18.5270   19.0190 N   0  0  0  0  0  4  0  0  0  0  0  0
  -31.4890  -17.5960   18.7610 H   0  0  0  0  0  0  0  0  0  0  0  0
  -30.7820  -18.9540   18.2030 H   0  0  0  0  0  0  0  0  0  0  0  0
  -28.6590  -16.8500   18.9130 C   0  0  0  0  0  1  0  0  0  0  0  0
  -28.8880  -16.6340   21.4910 C   0  0  0  0  0  1  0  0  0  0  0  0
  -29.6240  -16.7400   20.1200 C   0  0  2  0  0  0  0  0  0  0  0  0
  -30.4560  -15.2150   19.9110 C   0  0  0  0  0  0  0  0  0  0  0  0
  -30.3520  -12.8340   18.9390 C   0  0  0  0  0  2  0  0  0  0  0  0
  -29.3300  -12.7610   17.7730 C   0  0  0  0  0  2  0  0  0  0  0  0
  -27.9040  -12.4670   18.2790 C   0  0  0  0  0  2  0  0  0  0  0  0
  -27.5680  -13.2970   19.5390 C   0  0  0  0  0  3  0  0  0  0  0  0
  -28.7130  -13.3550   20.5750 C   0  0  0  0  0  2  0  0  0  0  0  0
  -29.9080  -13.9030   19.8950 N   0  0  0  0  0  0  0  0  0  0  0  0
  -31.6450  -15.2480   19.5710 O   0  0  0  0  0  0  0  0  0  0  0  0
  -25.2450  -13.8640   20.4300 C   0  0  0  0  0  0  0  0  0  0  0  0
  -24.2020  -13.0790   20.8360 C   0  0  0  0  0  0  0  0  0  0  0  0
  -24.6700  -11.7330   20.7460 C   0  0  0  0  0  0  0  0  0  0  0  0
  -26.2740  -12.9870   20.1160 N   0  0  0  0  0  0  0  0  0  0  0  0
  -25.9420  -11.7010   20.3680 N   0  0  0  0  0  0  0  0  0  0  0  0
  -23.9600  -10.4670   20.9410 C   0  0  0  0  0  0  0  0  0  0  0  0
  -24.4200   -9.4990   21.8610 C   0  0  0  0  0  3  0  0  0  0  0  0
  -23.7050   -8.2980   22.0460 C   0  0  0  0  0  3  0  0  0  0  0  0
  -22.5240   -8.0540   21.3100 C   0  0  0  0  0  0  0  0  0  0  0  0
  -22.0840   -9.0090   20.3770 C   0  0  0  0  0  3  0  0  0  0  0  0
  -22.7980  -10.2030   20.1890 C   0  0  0  0  0  3  0  0  0  0  0  0
  -21.7800   -6.9030   21.4090 O   0  0  0  0  0  0  0  0  0  0  0  0
  -21.7210   -6.1870   22.5770 C   0  0  0  0  0  0  0  0  0  0  0  0
  -21.2600   -6.7630   23.7810 C   0  0  0  0  0  3  0  0  0  0  0  0
  -21.1490   -5.9720   24.9410 C   0  0  0  0  0  3  0  0  0  0  0  0
  -21.4950   -4.6100   24.9010 C   0  0  0  0  0  0  0  0  0  0  0  0
  -21.9540   -4.0330   23.7040 C   0  0  0  0  0  3  0  0  0  0  0  0
  -22.0650   -4.8190   22.5440 C   0  0  0  0  0  0  0  0  0  0  0  0
  -22.4910   -4.2560   21.3860 F   0  0  0  0  0  0  0  0  0  0  0  0
  -21.3800   -3.8500   26.0160 F   0  0  0  0  0  0  0  0  0  0  0  0
  -22.8200  -13.5540   21.1860 C   0  0  0  0  0  0  0  0  0  0  0  0
  -22.1310  -12.8400   22.0710 N   0  0  0  0  0  0  0  0  0  0  0  0
  -22.3600  -14.5920   20.7120 O   0  0  0  0  0  0  0  0  0  0  0  0
  -22.5160  -12.0060   22.4830 H   0  0  0  0  0  0  0  0  0  0  0  0
  -21.2050  -13.1380   22.3470 H   0  0  0  0  0  0  0  0  0  0  0  0
  -25.3890  -15.2370   20.2830 N   0  0  0  0  0  0  0  0  0  0  0  0
  -24.6160  -15.8660   20.4720 H   0  0  0  0  0  0  0  0  0  0  0  0
  -26.2140  -15.6940   19.9140 H   0  0  0  0  0  0  0  0  0  0  0  0
  2  1  1  0
  2  3  1  0
  4  5  1  0
  4  3  1  0
  6 17  2  0
  7  5  1  0
  7 12  1  0
  8 16  1  0
  8 18  1  0
  9 15  1  0
  9 11  1  0
 10 16  1  0
 11 12  2  0
 11 10  1  0
 13  7  2  0
 14 13  1  0
 14  9  2  0
 15  8  1  0
 16  6  1  0
 18 20  2  0
 19 18  1  0
 21 19  1  0
 22 31  2  0
 22 27  1  0
 23 19  1  0
 23 27  1  0
 24 23  1  0
 25 26  1  0
 25 24  1  0
 26 22  1  0
 27 28  2  0
 28 29  1  0
 30 29  2  0
 31 30  1  0
 32  6  1  0
 32 33  1  0
 32 42  1  0
 33 36  1  0
 34 38  1  0
 34 33  1  0
 35 34  2  0
 38 37  1  0
 40 38  1  0
 40 41  1  0
 40 39  1  0
 42 45  1  1
 42 43  1  0
 44 42  1  0
 46  1  1  0
 46 53  1  0
 48 47  1  0
 48 46  1  0
 49 48  1  0
 50 48  1  0
 53 51  1  6
 53 52  1  0
 54 53  1  0
 55 60  1  0
 56 57  1  0
 56 55  1  0
 58 57  1  0
 58 65  1  0
 58 59  1  0
 60 54  1  0
 60 59  1  0
 61 54  2  0
 62 63  2  0
 63 82  1  0
 64 63  1  0
 64 67  1  0
 65 66  1  0
 65 62  1  0
 66 64  2  0
 67 68  1  0
 68 69  2  0
 70 73  1  0
 70 69  1  0
 71 70  2  0
 72 71  1  0
 72 67  2  0
 73 74  1  0
 74 75  1  0
 75 76  2  0
 77 76  1  0
 77 81  1  0
 78 77  2  0
 79 74  2  0
 79 78  1  0
 80 79  1  0
 82 83  1  0
 83 86  1  0
 83 85  1  0
 84 82  2  0
 87 62  1  0
 87 88  1  0
 89 87  1  0
M  ISO  4   4 101   5 101  53 100  54 100
M  END
>  <TORSDO>  (100) 
F 22

>  <SCORE>  (100) 
-15.226

>  <name>  (100) 
99

>  <ligand_id>  (100) 
99

>  <original_smiles>  (100) 
[H]c1c([H])c([H])c2c(c1[H])C([H])([H])C([H])([H])C([H])([H])C2([H])N([H])C(=O)C1([H])N(C(=O)C([H])(N([H])C(=O)C([H])(N([H])C([H])([H])[H])C([H])([H])[H])C(C([H])([H])[H])(C([H])([H])[H])C([H])([H])[H])C([H])([H])c2c([H])c(OC([H])([H])C([H])([H])C([H])([H])C([H])([H])C([H])(C(C(=O)N3C([H])([H])C([H])([H])C([H])([H])C([H])(n4nc(-c5c([H])c([H])c(Oc6c([H])c([H])c(F)c([H])c6F)c([H])c5[H])c(C(=O)N([H])[H])c4N([H])[H])C3([H])[H])(C([H])([H])[H])C([H])([H])[H])[N+]([H])([H])C([H])([H])[H])c([H])c([H])c2C1([H])[H]

>  <smiles>  (100) 
[H]c1c([H])c([H])c2c(c1[H])C([H])([H])C([H])([H])C([H])([H])C2([H])N([H])C(=O)C1([H])N(C(=O)C([H])(N([H])C(=O)C([H])(N([H])C([H])([H])[H])C([H])([H])[H])C(C([H])([H])[H])(C([H])([H])[H])C([H])([H])[H])C([H])([H])c2c([H])c(OC([H])([H])C([H])([H])C([H])([H])C([H])([H])C([H])(C(C(=O)N3C([H])([H])C([H])([H])C([H])([H])C([H])(n4nc(-c5c([H])c([H])c(Oc6c([H])c([H])c(F)c([H])c6F)c([H])c5[H])c(C(=O)N([H])[H])c4N([H])[H])C3([H])[H])(C([H])([H])[H])C([H])([H])[H])[N+]([H])([H])C([H])([H])[H])c([H])c([H])c2C1([H])[H]

$$$$
