0:0:0
     RDKit          3D

 91 98  0  0  1  0  0  0  0  0999 V2000
  -29.8740  -21.6950   20.0290 N   0  0  0  0  0  4  0  0  0  0  0  0
  -30.7060  -22.1020   20.4270 H   0  0  0  0  0  0  0  0  0  0  0  0
  -30.0940  -21.5730   19.0530 H   0  0  0  0  0  0  0  0  0  0  0  0
  -27.7390  -22.6970   18.8960 C   0  0  0  0  0  1  0  0  0  0  0  0
  -28.7290  -22.9010   20.0520 C   0  0  0  0  0  3  0  0  0  0  0  0
  -28.8780  -24.6520   20.4020 C   0  0  0  0  0  2  0  0  0  0  0  0
  -28.6370  -26.1140   19.7020 O   0  0  0  0  0  0  0  0  0  0  0  0
  -24.9140  -31.6920   23.1660 C   0  0  0  0  0  0  0  0  0  0  0  0
  -27.5510  -27.1100   19.8420 C   0  0  0  0  0  0  0  0  0  0  0  0
  -23.7310  -30.3650   21.4650 C   0  0  0  0  0  3  0  0  0  0  0  0
  -25.1950  -28.8930   19.9300 C   0  0  0  0  0  0  0  0  0  0  0  0
  -26.2820  -30.6720   21.2890 C   0  0  0  0  0  2  0  0  0  0  0  0
  -26.3810  -29.3080   20.5500 C   0  0  0  0  0  0  0  0  0  0  0  0
  -27.5570  -28.4420   20.4730 C   0  0  0  0  0  3  0  0  0  0  0  0
  -26.3290  -26.8280   19.1940 C   0  0  0  0  0  3  0  0  0  0  0  0
  -25.1900  -27.6720   19.2340 C   0  0  0  0  0  3  0  0  0  0  0  0
  -23.9470  -29.7690   20.0500 C   0  0  0  0  0  2  0  0  0  0  0  0
  -24.9970  -30.9340   22.0260 N   0  0  0  0  0  0  0  0  0  0  0  0
  -23.8270  -31.9170   23.7220 O   0  0  0  0  0  0  0  0  0  0  0  0
  -23.0850  -29.2910   22.3770 C   0  0  0  0  0  0  0  0  0  0  0  0
  -21.7640  -29.0690   22.2360 N   0  0  0  0  0  0  0  0  0  0  0  0
  -23.7760  -28.6560   23.1790 O   0  0  0  0  0  0  0  0  0  0  0  0
  -21.2590  -29.6260   21.5610 H   0  0  0  0  0  0  0  0  0  0  0  0
  -18.4510  -27.6450   22.6320 C   0  0  0  0  0  0  0  0  0  0  0  0
  -20.9810  -28.0580   22.9540 C   0  0  0  0  0  3  0  0  0  0  0  0
  -21.1830  -26.6580   22.3310 C   0  0  0  0  0  2  0  0  0  0  0  0
  -20.1200  -26.3060   21.2850 C   0  0  0  0  0  2  0  0  0  0  0  0
  -18.7210  -26.3390   21.9050 C   0  0  0  0  0  2  0  0  0  0  0  0
  -19.5100  -28.4620   23.1080 C   0  0  0  0  0  0  0  0  0  0  0  0
  -19.2010  -29.6820   23.7460 C   0  0  0  0  0  3  0  0  0  0  0  0
  -17.8640  -30.0900   23.9100 C   0  0  0  0  0  3  0  0  0  0  0  0
  -16.8170  -29.2730   23.4480 C   0  0  0  0  0  3  0  0  0  0  0  0
  -17.1120  -28.0490   22.8170 C   0  0  0  0  0  3  0  0  0  0  0  0
  -26.1790  -32.3250   23.8220 C   0  0  0  0  0  3  0  0  0  0  0  0
  -26.7410  -31.4870   25.0390 C   0  0  1  0  0  0  0  0  0  0  0  0
  -25.6740  -31.1410   26.1040 C   0  0  0  0  0  1  0  0  0  0  0  0
  -27.3660  -30.1580   24.5550 C   0  0  0  0  0  1  0  0  0  0  0  0
  -27.8790  -32.2730   25.7330 C   0  0  0  0  0  1  0  0  0  0  0  0
  -25.8230  -33.6850   24.2660 N   0  0  0  0  0  0  0  0  0  0  0  0
  -26.1490  -34.8140   23.6190 C   0  0  0  0  0  0  0  0  0  0  0  0
  -26.8430  -34.8200   22.6000 O   0  0  0  0  0  0  0  0  0  0  0  0
  -25.1990  -33.7510   25.0570 H   0  0  0  0  0  0  0  0  0  0  0  0
  -24.3870  -36.6010   23.4110 C   0  0  0  0  0  1  0  0  0  0  0  0
  -25.6260  -36.1450   24.1970 C   0  0  0  0  0  3  0  0  0  0  0  0
  -27.7280  -36.9930   25.1410 C   0  0  0  0  0  1  0  0  0  0  0  0
  -26.6370  -37.2260   24.1980 N   0  0  0  0  0  0  0  0  0  0  0  0
  -26.2090  -38.1190   24.4270 H   0  0  0  0  0  0  0  0  0  0  0  0
  -29.8370  -20.1490   20.6440 C   0  0  0  0  0  3  0  0  0  0  0  0
  -31.5730  -18.7200   19.1010 C   0  0  0  0  0  1  0  0  0  0  0  0
  -30.2130  -18.6070   19.8070 C   0  0  0  0  0  3  0  0  0  0  0  0
  -30.1110  -16.9310   20.4090 C   0  0  0  0  0  2  0  0  0  0  0  0
  -30.9440  -15.4530   20.0410 C   0  0  0  0  0  0  0  0  0  0  0  0
  -30.8800  -13.0360   19.1260 C   0  0  0  0  0  2  0  0  0  0  0  0
  -29.9190  -12.9220   17.9170 C   0  0  0  0  0  2  0  0  0  0  0  0
  -28.4660  -12.7000   18.3750 C   0  0  0  0  0  2  0  0  0  0  0  0
  -28.0820  -13.6300   19.5520 C   0  0  0  0  0  3  0  0  0  0  0  0
  -29.1610  -13.6780   20.6530 C   0  0  0  0  0  2  0  0  0  0  0  0
  -30.4040  -14.1460   20.0230 N   0  0  0  0  0  0  0  0  0  0  0  0
  -32.1270  -15.4930   19.6750 O   0  0  0  0  0  0  0  0  0  0  0  0
  -25.7570  -14.2290   20.4160 C   0  0  0  0  0  0  0  0  0  0  0  0
  -24.6840  -13.4680   20.7940 C   0  0  0  0  0  0  0  0  0  0  0  0
  -25.1080  -12.1080   20.6940 C   0  0  0  0  0  0  0  0  0  0  0  0
  -26.7600  -13.3330   20.0930 N   0  0  0  0  0  0  0  0  0  0  0  0
  -26.3840  -12.0480   20.3230 N   0  0  0  0  0  0  0  0  0  0  0  0
  -24.3500  -10.8620   20.8660 C   0  0  0  0  0  0  0  0  0  0  0  0
  -24.7220   -9.8990   21.8290 C   0  0  0  0  0  3  0  0  0  0  0  0
  -23.9690   -8.7160   21.9880 C   0  0  0  0  0  3  0  0  0  0  0  0
  -22.8290   -8.4880   21.1790 C   0  0  0  0  0  0  0  0  0  0  0  0
  -22.4780   -9.4380   20.2030 C   0  0  0  0  0  3  0  0  0  0  0  0
  -23.2330  -10.6130   20.0470 C   0  0  0  0  0  3  0  0  0  0  0  0
  -22.0500   -7.3580   21.2490 O   0  0  0  0  0  0  0  0  0  0  0  0
  -21.8310   -6.6990   22.4310 C   0  0  0  0  0  0  0  0  0  0  0  0
  -21.2400   -7.3420   23.5400 C   0  0  0  0  0  3  0  0  0  0  0  0
  -20.9710   -6.6120   24.7140 C   0  0  0  0  0  3  0  0  0  0  0  0
  -21.2850   -5.2410   24.7760 C   0  0  0  0  0  0  0  0  0  0  0  0
  -21.8650   -4.5980   23.6700 C   0  0  0  0  0  3  0  0  0  0  0  0
  -22.1350   -5.3260   22.5000 C   0  0  0  0  0  0  0  0  0  0  0  0
  -22.6770   -4.6960   21.4300 F   0  0  0  0  0  0  0  0  0  0  0  0
  -21.0150   -4.5360   25.8990 F   0  0  0  0  0  0  0  0  0  0  0  0
  -23.3150  -13.9750   21.1350 C   0  0  0  0  0  0  0  0  0  0  0  0
  -22.6120  -13.2830   22.0250 N   0  0  0  0  0  0  0  0  0  0  0  0
  -22.8810  -15.0190   20.6530 O   0  0  0  0  0  0  0  0  0  0  0  0
  -22.9760  -12.4350   22.4370 H   0  0  0  0  0  0  0  0  0  0  0  0
  -21.6900  -13.5990   22.2920 H   0  0  0  0  0  0  0  0  0  0  0  0
  -25.9630  -15.5980   20.2860 N   0  0  0  0  0  0  0  0  0  0  0  0
  -25.2330  -16.2840   20.4500 H   0  0  0  0  0  0  0  0  0  0  0  0
  -26.8110  -16.0110   19.9250 H   0  0  0  0  0  0  0  0  0  0  0  0
  -30.1430  -21.1160   23.0790 C   0  0  0  0  0  1  0  0  0  0  0  0
  -30.6050  -20.0990   22.0120 C   0  0  0  0  0  3  0  0  0  0  0  0
  -32.9610  -21.2830   21.9640 C   0  0  0  0  0  1  0  0  0  0  0  0
  -32.1520  -19.9740   21.9070 C   0  0  0  0  0  2  0  0  0  0  0  0
  1  5  1  0
  1  2  1  0
  3  1  1  0
  5  4  1  0
  5  6  1  0
  7  9  1  0
  7  6  1  0
  8 19  2  0
  9 14  1  0
 10 18  1  0
 10 20  1  0
 11 17  1  0
 11 13  1  0
 12 18  1  0
 13 12  1  0
 14 13  2  0
 15 16  1  0
 15  9  2  0
 16 11  2  0
 17 10  1  0
 18  8  1  0
 20 22  2  0
 21 20  1  0
 23 21  1  0
 24 33  2  0
 24 29  1  0
 25 21  1  0
 25 29  1  0
 26 25  1  0
 27 28  1  0
 27 26  1  0
 28 24  1  0
 29 30  2  0
 30 31  1  0
 32 31  2  0
 33 32  1  0
 34  8  1  0
 34 39  1  0
 34 35  1  0
 35 38  1  1
 35 36  1  0
 37 35  1  0
 39 42  1  0
 40 44  1  0
 40 39  1  0
 41 40  2  0
 44 43  1  0
 44 46  1  0
 46 47  1  0
 46 45  1  0
 48  1  1  0
 48 89  1  0
 50 49  1  0
 50 51  1  0
 50 48  1  0
 52 51  1  0
 53 58  1  0
 54 55  1  0
 54 53  1  0
 56 55  1  0
 56 63  1  0
 56 57  1  0
 58 52  1  0
 58 57  1  0
 59 52  2  0
 60 61  2  0
 61 80  1  0
 62 61  1  0
 62 65  1  0
 63 64  1  0
 63 60  1  0
 64 62  2  0
 65 66  1  0
 66 67  2  0
 68 71  1  0
 68 67  1  0
 69 68  2  0
 70 69  1  0
 70 65  2  0
 71 72  1  0
 72 77  2  0
 72 73  1  0
 73 74  2  0
 74 75  1  0
 75 79  1  0
 76 75  2  0
 77 76  1  0
 78 77  1  0
 80 81  1  0
 81 84  1  0
 81 83  1  0
 82 80  2  0
 85 60  1  0
 85 86  1  0
 87 85  1  0
 89 88  1  0
 91 90  1  0
 91 89  1  0
M  ISO  4   6 101   7 101  51 100  52 100
M  END
>  <TORSDO>  (1) 
F 23

>  <SCORE>  (1) 
-12.929

>  <name>  (1) 
0

>  <ligand_id>  (1) 
0

>  <original_smiles>  (1) 
[H]c1c([H])c([H])c2c(c1[H])C([H])([H])C([H])([H])C([H])([H])C2([H])N([H])C(=O)C1([H])N(C(=O)C([H])(N([H])C(=O)C([H])(N([H])C([H])([H])[H])C([H])([H])[H])C(C([H])([H])[H])(C([H])([H])[H])C([H])([H])[H])C([H])([H])c2c([H])c(OC([H])([H])C([H])(C([H])([H])[H])[N+]([H])([H])C([H])(C([H])(C([H])([H])[H])C([H])([H])C(=O)N3C([H])([H])C([H])([H])C([H])([H])C([H])(n4nc(-c5c([H])c([H])c(Oc6c([H])c([H])c(F)c([H])c6F)c([H])c5[H])c(C(=O)N([H])[H])c4N([H])[H])C3([H])[H])C([H])(C([H])([H])[H])C([H])([H])C([H])([H])[H])c([H])c([H])c2C1([H])[H]

>  <smiles>  (1) 
[H]c1c([H])c([H])c2c(c1[H])C([H])([H])C([H])([H])C([H])([H])C2([H])N([H])C(=O)C1([H])N(C(=O)C([H])(N([H])C(=O)C([H])(N([H])C([H])([H])[H])C([H])([H])[H])C(C([H])([H])[H])(C([H])([H])[H])C([H])([H])[H])C([H])([H])c2c([H])c(OC([H])([H])C([H])(C([H])([H])[H])[N+]([H])([H])C([H])(C([H])(C([H])([H])[H])C([H])([H])C(=O)N3C([H])([H])C([H])([H])C([H])([H])C([H])(n4nc(-c5c([H])c([H])c(Oc6c([H])c([H])c(F)c([H])c6F)c([H])c5[H])c(C(=O)N([H])[H])c4N([H])[H])C3([H])[H])C([H])(C([H])([H])[H])C([H])([H])C([H])([H])[H])c([H])c([H])c2C1([H])[H]

$$$$
1:0:0
     RDKit          3D

 88 95  0  0  1  0  0  0  0  0999 V2000
  -30.9290  -22.2880   20.3710 C   0  0  0  0  0  1  0  0  0  0  0  0
  -29.4210  -22.0950   20.6080 C   0  0  0  0  0  3  0  0  0  0  0  0
  -27.5460  -20.3830   20.3840 C   0  0  0  0  0  1  0  0  0  0  0  0
  -29.0040  -20.5560   20.5490 N   0  0  1  0  0  4  0  0  0  0  0  0
  -29.1270  -20.3330   21.5250 H   0  0  0  0  0  0  0  0  0  0  0  0
  -29.5210  -19.1790   18.4320 C   0  0  0  0  0  1  0  0  0  0  0  0
  -29.8390  -19.3580   19.9240 C   0  0  0  0  0  3  0  0  0  0  0  0
  -30.0160  -17.8610   20.6860 C   0  0  0  0  0  2  0  0  0  0  0  0
  -29.6470  -16.3320   20.1000 C   0  0  0  0  0  2  0  0  0  0  0  0
  -30.5640  -14.9500   20.0980 C   0  0  0  0  0  0  0  0  0  0  0  0
  -30.4670  -12.6010   19.1660 C   0  0  0  0  0  2  0  0  0  0  0  0
  -29.5060  -12.5910   17.9520 C   0  0  0  0  0  2  0  0  0  0  0  0
  -28.0430  -12.3960   18.3990 C   0  0  0  0  0  2  0  0  0  0  0  0
  -27.6640  -13.3040   19.5980 C   0  0  0  0  0  3  0  0  0  0  0  0
  -28.7380  -13.2730   20.7030 C   0  0  0  0  0  2  0  0  0  0  0  0
  -30.0140  -13.6720   20.0950 N   0  0  0  0  0  0  0  0  0  0  0  0
  -31.7700  -15.0400   19.8380 O   0  0  0  0  0  0  0  0  0  0  0  0
  -25.2920  -13.8940   20.3640 C   0  0  0  0  0  0  0  0  0  0  0  0
  -24.2320  -13.1240   20.7600 C   0  0  0  0  0  0  0  0  0  0  0  0
  -24.6970  -11.7720   20.7370 C   0  0  0  0  0  0  0  0  0  0  0  0
  -26.3310  -13.0130   20.1170 N   0  0  0  0  0  0  0  0  0  0  0  0
  -25.9840  -11.7330   20.4060 N   0  0  0  0  0  0  0  0  0  0  0  0
  -23.9720  -10.5140   20.9540 C   0  0  0  0  0  0  0  0  0  0  0  0
  -24.4200   -9.5550   21.8910 C   0  0  0  0  0  3  0  0  0  0  0  0
  -23.6950   -8.3600   22.0930 C   0  0  0  0  0  3  0  0  0  0  0  0
  -22.5100   -8.1150   21.3600 C   0  0  0  0  0  0  0  0  0  0  0  0
  -22.0820   -9.0620   20.4120 C   0  0  0  0  0  3  0  0  0  0  0  0
  -22.8070  -10.2480   20.2090 C   0  0  0  0  0  3  0  0  0  0  0  0
  -21.7550   -6.9730   21.4730 O   0  0  0  0  0  0  0  0  0  0  0  0
  -21.7290   -6.2380   22.6330 C   0  0  0  0  0  0  0  0  0  0  0  0
  -21.3400   -6.8050   23.8660 C   0  0  0  0  0  3  0  0  0  0  0  0
  -21.2610   -5.9960   25.0180 C   0  0  0  0  0  3  0  0  0  0  0  0
  -21.5630   -4.6230   24.9370 C   0  0  0  0  0  0  0  0  0  0  0  0
  -21.9450   -4.0560   23.7080 C   0  0  0  0  0  3  0  0  0  0  0  0
  -22.0260   -4.8620   22.5590 C   0  0  0  0  0  0  0  0  0  0  0  0
  -22.3740   -4.3060   21.3720 F   0  0  0  0  0  0  0  0  0  0  0  0
  -21.4800   -3.8440   26.0410 F   0  0  0  0  0  0  0  0  0  0  0  0
  -22.8380  -13.6020   21.0460 C   0  0  0  0  0  0  0  0  0  0  0  0
  -22.1230  -12.9160   21.9300 N   0  0  0  0  0  0  0  0  0  0  0  0
  -22.3930  -14.6210   20.5200 O   0  0  0  0  0  0  0  0  0  0  0  0
  -22.4970  -12.0930   22.3790 H   0  0  0  0  0  0  0  0  0  0  0  0
  -21.1860  -13.2170   22.1600 H   0  0  0  0  0  0  0  0  0  0  0  0
  -25.4550  -15.2640   20.1680 N   0  0  0  0  0  0  0  0  0  0  0  0
  -24.6950  -15.9240   20.2860 H   0  0  0  0  0  0  0  0  0  0  0  0
  -26.2970  -15.6920   19.8090 H   0  0  0  0  0  0  0  0  0  0  0  0
  -28.5770  -23.3940   19.9460 C   0  0  0  0  0  2  0  0  0  0  0  0
  -28.4120  -24.8890   20.6930 C   0  0  0  0  0  2  0  0  0  0  0  0
  -28.3850  -26.3110   20.0990 O   0  0  0  0  0  0  0  0  0  0  0  0
  -24.6650  -31.8550   23.2080 C   0  0  0  0  0  0  0  0  0  0  0  0
  -27.2700  -27.2050   20.1600 C   0  0  0  0  0  0  0  0  0  0  0  0
  -23.4620  -30.4590   21.5670 C   0  0  0  0  0  3  0  0  0  0  0  0
  -24.9140  -28.8900   20.1400 C   0  0  0  0  0  0  0  0  0  0  0  0
  -26.0090  -30.7540   21.3830 C   0  0  0  0  0  2  0  0  0  0  0  0
  -26.0890  -29.3630   20.7370 C   0  0  0  0  0  0  0  0  0  0  0  0
  -27.2720  -28.5390   20.7220 C   0  0  0  0  0  3  0  0  0  0  0  0
  -26.0660  -26.8100   19.5420 C   0  0  0  0  0  3  0  0  0  0  0  0
  -24.9120  -27.6260   19.5260 C   0  0  0  0  0  3  0  0  0  0  0  0
  -23.6790  -29.7770   20.1890 C   0  0  0  0  0  2  0  0  0  0  0  0
  -24.7330  -31.0430   22.1090 N   0  0  0  0  0  0  0  0  0  0  0  0
  -23.5800  -32.1290   23.7450 O   0  0  0  0  0  0  0  0  0  0  0  0
  -22.7930  -29.4470   22.5290 C   0  0  0  0  0  0  0  0  0  0  0  0
  -21.4650  -29.2770   22.4120 N   0  0  0  0  0  0  0  0  0  0  0  0
  -23.4730  -28.8160   23.3430 O   0  0  0  0  0  0  0  0  0  0  0  0
  -20.9750  -29.8370   21.7270 H   0  0  0  0  0  0  0  0  0  0  0  0
  -18.0910  -28.0710   22.9310 C   0  0  0  0  0  0  0  0  0  0  0  0
  -20.6500  -28.3360   23.1830 C   0  0  0  0  0  3  0  0  0  0  0  0
  -20.7510  -26.9080   22.5990 C   0  0  0  0  0  2  0  0  0  0  0  0
  -19.6430  -26.5890   21.5900 C   0  0  0  0  0  2  0  0  0  0  0  0
  -18.2640  -26.7280   22.2440 C   0  0  0  0  0  2  0  0  0  0  0  0
  -19.2110  -28.8340   23.3580 C   0  0  0  0  0  0  0  0  0  0  0  0
  -18.9930  -30.0900   23.9620 C   0  0  0  0  0  3  0  0  0  0  0  0
  -17.6890  -30.5860   24.1440 C   0  0  0  0  0  3  0  0  0  0  0  0
  -16.5830  -29.8220   23.7320 C   0  0  0  0  0  3  0  0  0  0  0  0
  -16.7860  -28.5670   23.1320 C   0  0  0  0  0  3  0  0  0  0  0  0
  -25.9430  -32.4930   23.8330 C   0  0  0  0  0  3  0  0  0  0  0  0
  -25.6280  -33.8900   24.1710 N   0  0  0  0  0  0  0  0  0  0  0  0
  -25.9520  -34.9490   23.4180 C   0  0  0  0  0  0  0  0  0  0  0  0
  -26.6120  -34.8520   22.3800 O   0  0  0  0  0  0  0  0  0  0  0  0
  -25.0400  -34.0370   24.9780 H   0  0  0  0  0  0  0  0  0  0  0  0
  -24.2120  -36.7400   23.0930 C   0  0  0  0  0  1  0  0  0  0  0  0
  -25.4660  -36.3370   23.8850 C   0  0  0  0  0  3  0  0  0  0  0  0
  -27.6110  -37.2280   24.6860 C   0  0  0  0  0  1  0  0  0  0  0  0
  -26.4940  -37.3930   23.7600 N   0  0  0  0  0  0  0  0  0  0  0  0
  -26.0880  -38.3130   23.9130 H   0  0  0  0  0  0  0  0  0  0  0  0
  -26.4590  -31.7200   25.1090 C   0  0  1  0  0  0  0  0  0  0  0  0
  -25.3670  -31.4810   26.1780 C   0  0  0  0  0  1  0  0  0  0  0  0
  -27.0420  -30.3420   24.7210 C   0  0  0  0  0  1  0  0  0  0  0  0
  -27.6100  -32.5150   25.7720 C   0  0  0  0  0  1  0  0  0  0  0  0
  2  1  1  0
  3  4  1  0
  4  2  1  0
  4  5  1  1
  7  6  1  0
  7  4  1  0
  7  8  1  0
  9  8  1  0
 10  9  1  0
 11 16  1  0
 12 13  1  0
 12 11  1  0
 14 13  1  0
 14 21  1  0
 14 15  1  0
 16 10  1  0
 16 15  1  0
 17 10  2  0
 18 19  2  0
 19 38  1  0
 20 19  1  0
 20 23  1  0
 21 18  1  0
 21 22  1  0
 22 20  2  0
 23 24  1  0
 24 25  2  0
 26 29  1  0
 26 25  1  0
 27 26  2  0
 28 27  1  0
 28 23  2  0
 29 30  1  0
 30 31  1  0
 31 32  2  0
 33 32  1  0
 33 37  1  0
 34 33  2  0
 35 30  2  0
 35 34  1  0
 36 35  1  0
 38 39  1  0
 39 42  1  0
 39 41  1  0
 40 38  2  0
 43 44  1  0
 43 18  1  0
 45 43  1  0
 46  2  1  0
 46 47  1  0
 48 50  1  0
 48 47  1  0
 49 60  2  0
 50 55  1  0
 51 59  1  0
 51 61  1  0
 52 58  1  0
 52 54  1  0
 53 59  1  0
 54 53  1  0
 55 54  2  0
 56 50  2  0
 57 56  1  0
 57 52  2  0
 58 51  1  0
 59 49  1  0
 61 63  2  0
 62 61  1  0
 64 62  1  0
 65 74  2  0
 65 70  1  0
 66 62  1  0
 66 70  1  0
 67 66  1  0
 68 69  1  0
 68 67  1  0
 69 65  1  0
 70 71  2  0
 71 72  1  0
 73 72  2  0
 74 73  1  0
 75 49  1  0
 75 76  1  0
 75 85  1  0
 76 79  1  0
 77 81  1  0
 77 76  1  0
 78 77  2  0
 81 80  1  0
 83 81  1  0
 83 84  1  0
 83 82  1  0
 85 88  1  1
 85 86  1  0
 87 85  1  0
M  ISO  4   9 100  10 100  47 101  48 101
M  END
>  <TORSDO>  (2) 
F 22

>  <SCORE>  (2) 
-12.684

>  <name>  (2) 
1

>  <ligand_id>  (2) 
1

>  <original_smiles>  (2) 
[H]c1c([H])c([H])c2c(c1[H])C([H])([H])C([H])([H])C([H])([H])C2([H])N([H])C(=O)C1([H])N(C(=O)C([H])(N([H])C(=O)C([H])(N([H])C([H])([H])[H])C([H])([H])[H])C(C([H])([H])[H])(C([H])([H])[H])C([H])([H])[H])C([H])([H])c2c([H])c(OC([H])([H])C([H])([H])C([H])(C([H])([H])[H])[N+]([H])(C([H])([H])[H])C([H])(C([H])([H])[H])C([H])([H])C([H])([H])C(=O)N3C([H])([H])C([H])([H])C([H])([H])C([H])(n4nc(-c5c([H])c([H])c(Oc6c([H])c([H])c(F)c([H])c6F)c([H])c5[H])c(C(=O)N([H])[H])c4N([H])[H])C3([H])[H])c([H])c([H])c2C1([H])[H]

>  <smiles>  (2) 
[H]c1c([H])c([H])c2c(c1[H])C([H])([H])C([H])([H])C([H])([H])C2([H])N([H])C(=O)C1([H])N(C(=O)C([H])(N([H])C(=O)C([H])(N([H])C([H])([H])[H])C([H])([H])[H])C(C([H])([H])[H])(C([H])([H])[H])C([H])([H])[H])C([H])([H])c2c([H])c(OC([H])([H])C([H])([H])C([H])(C([H])([H])[H])[N+]([H])(C([H])([H])[H])C([H])(C([H])([H])[H])C([H])([H])C([H])([H])C(=O)N3C([H])([H])C([H])([H])C([H])([H])C([H])(n4nc(-c5c([H])c([H])c(Oc6c([H])c([H])c(F)c([H])c6F)c([H])c5[H])c(C(=O)N([H])[H])c4N([H])[H])C3([H])[H])c([H])c([H])c2C1([H])[H]

$$$$
2:0:0
     RDKit          3D

 91 98  0  0  1  0  0  0  0  0999 V2000
  -29.3180  -19.2540   20.5300 C   0  0  0  0  0  0  0  0  0  0  0  0
  -29.5360  -20.6100   20.1730 N   0  0  0  0  0  0  0  0  0  0  0  0
  -28.3360  -19.0070   21.2290 O   0  0  0  0  0  0  0  0  0  0  0  0
  -30.3760  -20.7940   19.6390 H   0  0  0  0  0  0  0  0  0  0  0  0
  -28.6580  -21.8860   20.4600 C   0  0  0  0  0  2  0  0  0  0  0  0
  -29.1010  -23.4810   20.1930 C   0  0  0  0  0  3  0  0  0  0  0  0
  -28.0330  -24.7660   20.3130 C   0  0  0  0  0  3  0  0  0  0  0  0
  -28.3220  -26.2850   20.1980 O   0  0  0  0  0  0  0  0  0  0  0  0
  -24.6060  -31.8680   23.2300 C   0  0  0  0  0  0  0  0  0  0  0  0
  -27.2510  -27.2420   20.1540 C   0  0  0  0  0  0  0  0  0  0  0  0
  -23.4340  -30.4940   21.5520 C   0  0  0  0  0  3  0  0  0  0  0  0
  -24.9100  -28.9590   20.1190 C   0  0  0  0  0  0  0  0  0  0  0  0
  -25.9880  -30.7830   21.4250 C   0  0  0  0  0  2  0  0  0  0  0  0
  -26.0760  -29.4040   20.7530 C   0  0  0  0  0  0  0  0  0  0  0  0
  -27.2480  -28.5610   20.7570 C   0  0  0  0  0  3  0  0  0  0  0  0
  -26.0590  -26.8980   19.4770 C   0  0  0  0  0  3  0  0  0  0  0  0
  -24.9130  -27.7180   19.4650 C   0  0  0  0  0  3  0  0  0  0  0  0
  -23.6760  -29.8450   20.1640 C   0  0  0  0  0  2  0  0  0  0  0  0
  -24.6950  -31.0700   22.1240 N   0  0  0  0  0  0  0  0  0  0  0  0
  -23.5120  -32.1410   23.7460 O   0  0  0  0  0  0  0  0  0  0  0  0
  -22.7480  -29.4660   22.4850 C   0  0  0  0  0  0  0  0  0  0  0  0
  -21.4230  -29.2930   22.3370 N   0  0  0  0  0  0  0  0  0  0  0  0
  -23.4110  -28.8300   23.3080 O   0  0  0  0  0  0  0  0  0  0  0  0
  -20.9500  -29.8560   21.6450 H   0  0  0  0  0  0  0  0  0  0  0  0
  -18.0290  -28.1240   22.8100 C   0  0  0  0  0  0  0  0  0  0  0  0
  -20.5930  -28.3410   23.0780 C   0  0  0  0  0  3  0  0  0  0  0  0
  -20.6740  -26.9290   22.4530 C   0  0  0  0  0  2  0  0  0  0  0  0
  -19.5630  -26.6560   21.4330 C   0  0  0  0  0  2  0  0  0  0  0  0
  -18.1860  -26.7970   22.0870 C   0  0  0  0  0  2  0  0  0  0  0  0
  -19.1590  -28.8560   23.2620 C   0  0  0  0  0  0  0  0  0  0  0  0
  -18.9570  -30.0990   23.9000 C   0  0  0  0  0  3  0  0  0  0  0  0
  -17.6580  -30.6100   24.0900 C   0  0  0  0  0  3  0  0  0  0  0  0
  -16.5440  -29.8720   23.6550 C   0  0  0  0  0  3  0  0  0  0  0  0
  -16.7290  -28.6310   23.0210 C   0  0  0  0  0  3  0  0  0  0  0  0
  -25.8740  -32.4940   23.8880 C   0  0  0  0  0  3  0  0  0  0  0  0
  -25.5680  -33.9000   24.1990 N   0  0  0  0  0  0  0  0  0  0  0  0
  -25.9270  -34.9440   23.4420 C   0  0  0  0  0  0  0  0  0  0  0  0
  -26.6170  -34.8250   22.4250 O   0  0  0  0  0  0  0  0  0  0  0  0
  -24.9570  -34.0660   24.9860 H   0  0  0  0  0  0  0  0  0  0  0  0
  -24.2380  -36.7630   23.0260 C   0  0  0  0  0  1  0  0  0  0  0  0
  -25.4460  -36.3420   23.8790 C   0  0  0  0  0  3  0  0  0  0  0  0
  -27.5530  -37.2110   24.7920 C   0  0  0  0  0  1  0  0  0  0  0  0
  -26.4980  -37.3790   23.7960 N   0  0  0  0  0  0  0  0  0  0  0  0
  -26.1020  -38.3080   23.9090 H   0  0  0  0  0  0  0  0  0  0  0  0
  -26.3370  -31.7290   25.1890 C   0  0  1  0  0  0  0  0  0  0  0  0
  -25.2000  -31.5070   26.2150 C   0  0  0  0  0  1  0  0  0  0  0  0
  -26.9250  -30.3460   24.8320 C   0  0  0  0  0  1  0  0  0  0  0  0
  -27.4690  -32.5200   25.8870 C   0  0  0  0  0  1  0  0  0  0  0  0
  -30.2180  -17.9520   20.0590 C   0  0  0  0  0  3  0  0  0  0  0  0
  -30.3240  -18.0160   18.5820 N   0  0  0  0  0  4  0  0  0  0  0  0
  -30.0180  -17.1400   18.1980 H   0  0  0  0  0  0  0  0  0  0  0  0
  -29.6670  -18.7200   18.2780 H   0  0  0  0  0  0  0  0  0  0  0  0
  -31.7000  -18.2640   16.5080 C   0  0  0  0  0  1  0  0  0  0  0  0
  -31.6700  -18.3300   18.0450 C   0  0  0  0  0  2  0  0  0  0  0  0
  -29.8440  -16.3820   20.5400 C   0  0  0  0  0  2  0  0  0  0  0  0
  -30.6850  -15.0060   20.1710 C   0  0  0  0  0  0  0  0  0  0  0  0
  -30.5670  -12.6760   19.1780 C   0  0  0  0  0  2  0  0  0  0  0  0
  -29.5930  -12.6930   17.9750 C   0  0  0  0  0  2  0  0  0  0  0  0
  -28.1400  -12.4690   18.4420 C   0  0  0  0  0  2  0  0  0  0  0  0
  -27.7740  -13.3420   19.6700 C   0  0  0  0  0  3  0  0  0  0  0  0
  -28.8670  -13.3130   20.7600 C   0  0  0  0  0  2  0  0  0  0  0  0
  -30.1290  -13.7290   20.1360 N   0  0  0  0  0  0  0  0  0  0  0  0
  -31.8530  -15.1160   19.7800 O   0  0  0  0  0  0  0  0  0  0  0  0
  -25.4230  -13.8860   20.5210 C   0  0  0  0  0  0  0  0  0  0  0  0
  -24.3770  -13.0930   20.9120 C   0  0  0  0  0  0  0  0  0  0  0  0
  -24.8460  -11.7460   20.8180 C   0  0  0  0  0  0  0  0  0  0  0  0
  -26.4570  -13.0200   20.2090 N   0  0  0  0  0  0  0  0  0  0  0  0
  -26.1230  -11.7260   20.4500 N   0  0  0  0  0  0  0  0  0  0  0  0
  -24.1330  -10.4750   20.9990 C   0  0  0  0  0  0  0  0  0  0  0  0
  -24.5630   -9.5160   21.9410 C   0  0  0  0  0  3  0  0  0  0  0  0
  -23.8510   -8.3090   22.1100 C   0  0  0  0  0  3  0  0  0  0  0  0
  -22.6910   -8.0560   21.3360 C   0  0  0  0  0  0  0  0  0  0  0  0
  -22.2820   -9.0040   20.3830 C   0  0  0  0  0  3  0  0  0  0  0  0
  -22.9960  -10.2030   20.2130 C   0  0  0  0  0  3  0  0  0  0  0  0
  -21.9480   -6.9030   21.4140 O   0  0  0  0  0  0  0  0  0  0  0  0
  -21.8270   -6.2020   22.5870 C   0  0  0  0  0  0  0  0  0  0  0  0
  -21.2310   -6.7670   23.7360 C   0  0  0  0  0  3  0  0  0  0  0  0
  -21.0670   -5.9870   24.8990 C   0  0  0  0  0  3  0  0  0  0  0  0
  -21.4850   -4.6420   24.9130 C   0  0  0  0  0  0  0  0  0  0  0  0
  -22.0720   -4.0770   23.7660 C   0  0  0  0  0  3  0  0  0  0  0  0
  -22.2410   -4.8550   22.6070 C   0  0  0  0  0  0  0  0  0  0  0  0
  -22.7900   -4.2990   21.5000 F   0  0  0  0  0  0  0  0  0  0  0  0
  -21.3200   -3.8910   26.0270 F   0  0  0  0  0  0  0  0  0  0  0  0
  -22.9910  -13.5540   21.2570 C   0  0  0  0  0  0  0  0  0  0  0  0
  -22.2960  -12.8120   22.1110 N   0  0  0  0  0  0  0  0  0  0  0  0
  -22.5340  -14.6020   20.8040 O   0  0  0  0  0  0  0  0  0  0  0  0
  -22.6840  -11.9690   22.5090 H   0  0  0  0  0  0  0  0  0  0  0  0
  -21.3610  -13.0890   22.3720 H   0  0  0  0  0  0  0  0  0  0  0  0
  -25.5750  -15.2610   20.3800 N   0  0  0  0  0  0  0  0  0  0  0  0
  -24.8180  -15.9140   20.5470 H   0  0  0  0  0  0  0  0  0  0  0  0
  -26.4170  -15.7100   20.0450 H   0  0  0  0  0  0  0  0  0  0  0  0
  1  3  2  0
  2  5  1  0
  2  1  1  0
  4  2  1  0
  6  7  2  0
  6  5  1  0
  8  7  1  0
  9 20  2  0
 10  8  1  0
 10 15  1  0
 11 19  1  0
 11 21  1  0
 12 18  1  0
 12 14  1  0
 13 19  1  0
 14 15  2  0
 14 13  1  0
 16 10  2  0
 17 16  1  0
 17 12  2  0
 18 11  1  0
 19  9  1  0
 21 23  2  0
 22 21  1  0
 24 22  1  0
 25 34  2  0
 25 30  1  0
 26 22  1  0
 26 30  1  0
 27 26  1  0
 28 29  1  0
 28 27  1  0
 29 25  1  0
 30 31  2  0
 31 32  1  0
 33 32  2  0
 34 33  1  0
 35  9  1  0
 35 36  1  0
 35 45  1  0
 36 39  1  0
 37 41  1  0
 37 36  1  0
 38 37  2  0
 41 40  1  0
 43 41  1  0
 43 44  1  0
 43 42  1  0
 45 48  1  1
 45 46  1  0
 47 45  1  0
 49  1  1  0
 49 55  1  0
 50 49  1  0
 51 50  1  0
 52 50  1  0
 53 54  1  0
 54 50  1  0
 56 55  1  0
 57 62  1  0
 58 59  1  0
 58 57  1  0
 60 59  1  0
 60 67  1  0
 60 61  1  0
 62 56  1  0
 62 61  1  0
 63 56  2  0
 64 65  2  0
 65 84  1  0
 66 65  1  0
 66 69  1  0
 67 68  1  0
 67 64  1  0
 68 66  2  0
 69 70  1  0
 70 71  2  0
 72 75  1  0
 72 71  1  0
 73 72  2  0
 74 73  1  0
 74 69  2  0
 75 76  1  0
 76 81  2  0
 76 77  1  0
 77 78  2  0
 78 79  1  0
 79 83  1  0
 80 79  2  0
 81 80  1  0
 82 81  1  0
 84 85  1  0
 85 88  1  0
 85 87  1  0
 86 84  2  0
 89 64  1  0
 89 90  1  0
 91 89  1  0
M  ISO  4   7 101   8 101  55 100  56 100
M  END
>  <TORSDO>  (3) 
F 23

>  <SCORE>  (3) 
-12.249

>  <name>  (3) 
2

>  <ligand_id>  (3) 
2

>  <original_smiles>  (3) 
[H]c1c([H])c([H])c2c(c1[H])C([H])([H])C([H])([H])C([H])([H])C2([H])N([H])C(=O)C1([H])N(C(=O)C([H])(N([H])C(=O)C([H])(N([H])C([H])([H])[H])C([H])([H])[H])C(C([H])([H])[H])(C([H])([H])[H])C([H])([H])[H])C([H])([H])c2c([H])c(OC([H])([H])C([H])([H])C([H])([H])N([H])C(=O)C([H])(C([H])([H])C(=O)N3C([H])([H])C([H])([H])C([H])([H])C([H])(n4nc(-c5c([H])c([H])c(Oc6c([H])c([H])c(F)c([H])c6F)c([H])c5[H])c(C(=O)N([H])[H])c4N([H])[H])C3([H])[H])[N+]([H])([H])C([H])([H])C([H])([H])[H])c([H])c([H])c2C1([H])[H]

>  <smiles>  (3) 
[H]c1c([H])c([H])c2c(c1[H])C([H])([H])C([H])([H])C([H])([H])C2([H])N([H])C(=O)C1([H])N(C(=O)C([H])(N([H])C(=O)C([H])(N([H])C([H])([H])[H])C([H])([H])[H])C(C([H])([H])[H])(C([H])([H])[H])C([H])([H])[H])C([H])([H])c2c([H])c(OC([H])([H])C([H])([H])C([H])([H])N([H])C(=O)C([H])(C([H])([H])C(=O)N3C([H])([H])C([H])([H])C([H])([H])C([H])(n4nc(-c5c([H])c([H])c(Oc6c([H])c([H])c(F)c([H])c6F)c([H])c5[H])c(C(=O)N([H])[H])c4N([H])[H])C3([H])[H])[N+]([H])([H])C([H])([H])C([H])([H])[H])c([H])c([H])c2C1([H])[H]

$$$$
3:0:0
     RDKit          3D

 86 93  0  0  1  0  0  0  0  0999 V2000
  -28.6640  -23.2910   20.4460 C   0  0  0  0  0  3  0  0  0  0  0  0
  -28.6790  -21.9870   19.8680 C   0  0  0  0  0  0  0  0  0  0  0  0
  -27.9470  -21.8930   18.5370 C   0  0  0  0  0  1  0  0  0  0  0  0
  -29.2460  -20.6410   20.4590 C   0  0  0  0  0  3  0  0  0  0  0  0
  -29.5430  -19.3560   19.9030 C   0  0  0  0  0  0  0  0  0  0  0  0
  -29.4720  -19.1280   18.4030 C   0  0  0  0  0  1  0  0  0  0  0  0
  -30.0870  -17.9650   20.6120 C   0  0  0  0  0  2  0  0  0  0  0  0
  -29.5700  -16.3860   20.2940 C   0  0  0  0  0  2  0  0  0  0  0  0
  -30.4670  -14.9810   20.2880 C   0  0  0  0  0  0  0  0  0  0  0  0
  -30.3810  -12.6220   19.3730 C   0  0  0  0  0  2  0  0  0  0  0  0
  -29.4420  -12.5890   18.1430 C   0  0  0  0  0  2  0  0  0  0  0  0
  -27.9790  -12.3800   18.5770 C   0  0  0  0  0  2  0  0  0  0  0  0
  -27.5750  -13.3020   19.7590 C   0  0  0  0  0  3  0  0  0  0  0  0
  -28.6310  -13.2990   20.8810 C   0  0  0  0  0  2  0  0  0  0  0  0
  -29.9130  -13.7020   20.2850 N   0  0  0  0  0  0  0  0  0  0  0  0
  -31.6770  -15.0530   20.0450 O   0  0  0  0  0  0  0  0  0  0  0  0
  -25.1960  -13.8830   20.5050 C   0  0  0  0  0  0  0  0  0  0  0  0
  -24.1330  -13.1070   20.8800 C   0  0  0  0  0  0  0  0  0  0  0  0
  -24.5980  -11.7580   20.8540 C   0  0  0  0  0  0  0  0  0  0  0  0
  -26.2380  -13.0040   20.2620 N   0  0  0  0  0  0  0  0  0  0  0  0
  -25.8880  -11.7210   20.5390 N   0  0  0  0  0  0  0  0  0  0  0  0
  -23.8750  -10.4940   21.0510 C   0  0  0  0  0  0  0  0  0  0  0  0
  -24.3200   -9.5210   21.9720 C   0  0  0  0  0  3  0  0  0  0  0  0
  -23.5930   -8.3250   22.1580 C   0  0  0  0  0  3  0  0  0  0  0  0
  -22.4080   -8.0930   21.4200 C   0  0  0  0  0  0  0  0  0  0  0  0
  -21.9810   -9.0550   20.4880 C   0  0  0  0  0  3  0  0  0  0  0  0
  -22.7100  -10.2430   20.3010 C   0  0  0  0  0  3  0  0  0  0  0  0
  -21.6520   -6.9500   21.5140 O   0  0  0  0  0  0  0  0  0  0  0  0
  -21.6330   -6.1920   22.6580 C   0  0  0  0  0  0  0  0  0  0  0  0
  -21.2470   -6.7330   23.9030 C   0  0  0  0  0  3  0  0  0  0  0  0
  -21.1750   -5.9030   25.0390 C   0  0  0  0  0  3  0  0  0  0  0  0
  -21.4770   -4.5310   24.9320 C   0  0  0  0  0  0  0  0  0  0  0  0
  -21.8520   -3.9900   23.6900 C   0  0  0  0  0  3  0  0  0  0  0  0
  -21.9280   -4.8180   22.5560 C   0  0  0  0  0  0  0  0  0  0  0  0
  -22.2710   -4.2860   21.3580 F   0  0  0  0  0  0  0  0  0  0  0  0
  -21.4000   -3.7310   26.0210 F   0  0  0  0  0  0  0  0  0  0  0  0
  -22.7370  -13.5860   21.1540 C   0  0  0  0  0  0  0  0  0  0  0  0
  -22.0120  -12.8920   22.0260 N   0  0  0  0  0  0  0  0  0  0  0  0
  -22.2960  -14.6060   20.6290 O   0  0  0  0  0  0  0  0  0  0  0  0
  -22.3820  -12.0670   22.4760 H   0  0  0  0  0  0  0  0  0  0  0  0
  -21.0730  -13.1940   22.2500 H   0  0  0  0  0  0  0  0  0  0  0  0
  -25.3580  -15.2520   20.3240 N   0  0  0  0  0  0  0  0  0  0  0  0
  -24.5950  -15.9090   20.4510 H   0  0  0  0  0  0  0  0  0  0  0  0
  -26.2080  -15.6960   20.0000 H   0  0  0  0  0  0  0  0  0  0  0  0
  -27.9000  -24.6710   19.9420 C   0  0  0  0  0  2  0  0  0  0  0  0
  -28.2200  -26.1540   20.2970 O   0  0  0  0  0  0  0  0  0  0  0  0
  -24.6310  -31.8890   23.2400 C   0  0  0  0  0  0  0  0  0  0  0  0
  -27.1830  -27.1630   20.2040 C   0  0  0  0  0  0  0  0  0  0  0  0
  -23.4220  -30.4950   21.6050 C   0  0  0  0  0  3  0  0  0  0  0  0
  -24.8610  -28.9220   20.1730 C   0  0  0  0  0  0  0  0  0  0  0  0
  -25.9760  -30.7530   21.4360 C   0  0  0  0  0  2  0  0  0  0  0  0
  -26.0430  -29.3590   20.7850 C   0  0  0  0  0  0  0  0  0  0  0  0
  -27.2010  -28.4910   20.7920 C   0  0  0  0  0  3  0  0  0  0  0  0
  -25.9810  -26.8480   19.5280 C   0  0  0  0  0  3  0  0  0  0  0  0
  -24.8440  -27.6800   19.5250 C   0  0  0  0  0  3  0  0  0  0  0  0
  -23.6390  -29.8230   20.2240 C   0  0  0  0  0  2  0  0  0  0  0  0
  -24.6970  -31.0670   22.1490 N   0  0  0  0  0  0  0  0  0  0  0  0
  -23.5470  -32.1780   23.7700 O   0  0  0  0  0  0  0  0  0  0  0  0
  -22.7440  -29.4870   22.5680 C   0  0  0  0  0  0  0  0  0  0  0  0
  -21.4150  -29.3220   22.4470 N   0  0  0  0  0  0  0  0  0  0  0  0
  -23.4150  -28.8590   23.3920 O   0  0  0  0  0  0  0  0  0  0  0  0
  -20.9270  -29.8800   21.7600 H   0  0  0  0  0  0  0  0  0  0  0  0
  -18.0330  -28.1240   22.9510 C   0  0  0  0  0  0  0  0  0  0  0  0
  -20.5930  -28.3890   23.2220 C   0  0  0  0  0  3  0  0  0  0  0  0
  -20.6940  -26.9540   22.6560 C   0  0  0  0  0  2  0  0  0  0  0  0
  -19.5940  -26.6240   21.6420 C   0  0  0  0  0  2  0  0  0  0  0  0
  -18.2120  -26.7710   22.2820 C   0  0  0  0  0  2  0  0  0  0  0  0
  -19.1510  -28.8900   23.3780 C   0  0  0  0  0  0  0  0  0  0  0  0
  -18.9280  -30.1540   23.9640 C   0  0  0  0  0  3  0  0  0  0  0  0
  -17.6230  -30.6540   24.1280 C   0  0  0  0  0  3  0  0  0  0  0  0
  -16.5200  -29.8850   23.7160 C   0  0  0  0  0  3  0  0  0  0  0  0
  -16.7270  -28.6230   23.1330 C   0  0  0  0  0  3  0  0  0  0  0  0
  -25.9130  -32.5220   23.8610 C   0  0  0  0  0  3  0  0  0  0  0  0
  -26.4300  -31.7490   25.1370 C   0  0  1  0  0  0  0  0  0  0  0  0
  -25.3390  -31.5180   26.2080 C   0  0  0  0  0  1  0  0  0  0  0  0
  -27.0060  -30.3670   24.7480 C   0  0  0  0  0  1  0  0  0  0  0  0
  -27.5860  -32.5380   25.7960 C   0  0  0  0  0  1  0  0  0  0  0  0
  -25.6070  -33.9210   24.1970 N   0  0  0  0  0  0  0  0  0  0  0  0
  -25.9240  -34.9780   23.4370 C   0  0  0  0  0  0  0  0  0  0  0  0
  -26.5740  -34.8770   22.3930 O   0  0  0  0  0  0  0  0  0  0  0  0
  -25.0310  -34.0730   25.0120 H   0  0  0  0  0  0  0  0  0  0  0  0
  -24.1820  -36.7680   23.1350 C   0  0  0  0  0  1  0  0  0  0  0  0
  -25.4470  -36.3650   23.9090 C   0  0  0  0  0  3  0  0  0  0  0  0
  -27.6030  -37.2570   24.6760 C   0  0  0  0  0  1  0  0  0  0  0  0
  -26.4720  -37.4220   23.7670 N   0  0  0  0  0  0  0  0  0  0  0  0
  -26.0680  -38.3410   23.9240 H   0  0  0  0  0  0  0  0  0  0  0  0
  2  1  2  0
  2  4  1  0
  3  2  1  0
  5  4  2  0
  5  7  1  0
  6  5  1  0
  8  7  1  0
  9  8  1  0
 10 15  1  0
 11 12  1  0
 11 10  1  0
 13 12  1  0
 13 20  1  0
 13 14  1  0
 15  9  1  0
 15 14  1  0
 16  9  2  0
 17 18  2  0
 18 37  1  0
 19 18  1  0
 19 22  1  0
 20 17  1  0
 20 21  1  0
 21 19  2  0
 22 23  1  0
 23 24  2  0
 25 28  1  0
 25 24  1  0
 26 25  2  0
 27 26  1  0
 27 22  2  0
 28 29  1  0
 29 30  1  0
 30 31  2  0
 32 31  1  0
 32 36  1  0
 33 32  2  0
 34 29  2  0
 34 33  1  0
 35 34  1  0
 37 38  1  0
 38 41  1  0
 38 40  1  0
 39 37  2  0
 42 43  1  0
 42 17  1  0
 44 42  1  0
 45 46  1  0
 45  1  1  0
 47 58  2  0
 48 46  1  0
 48 53  1  0
 49 57  1  0
 49 59  1  0
 50 56  1  0
 50 52  1  0
 51 57  1  0
 52 53  2  0
 52 51  1  0
 54 48  2  0
 55 54  1  0
 55 50  2  0
 56 49  1  0
 57 47  1  0
 59 61  2  0
 60 59  1  0
 62 60  1  0
 63 72  2  0
 63 68  1  0
 64 60  1  0
 64 68  1  0
 65 64  1  0
 66 67  1  0
 66 65  1  0
 67 63  1  0
 68 69  2  0
 69 70  1  0
 71 70  2  0
 72 71  1  0
 73 47  1  0
 73 78  1  0
 73 74  1  0
 74 77  1  1
 74 75  1  0
 76 74  1  0
 78 81  1  0
 79 83  1  0
 79 78  1  0
 80 79  2  0
 83 82  1  0
 85 83  1  0
 85 86  1  0
 85 84  1  0
M  ISO  4   8 100   9 100  45 101  46 101
M  END
>  <TORSDO>  (4) 
F 20

>  <SCORE>  (4) 
-13.680

>  <name>  (4) 
3

>  <ligand_id>  (4) 
3

>  <original_smiles>  (4) 
[H]C(C(=C([H])C([H])([H])Oc1c([H])c([H])c2c(c1[H])C([H])([H])N(C(=O)C([H])(N([H])C(=O)C([H])(N([H])C([H])([H])[H])C([H])([H])[H])C(C([H])([H])[H])(C([H])([H])[H])C([H])([H])[H])C([H])(C(=O)N([H])C1([H])c3c([H])c([H])c([H])c([H])c3C([H])([H])C([H])([H])C1([H])[H])C2([H])[H])C([H])([H])[H])=C(C([H])([H])[H])C([H])([H])C([H])([H])C(=O)N1C([H])([H])C([H])([H])C([H])([H])C([H])(n2nc(-c3c([H])c([H])c(Oc4c([H])c([H])c(F)c([H])c4F)c([H])c3[H])c(C(=O)N([H])[H])c2N([H])[H])C1([H])[H]

>  <smiles>  (4) 
[H]C(C(=C([H])C([H])([H])Oc1c([H])c([H])c2c(c1[H])C([H])([H])N(C(=O)C([H])(N([H])C(=O)C([H])(N([H])C([H])([H])[H])C([H])([H])[H])C(C([H])([H])[H])(C([H])([H])[H])C([H])([H])[H])C([H])(C(=O)N([H])C1([H])c3c([H])c([H])c([H])c([H])c3C([H])([H])C([H])([H])C1([H])[H])C2([H])[H])C([H])([H])[H])=C(C([H])([H])[H])C([H])([H])C([H])([H])C(=O)N1C([H])([H])C([H])([H])C([H])([H])C([H])(n2nc(-c3c([H])c([H])c(Oc4c([H])c([H])c(F)c([H])c4F)c([H])c3[H])c(C(=O)N([H])[H])c2N([H])[H])C1([H])[H]

$$$$
4:0:0
     RDKit          3D

 89 96  0  0  1  0  0  0  0  0999 V2000
  -28.2980  -19.5170   18.8470 C   0  0  0  0  0  1  0  0  0  0  0  0
  -29.3510  -19.9250   19.8020 N   0  0  1  0  0  4  0  0  0  0  0  0
  -30.1170  -20.2130   19.2110 H   0  0  0  0  0  0  0  0  0  0  0  0
  -28.8970  -21.3510   20.5100 C   0  0  0  0  0  3  0  0  0  0  0  0
  -28.8040  -22.9830   19.8100 C   0  0  0  0  0  3  0  0  0  0  0  0
  -28.0510  -24.4860   20.3850 C   0  0  0  0  0  2  0  0  0  0  0  0
  -28.2460  -26.0720   20.0800 O   0  0  0  0  0  0  0  0  0  0  0  0
  -24.5640  -31.8840   23.1170 C   0  0  0  0  0  0  0  0  0  0  0  0
  -27.1970  -27.1100   20.0830 C   0  0  0  0  0  0  0  0  0  0  0  0
  -23.3920  -30.4840   21.4660 C   0  0  0  0  0  3  0  0  0  0  0  0
  -24.8660  -28.9160   20.0410 C   0  0  0  0  0  0  0  0  0  0  0  0
  -25.9530  -30.7490   21.3230 C   0  0  0  0  0  2  0  0  0  0  0  0
  -26.0450  -29.3490   20.6610 C   0  0  0  0  0  0  0  0  0  0  0  0
  -27.2100  -28.4680   20.6540 C   0  0  0  0  0  3  0  0  0  0  0  0
  -25.9870  -26.8110   19.4220 C   0  0  0  0  0  3  0  0  0  0  0  0
  -24.8570  -27.6660   19.4010 C   0  0  0  0  0  3  0  0  0  0  0  0
  -23.6330  -29.8130   20.0870 C   0  0  0  0  0  2  0  0  0  0  0  0
  -24.6580  -31.0650   22.0230 N   0  0  0  0  0  0  0  0  0  0  0  0
  -23.4690  -32.1540   23.6390 O   0  0  0  0  0  0  0  0  0  0  0  0
  -22.7140  -29.4680   22.4210 C   0  0  0  0  0  0  0  0  0  0  0  0
  -21.3840  -29.3040   22.3080 N   0  0  0  0  0  0  0  0  0  0  0  0
  -23.3900  -28.8300   23.2320 O   0  0  0  0  0  0  0  0  0  0  0  0
  -20.8930  -29.8680   21.6280 H   0  0  0  0  0  0  0  0  0  0  0  0
  -18.0020  -28.1100   22.8510 C   0  0  0  0  0  0  0  0  0  0  0  0
  -20.5680  -28.3540   23.0710 C   0  0  0  0  0  3  0  0  0  0  0  0
  -20.6500  -26.9360   22.4620 C   0  0  0  0  0  2  0  0  0  0  0  0
  -19.5270  -26.6430   21.4630 C   0  0  0  0  0  2  0  0  0  0  0  0
  -18.1580  -26.7780   22.1370 C   0  0  0  0  0  2  0  0  0  0  0  0
  -19.1340  -28.8570   23.2760 C   0  0  0  0  0  0  0  0  0  0  0  0
  -18.9330  -30.1030   23.9090 C   0  0  0  0  0  3  0  0  0  0  0  0
  -17.6330  -30.6030   24.1180 C   0  0  0  0  0  3  0  0  0  0  0  0
  -16.5170  -29.8530   23.7070 C   0  0  0  0  0  3  0  0  0  0  0  0
  -16.7020  -28.6070   23.0810 C   0  0  0  0  0  3  0  0  0  0  0  0
  -25.8260  -32.5380   23.7570 C   0  0  0  0  0  3  0  0  0  0  0  0
  -25.4890  -33.9310   24.0990 N   0  0  0  0  0  0  0  0  0  0  0  0
  -25.8230  -35.0030   23.3680 C   0  0  0  0  0  0  0  0  0  0  0  0
  -26.5120  -34.9230   22.3480 O   0  0  0  0  0  0  0  0  0  0  0  0
  -24.8750  -34.0640   24.8900 H   0  0  0  0  0  0  0  0  0  0  0  0
  -24.0940  -36.7980   23.0110 C   0  0  0  0  0  1  0  0  0  0  0  0
  -25.3180  -36.3810   23.8420 C   0  0  0  0  0  3  0  0  0  0  0  0
  -27.4220  -37.2680   24.7470 C   0  0  0  0  0  1  0  0  0  0  0  0
  -26.3460  -37.4430   23.7740 N   0  0  0  0  0  0  0  0  0  0  0  0
  -25.9290  -38.3580   23.9230 H   0  0  0  0  0  0  0  0  0  0  0  0
  -26.3370  -31.7720   25.0410 C   0  0  1  0  0  0  0  0  0  0  0  0
  -25.2350  -31.5190   26.0970 C   0  0  0  0  0  1  0  0  0  0  0  0
  -26.9410  -30.4000   24.6610 C   0  0  0  0  0  1  0  0  0  0  0  0
  -27.4710  -32.5780   25.7160 C   0  0  0  0  0  1  0  0  0  0  0  0
  -29.9910  -18.5770   20.5280 C   0  0  0  0  0  3  0  0  0  0  0  0
  -32.2140  -19.9400   20.1010 C   0  0  0  0  0  1  0  0  0  0  0  0
  -31.4970  -18.8030   20.8610 C   0  0  0  0  0  3  0  0  0  0  0  0
  -31.3360  -20.1430   23.0900 C   0  0  0  0  0  1  0  0  0  0  0  0
  -31.7710  -18.8460   22.3820 C   0  0  0  0  0  2  0  0  0  0  0  0
  -29.7720  -16.8620   20.0900 C   0  0  0  0  0  2  0  0  0  0  0  0
  -30.6620  -15.3760   20.2890 C   0  0  0  0  0  0  0  0  0  0  0  0
  -30.6900  -12.9310   19.4700 C   0  0  0  0  0  2  0  0  0  0  0  0
  -29.7800  -12.7610   18.2270 C   0  0  0  0  0  2  0  0  0  0  0  0
  -28.3180  -12.5000   18.6420 C   0  0  0  0  0  2  0  0  0  0  0  0
  -27.8580  -13.4530   19.7740 C   0  0  0  0  0  3  0  0  0  0  0  0
  -28.8950  -13.5810   20.9060 C   0  0  0  0  0  2  0  0  0  0  0  0
  -30.1450  -14.0580   20.3010 N   0  0  0  0  0  0  0  0  0  0  0  0
  -31.8900  -15.4020   20.1340 O   0  0  0  0  0  0  0  0  0  0  0  0
  -25.4810  -13.9970   20.5230 C   0  0  0  0  0  0  0  0  0  0  0  0
  -24.4220  -13.2120   20.8820 C   0  0  0  0  0  0  0  0  0  0  0  0
  -24.8940  -11.8650   20.8430 C   0  0  0  0  0  0  0  0  0  0  0  0
  -26.5280  -13.1290   20.2740 N   0  0  0  0  0  0  0  0  0  0  0  0
  -26.1880  -11.8390   20.5360 N   0  0  0  0  0  0  0  0  0  0  0  0
  -24.1730  -10.5970   21.0220 C   0  0  0  0  0  0  0  0  0  0  0  0
  -24.5830   -9.6380   21.9730 C   0  0  0  0  0  3  0  0  0  0  0  0
  -23.8580   -8.4380   22.1390 C   0  0  0  0  0  3  0  0  0  0  0  0
  -22.7090   -8.1890   21.3490 C   0  0  0  0  0  0  0  0  0  0  0  0
  -22.3200   -9.1360   20.3860 C   0  0  0  0  0  3  0  0  0  0  0  0
  -23.0460  -10.3270   20.2200 C   0  0  0  0  0  3  0  0  0  0  0  0
  -21.9590   -7.0390   21.4230 O   0  0  0  0  0  0  0  0  0  0  0  0
  -21.8460   -6.3260   22.5890 C   0  0  0  0  0  0  0  0  0  0  0  0
  -21.3180   -6.9010   23.7660 C   0  0  0  0  0  3  0  0  0  0  0  0
  -21.1540   -6.1130   24.9230 C   0  0  0  0  0  3  0  0  0  0  0  0
  -21.5080   -4.7510   24.9020 C   0  0  0  0  0  0  0  0  0  0  0  0
  -22.0270   -4.1750   23.7310 C   0  0  0  0  0  3  0  0  0  0  0  0
  -22.1920   -4.9600   22.5770 C   0  0  0  0  0  0  0  0  0  0  0  0
  -22.6750   -4.3940   21.4440 F   0  0  0  0  0  0  0  0  0  0  0  0
  -21.3430   -3.9930   26.0120 F   0  0  0  0  0  0  0  0  0  0  0  0
  -23.0200  -13.6810   21.1440 C   0  0  0  0  0  0  0  0  0  0  0  0
  -22.2930  -12.9820   22.0080 N   0  0  0  0  0  0  0  0  0  0  0  0
  -22.5800  -14.7030   20.6190 O   0  0  0  0  0  0  0  0  0  0  0  0
  -22.6610  -12.1540   22.4520 H   0  0  0  0  0  0  0  0  0  0  0  0
  -21.3530  -13.2790   22.2290 H   0  0  0  0  0  0  0  0  0  0  0  0
  -25.6370  -15.3700   20.3590 N   0  0  0  0  0  0  0  0  0  0  0  0
  -24.8630  -16.0170   20.4690 H   0  0  0  0  0  0  0  0  0  0  0  0
  -26.4770  -15.8150   20.0140 H   0  0  0  0  0  0  0  0  0  0  0  0
  1  2  1  0
  2  4  1  0
  2 48  1  0
  2  3  1  6
  5  6  1  0
  5  4  2  0
  7  9  1  0
  7  6  1  0
  8 19  2  0
  9 14  1  0
 10 18  1  0
 10 20  1  0
 11 17  1  0
 11 13  1  0
 12 18  1  0
 13 12  1  0
 14 13  2  0
 15  9  2  0
 16 15  1  0
 16 11  2  0
 17 10  1  0
 18  8  1  0
 20 22  2  0
 21 20  1  0
 23 21  1  0
 24 33  2  0
 24 29  1  0
 25 21  1  0
 25 29  1  0
 26 25  1  0
 27 28  1  0
 27 26  1  0
 28 24  1  0
 29 30  2  0
 30 31  1  0
 32 31  2  0
 33 32  1  0
 34  8  1  0
 34 35  1  0
 34 44  1  0
 35 38  1  0
 36 40  1  0
 36 35  1  0
 37 36  2  0
 40 39  1  0
 42 40  1  0
 42 43  1  0
 42 41  1  0
 44 47  1  1
 44 45  1  0
 46 44  1  0
 48 53  1  0
 48 50  1  0
 50 49  1  0
 50 52  1  0
 52 51  1  0
 53 54  1  0
 54 60  1  0
 55 60  1  0
 56 57  1  0
 56 55  1  0
 58 57  1  0
 58 65  1  0
 58 59  1  0
 60 59  1  0
 61 54  2  0
 62 63  2  0
 63 82  1  0
 64 63  1  0
 64 67  1  0
 65 62  1  0
 65 66  1  0
 66 64  2  0
 67 68  1  0
 68 69  2  0
 70 73  1  0
 70 69  1  0
 71 70  2  0
 72 71  1  0
 72 67  2  0
 73 74  1  0
 74 75  1  0
 75 76  2  0
 77 76  1  0
 77 81  1  0
 78 77  2  0
 79 74  2  0
 79 78  1  0
 80 79  1  0
 82 83  1  0
 83 86  1  0
 83 85  1  0
 84 82  2  0
 87 88  1  0
 87 62  1  0
 89 87  1  0
M  ISO  4   6 101   7 101  53 100  54 100
M  END
>  <TORSDO>  (5) 
F 23

>  <SCORE>  (5) 
-14.488

>  <name>  (5) 
4

>  <ligand_id>  (5) 
4

>  <original_smiles>  (5) 
[H]c1c([H])c([H])c2c(c1[H])C([H])([H])C([H])([H])C([H])([H])C2([H])N([H])C(=O)C1([H])N(C(=O)C([H])(N([H])C(=O)C([H])(N([H])C([H])([H])[H])C([H])([H])[H])C(C([H])([H])[H])(C([H])([H])[H])C([H])([H])[H])C([H])([H])c2c([H])c(OC([H])([H])C([H])([H])C([H])([H])[N+]([H])(C([H])([H])[H])C([H])(C([H])([H])C(=O)N3C([H])([H])C([H])([H])C([H])([H])C([H])(n4nc(-c5c([H])c([H])c(Oc6c([H])c([H])c(F)c([H])c6F)c([H])c5[H])c(C(=O)N([H])[H])c4N([H])[H])C3([H])[H])C([H])(C([H])([H])[H])C([H])([H])C([H])([H])[H])c([H])c([H])c2C1([H])[H]

>  <smiles>  (5) 
[H]c1c([H])c([H])c2c(c1[H])C([H])([H])C([H])([H])C([H])([H])C2([H])N([H])C(=O)C1([H])N(C(=O)C([H])(N([H])C(=O)C([H])(N([H])C([H])([H])[H])C([H])([H])[H])C(C([H])([H])[H])(C([H])([H])[H])C([H])([H])[H])C([H])([H])c2c([H])c(OC([H])([H])C([H])([H])C([H])([H])[N+]([H])(C([H])([H])[H])C([H])(C([H])([H])C(=O)N3C([H])([H])C([H])([H])C([H])([H])C([H])(n4nc(-c5c([H])c([H])c(Oc6c([H])c([H])c(F)c([H])c6F)c([H])c5[H])c(C(=O)N([H])[H])c4N([H])[H])C3([H])[H])C([H])(C([H])([H])[H])C([H])([H])C([H])([H])[H])c([H])c([H])c2C1([H])[H]

$$$$
5:0:0
     RDKit          3D

 91 99  0  0  1  0  0  0  0  0999 V2000
  -30.5060  -22.9810   22.3000 C   0  0  0  0  0  3  0  0  0  0  0  0
  -28.5520  -22.5040   20.9350 C   0  0  0  0  0  3  0  0  0  0  0  0
  -30.3260  -24.3640   22.0810 C   0  0  0  0  0  3  0  0  0  0  0  0
  -28.3780  -23.8910   20.7080 C   0  0  0  0  0  3  0  0  0  0  0  0
  -29.5930  -22.0420   21.7720 C   0  0  0  0  0  0  0  0  0  0  0  0
  -29.2400  -24.8360   21.3120 C   0  0  0  0  0  0  0  0  0  0  0  0
  -29.6700  -20.5760   22.2290 C   0  0  0  0  0  2  0  0  0  0  0  0
  -30.1080  -19.5300   21.1660 C   0  0  0  0  0  2  0  0  0  0  0  0
  -31.2960  -18.0020   22.7250 C   0  0  0  0  0  1  0  0  0  0  0  0
  -30.2260  -18.1300   21.7010 N   0  0  2  0  0  4  0  0  0  0  0  0
  -29.3480  -17.9260   22.1560 H   0  0  0  0  0  0  0  0  0  0  0  0
  -30.3910  -17.1030   20.6250 C   0  0  0  0  0  2  0  0  0  0  0  0
  -29.9440  -15.6640   21.0360 C   0  0  0  0  0  2  0  0  0  0  0  0
  -30.5690  -14.5310   20.1810 C   0  0  0  0  0  0  0  0  0  0  0  0
  -30.2390  -12.4130   18.9460 C   0  0  0  0  0  2  0  0  0  0  0  0
  -29.2370  -12.6460   17.7950 C   0  0  0  0  0  2  0  0  0  0  0  0
  -27.7870  -12.4810   18.2950 C   0  0  0  0  0  2  0  0  0  0  0  0
  -27.5080  -13.2870   19.5910 C   0  0  0  0  0  3  0  0  0  0  0  0
  -28.6120  -13.0220   20.6400 C   0  0  0  0  0  2  0  0  0  0  0  0
  -29.9060  -13.3540   20.0260 N   0  0  0  0  0  0  0  0  0  0  0  0
  -31.6360  -14.7520   19.6010 O   0  0  0  0  0  0  0  0  0  0  0  0
  -25.1350  -13.8750   20.4030 C   0  0  0  0  0  0  0  0  0  0  0  0
  -24.0910  -13.0920   20.8170 C   0  0  0  0  0  0  0  0  0  0  0  0
  -24.5630  -11.7440   20.7580 C   0  0  0  0  0  0  0  0  0  0  0  0
  -26.1770  -13.0040   20.1240 N   0  0  0  0  0  0  0  0  0  0  0  0
  -25.8380  -11.7180   20.3920 N   0  0  0  0  0  0  0  0  0  0  0  0
  -23.8590  -10.4740   20.9730 C   0  0  0  0  0  0  0  0  0  0  0  0
  -24.3310   -9.5160   21.8970 C   0  0  0  0  0  3  0  0  0  0  0  0
  -23.6280   -8.3080   22.0980 C   0  0  0  0  0  3  0  0  0  0  0  0
  -22.4370   -8.0530   21.3780 C   0  0  0  0  0  0  0  0  0  0  0  0
  -21.9830   -9.0000   20.4430 C   0  0  0  0  0  3  0  0  0  0  0  0
  -22.6870  -10.1990   20.2400 C   0  0  0  0  0  3  0  0  0  0  0  0
  -21.7020   -6.8980   21.4890 O   0  0  0  0  0  0  0  0  0  0  0  0
  -21.6850   -6.1660   22.6490 C   0  0  0  0  0  0  0  0  0  0  0  0
  -21.2790   -6.7270   23.8800 C   0  0  0  0  0  3  0  0  0  0  0  0
  -21.2100   -5.9190   25.0330 C   0  0  0  0  0  3  0  0  0  0  0  0
  -21.5380   -4.5520   24.9560 C   0  0  0  0  0  0  0  0  0  0  0  0
  -21.9390   -3.9920   23.7300 C   0  0  0  0  0  3  0  0  0  0  0  0
  -22.0080   -4.7960   22.5800 C   0  0  0  0  0  0  0  0  0  0  0  0
  -22.3730   -4.2460   21.3960 F   0  0  0  0  0  0  0  0  0  0  0  0
  -21.4640   -3.7750   26.0620 F   0  0  0  0  0  0  0  0  0  0  0  0
  -22.7030  -13.5570   21.1540 C   0  0  0  0  0  0  0  0  0  0  0  0
  -22.0180  -12.8440   22.0430 N   0  0  0  0  0  0  0  0  0  0  0  0
  -22.2330  -14.5810   20.6620 O   0  0  0  0  0  0  0  0  0  0  0  0
  -22.4100  -12.0130   22.4600 H   0  0  0  0  0  0  0  0  0  0  0  0
  -21.0890  -13.1350   22.3100 H   0  0  0  0  0  0  0  0  0  0  0  0
  -25.2830  -15.2470   20.2250 N   0  0  0  0  0  0  0  0  0  0  0  0
  -24.5190  -15.8970   20.3650 H   0  0  0  0  0  0  0  0  0  0  0  0
  -26.1080  -15.6870   19.8360 H   0  0  0  0  0  0  0  0  0  0  0  0
  -28.9480  -26.3410   21.2530 C   0  0  0  0  0  2  0  0  0  0  0  0
  -28.3780  -26.7610   20.0150 O   0  0  0  0  0  0  0  0  0  0  0  0
  -24.5750  -31.9240   23.2300 C   0  0  0  0  0  0  0  0  0  0  0  0
  -27.2350  -27.5220   20.1000 C   0  0  0  0  0  0  0  0  0  0  0  0
  -23.3700  -30.5200   21.5870 C   0  0  0  0  0  3  0  0  0  0  0  0
  -24.8260  -28.9990   20.1470 C   0  0  0  0  0  0  0  0  0  0  0  0
  -25.8930  -30.8900   21.3860 C   0  0  0  0  0  2  0  0  0  0  0  0
  -25.9810  -29.5250   20.7400 C   0  0  0  0  0  0  0  0  0  0  0  0
  -27.1910  -28.7900   20.7260 C   0  0  0  0  0  3  0  0  0  0  0  0
  -26.0690  -27.0110   19.5020 C   0  0  0  0  0  3  0  0  0  0  0  0
  -24.8620  -27.7340   19.5320 C   0  0  0  0  0  3  0  0  0  0  0  0
  -23.5810  -29.8540   20.2010 C   0  0  0  0  0  2  0  0  0  0  0  0
  -24.6290  -31.1300   22.1240 N   0  0  0  0  0  0  0  0  0  0  0  0
  -23.4940  -32.1840   23.7780 O   0  0  0  0  0  0  0  0  0  0  0  0
  -22.7310  -29.4890   22.5470 C   0  0  0  0  0  0  0  0  0  0  0  0
  -21.4070  -29.2960   22.4270 N   0  0  0  0  0  0  0  0  0  0  0  0
  -23.4230  -28.8690   23.3600 O   0  0  0  0  0  0  0  0  0  0  0  0
  -20.9110  -29.8530   21.7460 H   0  0  0  0  0  0  0  0  0  0  0  0
  -18.0450  -28.0680   22.9380 C   0  0  0  0  0  0  0  0  0  0  0  0
  -20.6020  -28.3490   23.1980 C   0  0  0  0  0  3  0  0  0  0  0  0
  -20.7160  -26.9200   22.6160 C   0  0  0  0  0  2  0  0  0  0  0  0
  -19.6110  -26.5880   21.6080 C   0  0  0  0  0  2  0  0  0  0  0  0
  -18.2300  -26.7200   22.2580 C   0  0  0  0  0  2  0  0  0  0  0  0
  -19.1590  -28.8380   23.3650 C   0  0  0  0  0  0  0  0  0  0  0  0
  -18.9320  -30.0980   23.9580 C   0  0  0  0  0  3  0  0  0  0  0  0
  -17.6240  -30.5870   24.1310 C   0  0  0  0  0  3  0  0  0  0  0  0
  -16.5240  -29.8120   23.7230 C   0  0  0  0  0  3  0  0  0  0  0  0
  -16.7360  -28.5550   23.1310 C   0  0  0  0  0  3  0  0  0  0  0  0
  -25.8590  -32.5630   23.8430 C   0  0  0  0  0  3  0  0  0  0  0  0
  -25.5490  -33.9620   24.1650 N   0  0  0  0  0  0  0  0  0  0  0  0
  -25.8780  -35.0100   23.3970 C   0  0  0  0  0  0  0  0  0  0  0  0
  -26.5480  -34.9010   22.3670 O   0  0  0  0  0  0  0  0  0  0  0  0
  -24.9630  -34.1240   24.9710 H   0  0  0  0  0  0  0  0  0  0  0  0
  -24.1450  -36.7950   23.0240 C   0  0  0  0  0  1  0  0  0  0  0  0
  -25.3820  -36.3990   23.8440 C   0  0  0  0  0  3  0  0  0  0  0  0
  -27.5160  -37.2850   24.6760 C   0  0  0  0  0  1  0  0  0  0  0  0
  -26.4110  -37.4560   23.7360 N   0  0  0  0  0  0  0  0  0  0  0  0
  -26.0000  -38.3740   23.8920 H   0  0  0  0  0  0  0  0  0  0  0  0
  -26.3880  -31.8020   25.1200 C   0  0  1  0  0  0  0  0  0  0  0  0
  -25.3040  -31.5590   26.1980 C   0  0  0  0  0  1  0  0  0  0  0  0
  -26.9810  -30.4280   24.7330 C   0  0  0  0  0  1  0  0  0  0  0  0
  -27.5400  -32.6080   25.7670 C   0  0  0  0  0  1  0  0  0  0  0  0
  2  5  1  0
  3  1  1  0
  4  2  2  0
  4  6  1  0
  5  7  1  0
  5  1  2  0
  6  3  2  0
  8 10  1  0
  8  7  1  0
 10 11  1  1
 10  9  1  0
 12 13  1  0
 12 10  1  0
 14 13  1  0
 15 20  1  0
 16 17  1  0
 16 15  1  0
 18 17  1  0
 18 25  1  0
 18 19  1  0
 20 14  1  0
 20 19  1  0
 21 14  2  0
 22 23  2  0
 23 42  1  0
 24 23  1  0
 24 27  1  0
 25 26  1  0
 25 22  1  0
 26 24  2  0
 27 28  1  0
 28 29  2  0
 30 33  1  0
 30 29  1  0
 31 30  2  0
 32 31  1  0
 32 27  2  0
 33 34  1  0
 34 35  1  0
 35 36  2  0
 37 36  1  0
 37 41  1  0
 38 37  2  0
 39 34  2  0
 39 38  1  0
 40 39  1  0
 42 43  1  0
 43 46  1  0
 43 45  1  0
 44 42  2  0
 47 48  1  0
 47 22  1  0
 49 47  1  0
 50  6  1  0
 51 53  1  0
 51 50  1  0
 52 63  2  0
 53 58  1  0
 54 62  1  0
 54 64  1  0
 55 61  1  0
 55 57  1  0
 56 62  1  0
 57 56  1  0
 58 57  2  0
 59 60  1  0
 59 53  2  0
 60 55  2  0
 61 54  1  0
 62 52  1  0
 64 66  2  0
 65 64  1  0
 67 65  1  0
 68 77  2  0
 68 73  1  0
 69 65  1  0
 69 73  1  0
 70 69  1  0
 71 72  1  0
 71 70  1  0
 72 68  1  0
 73 74  2  0
 74 75  1  0
 76 75  2  0
 77 76  1  0
 78 52  1  0
 78 79  1  0
 78 88  1  0
 79 82  1  0
 80 84  1  0
 80 79  1  0
 81 80  2  0
 84 83  1  0
 86 84  1  0
 86 87  1  0
 86 85  1  0
 88 91  1  1
 88 89  1  0
 90 88  1  0
M  ISO  4  13 100  14 100  50 101  51 101
M  END
>  <TORSDO>  (6) 
F 22

>  <SCORE>  (6) 
-12.505

>  <name>  (6) 
5

>  <ligand_id>  (6) 
5

>  <original_smiles>  (6) 
[H]c1c([H])c([H])c2c(c1[H])C([H])([H])C([H])([H])C([H])([H])C2([H])N([H])C(=O)C1([H])N(C(=O)C([H])(N([H])C(=O)C([H])(N([H])C([H])([H])[H])C([H])([H])[H])C(C([H])([H])[H])(C([H])([H])[H])C([H])([H])[H])C([H])([H])c2c([H])c(OC([H])([H])c3c([H])c([H])c(C([H])([H])C([H])([H])[N+]([H])(C([H])([H])[H])C([H])([H])C([H])([H])C(=O)N4C([H])([H])C([H])([H])C([H])([H])C([H])(n5nc(-c6c([H])c([H])c(Oc7c([H])c([H])c(F)c([H])c7F)c([H])c6[H])c(C(=O)N([H])[H])c5N([H])[H])C4([H])[H])c([H])c3[H])c([H])c([H])c2C1([H])[H]

>  <smiles>  (6) 
[H]c1c([H])c([H])c2c(c1[H])C([H])([H])C([H])([H])C([H])([H])C2([H])N([H])C(=O)C1([H])N(C(=O)C([H])(N([H])C(=O)C([H])(N([H])C([H])([H])[H])C([H])([H])[H])C(C([H])([H])[H])(C([H])([H])[H])C([H])([H])[H])C([H])([H])c2c([H])c(OC([H])([H])c3c([H])c([H])c(C([H])([H])C([H])([H])[N+]([H])(C([H])([H])[H])C([H])([H])C([H])([H])C(=O)N4C([H])([H])C([H])([H])C([H])([H])C([H])(n5nc(-c6c([H])c([H])c(Oc7c([H])c([H])c(F)c([H])c7F)c([H])c6[H])c(C(=O)N([H])[H])c5N([H])[H])C4([H])[H])c([H])c3[H])c([H])c([H])c2C1([H])[H]

$$$$
6:0:0
     RDKit          3D

 89 98  0  0  1  0  0  0  0  0999 V2000
  -30.5180  -14.9920   20.4460 C   0  0  0  0  0  0  0  0  0  0  0  0
  -30.4450  -12.6260   19.4960 C   0  0  0  0  0  2  0  0  0  0  0  0
  -29.5210  -12.5520   18.2560 C   0  0  0  0  0  2  0  0  0  0  0  0
  -28.0530  -12.3330   18.6720 C   0  0  0  0  0  2  0  0  0  0  0  0
  -27.6330  -13.2470   19.8520 C   0  0  0  0  0  3  0  0  0  0  0  0
  -28.6810  -13.2270   20.9840 C   0  0  0  0  0  2  0  0  0  0  0  0
  -29.9390  -13.7130   20.3930 N   0  0  0  0  0  0  0  0  0  0  0  0
  -31.7020  -15.0510   20.0830 O   0  0  0  0  0  0  0  0  0  0  0  0
  -27.4800  -19.6630   23.1640 C   0  0  0  0  0  3  0  0  0  0  0  0
  -27.7410  -18.3000   23.0170 C   0  0  0  0  0  3  0  0  0  0  0  0
  -27.9550  -20.5890   22.2200 C   0  0  0  0  0  3  0  0  0  0  0  0
  -28.5260  -17.8750   21.9400 C   0  0  0  0  0  0  0  0  0  0  0  0
  -29.0630  -18.7630   20.9860 C   0  0  0  0  0  0  0  0  0  0  0  0
  -28.7200  -20.2560   21.0680 C   0  0  0  0  0  0  0  0  0  0  0  0
  -28.8250  -16.3880   21.7330 C   0  0  0  0  0  3  0  0  0  0  0  0
  -29.9200  -17.7000   20.1220 C   0  0  0  0  0  3  0  0  0  0  0  0
  -29.7490  -16.2040   20.6110 N   0  0  0  0  0  0  0  0  0  0  0  0
  -25.2450  -13.8200   20.5710 C   0  0  0  0  0  0  0  0  0  0  0  0
  -24.1770  -13.0430   20.9230 C   0  0  0  0  0  0  0  0  0  0  0  0
  -24.6390  -11.6910   20.8760 C   0  0  0  0  0  0  0  0  0  0  0  0
  -26.2900  -12.9440   20.3310 N   0  0  0  0  0  0  0  0  0  0  0  0
  -25.9330  -11.6570   20.5760 N   0  0  0  0  0  0  0  0  0  0  0  0
  -23.9070  -10.4290   21.0410 C   0  0  0  0  0  0  0  0  0  0  0  0
  -24.3620   -9.4200   21.9190 C   0  0  0  0  0  3  0  0  0  0  0  0
  -23.6290   -8.2240   22.0750 C   0  0  0  0  0  3  0  0  0  0  0  0
  -22.4280   -8.0280   21.3540 C   0  0  0  0  0  0  0  0  0  0  0  0
  -21.9910   -9.0250   20.4650 C   0  0  0  0  0  3  0  0  0  0  0  0
  -22.7250  -10.2130   20.3050 C   0  0  0  0  0  3  0  0  0  0  0  0
  -21.6640   -6.8880   21.4240 O   0  0  0  0  0  0  0  0  0  0  0  0
  -21.6860   -6.0730   22.5280 C   0  0  0  0  0  0  0  0  0  0  0  0
  -21.4020   -6.5640   23.8210 C   0  0  0  0  0  3  0  0  0  0  0  0
  -21.3660   -5.6790   24.9170 C   0  0  0  0  0  3  0  0  0  0  0  0
  -21.6040   -4.3050   24.7220 C   0  0  0  0  0  0  0  0  0  0  0  0
  -21.8820   -3.8140   23.4340 C   0  0  0  0  0  3  0  0  0  0  0  0
  -21.9190   -4.6960   22.3400 C   0  0  0  0  0  0  0  0  0  0  0  0
  -22.1660   -4.2150   21.0980 F   0  0  0  0  0  0  0  0  0  0  0  0
  -21.5630   -3.4540   25.7740 F   0  0  0  0  0  0  0  0  0  0  0  0
  -22.7790  -13.5200   21.1880 C   0  0  0  0  0  0  0  0  0  0  0  0
  -22.0440  -12.8190   22.0440 N   0  0  0  0  0  0  0  0  0  0  0  0
  -22.3470  -14.5510   20.6720 O   0  0  0  0  0  0  0  0  0  0  0  0
  -22.4070  -11.9860   22.4830 H   0  0  0  0  0  0  0  0  0  0  0  0
  -21.1060  -13.1210   22.2650 H   0  0  0  0  0  0  0  0  0  0  0  0
  -25.4080  -15.1930   20.4100 N   0  0  0  0  0  0  0  0  0  0  0  0
  -24.6360  -15.8410   20.5260 H   0  0  0  0  0  0  0  0  0  0  0  0
  -26.2490  -15.6390   20.0690 H   0  0  0  0  0  0  0  0  0  0  0  0
  -28.9520  -21.6260   20.1570 C   0  0  0  0  0  2  0  0  0  0  0  0
  -28.4660  -23.2080   20.6510 C   0  0  0  0  0  3  0  0  0  0  0  0
  -28.3480  -24.6540   19.7640 C   0  0  0  0  0  3  0  0  0  0  0  0
  -28.2950  -26.1430   20.2640 O   0  0  0  0  0  0  0  0  0  0  0  0
  -24.6450  -31.8410   23.1840 C   0  0  0  0  0  0  0  0  0  0  0  0
  -27.2230  -27.1100   20.1500 C   0  0  0  0  0  0  0  0  0  0  0  0
  -23.4500  -30.4570   21.5300 C   0  0  0  0  0  3  0  0  0  0  0  0
  -24.9000  -28.8770   20.1060 C   0  0  0  0  0  0  0  0  0  0  0  0
  -26.0060  -30.7050   21.3860 C   0  0  0  0  0  2  0  0  0  0  0  0
  -26.0750  -29.3140   20.7280 C   0  0  0  0  0  0  0  0  0  0  0  0
  -27.2320  -28.4450   20.7350 C   0  0  0  0  0  3  0  0  0  0  0  0
  -26.0200  -26.7770   19.4890 C   0  0  0  0  0  3  0  0  0  0  0  0
  -24.8870  -27.6230   19.4730 C   0  0  0  0  0  3  0  0  0  0  0  0
  -23.6770  -29.7820   20.1500 C   0  0  0  0  0  2  0  0  0  0  0  0
  -24.7200  -31.0240   22.0890 N   0  0  0  0  0  0  0  0  0  0  0  0
  -23.5560  -32.1290   23.7060 O   0  0  0  0  0  0  0  0  0  0  0  0
  -22.7570  -29.4530   22.4850 C   0  0  0  0  0  0  0  0  0  0  0  0
  -21.4260  -29.3050   22.3600 N   0  0  0  0  0  0  0  0  0  0  0  0
  -23.4210  -28.8080   23.3010 O   0  0  0  0  0  0  0  0  0  0  0  0
  -20.9470  -29.8760   21.6780 H   0  0  0  0  0  0  0  0  0  0  0  0
  -18.0310  -28.1400   22.8480 C   0  0  0  0  0  0  0  0  0  0  0  0
  -20.5920  -28.3720   23.1240 C   0  0  0  0  0  3  0  0  0  0  0  0
  -20.6790  -26.9420   22.5410 C   0  0  0  0  0  2  0  0  0  0  0  0
  -19.5770  -26.6380   21.5210 C   0  0  0  0  0  2  0  0  0  0  0  0
  -18.1950  -26.7930   22.1630 C   0  0  0  0  0  2  0  0  0  0  0  0
  -19.1560  -28.8880   23.2850 C   0  0  0  0  0  0  0  0  0  0  0  0
  -18.9480  -30.1470   23.8880 C   0  0  0  0  0  3  0  0  0  0  0  0
  -17.6470  -30.6590   24.0560 C   0  0  0  0  0  3  0  0  0  0  0  0
  -16.5370  -29.9080   23.6340 C   0  0  0  0  0  3  0  0  0  0  0  0
  -16.7290  -28.6500   23.0350 C   0  0  0  0  0  3  0  0  0  0  0  0
  -25.9210  -32.4680   23.8240 C   0  0  0  0  0  3  0  0  0  0  0  0
  -25.5950  -33.8480   24.2160 N   0  0  0  0  0  0  0  0  0  0  0  0
  -25.9080  -34.9400   23.5050 C   0  0  0  0  0  0  0  0  0  0  0  0
  -26.5670  -34.8910   22.4640 O   0  0  0  0  0  0  0  0  0  0  0  0
  -25.0060  -33.9590   25.0290 H   0  0  0  0  0  0  0  0  0  0  0  0
  -24.1490  -36.7250   23.2640 C   0  0  0  0  0  1  0  0  0  0  0  0
  -25.4120  -36.3020   24.0310 C   0  0  0  0  0  3  0  0  0  0  0  0
  -27.5570  -37.1780   24.8470 C   0  0  0  0  0  1  0  0  0  0  0  0
  -26.4280  -37.3740   23.9410 N   0  0  0  0  0  0  0  0  0  0  0  0
  -26.0150  -38.2810   24.1410 H   0  0  0  0  0  0  0  0  0  0  0  0
  -26.4520  -31.6560   25.0700 C   0  0  1  0  0  0  0  0  0  0  0  0
  -25.3700  -31.3760   26.1390 C   0  0  0  0  0  1  0  0  0  0  0  0
  -27.0400  -30.2950   24.6300 C   0  0  0  0  0  1  0  0  0  0  0  0
  -27.6050  -32.4330   25.7490 C   0  0  0  0  0  1  0  0  0  0  0  0
  1 17  1  0
  2  7  1  0
  3  4  1  0
  3  2  1  0
  5  4  1  0
  5 21  1  0
  5  6  1  0
  7  1  1  0
  7  6  1  0
  8  1  2  0
 10  9  2  0
 11  9  1  0
 12 10  1  0
 13 14  1  0
 13 12  1  0
 14 11  2  0
 15 12  2  0
 16 17  1  0
 16 13  2  0
 17 15  1  0
 18 19  2  0
 19 38  1  0
 20 19  1  0
 20 23  1  0
 21 18  1  0
 21 22  1  0
 22 20  2  0
 23 24  1  0
 24 25  2  0
 26 29  1  0
 26 25  1  0
 27 26  2  0
 28 27  1  0
 28 23  2  0
 29 30  1  0
 30 31  1  0
 31 32  2  0
 33 32  1  0
 33 37  1  0
 34 33  2  0
 35 30  2  0
 35 34  1  0
 36 35  1  0
 38 39  1  0
 39 42  1  0
 39 41  1  0
 40 38  2  0
 43 44  1  0
 43 18  1  0
 45 43  1  0
 46 47  1  0
 46 14  1  0
 48 49  1  0
 48 47  2  0
 50 61  2  0
 51 49  1  0
 51 56  1  0
 52 60  1  0
 52 62  1  0
 53 59  1  0
 53 55  1  0
 54 60  1  0
 55 56  2  0
 55 54  1  0
 57 51  2  0
 58 57  1  0
 58 53  2  0
 59 52  1  0
 60 50  1  0
 62 64  2  0
 63 62  1  0
 65 63  1  0
 66 75  2  0
 66 71  1  0
 67 63  1  0
 67 71  1  0
 68 67  1  0
 69 70  1  0
 69 68  1  0
 70 66  1  0
 71 72  2  0
 72 73  1  0
 74 73  2  0
 75 74  1  0
 76 50  1  0
 76 77  1  0
 76 86  1  0
 77 80  1  0
 78 82  1  0
 78 77  1  0
 79 78  2  0
 82 81  1  0
 84 82  1  0
 84 85  1  0
 84 83  1  0
 86 89  1  1
 86 87  1  0
 88 86  1  0
M  ISO  4   1 100  17 100  48 101  49 101
M  END
>  <TORSDO>  (7) 
F 18

>  <SCORE>  (7) 
11.418

>  <name>  (7) 
6

>  <ligand_id>  (7) 
6

>  <original_smiles>  (7) 
[H]c1c([H])c2c(c(C([H])([H])C([H])([H])C([H])([H])Oc3c([H])c([H])c4c(c3[H])C([H])([H])N(C(=O)C([H])(N([H])C(=O)C([H])(N([H])C([H])([H])[H])C([H])([H])[H])C(C([H])([H])[H])(C([H])([H])[H])C([H])([H])[H])C([H])(C(=O)N([H])C3([H])c5c([H])c([H])c([H])c([H])c5C([H])([H])C([H])([H])C3([H])[H])C4([H])[H])c1[H])C([H])([H])N(C(=O)N1C([H])([H])C([H])([H])C([H])([H])C([H])(n3nc(-c4c([H])c([H])c(Oc5c([H])c([H])c(F)c([H])c5F)c([H])c4[H])c(C(=O)N([H])[H])c3N([H])[H])C1([H])[H])C2([H])[H]

>  <smiles>  (7) 
[H]c1c([H])c2c(c(C([H])([H])C([H])([H])C([H])([H])Oc3c([H])c([H])c4c(c3[H])C([H])([H])N(C(=O)C([H])(N([H])C(=O)C([H])(N([H])C([H])([H])[H])C([H])([H])[H])C(C([H])([H])[H])(C([H])([H])[H])C([H])([H])[H])C([H])(C(=O)N([H])C3([H])c5c([H])c([H])c([H])c([H])c5C([H])([H])C([H])([H])C3([H])[H])C4([H])[H])c1[H])C([H])([H])N(C(=O)N1C([H])([H])C([H])([H])C([H])([H])C([H])(n3nc(-c4c([H])c([H])c(Oc5c([H])c([H])c(F)c([H])c5F)c([H])c4[H])c(C(=O)N([H])[H])c3N([H])[H])C1([H])[H])C2([H])[H]

$$$$
7:0:0
     RDKit          3D

 82 85  0  0  1  0  0  0  0  0999 V2000
  -28.1320  -24.8210   20.2900 O   0  0  0  0  0  1  0  0  0  0  0  0
  -24.7240  -31.8050   23.1720 C   0  0  0  0  0  0  0  0  0  0  0  0
  -27.2140  -26.2650   20.2620 C   0  0  0  0  0  0  0  0  0  0  0  0
  -23.5550  -30.3900   21.5450 C   0  0  0  0  0  3  0  0  0  0  0  0
  -25.0020  -28.6270   20.1780 C   0  0  0  0  0  0  0  0  0  0  0  0
  -26.1510  -30.3760   21.4880 C   0  0  0  0  0  2  0  0  0  0  0  0
  -26.2060  -28.8850   20.8400 C   0  0  0  0  0  0  0  0  0  0  0  0
  -27.2700  -27.7520   20.8330 C   0  0  0  0  0  3  0  0  0  0  0  0
  -25.9690  -26.3510   19.5370 C   0  0  0  0  0  3  0  0  0  0  0  0
  -24.9530  -27.3910   19.4990 C   0  0  0  0  0  3  0  0  0  0  0  0
  -23.8210  -29.6440   20.1970 C   0  0  0  0  0  2  0  0  0  0  0  0
  -24.8410  -30.9030   22.1190 N   0  0  0  0  0  0  0  0  0  0  0  0
  -23.6200  -32.1330   23.6500 O   0  0  0  0  0  0  0  0  0  0  0  0
  -22.7830  -29.4680   22.5310 C   0  0  0  0  0  0  0  0  0  0  0  0
  -21.4430  -29.3520   22.4090 N   0  0  0  0  0  0  0  0  0  0  0  0
  -23.4120  -28.8450   23.3900 O   0  0  0  0  0  0  0  0  0  0  0  0
  -20.9790  -29.9030   21.7010 H   0  0  0  0  0  0  0  0  0  0  0  0
  -18.0330  -28.1760   22.9430 C   0  0  0  0  0  0  0  0  0  0  0  0
  -20.5990  -28.4300   23.1870 C   0  0  0  0  0  3  0  0  0  0  0  0
  -20.6830  -26.9930   22.6190 C   0  0  0  0  0  2  0  0  0  0  0  0
  -19.5760  -26.6800   21.6080 C   0  0  0  0  0  2  0  0  0  0  0  0
  -18.1980  -26.8310   22.2560 C   0  0  0  0  0  2  0  0  0  0  0  0
  -19.1590  -28.9340   23.3650 C   0  0  0  0  0  0  0  0  0  0  0  0
  -18.9450  -30.1880   23.9760 C   0  0  0  0  0  3  0  0  0  0  0  0
  -17.6410  -30.6860   24.1630 C   0  0  0  0  0  3  0  0  0  0  0  0
  -16.5320  -29.9270   23.7530 C   0  0  0  0  0  3  0  0  0  0  0  0
  -16.7290  -28.6720   23.1490 C   0  0  0  0  0  3  0  0  0  0  0  0
  -25.9640  -32.4800   23.8370 C   0  0  0  0  0  3  0  0  0  0  0  0
  -25.6200  -33.8800   24.1860 N   0  0  0  0  0  0  0  0  0  0  0  0
  -25.9230  -34.9660   23.4610 C   0  0  0  0  0  0  0  0  0  0  0  0
  -26.5660  -34.8970   22.4120 O   0  0  0  0  0  0  0  0  0  0  0  0
  -25.0410  -34.0030   25.0040 H   0  0  0  0  0  0  0  0  0  0  0  0
  -24.1570  -36.7570   23.2440 C   0  0  0  0  0  1  0  0  0  0  0  0
  -25.4450  -36.3460   23.9740 C   0  0  0  0  0  3  0  0  0  0  0  0
  -27.6050  -37.2640   24.7080 C   0  0  0  0  0  1  0  0  0  0  0  0
  -26.4540  -37.4180   23.8220 N   0  0  0  0  0  0  0  0  0  0  0  0
  -26.0400  -38.3290   23.9970 H   0  0  0  0  0  0  0  0  0  0  0  0
  -26.4490  -31.7280   25.1390 C   0  0  1  0  0  0  0  0  0  0  0  0
  -25.3310  -31.5040   26.1870 C   0  0  0  0  0  1  0  0  0  0  0  0
  -27.0420  -30.3460   24.7970 C   0  0  0  0  0  1  0  0  0  0  0  0
  -27.5830  -32.5320   25.8190 C   0  0  0  0  0  1  0  0  0  0  0  0
  -28.1220  -22.7830   20.2030 C   0  0  0  0  0 15  0  0  0  0  0  0
  -29.9420  -20.9390   18.8820 C   0  0  0  0  0  1  0  0  0  0  0  0
  -30.0370  -20.9260   21.3820 C   0  0  0  0  0  1  0  0  0  0  0  0
  -29.1240  -20.7370   20.1640 C   0  0  0  0  0  2  0  0  0  0  0  0
  -29.0720  -18.4590   20.1630 C   0  0  0  0  0 15  0  0  0  0  0  0
  -29.9470  -16.4880   20.0340 C   0  0  0  0  0  2  0  0  0  0  0  0
  -30.3050  -13.7490   19.2760 C   0  0  0  0  0  2  0  0  0  0  0  0
  -29.4800  -13.0150   18.1450 C   0  0  0  0  0  2  0  0  0  0  0  0
  -28.1400  -12.4800   18.6580 C   0  0  0  0  0  2  0  0  0  0  0  0
  -27.5360  -13.5000   19.6360 C   0  0  0  0  0  3  0  0  0  0  0  0
  -28.5300  -14.1110   20.6780 C   0  0  0  0  0  2  0  0  0  0  0  0
  -29.5700  -14.9690   19.9840 N   0  0  0  0  0  0  0  0  0  0  0  0
  -31.1880  -16.3220   19.8540 O   0  0  0  0  0  1  0  0  0  0  0  0
  -25.2070  -13.9190   20.5100 C   0  0  0  0  0  0  0  0  0  0  0  0
  -24.1770  -13.1110   20.8920 C   0  0  0  0  0  0  0  0  0  0  0  0
  -24.6700  -11.7710   20.8120 C   0  0  0  0  0  0  0  0  0  0  0  0
  -26.2610  -13.0820   20.2110 N   0  0  0  0  0  0  0  0  0  0  0  0
  -25.9560  -11.7740   20.4510 N   0  0  0  0  0  0  0  0  0  0  0  0
  -23.9600  -10.4940   21.0000 C   0  0  0  0  0  0  0  0  0  0  0  0
  -24.4040   -9.5240   21.9260 C   0  0  0  0  0  3  0  0  0  0  0  0
  -23.6850   -8.3230   22.1090 C   0  0  0  0  0  3  0  0  0  0  0  0
  -22.5050   -8.0790   21.3660 C   0  0  0  0  0  0  0  0  0  0  0  0
  -22.0770   -9.0370   20.4300 C   0  0  0  0  0  3  0  0  0  0  0  0
  -22.7980  -10.2310   20.2460 C   0  0  0  0  0  3  0  0  0  0  0  0
  -21.7580   -6.9290   21.4560 O   0  0  0  0  0  0  0  0  0  0  0  0
  -21.6960   -6.1970   22.6160 C   0  0  0  0  0  0  0  0  0  0  0  0
  -21.2200   -6.7550   23.8220 C   0  0  0  0  0  3  0  0  0  0  0  0
  -21.1070   -5.9510   24.9740 C   0  0  0  0  0  3  0  0  0  0  0  0
  -21.4610   -4.5890   24.9200 C   0  0  0  0  0  0  0  0  0  0  0  0
  -21.9300   -4.0310   23.7180 C   0  0  0  0  0  3  0  0  0  0  0  0
  -22.0440   -4.8320   22.5680 C   0  0  0  0  0  0  0  0  0  0  0  0
  -22.4750   -4.2830   21.4070 F   0  0  0  0  0  0  0  0  0  0  0  0
  -21.3480   -3.8150   26.0240 F   0  0  0  0  0  0  0  0  0  0  0  0
  -22.7820  -13.5620   21.2090 C   0  0  0  0  0  0  0  0  0  0  0  0
  -22.0920  -12.8450   22.0880 N   0  0  0  0  0  0  0  0  0  0  0  0
  -22.3180  -14.5900   20.7170 O   0  0  0  0  0  0  0  0  0  0  0  0
  -22.4840  -12.0140   22.5060 H   0  0  0  0  0  0  0  0  0  0  0  0
  -21.1580  -13.1310   22.3480 H   0  0  0  0  0  0  0  0  0  0  0  0
  -25.3320  -15.2970   20.3550 N   0  0  0  0  0  0  0  0  0  0  0  0
  -24.5550  -15.9300   20.5070 H   0  0  0  0  0  0  0  0  0  0  0  0
  -26.1610  -15.7620   20.0100 H   0  0  0  0  0  0  0  0  0  0  0  0
  2 13  2  0
  3  1  1  0
  3  8  1  0
  4 12  1  0
  4 14  1  0
  5 11  1  0
  5  7  1  0
  6 12  1  0
  7  6  1  0
  8  7  2  0
  9  3  2  0
 10  9  1  0
 10  5  2  0
 11  4  1  0
 12  2  1  0
 14 16  2  0
 15 14  1  0
 17 15  1  0
 18 27  2  0
 18 23  1  0
 19 15  1  0
 19 23  1  0
 20 19  1  0
 21 22  1  0
 21 20  1  0
 22 18  1  0
 23 24  2  0
 24 25  1  0
 26 25  2  0
 27 26  1  0
 28  2  1  0
 28 29  1  0
 28 38  1  0
 29 32  1  0
 30 34  1  0
 30 29  1  0
 31 30  2  0
 34 33  1  0
 36 34  1  0
 36 37  1  0
 36 35  1  0
 38 41  1  1
 38 39  1  0
 40 38  1  0
 43 45  1  0
 45 44  1  0
 48 53  1  0
 49 50  1  0
 49 48  1  0
 51 50  1  0
 51 58  1  0
 51 52  1  0
 53 47  1  0
 53 52  1  0
 54 47  1  0
 55 56  2  0
 56 75  1  0
 57 56  1  0
 57 60  1  0
 58 59  1  0
 58 55  1  0
 59 57  2  0
 60 61  1  0
 61 62  2  0
 63 66  1  0
 63 62  1  0
 64 63  2  0
 65 64  1  0
 65 60  2  0
 66 67  1  0
 67 68  1  0
 68 69  2  0
 70 69  1  0
 70 74  1  0
 71 70  2  0
 72 67  2  0
 72 71  1  0
 73 72  1  0
 75 76  1  0
 76 79  1  0
 76 78  1  0
 77 75  2  0
 80 81  1  0
 80 55  1  0
 82 80  1  0
M  ISO  4   1 101  42 101  46 100  47 100
M  END
>  <TORSDO>  (8) 
F 18

>  <SCORE>  (8) 
-16.422

>  <name>  (8) 
7

>  <ligand_id>  (8) 
7

>  <original_smiles>  (8) 
[H]c1c([H])c([H])c2c(c1[H])C([H])([H])C([H])([H])C([H])([H])C2([H])N([H])C(=O)C1([H])N(C(=O)C([H])(N([H])C(=O)C([H])(N([H])C([H])([H])[H])C([H])([H])[H])C(C([H])([H])[H])(C([H])([H])[H])C([H])([H])[H])C([H])([H])c2c([H])c(OC([H])([H])C(C([H])([H])[H])(C([H])([H])[H])C([H])([H])C(=O)N3C([H])([H])C([H])([H])C([H])([H])C([H])(n4nc(-c5c([H])c([H])c(Oc6c([H])c([H])c(F)c([H])c6F)c([H])c5[H])c(C(=O)N([H])[H])c4N([H])[H])C3([H])[H])c([H])c([H])c2C1([H])[H]

>  <smiles>  (8) 
[H]c1c([H])c([H])c2c(c1[H])C([H])([H])C([H])([H])C([H])([H])C2([H])N([H])C(=O)C1([H])N(C(=O)C([H])(N([H])C(=O)C([H])(N([H])C([H])([H])[H])C([H])([H])[H])C(C([H])([H])[H])(C([H])([H])[H])C([H])([H])[H])C([H])([H])c2c([H])c(OC([H])([H])C(C([H])([H])[H])(C([H])([H])[H])C([H])([H])C(=O)N3C([H])([H])C([H])([H])C([H])([H])C([H])(n4nc(-c5c([H])c([H])c(Oc6c([H])c([H])c(F)c([H])c6F)c([H])c5[H])c(C(=O)N([H])[H])c4N([H])[H])C3([H])[H])c([H])c([H])c2C1([H])[H]

$$$$
8:0:0
     RDKit          3D

 92 99  0  0  1  0  0  0  0  0999 V2000
  -28.8130  -20.6360   20.2700 N   0  0  1  0  0  4  0  0  0  0  0  0
  -28.1140  -20.6550   21.0010 H   0  0  0  0  0  0  0  0  0  0  0  0
  -28.8780  -20.1010   17.8030 C   0  0  0  0  0  1  0  0  0  0  0  0
  -27.9970  -20.4250   19.0310 C   0  0  0  0  0  3  0  0  0  0  0  0
  -27.0000  -21.5820   18.7610 C   0  0  0  0  0  2  0  0  0  0  0  0
  -25.3030  -22.7550   17.3100 C   0  0  0  0  0  1  0  0  0  0  0  0
  -26.0510  -21.4270   17.5420 C   0  0  0  0  0  3  0  0  0  0  0  0
  -24.1530  -20.0340   16.4570 C   0  0  0  0  0  1  0  0  0  0  0  0
  -25.0600  -20.2460   17.6790 C   0  0  0  0  0  2  0  0  0  0  0  0
  -29.6090  -19.3310   20.7120 C   0  0  0  0  0  2  0  0  0  0  0  0
  -29.6120  -17.8250   19.9410 C   0  0  0  0  0  2  0  0  0  0  0  0
  -29.7350  -16.3350   20.6900 C   0  0  0  0  0  2  0  0  0  0  0  0
  -30.4040  -14.9660   20.0550 C   0  0  0  0  0  0  0  0  0  0  0  0
  -30.2020  -12.6760   18.9900 C   0  0  0  0  0  2  0  0  0  0  0  0
  -29.1880  -12.7350   17.8230 C   0  0  0  0  0  2  0  0  0  0  0  0
  -27.7540  -12.5110   18.3360 C   0  0  0  0  0  2  0  0  0  0  0  0
  -27.4410  -13.3630   19.5940 C   0  0  0  0  0  3  0  0  0  0  0  0
  -28.5680  -13.2790   20.6450 C   0  0  0  0  0  2  0  0  0  0  0  0
  -29.8120  -13.7070   19.9940 N   0  0  0  0  0  0  0  0  0  0  0  0
  -31.5330  -15.0700   19.5650 O   0  0  0  0  0  0  0  0  0  0  0  0
  -25.1000  -13.9010   20.4850 C   0  0  0  0  0  0  0  0  0  0  0  0
  -24.0660  -13.1070   20.8960 C   0  0  0  0  0  0  0  0  0  0  0  0
  -24.5380  -11.7620   20.8000 C   0  0  0  0  0  0  0  0  0  0  0  0
  -26.1350  -13.0410   20.1590 N   0  0  0  0  0  0  0  0  0  0  0  0
  -25.8090  -11.7470   20.4120 N   0  0  0  0  0  0  0  0  0  0  0  0
  -23.8360  -10.4880   20.9990 C   0  0  0  0  0  0  0  0  0  0  0  0
  -24.3160   -9.5100   21.8990 C   0  0  0  0  0  3  0  0  0  0  0  0
  -23.6110   -8.3020   22.0880 C   0  0  0  0  0  3  0  0  0  0  0  0
  -22.4090   -8.0630   21.3790 C   0  0  0  0  0  0  0  0  0  0  0  0
  -21.9480   -9.0290   20.4680 C   0  0  0  0  0  3  0  0  0  0  0  0
  -22.6540  -10.2290   20.2770 C   0  0  0  0  0  3  0  0  0  0  0  0
  -21.6720   -6.9080   21.4780 O   0  0  0  0  0  0  0  0  0  0  0  0
  -21.6650   -6.1550   22.6250 C   0  0  0  0  0  0  0  0  0  0  0  0
  -21.2640   -6.6920   23.8690 C   0  0  0  0  0  3  0  0  0  0  0  0
  -21.2090   -5.8640   25.0080 C   0  0  0  0  0  3  0  0  0  0  0  0
  -21.5420   -4.5000   24.9040 C   0  0  0  0  0  0  0  0  0  0  0  0
  -21.9350   -3.9630   23.6660 C   0  0  0  0  0  3  0  0  0  0  0  0
  -21.9940   -4.7880   22.5290 C   0  0  0  0  0  0  0  0  0  0  0  0
  -22.3530   -4.2610   21.3340 F   0  0  0  0  0  0  0  0  0  0  0  0
  -21.4800   -3.7020   25.9960 F   0  0  0  0  0  0  0  0  0  0  0  0
  -22.6840  -13.5630   21.2640 C   0  0  0  0  0  0  0  0  0  0  0  0
  -22.0140  -12.8360   22.1500 N   0  0  0  0  0  0  0  0  0  0  0  0
  -22.2100  -14.5990   20.8000 O   0  0  0  0  0  0  0  0  0  0  0  0
  -22.4120  -11.9960   22.5440 H   0  0  0  0  0  0  0  0  0  0  0  0
  -21.0890  -13.1240   22.4370 H   0  0  0  0  0  0  0  0  0  0  0  0
  -25.2440  -15.2780   20.3350 N   0  0  0  0  0  0  0  0  0  0  0  0
  -24.4790  -15.9210   20.5080 H   0  0  0  0  0  0  0  0  0  0  0  0
  -26.0730  -15.7350   19.9790 H   0  0  0  0  0  0  0  0  0  0  0  0
  -29.4400  -22.0910   20.3840 C   0  0  0  0  0  2  0  0  0  0  0  0
  -28.6030  -23.4970   20.7900 C   0  0  0  0  0  2  0  0  0  0  0  0
  -28.7380  -24.9640   19.9940 C   0  0  0  0  0  2  0  0  0  0  0  0
  -28.5780  -26.4010   20.5410 O   0  0  0  0  0  0  0  0  0  0  0  0
  -24.7150  -31.9690   23.2750 C   0  0  0  0  0  0  0  0  0  0  0  0
  -27.4650  -27.2920   20.3840 C   0  0  0  0  0  0  0  0  0  0  0  0
  -23.5780  -30.5190   21.6340 C   0  0  0  0  0  3  0  0  0  0  0  0
  -25.0890  -28.9520   20.2670 C   0  0  0  0  0  0  0  0  0  0  0  0
  -26.1240  -30.8490   21.5120 C   0  0  0  0  0  2  0  0  0  0  0  0
  -26.2390  -29.4490   20.8890 C   0  0  0  0  0  0  0  0  0  0  0  0
  -27.4240  -28.6320   20.9350 C   0  0  0  0  0  3  0  0  0  0  0  0
  -26.2880  -26.8780   19.7260 C   0  0  0  0  0  3  0  0  0  0  0  0
  -25.1230  -27.6780   19.6730 C   0  0  0  0  0  3  0  0  0  0  0  0
  -23.8400  -29.8180   20.2720 C   0  0  0  0  0  2  0  0  0  0  0  0
  -24.8240  -31.1350   22.1960 N   0  0  0  0  0  0  0  0  0  0  0  0
  -23.6150  -32.2370   23.7790 O   0  0  0  0  0  0  0  0  0  0  0  0
  -22.9040  -29.5140   22.6010 C   0  0  0  0  0  0  0  0  0  0  0  0
  -21.5820  -29.3190   22.4600 N   0  0  0  0  0  0  0  0  0  0  0  0
  -23.5760  -28.9080   23.4410 O   0  0  0  0  0  0  0  0  0  0  0  0
  -21.0970  -29.8580   21.7570 H   0  0  0  0  0  0  0  0  0  0  0  0
  -18.2080  -28.0990   22.9550 C   0  0  0  0  0  0  0  0  0  0  0  0
  -20.7650  -28.3790   23.2340 C   0  0  0  0  0  3  0  0  0  0  0  0
  -20.8790  -26.9440   22.6670 C   0  0  0  0  0  2  0  0  0  0  0  0
  -19.7840  -26.6090   21.6510 C   0  0  0  0  0  2  0  0  0  0  0  0
  -18.3970  -26.7480   22.2860 C   0  0  0  0  0  2  0  0  0  0  0  0
  -19.3200  -28.8720   23.3870 C   0  0  0  0  0  0  0  0  0  0  0  0
  -19.0890  -30.1350   23.9740 C   0  0  0  0  0  3  0  0  0  0  0  0
  -17.7800  -30.6240   24.1350 C   0  0  0  0  0  3  0  0  0  0  0  0
  -16.6830  -29.8500   23.7200 C   0  0  0  0  0  3  0  0  0  0  0  0
  -16.8980  -28.5890   23.1360 C   0  0  0  0  0  3  0  0  0  0  0  0
  -25.9690  -32.6410   23.9160 C   0  0  0  0  0  3  0  0  0  0  0  0
  -26.4680  -31.9080   25.2210 C   0  0  1  0  0  0  0  0  0  0  0  0
  -25.3540  -31.6650   26.2650 C   0  0  0  0  0  1  0  0  0  0  0  0
  -27.0970  -30.5390   24.8770 C   0  0  0  0  0  1  0  0  0  0  0  0
  -27.5780  -32.7450   25.8990 C   0  0  0  0  0  1  0  0  0  0  0  0
  -25.6210  -34.0400   24.2160 N   0  0  0  0  0  0  0  0  0  0  0  0
  -25.9380  -35.0890   23.4450 C   0  0  0  0  0  0  0  0  0  0  0  0
  -26.6200  -34.9820   22.4220 O   0  0  0  0  0  0  0  0  0  0  0  0
  -25.0180  -34.1960   25.0110 H   0  0  0  0  0  0  0  0  0  0  0  0
  -24.1680  -36.8360   23.0530 C   0  0  0  0  0  1  0  0  0  0  0  0
  -25.4160  -36.4750   23.8740 C   0  0  0  0  0  3  0  0  0  0  0  0
  -27.5260  -37.4300   24.6900 C   0  0  0  0  0  1  0  0  0  0  0  0
  -26.4220  -37.5520   23.7430 N   0  0  0  0  0  0  0  0  0  0  0  0
  -25.9910  -38.4640   23.8730 H   0  0  0  0  0  0  0  0  0  0  0  0
  1 49  1  0
  1 10  1  0
  1  2  1  1
  4  3  1  0
  4  1  1  0
  5  4  1  0
  7  6  1  0
  7  9  1  0
  7  5  1  0
  8  9  1  0
 11 12  1  0
 11 10  1  0
 13 12  1  0
 14 19  1  0
 15 16  1  0
 15 14  1  0
 17 16  1  0
 17 24  1  0
 17 18  1  0
 19 13  1  0
 19 18  1  0
 20 13  2  0
 21 22  2  0
 22 41  1  0
 23 22  1  0
 23 26  1  0
 24 25  1  0
 24 21  1  0
 25 23  2  0
 26 27  1  0
 27 28  2  0
 29 32  1  0
 29 28  1  0
 30 29  2  0
 31 30  1  0
 31 26  2  0
 32 33  1  0
 33 34  1  0
 34 35  2  0
 36 35  1  0
 36 40  1  0
 37 36  2  0
 38 33  2  0
 38 37  1  0
 39 38  1  0
 41 42  1  0
 42 45  1  0
 42 44  1  0
 43 41  2  0
 46 21  1  0
 46 47  1  0
 48 46  1  0
 49 50  1  0
 51 52  1  0
 51 50  1  0
 53 64  2  0
 54 52  1  0
 54 59  1  0
 55 63  1  0
 55 65  1  0
 56 62  1  0
 56 58  1  0
 57 63  1  0
 58 59  2  0
 58 57  1  0
 60 54  2  0
 61 60  1  0
 61 56  2  0
 62 55  1  0
 63 53  1  0
 65 67  2  0
 66 65  1  0
 68 66  1  0
 69 78  2  0
 69 74  1  0
 70 66  1  0
 70 74  1  0
 71 70  1  0
 72 73  1  0
 72 71  1  0
 73 69  1  0
 74 75  2  0
 75 76  1  0
 77 76  2  0
 78 77  1  0
 79 53  1  0
 79 84  1  0
 79 80  1  0
 80 83  1  1
 80 81  1  0
 82 80  1  0
 84 87  1  0
 85 89  1  0
 85 84  1  0
 86 85  2  0
 89 88  1  0
 91 92  1  0
 91 89  1  0
 91 90  1  0
M  ISO  4  12 100  13 100  51 101  52 101
M  END
>  <TORSDO>  (9) 
F 26

>  <SCORE>  (9) 
-11.302

>  <name>  (9) 
8

>  <ligand_id>  (9) 
8

>  <original_smiles>  (9) 
[H]c1c([H])c([H])c2c(c1[H])C([H])([H])C([H])([H])C([H])([H])C2([H])N([H])C(=O)C1([H])N(C(=O)C([H])(N([H])C(=O)C([H])(N([H])C([H])([H])[H])C([H])([H])[H])C(C([H])([H])[H])(C([H])([H])[H])C([H])([H])[H])C([H])([H])c2c([H])c(OC([H])([H])C([H])([H])C([H])([H])[N+]([H])(C([H])([H])C([H])([H])C([H])([H])C(=O)N3C([H])([H])C([H])([H])C([H])([H])C([H])(n4nc(-c5c([H])c([H])c(Oc6c([H])c([H])c(F)c([H])c6F)c([H])c5[H])c(C(=O)N([H])[H])c4N([H])[H])C3([H])[H])C([H])(C([H])([H])[H])C([H])([H])C([H])(C([H])([H])[H])C([H])([H])C([H])([H])[H])c([H])c([H])c2C1([H])[H]

>  <smiles>  (9) 
[H]c1c([H])c([H])c2c(c1[H])C([H])([H])C([H])([H])C([H])([H])C2([H])N([H])C(=O)C1([H])N(C(=O)C([H])(N([H])C(=O)C([H])(N([H])C([H])([H])[H])C([H])([H])[H])C(C([H])([H])[H])(C([H])([H])[H])C([H])([H])[H])C([H])([H])c2c([H])c(OC([H])([H])C([H])([H])C([H])([H])[N+]([H])(C([H])([H])C([H])([H])C([H])([H])C(=O)N3C([H])([H])C([H])([H])C([H])([H])C([H])(n4nc(-c5c([H])c([H])c(Oc6c([H])c([H])c(F)c([H])c6F)c([H])c5[H])c(C(=O)N([H])[H])c4N([H])[H])C3([H])[H])C([H])(C([H])([H])[H])C([H])([H])C([H])(C([H])([H])[H])C([H])([H])C([H])([H])[H])c([H])c([H])c2C1([H])[H]

$$$$
9:0:0
     RDKit          3D

 90 97  0  0  1  0  0  0  0  0999 V2000
  -29.5080  -19.8480   20.0860 C   0  0  0  0  0  3  0  0  0  0  0  0
  -29.9690  -18.5790   20.8930 C   0  0  0  0  0  0  0  0  0  0  0  0
  -29.9260  -18.6240   22.1260 O   0  0  0  0  0  0  0  0  0  0  0  0
  -30.5320  -17.2980   20.1410 C   0  0  0  0  0  3  0  0  0  0  0  0
  -32.5150  -18.3950   19.0260 C   0  0  0  0  0  1  0  0  0  0  0  0
  -32.0050  -17.4740   20.0670 N   0  0  0  0  0  4  0  0  0  0  0  0
  -32.3580  -17.7530   20.9690 H   0  0  0  0  0  0  0  0  0  0  0  0
  -32.3800  -16.5550   19.8580 H   0  0  0  0  0  0  0  0  0  0  0  0
  -30.1550  -15.8940   20.8100 C   0  0  0  0  0  2  0  0  0  0  0  0
  -30.7820  -14.5990   20.1650 C   0  0  0  0  0  0  0  0  0  0  0  0
  -30.4340  -12.4320   19.0030 C   0  0  0  0  0  2  0  0  0  0  0  0
  -29.4520  -12.6540   17.8330 C   0  0  0  0  0  2  0  0  0  0  0  0
  -27.9960  -12.5040   18.3150 C   0  0  0  0  0  2  0  0  0  0  0  0
  -27.7080  -13.3210   19.6050 C   0  0  0  0  0  3  0  0  0  0  0  0
  -28.8080  -13.1000   20.6680 C   0  0  0  0  0  2  0  0  0  0  0  0
  -30.1030  -13.4150   20.0530 N   0  0  0  0  0  0  0  0  0  0  0  0
  -31.9050  -14.7230   19.6650 O   0  0  0  0  0  0  0  0  0  0  0  0
  -25.3390  -13.9240   20.4010 C   0  0  0  0  0  0  0  0  0  0  0  0
  -24.2820  -13.1520   20.8000 C   0  0  0  0  0  0  0  0  0  0  0  0
  -24.7380  -11.7990   20.7460 C   0  0  0  0  0  0  0  0  0  0  0  0
  -26.3740  -13.0410   20.1290 N   0  0  0  0  0  0  0  0  0  0  0  0
  -26.0180  -11.7580   20.3960 N   0  0  0  0  0  0  0  0  0  0  0  0
  -24.0130  -10.5380   20.9510 C   0  0  0  0  0  0  0  0  0  0  0  0
  -24.4630   -9.5690   21.8740 C   0  0  0  0  0  3  0  0  0  0  0  0
  -23.7390   -8.3730   22.0700 C   0  0  0  0  0  3  0  0  0  0  0  0
  -22.5480   -8.1380   21.3400 C   0  0  0  0  0  0  0  0  0  0  0  0
  -22.1170   -9.0960   20.4070 C   0  0  0  0  0  3  0  0  0  0  0  0
  -22.8430  -10.2830   20.2110 C   0  0  0  0  0  3  0  0  0  0  0  0
  -21.7930   -6.9950   21.4440 O   0  0  0  0  0  0  0  0  0  0  0  0
  -21.7590   -6.2580   22.6000 C   0  0  0  0  0  0  0  0  0  0  0  0
  -21.3470   -6.8170   23.8290 C   0  0  0  0  0  3  0  0  0  0  0  0
  -21.2610   -6.0070   24.9780 C   0  0  0  0  0  3  0  0  0  0  0  0
  -21.5780   -4.6370   24.8990 C   0  0  0  0  0  0  0  0  0  0  0  0
  -21.9830   -4.0770   23.6750 C   0  0  0  0  0  3  0  0  0  0  0  0
  -22.0720   -4.8860   22.5290 C   0  0  0  0  0  0  0  0  0  0  0  0
  -22.4430   -4.3360   21.3460 F   0  0  0  0  0  0  0  0  0  0  0  0
  -21.4880   -3.8560   26.0020 F   0  0  0  0  0  0  0  0  0  0  0  0
  -22.8960  -13.6320   21.1180 C   0  0  0  0  0  0  0  0  0  0  0  0
  -22.1930  -12.9340   22.0040 N   0  0  0  0  0  0  0  0  0  0  0  0
  -22.4460  -14.6630   20.6190 O   0  0  0  0  0  0  0  0  0  0  0  0
  -22.5680  -12.0980   22.4270 H   0  0  0  0  0  0  0  0  0  0  0  0
  -21.2660  -13.2400   22.2630 H   0  0  0  0  0  0  0  0  0  0  0  0
  -25.5000  -15.2950   20.2250 N   0  0  0  0  0  0  0  0  0  0  0  0
  -24.7350  -15.9470   20.3660 H   0  0  0  0  0  0  0  0  0  0  0  0
  -26.3340  -15.7360   19.8570 H   0  0  0  0  0  0  0  0  0  0  0  0
  -29.6200  -21.2790   20.7670 C   0  0  0  0  0  3  0  0  0  0  0  0
  -28.8880  -22.4750   20.0300 C   0  0  0  0  0  2  0  0  0  0  0  0
  -29.1160  -23.9580   20.5470 C   0  0  0  0  0  3  0  0  0  0  0  0
  -28.1570  -25.0480   19.9250 C   0  0  0  0  0  3  0  0  0  0  0  0
  -28.3240  -26.4710   20.2770 O   0  0  0  0  0  0  0  0  0  0  0  0
  -24.6180  -31.8810   23.2470 C   0  0  0  0  0  0  0  0  0  0  0  0
  -27.2030  -27.3140   20.2020 C   0  0  0  0  0  0  0  0  0  0  0  0
  -23.4040  -30.4850   21.6120 C   0  0  0  0  0  3  0  0  0  0  0  0
  -24.8460  -28.9290   20.1880 C   0  0  0  0  0  0  0  0  0  0  0  0
  -25.9450  -30.7900   21.4300 C   0  0  0  0  0  2  0  0  0  0  0  0
  -26.0150  -29.4110   20.7900 C   0  0  0  0  0  0  0  0  0  0  0  0
  -27.1950  -28.6120   20.7940 C   0  0  0  0  0  3  0  0  0  0  0  0
  -26.0150  -26.8940   19.5560 C   0  0  0  0  0  3  0  0  0  0  0  0
  -24.8480  -27.6750   19.5640 C   0  0  0  0  0  3  0  0  0  0  0  0
  -23.6120  -29.8040   20.2340 C   0  0  0  0  0  2  0  0  0  0  0  0
  -24.6740  -31.0680   22.1530 N   0  0  0  0  0  0  0  0  0  0  0  0
  -23.5370  -32.1690   23.7790 O   0  0  0  0  0  0  0  0  0  0  0  0
  -22.7360  -29.4740   22.5740 C   0  0  0  0  0  0  0  0  0  0  0  0
  -21.4120  -29.2940   22.4370 N   0  0  0  0  0  0  0  0  0  0  0  0
  -23.4090  -28.8540   23.4020 O   0  0  0  0  0  0  0  0  0  0  0  0
  -20.9280  -29.8480   21.7440 H   0  0  0  0  0  0  0  0  0  0  0  0
  -18.0330  -28.0950   22.9050 C   0  0  0  0  0  0  0  0  0  0  0  0
  -20.5870  -28.3650   23.2080 C   0  0  0  0  0  3  0  0  0  0  0  0
  -20.7000  -26.9260   22.6530 C   0  0  0  0  0  2  0  0  0  0  0  0
  -19.6130  -26.5870   21.6290 C   0  0  0  0  0  2  0  0  0  0  0  0
  -18.2210  -26.7370   22.2500 C   0  0  0  0  0  2  0  0  0  0  0  0
  -19.1430  -28.8660   23.3400 C   0  0  0  0  0  0  0  0  0  0  0  0
  -18.9140  -30.1370   23.9100 C   0  0  0  0  0  3  0  0  0  0  0  0
  -17.6050  -30.6370   24.0500 C   0  0  0  0  0  3  0  0  0  0  0  0
  -16.5080  -29.8640   23.6330 C   0  0  0  0  0  3  0  0  0  0  0  0
  -16.7230  -28.5950   23.0660 C   0  0  0  0  0  3  0  0  0  0  0  0
  -25.9060  -32.5060   23.8660 C   0  0  0  0  0  3  0  0  0  0  0  0
  -25.6040  -33.9050   24.1980 N   0  0  0  0  0  0  0  0  0  0  0  0
  -25.9350  -34.9570   23.4350 C   0  0  0  0  0  0  0  0  0  0  0  0
  -26.5960  -34.8490   22.4000 O   0  0  0  0  0  0  0  0  0  0  0  0
  -25.0190  -34.0620   25.0040 H   0  0  0  0  0  0  0  0  0  0  0  0
  -24.2110  -36.7570   23.0950 C   0  0  0  0  0  1  0  0  0  0  0  0
  -25.4570  -36.3470   23.8970 C   0  0  0  0  0  3  0  0  0  0  0  0
  -27.6000  -37.2260   24.7130 C   0  0  0  0  0  1  0  0  0  0  0  0
  -26.4930  -37.3960   23.7740 N   0  0  0  0  0  0  0  0  0  0  0  0
  -26.0910  -38.3180   23.9230 H   0  0  0  0  0  0  0  0  0  0  0  0
  -26.4210  -31.7320   25.1410 C   0  0  1  0  0  0  0  0  0  0  0  0
  -25.3270  -31.4960   26.2080 C   0  0  0  0  0  1  0  0  0  0  0  0
  -26.9990  -30.3530   24.7490 C   0  0  0  0  0  1  0  0  0  0  0  0
  -27.5750  -32.5220   25.8040 C   0  0  0  0  0  1  0  0  0  0  0  0
  1 46  2  0
  1  2  1  0
  2  3  2  0
  4  9  1  0
  4  2  1  0
  5  6  1  0
  6  4  1  0
  6  7  1  0
  8  6  1  0
 10  9  1  0
 11 16  1  0
 12 13  1  0
 12 11  1  0
 14 13  1  0
 14 21  1  0
 14 15  1  0
 16 10  1  0
 16 15  1  0
 17 10  2  0
 18 19  2  0
 19 38  1  0
 20 19  1  0
 20 23  1  0
 21 22  1  0
 21 18  1  0
 22 20  2  0
 23 24  1  0
 24 25  2  0
 26 29  1  0
 26 25  1  0
 27 26  2  0
 28 27  1  0
 28 23  2  0
 29 30  1  0
 30 31  1  0
 31 32  2  0
 33 32  1  0
 33 37  1  0
 34 33  2  0
 35 30  2  0
 35 34  1  0
 36 35  1  0
 38 39  1  0
 39 42  1  0
 39 41  1  0
 40 38  2  0
 43 44  1  0
 43 18  1  0
 45 43  1  0
 47 48  1  0
 47 46  1  0
 49 50  1  0
 49 48  2  0
 51 62  2  0
 52 50  1  0
 52 57  1  0
 53 61  1  0
 53 63  1  0
 54 60  1  0
 54 56  1  0
 55 61  1  0
 56 57  2  0
 56 55  1  0
 58 59  1  0
 58 52  2  0
 59 54  2  0
 60 53  1  0
 61 51  1  0
 63 65  2  0
 64 63  1  0
 66 64  1  0
 67 76  2  0
 67 72  1  0
 68 64  1  0
 68 72  1  0
 69 68  1  0
 70 71  1  0
 70 69  1  0
 71 67  1  0
 72 73  2  0
 73 74  1  0
 75 74  2  0
 76 75  1  0
 77 51  1  0
 77 78  1  0
 77 87  1  0
 78 81  1  0
 79 83  1  0
 79 78  1  0
 80 79  2  0
 83 82  1  0
 85 83  1  0
 85 86  1  0
 85 84  1  0
 87 90  1  1
 87 88  1  0
 89 87  1  0
M  ISO  4   9 100  10 100  49 101  50 101
M  END
>  <TORSDO>  (10) 
F 24

>  <SCORE>  (10) 
-11.964

>  <name>  (10) 
9

>  <ligand_id>  (10) 
9

>  <original_smiles>  (10) 
[H]c1c([H])c([H])c2c(c1[H])C([H])([H])C([H])([H])C([H])([H])C2([H])N([H])C(=O)C1([H])N(C(=O)C([H])(N([H])C(=O)C([H])(N([H])C([H])([H])[H])C([H])([H])[H])C(C([H])([H])[H])(C([H])([H])[H])C([H])([H])[H])C([H])([H])c2c([H])c(OC([H])([H])C([H])([H])C([H])([H])C([H])([H])C([H])([H])C(=O)C([H])(C([H])([H])C(=O)N3C([H])([H])C([H])([H])C([H])([H])C([H])(n4nc(-c5c([H])c([H])c(Oc6c([H])c([H])c(F)c([H])c6F)c([H])c5[H])c(C(=O)N([H])[H])c4N([H])[H])C3([H])[H])[N+]([H])([H])C([H])([H])[H])c([H])c([H])c2C1([H])[H]

>  <smiles>  (10) 
[H]c1c([H])c([H])c2c(c1[H])C([H])([H])C([H])([H])C([H])([H])C2([H])N([H])C(=O)C1([H])N(C(=O)C([H])(N([H])C(=O)C([H])(N([H])C([H])([H])[H])C([H])([H])[H])C(C([H])([H])[H])(C([H])([H])[H])C([H])([H])[H])C([H])([H])c2c([H])c(OC([H])([H])C([H])([H])C([H])([H])C([H])([H])C([H])([H])C(=O)C([H])(C([H])([H])C(=O)N3C([H])([H])C([H])([H])C([H])([H])C([H])(n4nc(-c5c([H])c([H])c(Oc6c([H])c([H])c(F)c([H])c6F)c([H])c5[H])c(C(=O)N([H])[H])c4N([H])[H])C3([H])[H])[N+]([H])([H])C([H])([H])[H])c([H])c([H])c2C1([H])[H]

$$$$
10:0:0
     RDKit          3D

 92101  0  0  1  0  0  0  0  0999 V2000
  -29.3740  -21.5550   19.9070 N   0  0  0  0  0  0  0  0  0  0  0  0
  -30.9550  -15.1650   20.2930 C   0  0  0  0  0  0  0  0  0  0  0  0
  -30.7660  -12.7650   19.3890 C   0  0  0  0  0  2  0  0  0  0  0  0
  -29.8630  -12.6640   18.1400 C   0  0  0  0  0  2  0  0  0  0  0  0
  -28.3960  -12.4680   18.5610 C   0  0  0  0  0  2  0  0  0  0  0  0
  -27.9780  -13.4150   19.7170 C   0  0  0  0  0  3  0  0  0  0  0  0
  -29.0260  -13.5030   20.8450 C   0  0  0  0  0  2  0  0  0  0  0  0
  -30.2810  -13.9250   20.2110 N   0  0  0  0  0  0  0  0  0  0  0  0
  -32.1700  -15.0660   20.0700 O   0  0  0  0  0  0  0  0  0  0  0  0
  -30.3510  -19.0500   19.0790 C   0  0  0  0  0  2  0  0  0  0  0  0
  -29.1480  -18.9410   21.0540 C   0  0  0  0  0  2  0  0  0  0  0  0
  -31.0390  -17.6010   19.3920 C   0  0  0  0  0  2  0  0  0  0  0  0
  -29.6720  -17.3580   21.2740 C   0  0  0  0  0  2  0  0  0  0  0  0
  -29.9800  -20.0810   20.2610 C   0  0  0  0  0  3  0  0  0  0  0  0
  -30.3460  -16.5000   20.1910 N   0  0  0  0  0  0  0  0  0  0  0  0
  -25.6100  -14.0060   20.4590 C   0  0  0  0  0  0  0  0  0  0  0  0
  -24.5350  -13.2420   20.8140 C   0  0  0  0  0  0  0  0  0  0  0  0
  -24.9830  -11.8850   20.7810 C   0  0  0  0  0  0  0  0  0  0  0  0
  -26.6420  -13.1170   20.2160 N   0  0  0  0  0  0  0  0  0  0  0  0
  -26.2770  -11.8350   20.4810 N   0  0  0  0  0  0  0  0  0  0  0  0
  -24.2360  -10.6310   20.9610 C   0  0  0  0  0  0  0  0  0  0  0  0
  -24.6120   -9.6770   21.9300 C   0  0  0  0  0  3  0  0  0  0  0  0
  -23.8630   -8.4930   22.0960 C   0  0  0  0  0  3  0  0  0  0  0  0
  -22.7220   -8.2540   21.2940 C   0  0  0  0  0  0  0  0  0  0  0  0
  -22.3660   -9.1960   20.3130 C   0  0  0  0  0  3  0  0  0  0  0  0
  -23.1160  -10.3720   20.1460 C   0  0  0  0  0  3  0  0  0  0  0  0
  -21.9520   -7.1190   21.3670 O   0  0  0  0  0  0  0  0  0  0  0  0
  -21.7920   -6.4320   22.5440 C   0  0  0  0  0  0  0  0  0  0  0  0
  -21.1690   -7.0160   23.6680 C   0  0  0  0  0  3  0  0  0  0  0  0
  -20.9610   -6.2530   24.8340 C   0  0  0  0  0  3  0  0  0  0  0  0
  -21.3660   -4.9060   24.8750 C   0  0  0  0  0  0  0  0  0  0  0  0
  -21.9820   -4.3200   23.7530 C   0  0  0  0  0  3  0  0  0  0  0  0
  -22.1910   -5.0810   22.5900 C   0  0  0  0  0  0  0  0  0  0  0  0
  -22.7660   -4.5070   21.5060 F   0  0  0  0  0  0  0  0  0  0  0  0
  -21.1610   -4.1690   25.9910 F   0  0  0  0  0  0  0  0  0  0  0  0
  -23.1420  -13.7400   21.0720 C   0  0  0  0  0  0  0  0  0  0  0  0
  -22.4000  -13.0640   21.9410 N   0  0  0  0  0  0  0  0  0  0  0  0
  -22.7230  -14.7660   20.5370 O   0  0  0  0  0  0  0  0  0  0  0  0
  -22.7480  -12.2360   22.3990 H   0  0  0  0  0  0  0  0  0  0  0  0
  -21.4640  -13.3810   22.1510 H   0  0  0  0  0  0  0  0  0  0  0  0
  -25.7900  -15.3790   20.2950 N   0  0  0  0  0  0  0  0  0  0  0  0
  -25.0300  -16.0400   20.4250 H   0  0  0  0  0  0  0  0  0  0  0  0
  -26.6490  -15.8170   19.9890 H   0  0  0  0  0  0  0  0  0  0  0  0
  -31.0940  -23.0900   16.3570 C   0  0  0  0  0  3  0  0  0  0  0  0
  -31.8180  -23.1290   17.5640 C   0  0  0  0  0  3  0  0  0  0  0  0
  -29.7980  -22.5350   16.3320 C   0  0  0  0  0  3  0  0  0  0  0  0
  -31.2460  -22.6150   18.7450 C   0  0  0  0  0  3  0  0  0  0  0  0
  -29.2300  -22.0060   17.5130 C   0  0  0  0  0  3  0  0  0  0  0  0
  -29.9520  -22.0430   18.7250 C   0  0  0  0  0  0  0  0  0  0  0  0
  -29.0180  -22.8900   20.7460 C   0  0  0  0  0  2  0  0  0  0  0  0
  -28.3050  -24.3910   20.1590 C   0  0  0  0  0  2  0  0  0  0  0  0
  -28.3600  -25.9190   20.6790 O   0  0  0  0  0  0  0  0  0  0  0  0
  -24.6350  -31.8810   23.2000 C   0  0  0  0  0  0  0  0  0  0  0  0
  -27.3310  -26.9530   20.4990 C   0  0  0  0  0  0  0  0  0  0  0  0
  -23.5040  -30.4020   21.5890 C   0  0  0  0  0  3  0  0  0  0  0  0
  -25.0100  -28.7520   20.2950 C   0  0  0  0  0  0  0  0  0  0  0  0
  -26.0700  -30.6420   21.5180 C   0  0  0  0  0  2  0  0  0  0  0  0
  -26.1700  -29.2130   20.9300 C   0  0  0  0  0  0  0  0  0  0  0  0
  -27.3270  -28.3320   21.0070 C   0  0  0  0  0  3  0  0  0  0  0  0
  -26.1450  -26.6220   19.8060 C   0  0  0  0  0  3  0  0  0  0  0  0
  -25.0170  -27.4740   19.7170 C   0  0  0  0  0  3  0  0  0  0  0  0
  -23.7830  -29.6570   20.2550 C   0  0  0  0  0  2  0  0  0  0  0  0
  -24.7560  -31.0040   22.1530 N   0  0  0  0  0  0  0  0  0  0  0  0
  -23.5290  -32.1850   23.6720 O   0  0  0  0  0  0  0  0  0  0  0  0
  -22.7910  -29.4440   22.5770 C   0  0  0  0  0  0  0  0  0  0  0  0
  -21.4680  -29.2530   22.4130 N   0  0  0  0  0  0  0  0  0  0  0  0
  -23.4320  -28.8690   23.4620 O   0  0  0  0  0  0  0  0  0  0  0  0
  -21.0030  -29.7710   21.6800 H   0  0  0  0  0  0  0  0  0  0  0  0
  -18.0690  -28.0800   22.8960 C   0  0  0  0  0  0  0  0  0  0  0  0
  -20.6250  -28.3480   23.2000 C   0  0  0  0  0  3  0  0  0  0  0  0
  -20.7290  -26.8930   22.6840 C   0  0  0  0  0  2  0  0  0  0  0  0
  -19.6460  -26.5370   21.6600 C   0  0  0  0  0  2  0  0  0  0  0  0
  -18.2540  -26.7080   22.2730 C   0  0  0  0  0  2  0  0  0  0  0  0
  -19.1820  -28.8560   23.3190 C   0  0  0  0  0  0  0  0  0  0  0  0
  -18.9550  -30.1370   23.8690 C   0  0  0  0  0  3  0  0  0  0  0  0
  -17.6470  -30.6430   23.9970 C   0  0  0  0  0  3  0  0  0  0  0  0
  -16.5490  -29.8660   23.5890 C   0  0  0  0  0  3  0  0  0  0  0  0
  -16.7600  -28.5860   23.0450 C   0  0  0  0  0  3  0  0  0  0  0  0
  -25.8830  -32.5610   23.8420 C   0  0  0  0  0  3  0  0  0  0  0  0
  -26.4110  -31.8070   25.1250 C   0  0  1  0  0  0  0  0  0  0  0  0
  -25.3010  -31.4550   26.1430 C   0  0  0  0  0  1  0  0  0  0  0  0
  -27.1240  -30.4910   24.7390 C   0  0  0  0  0  1  0  0  0  0  0  0
  -27.4580  -32.6850   25.8520 C   0  0  0  0  0  1  0  0  0  0  0  0
  -25.5160  -33.9450   24.1860 N   0  0  0  0  0  0  0  0  0  0  0  0
  -25.7810  -35.0210   23.4300 C   0  0  0  0  0  0  0  0  0  0  0  0
  -26.4230  -34.9530   22.3800 O   0  0  0  0  0  0  0  0  0  0  0  0
  -24.9430  -34.0680   25.0080 H   0  0  0  0  0  0  0  0  0  0  0  0
  -23.9570  -36.7380   23.1630 C   0  0  0  0  0  1  0  0  0  0  0  0
  -25.2500  -36.3860   23.9170 C   0  0  0  0  0  3  0  0  0  0  0  0
  -27.3590  -37.3900   24.6800 C   0  0  0  0  0  1  0  0  0  0  0  0
  -26.2270  -37.4880   23.7640 N   0  0  0  0  0  0  0  0  0  0  0  0
  -25.7790  -38.3880   23.9110 H   0  0  0  0  0  0  0  0  0  0  0  0
  1 50  1  0
  3  8  1  0
  4  5  1  0
  4  3  1  0
  6  5  1  0
  6 19  1  0
  6  7  1  0
  8  2  1  0
  8  7  1  0
  9  2  2  0
 10 12  1  0
 10 14  1  0
 11 13  1  0
 12 15  1  0
 14  1  1  0
 14 11  1  0
 15  2  1  0
 15 13  1  0
 16 17  2  0
 17 36  1  0
 18 17  1  0
 18 21  1  0
 19 16  1  0
 19 20  1  0
 20 18  2  0
 21 22  1  0
 22 23  2  0
 24 27  1  0
 24 23  1  0
 25 24  2  0
 26 25  1  0
 26 21  2  0
 27 28  1  0
 28 33  2  0
 28 29  1  0
 29 30  2  0
 30 31  1  0
 31 35  1  0
 32 31  2  0
 33 32  1  0
 34 33  1  0
 36 37  1  0
 37 40  1  0
 37 39  1  0
 38 36  2  0
 41 42  1  0
 41 16  1  0
 43 41  1  0
 44 45  1  0
 45 47  2  0
 46 44  2  0
 46 48  1  0
 48 49  2  0
 49 47  1  0
 49  1  1  0
 51 52  1  0
 51 50  1  0
 53 64  2  0
 54 52  1  0
 54 59  1  0
 55 63  1  0
 55 65  1  0
 56 58  1  0
 57 63  1  0
 58 59  2  0
 58 57  1  0
 60 54  2  0
 61 60  1  0
 61 56  2  0
 62 56  1  0
 62 55  1  0
 63 53  1  0
 65 67  2  0
 66 65  1  0
 68 66  1  0
 69 78  2  0
 69 74  1  0
 70 66  1  0
 70 74  1  0
 71 70  1  0
 72 73  1  0
 72 71  1  0
 73 69  1  0
 74 75  2  0
 75 76  1  0
 77 76  2  0
 78 77  1  0
 79 53  1  0
 79 84  1  0
 79 80  1  0
 80 83  1  1
 80 81  1  0
 82 80  1  0
 84 87  1  0
 85 89  1  0
 85 84  1  0
 86 85  2  0
 89 88  1  0
 91 92  1  0
 91 89  1  0
 91 90  1  0
M  ISO  4   2 100  15 100  51 101  52 101
M  END
>  <TORSDO>  (11) 
F 19

>  <SCORE>  (11) 
-14.536

>  <name>  (11) 
10

>  <ligand_id>  (11) 
10

>  <original_smiles>  (11) 
[H]c1c([H])c([H])c(N(C([H])([H])C([H])([H])Oc2c([H])c([H])c3c(c2[H])C([H])([H])N(C(=O)C([H])(N([H])C(=O)C([H])(N([H])C([H])([H])[H])C([H])([H])[H])C(C([H])([H])[H])(C([H])([H])[H])C([H])([H])[H])C([H])(C(=O)N([H])C2([H])c4c([H])c([H])c([H])c([H])c4C([H])([H])C([H])([H])C2([H])[H])C3([H])[H])C2([H])C([H])([H])C([H])([H])N(C(=O)N3C([H])([H])C([H])([H])C([H])([H])C([H])(n4nc(-c5c([H])c([H])c(Oc6c([H])c([H])c(F)c([H])c6F)c([H])c5[H])c(C(=O)N([H])[H])c4N([H])[H])C3([H])[H])C([H])([H])C2([H])[H])c([H])c1[H]

>  <smiles>  (11) 
[H]c1c([H])c([H])c(N(C([H])([H])C([H])([H])Oc2c([H])c([H])c3c(c2[H])C([H])([H])N(C(=O)C([H])(N([H])C(=O)C([H])(N([H])C([H])([H])[H])C([H])([H])[H])C(C([H])([H])[H])(C([H])([H])[H])C([H])([H])[H])C([H])(C(=O)N([H])C2([H])c4c([H])c([H])c([H])c([H])c4C([H])([H])C([H])([H])C2([H])[H])C3([H])[H])C2([H])C([H])([H])C([H])([H])N(C(=O)N3C([H])([H])C([H])([H])C([H])([H])C([H])(n4nc(-c5c([H])c([H])c(Oc6c([H])c([H])c(F)c([H])c6F)c([H])c5[H])c(C(=O)N([H])[H])c4N([H])[H])C3([H])[H])C([H])([H])C2([H])[H])c([H])c1[H]

$$$$
11:0:0
     RDKit          3D

 96103  0  0  1  0  0  0  0  0999 V2000
  -27.2350  -20.9230   19.8330 C   0  0  0  0  0  1  0  0  0  0  0  0
  -28.5680  -21.3030   20.5210 C   0  0  0  0  0  3  0  0  0  0  0  0
  -29.2270  -22.9820   18.8490 C   0  0  0  0  0  1  0  0  0  0  0  0
  -28.8820  -22.7780   20.2610 N   0  0  0  0  0  0  0  0  0  0  0  0
  -27.9130  -23.9060   20.6260 C   0  0  0  0  0  3  0  0  0  0  0  0
  -30.0480  -25.3460   21.1510 C   0  0  0  0  0  1  0  0  0  0  0  0
  -28.5300  -25.3900   20.9040 C   0  0  0  0  0  3  0  0  0  0  0  0
  -28.2960  -26.5640   20.0400 O   0  0  0  0  0  0  0  0  0  0  0  0
  -24.5210  -31.8820   23.2460 C   0  0  0  0  0  0  0  0  0  0  0  0
  -27.1520  -27.3600   20.1620 C   0  0  0  0  0  0  0  0  0  0  0  0
  -23.3200  -30.4920   21.5930 C   0  0  0  0  0  3  0  0  0  0  0  0
  -24.7750  -28.9450   20.1660 C   0  0  0  0  0  0  0  0  0  0  0  0
  -25.8550  -30.8230   21.4080 C   0  0  0  0  0  2  0  0  0  0  0  0
  -25.9410  -29.4440   20.7630 C   0  0  0  0  0  0  0  0  0  0  0  0
  -27.1350  -28.6620   20.7500 C   0  0  0  0  0  3  0  0  0  0  0  0
  -25.9650  -26.9030   19.5550 C   0  0  0  0  0  3  0  0  0  0  0  0
  -24.7870  -27.6790   19.5570 C   0  0  0  0  0  3  0  0  0  0  0  0
  -23.5370  -29.8200   20.2100 C   0  0  0  0  0  2  0  0  0  0  0  0
  -24.5840  -31.0840   22.1400 N   0  0  0  0  0  0  0  0  0  0  0  0
  -23.4390  -32.1540   23.7860 O   0  0  0  0  0  0  0  0  0  0  0  0
  -22.6600  -29.4700   22.5470 C   0  0  0  0  0  0  0  0  0  0  0  0
  -21.3340  -29.2940   22.4210 N   0  0  0  0  0  0  0  0  0  0  0  0
  -23.3400  -28.8360   23.3590 O   0  0  0  0  0  0  0  0  0  0  0  0
  -20.8450  -29.8570   21.7400 H   0  0  0  0  0  0  0  0  0  0  0  0
  -17.9560  -28.1010   22.9240 C   0  0  0  0  0  0  0  0  0  0  0  0
  -20.5160  -28.3510   23.1840 C   0  0  0  0  0  3  0  0  0  0  0  0
  -20.6120  -26.9270   22.5890 C   0  0  0  0  0  2  0  0  0  0  0  0
  -19.5040  -26.6200   21.5770 C   0  0  0  0  0  2  0  0  0  0  0  0
  -18.1250  -26.7600   22.2290 C   0  0  0  0  0  2  0  0  0  0  0  0
  -19.0790  -28.8550   23.3570 C   0  0  0  0  0  0  0  0  0  0  0  0
  -18.8680  -30.1100   23.9670 C   0  0  0  0  0  3  0  0  0  0  0  0
  -17.5660  -30.6140   24.1460 C   0  0  0  0  0  3  0  0  0  0  0  0
  -16.4570  -29.8570   23.7290 C   0  0  0  0  0  3  0  0  0  0  0  0
  -16.6520  -28.6040   23.1250 C   0  0  0  0  0  3  0  0  0  0  0  0
  -25.8050  -32.5100   23.8720 C   0  0  0  0  0  3  0  0  0  0  0  0
  -26.3110  -31.7420   25.1540 C   0  0  1  0  0  0  0  0  0  0  0  0
  -25.2110  -31.5160   26.2170 C   0  0  0  0  0  1  0  0  0  0  0  0
  -26.8860  -30.3580   24.7710 C   0  0  0  0  0  1  0  0  0  0  0  0
  -27.4610  -32.5330   25.8200 C   0  0  0  0  0  1  0  0  0  0  0  0
  -25.5010  -33.9120   24.1960 N   0  0  0  0  0  0  0  0  0  0  0  0
  -25.8400  -34.9620   23.4360 C   0  0  0  0  0  0  0  0  0  0  0  0
  -26.5130  -34.8520   22.4080 O   0  0  0  0  0  0  0  0  0  0  0  0
  -24.9070  -34.0710   24.9960 H   0  0  0  0  0  0  0  0  0  0  0  0
  -24.1240  -36.7640   23.0680 C   0  0  0  0  0  1  0  0  0  0  0  0
  -25.3570  -36.3540   23.8880 C   0  0  0  0  0  3  0  0  0  0  0  0
  -27.4900  -37.2300   24.7310 C   0  0  0  0  0  1  0  0  0  0  0  0
  -26.3970  -37.4020   23.7800 N   0  0  0  0  0  0  0  0  0  0  0  0
  -25.9930  -38.3240   23.9220 H   0  0  0  0  0  0  0  0  0  0  0  0
  -25.7350  -24.3160   21.9620 C   0  0  0  0  0  1  0  0  0  0  0  0
  -27.0620  -23.5400   21.8790 C   0  0  0  0  0  2  0  0  0  0  0  0
  -29.6800  -20.1540   20.1990 C   0  0  0  0  0  3  0  0  0  0  0  0
  -29.3480  -18.7240   20.6720 N   0  0  0  0  0  4  0  0  0  0  0  0
  -29.3380  -18.7450   21.6790 H   0  0  0  0  0  0  0  0  0  0  0  0
  -28.3980  -18.5400   20.3890 H   0  0  0  0  0  0  0  0  0  0  0  0
  -30.2440  -17.4090   18.6940 C   0  0  0  0  0  1  0  0  0  0  0  0
  -30.1930  -17.5050   20.2370 C   0  0  0  0  0  3  0  0  0  0  0  0
  -29.7900  -16.0760   20.8880 C   0  0  0  0  0  2  0  0  0  0  0  0
  -30.6020  -14.7450   20.5180 C   0  0  0  0  0  0  0  0  0  0  0  0
  -30.4360  -12.4810   19.4820 C   0  0  0  0  0  2  0  0  0  0  0  0
  -29.5290  -12.5850   18.2340 C   0  0  0  0  0  2  0  0  0  0  0  0
  -28.0460  -12.4170   18.6220 C   0  0  0  0  0  2  0  0  0  0  0  0
  -27.6450  -13.2990   19.8340 C   0  0  0  0  0  3  0  0  0  0  0  0
  -28.6720  -13.1780   20.9820 C   0  0  0  0  0  2  0  0  0  0  0  0
  -29.9930  -13.5150   20.4410 N   0  0  0  0  0  0  0  0  0  0  0  0
  -31.7830  -14.8570   20.1760 O   0  0  0  0  0  0  0  0  0  0  0  0
  -25.2320  -13.8980   20.4810 C   0  0  0  0  0  0  0  0  0  0  0  0
  -24.1580  -13.1270   20.8310 C   0  0  0  0  0  0  0  0  0  0  0  0
  -24.6270  -11.7770   20.8360 C   0  0  0  0  0  0  0  0  0  0  0  0
  -26.2850  -13.0180   20.2890 N   0  0  0  0  0  0  0  0  0  0  0  0
  -25.9260  -11.7390   20.5680 N   0  0  0  0  0  0  0  0  0  0  0  0
  -23.9000  -10.5150   21.0240 C   0  0  0  0  0  0  0  0  0  0  0  0
  -24.3140   -9.5600   21.9790 C   0  0  0  0  0  3  0  0  0  0  0  0
  -23.5890   -8.3620   22.1550 C   0  0  0  0  0  3  0  0  0  0  0  0
  -22.4330   -8.1120   21.3770 C   0  0  0  0  0  0  0  0  0  0  0  0
  -22.0380   -9.0560   20.4110 C   0  0  0  0  0  3  0  0  0  0  0  0
  -22.7660  -10.2430   20.2340 C   0  0  0  0  0  3  0  0  0  0  0  0
  -21.6790   -6.9680   21.4610 O   0  0  0  0  0  0  0  0  0  0  0  0
  -21.6130   -6.2320   22.6170 C   0  0  0  0  0  0  0  0  0  0  0  0
  -21.1730   -6.7950   23.8350 C   0  0  0  0  0  3  0  0  0  0  0  0
  -21.0570   -5.9850   24.9830 C   0  0  0  0  0  3  0  0  0  0  0  0
  -21.3710   -4.6150   24.9130 C   0  0  0  0  0  0  0  0  0  0  0  0
  -21.8050   -4.0520   23.7000 C   0  0  0  0  0  3  0  0  0  0  0  0
  -21.9230   -4.8590   22.5550 C   0  0  0  0  0  0  0  0  0  0  0  0
  -22.3210   -4.3060   21.3820 F   0  0  0  0  0  0  0  0  0  0  0  0
  -21.2510   -3.8350   26.0140 F   0  0  0  0  0  0  0  0  0  0  0  0
  -22.7510  -13.6020   21.0510 C   0  0  0  0  0  0  0  0  0  0  0  0
  -22.0010  -12.9160   21.9040 N   0  0  0  0  0  0  0  0  0  0  0  0
  -22.3250  -14.6160   20.4990 O   0  0  0  0  0  0  0  0  0  0  0  0
  -22.3590  -12.0980   22.3750 H   0  0  0  0  0  0  0  0  0  0  0  0
  -21.0540  -13.2150   22.0920 H   0  0  0  0  0  0  0  0  0  0  0  0
  -25.3940  -15.2670   20.2840 N   0  0  0  0  0  0  0  0  0  0  0  0
  -24.6150  -15.9130   20.3550 H   0  0  0  0  0  0  0  0  0  0  0  0
  -26.2400  -15.7020   19.9410 H   0  0  0  0  0  0  0  0  0  0  0  0
  -31.1050  -20.5730   20.6440 C   0  0  0  0  0  2  0  0  0  0  0  0
  -32.7710  -21.0720   22.5050 C   0  0  0  0  0  1  0  0  0  0  0  0
  -31.3290  -20.6730   22.1630 C   0  0  0  0  0  2  0  0  0  0  0  0
  2  1  1  0
  3  4  1  0
  4  2  1  0
  4  5  1  0
  5  7  1  0
  5 50  1  0
  7  6  1  0
  8 10  1  0
  8  7  1  0
  9 20  2  0
 10 15  1  0
 11 19  1  0
 11 21  1  0
 12 18  1  0
 12 14  1  0
 13 19  1  0
 14 13  1  0
 15 14  2  0
 16 17  1  0
 16 10  2  0
 17 12  2  0
 18 11  1  0
 19  9  1  0
 21 23  2  0
 22 21  1  0
 24 22  1  0
 25 34  2  0
 25 30  1  0
 26 22  1  0
 26 30  1  0
 27 26  1  0
 28 29  1  0
 28 27  1  0
 29 25  1  0
 30 31  2  0
 31 32  1  0
 33 32  2  0
 34 33  1  0
 35  9  1  0
 35 40  1  0
 35 36  1  0
 36 39  1  1
 36 37  1  0
 38 36  1  0
 40 43  1  0
 41 45  1  0
 41 40  1  0
 42 41  2  0
 45 44  1  0
 47 45  1  0
 47 48  1  0
 47 46  1  0
 50 49  1  0
 51  2  1  0
 51 94  1  0
 51 52  1  0
 52 53  1  0
 54 52  1  0
 56 55  1  0
 56 52  1  0
 56 57  1  0
 58 57  1  0
 59 64  1  0
 60 61  1  0
 60 59  1  0
 62 61  1  0
 62 69  1  0
 62 63  1  0
 64 58  1  0
 64 63  1  0
 65 58  2  0
 66 67  2  0
 67 68  1  0
 67 86  1  0
 68 71  1  0
 69 66  1  0
 69 70  1  0
 70 68  2  0
 71 72  1  0
 72 73  2  0
 74 77  1  0
 74 73  1  0
 75 74  2  0
 76 75  1  0
 76 71  2  0
 77 78  1  0
 78 79  1  0
 79 80  2  0
 81 80  1  0
 81 85  1  0
 82 81  2  0
 83 78  2  0
 83 82  1  0
 84 83  1  0
 86 87  1  0
 87 90  1  0
 87 89  1  0
 88 86  2  0
 91 92  1  0
 91 66  1  0
 93 91  1  0
 94 96  1  0
 96 95  1  0
M  ISO  4   7 101   8 101  57 100  58 100
M  END
>  <TORSDO>  (12) 
F 26

>  <SCORE>  (12) 
-11.946

>  <name>  (12) 
11

>  <ligand_id>  (12) 
11

>  <original_smiles>  (12) 
[H]c1c([H])c([H])c2c(c1[H])C([H])([H])C([H])([H])C([H])([H])C2([H])N([H])C(=O)C1([H])N(C(=O)C([H])(N([H])C(=O)C([H])(N([H])C([H])([H])[H])C([H])([H])[H])C(C([H])([H])[H])(C([H])([H])[H])C([H])([H])[H])C([H])([H])c2c([H])c(OC([H])(C([H])([H])[H])C([H])(N(C([H])([H])[H])C([H])(C([H])([H])[H])C([H])(C([H])([H])C([H])([H])C([H])([H])[H])[N+]([H])([H])C([H])(C([H])([H])[H])C([H])([H])C(=O)N3C([H])([H])C([H])([H])C([H])([H])C([H])(n4nc(-c5c([H])c([H])c(Oc6c([H])c([H])c(F)c([H])c6F)c([H])c5[H])c(C(=O)N([H])[H])c4N([H])[H])C3([H])[H])C([H])([H])C([H])([H])[H])c([H])c([H])c2C1([H])[H]

>  <smiles>  (12) 
[H]c1c([H])c([H])c2c(c1[H])C([H])([H])C([H])([H])C([H])([H])C2([H])N([H])C(=O)C1([H])N(C(=O)C([H])(N([H])C(=O)C([H])(N([H])C([H])([H])[H])C([H])([H])[H])C(C([H])([H])[H])(C([H])([H])[H])C([H])([H])[H])C([H])([H])c2c([H])c(OC([H])(C([H])([H])[H])C([H])(N(C([H])([H])[H])C([H])(C([H])([H])[H])C([H])(C([H])([H])C([H])([H])C([H])([H])[H])[N+]([H])([H])C([H])(C([H])([H])[H])C([H])([H])C(=O)N3C([H])([H])C([H])([H])C([H])([H])C([H])(n4nc(-c5c([H])c([H])c(Oc6c([H])c([H])c(F)c([H])c6F)c([H])c5[H])c(C(=O)N([H])[H])c4N([H])[H])C3([H])[H])C([H])([H])C([H])([H])[H])c([H])c([H])c2C1([H])[H]

$$$$
12:0:0
     RDKit          3D

 90 97  0  0  1  0  0  0  0  0999 V2000
  -28.9610  -21.2340   20.0130 C   0  0  0  0  0  0  0  0  0  0  0  0
  -29.2510  -19.9260   20.6290 N   0  0  0  0  0  0  0  0  0  0  0  0
  -28.8820  -21.2180   18.7860 O   0  0  0  0  0  0  0  0  0  0  0  0
  -29.1920  -19.9770   21.6380 H   0  0  0  0  0  0  0  0  0  0  0  0
  -28.7910  -22.8280   20.6900 C   0  0  0  0  0  2  0  0  0  0  0  0
  -27.9740  -24.3190   20.1310 C   0  0  0  0  0  2  0  0  0  0  0  0
  -28.1900  -25.9240   20.3610 O   0  0  0  0  0  0  0  0  0  0  0  0
  -24.6070  -31.8650   23.2120 C   0  0  0  0  0  0  0  0  0  0  0  0
  -27.1810  -27.0030   20.2460 C   0  0  0  0  0  0  0  0  0  0  0  0
  -23.4230  -30.4620   21.5710 C   0  0  0  0  0  3  0  0  0  0  0  0
  -24.8780  -28.8560   20.1680 C   0  0  0  0  0  0  0  0  0  0  0  0
  -25.9850  -30.6910   21.4300 C   0  0  0  0  0  2  0  0  0  0  0  0
  -26.0630  -29.2780   20.7830 C   0  0  0  0  0  0  0  0  0  0  0  0
  -27.2090  -28.3720   20.7990 C   0  0  0  0  0  3  0  0  0  0  0  0
  -25.9700  -26.7230   19.5740 C   0  0  0  0  0  3  0  0  0  0  0  0
  -24.8560  -27.6010   19.5380 C   0  0  0  0  0  3  0  0  0  0  0  0
  -23.6550  -29.7700   20.2010 C   0  0  0  0  0  2  0  0  0  0  0  0
  -24.6930  -31.0300   22.1270 N   0  0  0  0  0  0  0  0  0  0  0  0
  -23.5180  -32.1570   23.7280 O   0  0  0  0  0  0  0  0  0  0  0  0
  -22.7220  -29.4720   22.5390 C   0  0  0  0  0  0  0  0  0  0  0  0
  -21.3910  -29.3140   22.4120 N   0  0  0  0  0  0  0  0  0  0  0  0
  -23.3820  -28.8440   23.3700 O   0  0  0  0  0  0  0  0  0  0  0  0
  -20.9100  -29.8690   21.7180 H   0  0  0  0  0  0  0  0  0  0  0  0
  -18.0010  -28.1290   22.9230 C   0  0  0  0  0  0  0  0  0  0  0  0
  -20.5630  -28.3830   23.1860 C   0  0  0  0  0  3  0  0  0  0  0  0
  -20.6560  -26.9500   22.6120 C   0  0  0  0  0  2  0  0  0  0  0  0
  -19.5500  -26.6320   21.5990 C   0  0  0  0  0  2  0  0  0  0  0  0
  -18.1690  -26.7820   22.2440 C   0  0  0  0  0  2  0  0  0  0  0  0
  -19.1240  -28.8870   23.3520 C   0  0  0  0  0  0  0  0  0  0  0  0
  -18.9090  -30.1470   23.9520 C   0  0  0  0  0  3  0  0  0  0  0  0
  -17.6050  -30.6500   24.1240 C   0  0  0  0  0  3  0  0  0  0  0  0
  -16.4990  -29.8910   23.7100 C   0  0  0  0  0  3  0  0  0  0  0  0
  -16.6970  -28.6320   23.1160 C   0  0  0  0  0  3  0  0  0  0  0  0
  -25.8770  -32.5090   23.8510 C   0  0  0  0  0  3  0  0  0  0  0  0
  -25.5620  -33.9100   24.1720 N   0  0  0  0  0  0  0  0  0  0  0  0
  -25.9070  -34.9660   23.4210 C   0  0  0  0  0  0  0  0  0  0  0  0
  -26.5900  -34.8610   22.3990 O   0  0  0  0  0  0  0  0  0  0  0  0
  -24.9520  -34.0680   24.9610 H   0  0  0  0  0  0  0  0  0  0  0  0
  -24.1970  -36.7770   23.0520 C   0  0  0  0  0  1  0  0  0  0  0  0
  -25.4240  -36.3580   23.8770 C   0  0  0  0  0  3  0  0  0  0  0  0
  -27.5510  -37.2320   24.7370 C   0  0  0  0  0  1  0  0  0  0  0  0
  -26.4650  -37.4040   23.7780 N   0  0  0  0  0  0  0  0  0  0  0  0
  -26.0640  -38.3280   23.9180 H   0  0  0  0  0  0  0  0  0  0  0  0
  -26.3690  -31.7500   25.1460 C   0  0  1  0  0  0  0  0  0  0  0  0
  -25.2580  -31.5360   26.2010 C   0  0  0  0  0  1  0  0  0  0  0  0
  -26.9470  -30.3620   24.7880 C   0  0  0  0  0  1  0  0  0  0  0  0
  -27.5150  -32.5460   25.8170 C   0  0  0  0  0  1  0  0  0  0  0  0
  -29.8990  -18.4730   20.1350 C   0  0  0  0  0  3  0  0  0  0  0  0
  -29.6410  -16.7870   20.6880 C   0  0  0  0  0  2  0  0  0  0  0  0
  -30.4370  -15.2560   20.3610 C   0  0  0  0  0  0  0  0  0  0  0  0
  -30.4250  -12.8230   19.4560 C   0  0  0  0  0  2  0  0  0  0  0  0
  -29.5220  -12.6920   18.2040 C   0  0  0  0  0  2  0  0  0  0  0  0
  -28.0560  -12.4370   18.6020 C   0  0  0  0  0  2  0  0  0  0  0  0
  -27.6050  -13.3610   19.7600 C   0  0  0  0  0  3  0  0  0  0  0  0
  -28.6360  -13.4510   20.9030 C   0  0  0  0  0  2  0  0  0  0  0  0
  -29.8940  -13.9430   20.3160 N   0  0  0  0  0  0  0  0  0  0  0  0
  -31.6430  -15.2580   20.0700 O   0  0  0  0  0  0  0  0  0  0  0  0
  -25.2210  -13.9100   20.4820 C   0  0  0  0  0  0  0  0  0  0  0  0
  -24.1590  -13.1280   20.8430 C   0  0  0  0  0  0  0  0  0  0  0  0
  -24.6310  -11.7810   20.8190 C   0  0  0  0  0  0  0  0  0  0  0  0
  -26.2690  -13.0370   20.2460 N   0  0  0  0  0  0  0  0  0  0  0  0
  -25.9270  -11.7500   20.5230 N   0  0  0  0  0  0  0  0  0  0  0  0
  -23.9060  -10.5140   21.0060 C   0  0  0  0  0  0  0  0  0  0  0  0
  -24.3220   -9.5550   21.9570 C   0  0  0  0  0  3  0  0  0  0  0  0
  -23.5940   -8.3560   22.1320 C   0  0  0  0  0  3  0  0  0  0  0  0
  -22.4370   -8.1080   21.3570 C   0  0  0  0  0  0  0  0  0  0  0  0
  -22.0400   -9.0560   20.3970 C   0  0  0  0  0  3  0  0  0  0  0  0
  -22.7680  -10.2460   20.2170 C   0  0  0  0  0  3  0  0  0  0  0  0
  -21.6840   -6.9640   21.4390 O   0  0  0  0  0  0  0  0  0  0  0  0
  -21.6050   -6.2350   22.5990 C   0  0  0  0  0  0  0  0  0  0  0  0
  -21.1350   -6.8030   23.8050 C   0  0  0  0  0  3  0  0  0  0  0  0
  -21.0040   -5.9990   24.9560 C   0  0  0  0  0  3  0  0  0  0  0  0
  -21.3320   -4.6310   24.9030 C   0  0  0  0  0  0  0  0  0  0  0  0
  -21.7960   -4.0650   23.7020 C   0  0  0  0  0  3  0  0  0  0  0  0
  -21.9270   -4.8640   22.5530 C   0  0  0  0  0  0  0  0  0  0  0  0
  -22.3530   -4.3080   21.3940 F   0  0  0  0  0  0  0  0  0  0  0  0
  -21.2000   -3.8580   26.0070 F   0  0  0  0  0  0  0  0  0  0  0  0
  -22.7560  -13.5980   21.0950 C   0  0  0  0  0  0  0  0  0  0  0  0
  -22.0200  -12.8980   21.9490 N   0  0  0  0  0  0  0  0  0  0  0  0
  -22.3230  -14.6220   20.5680 O   0  0  0  0  0  0  0  0  0  0  0  0
  -22.3890  -12.0780   22.4060 H   0  0  0  0  0  0  0  0  0  0  0  0
  -21.0730  -13.1860   22.1470 H   0  0  0  0  0  0  0  0  0  0  0  0
  -25.3820  -15.2820   20.3070 N   0  0  0  0  0  0  0  0  0  0  0  0
  -24.6160  -15.9410   20.4080 H   0  0  0  0  0  0  0  0  0  0  0  0
  -26.2400  -15.7180   19.9880 H   0  0  0  0  0  0  0  0  0  0  0  0
  -31.4330  -18.7230   20.1590 C   0  0  0  0  0  2  0  0  0  0  0  0
  -32.0040  -17.7810   17.8400 C   0  0  0  0  0  1  0  0  0  0  0  0
  -32.0990  -18.9880   18.7930 C   0  0  0  0  0  3  0  0  0  0  0  0
  -33.5670  -19.4420   18.9710 C   0  0  0  0  0  2  0  0  0  0  0  0
  -34.3240  -18.4470   19.4420 F   0  0  0  0  0  0  0  0  0  0  0  0
  1  2  1  0
  1  5  1  0
  2  4  1  0
  3  1  2  0
  6  7  1  0
  6  5  1  0
  8 19  2  0
  9  7  1  0
  9 14  1  0
 10 18  1  0
 10 20  1  0
 11 17  1  0
 11 13  1  0
 12 18  1  0
 13 14  2  0
 13 12  1  0
 15  9  2  0
 16 15  1  0
 16 11  2  0
 17 10  1  0
 18  8  1  0
 20 22  2  0
 21 20  1  0
 23 21  1  0
 24 33  2  0
 24 29  1  0
 25 21  1  0
 25 29  1  0
 26 25  1  0
 27 28  1  0
 27 26  1  0
 28 24  1  0
 29 30  2  0
 30 31  1  0
 32 31  2  0
 33 32  1  0
 34  8  1  0
 34 35  1  0
 34 44  1  0
 35 38  1  0
 36 40  1  0
 36 35  1  0
 37 36  2  0
 40 39  1  0
 42 40  1  0
 42 43  1  0
 42 41  1  0
 44 47  1  1
 44 45  1  0
 46 44  1  0
 48 86  1  0
 48  2  1  0
 48 49  1  0
 50 49  1  0
 51 56  1  0
 52 53  1  0
 52 51  1  0
 54 53  1  0
 54 61  1  0
 54 55  1  0
 56 50  1  0
 56 55  1  0
 57 50  2  0
 58 59  2  0
 59 78  1  0
 60 59  1  0
 60 63  1  0
 61 58  1  0
 61 62  1  0
 62 60  2  0
 63 64  1  0
 64 65  2  0
 66 69  1  0
 66 65  1  0
 67 66  2  0
 68 67  1  0
 68 63  2  0
 69 70  1  0
 70 71  1  0
 71 72  2  0
 73 72  1  0
 73 77  1  0
 74 73  2  0
 75 70  2  0
 75 74  1  0
 76 75  1  0
 78 79  1  0
 79 82  1  0
 79 81  1  0
 80 78  2  0
 83 84  1  0
 83 58  1  0
 85 83  1  0
 88 87  1  0
 88 89  1  0
 88 86  1  0
 89 90  1  0
M  ISO  4   6 101   7 101  49 100  50 100
M  END
>  <TORSDO>  (13) 
F 23

>  <SCORE>  (13) 
-14.405

>  <name>  (13) 
12

>  <ligand_id>  (13) 
12

>  <original_smiles>  (13) 
[H]c1c([H])c([H])c2c(c1[H])C([H])([H])C([H])([H])C([H])([H])C2([H])N([H])C(=O)C1([H])N(C(=O)C([H])(N([H])C(=O)C([H])(N([H])C([H])([H])[H])C([H])([H])[H])C(C([H])([H])[H])(C([H])([H])[H])C([H])([H])[H])C([H])([H])c2c([H])c(OC([H])([H])C([H])([H])C(=O)N([H])C([H])(C([H])([H])C(=O)N3C([H])([H])C([H])([H])C([H])([H])C([H])(n4nc(-c5c([H])c([H])c(Oc6c([H])c([H])c(F)c([H])c6F)c([H])c5[H])c(C(=O)N([H])[H])c4N([H])[H])C3([H])[H])C([H])([H])C([H])(C([H])([H])[H])C([H])([H])F)c([H])c([H])c2C1([H])[H]

>  <smiles>  (13) 
[H]c1c([H])c([H])c2c(c1[H])C([H])([H])C([H])([H])C([H])([H])C2([H])N([H])C(=O)C1([H])N(C(=O)C([H])(N([H])C(=O)C([H])(N([H])C([H])([H])[H])C([H])([H])[H])C(C([H])([H])[H])(C([H])([H])[H])C([H])([H])[H])C([H])([H])c2c([H])c(OC([H])([H])C([H])([H])C(=O)N([H])C([H])(C([H])([H])C(=O)N3C([H])([H])C([H])([H])C([H])([H])C([H])(n4nc(-c5c([H])c([H])c(Oc6c([H])c([H])c(F)c([H])c6F)c([H])c5[H])c(C(=O)N([H])[H])c4N([H])[H])C3([H])[H])C([H])([H])C([H])(C([H])([H])[H])C([H])([H])F)c([H])c([H])c2C1([H])[H]

$$$$
13:0:0
     RDKit          3D

 91 98  0  0  1  0  0  0  0  0999 V2000
  -29.8540  -21.2660   20.1840 C   0  0  0  0  0  3  0  0  0  0  0  0
  -29.5910  -19.8070   20.7690 C   0  0  0  0  0  0  0  0  0  0  0  0
  -30.1790  -18.7020   20.2080 N   0  0  0  0  0  0  0  0  0  0  0  0
  -28.9190  -19.6940   21.7950 O   0  0  0  0  0  0  0  0  0  0  0  0
  -30.6640  -18.8900   19.3400 H   0  0  0  0  0  0  0  0  0  0  0  0
  -30.5200  -17.3700   20.8390 C   0  0  0  0  0  2  0  0  0  0  0  0
  -29.8000  -16.0380   20.3380 C   0  0  0  0  0  2  0  0  0  0  0  0
  -30.6440  -14.7100   20.0910 C   0  0  0  0  0  0  0  0  0  0  0  0
  -30.3950  -12.4780   19.0290 C   0  0  0  0  0  2  0  0  0  0  0  0
  -29.4100  -12.6360   17.8480 C   0  0  0  0  0  2  0  0  0  0  0  0
  -27.9500  -12.4830   18.3220 C   0  0  0  0  0  2  0  0  0  0  0  0
  -27.6440  -13.3270   19.5900 C   0  0  0  0  0  3  0  0  0  0  0  0
  -28.7420  -13.1450   20.6590 C   0  0  0  0  0  2  0  0  0  0  0  0
  -30.0320  -13.4840   20.0470 N   0  0  0  0  0  0  0  0  0  0  0  0
  -31.8130  -14.8290   19.7150 O   0  0  0  0  0  0  0  0  0  0  0  0
  -25.2790  -13.9280   20.3920 C   0  0  0  0  0  0  0  0  0  0  0  0
  -24.2240  -13.1550   20.7950 C   0  0  0  0  0  0  0  0  0  0  0  0
  -24.6810  -11.8030   20.7440 C   0  0  0  0  0  0  0  0  0  0  0  0
  -26.3130  -13.0460   20.1200 N   0  0  0  0  0  0  0  0  0  0  0  0
  -25.9620  -11.7630   20.3930 N   0  0  0  0  0  0  0  0  0  0  0  0
  -23.9600  -10.5410   20.9560 C   0  0  0  0  0  0  0  0  0  0  0  0
  -24.4140   -9.5770   21.8830 C   0  0  0  0  0  3  0  0  0  0  0  0
  -23.6920   -8.3820   22.0840 C   0  0  0  0  0  3  0  0  0  0  0  0
  -22.5020   -8.1410   21.3580 C   0  0  0  0  0  0  0  0  0  0  0  0
  -22.0660   -9.0940   20.4210 C   0  0  0  0  0  3  0  0  0  0  0  0
  -22.7890  -10.2810   20.2180 C   0  0  0  0  0  3  0  0  0  0  0  0
  -21.7500   -6.9950   21.4670 O   0  0  0  0  0  0  0  0  0  0  0  0
  -21.7200   -6.2600   22.6240 C   0  0  0  0  0  0  0  0  0  0  0  0
  -21.3020   -6.8200   23.8520 C   0  0  0  0  0  3  0  0  0  0  0  0
  -21.2200   -6.0110   25.0030 C   0  0  0  0  0  3  0  0  0  0  0  0
  -21.5480   -4.6440   24.9280 C   0  0  0  0  0  0  0  0  0  0  0  0
  -21.9590   -4.0840   23.7060 C   0  0  0  0  0  3  0  0  0  0  0  0
  -22.0420   -4.8890   22.5570 C   0  0  0  0  0  0  0  0  0  0  0  0
  -22.4180   -4.3400   21.3770 F   0  0  0  0  0  0  0  0  0  0  0  0
  -21.4620   -3.8640   26.0320 F   0  0  0  0  0  0  0  0  0  0  0  0
  -22.8370  -13.6350   21.1150 C   0  0  0  0  0  0  0  0  0  0  0  0
  -22.1390  -12.9360   22.0030 N   0  0  0  0  0  0  0  0  0  0  0  0
  -22.3840  -14.6620   20.6140 O   0  0  0  0  0  0  0  0  0  0  0  0
  -22.5200  -12.1030   22.4270 H   0  0  0  0  0  0  0  0  0  0  0  0
  -21.2120  -13.2410   22.2620 H   0  0  0  0  0  0  0  0  0  0  0  0
  -25.4420  -15.2980   20.2130 N   0  0  0  0  0  0  0  0  0  0  0  0
  -24.6870  -15.9580   20.3630 H   0  0  0  0  0  0  0  0  0  0  0  0
  -26.2880  -15.7350   19.8700 H   0  0  0  0  0  0  0  0  0  0  0  0
  -30.2360  -21.2660   18.6780 C   0  0  0  0  0  2  0  0  0  0  0  0
  -31.6960  -21.6760   18.4310 C   0  0  0  0  0  2  0  0  0  0  0  0
  -33.4450  -22.3360   16.6940 C   0  0  0  0  0  1  0  0  0  0  0  0
  -32.0110  -21.8550   16.9400 C   0  0  0  0  0  2  0  0  0  0  0  0
  -28.7890  -22.4230   20.4830 C   0  0  0  0  0  2  0  0  0  0  0  0
  -29.2270  -23.9600   20.3410 C   0  0  0  0  0  3  0  0  0  0  0  0
  -28.0650  -25.0320   20.1770 C   0  0  0  0  0  3  0  0  0  0  0  0
  -28.3320  -26.4930   20.2220 O   0  0  0  0  0  0  0  0  0  0  0  0
  -24.6060  -31.8920   23.2530 C   0  0  0  0  0  0  0  0  0  0  0  0
  -27.2160  -27.3500   20.1760 C   0  0  0  0  0  0  0  0  0  0  0  0
  -23.4010  -30.4960   21.6140 C   0  0  0  0  0  3  0  0  0  0  0  0
  -24.8500  -28.9600   20.1780 C   0  0  0  0  0  0  0  0  0  0  0  0
  -25.9400  -30.8220   21.4230 C   0  0  0  0  0  2  0  0  0  0  0  0
  -26.0210  -29.4490   20.7690 C   0  0  0  0  0  0  0  0  0  0  0  0
  -27.2090  -28.6570   20.7570 C   0  0  0  0  0  3  0  0  0  0  0  0
  -26.0170  -26.9210   19.5600 C   0  0  0  0  0  3  0  0  0  0  0  0
  -24.8500  -27.7030   19.5630 C   0  0  0  0  0  3  0  0  0  0  0  0
  -23.6100  -29.8270   20.2320 C   0  0  0  0  0  2  0  0  0  0  0  0
  -24.6680  -31.0870   22.1530 N   0  0  0  0  0  0  0  0  0  0  0  0
  -23.5240  -32.1650   23.7920 O   0  0  0  0  0  0  0  0  0  0  0  0
  -22.7450  -29.4730   22.5710 C   0  0  0  0  0  0  0  0  0  0  0  0
  -21.4220  -29.2800   22.4370 N   0  0  0  0  0  0  0  0  0  0  0  0
  -23.4260  -28.8560   23.3950 O   0  0  0  0  0  0  0  0  0  0  0  0
  -20.9320  -29.8310   21.7470 H   0  0  0  0  0  0  0  0  0  0  0  0
  -18.0560  -28.0450   22.9110 C   0  0  0  0  0  0  0  0  0  0  0  0
  -20.6080  -28.3370   23.2060 C   0  0  0  0  0  3  0  0  0  0  0  0
  -20.7340  -26.9020   22.6410 C   0  0  0  0  0  2  0  0  0  0  0  0
  -19.6450  -26.5600   21.6190 C   0  0  0  0  0  2  0  0  0  0  0  0
  -18.2550  -26.6930   22.2470 C   0  0  0  0  0  2  0  0  0  0  0  0
  -19.1600  -28.8240   23.3470 C   0  0  0  0  0  0  0  0  0  0  0  0
  -18.9190  -30.0890   23.9270 C   0  0  0  0  0  3  0  0  0  0  0  0
  -17.6070  -30.5740   24.0780 C   0  0  0  0  0  3  0  0  0  0  0  0
  -16.5160  -29.7910   23.6600 C   0  0  0  0  0  3  0  0  0  0  0  0
  -16.7410  -28.5290   23.0800 C   0  0  0  0  0  3  0  0  0  0  0  0
  -25.8890  -32.5260   23.8730 C   0  0  0  0  0  3  0  0  0  0  0  0
  -26.4030  -31.7600   25.1530 C   0  0  1  0  0  0  0  0  0  0  0  0
  -25.3080  -31.5280   26.2210 C   0  0  0  0  0  1  0  0  0  0  0  0
  -26.9860  -30.3800   24.7700 C   0  0  0  0  0  1  0  0  0  0  0  0
  -27.5520  -32.5570   25.8140 C   0  0  0  0  0  1  0  0  0  0  0  0
  -25.5810  -33.9260   24.1960 N   0  0  0  0  0  0  0  0  0  0  0  0
  -25.9140  -34.9750   23.4330 C   0  0  0  0  0  0  0  0  0  0  0  0
  -26.5840  -34.8670   22.4020 O   0  0  0  0  0  0  0  0  0  0  0  0
  -24.9860  -34.0830   24.9960 H   0  0  0  0  0  0  0  0  0  0  0  0
  -24.1890  -36.7710   23.0710 C   0  0  0  0  0  1  0  0  0  0  0  0
  -25.4280  -36.3660   23.8850 C   0  0  0  0  0  3  0  0  0  0  0  0
  -27.5600  -37.2510   24.7200 C   0  0  0  0  0  1  0  0  0  0  0  0
  -26.4620  -37.4170   23.7720 N   0  0  0  0  0  0  0  0  0  0  0  0
  -26.0570  -38.3380   23.9140 H   0  0  0  0  0  0  0  0  0  0  0  0
  1 44  1  0
  1 48  1  0
  1  2  1  0
  2  4  2  0
  3  2  1  0
  3  6  1  0
  5  3  1  0
  7  6  1  0
  8  7  1  0
  9 14  1  0
 10 11  1  0
 10  9  1  0
 12 11  1  0
 12 19  1  0
 12 13  1  0
 14  8  1  0
 14 13  1  0
 15  8  2  0
 16 17  2  0
 17 36  1  0
 18 17  1  0
 18 21  1  0
 19 16  1  0
 19 20  1  0
 20 18  2  0
 21 22  1  0
 22 23  2  0
 24 27  1  0
 24 23  1  0
 25 24  2  0
 26 25  1  0
 26 21  2  0
 27 28  1  0
 28 29  1  0
 29 30  2  0
 31 30  1  0
 31 35  1  0
 32 31  2  0
 33 28  2  0
 33 32  1  0
 34 33  1  0
 36 37  1  0
 37 40  1  0
 37 39  1  0
 38 36  2  0
 41 42  1  0
 41 16  1  0
 43 41  1  0
 45 44  1  0
 46 47  1  0
 47 45  1  0
 49 48  1  0
 50 51  1  0
 50 49  2  0
 52 63  2  0
 53 51  1  0
 53 58  1  0
 54 62  1  0
 54 64  1  0
 55 61  1  0
 55 57  1  0
 56 62  1  0
 57 56  1  0
 58 57  2  0
 59 60  1  0
 59 53  2  0
 60 55  2  0
 61 54  1  0
 62 52  1  0
 64 66  2  0
 65 64  1  0
 67 65  1  0
 68 77  2  0
 68 73  1  0
 69 65  1  0
 69 73  1  0
 70 69  1  0
 71 72  1  0
 71 70  1  0
 72 68  1  0
 73 74  2  0
 74 75  1  0
 76 75  2  0
 77 76  1  0
 78 52  1  0
 78 83  1  0
 78 79  1  0
 79 82  1  1
 79 80  1  0
 81 79  1  0
 83 86  1  0
 84 88  1  0
 84 83  1  0
 85 84  2  0
 88 87  1  0
 90 88  1  0
 90 91  1  0
 90 89  1  0
M  ISO  4   7 100   8 100  50 101  51 101
M  END
>  <TORSDO>  (14) 
F 25

>  <SCORE>  (14) 
-11.392

>  <name>  (14) 
13

>  <ligand_id>  (14) 
13

>  <original_smiles>  (14) 
[H]c1c([H])c([H])c2c(c1[H])C([H])([H])C([H])([H])C([H])([H])C2([H])N([H])C(=O)C1([H])N(C(=O)C([H])(N([H])C(=O)C([H])(N([H])C([H])([H])[H])C([H])([H])[H])C(C([H])([H])[H])(C([H])([H])[H])C([H])([H])[H])C([H])([H])c2c([H])c(OC([H])([H])C([H])([H])C([H])([H])C([H])(C(=O)N([H])C([H])([H])C([H])([H])C(=O)N3C([H])([H])C([H])([H])C([H])([H])C([H])(n4nc(-c5c([H])c([H])c(Oc6c([H])c([H])c(F)c([H])c6F)c([H])c5[H])c(C(=O)N([H])[H])c4N([H])[H])C3([H])[H])C([H])([H])C([H])([H])C([H])([H])C([H])([H])[H])c([H])c([H])c2C1([H])[H]

>  <smiles>  (14) 
[H]c1c([H])c([H])c2c(c1[H])C([H])([H])C([H])([H])C([H])([H])C2([H])N([H])C(=O)C1([H])N(C(=O)C([H])(N([H])C(=O)C([H])(N([H])C([H])([H])[H])C([H])([H])[H])C(C([H])([H])[H])(C([H])([H])[H])C([H])([H])[H])C([H])([H])c2c([H])c(OC([H])([H])C([H])([H])C([H])([H])C([H])(C(=O)N([H])C([H])([H])C([H])([H])C(=O)N3C([H])([H])C([H])([H])C([H])([H])C([H])(n4nc(-c5c([H])c([H])c(Oc6c([H])c([H])c(F)c([H])c6F)c([H])c5[H])c(C(=O)N([H])[H])c4N([H])[H])C3([H])[H])C([H])([H])C([H])([H])C([H])([H])C([H])([H])[H])c([H])c([H])c2C1([H])[H]

$$$$
14:0:0
     RDKit          3D

 89 96  0  0  1  0  0  0  0  0999 V2000
  -29.0400  -21.2500   19.6690 C   0  0  0  0  0  3  0  0  0  0  0  0
  -29.3410  -19.7830   20.3800 N   0  0  0  0  0  4  0  0  0  0  0  0
  -29.9800  -19.9940   21.1290 H   0  0  0  0  0  0  0  0  0  0  0  0
  -28.4790  -19.5330   20.8330 H   0  0  0  0  0  0  0  0  0  0  0  0
  -29.9320  -18.3740   19.7400 C   0  0  0  0  0  2  0  0  0  0  0  0
  -30.5570  -16.9610   21.8760 C   0  0  0  0  0  1  0  0  0  0  0  0
  -29.9800  -16.7530   20.4650 C   0  0  0  0  0  3  0  0  0  0  0  0
  -30.6720  -15.2510   19.9230 C   0  0  0  0  0  0  0  0  0  0  0  0
  -30.5330  -12.8580   18.9480 C   0  0  0  0  0  2  0  0  0  0  0  0
  -29.5190  -12.7750   17.7800 C   0  0  0  0  0  2  0  0  0  0  0  0
  -28.0960  -12.5160   18.3100 C   0  0  0  0  0  2  0  0  0  0  0  0
  -27.7590  -13.4230   19.5210 C   0  0  0  0  0  3  0  0  0  0  0  0
  -28.8910  -13.4720   20.5690 C   0  0  0  0  0  2  0  0  0  0  0  0
  -30.1010  -13.9540   19.8860 N   0  0  0  0  0  0  0  0  0  0  0  0
  -31.8320  -15.2710   19.4900 O   0  0  0  0  0  0  0  0  0  0  0  0
  -25.4570  -13.9790   20.4710 C   0  0  0  0  0  0  0  0  0  0  0  0
  -24.4150  -13.1990   20.8870 C   0  0  0  0  0  0  0  0  0  0  0  0
  -24.8600  -11.8460   20.7670 C   0  0  0  0  0  0  0  0  0  0  0  0
  -26.4660  -13.1030   20.1140 N   0  0  0  0  0  0  0  0  0  0  0  0
  -26.1240  -11.8110   20.3590 N   0  0  0  0  0  0  0  0  0  0  0  0
  -24.1320  -10.5830   20.9600 C   0  0  0  0  0  0  0  0  0  0  0  0
  -24.5770   -9.6050   21.8760 C   0  0  0  0  0  3  0  0  0  0  0  0
  -23.8470   -8.4110   22.0600 C   0  0  0  0  0  3  0  0  0  0  0  0
  -22.6580   -8.1850   21.3260 C   0  0  0  0  0  0  0  0  0  0  0  0
  -22.2310   -9.1530   20.4000 C   0  0  0  0  0  3  0  0  0  0  0  0
  -22.9620  -10.3380   20.2140 C   0  0  0  0  0  3  0  0  0  0  0  0
  -21.8980   -7.0440   21.4200 O   0  0  0  0  0  0  0  0  0  0  0  0
  -21.8260   -6.3210   22.5830 C   0  0  0  0  0  0  0  0  0  0  0  0
  -21.3240   -6.8800   23.7800 C   0  0  0  0  0  3  0  0  0  0  0  0
  -21.2020   -6.0800   24.9340 C   0  0  0  0  0  3  0  0  0  0  0  0
  -21.5720   -4.7220   24.8920 C   0  0  0  0  0  0  0  0  0  0  0  0
  -22.0670   -4.1630   23.7010 C   0  0  0  0  0  3  0  0  0  0  0  0
  -22.1910   -4.9600   22.5490 C   0  0  0  0  0  0  0  0  0  0  0  0
  -22.6470   -4.4100   21.3990 F   0  0  0  0  0  0  0  0  0  0  0  0
  -21.4480   -3.9520   25.9990 F   0  0  0  0  0  0  0  0  0  0  0  0
  -23.0480  -13.6780   21.2790 C   0  0  0  0  0  0  0  0  0  0  0  0
  -22.3750  -12.9540   22.1660 N   0  0  0  0  0  0  0  0  0  0  0  0
  -22.5880  -14.7290   20.8330 O   0  0  0  0  0  0  0  0  0  0  0  0
  -22.7620  -12.1030   22.5470 H   0  0  0  0  0  0  0  0  0  0  0  0
  -21.4600  -13.2560   22.4690 H   0  0  0  0  0  0  0  0  0  0  0  0
  -25.6240  -15.3530   20.3380 N   0  0  0  0  0  0  0  0  0  0  0  0
  -24.8770  -16.0100   20.5290 H   0  0  0  0  0  0  0  0  0  0  0  0
  -26.4500  -15.7940   19.9530 H   0  0  0  0  0  0  0  0  0  0  0  0
  -28.4100  -20.5980   17.2190 C   0  0  0  0  0  1  0  0  0  0  0  0
  -26.6990  -20.3150   19.0850 C   0  0  0  0  0  1  0  0  0  0  0  0
  -27.9270  -21.1010   18.5920 C   0  0  0  0  0  3  0  0  0  0  0  0
  -28.7320  -22.8170   20.4620 C   0  0  0  0  0  2  0  0  0  0  0  0
  -28.1320  -24.3730   19.8320 C   0  0  0  0  0  2  0  0  0  0  0  0
  -28.2040  -25.9280   20.3150 O   0  0  0  0  0  0  0  0  0  0  0  0
  -24.5630  -31.8480   23.1220 C   0  0  0  0  0  0  0  0  0  0  0  0
  -27.1810  -26.9900   20.1850 C   0  0  0  0  0  0  0  0  0  0  0  0
  -23.3940  -30.4340   21.4780 C   0  0  0  0  0  3  0  0  0  0  0  0
  -24.8680  -28.8270   20.0900 C   0  0  0  0  0  0  0  0  0  0  0  0
  -25.9590  -30.6610   21.3670 C   0  0  0  0  0  2  0  0  0  0  0  0
  -26.0420  -29.2510   20.7260 C   0  0  0  0  0  0  0  0  0  0  0  0
  -27.1900  -28.3480   20.7570 C   0  0  0  0  0  3  0  0  0  0  0  0
  -25.9840  -26.7110   19.4870 C   0  0  0  0  0  3  0  0  0  0  0  0
  -24.8610  -27.5760   19.4510 C   0  0  0  0  0  3  0  0  0  0  0  0
  -23.6440  -29.7380   20.1120 C   0  0  0  0  0  2  0  0  0  0  0  0
  -24.6590  -31.0080   22.0420 N   0  0  0  0  0  0  0  0  0  0  0  0
  -23.4660  -32.1410   23.6260 O   0  0  0  0  0  0  0  0  0  0  0  0
  -22.6900  -29.4450   22.4430 C   0  0  0  0  0  0  0  0  0  0  0  0
  -21.3620  -29.2820   22.3020 N   0  0  0  0  0  0  0  0  0  0  0  0
  -23.3440  -28.8260   23.2850 O   0  0  0  0  0  0  0  0  0  0  0  0
  -20.8890  -29.8330   21.6010 H   0  0  0  0  0  0  0  0  0  0  0  0
  -17.9680  -28.0940   22.7860 C   0  0  0  0  0  0  0  0  0  0  0  0
  -20.5270  -28.3520   23.0710 C   0  0  0  0  0  3  0  0  0  0  0  0
  -20.6260  -26.9170   22.5050 C   0  0  0  0  0  2  0  0  0  0  0  0
  -19.5320  -26.5930   21.4820 C   0  0  0  0  0  2  0  0  0  0  0  0
  -18.1460  -26.7440   22.1150 C   0  0  0  0  0  2  0  0  0  0  0  0
  -19.0860  -28.8570   23.2200 C   0  0  0  0  0  0  0  0  0  0  0  0
  -18.8640  -30.1180   23.8130 C   0  0  0  0  0  3  0  0  0  0  0  0
  -17.5590  -30.6220   23.9710 C   0  0  0  0  0  3  0  0  0  0  0  0
  -16.4560  -29.8580   23.5500 C   0  0  0  0  0  3  0  0  0  0  0  0
  -16.6610  -28.5950   22.9650 C   0  0  0  0  0  3  0  0  0  0  0  0
  -25.8240  -32.4960   23.7670 C   0  0  0  0  0  3  0  0  0  0  0  0
  -25.4910  -33.8900   24.1130 N   0  0  0  0  0  0  0  0  0  0  0  0
  -25.8120  -34.9610   23.3760 C   0  0  0  0  0  0  0  0  0  0  0  0
  -26.4840  -34.8820   22.3440 O   0  0  0  0  0  0  0  0  0  0  0  0
  -24.8930  -34.0240   24.9150 H   0  0  0  0  0  0  0  0  0  0  0  0
  -24.0700  -36.7500   23.0520 C   0  0  0  0  0  1  0  0  0  0  0  0
  -25.3120  -36.3380   23.8580 C   0  0  0  0  0  3  0  0  0  0  0  0
  -27.4270  -37.2400   24.7220 C   0  0  0  0  0  1  0  0  0  0  0  0
  -26.3350  -37.4040   23.7650 N   0  0  0  0  0  0  0  0  0  0  0  0
  -25.9200  -38.3190   23.9130 H   0  0  0  0  0  0  0  0  0  0  0  0
  -26.3310  -31.7250   25.0500 C   0  0  1  0  0  0  0  0  0  0  0  0
  -25.2240  -31.4650   26.0980 C   0  0  0  0  0  1  0  0  0  0  0  0
  -26.9400  -30.3580   24.6670 C   0  0  0  0  0  1  0  0  0  0  0  0
  -27.4600  -32.5310   25.7340 C   0  0  0  0  0  1  0  0  0  0  0  0
  1  2  1  0
  1 47  1  0
  2  4  1  0
  2  3  1  0
  5  2  1  0
  5  7  1  0
  7  6  1  0
  8  7  1  0
  9 14  1  0
 10 11  1  0
 10  9  1  0
 12 11  1  0
 12 19  1  0
 12 13  1  0
 14  8  1  0
 14 13  1  0
 15  8  2  0
 16 17  2  0
 17 36  1  0
 18 17  1  0
 18 21  1  0
 19 20  1  0
 19 16  1  0
 20 18  2  0
 21 22  1  0
 22 23  2  0
 24 27  1  0
 24 23  1  0
 25 24  2  0
 26 25  1  0
 26 21  2  0
 27 28  1  0
 28 29  1  0
 29 30  2  0
 31 30  1  0
 31 35  1  0
 32 31  2  0
 33 28  2  0
 33 32  1  0
 34 33  1  0
 36 37  1  0
 37 40  1  0
 37 39  1  0
 38 36  2  0
 41 16  1  0
 41 42  1  0
 43 41  1  0
 44 46  1  0
 46 45  1  0
 46  1  1  0
 48 49  1  0
 48 47  1  0
 50 61  2  0
 51 49  1  0
 51 56  1  0
 52 60  1  0
 52 62  1  0
 53 59  1  0
 53 55  1  0
 54 60  1  0
 55 56  2  0
 55 54  1  0
 57 51  2  0
 58 57  1  0
 58 53  2  0
 59 52  1  0
 60 50  1  0
 62 64  2  0
 63 62  1  0
 65 63  1  0
 66 75  2  0
 66 71  1  0
 67 63  1  0
 67 71  1  0
 68 67  1  0
 69 70  1  0
 69 68  1  0
 70 66  1  0
 71 72  2  0
 72 73  1  0
 74 73  2  0
 75 74  1  0
 76 50  1  0
 76 77  1  0
 76 86  1  0
 77 80  1  0
 78 82  1  0
 78 77  1  0
 79 78  2  0
 82 81  1  0
 84 82  1  0
 84 85  1  0
 84 83  1  0
 86 89  1  1
 86 87  1  0
 88 86  1  0
M  ISO  4   7 100   8 100  48 101  49 101
M  END
>  <TORSDO>  (15) 
F 22

>  <SCORE>  (15) 
-14.580

>  <name>  (15) 
14

>  <ligand_id>  (15) 
14

>  <original_smiles>  (15) 
[H]c1c([H])c([H])c2c(c1[H])C([H])([H])C([H])([H])C([H])([H])C2([H])N([H])C(=O)C1([H])N(C(=O)C([H])(N([H])C(=O)C([H])(N([H])C([H])([H])[H])C([H])([H])[H])C(C([H])([H])[H])(C([H])([H])[H])C([H])([H])[H])C([H])([H])c2c([H])c(OC([H])([H])C([H])([H])C([H])(C([H])(C([H])([H])[H])C([H])([H])[H])[N+]([H])([H])C([H])([H])C([H])(C(=O)N3C([H])([H])C([H])([H])C([H])([H])C([H])(n4nc(-c5c([H])c([H])c(Oc6c([H])c([H])c(F)c([H])c6F)c([H])c5[H])c(C(=O)N([H])[H])c4N([H])[H])C3([H])[H])C([H])([H])[H])c([H])c([H])c2C1([H])[H]

>  <smiles>  (15) 
[H]c1c([H])c([H])c2c(c1[H])C([H])([H])C([H])([H])C([H])([H])C2([H])N([H])C(=O)C1([H])N(C(=O)C([H])(N([H])C(=O)C([H])(N([H])C([H])([H])[H])C([H])([H])[H])C(C([H])([H])[H])(C([H])([H])[H])C([H])([H])[H])C([H])([H])c2c([H])c(OC([H])([H])C([H])([H])C([H])(C([H])(C([H])([H])[H])C([H])([H])[H])[N+]([H])([H])C([H])([H])C([H])(C(=O)N3C([H])([H])C([H])([H])C([H])([H])C([H])(n4nc(-c5c([H])c([H])c(Oc6c([H])c([H])c(F)c([H])c6F)c([H])c5[H])c(C(=O)N([H])[H])c4N([H])[H])C3([H])[H])C([H])([H])[H])c([H])c([H])c2C1([H])[H]

$$$$
15:0:0
     RDKit          3D

 89 96  0  0  1  0  0  0  0  0999 V2000
  -28.9880  -21.2200   20.6690 C   0  0  0  0  0  3  0  0  0  0  0  0
  -29.1400  -22.6130   19.9050 C   0  0  0  0  0  3  0  0  0  0  0  0
  -28.5190  -23.9450   20.5350 C   0  0  0  0  0  3  0  0  0  0  0  0
  -28.5440  -25.2570   19.6320 C   0  0  0  0  0  3  0  0  0  0  0  0
  -28.3950  -26.5900   20.2510 O   0  0  0  0  0  0  0  0  0  0  0  0
  -24.5860  -31.9040   23.2430 C   0  0  0  0  0  0  0  0  0  0  0  0
  -27.2280  -27.3640   20.1890 C   0  0  0  0  0  0  0  0  0  0  0  0
  -23.3860  -30.5030   21.6000 C   0  0  0  0  0  3  0  0  0  0  0  0
  -24.8440  -28.9480   20.1840 C   0  0  0  0  0  0  0  0  0  0  0  0
  -25.9230  -30.8300   21.4220 C   0  0  0  0  0  2  0  0  0  0  0  0
  -26.0080  -29.4510   20.7760 C   0  0  0  0  0  0  0  0  0  0  0  0
  -27.1980  -28.6680   20.7740 C   0  0  0  0  0  3  0  0  0  0  0  0
  -26.0340  -26.8960   19.5950 C   0  0  0  0  0  3  0  0  0  0  0  0
  -24.8570  -27.6740   19.5920 C   0  0  0  0  0  3  0  0  0  0  0  0
  -23.6060  -29.8200   20.2240 C   0  0  0  0  0  2  0  0  0  0  0  0
  -24.6500  -31.0980   22.1450 N   0  0  0  0  0  0  0  0  0  0  0  0
  -23.5000  -32.1800   23.7750 O   0  0  0  0  0  0  0  0  0  0  0  0
  -22.7250  -29.4850   22.5580 C   0  0  0  0  0  0  0  0  0  0  0  0
  -21.4000  -29.3040   22.4270 N   0  0  0  0  0  0  0  0  0  0  0  0
  -23.4030  -28.8630   23.3810 O   0  0  0  0  0  0  0  0  0  0  0  0
  -20.9100  -29.8600   21.7400 H   0  0  0  0  0  0  0  0  0  0  0  0
  -18.0260  -28.0990   22.9190 C   0  0  0  0  0  0  0  0  0  0  0  0
  -20.5840  -28.3660   23.1990 C   0  0  0  0  0  3  0  0  0  0  0  0
  -20.6910  -26.9340   22.6280 C   0  0  0  0  0  2  0  0  0  0  0  0
  -19.5950  -26.6040   21.6090 C   0  0  0  0  0  2  0  0  0  0  0  0
  -18.2090  -26.7480   22.2460 C   0  0  0  0  0  2  0  0  0  0  0  0
  -19.1420  -28.8630   23.3520 C   0  0  0  0  0  0  0  0  0  0  0  0
  -18.9180  -30.1260   23.9420 C   0  0  0  0  0  3  0  0  0  0  0  0
  -17.6120  -30.6260   24.1020 C   0  0  0  0  0  3  0  0  0  0  0  0
  -16.5100  -29.8590   23.6810 C   0  0  0  0  0  3  0  0  0  0  0  0
  -16.7180  -28.5980   23.0960 C   0  0  0  0  0  3  0  0  0  0  0  0
  -25.8660  -32.5390   23.8690 C   0  0  0  0  0  3  0  0  0  0  0  0
  -25.5560  -33.9410   24.1870 N   0  0  0  0  0  0  0  0  0  0  0  0
  -25.9000  -34.9890   23.4250 C   0  0  0  0  0  0  0  0  0  0  0  0
  -26.5790  -34.8780   22.4020 O   0  0  0  0  0  0  0  0  0  0  0  0
  -24.9460  -34.1010   24.9740 H   0  0  0  0  0  0  0  0  0  0  0  0
  -24.1760  -36.7810   23.0490 C   0  0  0  0  0  1  0  0  0  0  0  0
  -25.4110  -36.3800   23.8720 C   0  0  0  0  0  3  0  0  0  0  0  0
  -27.5410  -37.2590   24.7130 C   0  0  0  0  0  1  0  0  0  0  0  0
  -26.4460  -37.4320   23.7630 N   0  0  0  0  0  0  0  0  0  0  0  0
  -26.0410  -38.3520   23.9120 H   0  0  0  0  0  0  0  0  0  0  0  0
  -26.3730  -31.7790   25.1560 C   0  0  1  0  0  0  0  0  0  0  0  0
  -25.2690  -31.5520   26.2170 C   0  0  0  0  0  1  0  0  0  0  0  0
  -26.9590  -30.3980   24.7810 C   0  0  0  0  0  1  0  0  0  0  0  0
  -27.5200  -32.5770   25.8170 C   0  0  0  0  0  1  0  0  0  0  0  0
  -29.7510  -19.9410   20.0620 C   0  0  0  0  0  2  0  0  0  0  0  0
  -29.1880  -18.5360   20.3150 N   0  0  1  0  0  4  0  0  0  0  0  0
  -28.7520  -18.5940   21.2250 H   0  0  0  0  0  0  0  0  0  0  0  0
  -28.6320  -17.7090   17.9560 C   0  0  0  0  0  1  0  0  0  0  0  0
  -26.9700  -19.1900   19.1620 C   0  0  0  0  0  1  0  0  0  0  0  0
  -28.0990  -18.1490   19.3400 C   0  0  0  0  0  3  0  0  0  0  0  0
  -30.2550  -17.4380   20.4690 C   0  0  0  0  0  2  0  0  0  0  0  0
  -29.8060  -15.9750   20.9540 C   0  0  0  0  0  2  0  0  0  0  0  0
  -30.6220  -14.7010   20.4780 C   0  0  0  0  0  0  0  0  0  0  0  0
  -30.4290  -12.4760   19.3730 C   0  0  0  0  0  2  0  0  0  0  0  0
  -29.5020  -12.6350   18.1470 C   0  0  0  0  0  2  0  0  0  0  0  0
  -28.0210  -12.4720   18.5460 C   0  0  0  0  0  2  0  0  0  0  0  0
  -27.6470  -13.3120   19.7940 C   0  0  0  0  0  3  0  0  0  0  0  0
  -28.6940  -13.1420   20.9200 C   0  0  0  0  0  2  0  0  0  0  0  0
  -30.0140  -13.4790   20.3720 N   0  0  0  0  0  0  0  0  0  0  0  0
  -31.7830  -14.8550   20.0840 O   0  0  0  0  0  0  0  0  0  0  0  0
  -25.2420  -13.9110   20.4670 C   0  0  0  0  0  0  0  0  0  0  0  0
  -24.1740  -13.1390   20.8260 C   0  0  0  0  0  0  0  0  0  0  0  0
  -24.6410  -11.7890   20.8230 C   0  0  0  0  0  0  0  0  0  0  0  0
  -26.2940  -13.0330   20.2610 N   0  0  0  0  0  0  0  0  0  0  0  0
  -25.9370  -11.7520   20.5370 N   0  0  0  0  0  0  0  0  0  0  0  0
  -23.9160  -10.5260   21.0130 C   0  0  0  0  0  0  0  0  0  0  0  0
  -24.3340   -9.5700   21.9650 C   0  0  0  0  0  3  0  0  0  0  0  0
  -23.6080   -8.3720   22.1430 C   0  0  0  0  0  3  0  0  0  0  0  0
  -22.4480   -8.1240   21.3690 C   0  0  0  0  0  0  0  0  0  0  0  0
  -22.0500   -9.0690   20.4070 C   0  0  0  0  0  3  0  0  0  0  0  0
  -22.7770  -10.2570   20.2270 C   0  0  0  0  0  3  0  0  0  0  0  0
  -21.6940   -6.9790   21.4590 O   0  0  0  0  0  0  0  0  0  0  0  0
  -21.6330   -6.2460   22.6170 C   0  0  0  0  0  0  0  0  0  0  0  0
  -21.1940   -6.8110   23.8340 C   0  0  0  0  0  3  0  0  0  0  0  0
  -21.0780   -6.0040   24.9840 C   0  0  0  0  0  3  0  0  0  0  0  0
  -21.3950   -4.6340   24.9160 C   0  0  0  0  0  0  0  0  0  0  0  0
  -21.8280   -4.0680   23.7040 C   0  0  0  0  0  3  0  0  0  0  0  0
  -21.9430   -4.8720   22.5560 C   0  0  0  0  0  0  0  0  0  0  0  0
  -22.3410   -4.3170   21.3860 F   0  0  0  0  0  0  0  0  0  0  0  0
  -21.2730   -3.8580   26.0170 F   0  0  0  0  0  0  0  0  0  0  0  0
  -22.7660  -13.6110   21.0600 C   0  0  0  0  0  0  0  0  0  0  0  0
  -22.0240  -12.9210   21.9170 N   0  0  0  0  0  0  0  0  0  0  0  0
  -22.3360  -14.6280   20.5160 O   0  0  0  0  0  0  0  0  0  0  0  0
  -22.3830  -12.0930   22.3740 H   0  0  0  0  0  0  0  0  0  0  0  0
  -21.0810  -13.2190   22.1230 H   0  0  0  0  0  0  0  0  0  0  0  0
  -25.4030  -15.2820   20.2740 N   0  0  0  0  0  0  0  0  0  0  0  0
  -24.6210  -15.9250   20.3290 H   0  0  0  0  0  0  0  0  0  0  0  0
  -26.2390  -15.7060   19.9060 H   0  0  0  0  0  0  0  0  0  0  0  0
  2  3  1  0
  2  1  2  0
  4  5  1  0
  4  3  2  0
  6 17  2  0
  7  5  1  0
  7 12  1  0
  8 16  1  0
  8 18  1  0
  9 15  1  0
  9 11  1  0
 10 16  1  0
 11 10  1  0
 12 11  2  0
 13  7  2  0
 14 13  1  0
 14  9  2  0
 15  8  1  0
 16  6  1  0
 18 20  2  0
 19 18  1  0
 21 19  1  0
 22 31  2  0
 22 27  1  0
 23 19  1  0
 23 27  1  0
 24 23  1  0
 25 26  1  0
 25 24  1  0
 26 22  1  0
 27 28  2  0
 28 29  1  0
 30 29  2  0
 31 30  1  0
 32  6  1  0
 32 33  1  0
 32 42  1  0
 33 36  1  0
 34 38  1  0
 34 33  1  0
 35 34  2  0
 38 37  1  0
 40 38  1  0
 40 41  1  0
 40 39  1  0
 42 45  1  1
 42 43  1  0
 44 42  1  0
 46 47  1  0
 46  1  1  0
 47 52  1  0
 47 48  1  1
 49 51  1  0
 50 51  1  0
 51 47  1  0
 52 53  1  0
 54 53  1  0
 55 60  1  0
 56 57  1  0
 56 55  1  0
 58 57  1  0
 58 65  1  0
 58 59  1  0
 60 54  1  0
 60 59  1  0
 61 54  2  0
 62 63  2  0
 63 82  1  0
 64 63  1  0
 64 67  1  0
 65 62  1  0
 65 66  1  0
 66 64  2  0
 67 68  1  0
 68 69  2  0
 70 73  1  0
 70 69  1  0
 71 70  2  0
 72 71  1  0
 72 67  2  0
 73 74  1  0
 74 75  1  0
 75 76  2  0
 77 76  1  0
 77 81  1  0
 78 77  2  0
 79 74  2  0
 79 78  1  0
 80 79  1  0
 82 83  1  0
 83 86  1  0
 83 85  1  0
 84 82  2  0
 87 88  1  0
 87 62  1  0
 89 87  1  0
M  ISO  4   4 101   5 101  53 100  54 100
M  END
>  <TORSDO>  (16) 
F 24

>  <SCORE>  (16) 
-12.398

>  <name>  (16) 
15

>  <ligand_id>  (16) 
15

>  <original_smiles>  (16) 
[H]c1c([H])c([H])c2c(c1[H])C([H])([H])C([H])([H])C([H])([H])C2([H])N([H])C(=O)C1([H])N(C(=O)C([H])(N([H])C(=O)C([H])(N([H])C([H])([H])[H])C([H])([H])[H])C(C([H])([H])[H])(C([H])([H])[H])C([H])([H])[H])C([H])([H])c2c([H])c(OC([H])([H])C([H])([H])C([H])([H])C([H])([H])C([H])([H])[N+]([H])(C([H])([H])C([H])([H])C(=O)N3C([H])([H])C([H])([H])C([H])([H])C([H])(n4nc(-c5c([H])c([H])c(Oc6c([H])c([H])c(F)c([H])c6F)c([H])c5[H])c(C(=O)N([H])[H])c4N([H])[H])C3([H])[H])C([H])(C([H])([H])[H])C([H])([H])[H])c([H])c([H])c2C1([H])[H]

>  <smiles>  (16) 
[H]c1c([H])c([H])c2c(c1[H])C([H])([H])C([H])([H])C([H])([H])C2([H])N([H])C(=O)C1([H])N(C(=O)C([H])(N([H])C(=O)C([H])(N([H])C([H])([H])[H])C([H])([H])[H])C(C([H])([H])[H])(C([H])([H])[H])C([H])([H])[H])C([H])([H])c2c([H])c(OC([H])([H])C([H])([H])C([H])([H])C([H])([H])C([H])([H])[N+]([H])(C([H])([H])C([H])([H])C(=O)N3C([H])([H])C([H])([H])C([H])([H])C([H])(n4nc(-c5c([H])c([H])c(Oc6c([H])c([H])c(F)c([H])c6F)c([H])c5[H])c(C(=O)N([H])[H])c4N([H])[H])C3([H])[H])C([H])(C([H])([H])[H])C([H])([H])[H])c([H])c([H])c2C1([H])[H]

$$$$
16:0:0
     RDKit          3D

 86 93  0  0  1  0  0  0  0  0999 V2000
  -28.8720  -22.7540   20.5600 C   0  0  0  0  0  3  0  0  0  0  0  0
  -28.6280  -21.0310   20.1300 C   0  0  0  0  0  2  0  0  0  0  0  0
  -29.5720  -18.2540   20.0740 C   0  0  0  0  0  0  0  0  0  0  0  0
  -29.3150  -19.6000   20.6340 N   0  0  0  0  0  0  0  0  0  0  0  0
  -29.5290  -18.1760   18.8460 O   0  0  0  0  0  0  0  0  0  0  0  0
  -29.4480  -19.5980   21.6370 H   0  0  0  0  0  0  0  0  0  0  0  0
  -30.4890  -17.0150   22.2510 C   0  0  0  0  0  1  0  0  0  0  0  0
  -29.8090  -16.7300   20.8920 C   0  0  0  0  0  3  0  0  0  0  0  0
  -30.4900  -15.2270   20.3020 C   0  0  0  0  0  0  0  0  0  0  0  0
  -30.4270  -12.8000   19.3700 C   0  0  0  0  0  2  0  0  0  0  0  0
  -29.4940  -12.6510   18.1400 C   0  0  0  0  0  2  0  0  0  0  0  0
  -28.0390  -12.4170   18.5810 C   0  0  0  0  0  2  0  0  0  0  0  0
  -27.6220  -13.3620   19.7370 C   0  0  0  0  0  3  0  0  0  0  0  0
  -28.6810  -13.4390   20.8590 C   0  0  0  0  0  2  0  0  0  0  0  0
  -29.9230  -13.9230   20.2450 N   0  0  0  0  0  0  0  0  0  0  0  0
  -31.6710  -15.2260   19.9150 O   0  0  0  0  0  0  0  0  0  0  0  0
  -25.2540  -13.9420   20.4910 C   0  0  0  0  0  0  0  0  0  0  0  0
  -24.1870  -13.1710   20.8640 C   0  0  0  0  0  0  0  0  0  0  0  0
  -24.6400  -11.8170   20.8290 C   0  0  0  0  0  0  0  0  0  0  0  0
  -26.2890  -13.0560   20.2450 N   0  0  0  0  0  0  0  0  0  0  0  0
  -25.9310  -11.7720   20.5130 N   0  0  0  0  0  0  0  0  0  0  0  0
  -23.9010  -10.5600   21.0200 C   0  0  0  0  0  0  0  0  0  0  0  0
  -24.3290   -9.5820   21.9460 C   0  0  0  0  0  3  0  0  0  0  0  0
  -23.5880   -8.3930   22.1250 C   0  0  0  0  0  3  0  0  0  0  0  0
  -22.4030   -8.1750   21.3810 C   0  0  0  0  0  0  0  0  0  0  0  0
  -21.9920   -9.1430   20.4500 C   0  0  0  0  0  3  0  0  0  0  0  0
  -22.7330  -10.3230   20.2680 C   0  0  0  0  0  3  0  0  0  0  0  0
  -21.6320   -7.0400   21.4730 O   0  0  0  0  0  0  0  0  0  0  0  0
  -21.5910   -6.2910   22.6220 C   0  0  0  0  0  0  0  0  0  0  0  0
  -21.2110   -6.8460   23.8630 C   0  0  0  0  0  3  0  0  0  0  0  0
  -21.1210   -6.0250   25.0040 C   0  0  0  0  0  3  0  0  0  0  0  0
  -21.3980   -4.6480   24.9040 C   0  0  0  0  0  0  0  0  0  0  0  0
  -21.7730   -4.0920   23.6680 C   0  0  0  0  0  3  0  0  0  0  0  0
  -21.8680   -4.9110   22.5300 C   0  0  0  0  0  0  0  0  0  0  0  0
  -22.2100   -4.3680   21.3370 F   0  0  0  0  0  0  0  0  0  0  0  0
  -21.3000   -3.8560   25.9980 F   0  0  0  0  0  0  0  0  0  0  0  0
  -22.7950  -13.6620   21.1410 C   0  0  0  0  0  0  0  0  0  0  0  0
  -22.0640  -12.9750   22.0150 N   0  0  0  0  0  0  0  0  0  0  0  0
  -22.3640  -14.6840   20.6140 O   0  0  0  0  0  0  0  0  0  0  0  0
  -22.4180  -12.1430   22.4620 H   0  0  0  0  0  0  0  0  0  0  0  0
  -21.1340  -13.2950   22.2450 H   0  0  0  0  0  0  0  0  0  0  0  0
  -25.4390  -15.3090   20.3130 N   0  0  0  0  0  0  0  0  0  0  0  0
  -24.6900  -15.9840   20.4200 H   0  0  0  0  0  0  0  0  0  0  0  0
  -26.3000  -15.7250   19.9820 H   0  0  0  0  0  0  0  0  0  0  0  0
  -27.9670  -24.2450   20.1340 C   0  0  0  0  0  3  0  0  0  0  0  0
  -28.1940  -25.8600   20.3350 O   0  0  0  0  0  0  0  0  0  0  0  0
  -24.6200  -31.8370   23.1740 C   0  0  0  0  0  0  0  0  0  0  0  0
  -27.1810  -26.9450   20.2280 C   0  0  0  0  0  0  0  0  0  0  0  0
  -23.4270  -30.4250   21.5460 C   0  0  0  0  0  3  0  0  0  0  0  0
  -24.8760  -28.8070   20.1370 C   0  0  0  0  0  0  0  0  0  0  0  0
  -25.9870  -30.6440   21.3940 C   0  0  0  0  0  2  0  0  0  0  0  0
  -26.0590  -29.2230   20.7630 C   0  0  0  0  0  0  0  0  0  0  0  0
  -27.2050  -28.3120   20.7860 C   0  0  0  0  0  3  0  0  0  0  0  0
  -25.9760  -26.6780   19.5400 C   0  0  0  0  0  3  0  0  0  0  0  0
  -24.8600  -27.5550   19.4970 C   0  0  0  0  0  3  0  0  0  0  0  0
  -23.6550  -29.7250   20.1750 C   0  0  0  0  0  2  0  0  0  0  0  0
  -24.7000  -30.9960   22.0930 N   0  0  0  0  0  0  0  0  0  0  0  0
  -23.5330  -32.1290   23.6960 O   0  0  0  0  0  0  0  0  0  0  0  0
  -22.7350  -29.4360   22.5230 C   0  0  0  0  0  0  0  0  0  0  0  0
  -21.4040  -29.2730   22.4070 N   0  0  0  0  0  0  0  0  0  0  0  0
  -23.4010  -28.8130   23.3550 O   0  0  0  0  0  0  0  0  0  0  0  0
  -20.9160  -29.8340   21.7220 H   0  0  0  0  0  0  0  0  0  0  0  0
  -18.0220  -28.0730   22.9410 C   0  0  0  0  0  0  0  0  0  0  0  0
  -20.5840  -28.3420   23.1900 C   0  0  0  0  0  3  0  0  0  0  0  0
  -20.6800  -26.9060   22.6260 C   0  0  0  0  0  2  0  0  0  0  0  0
  -19.5720  -26.5750   21.6190 C   0  0  0  0  0  2  0  0  0  0  0  0
  -18.1940  -26.7210   22.2710 C   0  0  0  0  0  2  0  0  0  0  0  0
  -19.1440  -28.8420   23.3580 C   0  0  0  0  0  0  0  0  0  0  0  0
  -18.9220  -30.1050   23.9490 C   0  0  0  0  0  3  0  0  0  0  0  0
  -17.6160  -30.6000   24.1260 C   0  0  0  0  0  3  0  0  0  0  0  0
  -16.5120  -29.8310   23.7210 C   0  0  0  0  0  3  0  0  0  0  0  0
  -16.7160  -28.5700   23.1340 C   0  0  0  0  0  3  0  0  0  0  0  0
  -25.8940  -32.4850   23.8010 C   0  0  0  0  0  3  0  0  0  0  0  0
  -26.4130  -31.7170   25.0790 C   0  0  1  0  0  0  0  0  0  0  0  0
  -25.3210  -31.4770   26.1500 C   0  0  0  0  0  1  0  0  0  0  0  0
  -27.0000  -30.3400   24.6930 C   0  0  0  0  0  1  0  0  0  0  0  0
  -27.5610  -32.5150   25.7390 C   0  0  0  0  0  1  0  0  0  0  0  0
  -25.5680  -33.8790   24.1510 N   0  0  0  0  0  0  0  0  0  0  0  0
  -25.8760  -34.9490   23.4060 C   0  0  0  0  0  0  0  0  0  0  0  0
  -26.5300  -34.8650   22.3640 O   0  0  0  0  0  0  0  0  0  0  0  0
  -24.9950  -34.0150   24.9700 H   0  0  0  0  0  0  0  0  0  0  0  0
  -24.1260  -36.7330   23.1130 C   0  0  0  0  0  1  0  0  0  0  0  0
  -25.3870  -36.3290   23.8930 C   0  0  0  0  0  3  0  0  0  0  0  0
  -27.5310  -37.2260   24.6880 C   0  0  0  0  0  1  0  0  0  0  0  0
  -26.4060  -37.3950   23.7720 N   0  0  0  0  0  0  0  0  0  0  0  0
  -25.9960  -38.3110   23.9360 H   0  0  0  0  0  0  0  0  0  0  0  0
  2  1  1  0
  2  4  1  0
  3  4  1  0
  3  8  1  0
  4  6  1  0
  5  3  2  0
  8  7  1  0
  9  8  1  0
 10 15  1  0
 11 12  1  0
 11 10  1  0
 13 12  1  0
 13 20  1  0
 13 14  1  0
 15  9  1  0
 15 14  1  0
 16  9  2  0
 17 18  2  0
 18 37  1  0
 19 18  1  0
 19 22  1  0
 20 17  1  0
 20 21  1  0
 21 19  2  0
 22 23  1  0
 23 24  2  0
 25 28  1  0
 25 24  1  0
 26 25  2  0
 27 26  1  0
 27 22  2  0
 28 29  1  0
 29 30  1  0
 30 31  2  0
 32 31  1  0
 32 36  1  0
 33 32  2  0
 34 29  2  0
 34 33  1  0
 35 34  1  0
 37 38  1  0
 38 41  1  0
 38 40  1  0
 39 37  2  0
 42 43  1  0
 42 17  1  0
 44 42  1  0
 45 46  1  0
 45  1  2  0
 47 58  2  0
 48 46  1  0
 48 53  1  0
 49 57  1  0
 49 59  1  0
 50 56  1  0
 50 52  1  0
 51 57  1  0
 52 53  2  0
 52 51  1  0
 54 48  2  0
 55 54  1  0
 55 50  2  0
 56 49  1  0
 57 47  1  0
 59 61  2  0
 60 59  1  0
 62 60  1  0
 63 72  2  0
 63 68  1  0
 64 60  1  0
 64 68  1  0
 65 64  1  0
 66 67  1  0
 66 65  1  0
 67 63  1  0
 68 69  2  0
 69 70  1  0
 71 70  2  0
 72 71  1  0
 73 47  1  0
 73 78  1  0
 73 74  1  0
 74 77  1  1
 74 75  1  0
 76 74  1  0
 78 81  1  0
 79 83  1  0
 79 78  1  0
 80 79  2  0
 83 82  1  0
 85 83  1  0
 85 86  1  0
 85 84  1  0
M  ISO  4   8 100   9 100  45 101  46 101
M  END
>  <TORSDO>  (17) 
F 20

>  <SCORE>  (17) 
-15.919

>  <name>  (17) 
16

>  <ligand_id>  (17) 
16

>  <original_smiles>  (17) 
[H]c1c([H])c([H])c2c(c1[H])C([H])([H])C([H])([H])C([H])([H])C2([H])N([H])C(=O)C1([H])N(C(=O)C([H])(N([H])C(=O)C([H])(N([H])C([H])([H])[H])C([H])([H])[H])C(C([H])([H])[H])(C([H])([H])[H])C([H])([H])[H])C([H])([H])c2c([H])c(OC([H])([H])C([H])([H])C([H])([H])N([H])C(=O)C([H])(C(=O)N3C([H])([H])C([H])([H])C([H])([H])C([H])(n4nc(-c5c([H])c([H])c(Oc6c([H])c([H])c(F)c([H])c6F)c([H])c5[H])c(C(=O)N([H])[H])c4N([H])[H])C3([H])[H])C([H])([H])[H])c([H])c([H])c2C1([H])[H]

>  <smiles>  (17) 
[H]c1c([H])c([H])c2c(c1[H])C([H])([H])C([H])([H])C([H])([H])C2([H])N([H])C(=O)C1([H])N(C(=O)C([H])(N([H])C(=O)C([H])(N([H])C([H])([H])[H])C([H])([H])[H])C(C([H])([H])[H])(C([H])([H])[H])C([H])([H])[H])C([H])([H])c2c([H])c(OC([H])([H])C([H])([H])C([H])([H])N([H])C(=O)C([H])(C(=O)N3C([H])([H])C([H])([H])C([H])([H])C([H])(n4nc(-c5c([H])c([H])c(Oc6c([H])c([H])c(F)c([H])c6F)c([H])c5[H])c(C(=O)N([H])[H])c4N([H])[H])C3([H])[H])C([H])([H])[H])c([H])c([H])c2C1([H])[H]

$$$$
17:0:0
     RDKit          3D

 83 87  0  0  1  0  0  0  0  0999 V2000
  -28.2240  -23.3400   20.5140 C   0  0  0  0  0 15  0  0  0  0  0  0
  -28.1780  -25.2150   20.2290 O   0  0  0  0  0  1  0  0  0  0  0  0
  -24.6030  -31.8190   23.1240 C   0  0  0  0  0  0  0  0  0  0  0  0
  -27.1970  -26.5140   20.2600 C   0  0  0  0  0  0  0  0  0  0  0  0
  -23.4530  -30.3830   21.4990 C   0  0  0  0  0  3  0  0  0  0  0  0
  -24.9310  -28.6780   20.1480 C   0  0  0  0  0  0  0  0  0  0  0  0
  -26.0440  -30.4780   21.4300 C   0  0  0  0  0  2  0  0  0  0  0  0
  -26.1240  -29.0090   20.7960 C   0  0  0  0  0  0  0  0  0  0  0  0
  -27.2330  -27.9660   20.8070 C   0  0  0  0  0  3  0  0  0  0  0  0
  -25.9560  -26.4540   19.5560 C   0  0  0  0  0  3  0  0  0  0  0  0
  -24.8960  -27.4280   19.5040 C   0  0  0  0  0  3  0  0  0  0  0  0
  -23.7280  -29.6510   20.1510 C   0  0  0  0  0  2  0  0  0  0  0  0
  -24.7260  -30.9340   22.0690 N   0  0  0  0  0  0  0  0  0  0  0  0
  -23.4970  -32.1240   23.6080 O   0  0  0  0  0  0  0  0  0  0  0  0
  -22.7160  -29.4310   22.4830 C   0  0  0  0  0  0  0  0  0  0  0  0
  -21.3810  -29.2910   22.3670 N   0  0  0  0  0  0  0  0  0  0  0  0
  -23.3640  -28.8130   23.3310 O   0  0  0  0  0  0  0  0  0  0  0  0
  -20.9040  -29.8410   21.6640 H   0  0  0  0  0  0  0  0  0  0  0  0
  -17.9840  -28.1010   22.9160 C   0  0  0  0  0  0  0  0  0  0  0  0
  -20.5500  -28.3630   23.1470 C   0  0  0  0  0  3  0  0  0  0  0  0
  -20.6370  -26.9280   22.5750 C   0  0  0  0  0  2  0  0  0  0  0  0
  -19.5230  -26.6090   21.5730 C   0  0  0  0  0  2  0  0  0  0  0  0
  -18.1500  -26.7550   22.2320 C   0  0  0  0  0  2  0  0  0  0  0  0
  -19.1090  -28.8630   23.3320 C   0  0  0  0  0  0  0  0  0  0  0  0
  -18.8960  -30.1190   23.9420 C   0  0  0  0  0  3  0  0  0  0  0  0
  -17.5920  -30.6150   24.1330 C   0  0  0  0  0  3  0  0  0  0  0  0
  -16.4830  -29.8520   23.7290 C   0  0  0  0  0  3  0  0  0  0  0  0
  -16.6800  -28.5960   23.1270 C   0  0  0  0  0  3  0  0  0  0  0  0
  -25.8410  -32.5040   23.7790 C   0  0  0  0  0  3  0  0  0  0  0  0
  -26.3370  -31.7630   25.0840 C   0  0  1  0  0  0  0  0  0  0  0  0
  -25.2230  -31.5350   26.1340 C   0  0  0  0  0  1  0  0  0  0  0  0
  -26.9440  -30.3850   24.7480 C   0  0  0  0  0  1  0  0  0  0  0  0
  -27.4680  -32.5810   25.7530 C   0  0  0  0  0  1  0  0  0  0  0  0
  -25.4870  -33.9000   24.1110 N   0  0  0  0  0  0  0  0  0  0  0  0
  -25.8120  -34.9790   23.3850 C   0  0  0  0  0  0  0  0  0  0  0  0
  -26.4940  -34.9050   22.3610 O   0  0  0  0  0  0  0  0  0  0  0  0
  -24.8810  -34.0290   24.9090 H   0  0  0  0  0  0  0  0  0  0  0  0
  -24.0630  -36.7660   23.0610 C   0  0  0  0  0  1  0  0  0  0  0  0
  -25.3060  -36.3580   23.8670 C   0  0  0  0  0  3  0  0  0  0  0  0
  -27.4250  -37.2650   24.7200 C   0  0  0  0  0  1  0  0  0  0  0  0
  -26.3250  -37.4280   23.7740 N   0  0  0  0  0  0  0  0  0  0  0  0
  -25.9030  -38.3400   23.9310 H   0  0  0  0  0  0  0  0  0  0  0  0
  -28.7250  -21.3660   19.9640 C   0  0  0  0  0 15  0  0  0  0  0  0
  -29.4660  -19.4630   20.4840 C   0  0  0  0  0  1  0  0  0  0  0  0
  -30.1560  -16.0980   20.2580 C   0  0  0  0  0  0  0  0  0  0  0  0
  -30.3840  -13.4590   19.4680 C   0  0  0  0  0  2  0  0  0  0  0  0
  -29.5400  -12.8300   18.3080 C   0  0  0  0  0  2  0  0  0  0  0  0
  -28.1510  -12.3880   18.7890 C   0  0  0  0  0  2  0  0  0  0  0  0
  -27.5730  -13.4210   19.7750 C   0  0  0  0  0  3  0  0  0  0  0  0
  -28.5800  -13.9130   20.8530 C   0  0  0  0  0  2  0  0  0  0  0  0
  -29.6710  -14.6670   20.1510 N   0  0  0  0  0  0  0  0  0  0  0  0
  -31.4030  -15.9570   20.2240 O   0  0  0  0  0  0  0  0  0  0  0  0
  -29.3910  -17.5720   20.2210 N   0  0  0  0  0  0  0  0  0  0  0  0
  -25.2060  -13.9270   20.5220 C   0  0  0  0  0  0  0  0  0  0  0  0
  -24.1480  -13.1430   20.8740 C   0  0  0  0  0  0  0  0  0  0  0  0
  -24.6320  -11.7980   20.8530 C   0  0  0  0  0  0  0  0  0  0  0  0
  -26.2640  -13.0670   20.2990 N   0  0  0  0  0  0  0  0  0  0  0  0
  -25.9300  -11.7750   20.5610 N   0  0  0  0  0  0  0  0  0  0  0  0
  -23.9060  -10.5350   21.0360 C   0  0  0  0  0  0  0  0  0  0  0  0
  -24.3290   -9.5710   21.9760 C   0  0  0  0  0  3  0  0  0  0  0  0
  -23.5980   -8.3770   22.1550 C   0  0  0  0  0  3  0  0  0  0  0  0
  -22.4300   -8.1400   21.3920 C   0  0  0  0  0  0  0  0  0  0  0  0
  -22.0240   -9.0920   20.4410 C   0  0  0  0  0  3  0  0  0  0  0  0
  -22.7570  -10.2780   20.2610 C   0  0  0  0  0  3  0  0  0  0  0  0
  -21.6730   -6.9960   21.4790 O   0  0  0  0  0  0  0  0  0  0  0  0
  -21.6180   -6.2560   22.6330 C   0  0  0  0  0  0  0  0  0  0  0  0
  -21.1900   -6.8140   23.8560 C   0  0  0  0  0  3  0  0  0  0  0  0
  -21.0820   -6.0010   25.0030 C   0  0  0  0  0  3  0  0  0  0  0  0
  -21.3920   -4.6300   24.9250 C   0  0  0  0  0  0  0  0  0  0  0  0
  -21.8140   -4.0700   23.7050 C   0  0  0  0  0  3  0  0  0  0  0  0
  -21.9230   -4.8820   22.5610 C   0  0  0  0  0  0  0  0  0  0  0  0
  -22.3080   -4.3330   21.3840 F   0  0  0  0  0  0  0  0  0  0  0  0
  -21.2810   -3.8460   26.0220 F   0  0  0  0  0  0  0  0  0  0  0  0
  -22.7460  -13.6170   21.1080 C   0  0  0  0  0  0  0  0  0  0  0  0
  -22.0070  -12.9330   21.9710 N   0  0  0  0  0  0  0  0  0  0  0  0
  -22.3150  -14.6330   20.5630 O   0  0  0  0  0  0  0  0  0  0  0  0
  -22.3720  -12.1150   22.4350 H   0  0  0  0  0  0  0  0  0  0  0  0
  -21.0650  -13.2320   22.1730 H   0  0  0  0  0  0  0  0  0  0  0  0
  -25.3360  -15.2970   20.3370 N   0  0  0  0  0  0  0  0  0  0  0  0
  -24.5440  -15.9240   20.4350 H   0  0  0  0  0  0  0  0  0  0  0  0
  -26.1560  -15.7450   19.9530 H   0  0  0  0  0  0  0  0  0  0  0  0
  -27.5930  -16.9960   18.5840 C   0  0  0  0  0  1  0  0  0  0  0  0
  -27.9530  -17.3790   20.0300 C   0  0  0  0  0  2  0  0  0  0  0  0
  2  4  1  0
  3 14  2  0
  4  9  1  0
  5 13  1  0
  5 15  1  0
  6 12  1  0
  6  8  1  0
  7 13  1  0
  8  9  2  0
  8  7  1  0
 10  4  2  0
 11 10  1  0
 11  6  2  0
 12  5  1  0
 13  3  1  0
 15 17  2  0
 16 15  1  0
 18 16  1  0
 19 28  2  0
 19 24  1  0
 20 16  1  0
 20 24  1  0
 21 20  1  0
 22 23  1  0
 22 21  1  0
 23 19  1  0
 24 25  2  0
 25 26  1  0
 27 26  2  0
 28 27  1  0
 29  3  1  0
 29 34  1  0
 29 30  1  0
 30 33  1  1
 30 31  1  0
 32 30  1  0
 34 37  1  0
 35 39  1  0
 35 34  1  0
 36 35  2  0
 39 38  1  0
 41 39  1  0
 41 42  1  0
 41 40  1  0
 46 51  1  0
 47 48  1  0
 47 46  1  0
 49 48  1  0
 49 57  1  0
 49 50  1  0
 51 45  1  0
 51 50  1  0
 52 45  2  0
 53 45  1  0
 53 44  1  0
 54 55  2  0
 55 74  1  0
 56 55  1  0
 56 59  1  0
 57 54  1  0
 57 58  1  0
 58 56  2  0
 59 60  1  0
 60 61  2  0
 62 65  1  0
 62 61  1  0
 63 62  2  0
 64 63  1  0
 64 59  2  0
 65 66  1  0
 66 67  1  0
 67 68  2  0
 69 68  1  0
 69 73  1  0
 70 69  2  0
 71 66  2  0
 71 70  1  0
 72 71  1  0
 74 75  1  0
 75 78  1  0
 75 77  1  0
 76 74  2  0
 79 80  1  0
 79 54  1  0
 81 79  1  0
 82 83  1  0
 83 53  1  0
M  ISO  4   1 101   2 101  45 100  53 100
M  END
>  <TORSDO>  (18) 
F 19

>  <SCORE>  (18) 
-15.675

>  <name>  (18) 
17

>  <ligand_id>  (18) 
17

>  <original_smiles>  (18) 
[H]c1c([H])c([H])c2c(c1[H])C([H])([H])C([H])([H])C([H])([H])C2([H])N([H])C(=O)C1([H])N(C(=O)C([H])(N([H])C(=O)C([H])(N([H])C([H])([H])[H])C([H])([H])[H])C(C([H])([H])[H])(C([H])([H])[H])C([H])([H])[H])C([H])([H])c2c([H])c(OC([H])([H])C([H])([H])C([H])([H])N(C(=O)N3C([H])([H])C([H])([H])C([H])([H])C([H])(n4nc(-c5c([H])c([H])c(Oc6c([H])c([H])c(F)c([H])c6F)c([H])c5[H])c(C(=O)N([H])[H])c4N([H])[H])C3([H])[H])C([H])([H])C([H])([H])[H])c([H])c([H])c2C1([H])[H]

>  <smiles>  (18) 
[H]c1c([H])c([H])c2c(c1[H])C([H])([H])C([H])([H])C([H])([H])C2([H])N([H])C(=O)C1([H])N(C(=O)C([H])(N([H])C(=O)C([H])(N([H])C([H])([H])[H])C([H])([H])[H])C(C([H])([H])[H])(C([H])([H])[H])C([H])([H])[H])C([H])([H])c2c([H])c(OC([H])([H])C([H])([H])C([H])([H])N(C(=O)N3C([H])([H])C([H])([H])C([H])([H])C([H])(n4nc(-c5c([H])c([H])c(Oc6c([H])c([H])c(F)c([H])c6F)c([H])c5[H])c(C(=O)N([H])[H])c4N([H])[H])C3([H])[H])C([H])([H])C([H])([H])[H])c([H])c([H])c2C1([H])[H]

$$$$
18:0:0
     RDKit          3D

 82 86  0  0  1  0  0  0  0  0999 V2000
  -28.1370  -24.6640   20.2800 O   0  0  0  0  0  1  0  0  0  0  0  0
  -24.7340  -31.8030   23.1520 C   0  0  0  0  0  0  0  0  0  0  0  0
  -27.2260  -26.1590   20.2530 C   0  0  0  0  0  0  0  0  0  0  0  0
  -23.5690  -30.3790   21.5310 C   0  0  0  0  0  3  0  0  0  0  0  0
  -25.0170  -28.5910   20.1720 C   0  0  0  0  0  0  0  0  0  0  0  0
  -26.1690  -30.3340   21.4840 C   0  0  0  0  0  2  0  0  0  0  0  0
  -26.2240  -28.8290   20.8370 C   0  0  0  0  0  0  0  0  0  0  0  0
  -27.2770  -27.6660   20.8260 C   0  0  0  0  0  3  0  0  0  0  0  0
  -25.9790  -26.2970   19.5260 C   0  0  0  0  0  3  0  0  0  0  0  0
  -24.9720  -27.3550   19.4890 C   0  0  0  0  0  3  0  0  0  0  0  0
  -23.8390  -29.6200   20.1890 C   0  0  0  0  0  2  0  0  0  0  0  0
  -24.8570  -30.8880   22.1070 N   0  0  0  0  0  0  0  0  0  0  0  0
  -23.6280  -32.1340   23.6250 O   0  0  0  0  0  0  0  0  0  0  0  0
  -22.7900  -29.4690   22.5260 C   0  0  0  0  0  0  0  0  0  0  0  0
  -21.4500  -29.3540   22.4040 N   0  0  0  0  0  0  0  0  0  0  0  0
  -23.4170  -28.8550   23.3910 O   0  0  0  0  0  0  0  0  0  0  0  0
  -20.9850  -29.8980   21.6910 H   0  0  0  0  0  0  0  0  0  0  0  0
  -18.0430  -28.1630   22.9450 C   0  0  0  0  0  0  0  0  0  0  0  0
  -20.6080  -28.4320   23.1860 C   0  0  0  0  0  3  0  0  0  0  0  0
  -20.6980  -26.9930   22.6240 C   0  0  0  0  0  2  0  0  0  0  0  0
  -19.5930  -26.6710   21.6130 C   0  0  0  0  0  2  0  0  0  0  0  0
  -18.2140  -26.8160   22.2620 C   0  0  0  0  0  2  0  0  0  0  0  0
  -19.1660  -28.9300   23.3620 C   0  0  0  0  0  0  0  0  0  0  0  0
  -18.9450  -30.1830   23.9710 C   0  0  0  0  0  3  0  0  0  0  0  0
  -17.6390  -30.6750   24.1590 C   0  0  0  0  0  3  0  0  0  0  0  0
  -16.5340  -29.9080   23.7510 C   0  0  0  0  0  3  0  0  0  0  0  0
  -16.7360  -28.6540   23.1500 C   0  0  0  0  0  3  0  0  0  0  0  0
  -25.9690  -32.4900   23.8170 C   0  0  0  0  0  3  0  0  0  0  0  0
  -25.6220  -33.8950   24.1490 N   0  0  0  0  0  0  0  0  0  0  0  0
  -25.9300  -34.9760   23.4180 C   0  0  0  0  0  0  0  0  0  0  0  0
  -26.5750  -34.8970   22.3700 O   0  0  0  0  0  0  0  0  0  0  0  0
  -25.0380  -34.0270   24.9630 H   0  0  0  0  0  0  0  0  0  0  0  0
  -24.1650  -36.7690   23.1870 C   0  0  0  0  0  1  0  0  0  0  0  0
  -25.4550  -36.3610   23.9170 C   0  0  0  0  0  3  0  0  0  0  0  0
  -27.6170  -37.2890   24.6380 C   0  0  0  0  0  1  0  0  0  0  0  0
  -26.4650  -37.4330   23.7520 N   0  0  0  0  0  0  0  0  0  0  0  0
  -26.0520  -38.3460   23.9150 H   0  0  0  0  0  0  0  0  0  0  0  0
  -26.4440  -31.7560   25.1340 C   0  0  1  0  0  0  0  0  0  0  0  0
  -25.3190  -31.5450   26.1760 C   0  0  0  0  0  1  0  0  0  0  0  0
  -27.0410  -30.3700   24.8160 C   0  0  0  0  0  1  0  0  0  0  0  0
  -27.5740  -32.5690   25.8090 C   0  0  0  0  0  1  0  0  0  0  0  0
  -28.1770  -22.5590   20.1660 C   0  0  0  0  0 15  0  0  0  0  0  0
  -30.1260  -20.6340   21.3760 C   0  0  0  0  0  1  0  0  0  0  0  0
  -29.1990  -20.4320   20.1740 C   0  0  0  0  0  1  0  0  0  0  0  0
  -29.9420  -16.6970   20.0440 C   0  0  0  0  0  0  0  0  0  0  0  0
  -30.3010  -13.9350   19.2580 C   0  0  0  0  0  2  0  0  0  0  0  0
  -29.5130  -13.0880   18.1740 C   0  0  0  0  0  2  0  0  0  0  0  0
  -28.2060  -12.5100   18.7180 C   0  0  0  0  0  2  0  0  0  0  0  0
  -27.5770  -13.5390   19.6670 C   0  0  0  0  0  3  0  0  0  0  0  0
  -28.5580  -14.2410   20.6770 C   0  0  0  0  0  2  0  0  0  0  0  0
  -29.5240  -15.1680   19.9320 N   0  0  0  0  0  0  0  0  0  0  0  0
  -31.1900  -16.4790   19.9460 O   0  0  0  0  0  0  0  0  0  0  0  0
  -29.2060  -18.3230   20.0940 N   0  0  0  0  0  2  0  0  0  0  0  0
  -28.2220  -18.0840   20.0790 H   0  0  0  0  0  0  0  0  0  0  0  0
  -25.2470  -13.9380   20.5380 C   0  0  0  0  0  0  0  0  0  0  0  0
  -24.2200  -13.1270   20.9200 C   0  0  0  0  0  0  0  0  0  0  0  0
  -24.7160  -11.7890   20.8410 C   0  0  0  0  0  0  0  0  0  0  0  0
  -26.3080  -13.1070   20.2470 N   0  0  0  0  0  0  0  0  0  0  0  0
  -26.0040  -11.7970   20.4800 N   0  0  0  0  0  0  0  0  0  0  0  0
  -24.0070  -10.5110   21.0280 C   0  0  0  0  0  0  0  0  0  0  0  0
  -24.4480   -9.5440   21.9600 C   0  0  0  0  0  3  0  0  0  0  0  0
  -23.7280   -8.3430   22.1460 C   0  0  0  0  0  3  0  0  0  0  0  0
  -22.5510   -8.0970   21.4000 C   0  0  0  0  0  0  0  0  0  0  0  0
  -22.1250   -9.0510   20.4590 C   0  0  0  0  0  3  0  0  0  0  0  0
  -22.8460  -10.2440   20.2730 C   0  0  0  0  0  3  0  0  0  0  0  0
  -21.8040   -6.9470   21.4930 O   0  0  0  0  0  0  0  0  0  0  0  0
  -21.7380   -6.2200   22.6560 C   0  0  0  0  0  0  0  0  0  0  0  0
  -21.2500   -6.7810   23.8570 C   0  0  0  0  0  3  0  0  0  0  0  0
  -21.1340   -5.9820   25.0120 C   0  0  0  0  0  3  0  0  0  0  0  0
  -21.4950   -4.6220   24.9670 C   0  0  0  0  0  0  0  0  0  0  0  0
  -21.9760   -4.0600   23.7710 C   0  0  0  0  0  3  0  0  0  0  0  0
  -22.0930   -4.8570   22.6180 C   0  0  0  0  0  0  0  0  0  0  0  0
  -22.5350   -4.3050   21.4630 F   0  0  0  0  0  0  0  0  0  0  0  0
  -21.3780   -3.8520   26.0750 F   0  0  0  0  0  0  0  0  0  0  0  0
  -22.8250  -13.5770   21.2360 C   0  0  0  0  0  0  0  0  0  0  0  0
  -22.1350  -12.8630   22.1170 N   0  0  0  0  0  0  0  0  0  0  0  0
  -22.3590  -14.6020   20.7400 O   0  0  0  0  0  0  0  0  0  0  0  0
  -22.5290  -12.0350   22.5410 H   0  0  0  0  0  0  0  0  0  0  0  0
  -21.2000  -13.1480   22.3730 H   0  0  0  0  0  0  0  0  0  0  0  0
  -25.3640  -15.3150   20.3750 N   0  0  0  0  0  0  0  0  0  0  0  0
  -24.5810  -15.9440   20.5150 H   0  0  0  0  0  0  0  0  0  0  0  0
  -26.1870  -15.7810   20.0160 H   0  0  0  0  0  0  0  0  0  0  0  0
  2 13  2  0
  3  1  1  0
  3  8  1  0
  4 12  1  0
  4 14  1  0
  5 11  1  0
  5  7  1  0
  6 12  1  0
  7  6  1  0
  8  7  2  0
  9  3  2  0
 10  9  1  0
 10  5  2  0
 11  4  1  0
 12  2  1  0
 14 16  2  0
 15 14  1  0
 17 15  1  0
 18 27  2  0
 18 23  1  0
 19 15  1  0
 19 23  1  0
 20 19  1  0
 21 22  1  0
 21 20  1  0
 22 18  1  0
 23 24  2  0
 24 25  1  0
 26 25  2  0
 27 26  1  0
 28  2  1  0
 28 29  1  0
 28 38  1  0
 29 32  1  0
 30 34  1  0
 30 29  1  0
 31 30  2  0
 34 33  1  0
 36 37  1  0
 36 34  1  0
 36 35  1  0
 38 41  1  1
 38 39  1  0
 40 38  1  0
 44 43  1  0
 45 53  1  0
 46 51  1  0
 47 48  1  0
 47 46  1  0
 49 48  1  0
 49 58  1  0
 49 50  1  0
 51 45  1  0
 51 50  1  0
 52 45  2  0
 54 53  1  0
 55 56  2  0
 56 75  1  0
 57 56  1  0
 57 60  1  0
 58 59  1  0
 58 55  1  0
 59 57  2  0
 60 61  1  0
 61 62  2  0
 63 66  1  0
 63 62  1  0
 64 63  2  0
 65 64  1  0
 65 60  2  0
 66 67  1  0
 67 68  1  0
 68 69  2  0
 70 69  1  0
 70 74  1  0
 71 70  2  0
 72 67  2  0
 72 71  1  0
 73 72  1  0
 75 76  1  0
 76 79  1  0
 76 78  1  0
 77 75  2  0
 80 81  1  0
 80 55  1  0
 82 80  1  0
M  ISO  4   1 101  42 101  45 100  53 100
M  END
>  <TORSDO>  (19) 
F 17

>  <SCORE>  (19) 
-16.272

>  <name>  (19) 
18

>  <ligand_id>  (19) 
18

>  <original_smiles>  (19) 
[H]c1c([H])c([H])c2c(c1[H])C([H])([H])C([H])([H])C([H])([H])C2([H])N([H])C(=O)C1([H])N(C(=O)C([H])(N([H])C(=O)C([H])(N([H])C([H])([H])[H])C([H])([H])[H])C(C([H])([H])[H])(C([H])([H])[H])C([H])([H])[H])C([H])([H])c2c([H])c(OC([H])([H])C([H])(N([H])C(=O)N3C([H])([H])C([H])([H])C([H])([H])C([H])(n4nc(-c5c([H])c([H])c(Oc6c([H])c([H])c(F)c([H])c6F)c([H])c5[H])c(C(=O)N([H])[H])c4N([H])[H])C3([H])[H])C([H])([H])[H])c([H])c([H])c2C1([H])[H]

>  <smiles>  (19) 
[H]c1c([H])c([H])c2c(c1[H])C([H])([H])C([H])([H])C([H])([H])C2([H])N([H])C(=O)C1([H])N(C(=O)C([H])(N([H])C(=O)C([H])(N([H])C([H])([H])[H])C([H])([H])[H])C(C([H])([H])[H])(C([H])([H])[H])C([H])([H])[H])C([H])([H])c2c([H])c(OC([H])([H])C([H])(N([H])C(=O)N3C([H])([H])C([H])([H])C([H])([H])C([H])(n4nc(-c5c([H])c([H])c(Oc6c([H])c([H])c(F)c([H])c6F)c([H])c5[H])c(C(=O)N([H])[H])c4N([H])[H])C3([H])[H])C([H])([H])[H])c([H])c([H])c2C1([H])[H]

$$$$
19:0:0
     RDKit          3D

 88 92  0  0  1  0  0  0  0  0999 V2000
  -29.0870  -21.4750   20.1200 C   0  0  0  0  0  1  0  0  0  0  0  0
  -29.3370  -17.8290   20.1860 C   0  0  0  0  0  2  0  0  0  0  0  0
  -29.3440  -19.4610   20.1400 C   0  0  0  0  0  1  0  0  0  0  0  0
  -30.0770  -16.1500   20.0670 C   0  0  0  0  0  0  0  0  0  0  0  0
  -30.2600  -13.5070   19.2630 C   0  0  0  0  0  2  0  0  0  0  0  0
  -29.3920  -12.9400   18.0890 C   0  0  0  0  0  2  0  0  0  0  0  0
  -28.0120  -12.4870   18.5800 C   0  0  0  0  0  2  0  0  0  0  0  0
  -27.4640  -13.4880   19.6170 C   0  0  0  0  0  3  0  0  0  0  0  0
  -28.4880  -13.9610   20.6860 C   0  0  0  0  0  2  0  0  0  0  0  0
  -29.5900  -14.7130   20.0040 N   0  0  0  0  0  0  0  0  0  0  0  0
  -31.3080  -15.9640   19.8820 O   0  0  0  0  0  0  0  0  0  0  0  0
  -25.1310  -13.9380   20.4800 C   0  0  0  0  0  0  0  0  0  0  0  0
  -24.0970  -13.1340   20.8620 C   0  0  0  0  0  0  0  0  0  0  0  0
  -24.5880  -11.7930   20.7890 C   0  0  0  0  0  0  0  0  0  0  0  0
  -26.1820  -13.0930   20.1830 N   0  0  0  0  0  0  0  0  0  0  0  0
  -25.8740  -11.7910   20.4350 N   0  0  0  0  0  0  0  0  0  0  0  0
  -23.8820  -10.5160   20.9780 C   0  0  0  0  0  0  0  0  0  0  0  0
  -24.3220   -9.5560   21.9150 C   0  0  0  0  0  3  0  0  0  0  0  0
  -23.6090   -8.3500   22.0960 C   0  0  0  0  0  3  0  0  0  0  0  0
  -22.4390   -8.0960   21.3390 C   0  0  0  0  0  0  0  0  0  0  0  0
  -22.0160   -9.0470   20.3930 C   0  0  0  0  0  3  0  0  0  0  0  0
  -22.7320  -10.2430   20.2100 C   0  0  0  0  0  3  0  0  0  0  0  0
  -21.6980   -6.9420   21.4280 O   0  0  0  0  0  0  0  0  0  0  0  0
  -21.6240   -6.2210   22.5930 C   0  0  0  0  0  0  0  0  0  0  0  0
  -21.0940   -6.7740   23.7800 C   0  0  0  0  0  3  0  0  0  0  0  0
  -20.9710   -5.9760   24.9340 C   0  0  0  0  0  3  0  0  0  0  0  0
  -21.3690   -4.6260   24.9040 C   0  0  0  0  0  0  0  0  0  0  0  0
  -21.8920   -4.0730   23.7230 C   0  0  0  0  0  3  0  0  0  0  0  0
  -22.0150   -4.8670   22.5700 C   0  0  0  0  0  0  0  0  0  0  0  0
  -22.4990   -4.3220   21.4270 F   0  0  0  0  0  0  0  0  0  0  0  0
  -21.2440   -3.8580   26.0120 F   0  0  0  0  0  0  0  0  0  0  0  0
  -22.7020  -13.5880   21.1710 C   0  0  0  0  0  0  0  0  0  0  0  0
  -22.0060  -12.8770   22.0500 N   0  0  0  0  0  0  0  0  0  0  0  0
  -22.2390  -14.6120   20.6690 O   0  0  0  0  0  0  0  0  0  0  0  0
  -22.3940  -12.0520   22.4820 H   0  0  0  0  0  0  0  0  0  0  0  0
  -21.0700  -13.1650   22.2980 H   0  0  0  0  0  0  0  0  0  0  0  0
  -25.2640  -15.3150   20.3240 N   0  0  0  0  0  0  0  0  0  0  0  0
  -24.4970  -15.9580   20.4840 H   0  0  0  0  0  0  0  0  0  0  0  0
  -26.1000  -15.7740   19.9830 H   0  0  0  0  0  0  0  0  0  0  0  0
  -29.9360  -21.7310   18.8390 C   0  0  0  0  0  2  0  0  0  0  0  0
  -30.0480  -24.1430   17.9270 C   0  0  0  0  0  1  0  0  0  0  0  0
  -30.8010  -23.0150   18.6780 C   0  0  0  0  0  3  0  0  0  0  0  0
  -32.5530  -22.4500   20.3400 C   0  0  0  0  0  1  0  0  0  0  0  0
  -32.0630  -24.7970   19.9140 C   0  0  0  0  0  1  0  0  0  0  0  0
  -31.5060  -23.4230   19.9340 N   0  0  1  0  0  4  0  0  0  0  0  0
  -30.8190  -23.4310   20.6730 H   0  0  0  0  0  0  0  0  0  0  0  0
  -27.9990  -23.2820   20.2820 C   0  0  0  0  0 15  0  0  0  0  0  0
  -28.0790  -25.1900   20.3360 O   0  0  0  0  0  1  0  0  0  0  0  0
  -24.6690  -31.8710   23.2320 C   0  0  0  0  0  0  0  0  0  0  0  0
  -27.1370  -26.5290   20.2940 C   0  0  0  0  0  0  0  0  0  0  0  0
  -23.4770  -30.4640   21.6140 C   0  0  0  0  0  3  0  0  0  0  0  0
  -24.9080  -28.7460   20.2210 C   0  0  0  0  0  0  0  0  0  0  0  0
  -26.0660  -30.5130   21.5100 C   0  0  0  0  0  2  0  0  0  0  0  0
  -26.1140  -29.0480   20.8610 C   0  0  0  0  0  0  0  0  0  0  0  0
  -27.2000  -27.9780   20.8560 C   0  0  0  0  0  3  0  0  0  0  0  0
  -25.8940  -26.5070   19.5900 C   0  0  0  0  0  3  0  0  0  0  0  0
  -24.8530  -27.5040   19.5590 C   0  0  0  0  0  3  0  0  0  0  0  0
  -23.7190  -29.7370   20.2550 C   0  0  0  0  0  2  0  0  0  0  0  0
  -24.7650  -30.9900   22.1700 N   0  0  0  0  0  0  0  0  0  0  0  0
  -23.5750  -32.1910   23.7330 O   0  0  0  0  0  0  0  0  0  0  0  0
  -22.7330  -29.5200   22.6030 C   0  0  0  0  0  0  0  0  0  0  0  0
  -21.4010  -29.3610   22.4660 N   0  0  0  0  0  0  0  0  0  0  0  0
  -23.3740  -28.9240   23.4720 O   0  0  0  0  0  0  0  0  0  0  0  0
  -20.9280  -29.8930   21.7480 H   0  0  0  0  0  0  0  0  0  0  0  0
  -18.0190  -28.1020   22.9560 C   0  0  0  0  0  0  0  0  0  0  0  0
  -20.5710  -28.4330   23.2480 C   0  0  0  0  0  3  0  0  0  0  0  0
  -20.7060  -26.9860   22.7170 C   0  0  0  0  0  2  0  0  0  0  0  0
  -19.6290  -26.6170   21.6920 C   0  0  0  0  0  2  0  0  0  0  0  0
  -18.2340  -26.7450   22.3100 C   0  0  0  0  0  2  0  0  0  0  0  0
  -19.1140  -28.9020   23.3810 C   0  0  0  0  0  0  0  0  0  0  0  0
  -18.8540  -30.1670   23.9530 C   0  0  0  0  0  3  0  0  0  0  0  0
  -17.5350  -30.6350   24.1000 C   0  0  0  0  0  3  0  0  0  0  0  0
  -16.4550  -29.8350   23.6860 C   0  0  0  0  0  3  0  0  0  0  0  0
  -16.6980  -28.5710   23.1210 C   0  0  0  0  0  3  0  0  0  0  0  0
  -25.9270  -32.5330   23.8740 C   0  0  0  0  0  3  0  0  0  0  0  0
  -25.6100  -33.9440   24.1850 N   0  0  0  0  0  0  0  0  0  0  0  0
  -25.9250  -35.0000   23.4210 C   0  0  0  0  0  0  0  0  0  0  0  0
  -26.5640  -34.8890   22.3740 O   0  0  0  0  0  0  0  0  0  0  0  0
  -25.0350  -34.1030   24.9990 H   0  0  0  0  0  0  0  0  0  0  0  0
  -24.1840  -36.8050   23.1410 C   0  0  0  0  0  1  0  0  0  0  0  0
  -25.4640  -36.3990   23.8900 C   0  0  0  0  0  3  0  0  0  0  0  0
  -27.6290  -37.3110   24.6120 C   0  0  0  0  0  1  0  0  0  0  0  0
  -26.4900  -37.4530   23.7110 N   0  0  0  0  0  0  0  0  0  0  0  0
  -26.0870  -38.3760   23.8520 H   0  0  0  0  0  0  0  0  0  0  0  0
  -26.4030  -31.8000   25.1910 C   0  0  1  0  0  0  0  0  0  0  0  0
  -25.2840  -31.6090   26.2440 C   0  0  0  0  0  1  0  0  0  0  0  0
  -26.9820  -30.4040   24.8760 C   0  0  0  0  0  1  0  0  0  0  0  0
  -27.5480  -32.6040   25.8540 C   0  0  0  0  0  1  0  0  0  0  0  0
  3  2  1  0
  4  2  1  0
  5 10  1  0
  6  7  1  0
  6  5  1  0
  8  7  1  0
  8 15  1  0
  8  9  1  0
 10  4  1  0
 10  9  1  0
 11  4  2  0
 12 13  2  0
 13 32  1  0
 14 13  1  0
 14 17  1  0
 15 16  1  0
 15 12  1  0
 16 14  2  0
 17 18  1  0
 18 19  2  0
 20 23  1  0
 20 19  1  0
 21 20  2  0
 22 21  1  0
 22 17  2  0
 23 24  1  0
 24 25  1  0
 25 26  2  0
 27 26  1  0
 27 31  1  0
 28 27  2  0
 29 24  2  0
 29 28  1  0
 30 29  1  0
 32 33  1  0
 33 36  1  0
 33 35  1  0
 34 32  2  0
 37 12  1  0
 37 38  1  0
 39 37  1  0
 40  1  1  0
 42 41  1  0
 42 40  1  0
 42 45  1  0
 44 45  1  0
 45 43  1  0
 45 46  1  1
 49 60  2  0
 50 48  1  0
 50 55  1  0
 51 59  1  0
 51 61  1  0
 52 58  1  0
 52 54  1  0
 53 59  1  0
 54 53  1  0
 55 54  2  0
 56 50  2  0
 57 56  1  0
 57 52  2  0
 58 51  1  0
 59 49  1  0
 61 63  2  0
 62 61  1  0
 64 62  1  0
 65 74  2  0
 65 70  1  0
 66 62  1  0
 66 70  1  0
 67 66  1  0
 68 69  1  0
 68 67  1  0
 69 65  1  0
 70 71  2  0
 71 72  1  0
 73 72  2  0
 74 73  1  0
 75 49  1  0
 75 76  1  0
 75 85  1  0
 76 79  1  0
 77 81  1  0
 77 76  1  0
 78 77  2  0
 81 80  1  0
 83 84  1  0
 83 81  1  0
 83 82  1  0
 85 88  1  1
 85 86  1  0
 87 85  1  0
M  ISO  4   2 100   4 100  47 101  48 101
M  END
>  <TORSDO>  (20) 
F 21

>  <SCORE>  (20) 
-15.051

>  <name>  (20) 
19

>  <ligand_id>  (20) 
19

>  <original_smiles>  (20) 
[H]C(C(=O)N1C([H])([H])C([H])([H])C([H])([H])C([H])(n2nc(-c3c([H])c([H])c(Oc4c([H])c([H])c(F)c([H])c4F)c([H])c3[H])c(C(=O)N([H])[H])c2N([H])[H])C1([H])[H])=C([H])C([H])(C([H])([H])Oc1c([H])c([H])c2c(c1[H])C([H])([H])N(C(=O)C([H])(N([H])C(=O)C([H])(N([H])C([H])([H])[H])C([H])([H])[H])C(C([H])([H])[H])(C([H])([H])[H])C([H])([H])[H])C([H])(C(=O)N([H])C1([H])c3c([H])c([H])c([H])c([H])c3C([H])([H])C([H])([H])C1([H])[H])C2([H])[H])C([H])([H])C([H])(C([H])([H])[H])[N+]([H])(C([H])([H])[H])C([H])([H])[H]

>  <smiles>  (20) 
[H]C(C(=O)N1C([H])([H])C([H])([H])C([H])([H])C([H])(n2nc(-c3c([H])c([H])c(Oc4c([H])c([H])c(F)c([H])c4F)c([H])c3[H])c(C(=O)N([H])[H])c2N([H])[H])C1([H])[H])=C([H])C([H])(C([H])([H])Oc1c([H])c([H])c2c(c1[H])C([H])([H])N(C(=O)C([H])(N([H])C(=O)C([H])(N([H])C([H])([H])[H])C([H])([H])[H])C(C([H])([H])[H])(C([H])([H])[H])C([H])([H])[H])C([H])(C(=O)N([H])C1([H])c3c([H])c([H])c([H])c([H])c3C([H])([H])C([H])([H])C1([H])[H])C2([H])[H])C([H])([H])C([H])(C([H])([H])[H])[N+]([H])(C([H])([H])[H])C([H])([H])[H]

$$$$
20:0:0
     RDKit          3D

 91 98  0  0  1  0  0  0  0  0999 V2000
  -29.4230  -18.1910   20.1400 C   0  0  0  0  0  3  0  0  0  0  0  0
  -27.9750  -18.0180   20.4550 N   0  0  0  0  0  4  0  0  0  0  0  0
  -27.8700  -17.1300   20.9250 H   0  0  0  0  0  0  0  0  0  0  0  0
  -27.7590  -18.7130   21.1510 H   0  0  0  0  0  0  0  0  0  0  0  0
  -27.1530  -19.0830   18.2570 C   0  0  0  0  0  1  0  0  0  0  0  0
  -26.9110  -18.0850   19.4150 C   0  0  0  0  0  3  0  0  0  0  0  0
  -24.3090  -17.9980   19.3150 C   0  0  0  0  0  1  0  0  0  0  0  0
  -25.5610  -18.3720   20.1240 C   0  0  0  0  0  2  0  0  0  0  0  0
  -29.8970  -16.5260   22.2090 C   0  0  0  0  0  1  0  0  0  0  0  0
  -30.2560  -16.7440   20.7250 C   0  0  0  0  0  3  0  0  0  0  0  0
  -30.7730  -15.2270   20.0530 C   0  0  0  0  0  0  0  0  0  0  0  0
  -30.6240  -12.8350   19.0820 C   0  0  0  0  0  2  0  0  0  0  0  0
  -29.6650  -12.7750   17.8650 C   0  0  0  0  0  2  0  0  0  0  0  0
  -28.2240  -12.5220   18.3350 C   0  0  0  0  0  2  0  0  0  0  0  0
  -27.8520  -13.4220   19.5390 C   0  0  0  0  0  3  0  0  0  0  0  0
  -28.9390  -13.4580   20.6330 C   0  0  0  0  0  2  0  0  0  0  0  0
  -30.1780  -13.9380   20.0070 N   0  0  0  0  0  0  0  0  0  0  0  0
  -31.9140  -15.2170   19.5670 O   0  0  0  0  0  0  0  0  0  0  0  0
  -25.5170  -13.9840   20.3890 C   0  0  0  0  0  0  0  0  0  0  0  0
  -24.4670  -13.2160   20.8060 C   0  0  0  0  0  0  0  0  0  0  0  0
  -24.9210  -11.8660   20.7350 C   0  0  0  0  0  0  0  0  0  0  0  0
  -26.5390  -13.1080   20.0880 N   0  0  0  0  0  0  0  0  0  0  0  0
  -26.1990  -11.8240   20.3660 N   0  0  0  0  0  0  0  0  0  0  0  0
  -24.1990  -10.6050   20.9370 C   0  0  0  0  0  0  0  0  0  0  0  0
  -24.6190   -9.6630   21.8980 C   0  0  0  0  0  3  0  0  0  0  0  0
  -23.8940   -8.4670   22.0900 C   0  0  0  0  0  3  0  0  0  0  0  0
  -22.7370   -8.2080   21.3190 C   0  0  0  0  0  0  0  0  0  0  0  0
  -22.3350   -9.1410   20.3470 C   0  0  0  0  0  3  0  0  0  0  0  0
  -23.0610  -10.3290   20.1540 C   0  0  0  0  0  3  0  0  0  0  0  0
  -21.9850   -7.0630   21.4150 O   0  0  0  0  0  0  0  0  0  0  0  0
  -21.8460   -6.3920   22.6050 C   0  0  0  0  0  0  0  0  0  0  0  0
  -21.3070   -7.0140   23.7500 C   0  0  0  0  0  3  0  0  0  0  0  0
  -21.1170   -6.2690   24.9300 C   0  0  0  0  0  3  0  0  0  0  0  0
  -21.4580   -4.9030   24.9640 C   0  0  0  0  0  0  0  0  0  0  0  0
  -21.9860   -4.2810   23.8190 C   0  0  0  0  0  3  0  0  0  0  0  0
  -22.1770   -5.0240   22.6410 C   0  0  0  0  0  0  0  0  0  0  0  0
  -22.6680   -4.4160   21.5320 F   0  0  0  0  0  0  0  0  0  0  0  0
  -21.2670   -4.1820   26.0930 F   0  0  0  0  0  0  0  0  0  0  0  0
  -23.0850  -13.7040   21.1320 C   0  0  0  0  0  0  0  0  0  0  0  0
  -22.3890  -13.0170   22.0300 N   0  0  0  0  0  0  0  0  0  0  0  0
  -22.6340  -14.7260   20.6170 O   0  0  0  0  0  0  0  0  0  0  0  0
  -22.7730  -12.1970   22.4710 H   0  0  0  0  0  0  0  0  0  0  0  0
  -21.4600  -13.3200   22.2840 H   0  0  0  0  0  0  0  0  0  0  0  0
  -25.6840  -15.3440   20.1820 N   0  0  0  0  0  0  0  0  0  0  0  0
  -24.7980  -15.8410   20.1450 H   0  0  0  0  0  0  0  0  0  0  0  0
  -26.2290  -15.5060   19.3490 H   0  0  0  0  0  0  0  0  0  0  0  0
  -29.7100  -19.8670   20.6070 C   0  0  0  0  0  3  0  0  0  0  0  0
  -28.8860  -21.3510   20.1410 C   0  0  0  0  0  3  0  0  0  0  0  0
  -29.0180  -23.0260   20.6520 C   0  0  0  0  0  3  0  0  0  0  0  0
  -28.2460  -24.4660   20.0260 C   0  0  0  0  0  3  0  0  0  0  0  0
  -28.3390  -26.0240   20.4140 O   0  0  0  0  0  0  0  0  0  0  0  0
  -24.6400  -31.8350   23.2230 C   0  0  0  0  0  0  0  0  0  0  0  0
  -27.2980  -27.0510   20.2710 C   0  0  0  0  0  0  0  0  0  0  0  0
  -23.4810  -30.4260   21.5620 C   0  0  0  0  0  3  0  0  0  0  0  0
  -24.9690  -28.8440   20.1670 C   0  0  0  0  0  0  0  0  0  0  0  0
  -26.0400  -30.6810   21.4590 C   0  0  0  0  0  2  0  0  0  0  0  0
  -26.1320  -29.2780   20.8110 C   0  0  0  0  0  0  0  0  0  0  0  0
  -27.2890  -28.3980   20.8490 C   0  0  0  0  0  3  0  0  0  0  0  0
  -26.1120  -26.7470   19.5630 C   0  0  0  0  0  3  0  0  0  0  0  0
  -24.9780  -27.5950   19.5240 C   0  0  0  0  0  3  0  0  0  0  0  0
  -23.7380  -29.7430   20.1880 C   0  0  0  0  0  2  0  0  0  0  0  0
  -24.7380  -31.0070   22.1370 N   0  0  0  0  0  0  0  0  0  0  0  0
  -23.5410  -32.1210   23.7250 O   0  0  0  0  0  0  0  0  0  0  0  0
  -22.7810  -29.4270   22.5180 C   0  0  0  0  0  0  0  0  0  0  0  0
  -21.4550  -29.2590   22.3730 N   0  0  0  0  0  0  0  0  0  0  0  0
  -23.4380  -28.8050   23.3560 O   0  0  0  0  0  0  0  0  0  0  0  0
  -20.9780  -29.8130   21.6740 H   0  0  0  0  0  0  0  0  0  0  0  0
  -18.0680  -28.0430   22.8300 C   0  0  0  0  0  0  0  0  0  0  0  0
  -20.6230  -28.3200   23.1340 C   0  0  0  0  0  3  0  0  0  0  0  0
  -20.7380  -26.8850   22.5650 C   0  0  0  0  0  2  0  0  0  0  0  0
  -19.6540  -26.5570   21.5320 C   0  0  0  0  0  2  0  0  0  0  0  0
  -18.2620  -26.6960   22.1550 C   0  0  0  0  0  2  0  0  0  0  0  0
  -19.1760  -28.8130   23.2750 C   0  0  0  0  0  0  0  0  0  0  0  0
  -18.9400  -30.0720   23.8670 C   0  0  0  0  0  3  0  0  0  0  0  0
  -17.6300  -30.5630   24.0190 C   0  0  0  0  0  3  0  0  0  0  0  0
  -16.5370  -29.7930   23.5880 C   0  0  0  0  0  3  0  0  0  0  0  0
  -16.7580  -28.5360   23.0000 C   0  0  0  0  0  3  0  0  0  0  0  0
  -25.8990  -32.4830   23.8750 C   0  0  0  0  0  3  0  0  0  0  0  0
  -26.3920  -31.7170   25.1650 C   0  0  1  0  0  0  0  0  0  0  0  0
  -25.2770  -31.4730   26.2070 C   0  0  0  0  0  1  0  0  0  0  0  0
  -26.9930  -30.3420   24.7960 C   0  0  0  0  0  1  0  0  0  0  0  0
  -27.5230  -32.5180   25.8490 C   0  0  0  0  0  1  0  0  0  0  0  0
  -25.5720  -33.8810   24.2060 N   0  0  0  0  0  0  0  0  0  0  0  0
  -25.8970  -34.9420   23.4570 C   0  0  0  0  0  0  0  0  0  0  0  0
  -26.5690  -34.8490   22.4280 O   0  0  0  0  0  0  0  0  0  0  0  0
  -24.9750  -34.0220   25.0080 H   0  0  0  0  0  0  0  0  0  0  0  0
  -24.1500  -36.7260   23.1170 C   0  0  0  0  0  1  0  0  0  0  0  0
  -25.3980  -36.3260   23.9220 C   0  0  0  0  0  3  0  0  0  0  0  0
  -27.5230  -37.2340   24.7540 C   0  0  0  0  0  1  0  0  0  0  0  0
  -26.4210  -37.3900   23.8080 N   0  0  0  0  0  0  0  0  0  0  0  0
  -26.0050  -38.3060   23.9550 H   0  0  0  0  0  0  0  0  0  0  0  0
  1  2  1  0
  1 47  1  0
  1 10  1  0
  2  3  1  0
  2  4  1  0
  6  5  1  0
  6  8  1  0
  6  2  1  0
  7  8  1  0
 10  9  1  0
 11 10  1  0
 12 17  1  0
 13 14  1  0
 13 12  1  0
 15 14  1  0
 15 22  1  0
 15 16  1  0
 17 11  1  0
 17 16  1  0
 18 11  2  0
 19 20  2  0
 20 39  1  0
 21 20  1  0
 21 24  1  0
 22 23  1  0
 22 19  1  0
 23 21  2  0
 24 25  1  0
 25 26  2  0
 27 30  1  0
 27 26  1  0
 28 27  2  0
 29 28  1  0
 29 24  2  0
 30 31  1  0
 31 36  2  0
 31 32  1  0
 32 33  2  0
 33 34  1  0
 34 38  1  0
 35 34  2  0
 36 35  1  0
 37 36  1  0
 39 40  1  0
 40 43  1  0
 40 42  1  0
 41 39  2  0
 44 19  1  0
 45 44  1  0
 46 44  1  0
 48 47  2  0
 48 49  1  0
 50 51  1  0
 50 49  2  0
 52 63  2  0
 53 51  1  0
 53 58  1  0
 54 62  1  0
 54 64  1  0
 55 61  1  0
 55 57  1  0
 56 62  1  0
 57 58  2  0
 57 56  1  0
 59 53  2  0
 60 59  1  0
 60 55  2  0
 61 54  1  0
 62 52  1  0
 64 66  2  0
 65 64  1  0
 67 65  1  0
 68 77  2  0
 68 73  1  0
 69 65  1  0
 69 73  1  0
 70 69  1  0
 71 72  1  0
 71 70  1  0
 72 68  1  0
 73 74  2  0
 74 75  1  0
 76 75  2  0
 77 76  1  0
 78 52  1  0
 78 83  1  0
 78 79  1  0
 79 82  1  1
 79 80  1  0
 81 79  1  0
 83 86  1  0
 84 88  1  0
 84 83  1  0
 85 84  2  0
 88 87  1  0
 90 88  1  0
 90 91  1  0
 90 89  1  0
M  ISO  4  10 100  11 100  50 101  51 101
M  END
>  <TORSDO>  (21) 
F 24

>  <SCORE>  (21) 
-12.867

>  <name>  (21) 
20

>  <ligand_id>  (21) 
20

>  <original_smiles>  (21) 
[H]c1c([H])c([H])c2c(c1[H])C([H])([H])C([H])([H])C([H])([H])C2([H])N([H])C(=O)C1([H])N(C(=O)C([H])(N([H])C(=O)C([H])(N([H])C([H])([H])[H])C([H])([H])[H])C(C([H])([H])[H])(C([H])([H])[H])C([H])([H])[H])C([H])([H])c2c([H])c(OC([H])([H])C([H])([H])C([H])([H])C([H])([H])C([H])(C([H])(C(=O)N3C([H])([H])C([H])([H])C([H])([H])C([H])(n4nc(-c5c([H])c([H])c(Oc6c([H])c([H])c(F)c([H])c6F)c([H])c5[H])c(C(=O)N([H])[H])c4N([H])[H])C3([H])[H])C([H])([H])[H])[N+]([H])([H])C([H])(C([H])([H])[H])C([H])([H])C([H])([H])[H])c([H])c([H])c2C1([H])[H]

>  <smiles>  (21) 
[H]c1c([H])c([H])c2c(c1[H])C([H])([H])C([H])([H])C([H])([H])C2([H])N([H])C(=O)C1([H])N(C(=O)C([H])(N([H])C(=O)C([H])(N([H])C([H])([H])[H])C([H])([H])[H])C(C([H])([H])[H])(C([H])([H])[H])C([H])([H])[H])C([H])([H])c2c([H])c(OC([H])([H])C([H])([H])C([H])([H])C([H])([H])C([H])(C([H])(C(=O)N3C([H])([H])C([H])([H])C([H])([H])C([H])(n4nc(-c5c([H])c([H])c(Oc6c([H])c([H])c(F)c([H])c6F)c([H])c5[H])c(C(=O)N([H])[H])c4N([H])[H])C3([H])[H])C([H])([H])[H])[N+]([H])([H])C([H])(C([H])([H])[H])C([H])([H])C([H])([H])[H])c([H])c([H])c2C1([H])[H]

$$$$
21:0:0
     RDKit          3D

 89 97  0  0  1  0  0  0  0  0999 V2000
  -29.1780  -20.3660   19.7900 C   0  0  0  0  0  3  0  0  0  0  0  0
  -30.4150  -15.5600   19.8700 C   0  0  0  0  0  0  0  0  0  0  0  0
  -30.4050  -13.0590   18.9330 C   0  0  0  0  0  2  0  0  0  0  0  0
  -29.4130  -12.7530   17.7740 C   0  0  0  0  0  2  0  0  0  0  0  0
  -28.0160  -12.4080   18.3130 C   0  0  0  0  0  2  0  0  0  0  0  0
  -27.6150  -13.3530   19.4680 C   0  0  0  0  0  3  0  0  0  0  0  0
  -28.7340  -13.5690   20.5090 C   0  0  0  0  0  2  0  0  0  0  0  0
  -29.8770  -14.2010   19.8060 N   0  0  0  0  0  0  0  0  0  0  0  0
  -31.5870  -15.5370   19.4480 O   0  0  0  0  0  0  0  0  0  0  0  0
  -30.5620  -17.5800   22.4770 C   0  0  0  0  0  2  0  0  0  0  0  0
  -30.5420  -18.8960   21.7080 C   0  0  0  0  0  2  0  0  0  0  0  0
  -29.5750  -16.6350   21.7740 C   0  0  0  0  0  2  0  0  0  0  0  0
  -29.6030  -18.6540   20.5280 C   0  0  0  0  0  3  0  0  0  0  0  0
  -29.7020  -16.8720   20.3140 N   0  0  0  0  0  0  0  0  0  0  0  0
  -25.3210  -13.8700   20.4360 C   0  0  0  0  0  0  0  0  0  0  0  0
  -24.2870  -13.0810   20.8550 C   0  0  0  0  0  0  0  0  0  0  0  0
  -24.7460  -11.7320   20.7380 C   0  0  0  0  0  0  0  0  0  0  0  0
  -26.3360  -13.0060   20.0750 N   0  0  0  0  0  0  0  0  0  0  0  0
  -26.0100  -11.7100   20.3230 N   0  0  0  0  0  0  0  0  0  0  0  0
  -24.0290  -10.4640   20.9380 C   0  0  0  0  0  0  0  0  0  0  0  0
  -24.4800   -9.4950   21.8610 C   0  0  0  0  0  3  0  0  0  0  0  0
  -23.7580   -8.2980   22.0540 C   0  0  0  0  0  3  0  0  0  0  0  0
  -22.5700   -8.0590   21.3250 C   0  0  0  0  0  0  0  0  0  0  0  0
  -22.1350   -9.0180   20.3920 C   0  0  0  0  0  3  0  0  0  0  0  0
  -22.8580  -10.2060   20.1980 C   0  0  0  0  0  3  0  0  0  0  0  0
  -21.8190   -6.9120   21.4250 O   0  0  0  0  0  0  0  0  0  0  0  0
  -21.7370   -6.2070   22.5990 C   0  0  0  0  0  0  0  0  0  0  0  0
  -21.2710   -6.7990   23.7940 C   0  0  0  0  0  3  0  0  0  0  0  0
  -21.1370   -6.0190   24.9600 C   0  0  0  0  0  3  0  0  0  0  0  0
  -21.4590   -4.6480   24.9320 C   0  0  0  0  0  0  0  0  0  0  0  0
  -21.9180   -4.0570   23.7410 C   0  0  0  0  0  3  0  0  0  0  0  0
  -22.0540   -4.8340   22.5790 C   0  0  0  0  0  0  0  0  0  0  0  0
  -22.4770   -4.2540   21.4290 F   0  0  0  0  0  0  0  0  0  0  0  0
  -21.3240   -3.8970   26.0500 F   0  0  0  0  0  0  0  0  0  0  0  0
  -22.9170  -13.5520   21.2420 C   0  0  0  0  0  0  0  0  0  0  0  0
  -22.2570  -12.8390   22.1460 N   0  0  0  0  0  0  0  0  0  0  0  0
  -22.4430  -14.5880   20.7770 O   0  0  0  0  0  0  0  0  0  0  0  0
  -22.6530  -11.9980   22.5410 H   0  0  0  0  0  0  0  0  0  0  0  0
  -21.3420  -13.1380   22.4500 H   0  0  0  0  0  0  0  0  0  0  0  0
  -25.4740  -15.2480   20.3060 N   0  0  0  0  0  0  0  0  0  0  0  0
  -24.7230  -15.8940   20.5250 H   0  0  0  0  0  0  0  0  0  0  0  0
  -26.3010  -15.7050   19.9400 H   0  0  0  0  0  0  0  0  0  0  0  0
  -30.0530  -20.4970   18.6160 N   0  0  0  0  0  4  0  0  0  0  0  0
  -30.9920  -20.7150   18.8950 H   0  0  0  0  0  0  0  0  0  0  0  0
  -29.7240  -21.2250   18.0070 H   0  0  0  0  0  0  0  0  0  0  0  0
  -30.0700  -19.6390   18.0970 H   0  0  0  0  0  0  0  0  0  0  0  0
  -28.9250  -22.1540   20.4650 C   0  0  0  0  0  3  0  0  0  0  0  0
  -28.1830  -23.8630   19.9870 C   0  0  0  0  0  3  0  0  0  0  0  0
  -28.2210  -25.5500   20.4250 O   0  0  0  0  0  0  0  0  0  0  0  0
  -24.7160  -31.8020   23.2650 C   0  0  0  0  0  0  0  0  0  0  0  0
  -27.2480  -26.7420   20.3090 C   0  0  0  0  0  0  0  0  0  0  0  0
  -23.5330  -30.4100   21.6170 C   0  0  0  0  0  3  0  0  0  0  0  0
  -24.9850  -28.7540   20.2210 C   0  0  0  0  0  0  0  0  0  0  0  0
  -26.1120  -30.5460   21.5180 C   0  0  0  0  0  2  0  0  0  0  0  0
  -26.1730  -29.1160   20.8670 C   0  0  0  0  0  0  0  0  0  0  0  0
  -27.2890  -28.1350   20.8800 C   0  0  0  0  0  3  0  0  0  0  0  0
  -26.0290  -26.5780   19.6030 C   0  0  0  0  0  3  0  0  0  0  0  0
  -24.9490  -27.5110   19.5660 C   0  0  0  0  0  3  0  0  0  0  0  0
  -23.7810  -29.7090   20.2500 C   0  0  0  0  0  2  0  0  0  0  0  0
  -24.8100  -30.9520   22.1860 N   0  0  0  0  0  0  0  0  0  0  0  0
  -23.6210  -32.1100   23.7660 O   0  0  0  0  0  0  0  0  0  0  0  0
  -22.8030  -29.4380   22.5830 C   0  0  0  0  0  0  0  0  0  0  0  0
  -21.4740  -29.2780   22.4310 N   0  0  0  0  0  0  0  0  0  0  0  0
  -23.4440  -28.8270   23.4410 O   0  0  0  0  0  0  0  0  0  0  0  0
  -21.0090  -29.8210   21.7170 H   0  0  0  0  0  0  0  0  0  0  0  0
  -18.0830  -28.0470   22.8630 C   0  0  0  0  0  0  0  0  0  0  0  0
  -20.6320  -28.3480   23.1950 C   0  0  0  0  0  3  0  0  0  0  0  0
  -20.7640  -26.9060   22.6520 C   0  0  0  0  0  2  0  0  0  0  0  0
  -19.6960  -26.5530   21.6120 C   0  0  0  0  0  2  0  0  0  0  0  0
  -18.2950  -26.6910   22.2120 C   0  0  0  0  0  2  0  0  0  0  0  0
  -19.1790  -28.8320   23.3100 C   0  0  0  0  0  0  0  0  0  0  0  0
  -18.9240  -30.0990   23.8820 C   0  0  0  0  0  3  0  0  0  0  0  0
  -17.6070  -30.5800   24.0080 C   0  0  0  0  0  3  0  0  0  0  0  0
  -16.5260  -29.7930   23.5760 C   0  0  0  0  0  3  0  0  0  0  0  0
  -16.7640  -28.5280   23.0090 C   0  0  0  0  0  3  0  0  0  0  0  0
  -25.9790  -32.4410   23.9180 C   0  0  0  0  0  3  0  0  0  0  0  0
  -26.4370  -31.6990   25.2350 C   0  0  1  0  0  0  0  0  0  0  0  0
  -25.3040  -31.5130   26.2720 C   0  0  0  0  0  1  0  0  0  0  0  0
  -27.0060  -30.2980   24.9150 C   0  0  0  0  0  1  0  0  0  0  0  0
  -27.5810  -32.4900   25.9110 C   0  0  0  0  0  1  0  0  0  0  0  0
  -25.6780  -33.8540   24.2200 N   0  0  0  0  0  0  0  0  0  0  0  0
  -26.0270  -34.8990   23.4560 C   0  0  0  0  0  0  0  0  0  0  0  0
  -26.6960  -34.7730   22.4280 O   0  0  0  0  0  0  0  0  0  0  0  0
  -25.0890  -34.0240   25.0230 H   0  0  0  0  0  0  0  0  0  0  0  0
  -24.3170  -36.7130   23.1000 C   0  0  0  0  0  1  0  0  0  0  0  0
  -25.5650  -36.3020   23.9010 C   0  0  0  0  0  3  0  0  0  0  0  0
  -27.7190  -37.1790   24.6910 C   0  0  0  0  0  1  0  0  0  0  0  0
  -26.6090  -37.3420   23.7570 N   0  0  0  0  0  0  0  0  0  0  0  0
  -26.2140  -38.2690   23.8910 H   0  0  0  0  0  0  0  0  0  0  0  0
  1 47  1  0
  2 14  1  0
  3  8  1  0
  4  5  1  0
  4  3  1  0
  6  5  1  0
  6 18  1  0
  6  7  1  0
  8  2  1  0
  8  7  1  0
  9  2  2  0
 11 10  1  0
 12 10  1  0
 13  1  1  0
 13 11  1  0
 14 13  1  0
 14 12  1  0
 15 16  2  0
 16 35  1  0
 17 16  1  0
 17 20  1  0
 18 19  1  0
 18 15  1  0
 19 17  2  0
 20 21  1  0
 21 22  2  0
 23 26  1  0
 23 22  1  0
 24 23  2  0
 25 24  1  0
 25 20  2  0
 26 27  1  0
 27 28  1  0
 28 29  2  0
 30 29  1  0
 30 34  1  0
 31 30  2  0
 32 27  2  0
 32 31  1  0
 33 32  1  0
 35 36  1  0
 36 39  1  0
 36 38  1  0
 37 35  2  0
 40 15  1  0
 40 41  1  0
 42 40  1  0
 43 44  1  0
 43  1  1  0
 45 43  1  0
 46 43  1  0
 48 49  1  0
 48 47  2  0
 50 61  2  0
 51 49  1  0
 51 56  1  0
 52 60  1  0
 52 62  1  0
 53 59  1  0
 53 55  1  0
 54 60  1  0
 55 56  2  0
 55 54  1  0
 57 51  2  0
 58 57  1  0
 58 53  2  0
 59 52  1  0
 60 50  1  0
 62 64  2  0
 63 62  1  0
 65 63  1  0
 66 75  2  0
 66 71  1  0
 67 63  1  0
 67 71  1  0
 68 67  1  0
 69 70  1  0
 69 68  1  0
 70 66  1  0
 71 72  2  0
 72 73  1  0
 74 73  2  0
 75 74  1  0
 76 50  1  0
 76 81  1  0
 76 77  1  0
 77 80  1  1
 77 78  1  0
 79 77  1  0
 81 84  1  0
 82 86  1  0
 82 81  1  0
 83 82  2  0
 86 85  1  0
 88 89  1  0
 88 86  1  0
 88 87  1  0
M  ISO  4   2 100  14 100  48 101  49 101
M  END
>  <TORSDO>  (22) 
F 19

>  <SCORE>  (22) 
-15.803

>  <name>  (22) 
21

>  <ligand_id>  (22) 
21

>  <original_smiles>  (22) 
[H]c1c([H])c([H])c2c(c1[H])C([H])([H])C([H])([H])C([H])([H])C2([H])N([H])C(=O)C1([H])N(C(=O)C([H])(N([H])C(=O)C([H])(N([H])C([H])([H])[H])C([H])([H])[H])C(C([H])([H])[H])(C([H])([H])[H])C([H])([H])[H])C([H])([H])c2c([H])c(OC([H])([H])C([H])([H])C([H])(C3([H])N(C(=O)N4C([H])([H])C([H])([H])C([H])([H])C([H])(n5nc(-c6c([H])c([H])c(Oc7c([H])c([H])c(F)c([H])c7F)c([H])c6[H])c(C(=O)N([H])[H])c5N([H])[H])C4([H])[H])C([H])([H])C([H])([H])C3([H])[H])[N+]([H])([H])[H])c([H])c([H])c2C1([H])[H]

>  <smiles>  (22) 
[H]c1c([H])c([H])c2c(c1[H])C([H])([H])C([H])([H])C([H])([H])C2([H])N([H])C(=O)C1([H])N(C(=O)C([H])(N([H])C(=O)C([H])(N([H])C([H])([H])[H])C([H])([H])[H])C(C([H])([H])[H])(C([H])([H])[H])C([H])([H])[H])C([H])([H])c2c([H])c(OC([H])([H])C([H])([H])C([H])(C3([H])N(C(=O)N4C([H])([H])C([H])([H])C([H])([H])C([H])(n5nc(-c6c([H])c([H])c(Oc7c([H])c([H])c(F)c([H])c7F)c([H])c6[H])c(C(=O)N([H])[H])c5N([H])[H])C4([H])[H])C([H])([H])C([H])([H])C3([H])[H])[N+]([H])([H])[H])c([H])c([H])c2C1([H])[H]

$$$$
22:0:0
     RDKit          3D

 92 99  0  0  1  0  0  0  0  0999 V2000
  -29.0280  -21.5790   20.1170 C   0  0  0  0  0  3  0  0  0  0  0  0
  -28.9490  -21.5160   21.6490 C   0  0  0  0  0  0  0  0  0  0  0  0
  -29.5290  -22.4680   22.3660 N   0  0  0  0  0  0  0  0  0  0  0  0
  -28.3640  -20.5920   22.2070 O   0  0  0  0  0  0  0  0  0  0  0  0
  -29.9760  -23.2520   21.9120 H   0  0  0  0  0  0  0  0  0  0  0  0
  -29.4890  -22.4370   23.3770 H   0  0  0  0  0  0  0  0  0  0  0  0
  -29.2080  -23.2520   19.5870 C   0  0  0  0  0  3  0  0  0  0  0  0
  -28.1680  -24.6450   19.8140 C   0  0  0  0  0  3  0  0  0  0  0  0
  -28.3940  -26.2330   19.6610 O   0  0  0  0  0  0  0  0  0  0  0  0
  -24.7130  -31.8030   23.0320 C   0  0  0  0  0  0  0  0  0  0  0  0
  -27.3320  -27.2470   19.6950 C   0  0  0  0  0  0  0  0  0  0  0  0
  -23.5130  -30.4640   21.3470 C   0  0  0  0  0  3  0  0  0  0  0  0
  -24.9660  -28.9940   19.8060 C   0  0  0  0  0  0  0  0  0  0  0  0
  -26.0590  -30.7840   21.1400 C   0  0  0  0  0  2  0  0  0  0  0  0
  -26.1560  -29.4220   20.4110 C   0  0  0  0  0  0  0  0  0  0  0  0
  -27.3360  -28.5720   20.3280 C   0  0  0  0  0  3  0  0  0  0  0  0
  -26.1100  -26.9520   19.0510 C   0  0  0  0  0  3  0  0  0  0  0  0
  -24.9620  -27.7780   19.1080 C   0  0  0  0  0  3  0  0  0  0  0  0
  -23.7210  -29.8650   19.9310 C   0  0  0  0  0  2  0  0  0  0  0  0
  -24.7840  -31.0400   21.8940 N   0  0  0  0  0  0  0  0  0  0  0  0
  -23.6340  -32.0290   23.6000 O   0  0  0  0  0  0  0  0  0  0  0  0
  -22.8780  -29.3920   22.2720 C   0  0  0  0  0  0  0  0  0  0  0  0
  -21.5590  -29.1640   22.1410 N   0  0  0  0  0  0  0  0  0  0  0  0
  -23.5810  -28.7680   23.0730 O   0  0  0  0  0  0  0  0  0  0  0  0
  -21.0450  -29.7270   21.4790 H   0  0  0  0  0  0  0  0  0  0  0  0
  -18.2490  -27.7480   22.5880 C   0  0  0  0  0  0  0  0  0  0  0  0
  -20.7860  -28.1550   22.8760 C   0  0  0  0  0  3  0  0  0  0  0  0
  -20.9710  -26.7490   22.2590 C   0  0  0  0  0  2  0  0  0  0  0  0
  -19.8960  -26.3950   21.2260 C   0  0  0  0  0  2  0  0  0  0  0  0
  -18.5070  -26.4360   21.8670 C   0  0  0  0  0  2  0  0  0  0  0  0
  -19.3170  -28.5630   23.0470 C   0  0  0  0  0  0  0  0  0  0  0  0
  -19.0210  -29.7870   23.6840 C   0  0  0  0  0  3  0  0  0  0  0  0
  -17.6870  -30.2020   23.8590 C   0  0  0  0  0  3  0  0  0  0  0  0
  -16.6330  -29.3860   23.4120 C   0  0  0  0  0  3  0  0  0  0  0  0
  -16.9150  -28.1600   22.7850 C   0  0  0  0  0  3  0  0  0  0  0  0
  -25.9860  -32.4440   23.6640 C   0  0  0  0  0  3  0  0  0  0  0  0
  -26.5330  -31.6370   24.9060 C   0  0  1  0  0  0  0  0  0  0  0  0
  -25.4590  -31.3390   25.9800 C   0  0  0  0  0  1  0  0  0  0  0  0
  -27.1370  -30.2860   24.4620 C   0  0  0  0  0  1  0  0  0  0  0  0
  -27.6800  -32.4270   25.5800 C   0  0  0  0  0  1  0  0  0  0  0  0
  -25.6500  -33.8200   24.0640 N   0  0  0  0  0  0  0  0  0  0  0  0
  -25.9500  -34.9170   23.3560 C   0  0  0  0  0  0  0  0  0  0  0  0
  -26.6070  -34.8790   22.3130 O   0  0  0  0  0  0  0  0  0  0  0  0
  -25.0660  -33.9220   24.8810 H   0  0  0  0  0  0  0  0  0  0  0  0
  -24.1820  -36.6920   23.1120 C   0  0  0  0  0  1  0  0  0  0  0  0
  -25.4430  -36.2740   23.8880 C   0  0  0  0  0  3  0  0  0  0  0  0
  -27.5690  -37.1630   24.7400 C   0  0  0  0  0  1  0  0  0  0  0  0
  -26.4550  -37.3520   23.8120 N   0  0  0  0  0  0  0  0  0  0  0  0
  -26.0340  -38.2570   24.0040 H   0  0  0  0  0  0  0  0  0  0  0  0
  -29.7480  -20.0800   19.5300 C   0  0  0  0  0  2  0  0  0  0  0  0
  -30.1180  -18.5190   20.2740 C   0  0  0  0  0  3  0  0  0  0  0  0
  -31.4070  -18.6560   20.9820 N   0  0  0  0  0  4  0  0  0  0  0  0
  -32.1750  -18.7100   20.3340 H   0  0  0  0  0  0  0  0  0  0  0  0
  -31.5670  -17.8790   21.6000 H   0  0  0  0  0  0  0  0  0  0  0  0
  -31.4100  -19.4890   21.5420 H   0  0  0  0  0  0  0  0  0  0  0  0
  -29.9940  -16.8950   19.6170 C   0  0  0  0  0  2  0  0  0  0  0  0
  -30.8440  -15.4090   19.7840 C   0  0  0  0  0  0  0  0  0  0  0  0
  -30.7600  -12.9770   18.9720 C   0  0  0  0  0  2  0  0  0  0  0  0
  -29.7760  -12.8190   17.7860 C   0  0  0  0  0  2  0  0  0  0  0  0
  -28.3350  -12.6050   18.2850 C   0  0  0  0  0  2  0  0  0  0  0  0
  -27.9590  -13.5810   19.4270 C   0  0  0  0  0  3  0  0  0  0  0  0
  -29.0560  -13.6900   20.5000 C   0  0  0  0  0  2  0  0  0  0  0  0
  -30.2900  -14.1140   19.8270 N   0  0  0  0  0  0  0  0  0  0  0  0
  -32.0620  -15.4200   19.5560 O   0  0  0  0  0  0  0  0  0  0  0  0
  -25.6480  -14.1860   20.3340 C   0  0  0  0  0  0  0  0  0  0  0  0
  -24.5920  -13.4270   20.7530 C   0  0  0  0  0  0  0  0  0  0  0  0
  -25.0210  -12.0670   20.6620 C   0  0  0  0  0  0  0  0  0  0  0  0
  -26.6520  -13.2920   20.0050 N   0  0  0  0  0  0  0  0  0  0  0  0
  -26.2900  -12.0100   20.2720 N   0  0  0  0  0  0  0  0  0  0  0  0
  -24.2750  -10.8170   20.8630 C   0  0  0  0  0  0  0  0  0  0  0  0
  -24.6880   -9.8530   21.8090 C   0  0  0  0  0  3  0  0  0  0  0  0
  -23.9420   -8.6700   22.0000 C   0  0  0  0  0  3  0  0  0  0  0  0
  -22.7650   -8.4450   21.2470 C   0  0  0  0  0  0  0  0  0  0  0  0
  -22.3720   -9.3950   20.2880 C   0  0  0  0  0  3  0  0  0  0  0  0
  -23.1190  -10.5690   20.0940 C   0  0  0  0  0  3  0  0  0  0  0  0
  -21.9950   -7.3120   21.3460 O   0  0  0  0  0  0  0  0  0  0  0  0
  -21.8710   -6.6250   22.5270 C   0  0  0  0  0  0  0  0  0  0  0  0
  -21.3520   -7.2330   23.6910 C   0  0  0  0  0  3  0  0  0  0  0  0
  -21.1750   -6.4710   24.8640 C   0  0  0  0  0  3  0  0  0  0  0  0
  -21.5110   -5.1040   24.8730 C   0  0  0  0  0  0  0  0  0  0  0  0
  -22.0240   -4.4970   23.7140 C   0  0  0  0  0  3  0  0  0  0  0  0
  -22.2010   -5.2550   22.5430 C   0  0  0  0  0  0  0  0  0  0  0  0
  -22.6770   -4.6590   21.4230 F   0  0  0  0  0  0  0  0  0  0  0  0
  -21.3370   -4.3710   25.9970 F   0  0  0  0  0  0  0  0  0  0  0  0
  -23.2230  -13.9280   21.1120 C   0  0  0  0  0  0  0  0  0  0  0  0
  -22.5400  -13.2410   22.0180 N   0  0  0  0  0  0  0  0  0  0  0  0
  -22.7740  -14.9640   20.6220 O   0  0  0  0  0  0  0  0  0  0  0  0
  -22.9270  -12.4090   22.4410 H   0  0  0  0  0  0  0  0  0  0  0  0
  -21.6170  -13.5440   22.2910 H   0  0  0  0  0  0  0  0  0  0  0  0
  -25.8290  -15.5540   20.1680 N   0  0  0  0  0  0  0  0  0  0  0  0
  -25.0540  -16.2010   20.2660 H   0  0  0  0  0  0  0  0  0  0  0  0
  -26.6310  -15.9650   19.7100 H   0  0  0  0  0  0  0  0  0  0  0  0
  1 50  1  0
  1  2  1  0
  2  4  2  0
  2  3  1  0
  3  6  1  0
  5  3  1  0
  7  8  2  0
  7  1  1  0
  9 11  1  0
  9  8  1  0
 10 21  2  0
 11 16  1  0
 12 20  1  0
 12 22  1  0
 13 19  1  0
 13 15  1  0
 14 20  1  0
 15 14  1  0
 16 15  2  0
 17 18  1  0
 17 11  2  0
 18 13  2  0
 19 12  1  0
 20 10  1  0
 22 24  2  0
 23 22  1  0
 25 23  1  0
 26 35  2  0
 26 31  1  0
 27 23  1  0
 27 31  1  0
 28 27  1  0
 29 30  1  0
 29 28  1  0
 30 26  1  0
 31 32  2  0
 32 33  1  0
 34 33  2  0
 35 34  1  0
 36 10  1  0
 36 41  1  0
 36 37  1  0
 37 40  1  1
 37 38  1  0
 39 37  1  0
 41 44  1  0
 42 46  1  0
 42 41  1  0
 43 42  2  0
 46 45  1  0
 48 46  1  0
 48 49  1  0
 48 47  1  0
 51 50  1  0
 51 52  1  0
 52 55  1  0
 52 54  1  0
 53 52  1  0
 56 57  1  0
 56 51  1  0
 57 63  1  0
 58 63  1  0
 59 60  1  0
 59 58  1  0
 61 60  1  0
 61 68  1  0
 61 62  1  0
 63 62  1  0
 64 57  2  0
 65 66  2  0
 66 85  1  0
 67 66  1  0
 67 70  1  0
 68 69  1  0
 68 65  1  0
 69 67  2  0
 70 71  1  0
 71 72  2  0
 73 76  1  0
 73 72  1  0
 74 73  2  0
 75 74  1  0
 75 70  2  0
 76 77  1  0
 77 82  2  0
 77 78  1  0
 78 79  2  0
 79 80  1  0
 80 84  1  0
 81 80  2  0
 82 81  1  0
 83 82  1  0
 85 86  1  0
 86 89  1  0
 86 88  1  0
 87 85  2  0
 90 91  1  0
 90 65  1  0
 92 90  1  0
M  ISO  4   8 101   9 101  56 100  57 100
M  END
>  <TORSDO>  (23) 
F 23

>  <SCORE>  (23) 
-13.866

>  <name>  (23) 
22

>  <ligand_id>  (23) 
22

>  <original_smiles>  (23) 
[H]c1c([H])c([H])c2c(c1[H])C([H])([H])C([H])([H])C([H])([H])C2([H])N([H])C(=O)C1([H])N(C(=O)C([H])(N([H])C(=O)C([H])(N([H])C([H])([H])[H])C([H])([H])[H])C(C([H])([H])[H])(C([H])([H])[H])C([H])([H])[H])C([H])([H])c2c([H])c(OC([H])([H])C([H])([H])C([H])(C(=O)N([H])[H])C([H])([H])C([H])(C([H])([H])C(=O)N3C([H])([H])C([H])([H])C([H])([H])C([H])(n4nc(-c5c([H])c([H])c(Oc6c([H])c([H])c(F)c([H])c6F)c([H])c5[H])c(C(=O)N([H])[H])c4N([H])[H])C3([H])[H])[N+]([H])([H])[H])c([H])c([H])c2C1([H])[H]

>  <smiles>  (23) 
[H]c1c([H])c([H])c2c(c1[H])C([H])([H])C([H])([H])C([H])([H])C2([H])N([H])C(=O)C1([H])N(C(=O)C([H])(N([H])C(=O)C([H])(N([H])C([H])([H])[H])C([H])([H])[H])C(C([H])([H])[H])(C([H])([H])[H])C([H])([H])[H])C([H])([H])c2c([H])c(OC([H])([H])C([H])([H])C([H])(C(=O)N([H])[H])C([H])([H])C([H])(C([H])([H])C(=O)N3C([H])([H])C([H])([H])C([H])([H])C([H])(n4nc(-c5c([H])c([H])c(Oc6c([H])c([H])c(F)c([H])c6F)c([H])c5[H])c(C(=O)N([H])[H])c4N([H])[H])C3([H])[H])[N+]([H])([H])[H])c([H])c([H])c2C1([H])[H]

$$$$
23:0:0
     RDKit          3D

 90 97  0  0  1  0  0  0  0  0999 V2000
  -27.8810  -19.8280   21.0620 C   0  0  0  0  0  1  0  0  0  0  0  0
  -28.9760  -20.4500   20.2830 N   0  0  1  0  0  4  0  0  0  0  0  0
  -28.5510  -20.6000   19.3800 H   0  0  0  0  0  0  0  0  0  0  0  0
  -29.2150  -21.9710   20.7590 C   0  0  0  0  0  2  0  0  0  0  0  0
  -28.6280  -23.3770   20.0100 C   0  0  0  0  0  2  0  0  0  0  0  0
  -28.3260  -24.8560   20.7790 C   0  0  0  0  0  2  0  0  0  0  0  0
  -28.4220  -26.3250   20.2680 O   0  0  0  0  0  0  0  0  0  0  0  0
  -24.6410  -31.9420   23.2390 C   0  0  0  0  0  0  0  0  0  0  0  0
  -27.3290  -27.2600   20.2760 C   0  0  0  0  0  0  0  0  0  0  0  0
  -23.4850  -30.5210   21.5900 C   0  0  0  0  0  3  0  0  0  0  0  0
  -24.9740  -28.9590   20.1960 C   0  0  0  0  0  0  0  0  0  0  0  0
  -26.0350  -30.8280   21.4550 C   0  0  0  0  0  2  0  0  0  0  0  0
  -26.1390  -29.4330   20.8140 C   0  0  0  0  0  0  0  0  0  0  0  0
  -27.3200  -28.6030   20.8280 C   0  0  0  0  0  3  0  0  0  0  0  0
  -26.1380  -26.8750   19.6290 C   0  0  0  0  0  3  0  0  0  0  0  0
  -24.9860  -27.6930   19.5860 C   0  0  0  0  0  3  0  0  0  0  0  0
  -23.7340  -29.8380   20.2180 C   0  0  0  0  0  2  0  0  0  0  0  0
  -24.7400  -31.1210   22.1490 N   0  0  0  0  0  0  0  0  0  0  0  0
  -23.5450  -32.2110   23.7510 O   0  0  0  0  0  0  0  0  0  0  0  0
  -22.8100  -29.5080   22.5480 C   0  0  0  0  0  0  0  0  0  0  0  0
  -21.4850  -29.3200   22.4050 N   0  0  0  0  0  0  0  0  0  0  0  0
  -23.4790  -28.8940   23.3810 O   0  0  0  0  0  0  0  0  0  0  0  0
  -21.0010  -29.8680   21.7080 H   0  0  0  0  0  0  0  0  0  0  0  0
  -18.1110  -28.0920   22.8830 C   0  0  0  0  0  0  0  0  0  0  0  0
  -20.6650  -28.3740   23.1670 C   0  0  0  0  0  3  0  0  0  0  0  0
  -20.7820  -26.9450   22.5870 C   0  0  0  0  0  2  0  0  0  0  0  0
  -19.6890  -26.6170   21.5660 C   0  0  0  0  0  2  0  0  0  0  0  0
  -18.3030  -26.7480   22.2010 C   0  0  0  0  0  2  0  0  0  0  0  0
  -19.2200  -28.8620   23.3220 C   0  0  0  0  0  0  0  0  0  0  0  0
  -18.9870  -30.1210   23.9210 C   0  0  0  0  0  3  0  0  0  0  0  0
  -17.6770  -30.6080   24.0840 C   0  0  0  0  0  3  0  0  0  0  0  0
  -16.5810  -29.8350   23.6600 C   0  0  0  0  0  3  0  0  0  0  0  0
  -16.8000  -28.5780   23.0660 C   0  0  0  0  0  3  0  0  0  0  0  0
  -25.9010  -32.5970   23.8820 C   0  0  0  0  0  3  0  0  0  0  0  0
  -25.5730  -34.0010   24.1800 N   0  0  0  0  0  0  0  0  0  0  0  0
  -25.9120  -35.0460   23.4140 C   0  0  0  0  0  0  0  0  0  0  0  0
  -26.6030  -34.9310   22.3980 O   0  0  0  0  0  0  0  0  0  0  0  0
  -24.9580  -34.1620   24.9650 H   0  0  0  0  0  0  0  0  0  0  0  0
  -24.1870  -36.8310   23.0010 C   0  0  0  0  0  1  0  0  0  0  0  0
  -25.4110  -36.4400   23.8430 C   0  0  0  0  0  3  0  0  0  0  0  0
  -27.5190  -37.3540   24.7130 C   0  0  0  0  0  1  0  0  0  0  0  0
  -26.4420  -37.4960   23.7360 N   0  0  0  0  0  0  0  0  0  0  0  0
  -26.0280  -38.4170   23.8520 H   0  0  0  0  0  0  0  0  0  0  0  0
  -26.3860  -31.8570   25.1900 C   0  0  1  0  0  0  0  0  0  0  0  0
  -25.2620  -31.6340   26.2300 C   0  0  0  0  0  1  0  0  0  0  0  0
  -26.9900  -30.4750   24.8490 C   0  0  0  0  0  1  0  0  0  0  0  0
  -27.5080  -32.6760   25.8690 C   0  0  0  0  0  1  0  0  0  0  0  0
  -30.0820  -19.3540   19.9000 C   0  0  0  0  0  3  0  0  0  0  0  0
  -31.5920  -20.9230   18.5190 C   0  0  0  0  0  1  0  0  0  0  0  0
  -31.4970  -20.0390   19.7850 C   0  0  0  0  0  3  0  0  0  0  0  0
  -34.0830  -19.8250   19.8730 C   0  0  0  0  0  1  0  0  0  0  0  0
  -32.7280  -19.0940   19.8410 C   0  0  0  0  0  2  0  0  0  0  0  0
  -30.0370  -16.5080   19.9020 C   0  0  0  0  0  2  0  0  0  0  0  0
  -30.2760  -17.7930   20.4670 C   0  0  0  0  0  2  0  0  0  0  0  0
  -30.7530  -15.1440   20.1590 C   0  0  0  0  0  0  0  0  0  0  0  0
  -30.5630  -12.7920   19.2260 C   0  0  0  0  0  2  0  0  0  0  0  0
  -29.6150  -12.7460   18.0080 C   0  0  0  0  0  2  0  0  0  0  0  0
  -28.1550  -12.5510   18.4580 C   0  0  0  0  0  2  0  0  0  0  0  0
  -27.7710  -13.4740   19.6440 C   0  0  0  0  0  3  0  0  0  0  0  0
  -28.8470  -13.5090   20.7430 C   0  0  0  0  0  2  0  0  0  0  0  0
  -30.1060  -13.9080   20.1020 N   0  0  0  0  0  0  0  0  0  0  0  0
  -31.9810  -15.0960   20.0290 O   0  0  0  0  0  0  0  0  0  0  0  0
  -25.4230  -14.0540   20.4700 C   0  0  0  0  0  0  0  0  0  0  0  0
  -24.3600  -13.2830   20.8550 C   0  0  0  0  0  0  0  0  0  0  0  0
  -24.8130  -11.9280   20.7930 C   0  0  0  0  0  0  0  0  0  0  0  0
  -26.4480  -13.1710   20.1810 N   0  0  0  0  0  0  0  0  0  0  0  0
  -26.0950  -11.8870   20.4470 N   0  0  0  0  0  0  0  0  0  0  0  0
  -24.0780  -10.6720   20.9840 C   0  0  0  0  0  0  0  0  0  0  0  0
  -24.4980   -9.7030   21.9230 C   0  0  0  0  0  3  0  0  0  0  0  0
  -23.7640   -8.5090   22.0980 C   0  0  0  0  0  3  0  0  0  0  0  0
  -22.5930   -8.2760   21.3380 C   0  0  0  0  0  0  0  0  0  0  0  0
  -22.1910   -9.2340   20.3910 C   0  0  0  0  0  3  0  0  0  0  0  0
  -22.9270  -10.4180   20.2110 C   0  0  0  0  0  3  0  0  0  0  0  0
  -21.8290   -7.1370   21.4260 O   0  0  0  0  0  0  0  0  0  0  0  0
  -21.7490   -6.4120   22.5880 C   0  0  0  0  0  0  0  0  0  0  0  0
  -21.2560   -6.9750   23.7850 C   0  0  0  0  0  3  0  0  0  0  0  0
  -21.1250   -6.1720   24.9360 C   0  0  0  0  0  3  0  0  0  0  0  0
  -21.4770   -4.8100   24.8930 C   0  0  0  0  0  0  0  0  0  0  0  0
  -21.9630   -4.2470   23.7000 C   0  0  0  0  0  3  0  0  0  0  0  0
  -22.0950   -5.0450   22.5500 C   0  0  0  0  0  0  0  0  0  0  0  0
  -22.5450   -4.4930   21.3970 F   0  0  0  0  0  0  0  0  0  0  0  0
  -21.3440   -4.0400   25.9970 F   0  0  0  0  0  0  0  0  0  0  0  0
  -22.9760  -13.7710   21.1630 C   0  0  0  0  0  0  0  0  0  0  0  0
  -22.2550  -13.0690   22.0320 N   0  0  0  0  0  0  0  0  0  0  0  0
  -22.5430  -14.8110   20.6680 O   0  0  0  0  0  0  0  0  0  0  0  0
  -22.6220  -12.2320   22.4590 H   0  0  0  0  0  0  0  0  0  0  0  0
  -21.3240  -13.3780   22.2720 H   0  0  0  0  0  0  0  0  0  0  0  0
  -25.5990  -15.4250   20.3140 N   0  0  0  0  0  0  0  0  0  0  0  0
  -24.8470  -16.0890   20.4630 H   0  0  0  0  0  0  0  0  0  0  0  0
  -26.4510  -15.8570   19.9800 H   0  0  0  0  0  0  0  0  0  0  0  0
  2  4  1  0
  2  1  1  0
  2  3  1  6
  5  4  1  0
  5  6  1  0
  7  9  1  0
  7  6  1  0
  8 19  2  0
  9 14  1  0
 10 18  1  0
 10 20  1  0
 11 17  1  0
 11 13  1  0
 12 18  1  0
 13 14  2  0
 13 12  1  0
 15  9  2  0
 16 15  1  0
 16 11  2  0
 17 10  1  0
 18  8  1  0
 20 22  2  0
 21 20  1  0
 23 21  1  0
 24 33  2  0
 24 29  1  0
 25 21  1  0
 25 29  1  0
 26 25  1  0
 27 28  1  0
 27 26  1  0
 28 24  1  0
 29 30  2  0
 30 31  1  0
 32 31  2  0
 33 32  1  0
 34  8  1  0
 34 35  1  0
 34 44  1  0
 35 38  1  0
 36 40  1  0
 36 35  1  0
 37 36  2  0
 40 39  1  0
 42 40  1  0
 42 43  1  0
 42 41  1  0
 44 47  1  1
 44 45  1  0
 46 44  1  0
 48  2  1  0
 48 54  1  0
 50 49  1  0
 50 52  1  0
 50 48  1  0
 52 51  1  0
 53 55  1  0
 53 54  1  0
 56 61  1  0
 57 58  1  0
 57 56  1  0
 59 58  1  0
 59 66  1  0
 59 60  1  0
 61 55  1  0
 61 60  1  0
 62 55  2  0
 63 64  2  0
 64 83  1  0
 65 64  1  0
 65 68  1  0
 66 67  1  0
 66 63  1  0
 67 65  2  0
 68 69  1  0
 69 70  2  0
 71 74  1  0
 71 70  1  0
 72 71  2  0
 73 72  1  0
 73 68  2  0
 74 75  1  0
 75 76  1  0
 76 77  2  0
 78 77  1  0
 78 82  1  0
 79 78  2  0
 80 75  2  0
 80 79  1  0
 81 80  1  0
 83 84  1  0
 84 87  1  0
 84 86  1  0
 85 83  2  0
 88 89  1  0
 88 63  1  0
 90 88  1  0
M  ISO  4   6 101   7 101  53 100  55 100
M  END
>  <TORSDO>  (24) 
F 23

>  <SCORE>  (24) 
-13.034

>  <name>  (24) 
23

>  <ligand_id>  (24) 
23

>  <original_smiles>  (24) 
[H]C(C(=O)N1C([H])([H])C([H])([H])C([H])([H])C([H])(n2nc(-c3c([H])c([H])c(Oc4c([H])c([H])c(F)c([H])c4F)c([H])c3[H])c(C(=O)N([H])[H])c2N([H])[H])C1([H])[H])=C([H])C([H])(C([H])(C([H])([H])[H])C([H])([H])C([H])([H])[H])[N+]([H])(C([H])([H])[H])C([H])([H])C([H])([H])C([H])([H])Oc1c([H])c([H])c2c(c1[H])C([H])([H])N(C(=O)C([H])(N([H])C(=O)C([H])(N([H])C([H])([H])[H])C([H])([H])[H])C(C([H])([H])[H])(C([H])([H])[H])C([H])([H])[H])C([H])(C(=O)N([H])C1([H])c3c([H])c([H])c([H])c([H])c3C([H])([H])C([H])([H])C1([H])[H])C2([H])[H]

>  <smiles>  (24) 
[H]C(C(=O)N1C([H])([H])C([H])([H])C([H])([H])C([H])(n2nc(-c3c([H])c([H])c(Oc4c([H])c([H])c(F)c([H])c4F)c([H])c3[H])c(C(=O)N([H])[H])c2N([H])[H])C1([H])[H])=C([H])C([H])(C([H])(C([H])([H])[H])C([H])([H])C([H])([H])[H])[N+]([H])(C([H])([H])[H])C([H])([H])C([H])([H])C([H])([H])Oc1c([H])c([H])c2c(c1[H])C([H])([H])N(C(=O)C([H])(N([H])C(=O)C([H])(N([H])C([H])([H])[H])C([H])([H])[H])C(C([H])([H])[H])(C([H])([H])[H])C([H])([H])[H])C([H])(C(=O)N([H])C1([H])c3c([H])c([H])c([H])c([H])c3C([H])([H])C([H])([H])C1([H])[H])C2([H])[H]

$$$$
24:0:0
     RDKit          3D

 92 99  0  0  1  0  0  0  0  0999 V2000
  -28.6640  -23.0050   19.9400 C   0  0  0  0  0  3  0  0  0  0  0  0
  -29.8090  -23.3660   19.0760 N   0  0  0  0  0  4  0  0  0  0  0  0
  -30.6270  -23.5750   19.6220 H   0  0  0  0  0  0  0  0  0  0  0  0
  -29.5810  -24.1910   18.5480 H   0  0  0  0  0  0  0  0  0  0  0  0
  -30.0350  -22.6360   18.4230 H   0  0  0  0  0  0  0  0  0  0  0  0
  -29.0220  -21.4380   20.6840 C   0  0  0  0  0  2  0  0  0  0  0  0
  -28.8870  -19.8150   20.1200 C   0  0  0  0  0  0  0  0  0  0  0  0
  -27.8740  -19.6330   19.4400 O   0  0  0  0  0  0  0  0  0  0  0  0
  -29.9280  -18.4000   20.3360 C   0  0  0  0  0  3  0  0  0  0  0  0
  -32.1580  -18.3980   21.4390 C   0  0  0  0  0  1  0  0  0  0  0  0
  -30.7120  -18.6760   21.5610 N   0  0  0  0  0  4  0  0  0  0  0  0
  -30.6200  -19.6540   21.7820 H   0  0  0  0  0  0  0  0  0  0  0  0
  -30.3270  -18.1650   22.3380 H   0  0  0  0  0  0  0  0  0  0  0  0
  -29.4710  -16.6960   20.2980 C   0  0  0  0  0  2  0  0  0  0  0  0
  -30.3590  -15.2350   20.0680 C   0  0  0  0  0  0  0  0  0  0  0  0
  -30.3260  -12.8360   19.1340 C   0  0  0  0  0  2  0  0  0  0  0  0
  -29.3480  -12.7200   17.9350 C   0  0  0  0  0  2  0  0  0  0  0  0
  -27.9130  -12.4480   18.4210 C   0  0  0  0  0  2  0  0  0  0  0  0
  -27.5160  -13.3680   19.6020 C   0  0  0  0  0  3  0  0  0  0  0  0
  -28.6090  -13.4380   20.6880 C   0  0  0  0  0  2  0  0  0  0  0  0
  -29.8380  -13.9230   20.0460 N   0  0  0  0  0  0  0  0  0  0  0  0
  -31.5540  -15.2940   19.7470 O   0  0  0  0  0  0  0  0  0  0  0  0
  -25.1700  -13.8950   20.4570 C   0  0  0  0  0  0  0  0  0  0  0  0
  -24.1300  -13.1020   20.8540 C   0  0  0  0  0  0  0  0  0  0  0  0
  -24.6090  -11.7580   20.7820 C   0  0  0  0  0  0  0  0  0  0  0  0
  -26.2090  -13.0360   20.1540 N   0  0  0  0  0  0  0  0  0  0  0  0
  -25.8870  -11.7430   20.4180 N   0  0  0  0  0  0  0  0  0  0  0  0
  -23.9030  -10.4850   20.9800 C   0  0  0  0  0  0  0  0  0  0  0  0
  -24.3580   -9.5210   21.9050 C   0  0  0  0  0  3  0  0  0  0  0  0
  -23.6500   -8.3140   22.0900 C   0  0  0  0  0  3  0  0  0  0  0  0
  -22.4690   -8.0640   21.3510 C   0  0  0  0  0  0  0  0  0  0  0  0
  -22.0330   -9.0160   20.4130 C   0  0  0  0  0  3  0  0  0  0  0  0
  -22.7430  -10.2150   20.2260 C   0  0  0  0  0  3  0  0  0  0  0  0
  -21.7290   -6.9110   21.4470 O   0  0  0  0  0  0  0  0  0  0  0  0
  -21.6890   -6.1770   22.6050 C   0  0  0  0  0  0  0  0  0  0  0  0
  -21.2300   -6.7280   23.8210 C   0  0  0  0  0  3  0  0  0  0  0  0
  -21.1390   -5.9180   24.9710 C   0  0  0  0  0  3  0  0  0  0  0  0
  -21.4960   -4.5570   24.9040 C   0  0  0  0  0  0  0  0  0  0  0  0
  -21.9470   -4.0060   23.6920 C   0  0  0  0  0  3  0  0  0  0  0  0
  -22.0400   -4.8130   22.5450 C   0  0  0  0  0  0  0  0  0  0  0  0
  -22.4550   -4.2720   21.3740 F   0  0  0  0  0  0  0  0  0  0  0  0
  -21.4010   -3.7750   26.0060 F   0  0  0  0  0  0  0  0  0  0  0  0
  -22.7400  -13.5600   21.1860 C   0  0  0  0  0  0  0  0  0  0  0  0
  -22.0500  -12.8410   22.0630 N   0  0  0  0  0  0  0  0  0  0  0  0
  -22.2770  -14.5930   20.7020 O   0  0  0  0  0  0  0  0  0  0  0  0
  -22.4390  -12.0040   22.4730 H   0  0  0  0  0  0  0  0  0  0  0  0
  -21.1200  -13.1310   22.3290 H   0  0  0  0  0  0  0  0  0  0  0  0
  -25.3110  -15.2710   20.2990 N   0  0  0  0  0  0  0  0  0  0  0  0
  -24.5380  -15.9090   20.4480 H   0  0  0  0  0  0  0  0  0  0  0  0
  -26.1360  -15.7280   19.9350 H   0  0  0  0  0  0  0  0  0  0  0  0
  -28.1080  -24.5180   20.6530 C   0  0  0  0  0  2  0  0  0  0  0  0
  -28.2530  -26.0730   20.2350 O   0  0  0  0  0  0  0  0  0  0  0  0
  -24.6610  -31.9340   23.2410 C   0  0  0  0  0  0  0  0  0  0  0  0
  -27.2040  -27.1040   20.2460 C   0  0  0  0  0  0  0  0  0  0  0  0
  -23.4570  -30.5410   21.6050 C   0  0  0  0  0  3  0  0  0  0  0  0
  -24.8960  -28.9310   20.1950 C   0  0  0  0  0  0  0  0  0  0  0  0
  -26.0180  -30.7680   21.4420 C   0  0  0  0  0  2  0  0  0  0  0  0
  -26.0830  -29.3580   20.8020 C   0  0  0  0  0  0  0  0  0  0  0  0
  -27.2370  -28.4650   20.7990 C   0  0  0  0  0  3  0  0  0  0  0  0
  -25.9880  -26.8060   19.5940 C   0  0  0  0  0  3  0  0  0  0  0  0
  -24.8660  -27.6740   19.5730 C   0  0  0  0  0  3  0  0  0  0  0  0
  -23.6780  -29.8500   20.2320 C   0  0  0  0  0  2  0  0  0  0  0  0
  -24.7330  -31.1060   22.1510 N   0  0  0  0  0  0  0  0  0  0  0  0
  -23.5750  -32.2250   23.7670 O   0  0  0  0  0  0  0  0  0  0  0  0
  -22.7660  -29.5460   22.5730 C   0  0  0  0  0  0  0  0  0  0  0  0
  -21.4360  -29.3800   22.4480 N   0  0  0  0  0  0  0  0  0  0  0  0
  -23.4330  -28.9230   23.4030 O   0  0  0  0  0  0  0  0  0  0  0  0
  -20.9500  -29.9410   21.7620 H   0  0  0  0  0  0  0  0  0  0  0  0
  -18.0520  -28.1740   22.9490 C   0  0  0  0  0  0  0  0  0  0  0  0
  -20.6110  -28.4450   23.2210 C   0  0  0  0  0  3  0  0  0  0  0  0
  -20.7150  -27.0070   22.6560 C   0  0  0  0  0  2  0  0  0  0  0  0
  -19.6170  -26.6760   21.6420 C   0  0  0  0  0  2  0  0  0  0  0  0
  -18.2330  -26.8240   22.2790 C   0  0  0  0  0  2  0  0  0  0  0  0
  -19.1680  -28.9420   23.3780 C   0  0  0  0  0  0  0  0  0  0  0  0
  -18.9430  -30.2040   23.9680 C   0  0  0  0  0  3  0  0  0  0  0  0
  -17.6360  -30.7010   24.1300 C   0  0  0  0  0  3  0  0  0  0  0  0
  -16.5350  -29.9320   23.7160 C   0  0  0  0  0  3  0  0  0  0  0  0
  -16.7430  -28.6700   23.1320 C   0  0  0  0  0  3  0  0  0  0  0  0
  -25.9380  -32.5700   23.8700 C   0  0  0  0  0  3  0  0  0  0  0  0
  -26.4360  -31.8120   25.1620 C   0  0  1  0  0  0  0  0  0  0  0  0
  -25.3320  -31.5990   26.2250 C   0  0  0  0  0  1  0  0  0  0  0  0
  -27.0090  -30.4250   24.7950 C   0  0  0  0  0  1  0  0  0  0  0  0
  -27.5900  -32.6040   25.8230 C   0  0  0  0  0  1  0  0  0  0  0  0
  -25.6340  -33.9750   24.1890 N   0  0  0  0  0  0  0  0  0  0  0  0
  -25.9770  -35.0240   23.4330 C   0  0  0  0  0  0  0  0  0  0  0  0
  -26.6470  -34.9130   22.4030 O   0  0  0  0  0  0  0  0  0  0  0  0
  -25.0470  -34.1360   24.9950 H   0  0  0  0  0  0  0  0  0  0  0  0
  -24.2740  -36.8420   23.0740 C   0  0  0  0  0  1  0  0  0  0  0  0
  -25.5070  -36.4210   23.8900 C   0  0  0  0  0  3  0  0  0  0  0  0
  -27.6460  -37.2870   24.7280 C   0  0  0  0  0  1  0  0  0  0  0  0
  -26.5510  -37.4610   23.7790 N   0  0  0  0  0  0  0  0  0  0  0  0
  -26.1540  -38.3860   23.9200 H   0  0  0  0  0  0  0  0  0  0  0  0
  1 51  1  0
  1  6  1  0
  2  3  1  0
  2  1  1  0
  4  2  1  0
  5  2  1  0
  7  9  1  0
  7  6  1  0
  8  7  2  0
  9 14  1  0
  9 11  1  0
 10 11  1  0
 11 12  1  0
 11 13  1  0
 15 14  1  0
 16 21  1  0
 17 18  1  0
 17 16  1  0
 19 18  1  0
 19 26  1  0
 19 20  1  0
 21 15  1  0
 21 20  1  0
 22 15  2  0
 23 24  2  0
 24 43  1  0
 25 24  1  0
 25 28  1  0
 26 27  1  0
 26 23  1  0
 27 25  2  0
 28 29  1  0
 29 30  2  0
 31 34  1  0
 31 30  1  0
 32 31  2  0
 33 32  1  0
 33 28  2  0
 34 35  1  0
 35 36  1  0
 36 37  2  0
 38 37  1  0
 38 42  1  0
 39 38  2  0
 40 35  2  0
 40 39  1  0
 41 40  1  0
 43 44  1  0
 44 47  1  0
 44 46  1  0
 45 43  2  0
 48 49  1  0
 48 23  1  0
 50 48  1  0
 52 54  1  0
 52 51  1  0
 53 64  2  0
 54 59  1  0
 55 63  1  0
 55 65  1  0
 56 62  1  0
 56 58  1  0
 57 63  1  0
 58 57  1  0
 59 58  2  0
 60 54  2  0
 61 60  1  0
 61 56  2  0
 62 55  1  0
 63 53  1  0
 65 67  2  0
 66 65  1  0
 68 66  1  0
 69 78  2  0
 69 74  1  0
 70 66  1  0
 70 74  1  0
 71 70  1  0
 72 73  1  0
 72 71  1  0
 73 69  1  0
 74 75  2  0
 75 76  1  0
 77 76  2  0
 78 77  1  0
 79 53  1  0
 79 84  1  0
 79 80  1  0
 80 83  1  1
 80 81  1  0
 82 80  1  0
 84 87  1  0
 85 89  1  0
 85 84  1  0
 86 85  2  0
 89 88  1  0
 91 89  1  0
 91 92  1  0
 91 90  1  0
M  ISO  4  14 100  15 100  51 101  52 101
M  END
>  <TORSDO>  (25) 
F 23

>  <SCORE>  (25) 
-16.007

>  <name>  (25) 
24

>  <ligand_id>  (25) 
24

>  <original_smiles>  (25) 
[H]c1c([H])c([H])c2c(c1[H])C([H])([H])C([H])([H])C([H])([H])C2([H])N([H])C(=O)C1([H])N(C(=O)C([H])(N([H])C(=O)C([H])(N([H])C([H])([H])[H])C([H])([H])[H])C(C([H])([H])[H])(C([H])([H])[H])C([H])([H])[H])C([H])([H])c2c([H])c(OC([H])([H])C([H])(C([H])([H])C(=O)C([H])(C([H])([H])C(=O)N3C([H])([H])C([H])([H])C([H])([H])C([H])(n4nc(-c5c([H])c([H])c(Oc6c([H])c([H])c(F)c([H])c6F)c([H])c5[H])c(C(=O)N([H])[H])c4N([H])[H])C3([H])[H])[N+]([H])([H])C([H])([H])[H])[N+]([H])([H])[H])c([H])c([H])c2C1([H])[H]

>  <smiles>  (25) 
[H]c1c([H])c([H])c2c(c1[H])C([H])([H])C([H])([H])C([H])([H])C2([H])N([H])C(=O)C1([H])N(C(=O)C([H])(N([H])C(=O)C([H])(N([H])C([H])([H])[H])C([H])([H])[H])C(C([H])([H])[H])(C([H])([H])[H])C([H])([H])[H])C([H])([H])c2c([H])c(OC([H])([H])C([H])(C([H])([H])C(=O)C([H])(C([H])([H])C(=O)N3C([H])([H])C([H])([H])C([H])([H])C([H])(n4nc(-c5c([H])c([H])c(Oc6c([H])c([H])c(F)c([H])c6F)c([H])c5[H])c(C(=O)N([H])[H])c4N([H])[H])C3([H])[H])[N+]([H])([H])C([H])([H])[H])[N+]([H])([H])[H])c([H])c([H])c2C1([H])[H]

$$$$
25:0:0
     RDKit          3D

 90 97  0  0  1  0  0  0  0  0999 V2000
  -29.4490  -21.3580   19.8690 C   0  0  0  0  0  2  0  0  0  0  0  0
  -29.5150  -22.8300   20.4950 C   0  0  0  0  0  3  0  0  0  0  0  0
  -28.8320  -24.0650   19.7510 C   0  0  0  0  0  3  0  0  0  0  0  0
  -28.5890  -25.3780   20.6180 C   0  0  0  0  0  2  0  0  0  0  0  0
  -28.6110  -26.7060   19.9800 O   0  0  0  0  0  0  0  0  0  0  0  0
  -24.6640  -31.7910   23.2350 C   0  0  0  0  0  0  0  0  0  0  0  0
  -27.4470  -27.4740   20.0230 C   0  0  0  0  0  0  0  0  0  0  0  0
  -23.5090  -30.4100   21.5410 C   0  0  0  0  0  3  0  0  0  0  0  0
  -25.0160  -28.9640   20.0650 C   0  0  0  0  0  0  0  0  0  0  0  0
  -26.0300  -30.8400   21.3660 C   0  0  0  0  0  2  0  0  0  0  0  0
  -26.1640  -29.4900   20.6750 C   0  0  0  0  0  0  0  0  0  0  0  0
  -27.3850  -28.7580   20.6400 C   0  0  0  0  0  3  0  0  0  0  0  0
  -26.2800  -26.9830   19.4040 C   0  0  0  0  0  3  0  0  0  0  0  0
  -25.0750  -27.7150   19.4220 C   0  0  0  0  0  3  0  0  0  0  0  0
  -23.7470  -29.7870   20.1390 C   0  0  0  0  0  2  0  0  0  0  0  0
  -24.7530  -31.0290   22.1050 N   0  0  0  0  0  0  0  0  0  0  0  0
  -23.5720  -32.0080   23.7800 O   0  0  0  0  0  0  0  0  0  0  0  0
  -22.8850  -29.3370   22.4640 C   0  0  0  0  0  0  0  0  0  0  0  0
  -21.5760  -29.0880   22.2990 N   0  0  0  0  0  0  0  0  0  0  0  0
  -23.5790  -28.7330   23.2850 O   0  0  0  0  0  0  0  0  0  0  0  0
  -21.0730  -29.6300   21.6110 H   0  0  0  0  0  0  0  0  0  0  0  0
  -18.2690  -27.6660   22.6560 C   0  0  0  0  0  0  0  0  0  0  0  0
  -20.7930  -28.0880   23.0270 C   0  0  0  0  0  3  0  0  0  0  0  0
  -21.0110  -26.6750   22.4400 C   0  0  0  0  0  2  0  0  0  0  0  0
  -19.9720  -26.2930   21.3810 C   0  0  0  0  0  2  0  0  0  0  0  0
  -18.5600  -26.3400   21.9730 C   0  0  0  0  0  2  0  0  0  0  0  0
  -19.3180  -28.4940   23.1370 C   0  0  0  0  0  0  0  0  0  0  0  0
  -18.9950  -29.7320   23.7320 C   0  0  0  0  0  3  0  0  0  0  0  0
  -17.6540  -30.1450   23.8530 C   0  0  0  0  0  3  0  0  0  0  0  0
  -16.6190  -29.3150   23.3890 C   0  0  0  0  0  3  0  0  0  0  0  0
  -16.9280  -28.0770   22.7960 C   0  0  0  0  0  3  0  0  0  0  0  0
  -25.9250  -32.4440   23.8820 C   0  0  0  0  0  3  0  0  0  0  0  0
  -25.5840  -33.8350   24.2120 N   0  0  0  0  0  0  0  0  0  0  0  0
  -25.9150  -34.8980   23.4650 C   0  0  0  0  0  0  0  0  0  0  0  0
  -26.6070  -34.8100   22.4480 O   0  0  0  0  0  0  0  0  0  0  0  0
  -24.9700  -33.9750   25.0010 H   0  0  0  0  0  0  0  0  0  0  0  0
  -24.1600  -36.6600   23.0890 C   0  0  0  0  0  1  0  0  0  0  0  0
  -25.3940  -36.2750   23.9190 C   0  0  0  0  0  3  0  0  0  0  0  0
  -27.4960  -37.1980   24.7910 C   0  0  0  0  0  1  0  0  0  0  0  0
  -26.4090  -37.3470   23.8270 N   0  0  0  0  0  0  0  0  0  0  0  0
  -25.9830  -38.2600   23.9670 H   0  0  0  0  0  0  0  0  0  0  0  0
  -26.4330  -31.6770   25.1640 C   0  0  1  0  0  0  0  0  0  0  0  0
  -25.3260  -31.4140   26.2120 C   0  0  0  0  0  1  0  0  0  0  0  0
  -27.0480  -30.3120   24.7760 C   0  0  0  0  0  1  0  0  0  0  0  0
  -27.5570  -32.4890   25.8490 C   0  0  0  0  0  1  0  0  0  0  0  0
  -30.5740  -20.2740   20.2600 C   0  0  0  0  0  3  0  0  0  0  0  0
  -30.1040  -18.8250   20.2520 N   0  0  0  0  0  4  0  0  0  0  0  0
  -29.5470  -18.7010   21.0800 H   0  0  0  0  0  0  0  0  0  0  0  0
  -29.4810  -18.7190   19.4680 H   0  0  0  0  0  0  0  0  0  0  0  0
  -31.1060  -17.6760   20.1520 C   0  0  0  0  0  3  0  0  0  0  0  0
  -30.6520  -16.2620   20.7430 C   0  0  0  0  0  3  0  0  0  0  0  0
  -31.4280  -14.9420   20.3300 C   0  0  0  0  0  0  0  0  0  0  0  0
  -31.1610  -12.6990   19.2770 C   0  0  0  0  0  2  0  0  0  0  0  0
  -30.2470  -12.8490   18.0390 C   0  0  0  0  0  2  0  0  0  0  0  0
  -28.7600  -12.7420   18.4360 C   0  0  0  0  0  2  0  0  0  0  0  0
  -28.4070  -13.6380   19.6520 C   0  0  0  0  0  3  0  0  0  0  0  0
  -29.4350  -13.4700   20.7920 C   0  0  0  0  0  2  0  0  0  0  0  0
  -30.7710  -13.7420   20.2470 N   0  0  0  0  0  0  0  0  0  0  0  0
  -32.5990  -15.0380   19.9470 O   0  0  0  0  0  0  0  0  0  0  0  0
  -26.0410  -14.3490   20.3610 C   0  0  0  0  0  0  0  0  0  0  0  0
  -24.9300  -13.6250   20.6980 C   0  0  0  0  0  0  0  0  0  0  0  0
  -25.3200  -12.2520   20.6370 C   0  0  0  0  0  0  0  0  0  0  0  0
  -27.0390  -13.4190   20.1140 N   0  0  0  0  0  0  0  0  0  0  0  0
  -26.6100  -12.1520   20.3430 N   0  0  0  0  0  0  0  0  0  0  0  0
  -24.5250  -11.0260   20.7840 C   0  0  0  0  0  0  0  0  0  0  0  0
  -24.8670  -10.0340   21.7290 C   0  0  0  0  0  3  0  0  0  0  0  0
  -24.0770   -8.8710   21.8640 C   0  0  0  0  0  3  0  0  0  0  0  0
  -22.9310   -8.6940   21.0520 C   0  0  0  0  0  0  0  0  0  0  0  0
  -22.6080   -9.6760   20.0980 C   0  0  0  0  0  3  0  0  0  0  0  0
  -23.3990  -10.8290   19.9610 C   0  0  0  0  0  3  0  0  0  0  0  0
  -22.1190   -7.5870   21.0960 O   0  0  0  0  0  0  0  0  0  0  0  0
  -21.9240   -6.8830   22.2570 C   0  0  0  0  0  0  0  0  0  0  0  0
  -21.3910   -7.4900   23.4150 C   0  0  0  0  0  3  0  0  0  0  0  0
  -21.1420   -6.7130   24.5650 C   0  0  0  0  0  3  0  0  0  0  0  0
  -21.4150   -5.3320   24.5560 C   0  0  0  0  0  0  0  0  0  0  0  0
  -21.9420   -4.7260   23.4020 C   0  0  0  0  0  3  0  0  0  0  0  0
  -22.1930   -5.5000   22.2540 C   0  0  0  0  0  0  0  0  0  0  0  0
  -22.6800   -4.9070   21.1380 F   0  0  0  0  0  0  0  0  0  0  0  0
  -21.1690   -4.5850   25.6570 F   0  0  0  0  0  0  0  0  0  0  0  0
  -23.5560  -14.1690   20.9650 C   0  0  0  0  0  0  0  0  0  0  0  0
  -22.7830  -13.4960   21.8100 N   0  0  0  0  0  0  0  0  0  0  0  0
  -23.1780  -15.2250   20.4590 O   0  0  0  0  0  0  0  0  0  0  0  0
  -23.1020  -12.6410   22.2410 H   0  0  0  0  0  0  0  0  0  0  0  0
  -21.8600  -13.8410   22.0300 H   0  0  0  0  0  0  0  0  0  0  0  0
  -26.2810  -15.7130   20.2200 N   0  0  0  0  0  0  0  0  0  0  0  0
  -25.5430  -16.4000   20.3250 H   0  0  0  0  0  0  0  0  0  0  0  0
  -27.1440  -16.1060   19.8700 H   0  0  0  0  0  0  0  0  0  0  0  0
  -30.2530  -20.5040   22.8180 C   0  0  0  0  0  1  0  0  0  0  0  0
  -32.5270  -19.8390   21.9220 C   0  0  0  0  0  1  0  0  0  0  0  0
  -31.2300  -20.6160   21.6310 C   0  0  0  0  0  3  0  0  0  0  0  0
  1  2  1  0
  3  2  2  0
  3  4  1  0
  5  7  1  0
  5  4  1  0
  6 17  2  0
  7 12  1  0
  8 16  1  0
  8 18  1  0
  9 15  1  0
  9 11  1  0
 10 16  1  0
 11 10  1  0
 12 11  2  0
 13 14  1  0
 13  7  2  0
 14  9  2  0
 15  8  1  0
 16  6  1  0
 18 20  2  0
 19 18  1  0
 21 19  1  0
 22 31  2  0
 22 27  1  0
 23 19  1  0
 23 27  1  0
 24 23  1  0
 25 26  1  0
 25 24  1  0
 26 22  1  0
 27 28  2  0
 28 29  1  0
 30 29  2  0
 31 30  1  0
 32  6  1  0
 32 33  1  0
 32 42  1  0
 33 36  1  0
 34 38  1  0
 34 33  1  0
 35 34  2  0
 38 37  1  0
 40 38  1  0
 40 41  1  0
 40 39  1  0
 42 45  1  1
 42 43  1  0
 44 42  1  0
 46  1  1  0
 46 90  1  0
 47 46  1  0
 47 48  1  0
 49 47  1  0
 50 47  1  0
 50 51  2  0
 52 51  1  0
 53 58  1  0
 54 55  1  0
 54 53  1  0
 56 55  1  0
 56 63  1  0
 56 57  1  0
 58 52  1  0
 58 57  1  0
 59 52  2  0
 60 61  2  0
 61 80  1  0
 62 61  1  0
 62 65  1  0
 63 64  1  0
 63 60  1  0
 64 62  2  0
 65 66  1  0
 66 67  2  0
 68 71  1  0
 68 67  1  0
 69 68  2  0
 70 69  1  0
 70 65  2  0
 71 72  1  0
 72 73  1  0
 73 74  2  0
 75 74  1  0
 75 79  1  0
 76 75  2  0
 77 72  2  0
 77 76  1  0
 78 77  1  0
 80 81  1  0
 81 84  1  0
 81 83  1  0
 82 80  2  0
 85 86  1  0
 85 60  1  0
 87 85  1  0
 90 89  1  0
 90 88  1  0
M  ISO  4   4 101   5 101  51 100  52 100
M  END
>  <TORSDO>  (26) 
F 24

>  <SCORE>  (26) 
-11.268

>  <name>  (26) 
25

>  <ligand_id>  (26) 
25

>  <original_smiles>  (26) 
[H]c1c([H])c([H])c2c(c1[H])C([H])([H])C([H])([H])C([H])([H])C2([H])N([H])C(=O)C1([H])N(C(=O)C([H])(N([H])C(=O)C([H])(N([H])C([H])([H])[H])C([H])([H])[H])C(C([H])([H])[H])(C([H])([H])[H])C([H])([H])[H])C([H])([H])c2c([H])c(OC([H])([H])C([H])([H])C([H])([H])C([H])([H])C([H])(C([H])(C([H])([H])[H])C([H])([H])[H])[N+]([H])([H])C([H])([H])C([H])([H])C(=O)N3C([H])([H])C([H])([H])C([H])([H])C([H])(n4nc(-c5c([H])c([H])c(Oc6c([H])c([H])c(F)c([H])c6F)c([H])c5[H])c(C(=O)N([H])[H])c4N([H])[H])C3([H])[H])c([H])c([H])c2C1([H])[H]

>  <smiles>  (26) 
[H]c1c([H])c([H])c2c(c1[H])C([H])([H])C([H])([H])C([H])([H])C2([H])N([H])C(=O)C1([H])N(C(=O)C([H])(N([H])C(=O)C([H])(N([H])C([H])([H])[H])C([H])([H])[H])C(C([H])([H])[H])(C([H])([H])[H])C([H])([H])[H])C([H])([H])c2c([H])c(OC([H])([H])C([H])([H])C([H])([H])C([H])([H])C([H])(C([H])(C([H])([H])[H])C([H])([H])[H])[N+]([H])([H])C([H])([H])C([H])([H])C(=O)N3C([H])([H])C([H])([H])C([H])([H])C([H])(n4nc(-c5c([H])c([H])c(Oc6c([H])c([H])c(F)c([H])c6F)c([H])c5[H])c(C(=O)N([H])[H])c4N([H])[H])C3([H])[H])c([H])c([H])c2C1([H])[H]

$$$$
26:0:0
     RDKit          3D

 87 94  0  0  1  0  0  0  0  0999 V2000
  -29.2620  -23.6740   22.0720 C   0  0  0  0  0  1  0  0  0  0  0  0
  -28.9860  -23.5050   20.5640 C   0  0  0  0  0  3  0  0  0  0  0  0
  -28.5840  -22.0060   20.2550 N   0  0  0  0  0  4  0  0  0  0  0  0
  -27.6990  -21.8250   20.7030 H   0  0  0  0  0  0  0  0  0  0  0  0
  -28.3980  -21.9620   19.2650 H   0  0  0  0  0  0  0  0  0  0  0  0
  -29.5110  -20.7720   20.5640 C   0  0  0  0  0  3  0  0  0  0  0  0
  -29.0120  -19.1880   20.3790 C   0  0  0  0  0  3  0  0  0  0  0  0
  -30.0170  -17.8560   20.5150 C   0  0  0  0  0  3  0  0  0  0  0  0
  -29.5170  -16.2650   20.5740 C   0  0  0  0  0  3  0  0  0  0  0  0
  -30.4500  -14.9210   20.3490 C   0  0  0  0  0  0  0  0  0  0  0  0
  -30.3910  -12.5870   19.3790 C   0  0  0  0  0  2  0  0  0  0  0  0
  -29.4480  -12.5820   18.1500 C   0  0  0  0  0  2  0  0  0  0  0  0
  -27.9740  -12.3890   18.5670 C   0  0  0  0  0  2  0  0  0  0  0  0
  -27.5810  -13.2840   19.7710 C   0  0  0  0  0  3  0  0  0  0  0  0
  -28.6320  -13.2360   20.8970 C   0  0  0  0  0  2  0  0  0  0  0  0
  -29.9180  -13.6400   20.3170 N   0  0  0  0  0  0  0  0  0  0  0  0
  -31.6400  -15.0510   20.0350 O   0  0  0  0  0  0  0  0  0  0  0  0
  -25.2010  -13.8740   20.5080 C   0  0  0  0  0  0  0  0  0  0  0  0
  -24.1380  -13.1010   20.8820 C   0  0  0  0  0  0  0  0  0  0  0  0
  -24.6050  -11.7500   20.8590 C   0  0  0  0  0  0  0  0  0  0  0  0
  -26.2430  -12.9940   20.2680 N   0  0  0  0  0  0  0  0  0  0  0  0
  -25.8930  -11.7120   20.5470 N   0  0  0  0  0  0  0  0  0  0  0  0
  -23.8830  -10.4870   21.0570 C   0  0  0  0  0  0  0  0  0  0  0  0
  -24.3290   -9.5160   21.9820 C   0  0  0  0  0  3  0  0  0  0  0  0
  -23.6050   -8.3180   22.1660 C   0  0  0  0  0  3  0  0  0  0  0  0
  -22.4230   -8.0840   21.4240 C   0  0  0  0  0  0  0  0  0  0  0  0
  -21.9960   -9.0440   20.4890 C   0  0  0  0  0  3  0  0  0  0  0  0
  -22.7210  -10.2330   20.3040 C   0  0  0  0  0  3  0  0  0  0  0  0
  -21.6710   -6.9370   21.5150 O   0  0  0  0  0  0  0  0  0  0  0  0
  -21.6460   -6.1830   22.6610 C   0  0  0  0  0  0  0  0  0  0  0  0
  -21.2590   -6.7280   23.9050 C   0  0  0  0  0  3  0  0  0  0  0  0
  -21.1790   -5.9000   25.0430 C   0  0  0  0  0  3  0  0  0  0  0  0
  -21.4790   -4.5280   24.9390 C   0  0  0  0  0  0  0  0  0  0  0  0
  -21.8630   -3.9830   23.7000 C   0  0  0  0  0  3  0  0  0  0  0  0
  -21.9410   -4.8080   22.5650 C   0  0  0  0  0  0  0  0  0  0  0  0
  -22.2880   -4.2730   21.3690 F   0  0  0  0  0  0  0  0  0  0  0  0
  -21.3980   -3.7310   26.0290 F   0  0  0  0  0  0  0  0  0  0  0  0
  -22.7410  -13.5780   21.1560 C   0  0  0  0  0  0  0  0  0  0  0  0
  -22.0190  -12.8850   22.0270 N   0  0  0  0  0  0  0  0  0  0  0  0
  -22.2990  -14.6000   20.6320 O   0  0  0  0  0  0  0  0  0  0  0  0
  -22.3930  -12.0550   22.4640 H   0  0  0  0  0  0  0  0  0  0  0  0
  -21.0850  -13.1900   22.2650 H   0  0  0  0  0  0  0  0  0  0  0  0
  -25.3700  -15.2460   20.3280 N   0  0  0  0  0  0  0  0  0  0  0  0
  -24.6120  -15.9090   20.4440 H   0  0  0  0  0  0  0  0  0  0  0  0
  -26.2300  -15.6760   20.0140 H   0  0  0  0  0  0  0  0  0  0  0  0
  -28.0010  -24.7560   20.0670 C   0  0  0  0  0  2  0  0  0  0  0  0
  -28.2540  -26.2640   20.2830 O   0  0  0  0  0  0  0  0  0  0  0  0
  -24.6390  -31.9100   23.2410 C   0  0  0  0  0  0  0  0  0  0  0  0
  -27.1870  -27.2190   20.2010 C   0  0  0  0  0  0  0  0  0  0  0  0
  -23.4230  -30.5170   21.6090 C   0  0  0  0  0  3  0  0  0  0  0  0
  -24.8580  -28.9430   20.1750 C   0  0  0  0  0  0  0  0  0  0  0  0
  -25.9770  -30.7790   21.4340 C   0  0  0  0  0  2  0  0  0  0  0  0
  -26.0390  -29.3940   20.7790 C   0  0  0  0  0  0  0  0  0  0  0  0
  -27.2040  -28.5470   20.7760 C   0  0  0  0  0  3  0  0  0  0  0  0
  -25.9830  -26.8630   19.5500 C   0  0  0  0  0  3  0  0  0  0  0  0
  -24.8430  -27.6910   19.5430 C   0  0  0  0  0  3  0  0  0  0  0  0
  -23.6330  -29.8390   20.2280 C   0  0  0  0  0  2  0  0  0  0  0  0
  -24.6980  -31.0890   22.1500 N   0  0  0  0  0  0  0  0  0  0  0  0
  -23.5570  -32.2020   23.7740 O   0  0  0  0  0  0  0  0  0  0  0  0
  -22.7480  -29.5120   22.5720 C   0  0  0  0  0  0  0  0  0  0  0  0
  -21.4180  -29.3560   22.4610 N   0  0  0  0  0  0  0  0  0  0  0  0
  -23.4240  -28.8740   23.3850 O   0  0  0  0  0  0  0  0  0  0  0  0
  -20.9280  -29.9320   21.7910 H   0  0  0  0  0  0  0  0  0  0  0  0
  -18.0390  -28.1710   22.9660 C   0  0  0  0  0  0  0  0  0  0  0  0
  -20.5960  -28.4300   23.2430 C   0  0  0  0  0  3  0  0  0  0  0  0
  -20.6910  -26.9890   22.6940 C   0  0  0  0  0  2  0  0  0  0  0  0
  -19.6060  -26.6740   21.6610 C   0  0  0  0  0  2  0  0  0  0  0  0
  -18.2170  -26.8230   22.2900 C   0  0  0  0  0  2  0  0  0  0  0  0
  -19.1570  -28.9370   23.3940 C   0  0  0  0  0  0  0  0  0  0  0  0
  -18.9360  -30.2040   23.9780 C   0  0  0  0  0  3  0  0  0  0  0  0
  -17.6310  -30.7010   24.1470 C   0  0  0  0  0  3  0  0  0  0  0  0
  -16.5280  -29.9280   23.7430 C   0  0  0  0  0  3  0  0  0  0  0  0
  -16.7320  -28.6690   23.1540 C   0  0  0  0  0  3  0  0  0  0  0  0
  -25.9230  -32.5390   23.8590 C   0  0  0  0  0  3  0  0  0  0  0  0
  -26.4470  -31.7610   25.1300 C   0  0  1  0  0  0  0  0  0  0  0  0
  -25.3640  -31.5250   26.2060 C   0  0  0  0  0  1  0  0  0  0  0  0
  -27.0220  -30.3800   24.7350 C   0  0  0  0  0  1  0  0  0  0  0  0
  -27.6090  -32.5470   25.7840 C   0  0  0  0  0  1  0  0  0  0  0  0
  -25.6190  -33.9370   24.2020 N   0  0  0  0  0  0  0  0  0  0  0  0
  -25.9330  -34.9960   23.4430 C   0  0  0  0  0  0  0  0  0  0  0  0
  -26.5790  -34.9000   22.3960 O   0  0  0  0  0  0  0  0  0  0  0  0
  -25.0400  -34.0860   25.0160 H   0  0  0  0  0  0  0  0  0  0  0  0
  -24.1890  -36.7860   23.1520 C   0  0  0  0  0  1  0  0  0  0  0  0
  -25.4580  -36.3820   23.9200 C   0  0  0  0  0  3  0  0  0  0  0  0
  -27.6160  -37.2740   24.6790 C   0  0  0  0  0  1  0  0  0  0  0  0
  -26.4820  -37.4390   23.7740 N   0  0  0  0  0  0  0  0  0  0  0  0
  -26.0780  -38.3570   23.9380 H   0  0  0  0  0  0  0  0  0  0  0  0
  2  1  1  0
  3  2  1  0
  3  6  1  0
  3  4  1  0
  5  3  1  0
  7  8  1  0
  7  6  2  0
  8  9  2  0
 10  9  1  0
 11 16  1  0
 12 13  1  0
 12 11  1  0
 14 13  1  0
 14 21  1  0
 14 15  1  0
 16 10  1  0
 16 15  1  0
 17 10  2  0
 18 19  2  0
 19 38  1  0
 20 19  1  0
 20 23  1  0
 21 18  1  0
 21 22  1  0
 22 20  2  0
 23 24  1  0
 24 25  2  0
 26 29  1  0
 26 25  1  0
 27 26  2  0
 28 27  1  0
 28 23  2  0
 29 30  1  0
 30 31  1  0
 31 32  2  0
 33 32  1  0
 33 37  1  0
 34 33  2  0
 35 30  2  0
 35 34  1  0
 36 35  1  0
 38 39  1  0
 39 42  1  0
 39 41  1  0
 40 38  2  0
 43 44  1  0
 43 18  1  0
 45 43  1  0
 46 47  1  0
 46  2  1  0
 48 59  2  0
 49 47  1  0
 49 54  1  0
 50 58  1  0
 50 60  1  0
 51 57  1  0
 51 53  1  0
 52 58  1  0
 53 52  1  0
 54 53  2  0
 55 49  2  0
 56 55  1  0
 56 51  2  0
 57 50  1  0
 58 48  1  0
 60 62  2  0
 61 60  1  0
 63 61  1  0
 64 73  2  0
 64 69  1  0
 65 61  1  0
 65 69  1  0
 66 65  1  0
 67 68  1  0
 67 66  1  0
 68 64  1  0
 69 70  2  0
 70 71  1  0
 72 71  2  0
 73 72  1  0
 74 48  1  0
 74 79  1  0
 74 75  1  0
 75 78  1  1
 75 76  1  0
 77 75  1  0
 79 82  1  0
 80 84  1  0
 80 79  1  0
 81 80  2  0
 84 83  1  0
 86 84  1  0
 86 87  1  0
 86 85  1  0
M  ISO  4   9 100  10 100  46 101  47 101
M  END
>  <TORSDO>  (27) 
F 22

>  <SCORE>  (27) 
-12.933

>  <name>  (27) 
26

>  <ligand_id>  (27) 
26

>  <original_smiles>  (27) 
[H]c1c([H])c([H])c2c(c1[H])C([H])([H])C([H])([H])C([H])([H])C2([H])N([H])C(=O)C1([H])N(C(=O)C([H])(N([H])C(=O)C([H])(N([H])C([H])([H])[H])C([H])([H])[H])C(C([H])([H])[H])(C([H])([H])[H])C([H])([H])[H])C([H])([H])c2c([H])c(OC([H])([H])C([H])(C([H])([H])[H])[N+]([H])([H])C([H])([H])C([H])([H])C([H])([H])C([H])([H])C(=O)N3C([H])([H])C([H])([H])C([H])([H])C([H])(n4nc(-c5c([H])c([H])c(Oc6c([H])c([H])c(F)c([H])c6F)c([H])c5[H])c(C(=O)N([H])[H])c4N([H])[H])C3([H])[H])c([H])c([H])c2C1([H])[H]

>  <smiles>  (27) 
[H]c1c([H])c([H])c2c(c1[H])C([H])([H])C([H])([H])C([H])([H])C2([H])N([H])C(=O)C1([H])N(C(=O)C([H])(N([H])C(=O)C([H])(N([H])C([H])([H])[H])C([H])([H])[H])C(C([H])([H])[H])(C([H])([H])[H])C([H])([H])[H])C([H])([H])c2c([H])c(OC([H])([H])C([H])(C([H])([H])[H])[N+]([H])([H])C([H])([H])C([H])([H])C([H])([H])C([H])([H])C(=O)N3C([H])([H])C([H])([H])C([H])([H])C([H])(n4nc(-c5c([H])c([H])c(Oc6c([H])c([H])c(F)c([H])c6F)c([H])c5[H])c(C(=O)N([H])[H])c4N([H])[H])C3([H])[H])c([H])c([H])c2C1([H])[H]

$$$$
27:0:0
     RDKit          3D

 91 98  0  0  1  0  0  0  0  0999 V2000
  -28.9480  -21.1690   20.1180 C   0  0  0  0  0  3  0  0  0  0  0  0
  -29.8920  -19.8990   19.6290 N   0  0  0  0  0  4  0  0  0  0  0  0
  -29.4580  -19.5840   18.7750 H   0  0  0  0  0  0  0  0  0  0  0  0
  -30.7580  -20.3160   19.3260 H   0  0  0  0  0  0  0  0  0  0  0  0
  -30.3500  -18.5180   20.4230 C   0  0  0  0  0  3  0  0  0  0  0  0
  -32.8760  -18.3060   20.0400 C   0  0  0  0  0  1  0  0  0  0  0  0
  -31.7690  -18.6780   21.0370 C   0  0  0  0  0  3  0  0  0  0  0  0
  -31.1280  -20.3900   22.8840 C   0  0  0  0  0  1  0  0  0  0  0  0
  -32.0590  -20.0410   21.7090 C   0  0  0  0  0  2  0  0  0  0  0  0
  -30.1470  -16.8240   19.9260 C   0  0  0  0  0  2  0  0  0  0  0  0
  -30.8900  -15.2800   20.2260 C   0  0  0  0  0  0  0  0  0  0  0  0
  -30.7870  -12.8510   19.3700 C   0  0  0  0  0  2  0  0  0  0  0  0
  -29.8710  -12.7260   18.1270 C   0  0  0  0  0  2  0  0  0  0  0  0
  -28.4070  -12.5090   18.5480 C   0  0  0  0  0  2  0  0  0  0  0  0
  -27.9800  -13.4810   19.6750 C   0  0  0  0  0  3  0  0  0  0  0  0
  -29.0180  -13.5770   20.8080 C   0  0  0  0  0  2  0  0  0  0  0  0
  -30.2910  -13.9970   20.2060 N   0  0  0  0  0  0  0  0  0  0  0  0
  -32.1230  -15.2240   20.1110 O   0  0  0  0  0  0  0  0  0  0  0  0
  -25.6160  -14.1020   20.4120 C   0  0  0  0  0  0  0  0  0  0  0  0
  -24.5350  -13.3500   20.7750 C   0  0  0  0  0  0  0  0  0  0  0  0
  -24.9710  -11.9890   20.7520 C   0  0  0  0  0  0  0  0  0  0  0  0
  -26.6410  -13.2020   20.1770 N   0  0  0  0  0  0  0  0  0  0  0  0
  -26.2650  -11.9250   20.4540 N   0  0  0  0  0  0  0  0  0  0  0  0
  -24.2140  -10.7430   20.9380 C   0  0  0  0  0  0  0  0  0  0  0  0
  -24.5780   -9.7930   21.9170 C   0  0  0  0  0  3  0  0  0  0  0  0
  -23.8170   -8.6180   22.0910 C   0  0  0  0  0  3  0  0  0  0  0  0
  -22.6780   -8.3830   21.2830 C   0  0  0  0  0  0  0  0  0  0  0  0
  -22.3340   -9.3210   20.2940 C   0  0  0  0  0  3  0  0  0  0  0  0
  -23.0950  -10.4890   20.1200 C   0  0  0  0  0  3  0  0  0  0  0  0
  -21.8940   -7.2570   21.3620 O   0  0  0  0  0  0  0  0  0  0  0  0
  -21.7300   -6.5760   22.5420 C   0  0  0  0  0  0  0  0  0  0  0  0
  -21.2160   -7.2020   23.6980 C   0  0  0  0  0  3  0  0  0  0  0  0
  -20.9970   -6.4490   24.8700 C   0  0  0  0  0  3  0  0  0  0  0  0
  -21.2830   -5.0710   24.8850 C   0  0  0  0  0  0  0  0  0  0  0  0
  -21.7890   -4.4440   23.7320 C   0  0  0  0  0  3  0  0  0  0  0  0
  -22.0100   -5.1950   22.5640 C   0  0  0  0  0  0  0  0  0  0  0  0
  -22.4780   -4.5810   21.4500 F   0  0  0  0  0  0  0  0  0  0  0  0
  -21.0670   -4.3450   26.0070 F   0  0  0  0  0  0  0  0  0  0  0  0
  -23.1450  -13.8580   21.0270 C   0  0  0  0  0  0  0  0  0  0  0  0
  -22.4010  -13.1930   21.9020 N   0  0  0  0  0  0  0  0  0  0  0  0
  -22.7310  -14.8820   20.4840 O   0  0  0  0  0  0  0  0  0  0  0  0
  -22.7490  -12.3630   22.3600 H   0  0  0  0  0  0  0  0  0  0  0  0
  -21.4700  -13.5170   22.1230 H   0  0  0  0  0  0  0  0  0  0  0  0
  -25.8110  -15.4690   20.2330 N   0  0  0  0  0  0  0  0  0  0  0  0
  -25.0560  -16.1390   20.3450 H   0  0  0  0  0  0  0  0  0  0  0  0
  -26.6690  -15.8920   19.9050 H   0  0  0  0  0  0  0  0  0  0  0  0
  -26.8010  -19.7050   19.8180 C   0  0  0  0  0  1  0  0  0  0  0  0
  -27.5500  -21.0010   19.4730 C   0  0  0  0  0  2  0  0  0  0  0  0
  -29.2920  -22.9120   20.0030 C   0  0  0  0  0  3  0  0  0  0  0  0
  -28.2290  -24.3330   20.1630 C   0  0  0  0  0  3  0  0  0  0  0  0
  -28.4470  -25.9450   20.2580 O   0  0  0  0  0  0  0  0  0  0  0  0
  -24.6240  -31.7420   23.1460 C   0  0  0  0  0  0  0  0  0  0  0  0
  -27.3880  -26.9780   20.1890 C   0  0  0  0  0  0  0  0  0  0  0  0
  -23.5030  -30.3050   21.4920 C   0  0  0  0  0  3  0  0  0  0  0  0
  -25.0260  -28.7500   20.1020 C   0  0  0  0  0  0  0  0  0  0  0  0
  -26.0600  -30.6100   21.3850 C   0  0  0  0  0  2  0  0  0  0  0  0
  -26.1880  -29.2040   20.7390 C   0  0  0  0  0  0  0  0  0  0  0  0
  -27.3660  -28.3370   20.7590 C   0  0  0  0  0  3  0  0  0  0  0  0
  -26.1910  -26.6620   19.5070 C   0  0  0  0  0  3  0  0  0  0  0  0
  -25.0500  -27.5010   19.4660 C   0  0  0  0  0  3  0  0  0  0  0  0
  -23.7770  -29.6270   20.1230 C   0  0  0  0  0  2  0  0  0  0  0  0
  -24.7490  -30.9120   22.0630 N   0  0  0  0  0  0  0  0  0  0  0  0
  -23.5180  -31.9980   23.6480 O   0  0  0  0  0  0  0  0  0  0  0  0
  -22.8270  -29.2880   22.4450 C   0  0  0  0  0  0  0  0  0  0  0  0
  -21.5030  -29.0850   22.3010 N   0  0  0  0  0  0  0  0  0  0  0  0
  -23.4970  -28.6790   23.2830 O   0  0  0  0  0  0  0  0  0  0  0  0
  -21.0120  -29.6370   21.6110 H   0  0  0  0  0  0  0  0  0  0  0  0
  -18.1540  -27.7590   22.7350 C   0  0  0  0  0  0  0  0  0  0  0  0
  -20.6950  -28.1230   23.0610 C   0  0  0  0  0  3  0  0  0  0  0  0
  -20.8650  -26.6900   22.5060 C   0  0  0  0  0  2  0  0  0  0  0  0
  -19.8020  -26.3140   21.4690 C   0  0  0  0  0  2  0  0  0  0  0  0
  -18.3980  -26.4110   22.0750 C   0  0  0  0  0  2  0  0  0  0  0  0
  -19.2330  -28.5680   23.1820 C   0  0  0  0  0  0  0  0  0  0  0  0
  -18.9500  -29.8240   23.7620 C   0  0  0  0  0  3  0  0  0  0  0  0
  -17.6230  -30.2740   23.8970 C   0  0  0  0  0  3  0  0  0  0  0  0
  -16.5600  -29.4630   23.4640 C   0  0  0  0  0  3  0  0  0  0  0  0
  -16.8250  -28.2090   22.8890 C   0  0  0  0  0  3  0  0  0  0  0  0
  -25.8640  -32.4260   23.7980 C   0  0  0  0  0  3  0  0  0  0  0  0
  -26.3750  -31.6760   25.0900 C   0  0  1  0  0  0  0  0  0  0  0  0
  -25.2650  -31.4040   26.1330 C   0  0  0  0  0  1  0  0  0  0  0  0
  -27.0140  -30.3170   24.7210 C   0  0  0  0  0  1  0  0  0  0  0  0
  -27.4840  -32.5080   25.7760 C   0  0  0  0  0  1  0  0  0  0  0  0
  -25.4950  -33.8130   24.1310 N   0  0  0  0  0  0  0  0  0  0  0  0
  -25.8320  -34.8910   23.4120 C   0  0  0  0  0  0  0  0  0  0  0  0
  -26.5500  -34.8230   22.4110 O   0  0  0  0  0  0  0  0  0  0  0  0
  -24.8630  -33.9360   24.9100 H   0  0  0  0  0  0  0  0  0  0  0  0
  -24.0770  -36.6540   23.0140 C   0  0  0  0  0  1  0  0  0  0  0  0
  -25.2910  -36.2600   23.8720 C   0  0  0  0  0  3  0  0  0  0  0  0
  -27.3670  -37.1820   24.8070 C   0  0  0  0  0  1  0  0  0  0  0  0
  -26.3010  -37.3410   23.8220 N   0  0  0  0  0  0  0  0  0  0  0  0
  -25.8660  -38.2490   23.9700 H   0  0  0  0  0  0  0  0  0  0  0  0
  1 48  1  0
  2  1  1  0
  2  5  1  0
  3  2  1  0
  4  2  1  0
  5 10  1  0
  5  7  1  0
  7  6  1  0
  7  9  1  0
  9  8  1  0
 10 11  1  0
 12 17  1  0
 13 14  1  0
 13 12  1  0
 15 14  1  0
 15 22  1  0
 15 16  1  0
 17 11  1  0
 17 16  1  0
 18 11  2  0
 19 20  2  0
 20 39  1  0
 21 20  1  0
 21 24  1  0
 22 19  1  0
 22 23  1  0
 23 21  2  0
 24 25  1  0
 25 26  2  0
 27 30  1  0
 27 26  1  0
 28 27  2  0
 29 28  1  0
 29 24  2  0
 30 31  1  0
 31 36  2  0
 31 32  1  0
 32 33  2  0
 33 34  1  0
 34 38  1  0
 35 34  2  0
 36 35  1  0
 37 36  1  0
 39 40  1  0
 40 43  1  0
 40 42  1  0
 41 39  2  0
 44 45  1  0
 44 19  1  0
 46 44  1  0
 48 47  1  0
 49  1  1  0
 49 50  2  0
 50 51  1  0
 52 63  2  0
 53 51  1  0
 53 58  1  0
 54 62  1  0
 54 64  1  0
 55 61  1  0
 55 57  1  0
 56 62  1  0
 57 58  2  0
 57 56  1  0
 59 53  2  0
 60 59  1  0
 60 55  2  0
 61 54  1  0
 62 52  1  0
 64 66  2  0
 65 64  1  0
 67 65  1  0
 68 77  2  0
 68 73  1  0
 69 65  1  0
 69 73  1  0
 70 69  1  0
 71 72  1  0
 71 70  1  0
 72 68  1  0
 73 74  2  0
 74 75  1  0
 76 75  2  0
 77 76  1  0
 78 52  1  0
 78 83  1  0
 78 79  1  0
 79 82  1  1
 79 80  1  0
 81 79  1  0
 83 86  1  0
 84 88  1  0
 84 83  1  0
 85 84  2  0
 88 87  1  0
 90 88  1  0
 90 91  1  0
 90 89  1  0
M  ISO  4  10 100  11 100  50 101  51 101
M  END
>  <TORSDO>  (28) 
F 24

>  <SCORE>  (28) 
-13.227

>  <name>  (28) 
27

>  <ligand_id>  (28) 
27

>  <original_smiles>  (28) 
[H]c1c([H])c([H])c2c(c1[H])C([H])([H])C([H])([H])C([H])([H])C2([H])N([H])C(=O)C1([H])N(C(=O)C([H])(N([H])C(=O)C([H])(N([H])C([H])([H])[H])C([H])([H])[H])C(C([H])([H])[H])(C([H])([H])[H])C([H])([H])[H])C([H])([H])c2c([H])c(OC([H])([H])C([H])([H])C([H])(C([H])([H])C([H])([H])[H])[N+]([H])([H])C([H])(C([H])([H])C(=O)N3C([H])([H])C([H])([H])C([H])([H])C([H])(n4nc(-c5c([H])c([H])c(Oc6c([H])c([H])c(F)c([H])c6F)c([H])c5[H])c(C(=O)N([H])[H])c4N([H])[H])C3([H])[H])C([H])(C([H])([H])[H])C([H])([H])C([H])([H])[H])c([H])c([H])c2C1([H])[H]

>  <smiles>  (28) 
[H]c1c([H])c([H])c2c(c1[H])C([H])([H])C([H])([H])C([H])([H])C2([H])N([H])C(=O)C1([H])N(C(=O)C([H])(N([H])C(=O)C([H])(N([H])C([H])([H])[H])C([H])([H])[H])C(C([H])([H])[H])(C([H])([H])[H])C([H])([H])[H])C([H])([H])c2c([H])c(OC([H])([H])C([H])([H])C([H])(C([H])([H])C([H])([H])[H])[N+]([H])([H])C([H])(C([H])([H])C(=O)N3C([H])([H])C([H])([H])C([H])([H])C([H])(n4nc(-c5c([H])c([H])c(Oc6c([H])c([H])c(F)c([H])c6F)c([H])c5[H])c(C(=O)N([H])[H])c4N([H])[H])C3([H])[H])C([H])(C([H])([H])[H])C([H])([H])C([H])([H])[H])c([H])c([H])c2C1([H])[H]

$$$$
28:0:0
     RDKit          3D

 89 97  0  0  1  0  0  0  0  0999 V2000
  -28.8020  -22.8440   17.7260 C   0  0  0  0  0  2  0  0  0  0  0  0
  -29.6920  -21.7100   18.3330 C   0  0  0  0  0  2  0  0  0  0  0  0
  -28.8930  -24.2580   18.3890 C   0  0  0  0  0  2  0  0  0  0  0  0
  -29.1640  -22.8860   20.5220 C   0  0  0  0  0  2  0  0  0  0  0  0
  -29.2430  -21.3060   19.7550 C   0  0  0  0  0  3  0  0  0  0  0  0
  -28.4210  -24.3330   19.8600 C   0  0  0  0  0  3  0  0  0  0  0  0
  -29.6270  -19.7590   21.7460 C   0  0  0  0  0  1  0  0  0  0  0  0
  -29.9640  -19.9110   20.3150 N   0  0  1  0  0  4  0  0  0  0  0  0
  -30.9420  -20.1660   20.3400 H   0  0  0  0  0  0  0  0  0  0  0  0
  -28.7370  -18.1860   18.8020 C   0  0  0  0  0  1  0  0  0  0  0  0
  -30.0230  -18.3970   19.6210 C   0  0  0  0  0  3  0  0  0  0  0  0
  -30.3390  -16.8240   20.4110 C   0  0  0  0  0  2  0  0  0  0  0  0
  -30.9570  -15.2790   19.8880 C   0  0  0  0  0  0  0  0  0  0  0  0
  -30.7850  -12.8600   18.9710 C   0  0  0  0  0  2  0  0  0  0  0  0
  -29.8100  -12.7680   17.7680 C   0  0  0  0  0  2  0  0  0  0  0  0
  -28.3650  -12.5640   18.2520 C   0  0  0  0  0  2  0  0  0  0  0  0
  -28.0120  -13.5090   19.4290 C   0  0  0  0  0  3  0  0  0  0  0  0
  -29.1070  -13.5540   20.5160 C   0  0  0  0  0  2  0  0  0  0  0  0
  -30.3520  -13.9930   19.8680 N   0  0  0  0  0  0  0  0  0  0  0  0
  -32.1240  -15.2450   19.4720 O   0  0  0  0  0  0  0  0  0  0  0  0
  -25.7000  -14.1490   20.2960 C   0  0  0  0  0  0  0  0  0  0  0  0
  -24.6210  -13.4080   20.6890 C   0  0  0  0  0  0  0  0  0  0  0  0
  -25.0260  -12.0400   20.6020 C   0  0  0  0  0  0  0  0  0  0  0  0
  -26.6910  -13.2370   19.9820 N   0  0  0  0  0  0  0  0  0  0  0  0
  -26.3000  -11.9590   20.2330 N   0  0  0  0  0  0  0  0  0  0  0  0
  -24.2510  -10.8060   20.7890 C   0  0  0  0  0  0  0  0  0  0  0  0
  -24.6520   -9.8120   21.7100 C   0  0  0  0  0  3  0  0  0  0  0  0
  -23.8780   -8.6450   21.8870 C   0  0  0  0  0  3  0  0  0  0  0  0
  -22.6870   -8.4620   21.1440 C   0  0  0  0  0  0  0  0  0  0  0  0
  -22.3040   -9.4440   20.2120 C   0  0  0  0  0  3  0  0  0  0  0  0
  -23.0790  -10.6020   20.0330 C   0  0  0  0  0  3  0  0  0  0  0  0
  -21.8860   -7.3500   21.2310 O   0  0  0  0  0  0  0  0  0  0  0  0
  -21.7870   -6.6230   22.3900 C   0  0  0  0  0  0  0  0  0  0  0  0
  -21.3340   -7.2010   23.5970 C   0  0  0  0  0  3  0  0  0  0  0  0
  -21.1810   -6.4030   24.7470 C   0  0  0  0  0  3  0  0  0  0  0  0
  -21.4700   -5.0260   24.6920 C   0  0  0  0  0  0  0  0  0  0  0  0
  -21.9160   -4.4470   23.4910 C   0  0  0  0  0  3  0  0  0  0  0  0
  -22.0700   -5.2440   22.3420 C   0  0  0  0  0  0  0  0  0  0  0  0
  -22.4790   -4.6760   21.1810 F   0  0  0  0  0  0  0  0  0  0  0  0
  -21.3160   -4.2560   25.7940 F   0  0  0  0  0  0  0  0  0  0  0  0
  -23.2580  -13.9370   21.0300 C   0  0  0  0  0  0  0  0  0  0  0  0
  -22.5460  -13.2630   21.9230 N   0  0  0  0  0  0  0  0  0  0  0  0
  -22.8390  -14.9840   20.5380 O   0  0  0  0  0  0  0  0  0  0  0  0
  -22.8990  -12.4150   22.3430 H   0  0  0  0  0  0  0  0  0  0  0  0
  -21.6330  -13.5990   22.1960 H   0  0  0  0  0  0  0  0  0  0  0  0
  -25.9170  -15.5160   20.1520 N   0  0  0  0  0  0  0  0  0  0  0  0
  -25.1840  -16.1990   20.3130 H   0  0  0  0  0  0  0  0  0  0  0  0
  -26.7680  -15.9250   19.7900 H   0  0  0  0  0  0  0  0  0  0  0  0
  -28.4770  -25.9200   20.2600 O   0  0  0  0  0  0  0  0  0  0  0  0
  -24.7430  -31.7310   23.1800 C   0  0  0  0  0  0  0  0  0  0  0  0
  -27.4410  -26.9740   20.1380 C   0  0  0  0  0  0  0  0  0  0  0  0
  -23.6020  -30.3380   21.4990 C   0  0  0  0  0  3  0  0  0  0  0  0
  -25.1050  -28.7880   20.0750 C   0  0  0  0  0  0  0  0  0  0  0  0
  -26.1640  -30.6060   21.4010 C   0  0  0  0  0  2  0  0  0  0  0  0
  -26.2700  -29.2130   20.7260 C   0  0  0  0  0  0  0  0  0  0  0  0
  -27.4300  -28.3230   20.7370 C   0  0  0  0  0  3  0  0  0  0  0  0
  -26.2510  -26.6980   19.4290 C   0  0  0  0  0  3  0  0  0  0  0  0
  -25.1180  -27.5530   19.4070 C   0  0  0  0  0  3  0  0  0  0  0  0
  -23.8670  -29.6810   20.1170 C   0  0  0  0  0  2  0  0  0  0  0  0
  -24.8560  -30.9180   22.0810 N   0  0  0  0  0  0  0  0  0  0  0  0
  -23.6410  -31.9930   23.6870 O   0  0  0  0  0  0  0  0  0  0  0  0
  -22.9130  -29.3150   22.4370 C   0  0  0  0  0  0  0  0  0  0  0  0
  -21.5890  -29.1250   22.2830 N   0  0  0  0  0  0  0  0  0  0  0  0
  -23.5730  -28.6930   23.2720 O   0  0  0  0  0  0  0  0  0  0  0  0
  -21.1070  -29.6800   21.5890 H   0  0  0  0  0  0  0  0  0  0  0  0
  -18.2240  -27.8330   22.6940 C   0  0  0  0  0  0  0  0  0  0  0  0
  -20.7690  -28.1620   23.0260 C   0  0  0  0  0  3  0  0  0  0  0  0
  -20.9200  -26.7370   22.4450 C   0  0  0  0  0  2  0  0  0  0  0  0
  -19.8540  -26.3940   21.3990 C   0  0  0  0  0  2  0  0  0  0  0  0
  -18.4530  -26.4970   22.0090 C   0  0  0  0  0  2  0  0  0  0  0  0
  -19.3110  -28.6230   23.1570 C   0  0  0  0  0  0  0  0  0  0  0  0
  -19.0420  -29.8710   23.7600 C   0  0  0  0  0  3  0  0  0  0  0  0
  -17.7190  -30.3320   23.9010 C   0  0  0  0  0  3  0  0  0  0  0  0
  -16.6470  -29.5410   23.4520 C   0  0  0  0  0  3  0  0  0  0  0  0
  -16.9000  -28.2940   22.8550 C   0  0  0  0  0  3  0  0  0  0  0  0
  -25.9930  -32.3840   23.8450 C   0  0  0  0  0  3  0  0  0  0  0  0
  -26.4760  -31.6220   25.1400 C   0  0  1  0  0  0  0  0  0  0  0  0
  -25.3520  -31.3780   26.1750 C   0  0  0  0  0  1  0  0  0  0  0  0
  -27.0840  -30.2480   24.7790 C   0  0  0  0  0  1  0  0  0  0  0  0
  -27.5980  -32.4290   25.8360 C   0  0  0  0  0  1  0  0  0  0  0  0
  -25.6530  -33.7800   24.1740 N   0  0  0  0  0  0  0  0  0  0  0  0
  -25.9880  -34.8470   23.4360 C   0  0  0  0  0  0  0  0  0  0  0  0
  -26.6780  -34.7610   22.4170 O   0  0  0  0  0  0  0  0  0  0  0  0
  -25.0420  -33.9180   24.9640 H   0  0  0  0  0  0  0  0  0  0  0  0
  -24.2440  -36.6270   23.0770 C   0  0  0  0  0  1  0  0  0  0  0  0
  -25.4790  -36.2270   23.8990 C   0  0  0  0  0  3  0  0  0  0  0  0
  -27.5860  -37.1390   24.7730 C   0  0  0  0  0  1  0  0  0  0  0  0
  -26.5000  -37.2940   23.8080 N   0  0  0  0  0  0  0  0  0  0  0  0
  -26.0800  -38.2080   23.9480 H   0  0  0  0  0  0  0  0  0  0  0  0
  1  2  1  0
  1  3  1  0
  2  5  1  0
  3  6  1  0
  5  8  1  0
  5  4  1  0
  6 49  1  0
  6  4  1  0
  8  9  1  1
  8  7  1  0
 11 10  1  0
 11  8  1  0
 11 12  1  0
 13 12  1  0
 14 19  1  0
 15 16  1  0
 15 14  1  0
 17 16  1  0
 17 24  1  0
 17 18  1  0
 19 13  1  0
 19 18  1  0
 20 13  2  0
 21 22  2  0
 22 41  1  0
 23 22  1  0
 23 26  1  0
 24 25  1  0
 24 21  1  0
 25 23  2  0
 26 27  1  0
 27 28  2  0
 29 32  1  0
 29 28  1  0
 30 29  2  0
 31 30  1  0
 31 26  2  0
 32 33  1  0
 33 34  1  0
 34 35  2  0
 36 35  1  0
 36 40  1  0
 37 36  2  0
 38 33  2  0
 38 37  1  0
 39 38  1  0
 41 42  1  0
 42 45  1  0
 42 44  1  0
 43 41  2  0
 46 21  1  0
 46 47  1  0
 48 46  1  0
 50 61  2  0
 51 49  1  0
 51 56  1  0
 52 60  1  0
 52 62  1  0
 53 59  1  0
 53 55  1  0
 54 60  1  0
 55 56  2  0
 55 54  1  0
 57 51  2  0
 58 57  1  0
 58 53  2  0
 59 52  1  0
 60 50  1  0
 62 64  2  0
 63 62  1  0
 65 63  1  0
 66 75  2  0
 66 71  1  0
 67 63  1  0
 67 71  1  0
 68 67  1  0
 69 70  1  0
 69 68  1  0
 70 66  1  0
 71 72  2  0
 72 73  1  0
 74 73  2  0
 75 74  1  0
 76 50  1  0
 76 81  1  0
 76 77  1  0
 77 80  1  1
 77 78  1  0
 79 77  1  0
 81 84  1  0
 82 86  1  0
 82 81  1  0
 83 82  2  0
 86 85  1  0
 88 86  1  0
 88 89  1  0
 88 87  1  0
M  ISO  4   6 101  12 100  13 100  49 101
M  END
>  <TORSDO>  (29) 
F 19

>  <SCORE>  (29) 
-13.919

>  <name>  (29) 
28

>  <ligand_id>  (29) 
28

>  <original_smiles>  (29) 
[H]c1c([H])c([H])c2c(c1[H])C([H])([H])C([H])([H])C([H])([H])C2([H])N([H])C(=O)C1([H])N(C(=O)C([H])(N([H])C(=O)C([H])(N([H])C([H])([H])[H])C([H])([H])[H])C(C([H])([H])[H])(C([H])([H])[H])C([H])([H])[H])C([H])([H])c2c([H])c(OC3([H])C([H])([H])C([H])([H])C([H])([H])C([H])([N+]([H])(C([H])([H])[H])C([H])(C([H])([H])[H])C([H])([H])C(=O)N4C([H])([H])C([H])([H])C([H])([H])C([H])(n5nc(-c6c([H])c([H])c(Oc7c([H])c([H])c(F)c([H])c7F)c([H])c6[H])c(C(=O)N([H])[H])c5N([H])[H])C4([H])[H])C3([H])[H])c([H])c([H])c2C1([H])[H]

>  <smiles>  (29) 
[H]c1c([H])c([H])c2c(c1[H])C([H])([H])C([H])([H])C([H])([H])C2([H])N([H])C(=O)C1([H])N(C(=O)C([H])(N([H])C(=O)C([H])(N([H])C([H])([H])[H])C([H])([H])[H])C(C([H])([H])[H])(C([H])([H])[H])C([H])([H])[H])C([H])([H])c2c([H])c(OC3([H])C([H])([H])C([H])([H])C([H])([H])C([H])([N+]([H])(C([H])([H])[H])C([H])(C([H])([H])[H])C([H])([H])C(=O)N4C([H])([H])C([H])([H])C([H])([H])C([H])(n5nc(-c6c([H])c([H])c(Oc7c([H])c([H])c(F)c([H])c7F)c([H])c6[H])c(C(=O)N([H])[H])c5N([H])[H])C4([H])[H])C3([H])[H])c([H])c([H])c2C1([H])[H]

$$$$
29:0:0
     RDKit          3D

 98106  0  0  1  0  0  0  0  0999 V2000
  -30.6740  -21.2960   23.8750 C   0  0  0  0  0  2  0  0  0  0  0  0
  -30.6580  -20.6840   22.4590 C   0  0  0  0  0  2  0  0  0  0  0  0
  -31.3630  -19.3740   22.3480 N   0  0  0  0  0  4  0  0  0  0  0  0
  -32.3290  -19.5090   22.6060 H   0  0  0  0  0  0  0  0  0  0  0  0
  -30.9550  -18.7320   23.0100 H   0  0  0  0  0  0  0  0  0  0  0  0
  -31.7340  -17.2620   20.9200 C   0  0  0  0  0  2  0  0  0  0  0  0
  -30.0120  -19.0960   20.2510 C   0  0  0  0  0  2  0  0  0  0  0  0
  -29.6990  -16.7820   19.4050 C   0  0  0  0  0  2  0  0  0  0  0  0
  -31.3360  -18.7790   20.9800 C   0  0  0  0  0  3  0  0  0  0  0  0
  -30.5970  -16.2210   20.5630 C   0  0  2  0  0  0  0  0  0  0  0  0
  -29.8110  -18.2620   18.9900 C   0  0  1  0  0  0  0  0  0  0  0  0
  -29.8180  -16.0200   21.8970 C   0  0  0  0  0  1  0  0  0  0  0  0
  -28.4910  -18.6890   18.3150 C   0  0  0  0  0  1  0  0  0  0  0  0
  -30.9390  -18.4820   17.9540 C   0  0  0  0  0  1  0  0  0  0  0  0
  -31.2040  -14.8600   20.0250 C   0  0  0  0  0  0  0  0  0  0  0  0
  -30.8410  -12.6430   18.9660 C   0  0  0  0  0  2  0  0  0  0  0  0
  -29.8750  -12.7730   17.7700 C   0  0  0  0  0  2  0  0  0  0  0  0
  -28.4100  -12.6200   18.2260 C   0  0  0  0  0  2  0  0  0  0  0  0
  -28.0830  -13.5270   19.4340 C   0  0  0  0  0  3  0  0  0  0  0  0
  -29.1670  -13.3880   20.5280 C   0  0  0  0  0  2  0  0  0  0  0  0
  -30.4880  -13.6900   19.9490 N   0  0  0  0  0  0  0  0  0  0  0  0
  -32.3190  -14.9250   19.5030 O   0  0  0  0  0  0  0  0  0  0  0  0
  -25.7420  -14.2180   20.2430 C   0  0  0  0  0  0  0  0  0  0  0  0
  -24.6650  -13.4780   20.6500 C   0  0  0  0  0  0  0  0  0  0  0  0
  -25.0840  -12.1140   20.5960 C   0  0  0  0  0  0  0  0  0  0  0  0
  -26.7460  -13.3010   19.9650 N   0  0  0  0  0  0  0  0  0  0  0  0
  -26.3580  -12.0330   20.2360 N   0  0  0  0  0  0  0  0  0  0  0  0
  -24.3320  -10.8740   20.8100 C   0  0  0  0  0  0  0  0  0  0  0  0
  -24.7300   -9.9300   21.7820 C   0  0  0  0  0  3  0  0  0  0  0  0
  -23.9830   -8.7480   21.9770 C   0  0  0  0  0  3  0  0  0  0  0  0
  -22.8260   -8.5050   21.1990 C   0  0  0  0  0  0  0  0  0  0  0  0
  -22.4500   -9.4380   20.2170 C   0  0  0  0  0  3  0  0  0  0  0  0
  -23.1970  -10.6100   20.0210 C   0  0  0  0  0  3  0  0  0  0  0  0
  -22.0540   -7.3730   21.3000 O   0  0  0  0  0  0  0  0  0  0  0  0
  -21.8870   -6.7230   22.4950 C   0  0  0  0  0  0  0  0  0  0  0  0
  -21.3560   -7.3730   23.6310 C   0  0  0  0  0  3  0  0  0  0  0  0
  -21.1360   -6.6460   24.8170 C   0  0  0  0  0  3  0  0  0  0  0  0
  -21.4380   -5.2720   24.8690 C   0  0  0  0  0  0  0  0  0  0  0  0
  -21.9660   -4.6240   23.7390 C   0  0  0  0  0  3  0  0  0  0  0  0
  -22.1880   -5.3480   22.5550 C   0  0  0  0  0  0  0  0  0  0  0  0
  -22.6750   -4.7140   21.4600 F   0  0  0  0  0  0  0  0  0  0  0  0
  -21.2200   -4.5720   26.0060 F   0  0  0  0  0  0  0  0  0  0  0  0
  -23.2940  -13.9970   20.9760 C   0  0  0  0  0  0  0  0  0  0  0  0
  -22.5900  -13.3280   21.8840 N   0  0  0  0  0  0  0  0  0  0  0  0
  -22.8570  -15.0250   20.4610 O   0  0  0  0  0  0  0  0  0  0  0  0
  -22.9590  -12.4900   22.3090 H   0  0  0  0  0  0  0  0  0  0  0  0
  -21.6730  -13.6530   22.1500 H   0  0  0  0  0  0  0  0  0  0  0  0
  -25.9390  -15.5830   20.0680 N   0  0  0  0  0  0  0  0  0  0  0  0
  -25.2050  -16.2620   20.2280 H   0  0  0  0  0  0  0  0  0  0  0  0
  -26.7950  -15.9960   19.7250 H   0  0  0  0  0  0  0  0  0  0  0  0
  -29.6510  -22.4450   24.0870 C   0  0  0  0  0  2  0  0  0  0  0  0
  -29.8810  -24.9160   24.0610 C   0  0  0  0  0  1  0  0  0  0  0  0
  -29.9100  -23.6640   23.2580 N   0  0  2  0  0  4  0  0  0  0  0  0
  -30.8810  -23.5990   22.9880 H   0  0  0  0  0  0  0  0  0  0  0  0
  -29.1490  -23.6960   21.9610 C   0  0  0  0  0  2  0  0  0  0  0  0
  -28.4870  -25.0460   21.5750 C   0  0  0  0  0  2  0  0  0  0  0  0
  -27.7150  -25.0060   20.2400 C   0  0  0  0  0  2  0  0  0  0  0  0
  -27.7170  -26.3260   19.6990 O   0  0  0  0  0  0  0  0  0  0  0  0
  -24.4900  -31.6310   23.1380 C   0  0  0  0  0  0  0  0  0  0  0  0
  -26.5760  -27.0790   19.8310 C   0  0  0  0  0  0  0  0  0  0  0  0
  -23.0860  -30.3440   21.5850 C   0  0  0  0  0  3  0  0  0  0  0  0
  -24.2960  -28.7260   20.0360 C   0  0  0  0  0  0  0  0  0  0  0  0
  -25.5930  -30.5350   21.1890 C   0  0  0  0  0  2  0  0  0  0  0  0
  -25.5270  -29.1720   20.5320 C   0  0  0  0  0  0  0  0  0  0  0  0
  -26.6700  -28.3550   20.4200 C   0  0  0  0  0  3  0  0  0  0  0  0
  -25.3280  -26.6380   19.3330 C   0  0  0  0  0  3  0  0  0  0  0  0
  -24.1880  -27.4590   19.4340 C   0  0  0  0  0  3  0  0  0  0  0  0
  -23.1260  -29.6690   20.1860 C   0  0  0  0  0  2  0  0  0  0  0  0
  -24.4160  -30.8480   22.0280 N   0  0  0  0  0  0  0  0  0  0  0  0
  -23.4710  -31.9700   23.7560 O   0  0  0  0  0  0  0  0  0  0  0  0
  -22.4370  -29.3660   22.5850 C   0  0  0  0  0  0  0  0  0  0  0  0
  -21.1140  -29.3330   22.4860 N   0  0  0  0  0  0  0  0  0  0  0  0
  -23.0950  -28.6630   23.3540 O   0  0  0  0  0  0  0  0  0  0  0  0
  -20.7260  -30.0240   21.8560 H   0  0  0  0  0  0  0  0  0  0  0  0
  -17.6570  -28.0150   22.9910 C   0  0  0  0  0  0  0  0  0  0  0  0
  -20.1390  -28.3690   22.9260 C   0  0  0  0  0  3  0  0  0  0  0  0
  -20.3730  -26.8620   22.7830 C   0  0  0  0  0  2  0  0  0  0  0  0
  -19.2560  -26.2790   21.8920 C   0  0  0  0  0  2  0  0  0  0  0  0
  -17.8450  -26.6020   22.4320 C   0  0  0  0  0  2  0  0  0  0  0  0
  -18.7630  -28.8280   23.3380 C   0  0  0  0  0  0  0  0  0  0  0  0
  -18.5600  -30.1190   23.8660 C   0  0  0  0  0  3  0  0  0  0  0  0
  -17.2550  -30.6230   24.0050 C   0  0  0  0  0  3  0  0  0  0  0  0
  -16.1530  -29.8310   23.6310 C   0  0  0  0  0  3  0  0  0  0  0  0
  -16.3550  -28.5270   23.1410 C   0  0  0  0  0  3  0  0  0  0  0  0
  -25.8570  -32.1570   23.6680 C   0  0  0  0  0  3  0  0  0  0  0  0
  -25.6560  -33.5470   24.0940 N   0  0  0  0  0  0  0  0  0  0  0  0
  -26.0140  -34.6190   23.3760 C   0  0  0  0  0  0  0  0  0  0  0  0
  -26.6210  -34.5360   22.3030 O   0  0  0  0  0  0  0  0  0  0  0  0
  -25.1190  -33.6890   24.9370 H   0  0  0  0  0  0  0  0  0  0  0  0
  -24.3970  -36.5350   23.2040 C   0  0  0  0  0  1  0  0  0  0  0  0
  -25.6400  -36.0040   23.9360 C   0  0  0  0  0  3  0  0  0  0  0  0
  -27.8600  -36.6920   24.7230 C   0  0  0  0  0  1  0  0  0  0  0  0
  -26.7370  -36.9910   23.8390 N   0  0  0  0  0  0  0  0  0  0  0  0
  -26.4020  -37.9240   24.0610 H   0  0  0  0  0  0  0  0  0  0  0  0
  -26.4360  -31.2850   24.8460 C   0  0  1  0  0  0  0  0  0  0  0  0
  -25.4250  -31.0390   25.9900 C   0  0  0  0  0  1  0  0  0  0  0  0
  -26.9060  -29.9050   24.3270 C   0  0  0  0  0  1  0  0  0  0  0  0
  -27.6820  -31.9800   25.4440 C   0  0  0  0  0  1  0  0  0  0  0  0
  1 51  1  0
  2  1  1  0
  3  2  1  0
  3  4  1  0
  3  5  1  0
  6  9  1  0
  7  9  1  0
  8 10  1  0
  9  3  1  0
 10  6  1  0
 10 12  1  1
 11  8  1  0
 11  7  1  0
 11 13  1  6
 14 11  1  0
 15 10  1  0
 16 21  1  0
 17 18  1  0
 17 16  1  0
 19 18  1  0
 19 26  1  0
 19 20  1  0
 21 15  1  0
 21 20  1  0
 22 15  2  0
 23 24  2  0
 24 43  1  0
 25 24  1  0
 25 28  1  0
 26 27  1  0
 26 23  1  0
 27 25  2  0
 28 29  1  0
 29 30  2  0
 31 34  1  0
 31 30  1  0
 32 31  2  0
 33 32  1  0
 33 28  2  0
 34 35  1  0
 35 40  2  0
 35 36  1  0
 36 37  2  0
 37 38  1  0
 38 42  1  0
 39 38  2  0
 40 39  1  0
 41 40  1  0
 43 44  1  0
 44 47  1  0
 44 46  1  0
 45 43  2  0
 48 49  1  0
 48 23  1  0
 50 48  1  0
 53 52  1  0
 53 51  1  0
 53 54  1  6
 55 53  1  0
 56 55  1  0
 57 56  1  0
 58 60  1  0
 58 57  1  0
 59 70  2  0
 60 65  1  0
 61 69  1  0
 61 71  1  0
 62 68  1  0
 62 64  1  0
 63 69  1  0
 64 63  1  0
 65 64  2  0
 66 67  1  0
 66 60  2  0
 67 62  2  0
 68 61  1  0
 69 59  1  0
 71 73  2  0
 72 71  1  0
 74 72  1  0
 75 84  2  0
 75 80  1  0
 76 72  1  0
 76 80  1  0
 77 76  1  0
 78 79  1  0
 78 77  1  0
 79 75  1  0
 80 81  2  0
 81 82  1  0
 83 82  2  0
 84 83  1  0
 85 59  1  0
 85 86  1  0
 85 95  1  0
 86 89  1  0
 87 91  1  0
 87 86  1  0
 88 87  2  0
 91 90  1  0
 93 91  1  0
 93 94  1  0
 93 92  1  0
 95 98  1  1
 95 96  1  0
 97 95  1  0
M  ISO  4  10 100  15 100  57 101  58 101
M  END
>  <TORSDO>  (30) 
F 24

>  <SCORE>  (30) 
-11.514

>  <name>  (30) 
29

>  <ligand_id>  (30) 
29

>  <original_smiles>  (30) 
[H]c1c([H])c([H])c2c(c1[H])C([H])([H])C([H])([H])C([H])([H])C2([H])N([H])C(=O)C1([H])N(C(=O)C([H])(N([H])C(=O)C([H])(N([H])C([H])([H])[H])C([H])([H])[H])C(C([H])([H])[H])(C([H])([H])[H])C([H])([H])[H])C([H])([H])c2c([H])c(OC([H])([H])C([H])([H])C([H])([H])[N+]([H])(C([H])([H])[H])C([H])([H])C([H])([H])C([H])([H])[N+]([H])([H])C3([H])C([H])([H])C(C(=O)N4C([H])([H])C([H])([H])C([H])([H])C([H])(n5nc(-c6c([H])c([H])c(Oc7c([H])c([H])c(F)c([H])c7F)c([H])c6[H])c(C(=O)N([H])[H])c5N([H])[H])C4([H])[H])(C([H])([H])[H])C([H])([H])C(C([H])([H])[H])(C([H])([H])[H])C3([H])[H])c([H])c([H])c2C1([H])[H]

>  <smiles>  (30) 
[H]c1c([H])c([H])c2c(c1[H])C([H])([H])C([H])([H])C([H])([H])C2([H])N([H])C(=O)C1([H])N(C(=O)C([H])(N([H])C(=O)C([H])(N([H])C([H])([H])[H])C([H])([H])[H])C(C([H])([H])[H])(C([H])([H])[H])C([H])([H])[H])C([H])([H])c2c([H])c(OC([H])([H])C([H])([H])C([H])([H])[N+]([H])(C([H])([H])[H])C([H])([H])C([H])([H])C([H])([H])[N+]([H])([H])C3([H])C([H])([H])C(C(=O)N4C([H])([H])C([H])([H])C([H])([H])C([H])(n5nc(-c6c([H])c([H])c(Oc7c([H])c([H])c(F)c([H])c7F)c([H])c6[H])c(C(=O)N([H])[H])c5N([H])[H])C4([H])[H])(C([H])([H])[H])C([H])([H])C(C([H])([H])[H])(C([H])([H])[H])C3([H])[H])c([H])c([H])c2C1([H])[H]

$$$$
30:0:0
     RDKit          3D

 89 96  0  0  1  0  0  0  0  0999 V2000
  -30.0120  -21.9130   20.9650 C   0  0  0  0  0  2  0  0  0  0  0  0
  -31.6250  -21.1360   19.1250 C   0  0  0  0  0  1  0  0  0  0  0  0
  -30.5300  -20.6950   20.1260 C   0  0  0  0  0  3  0  0  0  0  0  0
  -31.8290  -19.9410   22.1530 C   0  0  0  0  0  1  0  0  0  0  0  0
  -31.0580  -19.5480   20.9410 N   0  0  1  0  0  4  0  0  0  0  0  0
  -31.7470  -19.1540   20.3170 H   0  0  0  0  0  0  0  0  0  0  0  0
  -30.1340  -18.3910   21.1680 C   0  0  0  0  0  2  0  0  0  0  0  0
  -30.8740  -17.0360   20.9750 C   0  0  0  0  0  2  0  0  0  0  0  0
  -30.0400  -15.7260   21.1590 C   0  0  0  0  0  2  0  0  0  0  0  0
  -30.6770  -14.4860   20.4720 C   0  0  0  0  0  0  0  0  0  0  0  0
  -30.3180  -12.3480   19.2900 C   0  0  0  0  0  2  0  0  0  0  0  0
  -29.3660  -12.5860   18.1000 C   0  0  0  0  0  2  0  0  0  0  0  0
  -27.8980  -12.4470   18.5460 C   0  0  0  0  0  2  0  0  0  0  0  0
  -27.5840  -13.2670   19.8270 C   0  0  0  0  0  3  0  0  0  0  0  0
  -28.6570  -13.0480   20.9180 C   0  0  0  0  0  2  0  0  0  0  0  0
  -29.9750  -13.3270   20.3330 N   0  0  0  0  0  0  0  0  0  0  0  0
  -31.7880  -14.6260   19.9560 O   0  0  0  0  0  0  0  0  0  0  0  0
  -25.2000  -13.8770   20.5710 C   0  0  0  0  0  0  0  0  0  0  0  0
  -24.1330  -13.1050   20.9540 C   0  0  0  0  0  0  0  0  0  0  0  0
  -24.5900  -11.7540   20.9090 C   0  0  0  0  0  0  0  0  0  0  0  0
  -26.2380  -12.9930   20.3240 N   0  0  0  0  0  0  0  0  0  0  0  0
  -25.8760  -11.7100   20.5820 N   0  0  0  0  0  0  0  0  0  0  0  0
  -23.8620  -10.4910   21.1070 C   0  0  0  0  0  0  0  0  0  0  0  0
  -24.3250   -9.5050   22.0050 C   0  0  0  0  0  3  0  0  0  0  0  0
  -23.5980   -8.3090   22.1910 C   0  0  0  0  0  3  0  0  0  0  0  0
  -22.3960   -8.0900   21.4770 C   0  0  0  0  0  0  0  0  0  0  0  0
  -21.9520   -9.0670   20.5680 C   0  0  0  0  0  3  0  0  0  0  0  0
  -22.6790  -10.2550   20.3810 C   0  0  0  0  0  3  0  0  0  0  0  0
  -21.6380   -6.9470   21.5730 O   0  0  0  0  0  0  0  0  0  0  0  0
  -21.6500   -6.1680   22.7030 C   0  0  0  0  0  0  0  0  0  0  0  0
  -21.3250   -6.6930   23.9730 C   0  0  0  0  0  3  0  0  0  0  0  0
  -21.2810   -5.8420   25.0950 C   0  0  0  0  0  3  0  0  0  0  0  0
  -21.5550   -4.4690   24.9490 C   0  0  0  0  0  0  0  0  0  0  0  0
  -21.8740   -3.9440   23.6840 C   0  0  0  0  0  3  0  0  0  0  0  0
  -21.9190   -4.7920   22.5630 C   0  0  0  0  0  0  0  0  0  0  0  0
  -22.2060   -4.2790   21.3430 F   0  0  0  0  0  0  0  0  0  0  0  0
  -21.5070   -3.6480   26.0260 F   0  0  0  0  0  0  0  0  0  0  0  0
  -22.7420  -13.5860   21.2470 C   0  0  0  0  0  0  0  0  0  0  0  0
  -22.0250  -12.8890   22.1220 N   0  0  0  0  0  0  0  0  0  0  0  0
  -22.2970  -14.6120   20.7330 O   0  0  0  0  0  0  0  0  0  0  0  0
  -22.3980  -12.0600   22.5600 H   0  0  0  0  0  0  0  0  0  0  0  0
  -21.0910  -13.1910   22.3570 H   0  0  0  0  0  0  0  0  0  0  0  0
  -25.3650  -15.2460   20.3960 N   0  0  0  0  0  0  0  0  0  0  0  0
  -24.5980  -15.9020   20.5100 H   0  0  0  0  0  0  0  0  0  0  0  0
  -26.2140  -15.6840   20.0560 H   0  0  0  0  0  0  0  0  0  0  0  0
  -29.1690  -22.9330   20.1550 C   0  0  0  0  0  2  0  0  0  0  0  0
  -29.3610  -24.4270   20.5250 C   0  0  0  0  0  2  0  0  0  0  0  0
  -28.3440  -25.3210   19.7820 C   0  0  0  0  0  2  0  0  0  0  0  0
  -28.3850  -26.7030   20.1680 O   0  0  0  0  0  0  0  0  0  0  0  0
  -24.6070  -31.8990   23.2340 C   0  0  0  0  0  0  0  0  0  0  0  0
  -27.2090  -27.4340   20.1300 C   0  0  0  0  0  0  0  0  0  0  0  0
  -23.3790  -30.4980   21.6100 C   0  0  0  0  0  3  0  0  0  0  0  0
  -24.8120  -28.9600   20.1630 C   0  0  0  0  0  0  0  0  0  0  0  0
  -25.9020  -30.8400   21.3860 C   0  0  0  0  0  2  0  0  0  0  0  0
  -25.9780  -29.4710   20.7450 C   0  0  0  0  0  0  0  0  0  0  0  0
  -27.1750  -28.7160   20.7300 C   0  0  0  0  0  3  0  0  0  0  0  0
  -26.0200  -26.9540   19.5250 C   0  0  0  0  0  3  0  0  0  0  0  0
  -24.8270  -27.6990   19.5480 C   0  0  0  0  0  3  0  0  0  0  0  0
  -23.5680  -29.8180   20.2280 C   0  0  0  0  0  2  0  0  0  0  0  0
  -24.6490  -31.0920   22.1370 N   0  0  0  0  0  0  0  0  0  0  0  0
  -23.5320  -32.1830   23.7810 O   0  0  0  0  0  0  0  0  0  0  0  0
  -22.7380  -29.4740   22.5730 C   0  0  0  0  0  0  0  0  0  0  0  0
  -21.4110  -29.2990   22.4560 N   0  0  0  0  0  0  0  0  0  0  0  0
  -23.4270  -28.8470   23.3820 O   0  0  0  0  0  0  0  0  0  0  0  0
  -20.9160  -29.8570   21.7730 H   0  0  0  0  0  0  0  0  0  0  0  0
  -18.0370  -28.1160   22.9710 C   0  0  0  0  0  0  0  0  0  0  0  0
  -20.5940  -28.3680   23.2310 C   0  0  0  0  0  3  0  0  0  0  0  0
  -20.6900  -26.9350   22.6570 C   0  0  0  0  0  2  0  0  0  0  0  0
  -19.5840  -26.6130   21.6480 C   0  0  0  0  0  2  0  0  0  0  0  0
  -18.2060  -26.7640   22.2980 C   0  0  0  0  0  2  0  0  0  0  0  0
  -19.1590  -28.8760   23.3930 C   0  0  0  0  0  0  0  0  0  0  0  0
  -18.9490  -30.1420   23.9780 C   0  0  0  0  0  3  0  0  0  0  0  0
  -17.6490  -30.6510   24.1470 C   0  0  0  0  0  3  0  0  0  0  0  0
  -16.5400  -29.8870   23.7450 C   0  0  0  0  0  3  0  0  0  0  0  0
  -16.7330  -28.6210   23.1610 C   0  0  0  0  0  3  0  0  0  0  0  0
  -25.9020  -32.5240   23.8410 C   0  0  0  0  0  3  0  0  0  0  0  0
  -25.5990  -33.9180   24.1850 N   0  0  0  0  0  0  0  0  0  0  0  0
  -25.9220  -34.9730   23.4260 C   0  0  0  0  0  0  0  0  0  0  0  0
  -26.5790  -34.8770   22.3870 O   0  0  0  0  0  0  0  0  0  0  0  0
  -25.0140  -34.0680   24.9940 H   0  0  0  0  0  0  0  0  0  0  0  0
  -24.1880  -36.7650   23.1090 C   0  0  0  0  0  1  0  0  0  0  0  0
  -25.4410  -36.3580   23.8980 C   0  0  0  0  0  3  0  0  0  0  0  0
  -27.5950  -37.2360   24.6910 C   0  0  0  0  0  1  0  0  0  0  0  0
  -26.4720  -37.4110   23.7730 N   0  0  0  0  0  0  0  0  0  0  0  0
  -26.0700  -38.3300   23.9410 H   0  0  0  0  0  0  0  0  0  0  0  0
  -26.4380  -31.7380   25.0990 C   0  0  1  0  0  0  0  0  0  0  0  0
  -25.3610  -31.4910   26.1790 C   0  0  0  0  0  1  0  0  0  0  0  0
  -27.0100  -30.3630   24.6810 C   0  0  0  0  0  1  0  0  0  0  0  0
  -27.6000  -32.5210   25.7500 C   0  0  0  0  0  1  0  0  0  0  0  0
  3  2  1  0
  3  5  1  0
  3  1  1  0
  5  7  1  0
  5  4  1  0
  5  6  1  6
  8  9  1  0
  8  7  1  0
 10  9  1  0
 11 16  1  0
 12 13  1  0
 12 11  1  0
 14 13  1  0
 14 21  1  0
 14 15  1  0
 16 10  1  0
 16 15  1  0
 17 10  2  0
 18 19  2  0
 19 38  1  0
 20 19  1  0
 20 23  1  0
 21 18  1  0
 21 22  1  0
 22 20  2  0
 23 24  1  0
 24 25  2  0
 26 29  1  0
 26 25  1  0
 27 26  2  0
 28 27  1  0
 28 23  2  0
 29 30  1  0
 30 31  1  0
 31 32  2  0
 33 32  1  0
 33 37  1  0
 34 33  2  0
 35 30  2  0
 35 34  1  0
 36 35  1  0
 38 39  1  0
 39 42  1  0
 39 41  1  0
 40 38  2  0
 43 44  1  0
 43 18  1  0
 45 43  1  0
 46 47  1  0
 46  1  1  0
 48 49  1  0
 48 47  1  0
 50 61  2  0
 51 49  1  0
 51 56  1  0
 52 60  1  0
 52 62  1  0
 53 59  1  0
 53 55  1  0
 54 60  1  0
 55 54  1  0
 56 55  2  0
 57 58  1  0
 57 51  2  0
 58 53  2  0
 59 52  1  0
 60 50  1  0
 62 64  2  0
 63 62  1  0
 65 63  1  0
 66 75  2  0
 66 71  1  0
 67 63  1  0
 67 71  1  0
 68 67  1  0
 69 70  1  0
 69 68  1  0
 70 66  1  0
 71 72  2  0
 72 73  1  0
 74 73  2  0
 75 74  1  0
 76 50  1  0
 76 77  1  0
 76 86  1  0
 77 80  1  0
 78 82  1  0
 78 77  1  0
 79 78  2  0
 82 81  1  0
 84 82  1  0
 84 85  1  0
 84 83  1  0
 86 89  1  1
 86 87  1  0
 88 86  1  0
M  ISO  4   9 100  10 100  48 101  49 101
M  END
>  <TORSDO>  (31) 
F 24

>  <SCORE>  (31) 
-12.373

>  <name>  (31) 
30

>  <ligand_id>  (31) 
30

>  <original_smiles>  (31) 
[H]c1c([H])c([H])c2c(c1[H])C([H])([H])C([H])([H])C([H])([H])C2([H])N([H])C(=O)C1([H])N(C(=O)C([H])(N([H])C(=O)C([H])(N([H])C([H])([H])[H])C([H])([H])[H])C(C([H])([H])[H])(C([H])([H])[H])C([H])([H])[H])C([H])([H])c2c([H])c(OC([H])([H])C([H])([H])C([H])([H])C([H])([H])C([H])(C([H])([H])[H])[N+]([H])(C([H])([H])[H])C([H])([H])C([H])([H])C([H])([H])C(=O)N3C([H])([H])C([H])([H])C([H])([H])C([H])(n4nc(-c5c([H])c([H])c(Oc6c([H])c([H])c(F)c([H])c6F)c([H])c5[H])c(C(=O)N([H])[H])c4N([H])[H])C3([H])[H])c([H])c([H])c2C1([H])[H]

>  <smiles>  (31) 
[H]c1c([H])c([H])c2c(c1[H])C([H])([H])C([H])([H])C([H])([H])C2([H])N([H])C(=O)C1([H])N(C(=O)C([H])(N([H])C(=O)C([H])(N([H])C([H])([H])[H])C([H])([H])[H])C(C([H])([H])[H])(C([H])([H])[H])C([H])([H])[H])C([H])([H])c2c([H])c(OC([H])([H])C([H])([H])C([H])([H])C([H])([H])C([H])(C([H])([H])[H])[N+]([H])(C([H])([H])[H])C([H])([H])C([H])([H])C([H])([H])C(=O)N3C([H])([H])C([H])([H])C([H])([H])C([H])(n4nc(-c5c([H])c([H])c(Oc6c([H])c([H])c(F)c([H])c6F)c([H])c5[H])c(C(=O)N([H])[H])c4N([H])[H])C3([H])[H])c([H])c([H])c2C1([H])[H]

$$$$
31:0:0
     RDKit          3D

 85 92  0  0  1  0  0  0  0  0999 V2000
  -28.9990  -22.8100   20.2750 C   0  0  0  0  0  3  0  0  0  0  0  0
  -28.4870  -21.1780   20.1310 C   0  0  0  0  0  3  0  0  0  0  0  0
  -28.7590  -19.7250   20.0010 C   0  0  0  0  0  0  0  0  0  0  0  0
  -27.4580  -18.9460   19.8420 C   0  0  0  0  0  1  0  0  0  0  0  0
  -29.9640  -18.4940   19.8960 C   0  0  0  0  0  2  0  0  0  0  0  0
  -28.9320  -16.6100   21.6120 C   0  0  0  0  0  1  0  0  0  0  0  0
  -29.9710  -16.7970   20.4980 C   0  0  0  0  0  3  0  0  0  0  0  0
  -30.5790  -15.2560   19.9120 C   0  0  0  0  0  0  0  0  0  0  0  0
  -30.4410  -12.8590   18.9180 C   0  0  0  0  0  2  0  0  0  0  0  0
  -29.4280  -12.7600   17.7460 C   0  0  0  0  0  2  0  0  0  0  0  0
  -27.9990  -12.5080   18.2630 C   0  0  0  0  0  2  0  0  0  0  0  0
  -27.6650  -13.4050   19.4790 C   0  0  0  0  0  3  0  0  0  0  0  0
  -28.7950  -13.4160   20.5280 C   0  0  0  0  0  2  0  0  0  0  0  0
  -30.0020  -13.9500   19.8670 N   0  0  0  0  0  0  0  0  0  0  0  0
  -31.7280  -15.2550   19.4420 O   0  0  0  0  0  0  0  0  0  0  0  0
  -25.3580  -13.9710   20.4170 C   0  0  0  0  0  0  0  0  0  0  0  0
  -24.3120  -13.1960   20.8360 C   0  0  0  0  0  0  0  0  0  0  0  0
  -24.7510  -11.8420   20.7140 C   0  0  0  0  0  0  0  0  0  0  0  0
  -26.3660  -13.0910   20.0640 N   0  0  0  0  0  0  0  0  0  0  0  0
  -26.0150  -11.8010   20.3060 N   0  0  0  0  0  0  0  0  0  0  0  0
  -24.0140  -10.5850   20.9050 C   0  0  0  0  0  0  0  0  0  0  0  0
  -24.4750   -9.5830   21.7860 C   0  0  0  0  0  3  0  0  0  0  0  0
  -23.7370   -8.3930   21.9670 C   0  0  0  0  0  3  0  0  0  0  0  0
  -22.5220   -8.1980   21.2660 C   0  0  0  0  0  0  0  0  0  0  0  0
  -22.0800   -9.1890   20.3730 C   0  0  0  0  0  3  0  0  0  0  0  0
  -22.8190  -10.3690   20.1900 C   0  0  0  0  0  3  0  0  0  0  0  0
  -21.7510   -7.0640   21.3600 O   0  0  0  0  0  0  0  0  0  0  0  0
  -21.7220   -6.3050   22.5020 C   0  0  0  0  0  0  0  0  0  0  0  0
  -21.3580   -6.8530   23.7520 C   0  0  0  0  0  3  0  0  0  0  0  0
  -21.2750   -6.0230   24.8870 C   0  0  0  0  0  3  0  0  0  0  0  0
  -21.5450   -4.6450   24.7740 C   0  0  0  0  0  0  0  0  0  0  0  0
  -21.9010   -4.0970   23.5300 C   0  0  0  0  0  3  0  0  0  0  0  0
  -21.9860   -4.9250   22.3960 C   0  0  0  0  0  0  0  0  0  0  0  0
  -22.3100   -4.3880   21.1950 F   0  0  0  0  0  0  0  0  0  0  0  0
  -21.4570   -3.8460   25.8630 F   0  0  0  0  0  0  0  0  0  0  0  0
  -22.9490  -13.6850   21.2280 C   0  0  0  0  0  0  0  0  0  0  0  0
  -22.2780  -12.9740   22.1270 N   0  0  0  0  0  0  0  0  0  0  0  0
  -22.4910  -14.7330   20.7730 O   0  0  0  0  0  0  0  0  0  0  0  0
  -22.6650  -12.1280   22.5190 H   0  0  0  0  0  0  0  0  0  0  0  0
  -21.3650  -13.2820   22.4310 H   0  0  0  0  0  0  0  0  0  0  0  0
  -25.5240  -15.3450   20.2780 N   0  0  0  0  0  0  0  0  0  0  0  0
  -24.7720  -15.9980   20.4650 H   0  0  0  0  0  0  0  0  0  0  0  0
  -26.3470  -15.7860   19.8880 H   0  0  0  0  0  0  0  0  0  0  0  0
  -27.9990  -24.2870   20.0990 C   0  0  0  0  0  3  0  0  0  0  0  0
  -28.2370  -25.8960   20.2640 O   0  0  0  0  0  0  0  0  0  0  0  0
  -24.6450  -31.8340   23.1680 C   0  0  0  0  0  0  0  0  0  0  0  0
  -27.2080  -26.9620   20.1940 C   0  0  0  0  0  0  0  0  0  0  0  0
  -23.4440  -30.4110   21.5570 C   0  0  0  0  0  3  0  0  0  0  0  0
  -24.8890  -28.8010   20.1430 C   0  0  0  0  0  0  0  0  0  0  0  0
  -26.0050  -30.6450   21.3830 C   0  0  0  0  0  2  0  0  0  0  0  0
  -26.0780  -29.2310   20.7450 C   0  0  0  0  0  0  0  0  0  0  0  0
  -27.2320  -28.3310   20.7450 C   0  0  0  0  0  3  0  0  0  0  0  0
  -25.9840  -26.6730   19.5460 C   0  0  0  0  0  3  0  0  0  0  0  0
  -24.8640  -27.5410   19.5240 C   0  0  0  0  0  3  0  0  0  0  0  0
  -23.6640  -29.7110   20.1890 C   0  0  0  0  0  2  0  0  0  0  0  0
  -24.7200  -30.9900   22.0890 N   0  0  0  0  0  0  0  0  0  0  0  0
  -23.5600  -32.1230   23.6960 O   0  0  0  0  0  0  0  0  0  0  0  0
  -22.7650  -29.4240   22.5420 C   0  0  0  0  0  0  0  0  0  0  0  0
  -21.4350  -29.2500   22.4290 N   0  0  0  0  0  0  0  0  0  0  0  0
  -23.4400  -28.8120   23.3730 O   0  0  0  0  0  0  0  0  0  0  0  0
  -20.9420  -29.7930   21.7340 H   0  0  0  0  0  0  0  0  0  0  0  0
  -18.0640  -28.0270   22.9780 C   0  0  0  0  0  0  0  0  0  0  0  0
  -20.6230  -28.3190   23.2210 C   0  0  0  0  0  3  0  0  0  0  0  0
  -20.7330  -26.8780   22.6680 C   0  0  0  0  0  2  0  0  0  0  0  0
  -19.6270  -26.5310   21.6660 C   0  0  0  0  0  2  0  0  0  0  0  0
  -18.2480  -26.6720   22.3160 C   0  0  0  0  0  2  0  0  0  0  0  0
  -19.1790  -28.8070   23.3870 C   0  0  0  0  0  0  0  0  0  0  0  0
  -18.9500  -30.0730   23.9690 C   0  0  0  0  0  3  0  0  0  0  0  0
  -17.6400  -30.5620   24.1400 C   0  0  0  0  0  3  0  0  0  0  0  0
  -16.5420  -29.7810   23.7440 C   0  0  0  0  0  3  0  0  0  0  0  0
  -16.7540  -28.5150   23.1700 C   0  0  0  0  0  3  0  0  0  0  0  0
  -25.9200  -32.4900   23.7810 C   0  0  0  0  0  3  0  0  0  0  0  0
  -26.4420  -31.7410   25.0700 C   0  0  1  0  0  0  0  0  0  0  0  0
  -25.3530  -31.5200   26.1470 C   0  0  0  0  0  1  0  0  0  0  0  0
  -27.0280  -30.3580   24.7070 C   0  0  0  0  0  1  0  0  0  0  0  0
  -27.5930  -32.5490   25.7160 C   0  0  0  0  0  1  0  0  0  0  0  0
  -25.5970  -33.8900   24.1050 N   0  0  0  0  0  0  0  0  0  0  0  0
  -25.9110  -34.9460   23.3420 C   0  0  0  0  0  0  0  0  0  0  0  0
  -26.5640  -34.8430   22.3000 O   0  0  0  0  0  0  0  0  0  0  0  0
  -25.0120  -34.0420   24.9130 H   0  0  0  0  0  0  0  0  0  0  0  0
  -24.1590  -36.7270   23.0240 C   0  0  0  0  0  1  0  0  0  0  0  0
  -25.4240  -36.3350   23.8040 C   0  0  0  0  0  3  0  0  0  0  0  0
  -27.5730  -37.2460   24.5740 C   0  0  0  0  0  1  0  0  0  0  0  0
  -26.4450  -37.3970   23.6570 N   0  0  0  0  0  0  0  0  0  0  0  0
  -26.0360  -38.3140   23.8070 H   0  0  0  0  0  0  0  0  0  0  0  0
  2  1  1  0
  3  2  2  0
  4  3  1  0
  5  3  1  0
  5  7  1  0
  7  6  1  0
  8  7  1  0
  9 14  1  0
 10 11  1  0
 10  9  1  0
 12 11  1  0
 12 19  1  0
 12 13  1  0
 14  8  1  0
 14 13  1  0
 15  8  2  0
 16 17  2  0
 17 36  1  0
 18 17  1  0
 18 21  1  0
 19 20  1  0
 19 16  1  0
 20 18  2  0
 21 22  1  0
 22 23  2  0
 24 27  1  0
 24 23  1  0
 25 24  2  0
 26 25  1  0
 26 21  2  0
 27 28  1  0
 28 29  1  0
 29 30  2  0
 31 30  1  0
 31 35  1  0
 32 31  2  0
 33 28  2  0
 33 32  1  0
 34 33  1  0
 36 37  1  0
 37 40  1  0
 37 39  1  0
 38 36  2  0
 41 16  1  0
 41 42  1  0
 43 41  1  0
 44 45  1  0
 44  1  2  0
 46 57  2  0
 47 45  1  0
 47 52  1  0
 48 56  1  0
 48 58  1  0
 49 55  1  0
 49 51  1  0
 50 56  1  0
 51 52  2  0
 51 50  1  0
 53 47  2  0
 54 53  1  0
 54 49  2  0
 55 48  1  0
 56 46  1  0
 58 60  2  0
 59 58  1  0
 61 59  1  0
 62 71  2  0
 62 67  1  0
 63 59  1  0
 63 67  1  0
 64 63  1  0
 65 66  1  0
 65 64  1  0
 66 62  1  0
 67 68  2  0
 68 69  1  0
 70 69  2  0
 71 70  1  0
 72 46  1  0
 72 77  1  0
 72 73  1  0
 73 76  1  1
 73 74  1  0
 75 73  1  0
 77 80  1  0
 78 82  1  0
 78 77  1  0
 79 78  2  0
 82 81  1  0
 84 82  1  0
 84 85  1  0
 84 83  1  0
M  ISO  4   7 100   8 100  44 101  45 101
M  END
>  <TORSDO>  (32) 
F 20

>  <SCORE>  (32) 
-14.932

>  <name>  (32) 
31

>  <ligand_id>  (32) 
31

>  <original_smiles>  (32) 
[H]C(=C(C([H])([H])[H])C([H])([H])C([H])(C(=O)N1C([H])([H])C([H])([H])C([H])([H])C([H])(n2nc(-c3c([H])c([H])c(Oc4c([H])c([H])c(F)c([H])c4F)c([H])c3[H])c(C(=O)N([H])[H])c2N([H])[H])C1([H])[H])C([H])([H])[H])C([H])([H])C([H])([H])Oc1c([H])c([H])c2c(c1[H])C([H])([H])N(C(=O)C([H])(N([H])C(=O)C([H])(N([H])C([H])([H])[H])C([H])([H])[H])C(C([H])([H])[H])(C([H])([H])[H])C([H])([H])[H])C([H])(C(=O)N([H])C1([H])c3c([H])c([H])c([H])c([H])c3C([H])([H])C([H])([H])C1([H])[H])C2([H])[H]

>  <smiles>  (32) 
[H]C(=C(C([H])([H])[H])C([H])([H])C([H])(C(=O)N1C([H])([H])C([H])([H])C([H])([H])C([H])(n2nc(-c3c([H])c([H])c(Oc4c([H])c([H])c(F)c([H])c4F)c([H])c3[H])c(C(=O)N([H])[H])c2N([H])[H])C1([H])[H])C([H])([H])[H])C([H])([H])C([H])([H])Oc1c([H])c([H])c2c(c1[H])C([H])([H])N(C(=O)C([H])(N([H])C(=O)C([H])(N([H])C([H])([H])[H])C([H])([H])[H])C(C([H])([H])[H])(C([H])([H])[H])C([H])([H])[H])C([H])(C(=O)N([H])C1([H])c3c([H])c([H])c([H])c([H])c3C([H])([H])C([H])([H])C1([H])[H])C2([H])[H]

$$$$
32:0:0
     RDKit          3D

 88 95  0  0  1  0  0  0  0  0999 V2000
  -29.0960  -21.2660   20.6480 C   0  0  0  0  0  0  0  0  0  0  0  0
  -29.1720  -19.9080   20.0750 N   0  0  0  0  0  0  0  0  0  0  0  0
  -29.4280  -21.3460   21.8310 O   0  0  0  0  0  0  0  0  0  0  0  0
  -28.7890  -19.8920   19.1390 H   0  0  0  0  0  0  0  0  0  0  0  0
  -28.7180  -22.8100   19.9350 C   0  0  0  0  0  2  0  0  0  0  0  0
  -28.0850  -24.3500   20.5940 C   0  0  0  0  0  2  0  0  0  0  0  0
  -28.2550  -25.9480   20.2680 O   0  0  0  0  0  0  0  0  0  0  0  0
  -24.6370  -31.8750   23.2290 C   0  0  0  0  0  0  0  0  0  0  0  0
  -27.2110  -27.0020   20.2670 C   0  0  0  0  0  0  0  0  0  0  0  0
  -23.4470  -30.4620   21.6020 C   0  0  0  0  0  3  0  0  0  0  0  0
  -24.9000  -28.8480   20.2020 C   0  0  0  0  0  0  0  0  0  0  0  0
  -26.0110  -30.6890   21.4500 C   0  0  0  0  0  2  0  0  0  0  0  0
  -26.0870  -29.2740   20.8120 C   0  0  0  0  0  0  0  0  0  0  0  0
  -27.2410  -28.3740   20.8140 C   0  0  0  0  0  3  0  0  0  0  0  0
  -25.9930  -26.7140   19.6170 C   0  0  0  0  0  3  0  0  0  0  0  0
  -24.8750  -27.5870   19.5840 C   0  0  0  0  0  3  0  0  0  0  0  0
  -23.6780  -29.7630   20.2340 C   0  0  0  0  0  2  0  0  0  0  0  0
  -24.7200  -31.0350   22.1470 N   0  0  0  0  0  0  0  0  0  0  0  0
  -23.5480  -32.1650   23.7490 O   0  0  0  0  0  0  0  0  0  0  0  0
  -22.7560  -29.4720   22.5760 C   0  0  0  0  0  0  0  0  0  0  0  0
  -21.4250  -29.3080   22.4540 N   0  0  0  0  0  0  0  0  0  0  0  0
  -23.4240  -28.8530   23.4080 O   0  0  0  0  0  0  0  0  0  0  0  0
  -20.9420  -29.8570   21.7570 H   0  0  0  0  0  0  0  0  0  0  0  0
  -18.0440  -28.1020   22.9710 C   0  0  0  0  0  0  0  0  0  0  0  0
  -20.6030  -28.3760   23.2330 C   0  0  0  0  0  3  0  0  0  0  0  0
  -20.7080  -26.9390   22.6720 C   0  0  0  0  0  2  0  0  0  0  0  0
  -19.6060  -26.6050   21.6610 C   0  0  0  0  0  2  0  0  0  0  0  0
  -18.2240  -26.7500   22.3030 C   0  0  0  0  0  2  0  0  0  0  0  0
  -19.1600  -28.8730   23.3930 C   0  0  0  0  0  0  0  0  0  0  0  0
  -18.9340  -30.1360   23.9810 C   0  0  0  0  0  3  0  0  0  0  0  0
  -17.6270  -30.6310   24.1480 C   0  0  0  0  0  3  0  0  0  0  0  0
  -16.5250  -29.8580   23.7390 C   0  0  0  0  0  3  0  0  0  0  0  0
  -16.7350  -28.5950   23.1580 C   0  0  0  0  0  3  0  0  0  0  0  0
  -25.9070  -32.5250   23.8580 C   0  0  0  0  0  3  0  0  0  0  0  0
  -25.5860  -33.9250   24.1840 N   0  0  0  0  0  0  0  0  0  0  0  0
  -25.9140  -34.9840   23.4320 C   0  0  0  0  0  0  0  0  0  0  0  0
  -26.5850  -34.8840   22.4000 O   0  0  0  0  0  0  0  0  0  0  0  0
  -24.9870  -34.0760   24.9840 H   0  0  0  0  0  0  0  0  0  0  0  0
  -24.1820  -36.7780   23.0880 C   0  0  0  0  0  1  0  0  0  0  0  0
  -25.4270  -36.3720   23.8930 C   0  0  0  0  0  3  0  0  0  0  0  0
  -27.5650  -37.2630   24.7140 C   0  0  0  0  0  1  0  0  0  0  0  0
  -26.4580  -37.4280   23.7740 N   0  0  0  0  0  0  0  0  0  0  0  0
  -26.0510  -38.3480   23.9210 H   0  0  0  0  0  0  0  0  0  0  0  0
  -26.4130  -31.7690   25.1500 C   0  0  1  0  0  0  0  0  0  0  0  0
  -25.3130  -31.5450   26.2140 C   0  0  0  0  0  1  0  0  0  0  0  0
  -26.9990  -30.3850   24.7860 C   0  0  0  0  0  1  0  0  0  0  0  0
  -27.5610  -32.5700   25.8090 C   0  0  0  0  0  1  0  0  0  0  0  0
  -29.9880  -18.4900   20.4020 C   0  0  0  0  0  3  0  0  0  0  0  0
  -31.1080  -18.4320   18.0940 C   0  0  0  0  0  1  0  0  0  0  0  0
  -32.1390  -19.8600   19.9020 C   0  0  0  0  0  1  0  0  0  0  0  0
  -31.3220  -18.5870   19.6110 C   0  0  0  0  0  3  0  0  0  0  0  0
  -29.4940  -16.7690   20.3270 C   0  0  0  0  0  2  0  0  0  0  0  0
  -30.3620  -15.2470   20.2510 C   0  0  0  0  0  0  0  0  0  0  0  0
  -30.3540  -12.8060   19.3860 C   0  0  0  0  0  2  0  0  0  0  0  0
  -29.4320  -12.6510   18.1490 C   0  0  0  0  0  2  0  0  0  0  0  0
  -27.9750  -12.3930   18.5770 C   0  0  0  0  0  2  0  0  0  0  0  0
  -27.5320  -13.3410   19.7180 C   0  0  0  0  0  3  0  0  0  0  0  0
  -28.5780  -13.4490   20.8440 C   0  0  0  0  0  2  0  0  0  0  0  0
  -29.8290  -13.9300   20.2370 N   0  0  0  0  0  0  0  0  0  0  0  0
  -31.5810  -15.2510   20.0220 O   0  0  0  0  0  0  0  0  0  0  0  0
  -25.1580  -13.9010   20.4670 C   0  0  0  0  0  0  0  0  0  0  0  0
  -24.0960  -13.1240   20.8380 C   0  0  0  0  0  0  0  0  0  0  0  0
  -24.5640  -11.7740   20.8140 C   0  0  0  0  0  0  0  0  0  0  0  0
  -26.2020  -13.0260   20.2260 N   0  0  0  0  0  0  0  0  0  0  0  0
  -25.8570  -11.7410   20.5040 N   0  0  0  0  0  0  0  0  0  0  0  0
  -23.8390  -10.5120   21.0090 C   0  0  0  0  0  0  0  0  0  0  0  0
  -24.2680   -9.5490   21.9490 C   0  0  0  0  0  3  0  0  0  0  0  0
  -23.5410   -8.3540   22.1330 C   0  0  0  0  0  3  0  0  0  0  0  0
  -22.3690   -8.1110   21.3770 C   0  0  0  0  0  0  0  0  0  0  0  0
  -21.9590   -9.0620   20.4250 C   0  0  0  0  0  3  0  0  0  0  0  0
  -22.6880  -10.2490   20.2400 C   0  0  0  0  0  3  0  0  0  0  0  0
  -21.6150   -6.9660   21.4680 O   0  0  0  0  0  0  0  0  0  0  0  0
  -21.5610   -6.2290   22.6230 C   0  0  0  0  0  0  0  0  0  0  0  0
  -21.1320   -6.7910   23.8460 C   0  0  0  0  0  3  0  0  0  0  0  0
  -21.0250   -5.9810   24.9950 C   0  0  0  0  0  3  0  0  0  0  0  0
  -21.3370   -4.6090   24.9220 C   0  0  0  0  0  0  0  0  0  0  0  0
  -21.7590   -4.0470   23.7040 C   0  0  0  0  0  3  0  0  0  0  0  0
  -21.8670   -4.8540   22.5580 C   0  0  0  0  0  0  0  0  0  0  0  0
  -22.2540   -4.3030   21.3830 F   0  0  0  0  0  0  0  0  0  0  0  0
  -21.2280   -3.8300   26.0230 F   0  0  0  0  0  0  0  0  0  0  0  0
  -22.6970  -13.6000   21.1000 C   0  0  0  0  0  0  0  0  0  0  0  0
  -21.9660  -12.9080   21.9650 N   0  0  0  0  0  0  0  0  0  0  0  0
  -22.2600  -14.6210   20.5710 O   0  0  0  0  0  0  0  0  0  0  0  0
  -22.3330  -12.0830   22.4180 H   0  0  0  0  0  0  0  0  0  0  0  0
  -21.0250  -13.2070   22.1780 H   0  0  0  0  0  0  0  0  0  0  0  0
  -25.3210  -15.2710   20.2860 N   0  0  0  0  0  0  0  0  0  0  0  0
  -24.5570  -15.9290   20.4010 H   0  0  0  0  0  0  0  0  0  0  0  0
  -26.1740  -15.7120   19.9670 H   0  0  0  0  0  0  0  0  0  0  0  0
  1  3  2  0
  2 48  1  0
  2  1  1  0
  4  2  1  0
  5  6  1  0
  5  1  1  0
  7  6  1  0
  8 19  2  0
  9  7  1  0
  9 14  1  0
 10 18  1  0
 10 20  1  0
 11 17  1  0
 11 13  1  0
 12 18  1  0
 13 14  2  0
 13 12  1  0
 15  9  2  0
 16 15  1  0
 16 11  2  0
 17 10  1  0
 18  8  1  0
 20 22  2  0
 21 20  1  0
 23 21  1  0
 24 33  2  0
 24 29  1  0
 25 21  1  0
 25 29  1  0
 26 25  1  0
 27 28  1  0
 27 26  1  0
 28 24  1  0
 29 30  2  0
 30 31  1  0
 32 31  2  0
 33 32  1  0
 34  8  1  0
 34 35  1  0
 34 44  1  0
 35 38  1  0
 36 40  1  0
 36 35  1  0
 37 36  2  0
 40 39  1  0
 42 40  1  0
 42 43  1  0
 42 41  1  0
 44 47  1  1
 44 45  1  0
 46 44  1  0
 48 52  1  0
 49 51  1  0
 51 50  1  0
 51 48  1  0
 53 52  1  0
 54 59  1  0
 55 56  1  0
 55 54  1  0
 57 56  1  0
 57 64  1  0
 57 58  1  0
 59 53  1  0
 59 58  1  0
 60 53  2  0
 61 62  2  0
 62 81  1  0
 63 62  1  0
 63 66  1  0
 64 61  1  0
 64 65  1  0
 65 63  2  0
 66 67  1  0
 67 68  2  0
 69 72  1  0
 69 68  1  0
 70 69  2  0
 71 70  1  0
 71 66  2  0
 72 73  1  0
 73 74  1  0
 74 75  2  0
 76 75  1  0
 76 80  1  0
 77 76  2  0
 78 73  2  0
 78 77  1  0
 79 78  1  0
 81 82  1  0
 82 85  1  0
 82 84  1  0
 83 81  2  0
 86 87  1  0
 86 61  1  0
 88 86  1  0
M  ISO  4   6 101   7 101  52 100  53 100
M  END
>  <TORSDO>  (33) 
F 21

>  <SCORE>  (33) 
-15.185

>  <name>  (33) 
32

>  <ligand_id>  (33) 
32

>  <original_smiles>  (33) 
[H]c1c([H])c([H])c2c(c1[H])C([H])([H])C([H])([H])C([H])([H])C2([H])N([H])C(=O)C1([H])N(C(=O)C([H])(N([H])C(=O)C([H])(N([H])C([H])([H])[H])C([H])([H])[H])C(C([H])([H])[H])(C([H])([H])[H])C([H])([H])[H])C([H])([H])c2c([H])c(OC([H])([H])C([H])([H])C(=O)N([H])C([H])(C([H])([H])C(=O)N3C([H])([H])C([H])([H])C([H])([H])C([H])(n4nc(-c5c([H])c([H])c(Oc6c([H])c([H])c(F)c([H])c6F)c([H])c5[H])c(C(=O)N([H])[H])c4N([H])[H])C3([H])[H])C([H])(C([H])([H])[H])C([H])([H])[H])c([H])c([H])c2C1([H])[H]

>  <smiles>  (33) 
[H]c1c([H])c([H])c2c(c1[H])C([H])([H])C([H])([H])C([H])([H])C2([H])N([H])C(=O)C1([H])N(C(=O)C([H])(N([H])C(=O)C([H])(N([H])C([H])([H])[H])C([H])([H])[H])C(C([H])([H])[H])(C([H])([H])[H])C([H])([H])[H])C([H])([H])c2c([H])c(OC([H])([H])C([H])([H])C(=O)N([H])C([H])(C([H])([H])C(=O)N3C([H])([H])C([H])([H])C([H])([H])C([H])(n4nc(-c5c([H])c([H])c(Oc6c([H])c([H])c(F)c([H])c6F)c([H])c5[H])c(C(=O)N([H])[H])c4N([H])[H])C3([H])[H])C([H])(C([H])([H])[H])C([H])([H])[H])c([H])c([H])c2C1([H])[H]

$$$$
33:0:0
     RDKit          3D

 89 96  0  0  1  0  0  0  0  0999 V2000
  -29.6550  -20.5150   20.8280 C   0  0  0  0  0  3  0  0  0  0  0  0
  -29.4490  -19.0680   20.2360 N   0  0  0  0  0  4  0  0  0  0  0  0
  -28.4590  -18.8880   20.2910 H   0  0  0  0  0  0  0  0  0  0  0  0
  -29.6630  -19.1240   19.2540 H   0  0  0  0  0  0  0  0  0  0  0  0
  -30.1700  -17.7710   20.7630 C   0  0  0  0  0  2  0  0  0  0  0  0
  -29.6000  -16.2450   20.4280 C   0  0  0  0  0  2  0  0  0  0  0  0
  -30.4880  -14.8660   20.3400 C   0  0  0  0  0  0  0  0  0  0  0  0
  -30.3660  -12.5410   19.3700 C   0  0  0  0  0  2  0  0  0  0  0  0
  -29.4230  -12.5760   18.1410 C   0  0  0  0  0  2  0  0  0  0  0  0
  -27.9530  -12.3850   18.5680 C   0  0  0  0  0  2  0  0  0  0  0  0
  -27.5680  -13.2750   19.7770 C   0  0  0  0  0  3  0  0  0  0  0  0
  -28.6290  -13.2130   20.8960 C   0  0  0  0  0  2  0  0  0  0  0  0
  -29.9200  -13.6010   20.3130 N   0  0  0  0  0  0  0  0  0  0  0  0
  -31.6880  -14.9590   20.0600 O   0  0  0  0  0  0  0  0  0  0  0  0
  -25.1820  -13.8560   20.5110 C   0  0  0  0  0  0  0  0  0  0  0  0
  -24.1200  -13.0800   20.8820 C   0  0  0  0  0  0  0  0  0  0  0  0
  -24.5870  -11.7300   20.8560 C   0  0  0  0  0  0  0  0  0  0  0  0
  -26.2290  -12.9790   20.2730 N   0  0  0  0  0  0  0  0  0  0  0  0
  -25.8780  -11.6950   20.5470 N   0  0  0  0  0  0  0  0  0  0  0  0
  -23.8620  -10.4660   21.0490 C   0  0  0  0  0  0  0  0  0  0  0  0
  -24.3060   -9.4950   21.9740 C   0  0  0  0  0  3  0  0  0  0  0  0
  -23.5820   -8.2970   22.1570 C   0  0  0  0  0  3  0  0  0  0  0  0
  -22.4000   -8.0620   21.4150 C   0  0  0  0  0  0  0  0  0  0  0  0
  -21.9750   -9.0210   20.4800 C   0  0  0  0  0  3  0  0  0  0  0  0
  -22.7000  -10.2100   20.2950 C   0  0  0  0  0  3  0  0  0  0  0  0
  -21.6450   -6.9180   21.5080 O   0  0  0  0  0  0  0  0  0  0  0  0
  -21.6210   -6.1630   22.6530 C   0  0  0  0  0  0  0  0  0  0  0  0
  -21.2350   -6.7080   23.8960 C   0  0  0  0  0  3  0  0  0  0  0  0
  -21.1560   -5.8790   25.0340 C   0  0  0  0  0  3  0  0  0  0  0  0
  -21.4550   -4.5080   24.9290 C   0  0  0  0  0  0  0  0  0  0  0  0
  -21.8340   -3.9620   23.6910 C   0  0  0  0  0  3  0  0  0  0  0  0
  -21.9130   -4.7870   22.5550 C   0  0  0  0  0  0  0  0  0  0  0  0
  -22.2590   -4.2520   21.3600 F   0  0  0  0  0  0  0  0  0  0  0  0
  -21.3710   -3.7100   26.0190 F   0  0  0  0  0  0  0  0  0  0  0  0
  -22.7210  -13.5530   21.1520 C   0  0  0  0  0  0  0  0  0  0  0  0
  -21.9990  -12.8590   22.0230 N   0  0  0  0  0  0  0  0  0  0  0  0
  -22.2790  -14.5740   20.6260 O   0  0  0  0  0  0  0  0  0  0  0  0
  -22.3730  -12.0350   22.4720 H   0  0  0  0  0  0  0  0  0  0  0  0
  -21.0590  -13.1520   22.2470 H   0  0  0  0  0  0  0  0  0  0  0  0
  -25.3430  -15.2280   20.3290 N   0  0  0  0  0  0  0  0  0  0  0  0
  -24.5710  -15.8780   20.4370 H   0  0  0  0  0  0  0  0  0  0  0  0
  -26.1880  -15.6680   19.9920 H   0  0  0  0  0  0  0  0  0  0  0  0
  -31.3740  -21.8810   22.2070 C   0  0  0  0  0  1  0  0  0  0  0  0
  -32.0550  -20.9430   19.9510 C   0  0  0  0  0  1  0  0  0  0  0  0
  -31.1550  -20.7490   21.1850 C   0  0  0  0  0  3  0  0  0  0  0  0
  -29.0000  -21.8230   20.0210 C   0  0  0  0  0  2  0  0  0  0  0  0
  -28.9840  -23.4460   20.5020 C   0  0  0  0  0  2  0  0  0  0  0  0
  -27.9650  -24.7510   20.1740 C   0  0  0  0  0  2  0  0  0  0  0  0
  -28.2540  -26.2550   20.3120 O   0  0  0  0  0  0  0  0  0  0  0  0
  -24.6130  -31.8940   23.2470 C   0  0  0  0  0  0  0  0  0  0  0  0
  -27.1800  -27.2040   20.2340 C   0  0  0  0  0  0  0  0  0  0  0  0
  -23.4030  -30.4930   21.6170 C   0  0  0  0  0  3  0  0  0  0  0  0
  -24.8420  -28.9170   20.1980 C   0  0  0  0  0  0  0  0  0  0  0  0
  -25.9540  -30.7610   21.4460 C   0  0  0  0  0  2  0  0  0  0  0  0
  -26.0210  -29.3730   20.7980 C   0  0  0  0  0  0  0  0  0  0  0  0
  -27.1930  -28.5350   20.7980 C   0  0  0  0  0  3  0  0  0  0  0  0
  -25.9720  -26.8340   19.5970 C   0  0  0  0  0  3  0  0  0  0  0  0
  -24.8290  -27.6580   19.5790 C   0  0  0  0  0  3  0  0  0  0  0  0
  -23.6140  -29.8080   20.2430 C   0  0  0  0  0  2  0  0  0  0  0  0
  -24.6750  -31.0720   22.1560 N   0  0  0  0  0  0  0  0  0  0  0  0
  -23.5300  -32.1850   23.7790 O   0  0  0  0  0  0  0  0  0  0  0  0
  -22.7270  -29.4920   22.5860 C   0  0  0  0  0  0  0  0  0  0  0  0
  -21.3990  -29.3230   22.4610 N   0  0  0  0  0  0  0  0  0  0  0  0
  -23.3980  -28.8670   23.4100 O   0  0  0  0  0  0  0  0  0  0  0  0
  -20.9160  -29.8750   21.7650 H   0  0  0  0  0  0  0  0  0  0  0  0
  -18.0150  -28.1360   22.9700 C   0  0  0  0  0  0  0  0  0  0  0  0
  -20.5740  -28.3950   23.2380 C   0  0  0  0  0  3  0  0  0  0  0  0
  -20.6750  -26.9560   22.6790 C   0  0  0  0  0  2  0  0  0  0  0  0
  -19.5740  -26.6260   21.6660 C   0  0  0  0  0  2  0  0  0  0  0  0
  -18.1910  -26.7790   22.3040 C   0  0  0  0  0  2  0  0  0  0  0  0
  -19.1350  -28.9000   23.3930 C   0  0  0  0  0  0  0  0  0  0  0  0
  -18.9190  -30.1670   23.9750 C   0  0  0  0  0  3  0  0  0  0  0  0
  -17.6150  -30.6730   24.1360 C   0  0  0  0  0  3  0  0  0  0  0  0
  -16.5090  -29.9060   23.7310 C   0  0  0  0  0  3  0  0  0  0  0  0
  -16.7100  -28.6390   23.1540 C   0  0  0  0  0  3  0  0  0  0  0  0
  -25.8960  -32.5260   23.8660 C   0  0  0  0  0  3  0  0  0  0  0  0
  -25.5910  -33.9270   24.1970 N   0  0  0  0  0  0  0  0  0  0  0  0
  -25.9180  -34.9810   23.4380 C   0  0  0  0  0  0  0  0  0  0  0  0
  -26.5760  -34.8770   22.3990 O   0  0  0  0  0  0  0  0  0  0  0  0
  -25.0070  -34.0830   25.0050 H   0  0  0  0  0  0  0  0  0  0  0  0
  -24.1820  -36.7740   23.1100 C   0  0  0  0  0  1  0  0  0  0  0  0
  -25.4370  -36.3710   23.9010 C   0  0  0  0  0  3  0  0  0  0  0  0
  -27.5860  -37.2530   24.6950 C   0  0  0  0  0  1  0  0  0  0  0  0
  -26.4670  -37.4240   23.7700 N   0  0  0  0  0  0  0  0  0  0  0  0
  -26.0670  -38.3440   23.9270 H   0  0  0  0  0  0  0  0  0  0  0  0
  -26.4120  -31.7600   25.1460 C   0  0  1  0  0  0  0  0  0  0  0  0
  -25.3200  -31.5330   26.2170 C   0  0  0  0  0  1  0  0  0  0  0  0
  -26.9900  -30.3770   24.7650 C   0  0  0  0  0  1  0  0  0  0  0  0
  -27.5670  -32.5540   25.7990 C   0  0  0  0  0  1  0  0  0  0  0  0
  1 46  1  0
  1 45  1  0
  2  3  1  0
  2  5  1  0
  2  1  1  0
  4  2  1  0
  6  5  1  0
  7  6  1  0
  8 13  1  0
  9 10  1  0
  9  8  1  0
 11 10  1  0
 11 18  1  0
 11 12  1  0
 13  7  1  0
 13 12  1  0
 14  7  2  0
 15 16  2  0
 16 35  1  0
 17 16  1  0
 17 20  1  0
 18 15  1  0
 18 19  1  0
 19 17  2  0
 20 21  1  0
 21 22  2  0
 23 26  1  0
 23 22  1  0
 24 23  2  0
 25 24  1  0
 25 20  2  0
 26 27  1  0
 27 28  1  0
 28 29  2  0
 30 29  1  0
 30 34  1  0
 31 30  2  0
 32 27  2  0
 32 31  1  0
 33 32  1  0
 35 36  1  0
 36 39  1  0
 36 38  1  0
 37 35  2  0
 40 41  1  0
 40 15  1  0
 42 40  1  0
 44 45  1  0
 45 43  1  0
 46 47  1  0
 48 49  1  0
 48 47  1  0
 50 61  2  0
 51 49  1  0
 51 56  1  0
 52 60  1  0
 52 62  1  0
 53 59  1  0
 53 55  1  0
 54 60  1  0
 55 56  2  0
 55 54  1  0
 57 51  2  0
 58 57  1  0
 58 53  2  0
 59 52  1  0
 60 50  1  0
 62 64  2  0
 63 62  1  0
 65 63  1  0
 66 75  2  0
 66 71  1  0
 67 63  1  0
 67 71  1  0
 68 67  1  0
 69 70  1  0
 69 68  1  0
 70 66  1  0
 71 72  2  0
 72 73  1  0
 74 73  2  0
 75 74  1  0
 76 50  1  0
 76 77  1  0
 76 86  1  0
 77 80  1  0
 78 82  1  0
 78 77  1  0
 79 78  2  0
 82 81  1  0
 84 82  1  0
 84 85  1  0
 84 83  1  0
 86 89  1  1
 86 87  1  0
 88 86  1  0
M  ISO  4   6 100   7 100  48 101  49 101
M  END
>  <TORSDO>  (34) 
F 23

>  <SCORE>  (34) 
-12.666

>  <name>  (34) 
33

>  <ligand_id>  (34) 
33

>  <original_smiles>  (34) 
[H]c1c([H])c([H])c2c(c1[H])C([H])([H])C([H])([H])C([H])([H])C2([H])N([H])C(=O)C1([H])N(C(=O)C([H])(N([H])C(=O)C([H])(N([H])C([H])([H])[H])C([H])([H])[H])C(C([H])([H])[H])(C([H])([H])[H])C([H])([H])[H])C([H])([H])c2c([H])c(OC([H])([H])C([H])([H])C([H])([H])C([H])(C([H])(C([H])([H])[H])C([H])([H])[H])[N+]([H])([H])C([H])([H])C([H])([H])C(=O)N3C([H])([H])C([H])([H])C([H])([H])C([H])(n4nc(-c5c([H])c([H])c(Oc6c([H])c([H])c(F)c([H])c6F)c([H])c5[H])c(C(=O)N([H])[H])c4N([H])[H])C3([H])[H])c([H])c([H])c2C1([H])[H]

>  <smiles>  (34) 
[H]c1c([H])c([H])c2c(c1[H])C([H])([H])C([H])([H])C([H])([H])C2([H])N([H])C(=O)C1([H])N(C(=O)C([H])(N([H])C(=O)C([H])(N([H])C([H])([H])[H])C([H])([H])[H])C(C([H])([H])[H])(C([H])([H])[H])C([H])([H])[H])C([H])([H])c2c([H])c(OC([H])([H])C([H])([H])C([H])([H])C([H])(C([H])(C([H])([H])[H])C([H])([H])[H])[N+]([H])([H])C([H])([H])C([H])([H])C(=O)N3C([H])([H])C([H])([H])C([H])([H])C([H])(n4nc(-c5c([H])c([H])c(Oc6c([H])c([H])c(F)c([H])c6F)c([H])c5[H])c(C(=O)N([H])[H])c4N([H])[H])C3([H])[H])c([H])c([H])c2C1([H])[H]

$$$$
34:0:0
     RDKit          3D

 91 98  0  0  1  0  0  0  0  0999 V2000
  -28.6560  -20.5700   20.3420 C   0  0  0  0  0  3  0  0  0  0  0  0
  -27.5100  -20.3200   19.4490 N   0  0  0  0  0  4  0  0  0  0  0  0
  -27.7680  -20.4060   18.4830 H   0  0  0  0  0  0  0  0  0  0  0  0
  -26.7720  -20.9740   19.6360 H   0  0  0  0  0  0  0  0  0  0  0  0
  -27.1390  -19.3990   19.6020 H   0  0  0  0  0  0  0  0  0  0  0  0
  -28.9360  -22.4400   20.2820 C   0  0  0  0  0  3  0  0  0  0  0  0
  -27.9250  -24.0350   20.2730 C   0  0  0  0  0  3  0  0  0  0  0  0
  -28.1410  -25.7360   20.3050 O   0  0  0  0  0  0  0  0  0  0  0  0
  -24.6210  -31.8940   23.2450 C   0  0  0  0  0  0  0  0  0  0  0  0
  -27.1430  -26.8920   20.2570 C   0  0  0  0  0  0  0  0  0  0  0  0
  -23.4210  -30.4930   21.6180 C   0  0  0  0  0  3  0  0  0  0  0  0
  -24.8610  -28.8550   20.2020 C   0  0  0  0  0  0  0  0  0  0  0  0
  -25.9940  -30.6630   21.4710 C   0  0  0  0  0  2  0  0  0  0  0  0
  -26.0570  -29.2380   20.8210 C   0  0  0  0  0  0  0  0  0  0  0  0
  -27.1880  -28.2830   20.8160 C   0  0  0  0  0  3  0  0  0  0  0  0
  -25.9120  -26.6900   19.5890 C   0  0  0  0  0  3  0  0  0  0  0  0
  -24.8210  -27.6060   19.5610 C   0  0  0  0  0  3  0  0  0  0  0  0
  -23.6490  -29.7950   20.2470 C   0  0  0  0  0  2  0  0  0  0  0  0
  -24.7030  -31.0470   22.1640 N   0  0  0  0  0  0  0  0  0  0  0  0
  -23.5330  -32.1940   23.7630 O   0  0  0  0  0  0  0  0  0  0  0  0
  -22.7170  -29.5130   22.5940 C   0  0  0  0  0  0  0  0  0  0  0  0
  -21.3870  -29.3460   22.4650 N   0  0  0  0  0  0  0  0  0  0  0  0
  -23.3770  -28.9010   23.4360 O   0  0  0  0  0  0  0  0  0  0  0  0
  -20.9050  -29.8910   21.7630 H   0  0  0  0  0  0  0  0  0  0  0  0
  -18.0060  -28.1200   22.9720 C   0  0  0  0  0  0  0  0  0  0  0  0
  -20.5630  -28.4130   23.2430 C   0  0  0  0  0  3  0  0  0  0  0  0
  -20.6790  -26.9750   22.6870 C   0  0  0  0  0  2  0  0  0  0  0  0
  -19.5860  -26.6310   21.6700 C   0  0  0  0  0  2  0  0  0  0  0  0
  -18.1990  -26.7680   22.3060 C   0  0  0  0  0  2  0  0  0  0  0  0
  -19.1160  -28.8990   23.3970 C   0  0  0  0  0  0  0  0  0  0  0  0
  -18.8800  -30.1610   23.9820 C   0  0  0  0  0  3  0  0  0  0  0  0
  -17.5670  -30.6460   24.1460 C   0  0  0  0  0  3  0  0  0  0  0  0
  -16.4730  -29.8650   23.7330 C   0  0  0  0  0  3  0  0  0  0  0  0
  -16.6940  -28.6040   23.1530 C   0  0  0  0  0  3  0  0  0  0  0  0
  -25.8920  -32.5400   23.8750 C   0  0  0  0  0  3  0  0  0  0  0  0
  -26.3900  -31.7890   25.1720 C   0  0  1  0  0  0  0  0  0  0  0  0
  -25.2840  -31.5790   26.2340 C   0  0  0  0  0  1  0  0  0  0  0  0
  -26.9680  -30.3990   24.8200 C   0  0  0  0  0  1  0  0  0  0  0  0
  -27.5360  -32.5880   25.8330 C   0  0  0  0  0  1  0  0  0  0  0  0
  -25.5800  -33.9450   24.1970 N   0  0  0  0  0  0  0  0  0  0  0  0
  -25.9080  -35.0010   23.4400 C   0  0  0  0  0  0  0  0  0  0  0  0
  -26.5640  -34.8950   22.4020 O   0  0  0  0  0  0  0  0  0  0  0  0
  -24.9940  -34.1010   25.0050 H   0  0  0  0  0  0  0  0  0  0  0  0
  -24.1810  -36.8090   23.1180 C   0  0  0  0  0  1  0  0  0  0  0  0
  -25.4340  -36.3940   23.9060 C   0  0  0  0  0  3  0  0  0  0  0  0
  -27.5810  -37.2830   24.7030 C   0  0  0  0  0  1  0  0  0  0  0  0
  -26.4690  -37.4440   23.7720 N   0  0  0  0  0  0  0  0  0  0  0  0
  -26.0660  -38.3670   23.9170 H   0  0  0  0  0  0  0  0  0  0  0  0
  -29.7030  -18.9920   20.2750 C   0  0  0  0  0  3  0  0  0  0  0  0
  -29.3850  -17.1400   20.4110 C   0  0  0  0  0  2  0  0  0  0  0  0
  -30.2580  -15.5580   20.1700 C   0  0  0  0  0  0  0  0  0  0  0  0
  -30.3310  -13.0720   19.2720 C   0  0  0  0  0  2  0  0  0  0  0  0
  -29.3820  -12.8140   18.0680 C   0  0  0  0  0  2  0  0  0  0  0  0
  -27.9570  -12.4770   18.5440 C   0  0  0  0  0  2  0  0  0  0  0  0
  -27.5100  -13.4190   19.6880 C   0  0  0  0  0  3  0  0  0  0  0  0
  -28.5840  -13.6070   20.7800 C   0  0  0  0  0  2  0  0  0  0  0  0
  -29.7770  -14.1940   20.1360 N   0  0  0  0  0  0  0  0  0  0  0  0
  -31.4630  -15.5830   19.8630 O   0  0  0  0  0  0  0  0  0  0  0  0
  -25.1680  -13.9270   20.5440 C   0  0  0  0  0  0  0  0  0  0  0  0
  -24.1270  -13.1310   20.9290 C   0  0  0  0  0  0  0  0  0  0  0  0
  -24.6030  -11.7870   20.8500 C   0  0  0  0  0  0  0  0  0  0  0  0
  -26.2080  -13.0680   20.2360 N   0  0  0  0  0  0  0  0  0  0  0  0
  -25.8840  -11.7720   20.4900 N   0  0  0  0  0  0  0  0  0  0  0  0
  -23.8910  -10.5150   21.0360 C   0  0  0  0  0  0  0  0  0  0  0  0
  -24.3420   -9.5400   21.9530 C   0  0  0  0  0  3  0  0  0  0  0  0
  -23.6260   -8.3360   22.1280 C   0  0  0  0  0  3  0  0  0  0  0  0
  -22.4450   -8.0970   21.3870 C   0  0  0  0  0  0  0  0  0  0  0  0
  -22.0130   -9.0600   20.4580 C   0  0  0  0  0  3  0  0  0  0  0  0
  -22.7280  -10.2560   20.2800 C   0  0  0  0  0  3  0  0  0  0  0  0
  -21.7000   -6.9460   21.4740 O   0  0  0  0  0  0  0  0  0  0  0  0
  -21.6450   -6.2070   22.6280 C   0  0  0  0  0  0  0  0  0  0  0  0
  -21.1680   -6.7540   23.8400 C   0  0  0  0  0  3  0  0  0  0  0  0
  -21.0640   -5.9400   24.9850 C   0  0  0  0  0  3  0  0  0  0  0  0
  -21.4260   -4.5820   24.9220 C   0  0  0  0  0  0  0  0  0  0  0  0
  -21.8960   -4.0350   23.7140 C   0  0  0  0  0  3  0  0  0  0  0  0
  -22.0030   -4.8450   22.5700 C   0  0  0  0  0  0  0  0  0  0  0  0
  -22.4360   -4.3070   21.4060 F   0  0  0  0  0  0  0  0  0  0  0  0
  -21.3180   -3.7980   26.0200 F   0  0  0  0  0  0  0  0  0  0  0  0
  -22.7360  -13.5910   21.2550 C   0  0  0  0  0  0  0  0  0  0  0  0
  -22.0430  -12.8730   22.1310 N   0  0  0  0  0  0  0  0  0  0  0  0
  -22.2770  -14.6240   20.7690 O   0  0  0  0  0  0  0  0  0  0  0  0
  -22.4310  -12.0390   22.5470 H   0  0  0  0  0  0  0  0  0  0  0  0
  -21.1110  -13.1620   22.3900 H   0  0  0  0  0  0  0  0  0  0  0  0
  -25.3170  -15.3030   20.3950 N   0  0  0  0  0  0  0  0  0  0  0  0
  -24.5520  -15.9480   20.5570 H   0  0  0  0  0  0  0  0  0  0  0  0
  -26.1530  -15.7540   20.0500 H   0  0  0  0  0  0  0  0  0  0  0  0
  -30.6570  -19.1460   19.0680 C   0  0  0  0  0  2  0  0  0  0  0  0
  -31.9580  -18.4760   19.2660 N   0  0  0  0  0  4  0  0  0  0  0  0
  -32.4960  -18.9450   19.9710 H   0  0  0  0  0  0  0  0  0  0  0  0
  -32.4860  -18.5040   18.4100 H   0  0  0  0  0  0  0  0  0  0  0  0
  -31.8550  -17.5050   19.5310 H   0  0  0  0  0  0  0  0  0  0  0  0
  1  6  1  0
  2  5  1  0
  2  4  1  0
  2  1  1  0
  3  2  1  0
  7  6  2  0
  7  8  1  0
  9 20  2  0
 10  8  1  0
 10 15  1  0
 11 19  1  0
 11 21  1  0
 12 18  1  0
 12 14  1  0
 13 19  1  0
 14 13  1  0
 15 14  2  0
 16 10  2  0
 17 16  1  0
 17 12  2  0
 18 11  1  0
 19  9  1  0
 21 23  2  0
 22 21  1  0
 24 22  1  0
 25 34  2  0
 25 30  1  0
 26 22  1  0
 26 30  1  0
 27 26  1  0
 28 29  1  0
 28 27  1  0
 29 25  1  0
 30 31  2  0
 31 32  1  0
 33 32  2  0
 34 33  1  0
 35  9  1  0
 35 40  1  0
 35 36  1  0
 36 39  1  1
 36 37  1  0
 38 36  1  0
 40 43  1  0
 41 45  1  0
 41 40  1  0
 42 41  2  0
 45 44  1  0
 47 45  1  0
 47 48  1  0
 47 46  1  0
 49 87  1  0
 49  1  1  0
 49 50  1  0
 51 50  1  0
 52 57  1  0
 53 54  1  0
 53 52  1  0
 55 54  1  0
 55 62  1  0
 55 56  1  0
 57 51  1  0
 57 56  1  0
 58 51  2  0
 59 60  2  0
 60 79  1  0
 61 60  1  0
 61 64  1  0
 62 63  1  0
 62 59  1  0
 63 61  2  0
 64 65  1  0
 65 66  2  0
 67 70  1  0
 67 66  1  0
 68 67  2  0
 69 68  1  0
 69 64  2  0
 70 71  1  0
 71 72  1  0
 72 73  2  0
 74 73  1  0
 74 78  1  0
 75 74  2  0
 76 71  2  0
 76 75  1  0
 77 76  1  0
 79 80  1  0
 80 83  1  0
 80 82  1  0
 81 79  2  0
 84 59  1  0
 84 85  1  0
 86 84  1  0
 87 88  1  0
 88 91  1  0
 88 89  1  0
 90 88  1  0
M  ISO  4   7 101   8 101  50 100  51 100
M  END
>  <TORSDO>  (35) 
F 23

>  <SCORE>  (35) 
-16.143

>  <name>  (35) 
34

>  <ligand_id>  (35) 
34

>  <original_smiles>  (35) 
[H]c1c([H])c([H])c2c(c1[H])C([H])([H])C([H])([H])C([H])([H])C2([H])N([H])C(=O)C1([H])N(C(=O)C([H])(N([H])C(=O)C([H])(N([H])C([H])([H])[H])C([H])([H])[H])C(C([H])([H])[H])(C([H])([H])[H])C([H])([H])[H])C([H])([H])c2c([H])c(OC([H])([H])C([H])([H])C([H])(C([H])(C([H])([H])C(=O)N3C([H])([H])C([H])([H])C([H])([H])C([H])(n4nc(-c5c([H])c([H])c(Oc6c([H])c([H])c(F)c([H])c6F)c([H])c5[H])c(C(=O)N([H])[H])c4N([H])[H])C3([H])[H])C([H])([H])[N+]([H])([H])[H])[N+]([H])([H])[H])c([H])c([H])c2C1([H])[H]

>  <smiles>  (35) 
[H]c1c([H])c([H])c2c(c1[H])C([H])([H])C([H])([H])C([H])([H])C2([H])N([H])C(=O)C1([H])N(C(=O)C([H])(N([H])C(=O)C([H])(N([H])C([H])([H])[H])C([H])([H])[H])C(C([H])([H])[H])(C([H])([H])[H])C([H])([H])[H])C([H])([H])c2c([H])c(OC([H])([H])C([H])([H])C([H])(C([H])(C([H])([H])C(=O)N3C([H])([H])C([H])([H])C([H])([H])C([H])(n4nc(-c5c([H])c([H])c(Oc6c([H])c([H])c(F)c([H])c6F)c([H])c5[H])c(C(=O)N([H])[H])c4N([H])[H])C3([H])[H])C([H])([H])[N+]([H])([H])[H])[N+]([H])([H])[H])c([H])c([H])c2C1([H])[H]

$$$$
35:0:0
     RDKit          3D

 89 97  0  0  1  0  0  0  0  0999 V2000
  -28.8980  -22.2170   20.0970 N   0  0  0  0  0  4  0  0  0  0  0  0
  -27.9720  -22.0380   19.7380 H   0  0  0  0  0  0  0  0  0  0  0  0
  -29.5180  -22.1870   19.3030 H   0  0  0  0  0  0  0  0  0  0  0  0
  -29.2500  -21.0290   21.0180 C   0  0  0  0  0  2  0  0  0  0  0  0
  -30.9540  -17.2590   21.2780 C   0  0  0  0  0  2  0  0  0  0  0  0
  -29.2550  -17.0560   19.5440 C   0  0  0  0  0  2  0  0  0  0  0  0
  -30.4060  -18.7030   21.6330 C   0  0  0  0  0  2  0  0  0  0  0  0
  -28.6970  -18.5130   19.9120 C   0  0  0  0  0  2  0  0  0  0  0  0
  -29.9320  -16.2150   20.6970 C   0  0  0  0  0  3  0  0  0  0  0  0
  -29.7360  -19.5470   20.4860 C   0  0  0  0  0  3  0  0  0  0  0  0
  -30.6130  -14.7970   20.2720 C   0  0  0  0  0  0  0  0  0  0  0  0
  -30.3800  -12.5160   19.2620 C   0  0  0  0  0  2  0  0  0  0  0  0
  -29.4360  -12.6080   18.0420 C   0  0  0  0  0  2  0  0  0  0  0  0
  -27.9690  -12.4370   18.4800 C   0  0  0  0  0  2  0  0  0  0  0  0
  -27.6110  -13.3150   19.7080 C   0  0  0  0  0  3  0  0  0  0  0  0
  -28.6780  -13.2240   20.8200 C   0  0  0  0  0  2  0  0  0  0  0  0
  -29.9750  -13.5710   20.2270 N   0  0  0  0  0  0  0  0  0  0  0  0
  -31.7790  -14.8490   19.8690 O   0  0  0  0  0  0  0  0  0  0  0  0
  -25.2290  -13.9030   20.4510 C   0  0  0  0  0  0  0  0  0  0  0  0
  -24.1670  -13.1310   20.8320 C   0  0  0  0  0  0  0  0  0  0  0  0
  -24.6310  -11.7800   20.8060 C   0  0  0  0  0  0  0  0  0  0  0  0
  -26.2720  -13.0240   20.2110 N   0  0  0  0  0  0  0  0  0  0  0  0
  -25.9200  -11.7410   20.4890 N   0  0  0  0  0  0  0  0  0  0  0  0
  -23.9070  -10.5180   21.0090 C   0  0  0  0  0  0  0  0  0  0  0  0
  -24.3490   -9.5520   21.9410 C   0  0  0  0  0  3  0  0  0  0  0  0
  -23.6230   -8.3570   22.1310 C   0  0  0  0  0  3  0  0  0  0  0  0
  -22.4410   -8.1180   21.3900 C   0  0  0  0  0  0  0  0  0  0  0  0
  -22.0180   -9.0710   20.4480 C   0  0  0  0  0  3  0  0  0  0  0  0
  -22.7440  -10.2580   20.2550 C   0  0  0  0  0  3  0  0  0  0  0  0
  -21.6860   -6.9730   21.4910 O   0  0  0  0  0  0  0  0  0  0  0  0
  -21.6550   -6.2300   22.6440 C   0  0  0  0  0  0  0  0  0  0  0  0
  -21.2480   -6.7850   23.8770 C   0  0  0  0  0  3  0  0  0  0  0  0
  -21.1630   -5.9680   25.0220 C   0  0  0  0  0  3  0  0  0  0  0  0
  -21.4750   -4.5990   24.9350 C   0  0  0  0  0  0  0  0  0  0  0  0
  -21.8770   -4.0440   23.7070 C   0  0  0  0  0  3  0  0  0  0  0  0
  -21.9620   -4.8570   22.5640 C   0  0  0  0  0  0  0  0  0  0  0  0
  -22.3290   -4.3130   21.3790 F   0  0  0  0  0  0  0  0  0  0  0  0
  -21.3880   -3.8120   26.0340 F   0  0  0  0  0  0  0  0  0  0  0  0
  -22.7710  -13.6080   21.1090 C   0  0  0  0  0  0  0  0  0  0  0  0
  -22.0500  -12.9180   21.9860 N   0  0  0  0  0  0  0  0  0  0  0  0
  -22.3290  -14.6290   20.5850 O   0  0  0  0  0  0  0  0  0  0  0  0
  -22.4210  -12.0920   22.4320 H   0  0  0  0  0  0  0  0  0  0  0  0
  -21.1140  -13.2210   22.2160 H   0  0  0  0  0  0  0  0  0  0  0  0
  -25.3920  -15.2740   20.2670 N   0  0  0  0  0  0  0  0  0  0  0  0
  -24.6290  -15.9300   20.3870 H   0  0  0  0  0  0  0  0  0  0  0  0
  -26.2480  -15.7140   19.9550 H   0  0  0  0  0  0  0  0  0  0  0  0
  -28.9380  -23.6670   20.6650 C   0  0  0  0  0  3  0  0  0  0  0  0
  -28.0950  -24.8650   19.9450 C   0  0  0  0  0  3  0  0  0  0  0  0
  -28.2630  -26.3390   20.2830 O   0  0  0  0  0  0  0  0  0  0  0  0
  -24.5940  -31.8850   23.2360 C   0  0  0  0  0  0  0  0  0  0  0  0
  -27.1750  -27.2510   20.1910 C   0  0  0  0  0  0  0  0  0  0  0  0
  -23.3860  -30.4850   21.6030 C   0  0  0  0  0  3  0  0  0  0  0  0
  -24.8290  -28.9260   20.1720 C   0  0  0  0  0  0  0  0  0  0  0  0
  -25.9310  -30.7780   21.4210 C   0  0  0  0  0  2  0  0  0  0  0  0
  -26.0040  -29.3930   20.7750 C   0  0  0  0  0  0  0  0  0  0  0  0
  -27.1770  -28.5670   20.7770 C   0  0  0  0  0  3  0  0  0  0  0  0
  -25.9820  -26.8720   19.5330 C   0  0  0  0  0  3  0  0  0  0  0  0
  -24.8260  -27.6760   19.5390 C   0  0  0  0  0  3  0  0  0  0  0  0
  -23.5970  -29.8100   20.2240 C   0  0  0  0  0  2  0  0  0  0  0  0
  -24.6560  -31.0690   22.1420 N   0  0  0  0  0  0  0  0  0  0  0  0
  -23.5120  -32.1680   23.7700 O   0  0  0  0  0  0  0  0  0  0  0  0
  -22.7210  -29.4740   22.5680 C   0  0  0  0  0  0  0  0  0  0  0  0
  -21.3940  -29.2950   22.4410 N   0  0  0  0  0  0  0  0  0  0  0  0
  -23.3980  -28.8530   23.3910 O   0  0  0  0  0  0  0  0  0  0  0  0
  -20.9060  -29.8470   21.7500 H   0  0  0  0  0  0  0  0  0  0  0  0
  -18.0190  -28.0840   22.9390 C   0  0  0  0  0  0  0  0  0  0  0  0
  -20.5760  -28.3590   23.2160 C   0  0  0  0  0  3  0  0  0  0  0  0
  -20.6870  -26.9240   22.6550 C   0  0  0  0  0  2  0  0  0  0  0  0
  -19.5900  -26.5860   21.6380 C   0  0  0  0  0  2  0  0  0  0  0  0
  -18.2060  -26.7300   22.2750 C   0  0  0  0  0  2  0  0  0  0  0  0
  -19.1330  -28.8560   23.3670 C   0  0  0  0  0  0  0  0  0  0  0  0
  -18.9040  -30.1220   23.9490 C   0  0  0  0  0  3  0  0  0  0  0  0
  -17.5960  -30.6170   24.1060 C   0  0  0  0  0  3  0  0  0  0  0  0
  -16.4980  -29.8420   23.6940 C   0  0  0  0  0  3  0  0  0  0  0  0
  -16.7100  -28.5780   23.1160 C   0  0  0  0  0  3  0  0  0  0  0  0
  -25.8780  -32.5200   23.8520 C   0  0  0  0  0  3  0  0  0  0  0  0
  -26.3890  -31.7600   25.1390 C   0  0  1  0  0  0  0  0  0  0  0  0
  -25.2930  -31.5400   26.2080 C   0  0  0  0  0  1  0  0  0  0  0  0
  -26.9660  -30.3750   24.7650 C   0  0  0  0  0  1  0  0  0  0  0  0
  -27.5430  -32.5550   25.7930 C   0  0  0  0  0  1  0  0  0  0  0  0
  -25.5730  -33.9230   24.1710 N   0  0  0  0  0  0  0  0  0  0  0  0
  -25.9060  -34.9690   23.4040 C   0  0  0  0  0  0  0  0  0  0  0  0
  -26.5720  -34.8550   22.3720 O   0  0  0  0  0  0  0  0  0  0  0  0
  -24.9800  -34.0850   24.9720 H   0  0  0  0  0  0  0  0  0  0  0  0
  -24.1810  -36.7660   23.0460 C   0  0  0  0  0  1  0  0  0  0  0  0
  -25.4260  -36.3630   23.8530 C   0  0  0  0  0  3  0  0  0  0  0  0
  -27.5680  -37.2490   24.6650 C   0  0  0  0  0  1  0  0  0  0  0  0
  -26.4610  -37.4120   23.7260 N   0  0  0  0  0  0  0  0  0  0  0  0
  -26.0580  -38.3340   23.8680 H   0  0  0  0  0  0  0  0  0  0  0  0
  1 47  1  0
  1  4  1  0
  2  1  1  0
  3  1  1  0
  5  7  1  0
  6  8  1  0
  6  9  1  0
  8 10  1  0
  9 11  1  0
  9  5  1  0
 10  4  1  0
 10  7  1  0
 12 17  1  0
 13 14  1  0
 13 12  1  0
 15 14  1  0
 15 22  1  0
 15 16  1  0
 17 11  1  0
 17 16  1  0
 18 11  2  0
 19 20  2  0
 20 39  1  0
 21 20  1  0
 21 24  1  0
 22 19  1  0
 22 23  1  0
 23 21  2  0
 24 25  1  0
 25 26  2  0
 27 30  1  0
 27 26  1  0
 28 27  2  0
 29 28  1  0
 29 24  2  0
 30 31  1  0
 31 32  1  0
 32 33  2  0
 34 33  1  0
 34 38  1  0
 35 34  2  0
 36 31  2  0
 36 35  1  0
 37 36  1  0
 39 40  1  0
 40 43  1  0
 40 42  1  0
 41 39  2  0
 44 45  1  0
 44 19  1  0
 46 44  1  0
 48 49  1  0
 48 47  2  0
 50 61  2  0
 51 49  1  0
 51 56  1  0
 52 60  1  0
 52 62  1  0
 53 59  1  0
 53 55  1  0
 54 60  1  0
 55 56  2  0
 55 54  1  0
 57 58  1  0
 57 51  2  0
 58 53  2  0
 59 52  1  0
 60 50  1  0
 62 64  2  0
 63 62  1  0
 65 63  1  0
 66 75  2  0
 66 71  1  0
 67 63  1  0
 67 71  1  0
 68 67  1  0
 69 70  1  0
 69 68  1  0
 70 66  1  0
 71 72  2  0
 72 73  1  0
 74 73  2  0
 75 74  1  0
 76 50  1  0
 76 81  1  0
 76 77  1  0
 77 80  1  1
 77 78  1  0
 79 77  1  0
 81 84  1  0
 82 86  1  0
 82 81  1  0
 83 82  2  0
 86 85  1  0
 88 86  1  0
 88 89  1  0
 88 87  1  0
M  ISO  4   9 100  11 100  48 101  49 101
M  END
>  <TORSDO>  (36) 
F 20

>  <SCORE>  (36) 
-13.810

>  <name>  (36) 
35

>  <ligand_id>  (36) 
35

>  <original_smiles>  (36) 
[H]c1c([H])c([H])c2c(c1[H])C([H])([H])C([H])([H])C([H])([H])C2([H])N([H])C(=O)C1([H])N(C(=O)C([H])(N([H])C(=O)C([H])(N([H])C([H])([H])[H])C([H])([H])[H])C(C([H])([H])[H])(C([H])([H])[H])C([H])([H])[H])C([H])([H])c2c([H])c(OC([H])([H])C([H])([H])[N+]([H])([H])C([H])([H])C3([H])C([H])([H])C([H])([H])C([H])(C(=O)N4C([H])([H])C([H])([H])C([H])([H])C([H])(n5nc(-c6c([H])c([H])c(Oc7c([H])c([H])c(F)c([H])c7F)c([H])c6[H])c(C(=O)N([H])[H])c5N([H])[H])C4([H])[H])C([H])([H])C3([H])[H])c([H])c([H])c2C1([H])[H]

>  <smiles>  (36) 
[H]c1c([H])c([H])c2c(c1[H])C([H])([H])C([H])([H])C([H])([H])C2([H])N([H])C(=O)C1([H])N(C(=O)C([H])(N([H])C(=O)C([H])(N([H])C([H])([H])[H])C([H])([H])[H])C(C([H])([H])[H])(C([H])([H])[H])C([H])([H])[H])C([H])([H])c2c([H])c(OC([H])([H])C([H])([H])[N+]([H])([H])C([H])([H])C3([H])C([H])([H])C([H])([H])C([H])(C(=O)N4C([H])([H])C([H])([H])C([H])([H])C([H])(n5nc(-c6c([H])c([H])c(Oc7c([H])c([H])c(F)c([H])c7F)c([H])c6[H])c(C(=O)N([H])[H])c5N([H])[H])C4([H])[H])C([H])([H])C3([H])[H])c([H])c([H])c2C1([H])[H]

$$$$
36:0:0
     RDKit          3D

 90 98  0  0  1  0  0  0  0  0999 V2000
  -30.5640  -20.2710   21.6330 C   0  0  0  0  0  1  0  0  0  0  0  0
  -29.4140  -19.9580   20.7540 N   0  0  2  0  0  4  0  0  0  0  0  0
  -28.6880  -19.7260   21.4170 H   0  0  0  0  0  0  0  0  0  0  0  0
  -29.7710  -17.7150   17.0060 C   0  0  0  0  0  2  0  0  0  0  0  0
  -28.5930  -17.3240   17.9010 C   0  0  0  0  0  2  0  0  0  0  0  0
  -31.0580  -17.8120   17.8320 C   0  0  0  0  0  2  0  0  0  0  0  0
  -28.4230  -18.3470   19.0370 C   0  0  0  0  0  2  0  0  0  0  0  0
  -30.9100  -18.7400   19.0590 C   0  0  0  0  0  2  0  0  0  0  0  0
  -29.6600  -18.5100   19.9690 C   0  0  1  0  0  0  0  0  0  0  0  0
  -29.8430  -16.9200   20.7740 C   0  0  0  0  0  2  0  0  0  0  0  0
  -30.5520  -15.3850   20.3530 C   0  0  0  0  0  0  0  0  0  0  0  0
  -30.5140  -12.9700   19.4300 C   0  0  0  0  0  2  0  0  0  0  0  0
  -29.6070  -12.8460   18.1830 C   0  0  0  0  0  2  0  0  0  0  0  0
  -28.1500  -12.5750   18.5950 C   0  0  0  0  0  2  0  0  0  0  0  0
  -27.6970  -13.4980   19.7550 C   0  0  0  0  0  3  0  0  0  0  0  0
  -28.7340  -13.5960   20.8920 C   0  0  0  0  0  2  0  0  0  0  0  0
  -29.9910  -14.0830   20.3020 N   0  0  0  0  0  0  0  0  0  0  0  0
  -31.7540  -15.3770   20.0510 O   0  0  0  0  0  0  0  0  0  0  0  0
  -25.3070  -14.0280   20.4740 C   0  0  0  0  0  0  0  0  0  0  0  0
  -24.2500  -13.2380   20.8290 C   0  0  0  0  0  0  0  0  0  0  0  0
  -24.7350  -11.8930   20.8050 C   0  0  0  0  0  0  0  0  0  0  0  0
  -26.3650  -13.1670   20.2440 N   0  0  0  0  0  0  0  0  0  0  0  0
  -26.0310  -11.8770   20.5110 N   0  0  0  0  0  0  0  0  0  0  0  0
  -24.0220  -10.6220   20.9850 C   0  0  0  0  0  0  0  0  0  0  0  0
  -24.4460   -9.6610   21.9300 C   0  0  0  0  0  3  0  0  0  0  0  0
  -23.7290   -8.4580   22.1000 C   0  0  0  0  0  3  0  0  0  0  0  0
  -22.5740   -8.2050   21.3230 C   0  0  0  0  0  0  0  0  0  0  0  0
  -22.1680   -9.1530   20.3670 C   0  0  0  0  0  3  0  0  0  0  0  0
  -22.8860  -10.3480   20.1960 C   0  0  0  0  0  3  0  0  0  0  0  0
  -21.8290   -7.0520   21.4000 O   0  0  0  0  0  0  0  0  0  0  0  0
  -21.7680   -6.3100   22.5530 C   0  0  0  0  0  0  0  0  0  0  0  0
  -21.3090   -6.8600   23.7690 C   0  0  0  0  0  3  0  0  0  0  0  0
  -21.1980   -6.0440   24.9120 C   0  0  0  0  0  3  0  0  0  0  0  0
  -21.5350   -4.6790   24.8410 C   0  0  0  0  0  0  0  0  0  0  0  0
  -21.9870   -4.1280   23.6290 C   0  0  0  0  0  3  0  0  0  0  0  0
  -22.1000   -4.9420   22.4870 C   0  0  0  0  0  0  0  0  0  0  0  0
  -22.5160   -4.4010   21.3160 F   0  0  0  0  0  0  0  0  0  0  0  0
  -21.4220   -3.8930   25.9370 F   0  0  0  0  0  0  0  0  0  0  0  0
  -22.8430  -13.6970   21.0770 C   0  0  0  0  0  0  0  0  0  0  0  0
  -22.1120  -12.9970   21.9370 N   0  0  0  0  0  0  0  0  0  0  0  0
  -22.4000  -14.7130   20.5430 O   0  0  0  0  0  0  0  0  0  0  0  0
  -22.4850  -12.1760   22.3910 H   0  0  0  0  0  0  0  0  0  0  0  0
  -21.1670  -13.2860   22.1450 H   0  0  0  0  0  0  0  0  0  0  0  0
  -25.4530  -15.4020   20.3020 N   0  0  0  0  0  0  0  0  0  0  0  0
  -24.6720  -16.0400   20.4000 H   0  0  0  0  0  0  0  0  0  0  0  0
  -26.2960  -15.8540   19.9750 H   0  0  0  0  0  0  0  0  0  0  0  0
  -28.8350  -21.3700   20.1050 C   0  0  0  0  0  2  0  0  0  0  0  0
  -28.8340  -23.0250   20.7580 C   0  0  0  0  0  3  0  0  0  0  0  0
  -28.0410  -24.5200   20.2130 C   0  0  0  0  0  3  0  0  0  0  0  0
  -28.1980  -26.0980   20.5800 O   0  0  0  0  0  0  0  0  0  0  0  0
  -24.6030  -32.0570   23.3570 C   0  0  0  0  0  0  0  0  0  0  0  0
  -27.1830  -27.1660   20.4510 C   0  0  0  0  0  0  0  0  0  0  0  0
  -23.4240  -30.6430   21.7220 C   0  0  0  0  0  3  0  0  0  0  0  0
  -24.8850  -29.0190   20.3430 C   0  0  0  0  0  0  0  0  0  0  0  0
  -25.9900  -30.8520   21.6080 C   0  0  0  0  0  2  0  0  0  0  0  0
  -26.0630  -29.4370   20.9740 C   0  0  0  0  0  0  0  0  0  0  0  0
  -27.2060  -28.5300   21.0080 C   0  0  0  0  0  3  0  0  0  0  0  0
  -25.9820  -26.8870   19.7610 C   0  0  0  0  0  3  0  0  0  0  0  0
  -24.8680  -27.7610   19.7160 C   0  0  0  0  0  3  0  0  0  0  0  0
  -23.6680  -29.9380   20.3590 C   0  0  0  0  0  2  0  0  0  0  0  0
  -24.6930  -31.2110   22.2830 N   0  0  0  0  0  0  0  0  0  0  0  0
  -23.5090  -32.3600   23.8590 O   0  0  0  0  0  0  0  0  0  0  0  0
  -22.7140  -29.6630   22.6910 C   0  0  0  0  0  0  0  0  0  0  0  0
  -21.3890  -29.4860   22.5330 N   0  0  0  0  0  0  0  0  0  0  0  0
  -23.3610  -29.0630   23.5530 O   0  0  0  0  0  0  0  0  0  0  0  0
  -20.9220  -30.0200   21.8140 H   0  0  0  0  0  0  0  0  0  0  0  0
  -18.0070  -28.2460   22.9550 C   0  0  0  0  0  0  0  0  0  0  0  0
  -20.5510  -28.5620   23.3040 C   0  0  0  0  0  3  0  0  0  0  0  0
  -20.6950  -27.1130   22.7830 C   0  0  0  0  0  2  0  0  0  0  0  0
  -19.6370  -26.7390   21.7400 C   0  0  0  0  0  2  0  0  0  0  0  0
  -18.2300  -26.8810   22.3280 C   0  0  0  0  0  2  0  0  0  0  0  0
  -19.0970  -29.0420   23.3980 C   0  0  0  0  0  0  0  0  0  0  0  0
  -18.8340  -30.3170   23.9450 C   0  0  0  0  0  3  0  0  0  0  0  0
  -17.5140  -30.7970   24.0530 C   0  0  0  0  0  3  0  0  0  0  0  0
  -16.4400  -30.0000   23.6230 C   0  0  0  0  0  3  0  0  0  0  0  0
  -16.6860  -28.7260   23.0800 C   0  0  0  0  0  3  0  0  0  0  0  0
  -25.8700  -32.7010   23.9990 C   0  0  0  0  0  3  0  0  0  0  0  0
  -25.5620  -34.1110   24.2920 N   0  0  0  0  0  0  0  0  0  0  0  0
  -25.9030  -35.1480   23.5130 C   0  0  0  0  0  0  0  0  0  0  0  0
  -26.5720  -35.0170   22.4850 O   0  0  0  0  0  0  0  0  0  0  0  0
  -24.9660  -34.2870   25.0870 H   0  0  0  0  0  0  0  0  0  0  0  0
  -24.1720  -36.9420   23.1430 C   0  0  0  0  0  1  0  0  0  0  0  0
  -25.4270  -36.5510   23.9420 C   0  0  0  0  0  3  0  0  0  0  0  0
  -27.5760  -37.4590   24.7120 C   0  0  0  0  0  1  0  0  0  0  0  0
  -26.4590  -37.5990   23.7820 N   0  0  0  0  0  0  0  0  0  0  0  0
  -26.0570  -38.5240   23.9080 H   0  0  0  0  0  0  0  0  0  0  0  0
  -26.3420  -31.9640   25.3140 C   0  0  1  0  0  0  0  0  0  0  0  0
  -25.2140  -31.7610   26.3540 C   0  0  0  0  0  1  0  0  0  0  0  0
  -26.9300  -30.5720   24.9870 C   0  0  0  0  0  1  0  0  0  0  0  0
  -27.4750  -32.7720   25.9900 C   0  0  0  0  0  1  0  0  0  0  0  0
  2  3  1  1
  2  1  1  0
  4  6  1  0
  4  5  1  0
  5  7  1  0
  6  8  1  0
  7  9  1  0
  8  9  1  0
  9  2  1  0
  9 10  1  1
 11 10  1  0
 12 17  1  0
 13 14  1  0
 13 12  1  0
 15 14  1  0
 15 22  1  0
 15 16  1  0
 17 11  1  0
 17 16  1  0
 18 11  2  0
 19 20  2  0
 20 39  1  0
 21 20  1  0
 21 24  1  0
 22 19  1  0
 22 23  1  0
 23 21  2  0
 24 25  1  0
 25 26  2  0
 27 30  1  0
 27 26  1  0
 28 27  2  0
 29 28  1  0
 29 24  2  0
 30 31  1  0
 31 32  1  0
 32 33  2  0
 34 33  1  0
 34 38  1  0
 35 34  2  0
 36 31  2  0
 36 35  1  0
 37 36  1  0
 39 40  1  0
 40 43  1  0
 40 42  1  0
 41 39  2  0
 44 45  1  0
 44 19  1  0
 46 44  1  0
 47  2  1  0
 47 48  1  0
 49 50  1  0
 49 48  2  0
 51 62  2  0
 52 50  1  0
 52 57  1  0
 53 61  1  0
 53 63  1  0
 54 60  1  0
 54 56  1  0
 55 61  1  0
 56 57  2  0
 56 55  1  0
 58 52  2  0
 59 58  1  0
 59 54  2  0
 60 53  1  0
 61 51  1  0
 63 65  2  0
 64 63  1  0
 66 64  1  0
 67 76  2  0
 67 72  1  0
 68 64  1  0
 68 72  1  0
 69 68  1  0
 70 71  1  0
 70 69  1  0
 71 67  1  0
 72 73  2  0
 73 74  1  0
 75 74  2  0
 76 75  1  0
 77 51  1  0
 77 78  1  0
 77 87  1  0
 78 81  1  0
 79 83  1  0
 79 78  1  0
 80 79  2  0
 83 82  1  0
 85 86  1  0
 85 83  1  0
 85 84  1  0
 87 90  1  1
 87 88  1  0
 89 87  1  0
M  ISO  4  10 100  11 100  49 101  50 101
M  END
>  <TORSDO>  (37) 
F 21

>  <SCORE>  (37) 
-14.609

>  <name>  (37) 
36

>  <ligand_id>  (37) 
36

>  <original_smiles>  (37) 
[H]c1c([H])c([H])c2c(c1[H])C([H])([H])C([H])([H])C([H])([H])C2([H])N([H])C(=O)C1([H])N(C(=O)C([H])(N([H])C(=O)C([H])(N([H])C([H])([H])[H])C([H])([H])[H])C(C([H])([H])[H])(C([H])([H])[H])C([H])([H])[H])C([H])([H])c2c([H])c(OC([H])([H])C([H])([H])C([H])([H])[N+]([H])(C([H])([H])[H])C3(C([H])([H])C(=O)N4C([H])([H])C([H])([H])C([H])([H])C([H])(n5nc(-c6c([H])c([H])c(Oc7c([H])c([H])c(F)c([H])c7F)c([H])c6[H])c(C(=O)N([H])[H])c5N([H])[H])C4([H])[H])C([H])([H])C([H])([H])C([H])([H])C([H])([H])C3([H])[H])c([H])c([H])c2C1([H])[H]

>  <smiles>  (37) 
[H]c1c([H])c([H])c2c(c1[H])C([H])([H])C([H])([H])C([H])([H])C2([H])N([H])C(=O)C1([H])N(C(=O)C([H])(N([H])C(=O)C([H])(N([H])C([H])([H])[H])C([H])([H])[H])C(C([H])([H])[H])(C([H])([H])[H])C([H])([H])[H])C([H])([H])c2c([H])c(OC([H])([H])C([H])([H])C([H])([H])[N+]([H])(C([H])([H])[H])C3(C([H])([H])C(=O)N4C([H])([H])C([H])([H])C([H])([H])C([H])(n5nc(-c6c([H])c([H])c(Oc7c([H])c([H])c(F)c([H])c7F)c([H])c6[H])c(C(=O)N([H])[H])c5N([H])[H])C4([H])[H])C([H])([H])C([H])([H])C([H])([H])C([H])([H])C3([H])[H])c([H])c([H])c2C1([H])[H]

$$$$
37:0:0
     RDKit          3D

 92 99  0  0  1  0  0  0  0  0999 V2000
  -29.9930  -21.9280   21.2590 C   0  0  0  0  0  3  0  0  0  0  0  0
  -29.2560  -21.6950   22.5200 N   0  0  0  0  0  4  0  0  0  0  0  0
  -29.8590  -21.2890   23.2140 H   0  0  0  0  0  0  0  0  0  0  0  0
  -28.5030  -21.0440   22.3470 H   0  0  0  0  0  0  0  0  0  0  0  0
  -28.8850  -22.5480   22.9000 H   0  0  0  0  0  0  0  0  0  0  0  0
  -30.5090  -20.5930   20.5920 C   0  0  0  0  0  2  0  0  0  0  0  0
  -29.6250  -19.3190   20.6070 C   0  0  0  0  0  0  0  0  0  0  0  0
  -30.2170  -18.1390   20.3150 N   0  0  0  0  0  0  0  0  0  0  0  0
  -28.4300  -19.3990   20.9050 O   0  0  0  0  0  0  0  0  0  0  0  0
  -31.2030  -18.1740   20.0840 H   0  0  0  0  0  0  0  0  0  0  0  0
  -29.5660  -16.8100   20.2440 C   0  0  0  0  0  2  0  0  0  0  0  0
  -30.3420  -15.6570   20.9590 C   0  0  0  0  0  2  0  0  0  0  0  0
  -30.8160  -14.4840   20.0550 C   0  0  0  0  0  0  0  0  0  0  0  0
  -30.4230  -12.3000   18.9460 C   0  0  0  0  0  2  0  0  0  0  0  0
  -29.4150  -12.4730   17.7910 C   0  0  0  0  0  2  0  0  0  0  0  0
  -27.9670  -12.3530   18.3030 C   0  0  0  0  0  2  0  0  0  0  0  0
  -27.7080  -13.2350   19.5510 C   0  0  0  0  0  3  0  0  0  0  0  0
  -28.8190  -13.0370   20.6060 C   0  0  0  0  0  2  0  0  0  0  0  0
  -30.1170  -13.3150   19.9690 N   0  0  0  0  0  0  0  0  0  0  0  0
  -31.8520  -14.6660   19.4080 O   0  0  0  0  0  0  0  0  0  0  0  0
  -25.3890  -13.9060   20.4340 C   0  0  0  0  0  0  0  0  0  0  0  0
  -24.3200  -13.1630   20.8530 C   0  0  0  0  0  0  0  0  0  0  0  0
  -24.7230  -11.7950   20.7540 C   0  0  0  0  0  0  0  0  0  0  0  0
  -26.3810  -12.9950   20.1120 N   0  0  0  0  0  0  0  0  0  0  0  0
  -25.9860  -11.7170   20.3560 N   0  0  0  0  0  0  0  0  0  0  0  0
  -23.9630  -10.5560   20.9580 C   0  0  0  0  0  0  0  0  0  0  0  0
  -24.4090   -9.5560   21.8490 C   0  0  0  0  0  3  0  0  0  0  0  0
  -23.6510   -8.3800   22.0410 C   0  0  0  0  0  3  0  0  0  0  0  0
  -22.4330   -8.2000   21.3420 C   0  0  0  0  0  0  0  0  0  0  0  0
  -22.0070   -9.1900   20.4390 C   0  0  0  0  0  3  0  0  0  0  0  0
  -22.7640  -10.3550   20.2460 C   0  0  0  0  0  3  0  0  0  0  0  0
  -21.6430   -7.0800   21.4460 O   0  0  0  0  0  0  0  0  0  0  0  0
  -21.6200   -6.3200   22.5880 C   0  0  0  0  0  0  0  0  0  0  0  0
  -21.2430   -6.8630   23.8350 C   0  0  0  0  0  3  0  0  0  0  0  0
  -21.1610   -6.0310   24.9710 C   0  0  0  0  0  3  0  0  0  0  0  0
  -21.4490   -4.6580   24.8600 C   0  0  0  0  0  0  0  0  0  0  0  0
  -21.8200   -4.1130   23.6180 C   0  0  0  0  0  3  0  0  0  0  0  0
  -21.9010   -4.9420   22.4840 C   0  0  0  0  0  0  0  0  0  0  0  0
  -22.2380   -4.4100   21.2860 F   0  0  0  0  0  0  0  0  0  0  0  0
  -21.3660   -3.8560   25.9480 F   0  0  0  0  0  0  0  0  0  0  0  0
  -22.9620  -13.6830   21.2370 C   0  0  0  0  0  0  0  0  0  0  0  0
  -22.2730  -12.9890   22.1370 N   0  0  0  0  0  0  0  0  0  0  0  0
  -22.5270  -14.7360   20.7730 O   0  0  0  0  0  0  0  0  0  0  0  0
  -22.6400  -12.1370   22.5310 H   0  0  0  0  0  0  0  0  0  0  0  0
  -21.3660  -13.3170   22.4350 H   0  0  0  0  0  0  0  0  0  0  0  0
  -25.5940  -15.2760   20.2810 N   0  0  0  0  0  0  0  0  0  0  0  0
  -24.8600  -15.9550   20.4460 H   0  0  0  0  0  0  0  0  0  0  0  0
  -26.4300  -15.6860   19.8850 H   0  0  0  0  0  0  0  0  0  0  0  0
  -29.2020  -22.8870   20.3130 C   0  0  0  0  0  2  0  0  0  0  0  0
  -29.1430  -24.3760   20.7850 C   0  0  0  0  0  2  0  0  0  0  0  0
  -28.2760  -25.2830   19.8810 C   0  0  0  0  0  2  0  0  0  0  0  0
  -28.3800  -26.6930   20.1970 O   0  0  0  0  0  0  0  0  0  0  0  0
  -24.5380  -31.8900   23.2180 C   0  0  0  0  0  0  0  0  0  0  0  0
  -27.2240  -27.4570   20.1320 C   0  0  0  0  0  0  0  0  0  0  0  0
  -23.3590  -30.4970   21.5540 C   0  0  0  0  0  3  0  0  0  0  0  0
  -24.8320  -28.9870   20.1270 C   0  0  0  0  0  0  0  0  0  0  0  0
  -25.8880  -30.8580   21.3940 C   0  0  0  0  0  2  0  0  0  0  0  0
  -25.9840  -29.4930   20.7400 C   0  0  0  0  0  0  0  0  0  0  0  0
  -27.1810  -28.7360   20.7420 C   0  0  0  0  0  3  0  0  0  0  0  0
  -26.0530  -26.9930   19.4810 C   0  0  0  0  0  3  0  0  0  0  0  0
  -24.8620  -27.7360   19.4950 C   0  0  0  0  0  3  0  0  0  0  0  0
  -23.5860  -29.8410   20.1680 C   0  0  0  0  0  2  0  0  0  0  0  0
  -24.6130  -31.0940   22.1140 N   0  0  0  0  0  0  0  0  0  0  0  0
  -23.4500  -32.1520   23.7490 O   0  0  0  0  0  0  0  0  0  0  0  0
  -22.7060  -29.4580   22.4940 C   0  0  0  0  0  0  0  0  0  0  0  0
  -21.3860  -29.2640   22.3490 N   0  0  0  0  0  0  0  0  0  0  0  0
  -23.3830  -28.8350   23.3150 O   0  0  0  0  0  0  0  0  0  0  0  0
  -20.8990  -29.8190   21.6600 H   0  0  0  0  0  0  0  0  0  0  0  0
  -18.0110  -28.0500   22.8090 C   0  0  0  0  0  0  0  0  0  0  0  0
  -20.5660  -28.3140   23.1030 C   0  0  0  0  0  3  0  0  0  0  0  0
  -20.6780  -26.8890   22.5110 C   0  0  0  0  0  2  0  0  0  0  0  0
  -19.5850  -26.5740   21.4860 C   0  0  0  0  0  2  0  0  0  0  0  0
  -18.1980  -26.7080   22.1210 C   0  0  0  0  0  2  0  0  0  0  0  0
  -19.1240  -28.8110   23.2570 C   0  0  0  0  0  0  0  0  0  0  0  0
  -18.8970  -30.0670   23.8600 C   0  0  0  0  0  3  0  0  0  0  0  0
  -17.5910  -30.5620   24.0220 C   0  0  0  0  0  3  0  0  0  0  0  0
  -16.4910  -29.7990   23.5920 C   0  0  0  0  0  3  0  0  0  0  0  0
  -16.7030  -28.5450   22.9920 C   0  0  0  0  0  3  0  0  0  0  0  0
  -25.8130  -32.5250   23.8540 C   0  0  0  0  0  3  0  0  0  0  0  0
  -26.3120  -31.7620   25.1420 C   0  0  1  0  0  0  0  0  0  0  0  0
  -25.2010  -31.5230   26.1930 C   0  0  0  0  0  1  0  0  0  0  0  0
  -26.9080  -30.3860   24.7660 C   0  0  0  0  0  1  0  0  0  0  0  0
  -27.4470  -32.5640   25.8200 C   0  0  0  0  0  1  0  0  0  0  0  0
  -25.4980  -33.9240   24.1690 N   0  0  0  0  0  0  0  0  0  0  0  0
  -25.8430  -34.9700   23.4070 C   0  0  0  0  0  0  0  0  0  0  0  0
  -26.5350  -34.8610   22.3910 O   0  0  0  0  0  0  0  0  0  0  0  0
  -24.8890  -34.0850   24.9590 H   0  0  0  0  0  0  0  0  0  0  0  0
  -24.1270  -36.7630   22.9990 C   0  0  0  0  0  1  0  0  0  0  0  0
  -25.3470  -36.3620   23.8450 C   0  0  0  0  0  3  0  0  0  0  0  0
  -27.4570  -37.2510   24.7330 C   0  0  0  0  0  1  0  0  0  0  0  0
  -26.3840  -37.4140   23.7540 N   0  0  0  0  0  0  0  0  0  0  0  0
  -25.9750  -38.3360   23.8820 H   0  0  0  0  0  0  0  0  0  0  0  0
  1 49  1  0
  1  2  1  0
  2  5  1  0
  2  3  1  0
  4  2  1  0
  6  7  1  0
  6  1  1  0
  7  9  2  0
  8  7  1  0
 10  8  1  0
 11  8  1  0
 11 12  1  0
 13 12  1  0
 14 19  1  0
 15 16  1  0
 15 14  1  0
 17 16  1  0
 17 24  1  0
 17 18  1  0
 19 13  1  0
 19 18  1  0
 20 13  2  0
 21 22  2  0
 22 41  1  0
 23 22  1  0
 23 26  1  0
 24 25  1  0
 24 21  1  0
 25 23  2  0
 26 27  1  0
 27 28  2  0
 29 32  1  0
 29 28  1  0
 30 29  2  0
 31 30  1  0
 31 26  2  0
 32 33  1  0
 33 34  1  0
 34 35  2  0
 36 35  1  0
 36 40  1  0
 37 36  2  0
 38 33  2  0
 38 37  1  0
 39 38  1  0
 41 42  1  0
 42 45  1  0
 42 44  1  0
 43 41  2  0
 46 21  1  0
 46 47  1  0
 48 46  1  0
 49 50  1  0
 51 52  1  0
 51 50  1  0
 53 64  2  0
 54 52  1  0
 54 59  1  0
 55 63  1  0
 55 65  1  0
 56 62  1  0
 56 58  1  0
 57 63  1  0
 58 59  2  0
 58 57  1  0
 60 61  1  0
 60 54  2  0
 61 56  2  0
 62 55  1  0
 63 53  1  0
 65 67  2  0
 66 65  1  0
 68 66  1  0
 69 78  2  0
 69 74  1  0
 70 66  1  0
 70 74  1  0
 71 70  1  0
 72 73  1  0
 72 71  1  0
 73 69  1  0
 74 75  2  0
 75 76  1  0
 77 76  2  0
 78 77  1  0
 79 53  1  0
 79 84  1  0
 79 80  1  0
 80 83  1  1
 80 81  1  0
 82 80  1  0
 84 87  1  0
 85 89  1  0
 85 84  1  0
 86 85  2  0
 89 88  1  0
 91 89  1  0
 91 92  1  0
 91 90  1  0
M  ISO  4  12 100  13 100  51 101  52 101
M  END
>  <TORSDO>  (38) 
F 24

>  <SCORE>  (38) 
-12.576

>  <name>  (38) 
37

>  <ligand_id>  (38) 
37

>  <original_smiles>  (38) 
[H]c1c([H])c([H])c2c(c1[H])C([H])([H])C([H])([H])C([H])([H])C2([H])N([H])C(=O)C1([H])N(C(=O)C([H])(N([H])C(=O)C([H])(N([H])C([H])([H])[H])C([H])([H])[H])C(C([H])([H])[H])(C([H])([H])[H])C([H])([H])[H])C([H])([H])c2c([H])c(OC([H])([H])C([H])([H])C([H])([H])C([H])(C([H])([H])C(=O)N([H])C([H])([H])C([H])([H])C(=O)N3C([H])([H])C([H])([H])C([H])([H])C([H])(n4nc(-c5c([H])c([H])c(Oc6c([H])c([H])c(F)c([H])c6F)c([H])c5[H])c(C(=O)N([H])[H])c4N([H])[H])C3([H])[H])[N+]([H])([H])[H])c([H])c([H])c2C1([H])[H]

>  <smiles>  (38) 
[H]c1c([H])c([H])c2c(c1[H])C([H])([H])C([H])([H])C([H])([H])C2([H])N([H])C(=O)C1([H])N(C(=O)C([H])(N([H])C(=O)C([H])(N([H])C([H])([H])[H])C([H])([H])[H])C(C([H])([H])[H])(C([H])([H])[H])C([H])([H])[H])C([H])([H])c2c([H])c(OC([H])([H])C([H])([H])C([H])([H])C([H])(C([H])([H])C(=O)N([H])C([H])([H])C([H])([H])C(=O)N3C([H])([H])C([H])([H])C([H])([H])C([H])(n4nc(-c5c([H])c([H])c(Oc6c([H])c([H])c(F)c([H])c6F)c([H])c5[H])c(C(=O)N([H])[H])c4N([H])[H])C3([H])[H])[N+]([H])([H])[H])c([H])c([H])c2C1([H])[H]

$$$$
38:0:0
     RDKit          3D

 99107  0  0  1  0  0  0  0  0999 V2000
  -28.6500  -23.1460   19.8330 C   0  0  0  0  0  3  0  0  0  0  0  0
  -27.6720  -23.7880   18.8080 C   0  0  0  0  0  2  0  0  0  0  0  0
  -24.9440  -21.4120   17.5370 C   0  0  0  0  0  3  0  0  0  0  0  0
  -23.8590  -21.7400   18.3710 C   0  0  0  0  0  3  0  0  0  0  0  0
  -26.1700  -22.0870   17.6840 C   0  0  0  0  0  3  0  0  0  0  0  0
  -23.9970  -22.7510   19.3430 C   0  0  0  0  0  3  0  0  0  0  0  0
  -26.3250  -23.0870   18.6710 C   0  0  0  0  0  0  0  0  0  0  0  0
  -25.2230  -23.4290   19.4940 C   0  0  0  0  0  0  0  0  0  0  0  0
  -25.3250  -24.4220   20.4660 N   0  0  0  0  0  0  0  0  0  0  0  0
  -24.4820  -24.8210   20.8660 H   0  0  0  0  0  0  0  0  0  0  0  0
  -26.1090  -25.0650   20.4380 H   0  0  0  0  0  0  0  0  0  0  0  0
  -29.6680  -24.2740   20.3610 C   0  0  0  0  0  2  0  0  0  0  0  0
  -29.6600  -25.7960   19.8360 C   0  0  0  0  0  2  0  0  0  0  0  0
  -29.2620  -26.9280   20.7100 O   0  0  0  0  0  0  0  0  0  0  0  0
  -24.8670  -31.9530   23.4440 C   0  0  0  0  0  0  0  0  0  0  0  0
  -28.0740  -27.6660   20.5410 C   0  0  0  0  0  0  0  0  0  0  0  0
  -23.9230  -30.5260   21.6640 C   0  0  0  0  0  3  0  0  0  0  0  0
  -25.6040  -29.1150   20.3500 C   0  0  0  0  0  0  0  0  0  0  0  0
  -26.4400  -31.0130   21.7350 C   0  0  0  0  0  2  0  0  0  0  0  0
  -26.6750  -29.6630   21.0670 C   0  0  0  0  0  0  0  0  0  0  0  0
  -27.9060  -28.9470   21.1570 C   0  0  0  0  0  3  0  0  0  0  0  0
  -26.9700  -27.1670   19.8090 C   0  0  0  0  0  3  0  0  0  0  0  0
  -25.7550  -27.8740   19.7160 C   0  0  0  0  0  3  0  0  0  0  0  0
  -24.3100  -29.8990   20.2980 C   0  0  0  0  0  2  0  0  0  0  0  0
  -25.0880  -31.1810   22.3390 N   0  0  0  0  0  0  0  0  0  0  0  0
  -23.7200  -32.1450   23.8750 O   0  0  0  0  0  0  0  0  0  0  0  0
  -23.2390  -29.4430   22.5340 C   0  0  0  0  0  0  0  0  0  0  0  0
  -21.9300  -29.2290   22.3150 N   0  0  0  0  0  0  0  0  0  0  0  0
  -23.8880  -28.8020   23.3650 O   0  0  0  0  0  0  0  0  0  0  0  0
  -21.4640  -29.8020   21.6260 H   0  0  0  0  0  0  0  0  0  0  0  0
  -18.5500  -27.9850   22.6450 C   0  0  0  0  0  0  0  0  0  0  0  0
  -21.1010  -28.2280   22.9890 C   0  0  0  0  0  3  0  0  0  0  0  0
  -21.2200  -26.8490   22.3000 C   0  0  0  0  0  2  0  0  0  0  0  0
  -20.1420  -26.6100   21.2380 C   0  0  0  0  0  2  0  0  0  0  0  0
  -18.7460  -26.6970   21.8630 C   0  0  0  0  0  2  0  0  0  0  0  0
  -19.6560  -28.7130   23.1580 C   0  0  0  0  0  0  0  0  0  0  0  0
  -19.4190  -29.9230   23.8470 C   0  0  0  0  0  3  0  0  0  0  0  0
  -18.1090  -30.4050   24.0270 C   0  0  0  0  0  3  0  0  0  0  0  0
  -17.0170  -29.6730   23.5280 C   0  0  0  0  0  3  0  0  0  0  0  0
  -17.2380  -28.4650   22.8450 C   0  0  0  0  0  3  0  0  0  0  0  0
  -26.0390  -32.6490   24.2010 C   0  0  0  0  0  3  0  0  0  0  0  0
  -25.6290  -34.0330   24.4790 N   0  0  0  0  0  0  0  0  0  0  0  0
  -25.9680  -35.0920   23.7320 C   0  0  0  0  0  0  0  0  0  0  0  0
  -26.7260  -35.0110   22.7610 O   0  0  0  0  0  0  0  0  0  0  0  0
  -24.9580  -34.1650   25.2210 H   0  0  0  0  0  0  0  0  0  0  0  0
  -24.1590  -36.7690   23.2310 C   0  0  0  0  0  1  0  0  0  0  0  0
  -25.3720  -36.4590   24.1240 C   0  0  0  0  0  3  0  0  0  0  0  0
  -27.4030  -37.4850   25.0450 C   0  0  0  0  0  1  0  0  0  0  0  0
  -26.3430  -37.5700   24.0440 N   0  0  0  0  0  0  0  0  0  0  0  0
  -25.8760  -38.4660   24.1550 H   0  0  0  0  0  0  0  0  0  0  0  0
  -26.4420  -31.9090   25.5370 C   0  0  1  0  0  0  0  0  0  0  0  0
  -25.2380  -31.5770   26.4500 C   0  0  0  0  0  1  0  0  0  0  0  0
  -27.1760  -30.5830   25.2310 C   0  0  0  0  0  1  0  0  0  0  0  0
  -27.4280  -32.7860   26.3440 C   0  0  0  0  0  1  0  0  0  0  0  0
  -29.2140  -21.7260   19.2780 C   0  0  0  0  0  2  0  0  0  0  0  0
  -30.1060  -20.6610   20.1060 C   0  0  0  0  0  3  0  0  0  0  0  0
  -29.7920  -19.1970   19.7860 N   0  0  0  0  0  4  0  0  0  0  0  0
  -28.9330  -18.9920   20.2700 H   0  0  0  0  0  0  0  0  0  0  0  0
  -29.5910  -19.1380   18.8000 H   0  0  0  0  0  0  0  0  0  0  0  0
  -30.7840  -18.0760   20.1040 C   0  0  0  0  0  2  0  0  0  0  0  0
  -30.1690  -16.6010   20.2520 C   0  0  0  0  0  2  0  0  0  0  0  0
  -31.0430  -15.2970   19.9830 C   0  0  0  0  0  0  0  0  0  0  0  0
  -30.8420  -13.0090   19.0210 C   0  0  0  0  0  2  0  0  0  0  0  0
  -29.8540  -13.0830   17.8340 C   0  0  0  0  0  2  0  0  0  0  0  0
  -28.3950  -12.9270   18.3130 C   0  0  0  0  0  2  0  0  0  0  0  0
  -28.0680  -13.8330   19.5280 C   0  0  0  0  0  3  0  0  0  0  0  0
  -29.1640  -13.7310   20.6110 C   0  0  0  0  0  2  0  0  0  0  0  0
  -30.4540  -14.0560   19.9860 N   0  0  0  0  0  0  0  0  0  0  0  0
  -32.2060  -15.4300   19.5890 O   0  0  0  0  0  0  0  0  0  0  0  0
  -25.7340  -14.4700   20.3960 C   0  0  0  0  0  0  0  0  0  0  0  0
  -24.6620  -13.7110   20.7800 C   0  0  0  0  0  0  0  0  0  0  0  0
  -25.0790  -12.3500   20.6600 C   0  0  0  0  0  0  0  0  0  0  0  0
  -26.7370  -13.5700   20.0670 N   0  0  0  0  0  0  0  0  0  0  0  0
  -26.3520  -12.2890   20.2890 N   0  0  0  0  0  0  0  0  0  0  0  0
  -24.3230  -11.1020   20.8220 C   0  0  0  0  0  0  0  0  0  0  0  0
  -24.7470  -10.0910   21.7130 C   0  0  0  0  0  3  0  0  0  0  0  0
  -23.9920   -8.9090   21.8640 C   0  0  0  0  0  3  0  0  0  0  0  0
  -22.7970   -8.7300   21.1270 C   0  0  0  0  0  0  0  0  0  0  0  0
  -22.3910   -9.7290   20.2250 C   0  0  0  0  0  3  0  0  0  0  0  0
  -23.1470  -10.9040   20.0720 C   0  0  0  0  0  3  0  0  0  0  0  0
  -22.0140   -7.6030   21.1910 O   0  0  0  0  0  0  0  0  0  0  0  0
  -21.9240   -6.8540   22.3370 C   0  0  0  0  0  0  0  0  0  0  0  0
  -21.4950   -7.4130   23.5610 C   0  0  0  0  0  3  0  0  0  0  0  0
  -21.3490   -6.5920   24.6970 C   0  0  0  0  0  3  0  0  0  0  0  0
  -21.6220   -5.2130   24.6110 C   0  0  0  0  0  0  0  0  0  0  0  0
  -22.0450   -4.6550   23.3920 C   0  0  0  0  0  3  0  0  0  0  0  0
  -22.1920   -5.4730   22.2580 C   0  0  0  0  0  0  0  0  0  0  0  0
  -22.5780   -4.9260   21.0810 F   0  0  0  0  0  0  0  0  0  0  0  0
  -21.4760   -4.4240   25.7000 F   0  0  0  0  0  0  0  0  0  0  0  0
  -23.2940  -14.2150   21.1410 C   0  0  0  0  0  0  0  0  0  0  0  0
  -22.5920  -13.5060   22.0160 N   0  0  0  0  0  0  0  0  0  0  0  0
  -22.8610  -15.2710   20.6820 O   0  0  0  0  0  0  0  0  0  0  0  0
  -22.9570  -12.6510   22.4110 H   0  0  0  0  0  0  0  0  0  0  0  0
  -21.6750  -13.8240   22.3000 H   0  0  0  0  0  0  0  0  0  0  0  0
  -25.9330  -15.8420   20.2780 N   0  0  0  0  0  0  0  0  0  0  0  0
  -25.1870  -16.5060   20.4560 H   0  0  0  0  0  0  0  0  0  0  0  0
  -26.7660  -16.2720   19.9000 H   0  0  0  0  0  0  0  0  0  0  0  0
  -28.6920  -20.6140   22.2800 C   0  0  0  0  0  1  0  0  0  0  0  0
  -30.0660  -20.8690   21.6370 C   0  0  0  0  0  2  0  0  0  0  0  0
  1  2  1  0
  1 12  1  0
  3  5  2  0
  3  4  1  0
  4  6  2  0
  5  7  1  0
  6  8  1  0
  7  2  1  0
  7  8  2  0
  8  9  1  0
  9 10  1  0
 11  9  1  0
 13 12  1  0
 13 14  1  0
 15 26  2  0
 16 14  1  0
 16 21  1  0
 17 25  1  0
 17 27  1  0
 18 20  1  0
 19 25  1  0
 20 21  2  0
 20 19  1  0
 22 16  2  0
 23 22  1  0
 23 18  2  0
 24 18  1  0
 24 17  1  0
 25 15  1  0
 27 29  2  0
 28 27  1  0
 30 28  1  0
 31 40  2  0
 31 36  1  0
 32 28  1  0
 32 36  1  0
 33 32  1  0
 34 35  1  0
 34 33  1  0
 35 31  1  0
 36 37  2  0
 37 38  1  0
 39 38  2  0
 40 39  1  0
 41 15  1  0
 41 42  1  0
 41 51  1  0
 42 45  1  0
 43 47  1  0
 43 42  1  0
 44 43  2  0
 47 46  1  0
 49 47  1  0
 49 50  1  0
 49 48  1  0
 51 54  1  1
 51 52  1  0
 53 51  1  0
 55  1  1  0
 56 55  1  0
 56 99  1  0
 57 60  1  0
 57 56  1  0
 57 58  1  0
 59 57  1  0
 60 61  1  0
 62 68  1  0
 62 61  1  0
 63 68  1  0
 64 65  1  0
 64 63  1  0
 66 65  1  0
 66 73  1  0
 66 67  1  0
 68 67  1  0
 69 62  2  0
 70 71  2  0
 71 90  1  0
 72 71  1  0
 72 75  1  0
 73 74  1  0
 73 70  1  0
 74 72  2  0
 75 76  1  0
 76 77  2  0
 78 81  1  0
 78 77  1  0
 79 78  2  0
 80 79  1  0
 80 75  2  0
 81 82  1  0
 82 83  1  0
 83 84  2  0
 85 84  1  0
 85 89  1  0
 86 85  2  0
 87 82  2  0
 87 86  1  0
 88 87  1  0
 90 91  1  0
 91 94  1  0
 91 93  1  0
 92 90  2  0
 95 70  1  0
 95 96  1  0
 97 95  1  0
 99 98  1  0
M  ISO  4  13 101  14 101  61 100  62 100
M  END
>  <TORSDO>  (39) 
F 27

>  <SCORE>  (39) 
-9.389

>  <name>  (39) 
38

>  <ligand_id>  (39) 
38

>  <original_smiles>  (39) 
[H]c1c([H])c([H])c(C([H])([H])C([H])(C([H])([H])C([H])([H])Oc2c([H])c([H])c3c(c2[H])C([H])([H])N(C(=O)C([H])(N([H])C(=O)C([H])(N([H])C([H])([H])[H])C([H])([H])[H])C(C([H])([H])[H])(C([H])([H])[H])C([H])([H])[H])C([H])(C(=O)N([H])C2([H])c4c([H])c([H])c([H])c([H])c4C([H])([H])C([H])([H])C2([H])[H])C3([H])[H])C([H])([H])C([H])(C([H])([H])C([H])([H])[H])[N+]([H])([H])C([H])([H])C([H])([H])C(=O)N2C([H])([H])C([H])([H])C([H])([H])C([H])(n3nc(-c4c([H])c([H])c(Oc5c([H])c([H])c(F)c([H])c5F)c([H])c4[H])c(C(=O)N([H])[H])c3N([H])[H])C2([H])[H])c(N([H])[H])c1[H]

>  <smiles>  (39) 
[H]c1c([H])c([H])c(C([H])([H])C([H])(C([H])([H])C([H])([H])Oc2c([H])c([H])c3c(c2[H])C([H])([H])N(C(=O)C([H])(N([H])C(=O)C([H])(N([H])C([H])([H])[H])C([H])([H])[H])C(C([H])([H])[H])(C([H])([H])[H])C([H])([H])[H])C([H])(C(=O)N([H])C2([H])c4c([H])c([H])c([H])c([H])c4C([H])([H])C([H])([H])C2([H])[H])C3([H])[H])C([H])([H])C([H])(C([H])([H])C([H])([H])[H])[N+]([H])([H])C([H])([H])C([H])([H])C(=O)N2C([H])([H])C([H])([H])C([H])([H])C([H])(n3nc(-c4c([H])c([H])c(Oc5c([H])c([H])c(F)c([H])c5F)c([H])c4[H])c(C(=O)N([H])[H])c3N([H])[H])C2([H])[H])c(N([H])[H])c1[H]

$$$$
39:0:0
     RDKit          3D

 88 95  0  0  1  0  0  0  0  0999 V2000
  -28.8570  -21.9210   20.3610 C   0  0  0  0  0  2  0  0  0  0  0  0
  -30.8110  -20.9530   21.7900 C   0  0  0  0  0  1  0  0  0  0  0  0
  -29.4300  -20.5970   21.2160 C   0  0  0  0  0  3  0  0  0  0  0  0
  -30.0410  -17.8820   20.9580 C   0  0  0  0  0  0  0  0  0  0  0  0
  -29.3870  -19.1180   20.6530 N   0  0  0  0  0  0  0  0  0  0  0  0
  -31.0020  -17.8840   21.7240 O   0  0  0  0  0  0  0  0  0  0  0  0
  -28.6160  -18.9930   20.0070 H   0  0  0  0  0  0  0  0  0  0  0  0
  -29.1410  -16.7240   18.9070 C   0  0  0  0  0  1  0  0  0  0  0  0
  -29.5460  -16.4210   20.3600 C   0  0  0  0  0  3  0  0  0  0  0  0
  -30.4730  -15.0220   20.3560 C   0  0  0  0  0  0  0  0  0  0  0  0
  -30.4170  -12.6860   19.3750 C   0  0  0  0  0  2  0  0  0  0  0  0
  -29.4890  -12.7060   18.1390 C   0  0  0  0  0  2  0  0  0  0  0  0
  -28.0140  -12.4820   18.5380 C   0  0  0  0  0  2  0  0  0  0  0  0
  -27.5980  -13.3260   19.7740 C   0  0  0  0  0  3  0  0  0  0  0  0
  -28.6580  -13.2800   20.8930 C   0  0  0  0  0  2  0  0  0  0  0  0
  -29.9360  -13.7300   20.3250 N   0  0  0  0  0  0  0  0  0  0  0  0
  -31.6780  -15.1060   20.0810 O   0  0  0  0  0  0  0  0  0  0  0  0
  -25.2030  -13.8620   20.5110 C   0  0  0  0  0  0  0  0  0  0  0  0
  -24.1470  -13.0720   20.8820 C   0  0  0  0  0  0  0  0  0  0  0  0
  -24.6280  -11.7300   20.8440 C   0  0  0  0  0  0  0  0  0  0  0  0
  -26.2570  -12.9980   20.2620 N   0  0  0  0  0  0  0  0  0  0  0  0
  -25.9190  -11.7080   20.5240 N   0  0  0  0  0  0  0  0  0  0  0  0
  -23.9160  -10.4560   21.0400 C   0  0  0  0  0  0  0  0  0  0  0  0
  -24.3660   -9.4970   21.9740 C   0  0  0  0  0  3  0  0  0  0  0  0
  -23.6530   -8.2930   22.1630 C   0  0  0  0  0  3  0  0  0  0  0  0
  -22.4800   -8.0390   21.4130 C   0  0  0  0  0  0  0  0  0  0  0  0
  -22.0480   -8.9890   20.4710 C   0  0  0  0  0  3  0  0  0  0  0  0
  -22.7610  -10.1840   20.2810 C   0  0  0  0  0  3  0  0  0  0  0  0
  -21.7390   -6.8840   21.5000 O   0  0  0  0  0  0  0  0  0  0  0  0
  -21.6960   -6.1380   22.6500 C   0  0  0  0  0  0  0  0  0  0  0  0
  -21.2530   -6.6820   23.8750 C   0  0  0  0  0  3  0  0  0  0  0  0
  -21.1500   -5.8580   25.0140 C   0  0  0  0  0  3  0  0  0  0  0  0
  -21.4960   -4.4940   24.9330 C   0  0  0  0  0  0  0  0  0  0  0  0
  -21.9410   -3.9540   23.7130 C   0  0  0  0  0  3  0  0  0  0  0  0
  -22.0350   -4.7720   22.5750 C   0  0  0  0  0  0  0  0  0  0  0  0
  -22.4350   -4.2370   21.3960 F   0  0  0  0  0  0  0  0  0  0  0  0
  -21.4000   -3.7020   26.0280 F   0  0  0  0  0  0  0  0  0  0  0  0
  -22.7460  -13.5350   21.1630 C   0  0  0  0  0  0  0  0  0  0  0  0
  -22.0290  -12.8250   22.0270 N   0  0  0  0  0  0  0  0  0  0  0  0
  -22.2890  -14.5560   20.6500 O   0  0  0  0  0  0  0  0  0  0  0  0
  -22.4170  -12.0080   22.4750 H   0  0  0  0  0  0  0  0  0  0  0  0
  -21.0900  -13.1190   22.2540 H   0  0  0  0  0  0  0  0  0  0  0  0
  -25.3420  -15.2370   20.3440 N   0  0  0  0  0  0  0  0  0  0  0  0
  -24.5730  -15.8800   20.4850 H   0  0  0  0  0  0  0  0  0  0  0  0
  -26.1640  -15.6850   19.9560 H   0  0  0  0  0  0  0  0  0  0  0  0
  -28.6490  -23.4720   20.9660 C   0  0  0  0  0  3  0  0  0  0  0  0
  -28.2160  -24.7820   20.0230 C   0  0  0  0  0  3  0  0  0  0  0  0
  -28.2670  -26.2830   20.3900 O   0  0  0  0  0  0  0  0  0  0  0  0
  -24.6010  -31.8950   23.2720 C   0  0  0  0  0  0  0  0  0  0  0  0
  -27.1860  -27.2190   20.2510 C   0  0  0  0  0  0  0  0  0  0  0  0
  -23.4010  -30.5030   21.6310 C   0  0  0  0  0  3  0  0  0  0  0  0
  -24.8480  -28.9400   20.1900 C   0  0  0  0  0  0  0  0  0  0  0  0
  -25.9420  -30.7910   21.4420 C   0  0  0  0  0  2  0  0  0  0  0  0
  -26.0190  -29.3950   20.8040 C   0  0  0  0  0  0  0  0  0  0  0  0
  -27.1850  -28.5510   20.8190 C   0  0  0  0  0  3  0  0  0  0  0  0
  -25.9970  -26.8660   19.5690 C   0  0  0  0  0  3  0  0  0  0  0  0
  -24.8490  -27.6890   19.5520 C   0  0  0  0  0  3  0  0  0  0  0  0
  -23.6210  -29.8380   20.2440 C   0  0  0  0  0  2  0  0  0  0  0  0
  -24.6720  -31.0790   22.1760 N   0  0  0  0  0  0  0  0  0  0  0  0
  -23.5160  -32.1670   23.8050 O   0  0  0  0  0  0  0  0  0  0  0  0
  -22.7310  -29.4850   22.5850 C   0  0  0  0  0  0  0  0  0  0  0  0
  -21.4050  -29.3040   22.4520 N   0  0  0  0  0  0  0  0  0  0  0  0
  -23.4050  -28.8640   23.4130 O   0  0  0  0  0  0  0  0  0  0  0  0
  -20.9180  -29.8560   21.7580 H   0  0  0  0  0  0  0  0  0  0  0  0
  -18.0340  -28.0750   22.9340 C   0  0  0  0  0  0  0  0  0  0  0  0
  -20.5870  -28.3640   23.2240 C   0  0  0  0  0  3  0  0  0  0  0  0
  -20.7080  -26.9290   22.6630 C   0  0  0  0  0  2  0  0  0  0  0  0
  -19.6210  -26.5850   21.6390 C   0  0  0  0  0  2  0  0  0  0  0  0
  -18.2300  -26.7250   22.2660 C   0  0  0  0  0  2  0  0  0  0  0  0
  -19.1410  -28.8500   23.3700 C   0  0  0  0  0  0  0  0  0  0  0  0
  -18.9050  -30.1090   23.9610 C   0  0  0  0  0  3  0  0  0  0  0  0
  -17.5940  -30.5990   24.1130 C   0  0  0  0  0  3  0  0  0  0  0  0
  -16.5010  -29.8240   23.6890 C   0  0  0  0  0  3  0  0  0  0  0  0
  -16.7200  -28.5610   23.1090 C   0  0  0  0  0  3  0  0  0  0  0  0
  -25.8770  -32.5380   23.8980 C   0  0  0  0  0  3  0  0  0  0  0  0
  -25.5670  -33.9390   24.2150 N   0  0  0  0  0  0  0  0  0  0  0  0
  -25.9130  -34.9850   23.4540 C   0  0  0  0  0  0  0  0  0  0  0  0
  -26.5870  -34.8670   22.4280 O   0  0  0  0  0  0  0  0  0  0  0  0
  -24.9710  -34.1070   25.0140 H   0  0  0  0  0  0  0  0  0  0  0  0
  -24.1960  -36.7830   23.0740 C   0  0  0  0  0  1  0  0  0  0  0  0
  -25.4310  -36.3810   23.8960 C   0  0  0  0  0  3  0  0  0  0  0  0
  -27.5660  -37.2490   24.7420 C   0  0  0  0  0  1  0  0  0  0  0  0
  -26.4740  -37.4270   23.7890 N   0  0  0  0  0  0  0  0  0  0  0  0
  -26.0750  -38.3520   23.9410 H   0  0  0  0  0  0  0  0  0  0  0  0
  -26.3760  -31.7830   25.1890 C   0  0  1  0  0  0  0  0  0  0  0  0
  -25.2740  -31.5620   26.2530 C   0  0  0  0  0  1  0  0  0  0  0  0
  -26.9510  -30.4020   24.8080 C   0  0  0  0  0  1  0  0  0  0  0  0
  -27.5280  -32.5800   25.8490 C   0  0  0  0  0  1  0  0  0  0  0  0
  1 46  1  0
  1  3  1  0
  3  2  1  0
  4  6  2  0
  5  4  1  0
  5  3  1  0
  7  5  1  0
  9  8  1  0
  9  4  1  0
 10  9  1  0
 11 16  1  0
 12 13  1  0
 12 11  1  0
 14 13  1  0
 14 21  1  0
 14 15  1  0
 16 10  1  0
 16 15  1  0
 17 10  2  0
 18 19  2  0
 19 38  1  0
 20 19  1  0
 20 23  1  0
 21 18  1  0
 21 22  1  0
 22 20  2  0
 23 24  1  0
 24 25  2  0
 26 29  1  0
 26 25  1  0
 27 26  2  0
 28 27  1  0
 28 23  2  0
 29 30  1  0
 30 31  1  0
 31 32  2  0
 33 32  1  0
 33 37  1  0
 34 33  2  0
 35 30  2  0
 35 34  1  0
 36 35  1  0
 38 39  1  0
 39 42  1  0
 39 41  1  0
 40 38  2  0
 43 44  1  0
 43 18  1  0
 45 43  1  0
 47 48  1  0
 47 46  2  0
 49 60  2  0
 50 48  1  0
 50 55  1  0
 51 59  1  0
 51 61  1  0
 52 58  1  0
 52 54  1  0
 53 59  1  0
 54 55  2  0
 54 53  1  0
 56 50  2  0
 57 56  1  0
 57 52  2  0
 58 51  1  0
 59 49  1  0
 61 63  2  0
 62 61  1  0
 64 62  1  0
 65 74  2  0
 65 70  1  0
 66 62  1  0
 66 70  1  0
 67 66  1  0
 68 69  1  0
 68 67  1  0
 69 65  1  0
 70 71  2  0
 71 72  1  0
 73 72  2  0
 74 73  1  0
 75 49  1  0
 75 76  1  0
 75 85  1  0
 76 79  1  0
 77 81  1  0
 77 76  1  0
 78 77  2  0
 81 80  1  0
 83 81  1  0
 83 84  1  0
 83 82  1  0
 85 88  1  1
 85 86  1  0
 87 85  1  0
M  ISO  4   9 100  10 100  47 101  48 101
M  END
>  <TORSDO>  (40) 
F 21

>  <SCORE>  (40) 
-13.469

>  <name>  (40) 
39

>  <ligand_id>  (40) 
39

>  <original_smiles>  (40) 
[H]c1c([H])c([H])c2c(c1[H])C([H])([H])C([H])([H])C([H])([H])C2([H])N([H])C(=O)C1([H])N(C(=O)C([H])(N([H])C(=O)C([H])(N([H])C([H])([H])[H])C([H])([H])[H])C(C([H])([H])[H])(C([H])([H])[H])C([H])([H])[H])C([H])([H])c2c([H])c(OC([H])([H])C([H])([H])C([H])([H])C([H])(N([H])C(=O)C([H])(C(=O)N3C([H])([H])C([H])([H])C([H])([H])C([H])(n4nc(-c5c([H])c([H])c(Oc6c([H])c([H])c(F)c([H])c6F)c([H])c5[H])c(C(=O)N([H])[H])c4N([H])[H])C3([H])[H])C([H])([H])[H])C([H])([H])[H])c([H])c([H])c2C1([H])[H]

>  <smiles>  (40) 
[H]c1c([H])c([H])c2c(c1[H])C([H])([H])C([H])([H])C([H])([H])C2([H])N([H])C(=O)C1([H])N(C(=O)C([H])(N([H])C(=O)C([H])(N([H])C([H])([H])[H])C([H])([H])[H])C(C([H])([H])[H])(C([H])([H])[H])C([H])([H])[H])C([H])([H])c2c([H])c(OC([H])([H])C([H])([H])C([H])([H])C([H])(N([H])C(=O)C([H])(C(=O)N3C([H])([H])C([H])([H])C([H])([H])C([H])(n4nc(-c5c([H])c([H])c(Oc6c([H])c([H])c(F)c([H])c6F)c([H])c5[H])c(C(=O)N([H])[H])c4N([H])[H])C3([H])[H])C([H])([H])[H])C([H])([H])[H])c([H])c([H])c2C1([H])[H]

$$$$
40:0:0
     RDKit          3D

 92 99  0  0  1  0  0  0  0  0999 V2000
  -29.0540  -21.1560   19.6190 C   0  0  0  0  0  3  0  0  0  0  0  0
  -30.0230  -19.8180   21.6010 C   0  0  0  0  0  1  0  0  0  0  0  0
  -29.6400  -19.6930   20.1760 N   0  0  1  0  0  4  0  0  0  0  0  0
  -30.5420  -19.7120   19.7220 H   0  0  0  0  0  0  0  0  0  0  0  0
  -29.2470  -18.1280   19.8030 C   0  0  0  0  0  3  0  0  0  0  0  0
  -29.9990  -16.6380   20.4470 C   0  0  0  0  0  2  0  0  0  0  0  0
  -30.4870  -15.0420   19.9500 C   0  0  0  0  0  0  0  0  0  0  0  0
  -30.4380  -12.5420   19.2700 C   0  0  0  0  0  2  0  0  0  0  0  0
  -29.5280  -12.2870   18.0430 C   0  0  0  0  0  2  0  0  0  0  0  0
  -28.0810  -12.0390   18.4940 C   0  0  0  0  0  2  0  0  0  0  0  0
  -27.6310  -13.0610   19.5660 C   0  0  0  0  0  3  0  0  0  0  0  0
  -28.6740  -13.2950   20.6830 C   0  0  0  0  0  2  0  0  0  0  0  0
  -29.9200  -13.7390   20.0390 N   0  0  0  0  0  0  0  0  0  0  0  0
  -31.6380  -14.9910   19.4950 O   0  0  0  0  0  0  0  0  0  0  0  0
  -25.2630  -13.6160   20.3290 C   0  0  0  0  0  0  0  0  0  0  0  0
  -24.2210  -12.8550   20.7680 C   0  0  0  0  0  0  0  0  0  0  0  0
  -24.6870  -11.5050   20.7420 C   0  0  0  0  0  0  0  0  0  0  0  0
  -26.3110  -12.7480   20.0980 N   0  0  0  0  0  0  0  0  0  0  0  0
  -25.9740  -11.4670   20.4050 N   0  0  0  0  0  0  0  0  0  0  0  0
  -23.9600  -10.2480   20.9520 C   0  0  0  0  0  0  0  0  0  0  0  0
  -24.4120   -9.2770   21.8720 C   0  0  0  0  0  3  0  0  0  0  0  0
  -23.6800   -8.0870   22.0710 C   0  0  0  0  0  3  0  0  0  0  0  0
  -22.4830   -7.8580   21.3500 C   0  0  0  0  0  0  0  0  0  0  0  0
  -22.0510   -8.8180   20.4180 C   0  0  0  0  0  3  0  0  0  0  0  0
  -22.7840   -9.9990   20.2160 C   0  0  0  0  0  3  0  0  0  0  0  0
  -21.7220   -6.7190   21.4620 O   0  0  0  0  0  0  0  0  0  0  0  0
  -21.7020   -5.9780   22.6170 C   0  0  0  0  0  0  0  0  0  0  0  0
  -21.3270   -6.5390   23.8570 C   0  0  0  0  0  3  0  0  0  0  0  0
  -21.2510   -5.7240   25.0040 C   0  0  0  0  0  3  0  0  0  0  0  0
  -21.5440   -4.3510   24.9130 C   0  0  0  0  0  0  0  0  0  0  0  0
  -21.9130   -3.7890   23.6780 C   0  0  0  0  0  3  0  0  0  0  0  0
  -21.9890   -4.6000   22.5320 C   0  0  0  0  0  0  0  0  0  0  0  0
  -22.3250   -4.0510   21.3390 F   0  0  0  0  0  0  0  0  0  0  0  0
  -21.4650   -3.5640   26.0120 F   0  0  0  0  0  0  0  0  0  0  0  0
  -22.8350  -13.3400   21.0730 C   0  0  0  0  0  0  0  0  0  0  0  0
  -22.1300  -12.6600   21.9680 N   0  0  0  0  0  0  0  0  0  0  0  0
  -22.3870  -14.3650   20.5570 O   0  0  0  0  0  0  0  0  0  0  0  0
  -22.5080  -11.8370   22.4150 H   0  0  0  0  0  0  0  0  0  0  0  0
  -21.1990  -12.9650   22.2170 H   0  0  0  0  0  0  0  0  0  0  0  0
  -25.3910  -14.9650   20.0530 N   0  0  0  0  0  0  0  0  0  0  0  0
  -24.6010  -15.5950   20.1340 H   0  0  0  0  0  0  0  0  0  0  0  0
  -26.1980  -15.3870   19.6180 H   0  0  0  0  0  0  0  0  0  0  0  0
  -27.6980  -18.1130   20.0490 C   0  0  0  0  0  2  0  0  0  0  0  0
  -26.7820  -16.0710   21.3880 C   0  0  0  0  0  1  0  0  0  0  0  0
  -25.3860  -17.2460   19.6800 C   0  0  0  0  0  1  0  0  0  0  0  0
  -26.8280  -16.8330   20.0410 C   0  0  0  0  0  3  0  0  0  0  0  0
  -29.0640  -20.4420   17.1050 C   0  0  0  0  0  1  0  0  0  0  0  0
  -26.8150  -20.6210   18.3450 C   0  0  0  0  0  1  0  0  0  0  0  0
  -28.2780  -21.0890   18.2690 C   0  0  0  0  0  3  0  0  0  0  0  0
  -28.7350  -22.6960   20.4650 C   0  0  0  0  0  2  0  0  0  0  0  0
  -28.0940  -24.2660   19.9040 C   0  0  0  0  0  2  0  0  0  0  0  0
  -28.1790  -25.8150   20.4250 O   0  0  0  0  0  0  0  0  0  0  0  0
  -24.6690  -31.8010   23.2880 C   0  0  0  0  0  0  0  0  0  0  0  0
  -27.1810  -26.9070   20.3010 C   0  0  0  0  0  0  0  0  0  0  0  0
  -23.4700  -30.4190   21.6380 C   0  0  0  0  0  3  0  0  0  0  0  0
  -24.9070  -28.7930   20.2320 C   0  0  0  0  0  0  0  0  0  0  0  0
  -26.0360  -30.6010   21.5160 C   0  0  0  0  0  2  0  0  0  0  0  0
  -26.0910  -29.1900   20.8660 C   0  0  0  0  0  0  0  0  0  0  0  0
  -27.2220  -28.2630   20.8810 C   0  0  0  0  0  3  0  0  0  0  0  0
  -25.9780  -26.6610   19.6030 C   0  0  0  0  0  3  0  0  0  0  0  0
  -24.8730  -27.5480   19.5820 C   0  0  0  0  0  3  0  0  0  0  0  0
  -23.7030  -29.7280   20.2660 C   0  0  0  0  0  2  0  0  0  0  0  0
  -24.7460  -30.9660   22.2020 N   0  0  0  0  0  0  0  0  0  0  0  0
  -23.5790  -32.1080   23.7990 O   0  0  0  0  0  0  0  0  0  0  0  0
  -22.7490  -29.4400   22.6000 C   0  0  0  0  0  0  0  0  0  0  0  0
  -21.4180  -29.2990   22.4610 N   0  0  0  0  0  0  0  0  0  0  0  0
  -23.3940  -28.8040   23.4380 O   0  0  0  0  0  0  0  0  0  0  0  0
  -20.9530  -29.8630   21.7630 H   0  0  0  0  0  0  0  0  0  0  0  0
  -18.0100  -28.1390   22.9250 C   0  0  0  0  0  0  0  0  0  0  0  0
  -20.5700  -28.3770   23.2240 C   0  0  0  0  0  3  0  0  0  0  0  0
  -20.6610  -26.9400   22.6610 C   0  0  0  0  0  2  0  0  0  0  0  0
  -19.5720  -26.6250   21.6310 C   0  0  0  0  0  2  0  0  0  0  0  0
  -18.1820  -26.7870   22.2550 C   0  0  0  0  0  2  0  0  0  0  0  0
  -19.1310  -28.8910   23.3650 C   0  0  0  0  0  0  0  0  0  0  0  0
  -18.9180  -30.1560   23.9550 C   0  0  0  0  0  3  0  0  0  0  0  0
  -17.6170  -30.6710   24.1080 C   0  0  0  0  0  3  0  0  0  0  0  0
  -16.5100  -29.9170   23.6820 C   0  0  0  0  0  3  0  0  0  0  0  0
  -16.7070  -28.6540   23.0960 C   0  0  0  0  0  3  0  0  0  0  0  0
  -25.9440  -32.4210   23.9340 C   0  0  0  0  0  3  0  0  0  0  0  0
  -25.6460  -33.8250   24.2690 N   0  0  0  0  0  0  0  0  0  0  0  0
  -25.9930  -34.8800   23.5210 C   0  0  0  0  0  0  0  0  0  0  0  0
  -26.6630  -34.7740   22.4900 O   0  0  0  0  0  0  0  0  0  0  0  0
  -25.0520  -33.9810   25.0700 H   0  0  0  0  0  0  0  0  0  0  0  0
  -24.2920  -36.7090   23.1910 C   0  0  0  0  0  1  0  0  0  0  0  0
  -25.5310  -36.2760   23.9900 C   0  0  0  0  0  3  0  0  0  0  0  0
  -27.6850  -37.1260   24.8100 C   0  0  0  0  0  1  0  0  0  0  0  0
  -26.5790  -37.3140   23.8750 N   0  0  0  0  0  0  0  0  0  0  0  0
  -26.1880  -38.2390   24.0340 H   0  0  0  0  0  0  0  0  0  0  0  0
  -26.4260  -31.6460   25.2240 C   0  0  1  0  0  0  0  0  0  0  0  0
  -25.3090  -31.4260   26.2720 C   0  0  0  0  0  1  0  0  0  0  0  0
  -26.9960  -30.2570   24.8540 C   0  0  0  0  0  1  0  0  0  0  0  0
  -27.5750  -32.4270   25.9040 C   0  0  0  0  0  1  0  0  0  0  0  0
  1  3  1  0
  1 50  1  0
  3  2  1  0
  3  4  1  6
  5 43  1  0
  5  3  1  0
  5  6  1  0
  7 13  1  0
  7  6  1  0
  8 13  1  0
  9 10  1  0
  9  8  1  0
 11 10  1  0
 11 18  1  0
 11 12  1  0
 13 12  1  0
 14  7  2  0
 15 16  2  0
 16 35  1  0
 17 16  1  0
 17 20  1  0
 18 15  1  0
 18 19  1  0
 19 17  2  0
 20 21  1  0
 21 22  2  0
 23 26  1  0
 23 22  1  0
 24 23  2  0
 25 24  1  0
 25 20  2  0
 26 27  1  0
 27 28  1  0
 28 29  2  0
 30 29  1  0
 30 34  1  0
 31 30  2  0
 32 27  2  0
 32 31  1  0
 33 32  1  0
 35 36  1  0
 36 39  1  0
 36 38  1  0
 37 35  2  0
 40 41  1  0
 40 15  1  0
 42 40  1  0
 45 46  1  0
 46 43  1  0
 46 44  1  0
 47 49  1  0
 49 48  1  0
 49  1  1  0
 51 52  1  0
 51 50  1  0
 53 64  2  0
 54 52  1  0
 54 59  1  0
 55 63  1  0
 55 65  1  0
 56 62  1  0
 56 58  1  0
 57 63  1  0
 58 59  2  0
 58 57  1  0
 60 54  2  0
 61 60  1  0
 61 56  2  0
 62 55  1  0
 63 53  1  0
 65 67  2  0
 66 65  1  0
 68 66  1  0
 69 78  2  0
 69 74  1  0
 70 66  1  0
 70 74  1  0
 71 70  1  0
 72 73  1  0
 72 71  1  0
 73 69  1  0
 74 75  2  0
 75 76  1  0
 77 76  2  0
 78 77  1  0
 79 53  1  0
 79 80  1  0
 79 89  1  0
 80 83  1  0
 81 85  1  0
 81 80  1  0
 82 81  2  0
 85 84  1  0
 87 85  1  0
 87 88  1  0
 87 86  1  0
 89 92  1  1
 89 90  1  0
 91 89  1  0
M  ISO  4   6 100   7 100  51 101  52 101
M  END
>  <TORSDO>  (41) 
F 24

>  <SCORE>  (41) 
-12.212

>  <name>  (41) 
40

>  <ligand_id>  (41) 
40

>  <original_smiles>  (41) 
[H]c1c([H])c([H])c2c(c1[H])C([H])([H])C([H])([H])C([H])([H])C2([H])N([H])C(=O)C1([H])N(C(=O)C([H])(N([H])C(=O)C([H])(N([H])C([H])([H])[H])C([H])([H])[H])C(C([H])([H])[H])(C([H])([H])[H])C([H])([H])[H])C([H])([H])c2c([H])c(OC([H])([H])C([H])([H])C([H])(C([H])(C([H])([H])[H])C([H])([H])[H])[N+]([H])(C([H])([H])[H])C([H])(C([H])([H])C(=O)N3C([H])([H])C([H])([H])C([H])([H])C([H])(n4nc(-c5c([H])c([H])c(Oc6c([H])c([H])c(F)c([H])c6F)c([H])c5[H])c(C(=O)N([H])[H])c4N([H])[H])C3([H])[H])C([H])([H])C([H])(C([H])([H])[H])C([H])([H])[H])c([H])c([H])c2C1([H])[H]

>  <smiles>  (41) 
[H]c1c([H])c([H])c2c(c1[H])C([H])([H])C([H])([H])C([H])([H])C2([H])N([H])C(=O)C1([H])N(C(=O)C([H])(N([H])C(=O)C([H])(N([H])C([H])([H])[H])C([H])([H])[H])C(C([H])([H])[H])(C([H])([H])[H])C([H])([H])[H])C([H])([H])c2c([H])c(OC([H])([H])C([H])([H])C([H])(C([H])(C([H])([H])[H])C([H])([H])[H])[N+]([H])(C([H])([H])[H])C([H])(C([H])([H])C(=O)N3C([H])([H])C([H])([H])C([H])([H])C([H])(n4nc(-c5c([H])c([H])c(Oc6c([H])c([H])c(F)c([H])c6F)c([H])c5[H])c(C(=O)N([H])[H])c4N([H])[H])C3([H])[H])C([H])([H])C([H])(C([H])([H])[H])C([H])([H])[H])c([H])c([H])c2C1([H])[H]

$$$$
41:0:0
     RDKit          3D

 95103  0  0  1  0  0  0  0  0999 V2000
  -28.3130  -21.9140   20.2730 C   0  0  0  0  0  3  0  0  0  0  0  0
  -29.3170  -20.7350   20.6490 N   0  0  2  0  0  4  0  0  0  0  0  0
  -30.1660  -20.9610   20.1540 H   0  0  0  0  0  0  0  0  0  0  0  0
  -29.0180  -19.2240   20.2520 C   0  0  0  0  0  3  0  0  0  0  0  0
  -30.0220  -17.9490   20.6630 C   0  0  0  0  0  3  0  0  0  0  0  0
  -29.7120  -16.3100   20.4390 C   0  0  0  0  0  2  0  0  0  0  0  0
  -30.6070  -14.9490   20.1670 C   0  0  0  0  0  0  0  0  0  0  0  0
  -30.4820  -12.6370   19.1670 C   0  0  0  0  0  2  0  0  0  0  0  0
  -29.5190  -12.7020   17.9620 C   0  0  0  0  0  2  0  0  0  0  0  0
  -28.0520  -12.5290   18.4070 C   0  0  0  0  0  2  0  0  0  0  0  0
  -27.6910  -13.3910   19.6490 C   0  0  0  0  0  3  0  0  0  0  0  0
  -28.7740  -13.2910   20.7430 C   0  0  0  0  0  2  0  0  0  0  0  0
  -30.0520  -13.6790   20.1380 N   0  0  0  0  0  0  0  0  0  0  0  0
  -31.7920  -15.0590   19.8160 O   0  0  0  0  0  0  0  0  0  0  0  0
  -25.3170  -13.9650   20.4260 C   0  0  0  0  0  0  0  0  0  0  0  0
  -24.2620  -13.1860   20.8150 C   0  0  0  0  0  0  0  0  0  0  0  0
  -24.7290  -11.8350   20.7750 C   0  0  0  0  0  0  0  0  0  0  0  0
  -26.3600  -13.0900   20.1660 N   0  0  0  0  0  0  0  0  0  0  0  0
  -26.0140  -11.8020   20.4370 N   0  0  0  0  0  0  0  0  0  0  0  0
  -24.0080  -10.5710   20.9740 C   0  0  0  0  0  0  0  0  0  0  0  0
  -24.4520   -9.6060   21.9060 C   0  0  0  0  0  3  0  0  0  0  0  0
  -23.7280   -8.4110   22.1000 C   0  0  0  0  0  3  0  0  0  0  0  0
  -22.5440   -8.1720   21.3580 C   0  0  0  0  0  0  0  0  0  0  0  0
  -22.1200   -9.1250   20.4140 C   0  0  0  0  0  3  0  0  0  0  0  0
  -22.8470  -10.3110   20.2220 C   0  0  0  0  0  3  0  0  0  0  0  0
  -21.7910   -7.0280   21.4570 O   0  0  0  0  0  0  0  0  0  0  0  0
  -21.7450   -6.2910   22.6150 C   0  0  0  0  0  0  0  0  0  0  0  0
  -21.3270   -6.8570   23.8390 C   0  0  0  0  0  3  0  0  0  0  0  0
  -21.2310   -6.0490   24.9920 C   0  0  0  0  0  3  0  0  0  0  0  0
  -21.5400   -4.6780   24.9190 C   0  0  0  0  0  0  0  0  0  0  0  0
  -21.9480   -4.1120   23.6990 C   0  0  0  0  0  3  0  0  0  0  0  0
  -22.0470   -4.9170   22.5500 C   0  0  0  0  0  0  0  0  0  0  0  0
  -22.4220   -4.3600   21.3720 F   0  0  0  0  0  0  0  0  0  0  0  0
  -21.4370   -3.9010   26.0240 F   0  0  0  0  0  0  0  0  0  0  0  0
  -22.8710  -13.6590   21.1240 C   0  0  0  0  0  0  0  0  0  0  0  0
  -22.1650  -12.9600   22.0040 N   0  0  0  0  0  0  0  0  0  0  0  0
  -22.4180  -14.6860   20.6190 O   0  0  0  0  0  0  0  0  0  0  0  0
  -22.5420  -12.1300   22.4390 H   0  0  0  0  0  0  0  0  0  0  0  0
  -21.2320  -13.2580   22.2480 H   0  0  0  0  0  0  0  0  0  0  0  0
  -25.4620  -15.3400   20.2530 N   0  0  0  0  0  0  0  0  0  0  0  0
  -24.6850  -15.9760   20.3970 H   0  0  0  0  0  0  0  0  0  0  0  0
  -26.3040  -15.8040   19.9350 H   0  0  0  0  0  0  0  0  0  0  0  0
  -29.6650  -20.7390   22.1140 C   0  0  0  0  0  3  0  0  0  0  0  0
  -30.5620  -22.0340   24.1910 C   0  0  0  0  0  1  0  0  0  0  0  0
  -30.0120  -22.1030   22.7580 C   0  0  0  0  0  3  0  0  0  0  0  0
  -27.4860  -21.5630   18.9940 C   0  0  0  0  0  2  0  0  0  0  0  0
  -23.9560  -23.9590   18.1110 C   0  0  0  0  0  3  0  0  0  0  0  0
  -23.9880  -23.1300   19.2500 C   0  0  0  0  0  3  0  0  0  0  0  0
  -25.0800  -24.0340   17.2650 C   0  0  0  0  0  3  0  0  0  0  0  0
  -25.1430  -22.3780   19.5380 C   0  0  0  0  0  3  0  0  0  0  0  0
  -26.2310  -23.2680   17.5470 C   0  0  0  0  0  3  0  0  0  0  0  0
  -26.2760  -22.4450   18.6950 C   0  0  0  0  0  0  0  0  0  0  0  0
  -28.8410  -23.5140   20.2300 C   0  0  0  0  0  3  0  0  0  0  0  0
  -27.8550  -24.8300   20.0940 C   0  0  0  0  0  3  0  0  0  0  0  0
  -28.2330  -26.3130   20.1840 O   0  0  0  0  0  0  0  0  0  0  0  0
  -24.6590  -31.9410   23.2090 C   0  0  0  0  0  0  0  0  0  0  0  0
  -27.1870  -27.2820   20.1180 C   0  0  0  0  0  0  0  0  0  0  0  0
  -23.4420  -30.5440   21.5880 C   0  0  0  0  0  3  0  0  0  0  0  0
  -24.8650  -28.9940   20.1320 C   0  0  0  0  0  0  0  0  0  0  0  0
  -25.9910  -30.8360   21.3740 C   0  0  0  0  0  2  0  0  0  0  0  0
  -26.0540  -29.4510   20.7150 C   0  0  0  0  0  0  0  0  0  0  0  0
  -27.2220  -28.6100   20.6900 C   0  0  0  0  0  3  0  0  0  0  0  0
  -25.9690  -26.9220   19.4950 C   0  0  0  0  0  3  0  0  0  0  0  0
  -24.8300  -27.7390   19.5140 C   0  0  0  0  0  3  0  0  0  0  0  0
  -23.6350  -29.8780   20.2040 C   0  0  0  0  0  2  0  0  0  0  0  0
  -24.7180  -31.1270   22.1110 N   0  0  0  0  0  0  0  0  0  0  0  0
  -23.5810  -32.2160   23.7550 O   0  0  0  0  0  0  0  0  0  0  0  0
  -22.7910  -29.5240   22.5560 C   0  0  0  0  0  0  0  0  0  0  0  0
  -21.4660  -29.3320   22.4440 N   0  0  0  0  0  0  0  0  0  0  0  0
  -23.4820  -28.9110   23.3700 O   0  0  0  0  0  0  0  0  0  0  0  0
  -20.9640  -29.8730   21.7550 H   0  0  0  0  0  0  0  0  0  0  0  0
  -18.1130  -28.0740   22.9640 C   0  0  0  0  0  0  0  0  0  0  0  0
  -20.6680  -28.3900   23.2300 C   0  0  0  0  0  3  0  0  0  0  0  0
  -20.7960  -26.9490   22.6830 C   0  0  0  0  0  2  0  0  0  0  0  0
  -19.7070  -26.5960   21.6670 C   0  0  0  0  0  2  0  0  0  0  0  0
  -18.3160  -26.7200   22.3020 C   0  0  0  0  0  2  0  0  0  0  0  0
  -19.2160  -28.8630   23.3840 C   0  0  0  0  0  0  0  0  0  0  0  0
  -18.9710  -30.1290   23.9660 C   0  0  0  0  0  3  0  0  0  0  0  0
  -17.6560  -30.6030   24.1240 C   0  0  0  0  0  3  0  0  0  0  0  0
  -16.5680  -29.8090   23.7230 C   0  0  0  0  0  3  0  0  0  0  0  0
  -16.7980  -28.5440   23.1510 C   0  0  0  0  0  3  0  0  0  0  0  0
  -25.9430  -32.5810   23.8160 C   0  0  0  0  0  3  0  0  0  0  0  0
  -26.4820  -31.8100   25.0830 C   0  0  1  0  0  0  0  0  0  0  0  0
  -25.4060  -31.5520   26.1650 C   0  0  0  0  0  1  0  0  0  0  0  0
  -27.0710  -30.4400   24.6760 C   0  0  0  0  0  1  0  0  0  0  0  0
  -27.6390  -32.6080   25.7270 C   0  0  0  0  0  1  0  0  0  0  0  0
  -25.6240  -33.9760   24.1670 N   0  0  0  0  0  0  0  0  0  0  0  0
  -25.9300  -35.0390   23.4130 C   0  0  0  0  0  0  0  0  0  0  0  0
  -26.5800  -34.9510   22.3670 O   0  0  0  0  0  0  0  0  0  0  0  0
  -25.0320  -34.1120   24.9730 H   0  0  0  0  0  0  0  0  0  0  0  0
  -24.1810  -36.8230   23.1050 C   0  0  0  0  0  1  0  0  0  0  0  0
  -25.4380  -36.4190   23.8910 C   0  0  0  0  0  3  0  0  0  0  0  0
  -27.5790  -37.3110   24.6930 C   0  0  0  0  0  1  0  0  0  0  0  0
  -26.4600  -37.4800   23.7710 N   0  0  0  0  0  0  0  0  0  0  0  0
  -26.0510  -38.3970   23.9300 H   0  0  0  0  0  0  0  0  0  0  0  0
  1 46  1  0
  1  2  1  0
  2 43  1  0
  2  3  1  6
  4  2  1  0
  4  5  2  0
  6  5  1  0
  7  6  1  0
  8 13  1  0
  9 10  1  0
  9  8  1  0
 11 10  1  0
 11 18  1  0
 11 12  1  0
 13  7  1  0
 13 12  1  0
 14  7  2  0
 15 16  2  0
 16 35  1  0
 17 16  1  0
 17 20  1  0
 18 15  1  0
 18 19  1  0
 19 17  2  0
 20 21  1  0
 21 22  2  0
 23 26  1  0
 23 22  1  0
 24 23  2  0
 25 24  1  0
 25 20  2  0
 26 27  1  0
 27 28  1  0
 28 29  2  0
 30 29  1  0
 30 34  1  0
 31 30  2  0
 32 27  2  0
 32 31  1  0
 33 32  1  0
 35 36  1  0
 36 39  1  0
 36 38  1  0
 37 35  2  0
 40 41  1  0
 40 15  1  0
 42 40  1  0
 43 45  2  0
 45 44  1  0
 47 48  1  0
 48 50  2  0
 49 51  1  0
 49 47  2  0
 51 52  2  0
 52 46  1  0
 52 50  1  0
 53  1  1  0
 54 55  1  0
 54 53  2  0
 56 67  2  0
 57 55  1  0
 57 62  1  0
 58 66  1  0
 58 68  1  0
 59 65  1  0
 59 61  1  0
 60 66  1  0
 61 60  1  0
 62 61  2  0
 63 64  1  0
 63 57  2  0
 64 59  2  0
 65 58  1  0
 66 56  1  0
 68 70  2  0
 69 68  1  0
 71 69  1  0
 72 81  2  0
 72 77  1  0
 73 69  1  0
 73 77  1  0
 74 73  1  0
 75 76  1  0
 75 74  1  0
 76 72  1  0
 77 78  2  0
 78 79  1  0
 80 79  2  0
 81 80  1  0
 82 56  1  0
 82 87  1  0
 82 83  1  0
 83 86  1  1
 83 84  1  0
 85 83  1  0
 87 90  1  0
 88 92  1  0
 88 87  1  0
 89 88  2  0
 92 91  1  0
 94 92  1  0
 94 95  1  0
 94 93  1  0
M  ISO  4   6 100   7 100  54 101  55 101
M  END
>  <TORSDO>  (42) 
F 26

>  <SCORE>  (42) 
-12.144

>  <name>  (42) 
41

>  <ligand_id>  (42) 
41

>  <original_smiles>  (42) 
[H]c1c([H])c([H])c(C([H])([H])C([H])(C([H])([H])C([H])([H])Oc2c([H])c([H])c3c(c2[H])C([H])([H])N(C(=O)C([H])(N([H])C(=O)C([H])(N([H])C([H])([H])[H])C([H])([H])[H])C(C([H])([H])[H])(C([H])([H])[H])C([H])([H])[H])C([H])(C(=O)N([H])C2([H])c4c([H])c([H])c([H])c([H])c4C([H])([H])C([H])([H])C2([H])[H])C3([H])[H])[N+]([H])(C([H])([H])C([H])([H])C([H])([H])[H])C([H])([H])C([H])([H])C([H])([H])C(=O)N2C([H])([H])C([H])([H])C([H])([H])C([H])(n3nc(-c4c([H])c([H])c(Oc5c([H])c([H])c(F)c([H])c5F)c([H])c4[H])c(C(=O)N([H])[H])c3N([H])[H])C2([H])[H])c([H])c1[H]

>  <smiles>  (42) 
[H]c1c([H])c([H])c(C([H])([H])C([H])(C([H])([H])C([H])([H])Oc2c([H])c([H])c3c(c2[H])C([H])([H])N(C(=O)C([H])(N([H])C(=O)C([H])(N([H])C([H])([H])[H])C([H])([H])[H])C(C([H])([H])[H])(C([H])([H])[H])C([H])([H])[H])C([H])(C(=O)N([H])C2([H])c4c([H])c([H])c([H])c([H])c4C([H])([H])C([H])([H])C2([H])[H])C3([H])[H])[N+]([H])(C([H])([H])C([H])([H])C([H])([H])[H])C([H])([H])C([H])([H])C([H])([H])C(=O)N2C([H])([H])C([H])([H])C([H])([H])C([H])(n3nc(-c4c([H])c([H])c(Oc5c([H])c([H])c(F)c([H])c5F)c([H])c4[H])c(C(=O)N([H])[H])c3N([H])[H])C2([H])[H])c([H])c1[H]

$$$$
42:0:0
     RDKit          3D

 91 99  0  0  1  0  0  0  0  0999 V2000
  -30.2860  -18.6780   21.5030 C   0  0  0  0  0  0  0  0  0  0  0  0
  -30.4640  -20.2130   21.2480 C   0  0  0  0  0  2  0  0  0  0  0  0
  -28.8810  -20.0310   19.3660 C   0  0  0  0  0  2  0  0  0  0  0  0
  -29.9340  -17.7490   20.2770 C   0  0  0  0  0  3  0  0  0  0  0  0
  -29.2260  -20.9650   20.6190 C   0  0  0  0  0  3  0  0  0  0  0  0
  -28.3040  -17.8310   18.3650 C   0  0  0  0  0  1  0  0  0  0  0  0
  -28.7650  -18.5030   19.6130 N   0  0  2  0  0  4  0  0  0  0  0  0
  -30.4120  -18.2640   22.6620 O   0  0  0  0  0  0  0  0  0  0  0  0
  -27.9880  -18.4160   20.2570 H   0  0  0  0  0  0  0  0  0  0  0  0
  -30.8620  -22.9480   20.6350 C   0  0  0  0  0  1  0  0  0  0  0  0
  -29.4770  -22.4950   20.4590 N   0  0  0  0  0  0  0  0  0  0  0  0
  -28.5440  -23.6470   20.0390 C   0  0  0  0  0  2  0  0  0  0  0  0
  -28.4370  -25.0530   20.8980 C   0  0  0  0  0  2  0  0  0  0  0  0
  -28.4530  -26.4610   20.3390 O   0  0  0  0  0  0  0  0  0  0  0  0
  -24.6390  -31.9790   23.2530 C   0  0  0  0  0  0  0  0  0  0  0  0
  -27.3160  -27.3080   20.3630 C   0  0  0  0  0  0  0  0  0  0  0  0
  -23.4710  -30.5440   21.6210 C   0  0  0  0  0  3  0  0  0  0  0  0
  -24.9520  -28.9460   20.2690 C   0  0  0  0  0  0  0  0  0  0  0  0
  -26.0140  -30.8500   21.4740 C   0  0  0  0  0  2  0  0  0  0  0  0
  -26.1110  -29.4480   20.8700 C   0  0  0  0  0  0  0  0  0  0  0  0
  -27.2980  -28.6470   20.8950 C   0  0  0  0  0  3  0  0  0  0  0  0
  -26.1300  -26.8600   19.7560 C   0  0  0  0  0  3  0  0  0  0  0  0
  -24.9650  -27.6600   19.7020 C   0  0  0  0  0  3  0  0  0  0  0  0
  -23.7150  -29.8290   20.2640 C   0  0  0  0  0  2  0  0  0  0  0  0
  -24.7290  -31.1420   22.1760 N   0  0  0  0  0  0  0  0  0  0  0  0
  -23.5500  -32.2650   23.7650 O   0  0  0  0  0  0  0  0  0  0  0  0
  -22.7860  -29.5500   22.5930 C   0  0  0  0  0  0  0  0  0  0  0  0
  -21.4590  -29.3840   22.4620 N   0  0  0  0  0  0  0  0  0  0  0  0
  -23.4520  -28.9340   23.4300 O   0  0  0  0  0  0  0  0  0  0  0  0
  -20.9860  -29.9380   21.7600 H   0  0  0  0  0  0  0  0  0  0  0  0
  -18.0650  -28.2370   22.9620 C   0  0  0  0  0  0  0  0  0  0  0  0
  -20.6250  -28.4610   23.2340 C   0  0  0  0  0  3  0  0  0  0  0  0
  -20.7070  -27.0240   22.6650 C   0  0  0  0  0  2  0  0  0  0  0  0
  -19.6000  -26.7120   21.6530 C   0  0  0  0  0  2  0  0  0  0  0  0
  -18.2200  -26.8800   22.2970 C   0  0  0  0  0  2  0  0  0  0  0  0
  -19.1940  -28.9850   23.3870 C   0  0  0  0  0  0  0  0  0  0  0  0
  -18.9950  -30.2540   23.9740 C   0  0  0  0  0  3  0  0  0  0  0  0
  -17.7000  -30.7720   24.1510 C   0  0  0  0  0  3  0  0  0  0  0  0
  -16.5830  -30.0220   23.7450 C   0  0  0  0  0  3  0  0  0  0  0  0
  -16.7660  -28.7610   23.1500 C   0  0  0  0  0  3  0  0  0  0  0  0
  -25.9080  -32.6340   23.8850 C   0  0  0  0  0  3  0  0  0  0  0  0
  -26.3970  -31.8970   25.1910 C   0  0  1  0  0  0  0  0  0  0  0  0
  -25.2800  -31.6680   26.2340 C   0  0  0  0  0  1  0  0  0  0  0  0
  -27.0060  -30.5210   24.8370 C   0  0  0  0  0  1  0  0  0  0  0  0
  -27.5160  -32.7220   25.8700 C   0  0  0  0  0  1  0  0  0  0  0  0
  -25.5830  -34.0370   24.1790 N   0  0  0  0  0  0  0  0  0  0  0  0
  -25.9320  -35.0800   23.4140 C   0  0  0  0  0  0  0  0  0  0  0  0
  -26.6250  -34.9660   22.3990 O   0  0  0  0  0  0  0  0  0  0  0  0
  -24.9740  -34.2030   24.9660 H   0  0  0  0  0  0  0  0  0  0  0  0
  -24.2230  -36.8770   22.9710 C   0  0  0  0  0  1  0  0  0  0  0  0
  -25.4280  -36.4740   23.8380 C   0  0  0  0  0  3  0  0  0  0  0  0
  -27.5290  -37.3690   24.7410 C   0  0  0  0  0  1  0  0  0  0  0  0
  -26.4630  -37.5270   23.7540 N   0  0  0  0  0  0  0  0  0  0  0  0
  -26.0510  -38.4480   23.8760 H   0  0  0  0  0  0  0  0  0  0  0  0
  -29.6880  -16.1590   20.7080 C   0  0  0  0  0  2  0  0  0  0  0  0
  -30.5510  -14.8750   20.2110 C   0  0  0  0  0  0  0  0  0  0  0  0
  -30.4020  -12.6130   19.1000 C   0  0  0  0  0  2  0  0  0  0  0  0
  -29.3950  -12.6770   17.9270 C   0  0  0  0  0  2  0  0  0  0  0  0
  -27.9510  -12.4760   18.4300 C   0  0  0  0  0  2  0  0  0  0  0  0
  -27.6230  -13.3430   19.6730 C   0  0  0  0  0  3  0  0  0  0  0  0
  -28.7260  -13.2120   20.7410 C   0  0  0  0  0  2  0  0  0  0  0  0
  -29.9920  -13.6140   20.1200 N   0  0  0  0  0  0  0  0  0  0  0  0
  -31.7090  -15.0330   19.8080 O   0  0  0  0  0  0  0  0  0  0  0  0
  -25.2720  -13.9120   20.5270 C   0  0  0  0  0  0  0  0  0  0  0  0
  -24.2210  -13.1250   20.9060 C   0  0  0  0  0  0  0  0  0  0  0  0
  -24.6870  -11.7760   20.8210 C   0  0  0  0  0  0  0  0  0  0  0  0
  -26.3040  -13.0410   20.2150 N   0  0  0  0  0  0  0  0  0  0  0  0
  -25.9630  -11.7500   20.4600 N   0  0  0  0  0  0  0  0  0  0  0  0
  -23.9740  -10.5070   21.0050 C   0  0  0  0  0  0  0  0  0  0  0  0
  -24.4250   -9.5360   21.9260 C   0  0  0  0  0  3  0  0  0  0  0  0
  -23.7150   -8.3300   22.0960 C   0  0  0  0  0  3  0  0  0  0  0  0
  -22.5370   -8.0870   21.3490 C   0  0  0  0  0  0  0  0  0  0  0  0
  -22.1060   -9.0480   20.4160 C   0  0  0  0  0  3  0  0  0  0  0  0
  -22.8190  -10.2470   20.2440 C   0  0  0  0  0  3  0  0  0  0  0  0
  -21.7960   -6.9330   21.4320 O   0  0  0  0  0  0  0  0  0  0  0  0
  -21.7390   -6.1990   22.5890 C   0  0  0  0  0  0  0  0  0  0  0  0
  -21.2540   -6.7430   23.7970 C   0  0  0  0  0  3  0  0  0  0  0  0
  -21.1480   -5.9300   24.9440 C   0  0  0  0  0  3  0  0  0  0  0  0
  -21.5180   -4.5730   24.8810 C   0  0  0  0  0  0  0  0  0  0  0  0
  -21.9950   -4.0270   23.6760 C   0  0  0  0  0  3  0  0  0  0  0  0
  -22.1020   -4.8370   22.5330 C   0  0  0  0  0  0  0  0  0  0  0  0
  -22.5420   -4.3020   21.3680 F   0  0  0  0  0  0  0  0  0  0  0  0
  -21.4080   -3.7890   25.9780 F   0  0  0  0  0  0  0  0  0  0  0  0
  -22.8330  -13.5890   21.2400 C   0  0  0  0  0  0  0  0  0  0  0  0
  -22.1380  -12.8550   22.1030 N   0  0  0  0  0  0  0  0  0  0  0  0
  -22.3760  -14.6320   20.7730 O   0  0  0  0  0  0  0  0  0  0  0  0
  -22.5240  -12.0100   22.4960 H   0  0  0  0  0  0  0  0  0  0  0  0
  -21.2080  -13.1360   22.3710 H   0  0  0  0  0  0  0  0  0  0  0  0
  -25.4310  -15.2880   20.4030 N   0  0  0  0  0  0  0  0  0  0  0  0
  -24.6900  -15.9350   20.6430 H   0  0  0  0  0  0  0  0  0  0  0  0
  -26.2800  -15.7420   20.1030 H   0  0  0  0  0  0  0  0  0  0  0  0
  1  8  2  0
  2  1  1  0
  3  7  1  0
  3  5  1  0
  4 55  1  0
  4  1  1  0
  5 11  1  0
  5  2  1  0
  6  7  1  0
  7  9  1  1
  7  4  1  0
 11 10  1  0
 12 11  1  0
 12 13  1  0
 14 16  1  0
 14 13  1  0
 15 26  2  0
 16 21  1  0
 17 25  1  0
 17 27  1  0
 18 20  1  0
 19 25  1  0
 20 21  2  0
 20 19  1  0
 22 16  2  0
 23 22  1  0
 23 18  2  0
 24 18  1  0
 24 17  1  0
 25 15  1  0
 27 29  2  0
 28 27  1  0
 30 28  1  0
 31 40  2  0
 31 36  1  0
 32 28  1  0
 32 36  1  0
 33 32  1  0
 34 35  1  0
 34 33  1  0
 35 31  1  0
 36 37  2  0
 37 38  1  0
 39 38  2  0
 40 39  1  0
 41 15  1  0
 41 46  1  0
 41 42  1  0
 42 45  1  1
 42 43  1  0
 44 42  1  0
 46 49  1  0
 47 51  1  0
 47 46  1  0
 48 47  2  0
 51 50  1  0
 53 51  1  0
 53 54  1  0
 53 52  1  0
 56 55  1  0
 57 62  1  0
 58 59  1  0
 58 57  1  0
 60 59  1  0
 60 67  1  0
 60 61  1  0
 62 56  1  0
 62 61  1  0
 63 56  2  0
 64 65  2  0
 65 84  1  0
 66 65  1  0
 66 69  1  0
 67 68  1  0
 67 64  1  0
 68 66  2  0
 69 70  1  0
 70 71  2  0
 72 75  1  0
 72 71  1  0
 73 72  2  0
 74 73  1  0
 74 69  2  0
 75 76  1  0
 76 77  1  0
 77 78  2  0
 79 78  1  0
 79 83  1  0
 80 79  2  0
 81 76  2  0
 81 80  1  0
 82 81  1  0
 84 85  1  0
 85 88  1  0
 85 87  1  0
 86 84  2  0
 89 64  1  0
 89 90  1  0
 91 89  1  0
M  ISO  4  13 101  14 101  55 100  56 100
M  END
>  <TORSDO>  (43) 
F 20

>  <SCORE>  (43) 
-13.686

>  <name>  (43) 
42

>  <ligand_id>  (43) 
42

>  <original_smiles>  (43) 
[H]c1c([H])c([H])c2c(c1[H])C([H])([H])C([H])([H])C([H])([H])C2([H])N([H])C(=O)C1([H])N(C(=O)C([H])(N([H])C(=O)C([H])(N([H])C([H])([H])[H])C([H])([H])[H])C(C([H])([H])[H])(C([H])([H])[H])C([H])([H])[H])C([H])([H])c2c([H])c(OC([H])([H])C([H])([H])N(C([H])([H])[H])C3([H])C([H])([H])C(=O)C([H])(C([H])([H])C(=O)N4C([H])([H])C([H])([H])C([H])([H])C([H])(n5nc(-c6c([H])c([H])c(Oc7c([H])c([H])c(F)c([H])c7F)c([H])c6[H])c(C(=O)N([H])[H])c5N([H])[H])C4([H])[H])[N+]([H])(C([H])([H])[H])C3([H])[H])c([H])c([H])c2C1([H])[H]

>  <smiles>  (43) 
[H]c1c([H])c([H])c2c(c1[H])C([H])([H])C([H])([H])C([H])([H])C2([H])N([H])C(=O)C1([H])N(C(=O)C([H])(N([H])C(=O)C([H])(N([H])C([H])([H])[H])C([H])([H])[H])C(C([H])([H])[H])(C([H])([H])[H])C([H])([H])[H])C([H])([H])c2c([H])c(OC([H])([H])C([H])([H])N(C([H])([H])[H])C3([H])C([H])([H])C(=O)C([H])(C([H])([H])C(=O)N4C([H])([H])C([H])([H])C([H])([H])C([H])(n5nc(-c6c([H])c([H])c(Oc7c([H])c([H])c(F)c([H])c7F)c([H])c6[H])c(C(=O)N([H])[H])c5N([H])[H])C4([H])[H])[N+]([H])(C([H])([H])[H])C3([H])[H])c([H])c([H])c2C1([H])[H]

$$$$
43:0:0
     RDKit          3D

 86 93  0  0  1  0  0  0  0  0999 V2000
  -28.6820  -22.7900   19.8000 C   0  0  0  0  0  2  0  0  0  0  0  0
  -29.2620  -21.2280   20.4610 C   0  0  0  0  0  2  0  0  0  0  0  0
  -29.9440  -18.4140   20.1230 C   0  0  0  0  0  0  0  0  0  0  0  0
  -27.7160  -19.3650   19.6340 C   0  0  0  0  0  1  0  0  0  0  0  0
  -29.1010  -19.6320   20.0090 N   0  0  0  0  0  0  0  0  0  0  0  0
  -31.1450  -18.6110   20.3210 O   0  0  0  0  0  0  0  0  0  0  0  0
  -28.7990  -16.5710   21.5580 C   0  0  0  0  0  1  0  0  0  0  0  0
  -29.4640  -16.7360   20.1700 C   0  0  0  0  0  3  0  0  0  0  0  0
  -30.3880  -15.2660   19.8790 C   0  0  0  0  0  0  0  0  0  0  0  0
  -30.3810  -12.8320   18.9590 C   0  0  0  0  0  2  0  0  0  0  0  0
  -29.3780  -12.6580   17.7860 C   0  0  0  0  0  2  0  0  0  0  0  0
  -27.9560  -12.3760   18.3020 C   0  0  0  0  0  2  0  0  0  0  0  0
  -27.5730  -13.3140   19.4720 C   0  0  0  0  0  3  0  0  0  0  0  0
  -28.6900  -13.3890   20.5310 C   0  0  0  0  0  2  0  0  0  0  0  0
  -29.8890  -13.9300   19.8660 N   0  0  0  0  0  0  0  0  0  0  0  0
  -31.5770  -15.3170   19.5270 O   0  0  0  0  0  0  0  0  0  0  0  0
  -25.2470  -13.8570   20.3740 C   0  0  0  0  0  0  0  0  0  0  0  0
  -24.2110  -13.0720   20.7990 C   0  0  0  0  0  0  0  0  0  0  0  0
  -24.6810  -11.7240   20.7230 C   0  0  0  0  0  0  0  0  0  0  0  0
  -26.2760  -12.9900   20.0550 N   0  0  0  0  0  0  0  0  0  0  0  0
  -25.9510  -11.7000   20.3310 N   0  0  0  0  0  0  0  0  0  0  0  0
  -23.9710  -10.4560   20.9390 C   0  0  0  0  0  0  0  0  0  0  0  0
  -24.4300   -9.4990   21.8700 C   0  0  0  0  0  3  0  0  0  0  0  0
  -23.7180   -8.2980   22.0740 C   0  0  0  0  0  3  0  0  0  0  0  0
  -22.5320   -8.0440   21.3450 C   0  0  0  0  0  0  0  0  0  0  0  0
  -22.0890   -8.9900   20.4020 C   0  0  0  0  0  3  0  0  0  0  0  0
  -22.8030  -10.1820   20.1970 C   0  0  0  0  0  3  0  0  0  0  0  0
  -21.7880   -6.8940   21.4590 O   0  0  0  0  0  0  0  0  0  0  0  0
  -21.7280   -6.1880   22.6330 C   0  0  0  0  0  0  0  0  0  0  0  0
  -21.2800   -6.7790   23.8340 C   0  0  0  0  0  3  0  0  0  0  0  0
  -21.1680   -5.9990   25.0030 C   0  0  0  0  0  3  0  0  0  0  0  0
  -21.4950   -4.6300   24.9710 C   0  0  0  0  0  0  0  0  0  0  0  0
  -21.9370   -4.0400   23.7730 C   0  0  0  0  0  3  0  0  0  0  0  0
  -22.0500   -4.8170   22.6090 C   0  0  0  0  0  0  0  0  0  0  0  0
  -22.4560   -4.2370   21.4520 F   0  0  0  0  0  0  0  0  0  0  0  0
  -21.3800   -3.8790   26.0910 F   0  0  0  0  0  0  0  0  0  0  0  0
  -22.8310  -13.5400   21.1580 C   0  0  0  0  0  0  0  0  0  0  0  0
  -22.1620  -12.8370   22.0650 N   0  0  0  0  0  0  0  0  0  0  0  0
  -22.3560  -14.5620   20.6670 O   0  0  0  0  0  0  0  0  0  0  0  0
  -22.5600  -12.0090   22.4820 H   0  0  0  0  0  0  0  0  0  0  0  0
  -21.2370  -13.1310   22.3460 H   0  0  0  0  0  0  0  0  0  0  0  0
  -25.3890  -15.2310   20.2010 N   0  0  0  0  0  0  0  0  0  0  0  0
  -24.6160  -15.8710   20.3510 H   0  0  0  0  0  0  0  0  0  0  0  0
  -26.1970  -15.6750   19.7860 H   0  0  0  0  0  0  0  0  0  0  0  0
  -28.2250  -24.3520   20.5560 C   0  0  0  0  0  2  0  0  0  0  0  0
  -28.3530  -25.9490   20.2240 O   0  0  0  0  0  0  0  0  0  0  0  0
  -24.6540  -31.8450   23.1670 C   0  0  0  0  0  0  0  0  0  0  0  0
  -27.2980  -26.9910   20.2320 C   0  0  0  0  0  0  0  0  0  0  0  0
  -23.4960  -30.4310   21.5190 C   0  0  0  0  0  3  0  0  0  0  0  0
  -24.9770  -28.8240   20.1410 C   0  0  0  0  0  0  0  0  0  0  0  0
  -26.0600  -30.6670   21.4080 C   0  0  0  0  0  2  0  0  0  0  0  0
  -26.1520  -29.2540   20.7680 C   0  0  0  0  0  0  0  0  0  0  0  0
  -27.3120  -28.3610   20.7830 C   0  0  0  0  0  3  0  0  0  0  0  0
  -26.0870  -26.6940   19.5700 C   0  0  0  0  0  3  0  0  0  0  0  0
  -24.9660  -27.5610   19.5240 C   0  0  0  0  0  3  0  0  0  0  0  0
  -23.7520  -29.7360   20.1550 C   0  0  0  0  0  2  0  0  0  0  0  0
  -24.7570  -31.0070   22.0870 N   0  0  0  0  0  0  0  0  0  0  0  0
  -23.5540  -32.1310   23.6680 O   0  0  0  0  0  0  0  0  0  0  0  0
  -22.7920  -29.4380   22.4800 C   0  0  0  0  0  0  0  0  0  0  0  0
  -21.4630  -29.2800   22.3450 N   0  0  0  0  0  0  0  0  0  0  0  0
  -23.4490  -28.8070   23.3120 O   0  0  0  0  0  0  0  0  0  0  0  0
  -20.9870  -29.8390   21.6510 H   0  0  0  0  0  0  0  0  0  0  0  0
  -18.0670  -28.0980   22.8330 C   0  0  0  0  0  0  0  0  0  0  0  0
  -20.6280  -28.3440   23.1080 C   0  0  0  0  0  3  0  0  0  0  0  0
  -20.7220  -26.9150   22.5270 C   0  0  0  0  0  2  0  0  0  0  0  0
  -19.6220  -26.6040   21.5060 C   0  0  0  0  0  2  0  0  0  0  0  0
  -18.2390  -26.7520   22.1470 C   0  0  0  0  0  2  0  0  0  0  0  0
  -19.1900  -28.8520   23.2690 C   0  0  0  0  0  0  0  0  0  0  0  0
  -18.9760  -30.1090   23.8730 C   0  0  0  0  0  3  0  0  0  0  0  0
  -17.6730  -30.6140   24.0430 C   0  0  0  0  0  3  0  0  0  0  0  0
  -16.5660  -29.8580   23.6220 C   0  0  0  0  0  3  0  0  0  0  0  0
  -16.7630  -28.6010   23.0230 C   0  0  0  0  0  3  0  0  0  0  0  0
  -25.9100  -32.4980   23.8200 C   0  0  0  0  0  3  0  0  0  0  0  0
  -26.3990  -31.7400   25.1170 C   0  0  1  0  0  0  0  0  0  0  0  0
  -25.2820  -31.5060   26.1610 C   0  0  0  0  0  1  0  0  0  0  0  0
  -26.9980  -30.3610   24.7550 C   0  0  0  0  0  1  0  0  0  0  0  0
  -27.5300  -32.5460   25.7990 C   0  0  0  0  0  1  0  0  0  0  0  0
  -25.5780  -33.8960   24.1450 N   0  0  0  0  0  0  0  0  0  0  0  0
  -25.9070  -34.9580   23.3990 C   0  0  0  0  0  0  0  0  0  0  0  0
  -26.5880  -34.8650   22.3740 O   0  0  0  0  0  0  0  0  0  0  0  0
  -24.9760  -34.0420   24.9420 H   0  0  0  0  0  0  0  0  0  0  0  0
  -24.1630  -36.7400   23.0460 C   0  0  0  0  0  1  0  0  0  0  0  0
  -25.4050  -36.3420   23.8590 C   0  0  0  0  0  3  0  0  0  0  0  0
  -27.5310  -37.2460   24.6930 C   0  0  0  0  0  1  0  0  0  0  0  0
  -26.4250  -37.4090   23.7530 N   0  0  0  0  0  0  0  0  0  0  0  0
  -26.0080  -38.3220   23.9110 H   0  0  0  0  0  0  0  0  0  0  0  0
  1  2  1  0
  1 45  1  0
  3  8  1  0
  3  6  2  0
  4  5  1  0
  5  3  1  0
  5  2  1  0
  8  7  1  0
  9  8  1  0
 10 15  1  0
 11 12  1  0
 11 10  1  0
 13 12  1  0
 13 20  1  0
 13 14  1  0
 15  9  1  0
 15 14  1  0
 16  9  2  0
 17 18  2  0
 18 37  1  0
 19 18  1  0
 19 22  1  0
 20 21  1  0
 20 17  1  0
 21 19  2  0
 22 23  1  0
 23 24  2  0
 25 28  1  0
 25 24  1  0
 26 25  2  0
 27 26  1  0
 27 22  2  0
 28 29  1  0
 29 30  1  0
 30 31  2  0
 32 31  1  0
 32 36  1  0
 33 32  2  0
 34 29  2  0
 34 33  1  0
 35 34  1  0
 37 38  1  0
 38 41  1  0
 38 40  1  0
 39 37  2  0
 42 43  1  0
 42 17  1  0
 44 42  1  0
 46 48  1  0
 46 45  1  0
 47 58  2  0
 48 53  1  0
 49 57  1  0
 49 59  1  0
 50 56  1  0
 50 52  1  0
 51 57  1  0
 52 53  2  0
 52 51  1  0
 54 48  2  0
 55 54  1  0
 55 50  2  0
 56 49  1  0
 57 47  1  0
 59 61  2  0
 60 59  1  0
 62 60  1  0
 63 72  2  0
 63 68  1  0
 64 60  1  0
 64 68  1  0
 65 64  1  0
 66 67  1  0
 66 65  1  0
 67 63  1  0
 68 69  2  0
 69 70  1  0
 71 70  2  0
 72 71  1  0
 73 47  1  0
 73 78  1  0
 73 74  1  0
 74 77  1  1
 74 75  1  0
 76 74  1  0
 78 81  1  0
 79 83  1  0
 79 78  1  0
 80 79  2  0
 83 82  1  0
 85 83  1  0
 85 86  1  0
 85 84  1  0
M  ISO  4   8 100   9 100  45 101  46 101
M  END
>  <TORSDO>  (44) 
F 20

>  <SCORE>  (44) 
-14.964

>  <name>  (44) 
43

>  <ligand_id>  (44) 
43

>  <original_smiles>  (44) 
[H]c1c([H])c([H])c2c(c1[H])C([H])([H])C([H])([H])C([H])([H])C2([H])N([H])C(=O)C1([H])N(C(=O)C([H])(N([H])C(=O)C([H])(N([H])C([H])([H])[H])C([H])([H])[H])C(C([H])([H])[H])(C([H])([H])[H])C([H])([H])[H])C([H])([H])c2c([H])c(OC([H])([H])C([H])([H])C([H])([H])N(C(=O)C([H])(C(=O)N3C([H])([H])C([H])([H])C([H])([H])C([H])(n4nc(-c5c([H])c([H])c(Oc6c([H])c([H])c(F)c([H])c6F)c([H])c5[H])c(C(=O)N([H])[H])c4N([H])[H])C3([H])[H])C([H])([H])[H])C([H])([H])[H])c([H])c([H])c2C1([H])[H]

>  <smiles>  (44) 
[H]c1c([H])c([H])c2c(c1[H])C([H])([H])C([H])([H])C([H])([H])C2([H])N([H])C(=O)C1([H])N(C(=O)C([H])(N([H])C(=O)C([H])(N([H])C([H])([H])[H])C([H])([H])[H])C(C([H])([H])[H])(C([H])([H])[H])C([H])([H])[H])C([H])([H])c2c([H])c(OC([H])([H])C([H])([H])C([H])([H])N(C(=O)C([H])(C(=O)N3C([H])([H])C([H])([H])C([H])([H])C([H])(n4nc(-c5c([H])c([H])c(Oc6c([H])c([H])c(F)c([H])c6F)c([H])c5[H])c(C(=O)N([H])[H])c4N([H])[H])C3([H])[H])C([H])([H])[H])C([H])([H])[H])c([H])c([H])c2C1([H])[H]

$$$$
44:0:0
     RDKit          3D

 84 91  0  0  1  0  0  0  0  0999 V2000
  -28.9630  -22.2410   20.2970 C   0  0  0  0  0  3  0  0  0  0  0  0
  -28.7320  -20.3300   20.2530 C   0  0  0  0  0  2  0  0  0  0  0  0
  -30.7870  -18.9710   21.4170 C   0  0  0  0  0  1  0  0  0  0  0  0
  -29.7920  -18.7280   20.2760 C   0  0  0  0  0  0  0  0  0  0  0  0
  -30.3110  -15.6260   20.1850 C   0  0  0  0  0  0  0  0  0  0  0  0
  -30.3880  -13.1080   19.3380 C   0  0  0  0  0  2  0  0  0  0  0  0
  -29.4810  -12.7380   18.1310 C   0  0  0  0  0  2  0  0  0  0  0  0
  -28.0600  -12.3890   18.5980 C   0  0  0  0  0  2  0  0  0  0  0  0
  -27.5650  -13.3740   19.6830 C   0  0  0  0  0  3  0  0  0  0  0  0
  -28.6090  -13.6620   20.7850 C   0  0  0  0  0  2  0  0  0  0  0  0
  -29.7790  -14.2730   20.1170 N   0  0  0  0  0  0  0  0  0  0  0  0
  -31.5410  -15.5740   20.0010 O   0  0  0  0  0  0  0  0  0  0  0  0
  -29.5580  -16.9780   20.2680 N   0  0  0  0  0  4  0  0  0  0  0  0
  -28.5700  -16.7720   20.3430 H   0  0  0  0  0  0  0  0  0  0  0  0
  -25.2030  -13.8800   20.4720 C   0  0  0  0  0  0  0  0  0  0  0  0
  -24.1580  -13.0850   20.8480 C   0  0  0  0  0  0  0  0  0  0  0  0
  -24.6470  -11.7430   20.8110 C   0  0  0  0  0  0  0  0  0  0  0  0
  -26.2560  -13.0220   20.2160 N   0  0  0  0  0  0  0  0  0  0  0  0
  -25.9370  -11.7300   20.4870 N   0  0  0  0  0  0  0  0  0  0  0  0
  -23.9370  -10.4700   21.0030 C   0  0  0  0  0  0  0  0  0  0  0  0
  -24.3790   -9.5100   21.9410 C   0  0  0  0  0  3  0  0  0  0  0  0
  -23.6650   -8.3060   22.1240 C   0  0  0  0  0  3  0  0  0  0  0  0
  -22.4950   -8.0520   21.3690 C   0  0  0  0  0  0  0  0  0  0  0  0
  -22.0730   -9.0010   20.4210 C   0  0  0  0  0  3  0  0  0  0  0  0
  -22.7870  -10.1960   20.2360 C   0  0  0  0  0  3  0  0  0  0  0  0
  -21.7520   -6.9010   21.4620 O   0  0  0  0  0  0  0  0  0  0  0  0
  -21.7000   -6.1680   22.6210 C   0  0  0  0  0  0  0  0  0  0  0  0
  -21.2460   -6.7270   23.8350 C   0  0  0  0  0  3  0  0  0  0  0  0
  -21.1420   -5.9200   24.9860 C   0  0  0  0  0  3  0  0  0  0  0  0
  -21.4830   -4.5570   24.9230 C   0  0  0  0  0  0  0  0  0  0  0  0
  -21.9310   -3.9970   23.7140 C   0  0  0  0  0  3  0  0  0  0  0  0
  -22.0360   -4.8010   22.5650 C   0  0  0  0  0  0  0  0  0  0  0  0
  -22.4470   -4.2510   21.3970 F   0  0  0  0  0  0  0  0  0  0  0  0
  -21.3770   -3.7800   26.0280 F   0  0  0  0  0  0  0  0  0  0  0  0
  -22.7570  -13.5430   21.1230 C   0  0  0  0  0  0  0  0  0  0  0  0
  -22.0450  -12.8450   22.0000 N   0  0  0  0  0  0  0  0  0  0  0  0
  -22.3010  -14.5570   20.5960 O   0  0  0  0  0  0  0  0  0  0  0  0
  -22.4280  -12.0240   22.4480 H   0  0  0  0  0  0  0  0  0  0  0  0
  -21.1040  -13.1330   22.2280 H   0  0  0  0  0  0  0  0  0  0  0  0
  -25.3410  -15.2530   20.2930 N   0  0  0  0  0  0  0  0  0  0  0  0
  -24.5600  -15.8910   20.4070 H   0  0  0  0  0  0  0  0  0  0  0  0
  -26.1690  -15.7030   19.9260 H   0  0  0  0  0  0  0  0  0  0  0  0
  -27.9640  -23.8850   20.2090 C   0  0  0  0  0  3  0  0  0  0  0  0
  -28.1630  -25.6150   20.3100 O   0  0  0  0  0  0  0  0  0  0  0  0
  -24.6740  -31.8780   23.2110 C   0  0  0  0  0  0  0  0  0  0  0  0
  -27.1850  -26.8070   20.2510 C   0  0  0  0  0  0  0  0  0  0  0  0
  -23.4790  -30.4780   21.5820 C   0  0  0  0  0  3  0  0  0  0  0  0
  -24.9200  -28.8210   20.1790 C   0  0  0  0  0  0  0  0  0  0  0  0
  -26.0570  -30.6190   21.4560 C   0  0  0  0  0  2  0  0  0  0  0  0
  -26.1150  -29.1860   20.8090 C   0  0  0  0  0  0  0  0  0  0  0  0
  -27.2350  -28.2060   20.8110 C   0  0  0  0  0  3  0  0  0  0  0  0
  -25.9550  -26.6400   19.5680 C   0  0  0  0  0  3  0  0  0  0  0  0
  -24.8750  -27.5720   19.5350 C   0  0  0  0  0  3  0  0  0  0  0  0
  -23.7160  -29.7730   20.2150 C   0  0  0  0  0  2  0  0  0  0  0  0
  -24.7610  -31.0240   22.1350 N   0  0  0  0  0  0  0  0  0  0  0  0
  -23.5830  -32.1840   23.7210 O   0  0  0  0  0  0  0  0  0  0  0  0
  -22.7610  -29.5060   22.5560 C   0  0  0  0  0  0  0  0  0  0  0  0
  -21.4270  -29.3610   22.4340 N   0  0  0  0  0  0  0  0  0  0  0  0
  -23.4140  -28.8810   23.3950 O   0  0  0  0  0  0  0  0  0  0  0  0
  -20.9510  -29.9160   21.7370 H   0  0  0  0  0  0  0  0  0  0  0  0
  -18.0320  -28.1790   22.9550 C   0  0  0  0  0  0  0  0  0  0  0  0
  -20.5940  -28.4350   23.2120 C   0  0  0  0  0  3  0  0  0  0  0  0
  -20.6850  -26.9980   22.6460 C   0  0  0  0  0  2  0  0  0  0  0  0
  -19.5810  -26.6760   21.6340 C   0  0  0  0  0  2  0  0  0  0  0  0
  -18.2010  -26.8280   22.2800 C   0  0  0  0  0  2  0  0  0  0  0  0
  -19.1540  -28.9400   23.3780 C   0  0  0  0  0  0  0  0  0  0  0  0
  -18.9390  -30.2020   23.9750 C   0  0  0  0  0  3  0  0  0  0  0  0
  -17.6350  -30.7020   24.1490 C   0  0  0  0  0  3  0  0  0  0  0  0
  -16.5270  -29.9390   23.7390 C   0  0  0  0  0  3  0  0  0  0  0  0
  -16.7270  -28.6800   23.1480 C   0  0  0  0  0  3  0  0  0  0  0  0
  -25.9410  -32.5240   23.8500 C   0  0  0  0  0  3  0  0  0  0  0  0
  -26.4430  -31.7590   25.1370 C   0  0  1  0  0  0  0  0  0  0  0  0
  -25.3400  -31.5350   26.2010 C   0  0  0  0  0  1  0  0  0  0  0  0
  -27.0220  -30.3750   24.7720 C   0  0  0  0  0  1  0  0  0  0  0  0
  -27.5920  -32.5520   25.8030 C   0  0  0  0  0  1  0  0  0  0  0  0
  -25.6210  -33.9230   24.1920 N   0  0  0  0  0  0  0  0  0  0  0  0
  -25.9270  -34.9900   23.4420 C   0  0  0  0  0  0  0  0  0  0  0  0
  -26.5660  -34.9020   22.3900 O   0  0  0  0  0  0  0  0  0  0  0  0
  -25.0470  -34.0640   25.0100 H   0  0  0  0  0  0  0  0  0  0  0  0
  -24.1680  -36.7780   23.1890 C   0  0  0  0  0  1  0  0  0  0  0  0
  -25.4520  -36.3760   23.9310 C   0  0  0  0  0  3  0  0  0  0  0  0
  -27.6160  -37.2850   24.6580 C   0  0  0  0  0  1  0  0  0  0  0  0
  -26.4680  -37.4400   23.7700 N   0  0  0  0  0  0  0  0  0  0  0  0
  -26.0600  -38.3560   23.9350 H   0  0  0  0  0  0  0  0  0  0  0  0
  2  4  1  0
  2  1  1  0
  4  3  1  0
  5 13  1  0
  6 11  1  0
  7  8  1  0
  7  6  1  0
  9  8  1  0
  9 18  1  0
  9 10  1  0
 11  5  1  0
 11 10  1  0
 12  5  2  0
 13  4  2  0
 13 14  1  0
 15 16  2  0
 16 35  1  0
 17 16  1  0
 17 20  1  0
 18 15  1  0
 18 19  1  0
 19 17  2  0
 20 21  1  0
 21 22  2  0
 23 26  1  0
 23 22  1  0
 24 23  2  0
 25 24  1  0
 25 20  2  0
 26 27  1  0
 27 28  1  0
 28 29  2  0
 30 29  1  0
 30 34  1  0
 31 30  2  0
 32 27  2  0
 32 31  1  0
 33 32  1  0
 35 36  1  0
 36 39  1  0
 36 38  1  0
 37 35  2  0
 40 41  1  0
 40 15  1  0
 42 40  1  0
 43  1  2  0
 43 44  1  0
 45 56  2  0
 46 44  1  0
 46 51  1  0
 47 55  1  0
 47 57  1  0
 48 54  1  0
 48 50  1  0
 49 55  1  0
 50 51  2  0
 50 49  1  0
 52 46  2  0
 53 52  1  0
 53 48  2  0
 54 47  1  0
 55 45  1  0
 57 59  2  0
 58 57  1  0
 60 58  1  0
 61 70  2  0
 61 66  1  0
 62 58  1  0
 62 66  1  0
 63 62  1  0
 64 65  1  0
 64 63  1  0
 65 61  1  0
 66 67  2  0
 67 68  1  0
 69 68  2  0
 70 69  1  0
 71 45  1  0
 71 76  1  0
 71 72  1  0
 72 75  1  1
 72 73  1  0
 74 72  1  0
 76 79  1  0
 77 81  1  0
 77 76  1  0
 78 77  2  0
 81 80  1  0
 83 81  1  0
 83 84  1  0
 83 82  1  0
M  ISO  4   5 100  13 100  43 101  44 101
M  END
>  <TORSDO>  (45) 
F 19

>  <SCORE>  (45) 
-16.387

>  <name>  (45) 
44

>  <ligand_id>  (45) 
44

>  <original_smiles>  (45) 
[H]c1c([H])c([H])c2c(c1[H])C([H])([H])C([H])([H])C([H])([H])C2([H])N([H])C(=O)C1([H])N(C(=O)C([H])(N([H])C(=O)C([H])(N([H])C([H])([H])[H])C([H])([H])[H])C(C([H])([H])[H])(C([H])([H])[H])C([H])([H])[H])C([H])([H])c2c([H])c(OC([H])([H])C([H])([H])C([H])([H])C([H])(N([H])C(=O)N3C([H])([H])C([H])([H])C([H])([H])C([H])(n4nc(-c5c([H])c([H])c(Oc6c([H])c([H])c(F)c([H])c6F)c([H])c5[H])c(C(=O)N([H])[H])c4N([H])[H])C3([H])[H])C([H])([H])[H])c([H])c([H])c2C1([H])[H]

>  <smiles>  (45) 
[H]c1c([H])c([H])c2c(c1[H])C([H])([H])C([H])([H])C([H])([H])C2([H])N([H])C(=O)C1([H])N(C(=O)C([H])(N([H])C(=O)C([H])(N([H])C([H])([H])[H])C([H])([H])[H])C(C([H])([H])[H])(C([H])([H])[H])C([H])([H])[H])C([H])([H])c2c([H])c(OC([H])([H])C([H])([H])C([H])([H])C([H])(N([H])C(=O)N3C([H])([H])C([H])([H])C([H])([H])C([H])(n4nc(-c5c([H])c([H])c(Oc6c([H])c([H])c(F)c([H])c6F)c([H])c5[H])c(C(=O)N([H])[H])c4N([H])[H])C3([H])[H])C([H])([H])[H])c([H])c([H])c2C1([H])[H]

$$$$
45:0:0
     RDKit          3D

 94101  0  0  1  0  0  0  0  0999 V2000
  -27.8410  -22.8780   20.0700 C   0  0  0  0  0  3  0  0  0  0  0  0
  -28.3280  -21.1770   21.9990 C   0  0  0  0  0  1  0  0  0  0  0  0
  -28.6480  -21.4710   20.5550 N   0  0  1  0  0  4  0  0  0  0  0  0
  -29.6150  -21.7570   20.6090 H   0  0  0  0  0  0  0  0  0  0  0  0
  -28.7900  -20.0070   19.7690 C   0  0  0  0  0  3  0  0  0  0  0  0
  -30.7320  -18.7470   21.2130 C   0  0  0  0  0  1  0  0  0  0  0  0
  -29.3590  -18.4740   20.5050 C   0  0  0  0  0  3  0  0  0  0  0  0
  -29.4240  -16.8210   19.7990 C   0  0  0  0  0  2  0  0  0  0  0  0
  -30.3490  -15.3520   20.0060 C   0  0  0  0  0  0  0  0  0  0  0  0
  -30.3690  -12.9210   19.1450 C   0  0  0  0  0  2  0  0  0  0  0  0
  -29.4050  -12.7890   17.9380 C   0  0  0  0  0  2  0  0  0  0  0  0
  -27.9590  -12.5480   18.3910 C   0  0  0  0  0  2  0  0  0  0  0  0
  -27.5630  -13.4900   19.5530 C   0  0  0  0  0  3  0  0  0  0  0  0
  -28.6230  -13.5470   20.6560 C   0  0  0  0  0  2  0  0  0  0  0  0
  -29.8610  -14.0280   20.0330 N   0  0  0  0  0  0  0  0  0  0  0  0
  -31.5710  -15.3960   19.8080 O   0  0  0  0  0  0  0  0  0  0  0  0
  -25.2430  -14.0790   20.4190 C   0  0  0  0  0  0  0  0  0  0  0  0
  -24.1880  -13.2990   20.8220 C   0  0  0  0  0  0  0  0  0  0  0  0
  -24.6390  -11.9510   20.7440 C   0  0  0  0  0  0  0  0  0  0  0  0
  -26.2540  -13.1880   20.1050 N   0  0  0  0  0  0  0  0  0  0  0  0
  -25.9130  -11.9030   20.3750 N   0  0  0  0  0  0  0  0  0  0  0  0
  -23.9130  -10.6920   20.9520 C   0  0  0  0  0  0  0  0  0  0  0  0
  -24.3530   -9.7200   21.8750 C   0  0  0  0  0  3  0  0  0  0  0  0
  -23.6190   -8.5280   22.0630 C   0  0  0  0  0  3  0  0  0  0  0  0
  -22.4370   -8.3020   21.3190 C   0  0  0  0  0  0  0  0  0  0  0  0
  -22.0290   -9.2550   20.3690 C   0  0  0  0  0  3  0  0  0  0  0  0
  -22.7620  -10.4390   20.1850 C   0  0  0  0  0  3  0  0  0  0  0  0
  -21.6730   -7.1620   21.4150 O   0  0  0  0  0  0  0  0  0  0  0  0
  -21.6060   -6.4370   22.5760 C   0  0  0  0  0  0  0  0  0  0  0  0
  -21.1580   -7.0170   23.7840 C   0  0  0  0  0  3  0  0  0  0  0  0
  -21.0360   -6.2240   24.9430 C   0  0  0  0  0  3  0  0  0  0  0  0
  -21.3480   -4.8490   24.8910 C   0  0  0  0  0  0  0  0  0  0  0  0
  -21.7840   -4.2700   23.6860 C   0  0  0  0  0  3  0  0  0  0  0  0
  -21.9070   -5.0620   22.5310 C   0  0  0  0  0  0  0  0  0  0  0  0
  -22.3080   -4.4970   21.3680 F   0  0  0  0  0  0  0  0  0  0  0  0
  -21.2190   -4.0840   26.0000 F   0  0  0  0  0  0  0  0  0  0  0  0
  -22.8070  -13.7800   21.1530 C   0  0  0  0  0  0  0  0  0  0  0  0
  -22.1190  -13.0720   22.0460 N   0  0  0  0  0  0  0  0  0  0  0  0
  -22.3530  -14.8100   20.6660 O   0  0  0  0  0  0  0  0  0  0  0  0
  -22.5180  -12.2430   22.4550 H   0  0  0  0  0  0  0  0  0  0  0  0
  -21.1870  -13.3560   22.3080 H   0  0  0  0  0  0  0  0  0  0  0  0
  -25.4250  -15.4460   20.2680 N   0  0  0  0  0  0  0  0  0  0  0  0
  -24.6990  -16.1330   20.4490 H   0  0  0  0  0  0  0  0  0  0  0  0
  -26.2610  -15.8650   19.8780 H   0  0  0  0  0  0  0  0  0  0  0  0
  -29.7980  -20.1150   18.5690 C   0  0  0  0  0  2  0  0  0  0  0  0
  -29.5830  -21.1420   17.4510 C   0  0  0  0  0  2  0  0  0  0  0  0
  -32.1650  -21.2480   16.7920 C   0  0  0  0  0  1  0  0  0  0  0  0
  -30.6850  -21.0450   16.3460 C   0  0  0  0  0  2  0  0  0  0  0  0
  -28.4630  -24.5240   19.7720 C   0  0  0  0  0  2  0  0  0  0  0  0
  -28.2890  -26.0760   20.2990 O   0  0  0  0  0  0  0  0  0  0  0  0
  -24.6690  -31.9410   23.2360 C   0  0  0  0  0  0  0  0  0  0  0  0
  -27.2830  -27.1420   20.1410 C   0  0  0  0  0  0  0  0  0  0  0  0
  -23.5070  -30.5370   21.5870 C   0  0  0  0  0  3  0  0  0  0  0  0
  -24.9770  -28.9760   20.1260 C   0  0  0  0  0  0  0  0  0  0  0  0
  -26.0620  -30.8000   21.4260 C   0  0  0  0  0  2  0  0  0  0  0  0
  -26.1540  -29.4000   20.7490 C   0  0  0  0  0  0  0  0  0  0  0  0
  -27.3120  -28.5000   20.7250 C   0  0  0  0  0  3  0  0  0  0  0  0
  -26.0830  -26.8730   19.4550 C   0  0  0  0  0  3  0  0  0  0  0  0
  -24.9690  -27.7500   19.4420 C   0  0  0  0  0  3  0  0  0  0  0  0
  -23.7390  -29.8740   20.2030 C   0  0  0  0  0  2  0  0  0  0  0  0
  -24.7690  -31.1150   22.1430 N   0  0  0  0  0  0  0  0  0  0  0  0
  -23.5710  -32.1970   23.7560 O   0  0  0  0  0  0  0  0  0  0  0  0
  -22.8290  -29.5190   22.5390 C   0  0  0  0  0  0  0  0  0  0  0  0
  -21.5000  -29.3330   22.4040 N   0  0  0  0  0  0  0  0  0  0  0  0
  -23.5040  -28.8910   23.3570 O   0  0  0  0  0  0  0  0  0  0  0  0
  -21.0010  -29.9130   21.7400 H   0  0  0  0  0  0  0  0  0  0  0  0
  -18.1410  -28.0330   22.8870 C   0  0  0  0  0  0  0  0  0  0  0  0
  -20.6910  -28.3620   23.1530 C   0  0  0  0  0  3  0  0  0  0  0  0
  -20.8280  -26.9370   22.5670 C   0  0  0  0  0  2  0  0  0  0  0  0
  -19.7360  -26.5980   21.5420 C   0  0  0  0  0  2  0  0  0  0  0  0
  -18.3510  -26.7000   22.1870 C   0  0  0  0  0  2  0  0  0  0  0  0
  -19.2400  -28.8190   23.3270 C   0  0  0  0  0  0  0  0  0  0  0  0
  -18.9900  -30.0610   23.9490 C   0  0  0  0  0  3  0  0  0  0  0  0
  -17.6730  -30.5310   24.1170 C   0  0  0  0  0  3  0  0  0  0  0  0
  -16.5870  -29.7490   23.6870 C   0  0  0  0  0  3  0  0  0  0  0  0
  -16.8230  -28.4990   23.0860 C   0  0  0  0  0  3  0  0  0  0  0  0
  -25.9270  -32.6030   23.8810 C   0  0  0  0  0  3  0  0  0  0  0  0
  -26.4140  -31.8450   25.1810 C   0  0  1  0  0  0  0  0  0  0  0  0
  -25.2910  -31.6020   26.2230 C   0  0  0  0  0  1  0  0  0  0  0  0
  -27.0230  -30.4680   24.8190 C   0  0  0  0  0  1  0  0  0  0  0  0
  -27.5320  -32.6610   25.8720 C   0  0  0  0  0  1  0  0  0  0  0  0
  -25.5780  -33.9970   24.2080 N   0  0  0  0  0  0  0  0  0  0  0  0
  -25.8990  -35.0640   23.4610 C   0  0  0  0  0  0  0  0  0  0  0  0
  -26.5770  -34.9710   22.4350 O   0  0  0  0  0  0  0  0  0  0  0  0
  -24.9620  -34.1260   24.9980 H   0  0  0  0  0  0  0  0  0  0  0  0
  -24.1400  -36.8440   23.1170 C   0  0  0  0  0  1  0  0  0  0  0  0
  -25.4000  -36.4530   23.9090 C   0  0  0  0  0  3  0  0  0  0  0  0
  -27.5410  -37.3780   24.7050 C   0  0  0  0  0  1  0  0  0  0  0  0
  -26.4230  -37.5200   23.7740 N   0  0  0  0  0  0  0  0  0  0  0  0
  -26.0170  -38.4410   23.9050 H   0  0  0  0  0  0  0  0  0  0  0  0
  -26.4570  -23.1590   20.8030 C   0  0  0  0  0  2  0  0  0  0  0  0
  -24.7790  -22.6230   18.9410 C   0  0  0  0  0  1  0  0  0  0  0  0
  -24.0730  -24.1220   20.9270 C   0  0  0  0  0  1  0  0  0  0  0  0
  -25.2310  -23.6660   19.9920 C   0  0  0  0  0  3  0  0  0  0  0  0
  1 49  1  0
  1  3  1  0
  1 91  1  0
  3  4  1  1
  3  2  1  0
  5 45  1  0
  5  7  1  0
  5  3  1  0
  7  6  1  0
  8  9  1  0
  8  7  1  0
  9 15  1  0
 10 15  1  0
 11 12  1  0
 11 10  1  0
 13 12  1  0
 13 20  1  0
 13 14  1  0
 15 14  1  0
 16  9  2  0
 17 18  2  0
 18 37  1  0
 19 18  1  0
 19 22  1  0
 20 21  1  0
 20 17  1  0
 21 19  2  0
 22 23  1  0
 23 24  2  0
 25 28  1  0
 25 24  1  0
 26 25  2  0
 27 26  1  0
 27 22  2  0
 28 29  1  0
 29 30  1  0
 30 31  2  0
 32 31  1  0
 32 36  1  0
 33 32  2  0
 34 29  2  0
 34 33  1  0
 35 34  1  0
 37 38  1  0
 38 41  1  0
 38 40  1  0
 39 37  2  0
 42 17  1  0
 42 43  1  0
 44 42  1  0
 46 45  1  0
 48 47  1  0
 48 46  1  0
 49 50  1  0
 51 62  2  0
 52 50  1  0
 52 57  1  0
 53 61  1  0
 53 63  1  0
 54 60  1  0
 54 56  1  0
 55 61  1  0
 56 55  1  0
 57 56  2  0
 58 52  2  0
 59 58  1  0
 59 54  2  0
 60 53  1  0
 61 51  1  0
 63 65  2  0
 64 63  1  0
 66 64  1  0
 67 76  2  0
 67 72  1  0
 68 64  1  0
 68 72  1  0
 69 68  1  0
 70 71  1  0
 70 69  1  0
 71 67  1  0
 72 73  2  0
 73 74  1  0
 75 74  2  0
 76 75  1  0
 77 51  1  0
 77 82  1  0
 77 78  1  0
 78 81  1  1
 78 79  1  0
 80 78  1  0
 82 85  1  0
 83 87  1  0
 83 82  1  0
 84 83  2  0
 87 86  1  0
 89 90  1  0
 89 87  1  0
 89 88  1  0
 92 94  1  0
 94 91  1  0
 94 93  1  0
M  ISO  4   8 100   9 100  49 101  50 101
M  END
>  <TORSDO>  (46) 
F 26

>  <SCORE>  (46) 
-13.646

>  <name>  (46) 
45

>  <ligand_id>  (46) 
45

>  <original_smiles>  (46) 
[H]c1c([H])c([H])c2c(c1[H])C([H])([H])C([H])([H])C([H])([H])C2([H])N([H])C(=O)C1([H])N(C(=O)C([H])(N([H])C(=O)C([H])(N([H])C([H])([H])[H])C([H])([H])[H])C(C([H])([H])[H])(C([H])([H])[H])C([H])([H])[H])C([H])([H])c2c([H])c(OC([H])([H])C([H])(C([H])([H])C([H])(C([H])([H])[H])C([H])([H])[H])[N+]([H])(C([H])([H])[H])C([H])(C([H])([H])C([H])([H])C([H])([H])C([H])([H])[H])C([H])(C([H])([H])[H])C([H])([H])C(=O)N3C([H])([H])C([H])([H])C([H])([H])C([H])(n4nc(-c5c([H])c([H])c(Oc6c([H])c([H])c(F)c([H])c6F)c([H])c5[H])c(C(=O)N([H])[H])c4N([H])[H])C3([H])[H])c([H])c([H])c2C1([H])[H]

>  <smiles>  (46) 
[H]c1c([H])c([H])c2c(c1[H])C([H])([H])C([H])([H])C([H])([H])C2([H])N([H])C(=O)C1([H])N(C(=O)C([H])(N([H])C(=O)C([H])(N([H])C([H])([H])[H])C([H])([H])[H])C(C([H])([H])[H])(C([H])([H])[H])C([H])([H])[H])C([H])([H])c2c([H])c(OC([H])([H])C([H])(C([H])([H])C([H])(C([H])([H])[H])C([H])([H])[H])[N+]([H])(C([H])([H])[H])C([H])(C([H])([H])C([H])([H])C([H])([H])C([H])([H])[H])C([H])(C([H])([H])[H])C([H])([H])C(=O)N3C([H])([H])C([H])([H])C([H])([H])C([H])(n4nc(-c5c([H])c([H])c(Oc6c([H])c([H])c(F)c([H])c6F)c([H])c5[H])c(C(=O)N([H])[H])c4N([H])[H])C3([H])[H])c([H])c([H])c2C1([H])[H]

$$$$
46:0:0
     RDKit          3D

 90 97  0  0  1  0  0  0  0  0999 V2000
  -29.1250  -19.8680   20.4570 N   0  0  0  0  0  4  0  0  0  0  0  0
  -28.2710  -19.5410   20.0290 H   0  0  0  0  0  0  0  0  0  0  0  0
  -28.8990  -19.9490   21.4340 H   0  0  0  0  0  0  0  0  0  0  0  0
  -29.2690  -21.4060   19.8890 C   0  0  0  0  0  2  0  0  0  0  0  0
  -28.7560  -22.9430   20.5990 C   0  0  0  0  0  2  0  0  0  0  0  0
  -28.2390  -24.4720   19.8780 C   0  0  0  0  0  2  0  0  0  0  0  0
  -28.2470  -26.0190   20.3620 O   0  0  0  0  0  0  0  0  0  0  0  0
  -24.6210  -31.8790   23.2500 C   0  0  0  0  0  0  0  0  0  0  0  0
  -27.2010  -27.0540   20.2460 C   0  0  0  0  0  0  0  0  0  0  0  0
  -23.4260  -30.4720   21.6180 C   0  0  0  0  0  3  0  0  0  0  0  0
  -24.8800  -28.8740   20.2000 C   0  0  0  0  0  0  0  0  0  0  0  0
  -25.9900  -30.7040   21.4710 C   0  0  0  0  0  2  0  0  0  0  0  0
  -26.0620  -29.3000   20.8220 C   0  0  0  0  0  0  0  0  0  0  0  0
  -27.2130  -28.4040   20.8290 C   0  0  0  0  0  3  0  0  0  0  0  0
  -25.9930  -26.7640   19.5740 C   0  0  0  0  0  3  0  0  0  0  0  0
  -24.8660  -27.6240   19.5610 C   0  0  0  0  0  3  0  0  0  0  0  0
  -23.6580  -29.7830   20.2450 C   0  0  0  0  0  2  0  0  0  0  0  0
  -24.6990  -31.0430   22.1680 N   0  0  0  0  0  0  0  0  0  0  0  0
  -23.5330  -32.1690   23.7730 O   0  0  0  0  0  0  0  0  0  0  0  0
  -22.7380  -29.4780   22.5890 C   0  0  0  0  0  0  0  0  0  0  0  0
  -21.4090  -29.3110   22.4630 N   0  0  0  0  0  0  0  0  0  0  0  0
  -23.4050  -28.8580   23.4200 O   0  0  0  0  0  0  0  0  0  0  0  0
  -20.9240  -29.8620   21.7670 H   0  0  0  0  0  0  0  0  0  0  0  0
  -18.0270  -28.1020   22.9620 C   0  0  0  0  0  0  0  0  0  0  0  0
  -20.5850  -28.3780   23.2390 C   0  0  0  0  0  3  0  0  0  0  0  0
  -20.6950  -26.9410   22.6770 C   0  0  0  0  0  2  0  0  0  0  0  0
  -19.6000  -26.6060   21.6610 C   0  0  0  0  0  2  0  0  0  0  0  0
  -18.2140  -26.7480   22.2970 C   0  0  0  0  0  2  0  0  0  0  0  0
  -19.1410  -28.8740   23.3910 C   0  0  0  0  0  0  0  0  0  0  0  0
  -18.9110  -30.1380   23.9760 C   0  0  0  0  0  3  0  0  0  0  0  0
  -17.6030  -30.6300   24.1390 C   0  0  0  0  0  3  0  0  0  0  0  0
  -16.5050  -29.8550   23.7290 C   0  0  0  0  0  3  0  0  0  0  0  0
  -16.7170  -28.5950   23.1420 C   0  0  0  0  0  3  0  0  0  0  0  0
  -25.8930  -32.5240   23.8780 C   0  0  0  0  0  3  0  0  0  0  0  0
  -25.5800  -33.9270   24.1960 N   0  0  0  0  0  0  0  0  0  0  0  0
  -25.9200  -34.9800   23.4390 C   0  0  0  0  0  0  0  0  0  0  0  0
  -26.5930  -34.8690   22.4090 O   0  0  0  0  0  0  0  0  0  0  0  0
  -24.9800  -34.0840   24.9920 H   0  0  0  0  0  0  0  0  0  0  0  0
  -24.2000  -36.7830   23.0830 C   0  0  0  0  0  1  0  0  0  0  0  0
  -25.4410  -36.3730   23.8940 C   0  0  0  0  0  3  0  0  0  0  0  0
  -27.5790  -37.2580   24.7190 C   0  0  0  0  0  1  0  0  0  0  0  0
  -26.4770  -37.4230   23.7740 N   0  0  0  0  0  0  0  0  0  0  0  0
  -26.0760  -38.3450   23.9130 H   0  0  0  0  0  0  0  0  0  0  0  0
  -26.3930  -31.7700   25.1730 C   0  0  1  0  0  0  0  0  0  0  0  0
  -25.2840  -31.5560   26.2310 C   0  0  0  0  0  1  0  0  0  0  0  0
  -26.9710  -30.3810   24.8160 C   0  0  0  0  0  1  0  0  0  0  0  0
  -27.5460  -32.5650   25.8290 C   0  0  0  0  0  1  0  0  0  0  0  0
  -30.1470  -18.5780   20.3370 C   0  0  0  0  0  3  0  0  0  0  0  0
  -31.0740  -19.3710   22.6640 C   0  0  0  0  0  1  0  0  0  0  0  0
  -31.3800  -18.8990   21.2290 C   0  0  0  0  0  2  0  0  0  0  0  0
  -29.6550  -16.8550   20.3650 C   0  0  0  0  0  3  0  0  0  0  0  0
  -30.4820  -15.3020   20.2780 C   0  0  0  0  0  0  0  0  0  0  0  0
  -30.4160  -12.8700   19.3770 C   0  0  0  0  0  2  0  0  0  0  0  0
  -29.4860  -12.7200   18.1480 C   0  0  0  0  0  2  0  0  0  0  0  0
  -28.0360  -12.4460   18.5770 C   0  0  0  0  0  2  0  0  0  0  0  0
  -27.5920  -13.3730   19.7360 C   0  0  0  0  0  3  0  0  0  0  0  0
  -28.6510  -13.5240   20.8510 C   0  0  0  0  0  2  0  0  0  0  0  0
  -29.9120  -13.9970   20.2440 N   0  0  0  0  0  0  0  0  0  0  0  0
  -31.7020  -15.2810   20.0580 O   0  0  0  0  0  0  0  0  0  0  0  0
  -25.2200  -13.9150   20.4990 C   0  0  0  0  0  0  0  0  0  0  0  0
  -24.1600  -13.1300   20.8550 C   0  0  0  0  0  0  0  0  0  0  0  0
  -24.6380  -11.7840   20.8250 C   0  0  0  0  0  0  0  0  0  0  0  0
  -26.2680  -13.0470   20.2500 N   0  0  0  0  0  0  0  0  0  0  0  0
  -25.9310  -11.7570   20.5170 N   0  0  0  0  0  0  0  0  0  0  0  0
  -23.9200  -10.5170   21.0210 C   0  0  0  0  0  0  0  0  0  0  0  0
  -24.3590   -9.5520   21.9560 C   0  0  0  0  0  3  0  0  0  0  0  0
  -23.6320   -8.3560   22.1420 C   0  0  0  0  0  3  0  0  0  0  0  0
  -22.4550   -8.1140   21.3920 C   0  0  0  0  0  0  0  0  0  0  0  0
  -22.0400   -9.0680   20.4450 C   0  0  0  0  0  3  0  0  0  0  0  0
  -22.7660  -10.2550   20.2590 C   0  0  0  0  0  3  0  0  0  0  0  0
  -21.7050   -6.9660   21.4830 O   0  0  0  0  0  0  0  0  0  0  0  0
  -21.6640   -6.2220   22.6350 C   0  0  0  0  0  0  0  0  0  0  0  0
  -21.2420   -6.7740   23.8640 C   0  0  0  0  0  3  0  0  0  0  0  0
  -21.1420   -5.9530   25.0060 C   0  0  0  0  0  3  0  0  0  0  0  0
  -21.4610   -4.5850   24.9230 C   0  0  0  0  0  0  0  0  0  0  0  0
  -21.8750   -4.0340   23.6970 C   0  0  0  0  0  3  0  0  0  0  0  0
  -21.9740   -4.8490   22.5560 C   0  0  0  0  0  0  0  0  0  0  0  0
  -22.3520   -4.3070   21.3730 F   0  0  0  0  0  0  0  0  0  0  0  0
  -21.3620   -3.7950   26.0180 F   0  0  0  0  0  0  0  0  0  0  0  0
  -22.7580  -13.5990   21.1120 C   0  0  0  0  0  0  0  0  0  0  0  0
  -22.0320  -12.9000   21.9750 N   0  0  0  0  0  0  0  0  0  0  0  0
  -22.3140  -14.6180   20.5850 O   0  0  0  0  0  0  0  0  0  0  0  0
  -22.4110  -12.0770   22.4200 H   0  0  0  0  0  0  0  0  0  0  0  0
  -21.0880  -13.1900   22.1910 H   0  0  0  0  0  0  0  0  0  0  0  0
  -25.3740  -15.2910   20.3370 N   0  0  0  0  0  0  0  0  0  0  0  0
  -24.6180  -15.9440   20.5060 H   0  0  0  0  0  0  0  0  0  0  0  0
  -26.2380  -15.7630   20.0750 H   0  0  0  0  0  0  0  0  0  0  0  0
  -28.6770  -16.8440   19.1620 C   0  0  0  0  0  2  0  0  0  0  0  0
  -27.3720  -17.2170   19.5680 O   0  0  0  0  0  0  0  0  0  0  0  0
  -26.8470  -17.3540   18.7850 H   0  0  0  0  0  0  0  0  0  0  0  0
  1  3  1  0
  2  1  1  0
  4  1  1  0
  4  5  1  0
  6  7  1  0
  6  5  1  0
  8 19  2  0
  9  7  1  0
  9 14  1  0
 10 18  1  0
 10 20  1  0
 11 17  1  0
 11 13  1  0
 12 18  1  0
 13 14  2  0
 13 12  1  0
 15  9  2  0
 16 15  1  0
 16 11  2  0
 17 10  1  0
 18  8  1  0
 20 22  2  0
 21 20  1  0
 23 21  1  0
 24 33  2  0
 24 29  1  0
 25 21  1  0
 25 29  1  0
 26 25  1  0
 27 28  1  0
 27 26  1  0
 28 24  1  0
 29 30  2  0
 30 31  1  0
 32 31  2  0
 33 32  1  0
 34  8  1  0
 34 35  1  0
 34 44  1  0
 35 38  1  0
 36 40  1  0
 36 35  1  0
 37 36  2  0
 40 39  1  0
 42 40  1  0
 42 43  1  0
 42 41  1  0
 44 47  1  1
 44 45  1  0
 46 44  1  0
 48 51  1  0
 48  1  1  0
 48 50  1  0
 50 49  1  0
 51 88  1  0
 52 51  1  0
 53 58  1  0
 54 55  1  0
 54 53  1  0
 56 55  1  0
 56 63  1  0
 56 57  1  0
 58 52  1  0
 58 57  1  0
 59 52  2  0
 60 61  2  0
 61 80  1  0
 62 61  1  0
 62 65  1  0
 63 60  1  0
 63 64  1  0
 64 62  2  0
 65 66  1  0
 66 67  2  0
 68 71  1  0
 68 67  1  0
 69 68  2  0
 70 69  1  0
 70 65  2  0
 71 72  1  0
 72 73  1  0
 73 74  2  0
 75 74  1  0
 75 79  1  0
 76 75  2  0
 77 72  2  0
 77 76  1  0
 78 77  1  0
 80 81  1  0
 81 84  1  0
 81 83  1  0
 82 80  2  0
 85 60  1  0
 85 86  1  0
 87 85  1  0
 88 89  1  0
 90 89  1  0
M  ISO  4   6 101   7 101  51 100  52 100
M  END
>  <TORSDO>  (47) 
F 24

>  <SCORE>  (47) 
-14.624

>  <name>  (47) 
46

>  <ligand_id>  (47) 
46

>  <original_smiles>  (47) 
[H]OC([H])([H])C([H])(C(=O)N1C([H])([H])C([H])([H])C([H])([H])C([H])(n2nc(-c3c([H])c([H])c(Oc4c([H])c([H])c(F)c([H])c4F)c([H])c3[H])c(C(=O)N([H])[H])c2N([H])[H])C1([H])[H])C([H])(C([H])([H])C([H])([H])[H])[N+]([H])([H])C([H])([H])C([H])([H])C([H])([H])Oc1c([H])c([H])c2c(c1[H])C([H])([H])N(C(=O)C([H])(N([H])C(=O)C([H])(N([H])C([H])([H])[H])C([H])([H])[H])C(C([H])([H])[H])(C([H])([H])[H])C([H])([H])[H])C([H])(C(=O)N([H])C1([H])c3c([H])c([H])c([H])c([H])c3C([H])([H])C([H])([H])C1([H])[H])C2([H])[H]

>  <smiles>  (47) 
[H]OC([H])([H])C([H])(C(=O)N1C([H])([H])C([H])([H])C([H])([H])C([H])(n2nc(-c3c([H])c([H])c(Oc4c([H])c([H])c(F)c([H])c4F)c([H])c3[H])c(C(=O)N([H])[H])c2N([H])[H])C1([H])[H])C([H])(C([H])([H])C([H])([H])[H])[N+]([H])([H])C([H])([H])C([H])([H])C([H])([H])Oc1c([H])c([H])c2c(c1[H])C([H])([H])N(C(=O)C([H])(N([H])C(=O)C([H])(N([H])C([H])([H])[H])C([H])([H])[H])C(C([H])([H])[H])(C([H])([H])[H])C([H])([H])[H])C([H])(C(=O)N([H])C1([H])c3c([H])c([H])c([H])c([H])c3C([H])([H])C([H])([H])C1([H])[H])C2([H])[H]

$$$$
47:0:0
     RDKit          3D

 91 98  0  0  1  0  0  0  0  0999 V2000
  -27.6190  -19.9290   20.8340 C   0  0  0  0  0  1  0  0  0  0  0  0
  -28.5200  -20.0050   19.6640 N   0  0  1  0  0  4  0  0  0  0  0  0
  -27.9300  -19.6650   18.9200 H   0  0  0  0  0  0  0  0  0  0  0  0
  -28.5710  -21.6050   17.6650 C   0  0  0  0  0  1  0  0  0  0  0  0
  -28.6960  -21.5830   19.1960 C   0  0  0  0  0  3  0  0  0  0  0  0
  -27.8810  -23.0470   19.8150 C   0  0  0  0  0  2  0  0  0  0  0  0
  -27.6530  -24.6860   19.1570 C   0  0  0  0  0  2  0  0  0  0  0  0
  -27.6760  -26.2190   19.7080 O   0  0  0  0  0  0  0  0  0  0  0  0
  -24.5080  -31.9790   23.2650 C   0  0  0  0  0  0  0  0  0  0  0  0
  -26.6600  -27.2930   19.7330 C   0  0  0  0  0  0  0  0  0  0  0  0
  -23.1350  -30.7200   21.6530 C   0  0  0  0  0  3  0  0  0  0  0  0
  -24.4070  -29.1870   20.0040 C   0  0  0  0  0  0  0  0  0  0  0  0
  -25.6790  -30.8960   21.2890 C   0  0  0  0  0  2  0  0  0  0  0  0
  -25.6490  -29.5360   20.5440 C   0  0  0  0  0  0  0  0  0  0  0  0
  -26.7650  -28.6070   20.3900 C   0  0  0  0  0  3  0  0  0  0  0  0
  -25.3890  -27.0840   19.1520 C   0  0  0  0  0  3  0  0  0  0  0  0
  -24.2960  -27.9800   19.2900 C   0  0  0  0  0  3  0  0  0  0  0  0
  -23.2210  -30.1240   20.2200 C   0  0  0  0  0  2  0  0  0  0  0  0
  -24.4670  -31.2190   22.1220 N   0  0  0  0  0  0  0  0  0  0  0  0
  -23.4780  -32.2600   23.8970 O   0  0  0  0  0  0  0  0  0  0  0  0
  -22.5010  -29.6800   22.6130 C   0  0  0  0  0  0  0  0  0  0  0  0
  -21.1730  -29.4810   22.5230 N   0  0  0  0  0  0  0  0  0  0  0  0
  -23.2090  -29.0540   23.4050 O   0  0  0  0  0  0  0  0  0  0  0  0
  -20.6530  -30.0430   21.8630 H   0  0  0  0  0  0  0  0  0  0  0  0
  -17.8640  -28.0690   22.9920 C   0  0  0  0  0  0  0  0  0  0  0  0
  -20.3980  -28.5020   23.2930 C   0  0  0  0  0  3  0  0  0  0  0  0
  -20.6000  -27.0720   22.7380 C   0  0  0  0  0  2  0  0  0  0  0  0
  -19.5380  -26.6680   21.7120 C   0  0  0  0  0  2  0  0  0  0  0  0
  -18.1390  -26.7270   22.3320 C   0  0  0  0  0  2  0  0  0  0  0  0
  -18.9250  -28.9080   23.4290 C   0  0  0  0  0  0  0  0  0  0  0  0
  -18.6150  -30.1570   24.0090 C   0  0  0  0  0  3  0  0  0  0  0  0
  -17.2760  -30.5700   24.1540 C   0  0  0  0  0  3  0  0  0  0  0  0
  -16.2310  -29.7310   23.7330 C   0  0  0  0  0  3  0  0  0  0  0  0
  -16.5250  -28.4820   23.1580 C   0  0  0  0  0  3  0  0  0  0  0  0
  -25.8510  -32.5460   23.8200 C   0  0  0  0  0  3  0  0  0  0  0  0
  -25.6150  -33.9390   24.2390 N   0  0  0  0  0  0  0  0  0  0  0  0
  -25.9500  -35.0230   23.5290 C   0  0  0  0  0  0  0  0  0  0  0  0
  -26.5550  -34.9540   22.4550 O   0  0  0  0  0  0  0  0  0  0  0  0
  -25.0740  -34.0700   25.0820 H   0  0  0  0  0  0  0  0  0  0  0  0
  -24.2880  -36.9090   23.3860 C   0  0  0  0  0  1  0  0  0  0  0  0
  -25.5550  -36.4030   24.0950 C   0  0  0  0  0  3  0  0  0  0  0  0
  -27.7700  -37.1500   24.8460 C   0  0  0  0  0  1  0  0  0  0  0  0
  -26.6250  -37.4170   23.9780 N   0  0  0  0  0  0  0  0  0  0  0  0
  -26.2700  -38.3430   24.1990 H   0  0  0  0  0  0  0  0  0  0  0  0
  -26.4260  -31.7040   25.0250 C   0  0  1  0  0  0  0  0  0  0  0  0
  -25.4040  -31.4600   26.1600 C   0  0  0  0  0  1  0  0  0  0  0  0
  -26.9300  -30.3250   24.5430 C   0  0  0  0  0  1  0  0  0  0  0  0
  -27.6510  -32.4290   25.6320 C   0  0  0  0  0  1  0  0  0  0  0  0
  -29.6660  -18.8040   19.7230 C   0  0  0  0  0  3  0  0  0  0  0  0
  -28.5820  -16.8460   18.3920 C   0  0  0  0  0  1  0  0  0  0  0  0
  -29.3400  -17.0500   19.7210 C   0  0  0  0  0  3  0  0  0  0  0  0
  -30.3360  -15.6180   19.8660 C   0  0  0  0  0  0  0  0  0  0  0  0
  -30.4840  -13.1160   19.2450 C   0  0  0  0  0  2  0  0  0  0  0  0
  -29.5480  -12.7890   18.0520 C   0  0  0  0  0  2  0  0  0  0  0  0
  -28.1220  -12.4710   18.5420 C   0  0  0  0  0  2  0  0  0  0  0  0
  -27.6360  -13.4820   19.6090 C   0  0  0  0  0  3  0  0  0  0  0  0
  -28.6990  -13.7720   20.6880 C   0  0  0  0  0  2  0  0  0  0  0  0
  -29.9030  -14.2740   20.0070 N   0  0  0  0  0  0  0  0  0  0  0  0
  -31.5450  -15.7010   19.6060 O   0  0  0  0  0  0  0  0  0  0  0  0
  -25.2880  -13.9590   20.4860 C   0  0  0  0  0  0  0  0  0  0  0  0
  -24.2740  -13.1440   20.9030 C   0  0  0  0  0  0  0  0  0  0  0  0
  -24.7840  -11.8110   20.8380 C   0  0  0  0  0  0  0  0  0  0  0  0
  -26.3460  -13.1210   20.1820 N   0  0  0  0  0  0  0  0  0  0  0  0
  -26.0590  -11.8230   20.4610 N   0  0  0  0  0  0  0  0  0  0  0  0
  -24.1130  -10.5230   21.0540 C   0  0  0  0  0  0  0  0  0  0  0  0
  -24.5350   -9.6270   22.0610 C   0  0  0  0  0  3  0  0  0  0  0  0
  -23.8580   -8.4050   22.2630 C   0  0  0  0  0  3  0  0  0  0  0  0
  -22.7440   -8.0690   21.4570 C   0  0  0  0  0  0  0  0  0  0  0  0
  -22.3420   -8.9540   20.4400 C   0  0  0  0  0  3  0  0  0  0  0  0
  -23.0210  -10.1670   20.2370 C   0  0  0  0  0  3  0  0  0  0  0  0
  -22.0420   -6.8930   21.5630 O   0  0  0  0  0  0  0  0  0  0  0  0
  -21.8560   -6.2730   22.7730 C   0  0  0  0  0  0  0  0  0  0  0  0
  -21.1920   -6.9120   23.8430 C   0  0  0  0  0  3  0  0  0  0  0  0
  -20.9610   -6.2130   25.0450 C   0  0  0  0  0  3  0  0  0  0  0  0
  -21.3830   -4.8770   25.1760 C   0  0  0  0  0  0  0  0  0  0  0  0
  -22.0370   -4.2370   24.1090 C   0  0  0  0  0  3  0  0  0  0  0  0
  -22.2710   -4.9330   22.9100 C   0  0  0  0  0  0  0  0  0  0  0  0
  -22.8840   -4.3050   21.8770 F   0  0  0  0  0  0  0  0  0  0  0  0
  -21.1540   -4.2030   26.3270 F   0  0  0  0  0  0  0  0  0  0  0  0
  -22.8750  -13.5700   21.2430 C   0  0  0  0  0  0  0  0  0  0  0  0
  -22.2150  -12.8460   22.1390 N   0  0  0  0  0  0  0  0  0  0  0  0
  -22.3790  -14.5820   20.7520 O   0  0  0  0  0  0  0  0  0  0  0  0
  -22.6290  -12.0280   22.5590 H   0  0  0  0  0  0  0  0  0  0  0  0
  -21.2790  -13.1140   22.4090 H   0  0  0  0  0  0  0  0  0  0  0  0
  -25.3950  -15.3360   20.3130 N   0  0  0  0  0  0  0  0  0  0  0  0
  -24.6040  -15.9560   20.4590 H   0  0  0  0  0  0  0  0  0  0  0  0
  -26.2010  -15.8040   19.9240 H   0  0  0  0  0  0  0  0  0  0  0  0
  -30.5860  -19.1520   20.9290 C   0  0  0  0  0  2  0  0  0  0  0  0
  -32.7990  -19.4800   19.6670 C   0  0  0  0  0  1  0  0  0  0  0  0
  -32.7910  -19.1680   22.1700 C   0  0  0  0  0  1  0  0  0  0  0  0
  -32.0890  -18.8010   20.8500 C   0  0  0  0  0  3  0  0  0  0  0  0
  2 49  1  0
  2  1  1  0
  2  3  1  6
  5  4  1  0
  5  2  1  0
  5  6  1  0
  7  8  1  0
  7  6  1  0
  8 10  1  0
  9 20  2  0
 10 15  1  0
 11 19  1  0
 11 21  1  0
 12 18  1  0
 12 14  1  0
 13 19  1  0
 14 13  1  0
 15 14  2  0
 16 17  1  0
 16 10  2  0
 17 12  2  0
 18 11  1  0
 19  9  1  0
 21 23  2  0
 22 21  1  0
 24 22  1  0
 25 34  2  0
 25 30  1  0
 26 22  1  0
 26 30  1  0
 27 26  1  0
 28 29  1  0
 28 27  1  0
 29 25  1  0
 30 31  2  0
 31 32  1  0
 33 32  2  0
 34 33  1  0
 35  9  1  0
 35 36  1  0
 35 45  1  0
 36 39  1  0
 37 41  1  0
 37 36  1  0
 38 37  2  0
 41 40  1  0
 43 41  1  0
 43 44  1  0
 43 42  1  0
 45 48  1  1
 45 46  1  0
 47 45  1  0
 49 88  1  0
 51 50  1  0
 51 49  1  0
 51 52  1  0
 52 58  1  0
 53 58  1  0
 54 55  1  0
 54 53  1  0
 56 55  1  0
 56 63  1  0
 56 57  1  0
 58 57  1  0
 59 52  2  0
 60 61  2  0
 61 80  1  0
 62 61  1  0
 62 65  1  0
 63 64  1  0
 63 60  1  0
 64 62  2  0
 65 66  1  0
 66 67  2  0
 68 71  1  0
 68 67  1  0
 69 68  2  0
 70 69  1  0
 70 65  2  0
 71 72  1  0
 72 77  2  0
 72 73  1  0
 73 74  2  0
 74 75  1  0
 75 79  1  0
 76 75  2  0
 77 76  1  0
 78 77  1  0
 80 81  1  0
 81 84  1  0
 81 83  1  0
 82 80  2  0
 85 86  1  0
 85 60  1  0
 87 85  1  0
 89 91  1  0
 91 88  1  0
 91 90  1  0
M  ISO  4   7 101   8 101  51 100  52 100
M  END
>  <TORSDO>  (48) 
F 23

>  <SCORE>  (48) 
-12.730

>  <name>  (48) 
47

>  <ligand_id>  (48) 
47

>  <original_smiles>  (48) 
[H]c1c([H])c([H])c2c(c1[H])C([H])([H])C([H])([H])C([H])([H])C2([H])N([H])C(=O)C1([H])N(C(=O)C([H])(N([H])C(=O)C([H])(N([H])C([H])([H])[H])C([H])([H])[H])C(C([H])([H])[H])(C([H])([H])[H])C([H])([H])[H])C([H])([H])c2c([H])c(OC([H])([H])C([H])([H])C([H])(C([H])([H])[H])[N+]([H])(C([H])([H])[H])C([H])(C([H])([H])C([H])(C([H])([H])[H])C([H])([H])[H])C([H])(C(=O)N3C([H])([H])C([H])([H])C([H])([H])C([H])(n4nc(-c5c([H])c([H])c(Oc6c([H])c([H])c(F)c([H])c6F)c([H])c5[H])c(C(=O)N([H])[H])c4N([H])[H])C3([H])[H])C([H])([H])[H])c([H])c([H])c2C1([H])[H]

>  <smiles>  (48) 
[H]c1c([H])c([H])c2c(c1[H])C([H])([H])C([H])([H])C([H])([H])C2([H])N([H])C(=O)C1([H])N(C(=O)C([H])(N([H])C(=O)C([H])(N([H])C([H])([H])[H])C([H])([H])[H])C(C([H])([H])[H])(C([H])([H])[H])C([H])([H])[H])C([H])([H])c2c([H])c(OC([H])([H])C([H])([H])C([H])(C([H])([H])[H])[N+]([H])(C([H])([H])[H])C([H])(C([H])([H])C([H])(C([H])([H])[H])C([H])([H])[H])C([H])(C(=O)N3C([H])([H])C([H])([H])C([H])([H])C([H])(n4nc(-c5c([H])c([H])c(Oc6c([H])c([H])c(F)c([H])c6F)c([H])c5[H])c(C(=O)N([H])[H])c4N([H])[H])C3([H])[H])C([H])([H])[H])c([H])c([H])c2C1([H])[H]

$$$$
48:0:0
     RDKit          3D

 86 93  0  0  1  0  0  0  0  0999 V2000
  -30.0520  -22.5330   21.4140 C   0  0  0  0  0  1  0  0  0  0  0  0
  -29.0320  -22.3080   20.2890 C   0  0  0  0  0  3  0  0  0  0  0  0
  -27.5440  -20.3580   19.3870 C   0  0  0  0  0  1  0  0  0  0  0  0
  -28.6910  -20.5860   20.2880 N   0  0  1  0  0  4  0  0  0  0  0  0
  -28.2680  -20.4740   21.1990 H   0  0  0  0  0  0  0  0  0  0  0  0
  -30.6270  -19.3390   19.0090 C   0  0  0  0  0  1  0  0  0  0  0  0
  -29.7050  -19.1540   20.2220 C   0  0  0  0  0  3  0  0  0  0  0  0
  -29.3940  -17.2660   20.3310 C   0  0  0  0  0  2  0  0  0  0  0  0
  -30.2740  -15.6430   20.1350 C   0  0  0  0  0  0  0  0  0  0  0  0
  -30.3820  -13.1190   19.2890 C   0  0  0  0  0  2  0  0  0  0  0  0
  -29.4460  -12.7950   18.0880 C   0  0  0  0  0  2  0  0  0  0  0  0
  -28.0250  -12.4480   18.5660 C   0  0  0  0  0  2  0  0  0  0  0  0
  -27.5580  -13.4120   19.6800 C   0  0  0  0  0  3  0  0  0  0  0  0
  -28.6230  -13.6590   20.7690 C   0  0  0  0  0  2  0  0  0  0  0  0
  -29.8010  -14.2660   20.1140 N   0  0  0  0  0  0  0  0  0  0  0  0
  -31.4900  -15.6240   19.8670 O   0  0  0  0  0  0  0  0  0  0  0  0
  -25.2200  -13.9170   20.5420 C   0  0  0  0  0  0  0  0  0  0  0  0
  -24.1780  -13.1220   20.9270 C   0  0  0  0  0  0  0  0  0  0  0  0
  -24.6530  -11.7760   20.8460 C   0  0  0  0  0  0  0  0  0  0  0  0
  -26.2590  -13.0570   20.2340 N   0  0  0  0  0  0  0  0  0  0  0  0
  -25.9350  -11.7610   20.4860 N   0  0  0  0  0  0  0  0  0  0  0  0
  -23.9390  -10.5050   21.0290 C   0  0  0  0  0  0  0  0  0  0  0  0
  -24.3840   -9.5320   21.9520 C   0  0  0  0  0  3  0  0  0  0  0  0
  -23.6650   -8.3300   22.1270 C   0  0  0  0  0  3  0  0  0  0  0  0
  -22.4870   -8.0920   21.3800 C   0  0  0  0  0  0  0  0  0  0  0  0
  -22.0600   -9.0530   20.4480 C   0  0  0  0  0  3  0  0  0  0  0  0
  -22.7790  -10.2470   20.2710 C   0  0  0  0  0  3  0  0  0  0  0  0
  -21.7400   -6.9410   21.4650 O   0  0  0  0  0  0  0  0  0  0  0  0
  -21.6740   -6.2070   22.6220 C   0  0  0  0  0  0  0  0  0  0  0  0
  -21.2010   -6.7630   23.8310 C   0  0  0  0  0  3  0  0  0  0  0  0
  -21.0840   -5.9570   24.9800 C   0  0  0  0  0  3  0  0  0  0  0  0
  -21.4310   -4.5930   24.9210 C   0  0  0  0  0  0  0  0  0  0  0  0
  -21.8960   -4.0360   23.7170 C   0  0  0  0  0  3  0  0  0  0  0  0
  -22.0140   -4.8410   22.5710 C   0  0  0  0  0  0  0  0  0  0  0  0
  -22.4430   -4.2930   21.4080 F   0  0  0  0  0  0  0  0  0  0  0  0
  -21.3120   -3.8150   26.0220 F   0  0  0  0  0  0  0  0  0  0  0  0
  -22.7890  -13.5840   21.2530 C   0  0  0  0  0  0  0  0  0  0  0  0
  -22.0970  -12.8710   22.1330 N   0  0  0  0  0  0  0  0  0  0  0  0
  -22.3280  -14.6140   20.7630 O   0  0  0  0  0  0  0  0  0  0  0  0
  -22.4840  -12.0390   22.5520 H   0  0  0  0  0  0  0  0  0  0  0  0
  -21.1640  -13.1640   22.3940 H   0  0  0  0  0  0  0  0  0  0  0  0
  -25.3690  -15.2940   20.3980 N   0  0  0  0  0  0  0  0  0  0  0  0
  -24.6040  -15.9390   20.5630 H   0  0  0  0  0  0  0  0  0  0  0  0
  -26.2030  -15.7470   20.0510 H   0  0  0  0  0  0  0  0  0  0  0  0
  -27.9820  -23.9160   20.2670 C   0  0  0  0  0  2  0  0  0  0  0  0
  -28.1760  -25.6500   20.3190 O   0  0  0  0  0  0  0  0  0  0  0  0
  -24.6810  -31.8880   23.2560 C   0  0  0  0  0  0  0  0  0  0  0  0
  -27.1900  -26.8350   20.2730 C   0  0  0  0  0  0  0  0  0  0  0  0
  -23.4830  -30.4920   21.6240 C   0  0  0  0  0  3  0  0  0  0  0  0
  -24.9230  -28.8450   20.2120 C   0  0  0  0  0  0  0  0  0  0  0  0
  -26.0600  -30.6400   21.4920 C   0  0  0  0  0  2  0  0  0  0  0  0
  -26.1190  -29.2100   20.8390 C   0  0  0  0  0  0  0  0  0  0  0  0
  -27.2400  -28.2330   20.8350 C   0  0  0  0  0  3  0  0  0  0  0  0
  -25.9600  -26.6670   19.5910 C   0  0  0  0  0  3  0  0  0  0  0  0
  -24.8780  -27.5980   19.5640 C   0  0  0  0  0  3  0  0  0  0  0  0
  -23.7160  -29.7940   20.2530 C   0  0  0  0  0  2  0  0  0  0  0  0
  -24.7650  -31.0380   22.1760 N   0  0  0  0  0  0  0  0  0  0  0  0
  -23.5910  -32.1920   23.7690 O   0  0  0  0  0  0  0  0  0  0  0  0
  -22.7690  -29.5160   22.5970 C   0  0  0  0  0  0  0  0  0  0  0  0
  -21.4380  -29.3580   22.4680 N   0  0  0  0  0  0  0  0  0  0  0  0
  -23.4240  -28.8970   23.4390 O   0  0  0  0  0  0  0  0  0  0  0  0
  -20.9590  -29.9090   21.7700 H   0  0  0  0  0  0  0  0  0  0  0  0
  -18.0500  -28.1470   22.9750 C   0  0  0  0  0  0  0  0  0  0  0  0
  -20.6090  -28.4260   23.2430 C   0  0  0  0  0  3  0  0  0  0  0  0
  -20.7160  -26.9890   22.6810 C   0  0  0  0  0  2  0  0  0  0  0  0
  -19.6200  -26.6560   21.6630 C   0  0  0  0  0  2  0  0  0  0  0  0
  -18.2350  -26.7970   22.3010 C   0  0  0  0  0  2  0  0  0  0  0  0
  -19.1640  -28.9180   23.4010 C   0  0  0  0  0  0  0  0  0  0  0  0
  -18.9340  -30.1780   23.9950 C   0  0  0  0  0  3  0  0  0  0  0  0
  -17.6250  -30.6690   24.1620 C   0  0  0  0  0  3  0  0  0  0  0  0
  -16.5270  -29.8960   23.7480 C   0  0  0  0  0  3  0  0  0  0  0  0
  -16.7400  -28.6360   23.1610 C   0  0  0  0  0  3  0  0  0  0  0  0
  -25.9500  -32.5320   23.8940 C   0  0  0  0  0  3  0  0  0  0  0  0
  -26.4440  -31.7730   25.1880 C   0  0  1  0  0  0  0  0  0  0  0  0
  -25.3380  -31.5590   26.2470 C   0  0  0  0  0  1  0  0  0  0  0  0
  -27.0220  -30.3860   24.8310 C   0  0  0  0  0  1  0  0  0  0  0  0
  -27.5940  -32.5690   25.8530 C   0  0  0  0  0  1  0  0  0  0  0  0
  -25.6350  -33.9350   24.2260 N   0  0  0  0  0  0  0  0  0  0  0  0
  -25.9390  -34.9960   23.4650 C   0  0  0  0  0  0  0  0  0  0  0  0
  -26.5710  -34.8960   22.4120 O   0  0  0  0  0  0  0  0  0  0  0  0
  -25.0680  -34.0850   25.0480 H   0  0  0  0  0  0  0  0  0  0  0  0
  -24.1770  -36.7810   23.2100 C   0  0  0  0  0  1  0  0  0  0  0  0
  -25.4680  -36.3860   23.9460 C   0  0  0  0  0  3  0  0  0  0  0  0
  -27.6390  -37.3000   24.6460 C   0  0  0  0  0  1  0  0  0  0  0  0
  -26.4830  -37.4490   23.7660 N   0  0  0  0  0  0  0  0  0  0  0  0
  -26.0760  -38.3660   23.9290 H   0  0  0  0  0  0  0  0  0  0  0  0
  2  1  1  0
  3  4  1  0
  4  2  1  0
  4  5  1  1
  7  6  1  0
  7  4  1  0
  7  8  1  0
  9  8  1  0
 10 15  1  0
 11 12  1  0
 11 10  1  0
 13 12  1  0
 13 20  1  0
 13 14  1  0
 15  9  1  0
 15 14  1  0
 16  9  2  0
 17 18  2  0
 18 37  1  0
 19 18  1  0
 19 22  1  0
 20 21  1  0
 20 17  1  0
 21 19  2  0
 22 23  1  0
 23 24  2  0
 25 28  1  0
 25 24  1  0
 26 25  2  0
 27 26  1  0
 27 22  2  0
 28 29  1  0
 29 30  1  0
 30 31  2  0
 32 31  1  0
 32 36  1  0
 33 32  2  0
 34 29  2  0
 34 33  1  0
 35 34  1  0
 37 38  1  0
 38 41  1  0
 38 40  1  0
 39 37  2  0
 42 17  1  0
 42 43  1  0
 44 42  1  0
 45  2  1  0
 45 46  1  0
 47 58  2  0
 48 46  1  0
 48 53  1  0
 49 57  1  0
 49 59  1  0
 50 56  1  0
 50 52  1  0
 51 57  1  0
 52 51  1  0
 53 52  2  0
 54 48  2  0
 55 54  1  0
 55 50  2  0
 56 49  1  0
 57 47  1  0
 59 61  2  0
 60 59  1  0
 62 60  1  0
 63 72  2  0
 63 68  1  0
 64 60  1  0
 64 68  1  0
 65 64  1  0
 66 67  1  0
 66 65  1  0
 67 63  1  0
 68 69  2  0
 69 70  1  0
 71 70  2  0
 72 71  1  0
 73 47  1  0
 73 78  1  0
 73 74  1  0
 74 77  1  1
 74 75  1  0
 76 74  1  0
 78 81  1  0
 79 83  1  0
 79 78  1  0
 80 79  2  0
 83 82  1  0
 85 86  1  0
 85 83  1  0
 85 84  1  0
M  ISO  4   8 100   9 100  45 101  46 101
M  END
>  <TORSDO>  (49) 
F 20

>  <SCORE>  (49) 
-16.455

>  <name>  (49) 
48

>  <ligand_id>  (49) 
48

>  <original_smiles>  (49) 
[H]c1c([H])c([H])c2c(c1[H])C([H])([H])C([H])([H])C([H])([H])C2([H])N([H])C(=O)C1([H])N(C(=O)C([H])(N([H])C(=O)C([H])(N([H])C([H])([H])[H])C([H])([H])[H])C(C([H])([H])[H])(C([H])([H])[H])C([H])([H])[H])C([H])([H])c2c([H])c(OC([H])([H])C([H])(C([H])([H])[H])[N+]([H])(C([H])([H])[H])C([H])(C([H])([H])[H])C([H])([H])C(=O)N3C([H])([H])C([H])([H])C([H])([H])C([H])(n4nc(-c5c([H])c([H])c(Oc6c([H])c([H])c(F)c([H])c6F)c([H])c5[H])c(C(=O)N([H])[H])c4N([H])[H])C3([H])[H])c([H])c([H])c2C1([H])[H]

>  <smiles>  (49) 
[H]c1c([H])c([H])c2c(c1[H])C([H])([H])C([H])([H])C([H])([H])C2([H])N([H])C(=O)C1([H])N(C(=O)C([H])(N([H])C(=O)C([H])(N([H])C([H])([H])[H])C([H])([H])[H])C(C([H])([H])[H])(C([H])([H])[H])C([H])([H])[H])C([H])([H])c2c([H])c(OC([H])([H])C([H])(C([H])([H])[H])[N+]([H])(C([H])([H])[H])C([H])(C([H])([H])[H])C([H])([H])C(=O)N3C([H])([H])C([H])([H])C([H])([H])C([H])(n4nc(-c5c([H])c([H])c(Oc6c([H])c([H])c(F)c([H])c6F)c([H])c5[H])c(C(=O)N([H])[H])c4N([H])[H])C3([H])[H])c([H])c([H])c2C1([H])[H]

$$$$
49:0:0
     RDKit          3D

 93100  0  0  1  0  0  0  0  0999 V2000
  -28.7740  -20.0700   20.1870 C   0  0  0  0  0  3  0  0  0  0  0  0
  -30.2650  -21.5540   21.3500 C   0  0  0  0  0  1  0  0  0  0  0  0
  -29.2710  -21.6190   20.2850 N   0  0  0  0  0  0  0  0  0  0  0  0
  -27.8890  -22.9960   21.9780 C   0  0  0  0  0  1  0  0  0  0  0  0
  -28.4630  -23.0250   20.5380 C   0  0  0  0  0  3  0  0  0  0  0  0
  -28.8360  -24.6630   20.0160 C   0  0  0  0  0  2  0  0  0  0  0  0
  -28.5550  -26.1500   20.5430 O   0  0  0  0  0  0  0  0  0  0  0  0
  -24.5980  -31.7900   23.2090 C   0  0  0  0  0  0  0  0  0  0  0  0
  -27.4760  -27.1100   20.3210 C   0  0  0  0  0  0  0  0  0  0  0  0
  -23.5290  -30.3590   21.5050 C   0  0  0  0  0  3  0  0  0  0  0  0
  -25.1020  -28.8270   20.1390 C   0  0  0  0  0  0  0  0  0  0  0  0
  -26.0780  -30.6920   21.4740 C   0  0  0  0  0  2  0  0  0  0  0  0
  -26.2290  -29.3000   20.8220 C   0  0  0  0  0  0  0  0  0  0  0  0
  -27.4050  -28.4560   20.8970 C   0  0  0  0  0  3  0  0  0  0  0  0
  -26.3300  -26.7560   19.5760 C   0  0  0  0  0  3  0  0  0  0  0  0
  -25.1740  -27.5770   19.4930 C   0  0  0  0  0  3  0  0  0  0  0  0
  -23.8420  -29.6850   20.1370 C   0  0  0  0  0  2  0  0  0  0  0  0
  -24.7520  -30.9750   22.1180 N   0  0  0  0  0  0  0  0  0  0  0  0
  -23.4810  -32.0380   23.6840 O   0  0  0  0  0  0  0  0  0  0  0  0
  -22.8330  -29.3340   22.4380 C   0  0  0  0  0  0  0  0  0  0  0  0
  -21.5070  -29.1640   22.2890 N   0  0  0  0  0  0  0  0  0  0  0  0
  -23.4920  -28.6930   23.2610 O   0  0  0  0  0  0  0  0  0  0  0  0
  -21.0320  -29.7310   21.6020 H   0  0  0  0  0  0  0  0  0  0  0  0
  -18.1090  -28.0020   22.7790 C   0  0  0  0  0  0  0  0  0  0  0  0
  -20.6740  -28.2060   23.0260 C   0  0  0  0  0  3  0  0  0  0  0  0
  -20.7420  -26.8040   22.3770 C   0  0  0  0  0  2  0  0  0  0  0  0
  -19.6210  -26.5550   21.3610 C   0  0  0  0  0  2  0  0  0  0  0  0
  -18.2500  -26.6880   22.0290 C   0  0  0  0  0  2  0  0  0  0  0  0
  -19.2460  -28.7220   23.2310 C   0  0  0  0  0  0  0  0  0  0  0  0
  -19.0530  -29.9530   23.8940 C   0  0  0  0  0  3  0  0  0  0  0  0
  -17.7570  -30.4640   24.1060 C   0  0  0  0  0  3  0  0  0  0  0  0
  -16.6360  -29.7390   23.6680 C   0  0  0  0  0  3  0  0  0  0  0  0
  -16.8120  -28.5090   23.0120 C   0  0  0  0  0  3  0  0  0  0  0  0
  -25.8210  -32.4660   23.9010 C   0  0  0  0  0  3  0  0  0  0  0  0
  -26.2660  -31.7350   25.2310 C   0  0  1  0  0  0  0  0  0  0  0  0
  -25.1080  -31.4970   26.2290 C   0  0  0  0  0  1  0  0  0  0  0  0
  -26.9010  -30.3600   24.9170 C   0  0  0  0  0  1  0  0  0  0  0  0
  -27.3570  -32.5680   25.9470 C   0  0  0  0  0  1  0  0  0  0  0  0
  -25.4630  -33.8670   24.1870 N   0  0  0  0  0  0  0  0  0  0  0  0
  -25.8270  -34.9170   23.4390 C   0  0  0  0  0  0  0  0  0  0  0  0
  -26.5600  -34.8110   22.4530 O   0  0  0  0  0  0  0  0  0  0  0  0
  -24.8190  -34.0200   24.9480 H   0  0  0  0  0  0  0  0  0  0  0  0
  -24.0990  -36.6810   22.9580 C   0  0  0  0  0  1  0  0  0  0  0  0
  -25.2940  -36.3050   23.8470 C   0  0  0  0  0  3  0  0  0  0  0  0
  -27.3520  -37.2480   24.8020 C   0  0  0  0  0  1  0  0  0  0  0  0
  -26.3160  -37.3730   23.7790 N   0  0  0  0  0  0  0  0  0  0  0  0
  -25.8880  -38.2900   23.8760 H   0  0  0  0  0  0  0  0  0  0  0  0
  -27.3680  -20.2400   19.4570 C   0  0  0  0  0  2  0  0  0  0  0  0
  -26.3850  -18.2870   18.3420 C   0  0  0  0  0  1  0  0  0  0  0  0
  -25.8720  -20.5200   17.4050 C   0  0  0  0  0  1  0  0  0  0  0  0
  -26.9800  -19.6600   18.0890 C   0  0  0  0  0  3  0  0  0  0  0  0
  -29.7580  -18.5700   19.8860 C   0  0  0  0  0  3  0  0  0  0  0  0
  -30.0820  -18.6090   18.4410 N   0  0  0  0  0  4  0  0  0  0  0  0
  -29.3370  -18.2350   17.8780 H   0  0  0  0  0  0  0  0  0  0  0  0
  -30.9160  -18.0860   18.2420 H   0  0  0  0  0  0  0  0  0  0  0  0
  -30.2470  -19.5590   18.1470 H   0  0  0  0  0  0  0  0  0  0  0  0
  -29.6120  -16.8370   20.3880 C   0  0  0  0  0  2  0  0  0  0  0  0
  -30.5510  -15.3560   20.1720 C   0  0  0  0  0  0  0  0  0  0  0  0
  -30.6360  -12.8650   19.4070 C   0  0  0  0  0  2  0  0  0  0  0  0
  -29.7340  -12.6670   18.1620 C   0  0  0  0  0  2  0  0  0  0  0  0
  -28.2660  -12.4470   18.5740 C   0  0  0  0  0  2  0  0  0  0  0  0
  -27.8210  -13.4180   19.6980 C   0  0  0  0  0  3  0  0  0  0  0  0
  -28.8510  -13.5380   20.8350 C   0  0  0  0  0  2  0  0  0  0  0  0
  -30.0900  -14.0130   20.2210 N   0  0  0  0  0  0  0  0  0  0  0  0
  -31.7580  -15.4070   19.8830 O   0  0  0  0  0  0  0  0  0  0  0  0
  -25.4690  -14.0280   20.4560 C   0  0  0  0  0  0  0  0  0  0  0  0
  -24.3880  -13.2900   20.8110 C   0  0  0  0  0  0  0  0  0  0  0  0
  -24.8200  -11.9250   20.7740 C   0  0  0  0  0  0  0  0  0  0  0  0
  -26.4870  -13.1340   20.2010 N   0  0  0  0  0  0  0  0  0  0  0  0
  -26.1090  -11.8580   20.4670 N   0  0  0  0  0  0  0  0  0  0  0  0
  -24.0590  -10.6880   20.9570 C   0  0  0  0  0  0  0  0  0  0  0  0
  -24.4550   -9.7090   21.8940 C   0  0  0  0  0  3  0  0  0  0  0  0
  -23.6940   -8.5340   22.0660 C   0  0  0  0  0  3  0  0  0  0  0  0
  -22.5220   -8.3310   21.2970 C   0  0  0  0  0  0  0  0  0  0  0  0
  -22.1430   -9.3000   20.3500 C   0  0  0  0  0  3  0  0  0  0  0  0
  -22.9070  -10.4660   20.1780 C   0  0  0  0  0  3  0  0  0  0  0  0
  -21.7310   -7.2110   21.3720 O   0  0  0  0  0  0  0  0  0  0  0  0
  -21.6530   -6.4650   22.5190 C   0  0  0  0  0  0  0  0  0  0  0  0
  -21.1870   -7.0160   23.7340 C   0  0  0  0  0  3  0  0  0  0  0  0
  -21.0560   -6.1960   24.8740 C   0  0  0  0  0  3  0  0  0  0  0  0
  -21.3820   -4.8280   24.7990 C   0  0  0  0  0  0  0  0  0  0  0  0
  -21.8440   -4.2790   23.5920 C   0  0  0  0  0  3  0  0  0  0  0  0
  -21.9760   -5.0940   22.4550 C   0  0  0  0  0  0  0  0  0  0  0  0
  -22.4020   -4.5550   21.2870 F   0  0  0  0  0  0  0  0  0  0  0  0
  -21.2490   -4.0410   25.8950 F   0  0  0  0  0  0  0  0  0  0  0  0
  -23.0030  -13.8030   21.0760 C   0  0  0  0  0  0  0  0  0  0  0  0
  -22.2570  -13.1360   21.9430 N   0  0  0  0  0  0  0  0  0  0  0  0
  -22.5950  -14.8390   20.5470 O   0  0  0  0  0  0  0  0  0  0  0  0
  -22.6080  -12.3010   22.3880 H   0  0  0  0  0  0  0  0  0  0  0  0
  -21.3250  -13.4580   22.1600 H   0  0  0  0  0  0  0  0  0  0  0  0
  -25.6690  -15.3950   20.3050 N   0  0  0  0  0  0  0  0  0  0  0  0
  -24.9160  -16.0670   20.4190 H   0  0  0  0  0  0  0  0  0  0  0  0
  -26.5280  -15.8110   19.9770 H   0  0  0  0  0  0  0  0  0  0  0  0
  1 48  1  0
  1  3  1  0
  3  5  1  0
  3  2  1  0
  5  4  1  0
  6  5  1  0
  6  7  1  0
  8 19  2  0
  9  7  1  0
  9 14  1  0
 10 18  1  0
 10 20  1  0
 11 13  1  0
 12 18  1  0
 13 14  2  0
 13 12  1  0
 15  9  2  0
 16 15  1  0
 16 11  2  0
 17 11  1  0
 17 10  1  0
 18  8  1  0
 20 22  2  0
 21 20  1  0
 23 21  1  0
 24 33  2  0
 24 29  1  0
 25 21  1  0
 25 29  1  0
 26 25  1  0
 27 28  1  0
 27 26  1  0
 28 24  1  0
 29 30  2  0
 30 31  1  0
 32 31  2  0
 33 32  1  0
 34  8  1  0
 34 39  1  0
 34 35  1  0
 35 38  1  1
 35 36  1  0
 37 35  1  0
 39 42  1  0
 40 44  1  0
 40 39  1  0
 41 40  2  0
 44 43  1  0
 46 44  1  0
 46 47  1  0
 46 45  1  0
 50 51  1  0
 51 49  1  0
 51 48  1  0
 52  1  1  0
 52 57  1  0
 53 52  1  0
 54 53  1  0
 55 53  1  0
 56 53  1  0
 58 64  1  0
 58 57  1  0
 59 64  1  0
 60 61  1  0
 60 59  1  0
 62 61  1  0
 62 69  1  0
 62 63  1  0
 64 63  1  0
 65 58  2  0
 66 67  2  0
 67 86  1  0
 68 67  1  0
 68 71  1  0
 69 66  1  0
 69 70  1  0
 70 68  2  0
 71 72  1  0
 72 73  2  0
 74 77  1  0
 74 73  1  0
 75 74  2  0
 76 75  1  0
 76 71  2  0
 77 78  1  0
 78 79  1  0
 79 80  2  0
 81 80  1  0
 81 85  1  0
 82 81  2  0
 83 78  2  0
 83 82  1  0
 84 83  1  0
 86 87  1  0
 87 90  1  0
 87 89  1  0
 88 86  2  0
 91 92  1  0
 91 66  1  0
 93 91  1  0
M  ISO  4   6 101   7 101  57 100  58 100
M  END
>  <TORSDO>  (50) 
F 24

>  <SCORE>  (50) 
-13.307

>  <name>  (50) 
49

>  <ligand_id>  (50) 
49

>  <original_smiles>  (50) 
[H]c1c([H])c([H])c2c(c1[H])C([H])([H])C([H])([H])C([H])([H])C2([H])N([H])C(=O)C1([H])N(C(=O)C([H])(N([H])C(=O)C([H])(N([H])C([H])([H])[H])C([H])([H])[H])C(C([H])([H])[H])(C([H])([H])[H])C([H])([H])[H])C([H])([H])c2c([H])c(OC([H])([H])C([H])(N(C([H])([H])[H])C([H])(C([H])([H])C([H])(C([H])([H])[H])C([H])([H])[H])C([H])(C([H])([H])C(=O)N3C([H])([H])C([H])([H])C([H])([H])C([H])(n4nc(-c5c([H])c([H])c(Oc6c([H])c([H])c(F)c([H])c6F)c([H])c5[H])c(C(=O)N([H])[H])c4N([H])[H])C3([H])[H])[N+]([H])([H])[H])C([H])([H])[H])c([H])c([H])c2C1([H])[H]

>  <smiles>  (50) 
[H]c1c([H])c([H])c2c(c1[H])C([H])([H])C([H])([H])C([H])([H])C2([H])N([H])C(=O)C1([H])N(C(=O)C([H])(N([H])C(=O)C([H])(N([H])C([H])([H])[H])C([H])([H])[H])C(C([H])([H])[H])(C([H])([H])[H])C([H])([H])[H])C([H])([H])c2c([H])c(OC([H])([H])C([H])(N(C([H])([H])[H])C([H])(C([H])([H])C([H])(C([H])([H])[H])C([H])([H])[H])C([H])(C([H])([H])C(=O)N3C([H])([H])C([H])([H])C([H])([H])C([H])(n4nc(-c5c([H])c([H])c(Oc6c([H])c([H])c(F)c([H])c6F)c([H])c5[H])c(C(=O)N([H])[H])c4N([H])[H])C3([H])[H])[N+]([H])([H])[H])C([H])([H])[H])c([H])c([H])c2C1([H])[H]

$$$$
50:0:0
     RDKit          3D

 89 96  0  0  1  0  0  0  0  0999 V2000
  -27.8500  -20.9900   21.6510 C   0  0  0  0  0  1  0  0  0  0  0  0
  -28.5250  -21.2220   20.3520 N   0  0  2  0  0  4  0  0  0  0  0  0
  -27.7480  -21.4150   19.7360 H   0  0  0  0  0  0  0  0  0  0  0  0
  -29.4720  -20.1400   18.2470 C   0  0  0  0  0  1  0  0  0  0  0  0
  -29.0570  -19.9150   19.7100 C   0  0  0  0  0  3  0  0  0  0  0  0
  -31.4790  -18.8840   19.9900 C   0  0  0  0  0  1  0  0  0  0  0  0
  -30.0210  -18.8730   20.5090 C   0  0  0  0  0  3  0  0  0  0  0  0
  -29.8540  -16.0620   20.6490 C   0  0  0  0  0  0  0  0  0  0  0  0
  -29.4530  -17.3990   20.7480 C   0  0  0  0  0  3  0  0  0  0  0  0
  -30.8110  -14.9200   20.3580 C   0  0  0  0  0  0  0  0  0  0  0  0
  -30.6780  -12.6220   19.3850 C   0  0  0  0  0  2  0  0  0  0  0  0
  -29.7550  -12.6840   18.1480 C   0  0  0  0  0  2  0  0  0  0  0  0
  -28.2760  -12.5220   18.5500 C   0  0  0  0  0  2  0  0  0  0  0  0
  -27.8860  -13.4190   19.7550 C   0  0  0  0  0  3  0  0  0  0  0  0
  -28.9240  -13.3140   20.8900 C   0  0  0  0  0  2  0  0  0  0  0  0
  -30.2330  -13.6700   20.3280 N   0  0  0  0  0  0  0  0  0  0  0  0
  -32.0070  -15.0200   20.0310 O   0  0  0  0  0  0  0  0  0  0  0  0
  -25.4920  -14.0200   20.4460 C   0  0  0  0  0  0  0  0  0  0  0  0
  -24.4180  -13.2490   20.8050 C   0  0  0  0  0  0  0  0  0  0  0  0
  -24.8800  -11.8960   20.7840 C   0  0  0  0  0  0  0  0  0  0  0  0
  -26.5350  -13.1360   20.2260 N   0  0  0  0  0  0  0  0  0  0  0  0
  -26.1730  -11.8550   20.4940 N   0  0  0  0  0  0  0  0  0  0  0  0
  -24.1480  -10.6340   20.9700 C   0  0  0  0  0  0  0  0  0  0  0  0
  -24.5340   -9.6940   21.9510 C   0  0  0  0  0  3  0  0  0  0  0  0
  -23.8050   -8.4970   22.1210 C   0  0  0  0  0  3  0  0  0  0  0  0
  -22.6770   -8.2320   21.3100 C   0  0  0  0  0  0  0  0  0  0  0  0
  -22.3110   -9.1610   20.3200 C   0  0  0  0  0  3  0  0  0  0  0  0
  -23.0400  -10.3490   20.1470 C   0  0  0  0  0  3  0  0  0  0  0  0
  -21.9240   -7.0840   21.3860 O   0  0  0  0  0  0  0  0  0  0  0  0
  -21.7780   -6.3990   22.5650 C   0  0  0  0  0  0  0  0  0  0  0  0
  -21.1970   -6.9940   23.7070 C   0  0  0  0  0  3  0  0  0  0  0  0
  -21.0040   -6.2310   24.8760 C   0  0  0  0  0  3  0  0  0  0  0  0
  -21.3800   -4.8750   24.9030 C   0  0  0  0  0  0  0  0  0  0  0  0
  -21.9570   -4.2800   23.7650 C   0  0  0  0  0  3  0  0  0  0  0  0
  -22.1530   -5.0400   22.6000 C   0  0  0  0  0  0  0  0  0  0  0  0
  -22.6870   -4.4580   21.4990 F   0  0  0  0  0  0  0  0  0  0  0  0
  -21.1890   -4.1370   26.0220 F   0  0  0  0  0  0  0  0  0  0  0  0
  -23.0190  -13.7280   21.0570 C   0  0  0  0  0  0  0  0  0  0  0  0
  -22.2740  -13.0310   21.9060 N   0  0  0  0  0  0  0  0  0  0  0  0
  -22.5910  -14.7580   20.5350 O   0  0  0  0  0  0  0  0  0  0  0  0
  -22.6300  -12.1950   22.3500 H   0  0  0  0  0  0  0  0  0  0  0  0
  -21.3370  -13.3380   22.1220 H   0  0  0  0  0  0  0  0  0  0  0  0
  -25.6670  -15.3870   20.2660 N   0  0  0  0  0  0  0  0  0  0  0  0
  -24.9130  -16.0560   20.3780 H   0  0  0  0  0  0  0  0  0  0  0  0
  -26.5310  -15.8110   19.9550 H   0  0  0  0  0  0  0  0  0  0  0  0
  -29.2710  -22.5670   20.3270 C   0  0  0  0  0  2  0  0  0  0  0  0
  -28.4680  -23.9020   19.8560 C   0  0  0  0  0  2  0  0  0  0  0  0
  -28.5360  -25.2690   20.7160 C   0  0  0  0  0  2  0  0  0  0  0  0
  -28.5140  -26.6410   20.1250 O   0  0  0  0  0  0  0  0  0  0  0  0
  -24.6430  -31.9420   23.2520 C   0  0  0  0  0  0  0  0  0  0  0  0
  -27.3660  -27.4480   20.1760 C   0  0  0  0  0  0  0  0  0  0  0  0
  -23.4830  -30.5360   21.5870 C   0  0  0  0  0  3  0  0  0  0  0  0
  -24.9740  -29.0220   20.1620 C   0  0  0  0  0  0  0  0  0  0  0  0
  -26.0170  -30.9060   21.4240 C   0  0  0  0  0  2  0  0  0  0  0  0
  -26.1310  -29.5330   20.7630 C   0  0  0  0  0  0  0  0  0  0  0  0
  -27.3350  -28.7640   20.7430 C   0  0  0  0  0  3  0  0  0  0  0  0
  -26.1830  -26.9810   19.5680 C   0  0  0  0  0  3  0  0  0  0  0  0
  -25.0030  -27.7550   19.5510 C   0  0  0  0  0  3  0  0  0  0  0  0
  -23.7220  -29.8750   20.2030 C   0  0  0  0  0  2  0  0  0  0  0  0
  -24.7330  -31.1450   22.1450 N   0  0  0  0  0  0  0  0  0  0  0  0
  -23.5500  -32.1930   23.7790 O   0  0  0  0  0  0  0  0  0  0  0  0
  -22.8260  -29.5000   22.5310 C   0  0  0  0  0  0  0  0  0  0  0  0
  -21.5020  -29.3140   22.3990 N   0  0  0  0  0  0  0  0  0  0  0  0
  -23.5090  -28.8670   23.3410 O   0  0  0  0  0  0  0  0  0  0  0  0
  -21.0130  -29.8760   21.7170 H   0  0  0  0  0  0  0  0  0  0  0  0
  -18.1290  -28.0920   22.8810 C   0  0  0  0  0  0  0  0  0  0  0  0
  -20.6870  -28.3560   23.1500 C   0  0  0  0  0  3  0  0  0  0  0  0
  -20.7940  -26.9380   22.5410 C   0  0  0  0  0  2  0  0  0  0  0  0
  -19.6900  -26.6340   21.5230 C   0  0  0  0  0  2  0  0  0  0  0  0
  -18.3100  -26.7580   22.1750 C   0  0  0  0  0  2  0  0  0  0  0  0
  -19.2460  -28.8500   23.3230 C   0  0  0  0  0  0  0  0  0  0  0  0
  -19.0210  -30.0980   23.9440 C   0  0  0  0  0  3  0  0  0  0  0  0
  -17.7150  -30.5880   24.1240 C   0  0  0  0  0  3  0  0  0  0  0  0
  -16.6140  -29.8260   23.6990 C   0  0  0  0  0  3  0  0  0  0  0  0
  -16.8210  -28.5800   23.0830 C   0  0  0  0  0  3  0  0  0  0  0  0
  -25.9070  -32.5920   23.8950 C   0  0  0  0  0  3  0  0  0  0  0  0
  -25.5780  -33.9900   24.2120 N   0  0  0  0  0  0  0  0  0  0  0  0
  -25.9190  -35.0420   23.4560 C   0  0  0  0  0  0  0  0  0  0  0  0
  -26.6110  -34.9380   22.4400 O   0  0  0  0  0  0  0  0  0  0  0  0
  -24.9620  -34.1430   24.9960 H   0  0  0  0  0  0  0  0  0  0  0  0
  -24.1940  -36.8280   23.0500 C   0  0  0  0  0  1  0  0  0  0  0  0
  -25.4130  -36.4300   23.8960 C   0  0  0  0  0  3  0  0  0  0  0  0
  -27.5130  -37.3310   24.7940 C   0  0  0  0  0  1  0  0  0  0  0  0
  -26.4450  -37.4870   23.8110 N   0  0  0  0  0  0  0  0  0  0  0  0
  -26.0300  -38.4060   23.9370 H   0  0  0  0  0  0  0  0  0  0  0  0
  -26.4040  -31.8340   25.1870 C   0  0  1  0  0  0  0  0  0  0  0  0
  -25.2900  -31.5900   26.2310 C   0  0  0  0  0  1  0  0  0  0  0  0
  -27.0090  -30.4610   24.8160 C   0  0  0  0  0  1  0  0  0  0  0  0
  -27.5310  -32.6460   25.8700 C   0  0  0  0  0  1  0  0  0  0  0  0
  2  1  1  0
  2  3  1  6
  5  4  1  0
  5  2  1  0
  5  7  1  0
  7  6  1  0
  7  9  1  0
  8  9  2  0
 10  8  2  0
 11 16  1  0
 12 13  1  0
 12 11  1  0
 14 13  1  0
 14 21  1  0
 14 15  1  0
 16 10  1  0
 16 15  1  0
 17 10  2  0
 18 19  2  0
 19 38  1  0
 20 19  1  0
 20 23  1  0
 21 18  1  0
 21 22  1  0
 22 20  2  0
 23 24  1  0
 24 25  2  0
 26 29  1  0
 26 25  1  0
 27 26  2  0
 28 27  1  0
 28 23  2  0
 29 30  1  0
 30 35  2  0
 30 31  1  0
 31 32  2  0
 32 33  1  0
 33 37  1  0
 34 33  2  0
 35 34  1  0
 36 35  1  0
 38 39  1  0
 39 42  1  0
 39 41  1  0
 40 38  2  0
 43 44  1  0
 43 18  1  0
 45 43  1  0
 46  2  1  0
 47 46  1  0
 47 48  1  0
 49 51  1  0
 49 48  1  0
 50 61  2  0
 51 56  1  0
 52 60  1  0
 52 62  1  0
 53 59  1  0
 53 55  1  0
 54 60  1  0
 55 54  1  0
 56 55  2  0
 57 51  2  0
 58 57  1  0
 58 53  2  0
 59 52  1  0
 60 50  1  0
 62 64  2  0
 63 62  1  0
 65 63  1  0
 66 75  2  0
 66 71  1  0
 67 63  1  0
 67 71  1  0
 68 67  1  0
 69 70  1  0
 69 68  1  0
 70 66  1  0
 71 72  2  0
 72 73  1  0
 74 73  2  0
 75 74  1  0
 76 50  1  0
 76 77  1  0
 76 86  1  0
 77 80  1  0
 78 82  1  0
 78 77  1  0
 79 78  2  0
 82 81  1  0
 84 82  1  0
 84 85  1  0
 84 83  1  0
 86 89  1  1
 86 87  1  0
 88 86  1  0
M  ISO  4   8 100  10 100  48 101  49 101
M  END
>  <TORSDO>  (51) 
F 22

>  <SCORE>  (51) 
-12.215

>  <name>  (51) 
50

>  <ligand_id>  (51) 
50

>  <original_smiles>  (51) 
[H]C(C(=O)N1C([H])([H])C([H])([H])C([H])([H])C([H])(n2nc(-c3c([H])c([H])c(Oc4c([H])c([H])c(F)c([H])c4F)c([H])c3[H])c(C(=O)N([H])[H])c2N([H])[H])C1([H])[H])=C([H])C([H])(C([H])([H])[H])C([H])(C([H])([H])[H])[N+]([H])(C([H])([H])[H])C([H])([H])C([H])([H])C([H])([H])Oc1c([H])c([H])c2c(c1[H])C([H])([H])N(C(=O)C([H])(N([H])C(=O)C([H])(N([H])C([H])([H])[H])C([H])([H])[H])C(C([H])([H])[H])(C([H])([H])[H])C([H])([H])[H])C([H])(C(=O)N([H])C1([H])c3c([H])c([H])c([H])c([H])c3C([H])([H])C([H])([H])C1([H])[H])C2([H])[H]

>  <smiles>  (51) 
[H]C(C(=O)N1C([H])([H])C([H])([H])C([H])([H])C([H])(n2nc(-c3c([H])c([H])c(Oc4c([H])c([H])c(F)c([H])c4F)c([H])c3[H])c(C(=O)N([H])[H])c2N([H])[H])C1([H])[H])=C([H])C([H])(C([H])([H])[H])C([H])(C([H])([H])[H])[N+]([H])(C([H])([H])[H])C([H])([H])C([H])([H])C([H])([H])Oc1c([H])c([H])c2c(c1[H])C([H])([H])N(C(=O)C([H])(N([H])C(=O)C([H])(N([H])C([H])([H])[H])C([H])([H])[H])C(C([H])([H])[H])(C([H])([H])[H])C([H])([H])[H])C([H])(C(=O)N([H])C1([H])c3c([H])c([H])c([H])c([H])c3C([H])([H])C([H])([H])C1([H])[H])C2([H])[H]

$$$$
51:0:0
     RDKit          3D

 82 86  0  0  1  0  0  0  0  0999 V2000
  -28.1520  -24.6060   20.2840 O   0  0  0  0  0  1  0  0  0  0  0  0
  -24.7300  -31.7590   23.1070 C   0  0  0  0  0  0  0  0  0  0  0  0
  -27.2440  -26.1030   20.2500 C   0  0  0  0  0  0  0  0  0  0  0  0
  -23.5820  -30.3350   21.4750 C   0  0  0  0  0  3  0  0  0  0  0  0
  -25.0420  -28.5410   20.1370 C   0  0  0  0  0  0  0  0  0  0  0  0
  -26.1830  -30.2840   21.4590 C   0  0  0  0  0  2  0  0  0  0  0  0
  -26.2420  -28.7760   20.8170 C   0  0  0  0  0  0  0  0  0  0  0  0
  -27.2920  -27.6110   20.8200 C   0  0  0  0  0  3  0  0  0  0  0  0
  -26.0040  -26.2410   19.5080 C   0  0  0  0  0  3  0  0  0  0  0  0
  -25.0010  -27.3020   19.4560 C   0  0  0  0  0  3  0  0  0  0  0  0
  -23.8670  -29.5720   20.1380 C   0  0  0  0  0  2  0  0  0  0  0  0
  -24.8640  -30.8420   22.0660 N   0  0  0  0  0  0  0  0  0  0  0  0
  -23.6190  -32.0950   23.5650 O   0  0  0  0  0  0  0  0  0  0  0  0
  -22.7880  -29.4300   22.4610 C   0  0  0  0  0  0  0  0  0  0  0  0
  -21.4470  -29.3400   22.3410 N   0  0  0  0  0  0  0  0  0  0  0  0
  -23.4040  -28.7950   23.3190 O   0  0  0  0  0  0  0  0  0  0  0  0
  -20.9910  -29.9000   21.6340 H   0  0  0  0  0  0  0  0  0  0  0  0
  -18.0150  -28.2240   22.8910 C   0  0  0  0  0  0  0  0  0  0  0  0
  -20.5880  -28.4260   23.1140 C   0  0  0  0  0  3  0  0  0  0  0  0
  -20.6380  -26.9950   22.5280 C   0  0  0  0  0  2  0  0  0  0  0  0
  -19.5160  -26.7170   21.5220 C   0  0  0  0  0  2  0  0  0  0  0  0
  -18.1470  -26.8850   22.1850 C   0  0  0  0  0  2  0  0  0  0  0  0
  -19.1600  -28.9560   23.3120 C   0  0  0  0  0  0  0  0  0  0  0  0
  -18.9740  -30.2040   23.9430 C   0  0  0  0  0  3  0  0  0  0  0  0
  -17.6820  -30.7240   24.1510 C   0  0  0  0  0  3  0  0  0  0  0  0
  -16.5550  -29.9920   23.7400 C   0  0  0  0  0  3  0  0  0  0  0  0
  -16.7220  -28.7420   23.1170 C   0  0  0  0  0  3  0  0  0  0  0  0
  -25.9580  -32.4460   23.7870 C   0  0  0  0  0  3  0  0  0  0  0  0
  -25.6060  -33.8480   24.1240 N   0  0  0  0  0  0  0  0  0  0  0  0
  -25.9350  -34.9350   23.4090 C   0  0  0  0  0  0  0  0  0  0  0  0
  -26.6050  -34.8650   22.3780 O   0  0  0  0  0  0  0  0  0  0  0  0
  -25.0040  -33.9750   24.9240 H   0  0  0  0  0  0  0  0  0  0  0  0
  -24.1810  -36.7350   23.1490 C   0  0  0  0  0  1  0  0  0  0  0  0
  -25.4490  -36.3170   23.9100 C   0  0  0  0  0  3  0  0  0  0  0  0
  -27.6000  -37.2200   24.6900 C   0  0  0  0  0  1  0  0  0  0  0  0
  -26.4660  -37.3870   23.7860 N   0  0  0  0  0  0  0  0  0  0  0  0
  -26.0510  -38.2980   23.9650 H   0  0  0  0  0  0  0  0  0  0  0  0
  -26.4220  -31.7060   25.1040 C   0  0  1  0  0  0  0  0  0  0  0  0
  -25.2890  -31.4910   26.1380 C   0  0  0  0  0  1  0  0  0  0  0  0
  -27.0200  -30.3210   24.7840 C   0  0  0  0  0  1  0  0  0  0  0  0
  -27.5480  -32.5140   25.7920 C   0  0  0  0  0  1  0  0  0  0  0  0
  -28.1850  -22.5000   20.2050 C   0  0  0  0  0 15  0  0  0  0  0  0
  -30.2490  -20.5960   21.2950 C   0  0  0  0  0  1  0  0  0  0  0  0
  -29.1990  -20.3690   20.2040 C   0  0  0  0  0  1  0  0  0  0  0  0
  -29.9280  -16.6330   20.1300 C   0  0  0  0  0  0  0  0  0  0  0  0
  -30.3010  -13.8680   19.3530 C   0  0  0  0  0  2  0  0  0  0  0  0
  -29.5430  -13.0210   18.2480 C   0  0  0  0  0  2  0  0  0  0  0  0
  -28.2170  -12.4500   18.7530 C   0  0  0  0  0  2  0  0  0  0  0  0
  -27.5640  -13.4820   19.6830 C   0  0  0  0  0  3  0  0  0  0  0  0
  -28.5190  -14.1810   20.7200 C   0  0  0  0  0  2  0  0  0  0  0  0
  -29.5100  -15.1030   20.0020 N   0  0  0  0  0  0  0  0  0  0  0  0
  -31.1790  -16.4060   20.0760 O   0  0  0  0  0  0  0  0  0  0  0  0
  -27.7460  -18.0080   20.0340 C   0  0  0  0  0  1  0  0  0  0  0  0
  -29.1760  -18.2590   20.1490 N   0  0  0  0  0  2  0  0  0  0  0  0
  -25.2010  -13.8840   20.4580 C   0  0  0  0  0  0  0  0  0  0  0  0
  -24.1650  -13.0750   20.8200 C   0  0  0  0  0  0  0  0  0  0  0  0
  -24.6730  -11.7390   20.7900 C   0  0  0  0  0  0  0  0  0  0  0  0
  -26.2770  -13.0550   20.2260 N   0  0  0  0  0  0  0  0  0  0  0  0
  -25.9730  -11.7480   20.4790 N   0  0  0  0  0  0  0  0  0  0  0  0
  -23.9640  -10.4610   20.9820 C   0  0  0  0  0  0  0  0  0  0  0  0
  -24.4010   -9.5020   21.9230 C   0  0  0  0  0  3  0  0  0  0  0  0
  -23.6830   -8.3000   22.1120 C   0  0  0  0  0  3  0  0  0  0  0  0
  -22.5110   -8.0460   21.3610 C   0  0  0  0  0  0  0  0  0  0  0  0
  -22.0900   -8.9930   20.4110 C   0  0  0  0  0  3  0  0  0  0  0  0
  -22.8100  -10.1870   20.2200 C   0  0  0  0  0  3  0  0  0  0  0  0
  -21.7660   -6.8950   21.4570 O   0  0  0  0  0  0  0  0  0  0  0  0
  -21.7260   -6.1540   22.6120 C   0  0  0  0  0  0  0  0  0  0  0  0
  -21.3030   -6.7100   23.8380 C   0  0  0  0  0  3  0  0  0  0  0  0
  -21.2100   -5.8990   24.9860 C   0  0  0  0  0  3  0  0  0  0  0  0
  -21.5320   -4.5300   24.9090 C   0  0  0  0  0  0  0  0  0  0  0  0
  -21.9480   -3.9730   23.6870 C   0  0  0  0  0  3  0  0  0  0  0  0
  -22.0410   -4.7830   22.5410 C   0  0  0  0  0  0  0  0  0  0  0  0
  -22.4220   -4.2350   21.3620 F   0  0  0  0  0  0  0  0  0  0  0  0
  -21.4370   -3.7470   26.0090 F   0  0  0  0  0  0  0  0  0  0  0  0
  -22.7560  -13.5220   21.0740 C   0  0  0  0  0  0  0  0  0  0  0  0
  -22.0390  -12.8250   21.9450 N   0  0  0  0  0  0  0  0  0  0  0  0
  -22.3020  -14.5320   20.5350 O   0  0  0  0  0  0  0  0  0  0  0  0
  -22.4220  -12.0120   22.4050 H   0  0  0  0  0  0  0  0  0  0  0  0
  -21.0940  -13.1100   22.1600 H   0  0  0  0  0  0  0  0  0  0  0  0
  -25.3160  -15.2580   20.2670 N   0  0  0  0  0  0  0  0  0  0  0  0
  -24.5240  -15.8840   20.3620 H   0  0  0  0  0  0  0  0  0  0  0  0
  -26.1490  -15.7160   19.9220 H   0  0  0  0  0  0  0  0  0  0  0  0
  2 13  2  0
  3  1  1  0
  3  8  1  0
  4 12  1  0
  4 14  1  0
  5 11  1  0
  5  7  1  0
  6 12  1  0
  7  8  2  0
  7  6  1  0
  9  3  2  0
 10  9  1  0
 10  5  2  0
 11  4  1  0
 12  2  1  0
 14 16  2  0
 15 14  1  0
 17 15  1  0
 18 27  2  0
 18 23  1  0
 19 15  1  0
 19 23  1  0
 20 19  1  0
 21 22  1  0
 21 20  1  0
 22 18  1  0
 23 24  2  0
 24 25  1  0
 26 25  2  0
 27 26  1  0
 28  2  1  0
 28 29  1  0
 28 38  1  0
 29 32  1  0
 30 34  1  0
 30 29  1  0
 31 30  2  0
 34 33  1  0
 36 34  1  0
 36 37  1  0
 36 35  1  0
 38 41  1  1
 38 39  1  0
 40 38  1  0
 44 43  1  0
 45 54  1  0
 46 51  1  0
 47 48  1  0
 47 46  1  0
 49 48  1  0
 49 58  1  0
 49 50  1  0
 51 45  1  0
 51 50  1  0
 52 45  2  0
 53 54  1  0
 55 56  2  0
 56 75  1  0
 57 56  1  0
 57 60  1  0
 58 55  1  0
 58 59  1  0
 59 57  2  0
 60 61  1  0
 61 62  2  0
 63 66  1  0
 63 62  1  0
 64 63  2  0
 65 64  1  0
 65 60  2  0
 66 67  1  0
 67 68  1  0
 68 69  2  0
 70 69  1  0
 70 74  1  0
 71 70  2  0
 72 67  2  0
 72 71  1  0
 73 72  1  0
 75 76  1  0
 76 79  1  0
 76 78  1  0
 77 75  2  0
 80 81  1  0
 80 55  1  0
 82 80  1  0
M  ISO  4   1 101  42 101  45 100  54 100
M  END
>  <TORSDO>  (52) 
F 17

>  <SCORE>  (52) 
-16.382

>  <name>  (52) 
51

>  <ligand_id>  (52) 
51

>  <original_smiles>  (52) 
[H]c1c([H])c([H])c2c(c1[H])C([H])([H])C([H])([H])C([H])([H])C2([H])N([H])C(=O)C1([H])N(C(=O)C([H])(N([H])C(=O)C([H])(N([H])C([H])([H])[H])C([H])([H])[H])C(C([H])([H])[H])(C([H])([H])[H])C([H])([H])[H])C([H])([H])c2c([H])c(OC([H])([H])C([H])(N(C(=O)N3C([H])([H])C([H])([H])C([H])([H])C([H])(n4nc(-c5c([H])c([H])c(Oc6c([H])c([H])c(F)c([H])c6F)c([H])c5[H])c(C(=O)N([H])[H])c4N([H])[H])C3([H])[H])C([H])([H])[H])C([H])([H])[H])c([H])c([H])c2C1([H])[H]

>  <smiles>  (52) 
[H]c1c([H])c([H])c2c(c1[H])C([H])([H])C([H])([H])C([H])([H])C2([H])N([H])C(=O)C1([H])N(C(=O)C([H])(N([H])C(=O)C([H])(N([H])C([H])([H])[H])C([H])([H])[H])C(C([H])([H])[H])(C([H])([H])[H])C([H])([H])[H])C([H])([H])c2c([H])c(OC([H])([H])C([H])(N(C(=O)N3C([H])([H])C([H])([H])C([H])([H])C([H])(n4nc(-c5c([H])c([H])c(Oc6c([H])c([H])c(F)c([H])c6F)c([H])c5[H])c(C(=O)N([H])[H])c4N([H])[H])C3([H])[H])C([H])([H])[H])C([H])([H])[H])c([H])c([H])c2C1([H])[H]

$$$$
52:0:0
     RDKit          3D

 88 95  0  0  1  0  0  0  0  0999 V2000
  -28.6150  -21.9060   20.0920 C   0  0  0  0  0  2  0  0  0  0  0  0
  -29.1590  -19.2930   20.1170 C   0  0  0  0  0  0  0  0  0  0  0  0
  -29.3880  -20.6170   20.5430 N   0  0  0  0  0  0  0  0  0  0  0  0
  -28.3030  -19.1720   19.2430 O   0  0  0  0  0  0  0  0  0  0  0  0
  -30.0860  -20.7420   21.2660 H   0  0  0  0  0  0  0  0  0  0  0  0
  -29.8380  -17.8940   20.6930 C   0  0  0  0  0  2  0  0  0  0  0  0
  -31.0960  -16.9110   18.7380 C   0  0  0  0  0  1  0  0  0  0  0  0
  -28.7630  -16.2660   18.9410 C   0  0  0  0  0  1  0  0  0  0  0  0
  -30.0270  -16.4860   19.7850 C   0  0  2  0  0  0  0  0  0  0  0  0
  -30.5850  -14.9940   20.3410 C   0  0  0  0  0  0  0  0  0  0  0  0
  -30.4040  -12.6170   19.5200 C   0  0  0  0  0  2  0  0  0  0  0  0
  -29.5030  -12.5040   18.2720 C   0  0  0  0  0  2  0  0  0  0  0  0
  -28.0310  -12.2950   18.6830 C   0  0  0  0  0  2  0  0  0  0  0  0
  -27.5780  -13.2590   19.8080 C   0  0  0  0  0  3  0  0  0  0  0  0
  -28.6240  -13.4110   20.9360 C   0  0  0  0  0  2  0  0  0  0  0  0
  -29.9150  -13.7680   20.3260 N   0  0  0  0  0  0  0  0  0  0  0  0
  -31.8120  -14.9020   20.4060 O   0  0  0  0  0  0  0  0  0  0  0  0
  -25.1980  -13.8760   20.5000 C   0  0  0  0  0  0  0  0  0  0  0  0
  -24.1210  -13.1110   20.8480 C   0  0  0  0  0  0  0  0  0  0  0  0
  -24.5840  -11.7600   20.8520 C   0  0  0  0  0  0  0  0  0  0  0  0
  -26.2420  -12.9830   20.3020 N   0  0  0  0  0  0  0  0  0  0  0  0
  -25.8820  -11.7100   20.5850 N   0  0  0  0  0  0  0  0  0  0  0  0
  -23.8530  -10.5040   21.0360 C   0  0  0  0  0  0  0  0  0  0  0  0
  -24.2690   -9.5440   21.9850 C   0  0  0  0  0  3  0  0  0  0  0  0
  -23.5390   -8.3500   22.1570 C   0  0  0  0  0  3  0  0  0  0  0  0
  -22.3810   -8.1080   21.3800 C   0  0  0  0  0  0  0  0  0  0  0  0
  -21.9870   -9.0560   20.4200 C   0  0  0  0  0  3  0  0  0  0  0  0
  -22.7170  -10.2420   20.2450 C   0  0  0  0  0  3  0  0  0  0  0  0
  -21.6240   -6.9650   21.4640 O   0  0  0  0  0  0  0  0  0  0  0  0
  -21.5590   -6.2290   22.6190 C   0  0  0  0  0  0  0  0  0  0  0  0
  -21.1240   -6.7920   23.8380 C   0  0  0  0  0  3  0  0  0  0  0  0
  -21.0070   -5.9810   24.9860 C   0  0  0  0  0  3  0  0  0  0  0  0
  -21.3160   -4.6100   24.9130 C   0  0  0  0  0  0  0  0  0  0  0  0
  -21.7450   -4.0460   23.6980 C   0  0  0  0  0  3  0  0  0  0  0  0
  -21.8640   -4.8550   22.5540 C   0  0  0  0  0  0  0  0  0  0  0  0
  -22.2580   -4.3030   21.3800 F   0  0  0  0  0  0  0  0  0  0  0  0
  -21.1950   -3.8280   26.0120 F   0  0  0  0  0  0  0  0  0  0  0  0
  -22.7170  -13.5960   21.0620 C   0  0  0  0  0  0  0  0  0  0  0  0
  -21.9600  -12.9170   21.9150 N   0  0  0  0  0  0  0  0  0  0  0  0
  -22.3000  -14.6130   20.5100 O   0  0  0  0  0  0  0  0  0  0  0  0
  -22.3100  -12.0940   22.3850 H   0  0  0  0  0  0  0  0  0  0  0  0
  -21.0160  -13.2230   22.1020 H   0  0  0  0  0  0  0  0  0  0  0  0
  -25.3660  -15.2440   20.3060 N   0  0  0  0  0  0  0  0  0  0  0  0
  -24.5960  -15.8980   20.3900 H   0  0  0  0  0  0  0  0  0  0  0  0
  -26.2260  -15.6820   20.0060 H   0  0  0  0  0  0  0  0  0  0  0  0
  -28.9850  -23.4820   20.4890 C   0  0  0  0  0  3  0  0  0  0  0  0
  -28.0080  -24.7590   20.0490 C   0  0  0  0  0  3  0  0  0  0  0  0
  -28.2500  -26.2630   20.2790 O   0  0  0  0  0  0  0  0  0  0  0  0
  -24.5970  -31.8820   23.2430 C   0  0  0  0  0  0  0  0  0  0  0  0
  -27.1750  -27.2100   20.2010 C   0  0  0  0  0  0  0  0  0  0  0  0
  -23.3880  -30.4820   21.6130 C   0  0  0  0  0  3  0  0  0  0  0  0
  -24.8310  -28.9140   20.1800 C   0  0  0  0  0  0  0  0  0  0  0  0
  -25.9360  -30.7650   21.4270 C   0  0  0  0  0  2  0  0  0  0  0  0
  -26.0100  -29.3770   20.7790 C   0  0  0  0  0  0  0  0  0  0  0  0
  -27.1820  -28.5380   20.7750 C   0  0  0  0  0  3  0  0  0  0  0  0
  -25.9700  -26.8410   19.5600 C   0  0  0  0  0  3  0  0  0  0  0  0
  -24.8210  -27.6590   19.5550 C   0  0  0  0  0  3  0  0  0  0  0  0
  -23.5990  -29.8030   20.2330 C   0  0  0  0  0  2  0  0  0  0  0  0
  -24.6600  -31.0630   22.1500 N   0  0  0  0  0  0  0  0  0  0  0  0
  -23.5150  -32.1650   23.7780 O   0  0  0  0  0  0  0  0  0  0  0  0
  -22.7200  -29.4740   22.5800 C   0  0  0  0  0  0  0  0  0  0  0  0
  -21.3920  -29.2970   22.4590 N   0  0  0  0  0  0  0  0  0  0  0  0
  -23.3980  -28.8520   23.4030 O   0  0  0  0  0  0  0  0  0  0  0  0
  -20.9020  -29.8490   21.7680 H   0  0  0  0  0  0  0  0  0  0  0  0
  -18.0190  -28.0820   22.9680 C   0  0  0  0  0  0  0  0  0  0  0  0
  -20.5760  -28.3620   23.2360 C   0  0  0  0  0  3  0  0  0  0  0  0
  -20.6860  -26.9250   22.6730 C   0  0  0  0  0  2  0  0  0  0  0  0
  -19.5880  -26.5880   21.6600 C   0  0  0  0  0  2  0  0  0  0  0  0
  -18.2040  -26.7290   22.3010 C   0  0  0  0  0  2  0  0  0  0  0  0
  -19.1320  -28.8550   23.3920 C   0  0  0  0  0  0  0  0  0  0  0  0
  -18.9040  -30.1200   23.9760 C   0  0  0  0  0  3  0  0  0  0  0  0
  -17.5950  -30.6130   24.1390 C   0  0  0  0  0  3  0  0  0  0  0  0
  -16.4960  -29.8380   23.7300 C   0  0  0  0  0  3  0  0  0  0  0  0
  -16.7090  -28.5750   23.1490 C   0  0  0  0  0  3  0  0  0  0  0  0
  -25.8800  -32.5180   23.8590 C   0  0  0  0  0  3  0  0  0  0  0  0
  -25.5710  -33.9190   24.1880 N   0  0  0  0  0  0  0  0  0  0  0  0
  -25.8990  -34.9730   23.4280 C   0  0  0  0  0  0  0  0  0  0  0  0
  -26.5620  -34.8680   22.3930 O   0  0  0  0  0  0  0  0  0  0  0  0
  -24.9810  -34.0740   24.9920 H   0  0  0  0  0  0  0  0  0  0  0  0
  -24.1700  -36.7700   23.0890 C   0  0  0  0  0  1  0  0  0  0  0  0
  -25.4180  -36.3620   23.8890 C   0  0  0  0  0  3  0  0  0  0  0  0
  -27.5610  -37.2470   24.6990 C   0  0  0  0  0  1  0  0  0  0  0  0
  -26.4510  -37.4140   23.7660 N   0  0  0  0  0  0  0  0  0  0  0  0
  -26.0470  -38.3350   23.9160 H   0  0  0  0  0  0  0  0  0  0  0  0
  -26.3980  -31.7540   25.1400 C   0  0  1  0  0  0  0  0  0  0  0  0
  -25.3080  -31.5260   26.2130 C   0  0  0  0  0  1  0  0  0  0  0  0
  -26.9760  -30.3720   24.7590 C   0  0  0  0  0  1  0  0  0  0  0  0
  -27.5520  -32.5490   25.7930 C   0  0  0  0  0  1  0  0  0  0  0  0
  1 46  1  0
  1  3  1  0
  2  3  1  0
  2  6  1  0
  3  5  1  0
  4  2  2  0
  9  7  1  6
  8  9  1  0
  9 10  1  0
  9  6  1  0
 10 17  2  0
 11 16  1  0
 12 13  1  0
 12 11  1  0
 14 13  1  0
 14 21  1  0
 14 15  1  0
 16 10  1  0
 16 15  1  0
 18 19  2  0
 19 20  1  0
 19 38  1  0
 20 23  1  0
 21 18  1  0
 21 22  1  0
 22 20  2  0
 23 24  1  0
 24 25  2  0
 26 29  1  0
 26 25  1  0
 27 26  2  0
 28 27  1  0
 28 23  2  0
 29 30  1  0
 30 31  1  0
 31 32  2  0
 33 32  1  0
 33 37  1  0
 34 33  2  0
 35 30  2  0
 35 34  1  0
 36 35  1  0
 38 39  1  0
 39 42  1  0
 39 41  1  0
 40 38  2  0
 43 44  1  0
 43 18  1  0
 45 43  1  0
 47 48  1  0
 47 46  2  0
 49 60  2  0
 50 48  1  0
 50 55  1  0
 51 59  1  0
 51 61  1  0
 52 58  1  0
 52 54  1  0
 53 59  1  0
 54 53  1  0
 55 54  2  0
 56 50  2  0
 57 56  1  0
 57 52  2  0
 58 51  1  0
 59 49  1  0
 61 63  2  0
 62 61  1  0
 64 62  1  0
 65 74  2  0
 65 70  1  0
 66 62  1  0
 66 70  1  0
 67 66  1  0
 68 69  1  0
 68 67  1  0
 69 65  1  0
 70 71  2  0
 71 72  1  0
 73 72  2  0
 74 73  1  0
 75 49  1  0
 75 76  1  0
 75 85  1  0
 76 79  1  0
 77 81  1  0
 77 76  1  0
 78 77  2  0
 81 80  1  0
 83 81  1  0
 83 84  1  0
 83 82  1  0
 85 88  1  1
 85 86  1  0
 87 85  1  0
M  ISO  4   9 100  10 100  47 101  48 101
M  END
>  <TORSDO>  (53) 
F 21

>  <SCORE>  (53) 
-13.235

>  <name>  (53) 
52

>  <ligand_id>  (53) 
52

>  <original_smiles>  (53) 
[H]c1c([H])c([H])c2c(c1[H])C([H])([H])C([H])([H])C([H])([H])C2([H])N([H])C(=O)C1([H])N(C(=O)C([H])(N([H])C(=O)C([H])(N([H])C([H])([H])[H])C([H])([H])[H])C(C([H])([H])[H])(C([H])([H])[H])C([H])([H])[H])C([H])([H])c2c([H])c(OC([H])([H])C([H])([H])C([H])([H])N([H])C(=O)C([H])([H])C(C(=O)N3C([H])([H])C([H])([H])C([H])([H])C([H])(n4nc(-c5c([H])c([H])c(Oc6c([H])c([H])c(F)c([H])c6F)c([H])c5[H])c(C(=O)N([H])[H])c4N([H])[H])C3([H])[H])(C([H])([H])[H])C([H])([H])[H])c([H])c([H])c2C1([H])[H]

>  <smiles>  (53) 
[H]c1c([H])c([H])c2c(c1[H])C([H])([H])C([H])([H])C([H])([H])C2([H])N([H])C(=O)C1([H])N(C(=O)C([H])(N([H])C(=O)C([H])(N([H])C([H])([H])[H])C([H])([H])[H])C(C([H])([H])[H])(C([H])([H])[H])C([H])([H])[H])C([H])([H])c2c([H])c(OC([H])([H])C([H])([H])C([H])([H])N([H])C(=O)C([H])([H])C(C(=O)N3C([H])([H])C([H])([H])C([H])([H])C([H])(n4nc(-c5c([H])c([H])c(Oc6c([H])c([H])c(F)c([H])c6F)c([H])c5[H])c(C(=O)N([H])[H])c4N([H])[H])C3([H])[H])(C([H])([H])[H])C([H])([H])[H])c([H])c([H])c2C1([H])[H]

$$$$
53:0:0
     RDKit          3D

 97104  0  0  1  0  0  0  0  0999 V2000
  -30.8950  -19.9280   19.4220 C   0  0  0  0  0  1  0  0  0  0  0  0
  -30.7030  -20.6080   20.7960 C   0  0  0  0  0  3  0  0  0  0  0  0
  -30.8880  -22.0790   20.6360 N   0  0  0  0  0  4  0  0  0  0  0  0
  -31.7960  -22.3270   20.9960 H   0  0  0  0  0  0  0  0  0  0  0  0
  -30.9180  -22.2390   19.6410 H   0  0  0  0  0  0  0  0  0  0  0  0
  -29.8620  -23.0120   22.7250 C   0  0  0  0  0  1  0  0  0  0  0  0
  -29.8460  -22.9970   21.1800 C   0  0  0  0  0  3  0  0  0  0  0  0
  -30.0020  -24.4310   20.5790 C   0  0  0  0  0  2  0  0  0  0  0  0
  -28.7870  -25.3610   20.8140 C   0  0  0  0  0  2  0  0  0  0  0  0
  -28.9450  -26.6810   20.2630 O   0  0  0  0  0  0  0  0  0  0  0  0
  -24.8390  -31.6290   23.3460 C   0  0  0  0  0  0  0  0  0  0  0  0
  -27.7690  -27.4020   20.2190 C   0  0  0  0  0  0  0  0  0  0  0  0
  -23.7550  -30.2450   21.6080 C   0  0  0  0  0  3  0  0  0  0  0  0
  -25.3230  -28.8220   20.1850 C   0  0  0  0  0  0  0  0  0  0  0  0
  -26.2720  -30.7020   21.5280 C   0  0  0  0  0  2  0  0  0  0  0  0
  -26.4360  -29.3630   20.8420 C   0  0  0  0  0  0  0  0  0  0  0  0
  -27.6660  -28.6630   20.8530 C   0  0  0  0  0  3  0  0  0  0  0  0
  -26.6420  -26.8870   19.5410 C   0  0  0  0  0  3  0  0  0  0  0  0
  -25.4200  -27.5840   19.5300 C   0  0  0  0  0  3  0  0  0  0  0  0
  -24.0430  -29.6280   20.2150 C   0  0  0  0  0  2  0  0  0  0  0  0
  -24.9710  -30.8720   22.2200 N   0  0  0  0  0  0  0  0  0  0  0  0
  -23.7280  -31.8420   23.8500 O   0  0  0  0  0  0  0  0  0  0  0  0
  -23.1080  -29.1640   22.5030 C   0  0  0  0  0  0  0  0  0  0  0  0
  -21.7890  -28.9650   22.3420 N   0  0  0  0  0  0  0  0  0  0  0  0
  -23.7870  -28.5110   23.3000 O   0  0  0  0  0  0  0  0  0  0  0  0
  -21.3010  -29.5480   21.6770 H   0  0  0  0  0  0  0  0  0  0  0  0
  -18.4260  -27.6980   22.7270 C   0  0  0  0  0  0  0  0  0  0  0  0
  -20.9760  -27.9750   23.0480 C   0  0  0  0  0  3  0  0  0  0  0  0
  -21.1060  -26.5800   22.3960 C   0  0  0  0  0  2  0  0  0  0  0  0
  -20.0220  -26.2960   21.3510 C   0  0  0  0  0  2  0  0  0  0  0  0
  -18.6300  -26.3890   21.9830 C   0  0  0  0  0  2  0  0  0  0  0  0
  -19.5280  -28.4510   23.2130 C   0  0  0  0  0  0  0  0  0  0  0  0
  -19.2850  -29.6780   23.8670 C   0  0  0  0  0  3  0  0  0  0  0  0
  -17.9720  -30.1540   24.0410 C   0  0  0  0  0  3  0  0  0  0  0  0
  -16.8830  -29.3980   23.5720 C   0  0  0  0  0  3  0  0  0  0  0  0
  -17.1110  -28.1720   22.9220 C   0  0  0  0  0  3  0  0  0  0  0  0
  -26.0750  -32.2850   24.0390 C   0  0  0  0  0  3  0  0  0  0  0  0
  -26.5670  -31.4920   25.3120 C   0  0  1  0  0  0  0  0  0  0  0  0
  -25.4410  -31.1830   26.3260 C   0  0  0  0  0  1  0  0  0  0  0  0
  -27.2140  -30.1480   24.9010 C   0  0  0  0  0  1  0  0  0  0  0  0
  -27.6620  -32.3030   26.0430 C   0  0  0  0  0  1  0  0  0  0  0  0
  -25.7040  -33.6610   24.3950 N   0  0  0  0  0  0  0  0  0  0  0  0
  -26.0270  -34.7450   23.6770 C   0  0  0  0  0  0  0  0  0  0  0  0
  -26.7400  -34.6940   22.6700 O   0  0  0  0  0  0  0  0  0  0  0  0
  -25.0770  -33.7720   25.1770 H   0  0  0  0  0  0  0  0  0  0  0  0
  -24.2380  -36.4730   23.3100 C   0  0  0  0  0  1  0  0  0  0  0  0
  -25.4710  -36.1020   24.1490 C   0  0  0  0  0  3  0  0  0  0  0  0
  -27.5420  -37.0500   25.0620 C   0  0  0  0  0  1  0  0  0  0  0  0
  -26.4630  -37.1970   24.0900 N   0  0  0  0  0  0  0  0  0  0  0  0
  -26.0160  -38.0960   24.2480 H   0  0  0  0  0  0  0  0  0  0  0  0
  -31.6490  -20.0110   21.8940 C   0  0  0  0  0  3  0  0  0  0  0  0
  -34.0090  -20.0530   22.9160 C   0  0  0  0  0  1  0  0  0  0  0  0
  -33.1480  -20.3340   21.6730 C   0  0  0  0  0  2  0  0  0  0  0  0
  -31.5890  -18.5420   21.9580 N   0  0  0  0  0  0  0  0  0  0  0  0
  -31.5650  -18.1590   21.0200 H   0  0  0  0  0  0  0  0  0  0  0  0
  -30.5700  -17.8920   22.7860 C   0  0  0  0  0  3  0  0  0  0  0  0
  -29.6680  -19.5440   24.5200 C   0  0  0  0  0  1  0  0  0  0  0  0
  -30.6360  -18.3850   24.2530 C   0  0  0  0  0  2  0  0  0  0  0  0
  -32.0570  -15.8650   23.3750 C   0  0  0  0  0  1  0  0  0  0  0  0
  -30.7590  -16.3400   22.6880 C   0  0  0  0  0  3  0  0  0  0  0  0
  -30.5560  -15.8500   21.2270 C   0  0  0  0  0  2  0  0  0  0  0  0
  -31.2490  -14.5460   20.7580 C   0  0  0  0  0  0  0  0  0  0  0  0
  -30.9090  -12.5220   19.3880 C   0  0  0  0  0  2  0  0  0  0  0  0
  -30.0650  -12.9010   18.1520 C   0  0  0  0  0  2  0  0  0  0  0  0
  -28.5620  -12.7940   18.4740 C   0  0  0  0  0  2  0  0  0  0  0  0
  -28.1810  -13.5320   19.7840 C   0  0  0  0  0  3  0  0  0  0  0  0
  -29.1490  -13.1720   20.9320 C   0  0  0  0  0  2  0  0  0  0  0  0
  -30.5210  -13.4290   20.4800 N   0  0  0  0  0  0  0  0  0  0  0  0
  -32.4310  -14.6490   20.4260 O   0  0  0  0  0  0  0  0  0  0  0  0
  -25.7360  -14.1810   20.2560 C   0  0  0  0  0  0  0  0  0  0  0  0
  -24.6310  -13.4290   20.5590 C   0  0  0  0  0  0  0  0  0  0  0  0
  -25.0840  -12.0770   20.6310 C   0  0  0  0  0  0  0  0  0  0  0  0
  -26.7900  -13.2850   20.1560 N   0  0  0  0  0  0  0  0  0  0  0  0
  -26.3960  -12.0160   20.4400 N   0  0  0  0  0  0  0  0  0  0  0  0
  -24.3330  -10.8270   20.8070 C   0  0  0  0  0  0  0  0  0  0  0  0
  -24.6510   -9.9090   21.8330 C   0  0  0  0  0  3  0  0  0  0  0  0
  -23.9020   -8.7230   21.9890 C   0  0  0  0  0  3  0  0  0  0  0  0
  -22.8200   -8.4460   21.1180 C   0  0  0  0  0  0  0  0  0  0  0  0
  -22.5260   -9.3510   20.0810 C   0  0  0  0  0  3  0  0  0  0  0  0
  -23.2760  -10.5280   19.9230 C   0  0  0  0  0  3  0  0  0  0  0  0
  -22.0520   -7.3090   21.1820 O   0  0  0  0  0  0  0  0  0  0  0  0
  -21.8110   -6.6700   22.3720 C   0  0  0  0  0  0  0  0  0  0  0  0
  -21.2590   -7.3440   23.4830 C   0  0  0  0  0  3  0  0  0  0  0  0
  -20.9610   -6.6330   24.6610 C   0  0  0  0  0  3  0  0  0  0  0  0
  -21.2100   -5.2490   24.7320 C   0  0  0  0  0  0  0  0  0  0  0  0
  -21.7560   -4.5740   23.6260 C   0  0  0  0  0  3  0  0  0  0  0  0
  -22.0550   -5.2830   22.4500 C   0  0  0  0  0  0  0  0  0  0  0  0
  -22.5600   -4.6240   21.3790 F   0  0  0  0  0  0  0  0  0  0  0  0
  -20.9190   -4.5650   25.8620 F   0  0  0  0  0  0  0  0  0  0  0  0
  -23.2180  -13.9240   20.6810 C   0  0  0  0  0  0  0  0  0  0  0  0
  -22.4240  -13.3040   21.5490 N   0  0  0  0  0  0  0  0  0  0  0  0
  -22.8220  -14.8950   20.0390 O   0  0  0  0  0  0  0  0  0  0  0  0
  -22.7530  -12.5180   22.0910 H   0  0  0  0  0  0  0  0  0  0  0  0
  -21.4740  -13.6220   21.6760 H   0  0  0  0  0  0  0  0  0  0  0  0
  -25.9290  -15.5410   20.0380 N   0  0  0  0  0  0  0  0  0  0  0  0
  -25.1650  -16.2080   20.0500 H   0  0  0  0  0  0  0  0  0  0  0  0
  -26.8120  -15.9570   19.7700 H   0  0  0  0  0  0  0  0  0  0  0  0
  2  1  1  0
  2 51  1  0
  3  2  1  0
  3  4  1  0
  3  7  1  0
  5  3  1  0
  7  6  1  0
  8  9  1  0
  8  7  1  0
 10  9  1  0
 11 22  2  0
 12 10  1  0
 12 17  1  0
 13 21  1  0
 13 23  1  0
 14 20  1  0
 14 16  1  0
 15 21  1  0
 16 17  2  0
 16 15  1  0
 18 12  2  0
 19 18  1  0
 19 14  2  0
 20 13  1  0
 21 11  1  0
 23 25  2  0
 24 23  1  0
 26 24  1  0
 27 36  2  0
 27 32  1  0
 28 24  1  0
 28 32  1  0
 29 28  1  0
 30 31  1  0
 30 29  1  0
 31 27  1  0
 32 33  2  0
 33 34  1  0
 35 34  2  0
 36 35  1  0
 37 11  1  0
 37 42  1  0
 37 38  1  0
 38 41  1  1
 38 39  1  0
 40 38  1  0
 42 45  1  0
 43 47  1  0
 43 42  1  0
 44 43  2  0
 47 46  1  0
 49 47  1  0
 49 50  1  0
 49 48  1  0
 51 53  1  0
 51 54  1  0
 53 52  1  0
 54 56  1  0
 55 54  1  0
 56 58  1  0
 58 57  1  0
 60 56  1  0
 60 59  1  0
 61 60  1  0
 62 61  1  0
 63 68  1  0
 64 65  1  0
 64 63  1  0
 66 65  1  0
 66 73  1  0
 66 67  1  0
 68 62  1  0
 68 67  1  0
 69 62  2  0
 70 71  2  0
 71 72  1  0
 71 90  1  0
 72 75  1  0
 73 70  1  0
 73 74  1  0
 74 72  2  0
 75 76  1  0
 76 77  2  0
 78 81  1  0
 78 77  1  0
 79 78  2  0
 80 79  1  0
 80 75  2  0
 81 82  1  0
 82 87  2  0
 82 83  1  0
 83 84  2  0
 84 85  1  0
 85 89  1  0
 86 85  2  0
 87 86  1  0
 88 87  1  0
 90 91  1  0
 91 94  1  0
 91 93  1  0
 92 90  2  0
 95 96  1  0
 95 70  1  0
 97 95  1  0
M  ISO  4   9 101  10 101  61 100  62 100
M  END
>  <TORSDO>  (54) 
F 27

>  <SCORE>  (54) 
-5.461

>  <name>  (54) 
53

>  <ligand_id>  (54) 
53

>  <original_smiles>  (54) 
[H]c1c([H])c([H])c2c(c1[H])C([H])([H])C([H])([H])C([H])([H])C2([H])N([H])C(=O)C1([H])N(C(=O)C([H])(N([H])C(=O)C([H])(N([H])C([H])([H])[H])C([H])([H])[H])C(C([H])([H])[H])(C([H])([H])[H])C([H])([H])[H])C([H])([H])c2c([H])c(OC([H])([H])C([H])([H])C([H])(C([H])([H])[H])[N+]([H])([H])C([H])(C([H])([H])[H])C([H])(N([H])C([H])(C([H])([H])C([H])([H])[H])C([H])(C([H])([H])[H])C([H])([H])C(=O)N3C([H])([H])C([H])([H])C([H])([H])C([H])(n4nc(-c5c([H])c([H])c(Oc6c([H])c([H])c(F)c([H])c6F)c([H])c5[H])c(C(=O)N([H])[H])c4N([H])[H])C3([H])[H])C([H])([H])C([H])([H])[H])c([H])c([H])c2C1([H])[H]

>  <smiles>  (54) 
[H]c1c([H])c([H])c2c(c1[H])C([H])([H])C([H])([H])C([H])([H])C2([H])N([H])C(=O)C1([H])N(C(=O)C([H])(N([H])C(=O)C([H])(N([H])C([H])([H])[H])C([H])([H])[H])C(C([H])([H])[H])(C([H])([H])[H])C([H])([H])[H])C([H])([H])c2c([H])c(OC([H])([H])C([H])([H])C([H])(C([H])([H])[H])[N+]([H])([H])C([H])(C([H])([H])[H])C([H])(N([H])C([H])(C([H])([H])C([H])([H])[H])C([H])(C([H])([H])[H])C([H])([H])C(=O)N3C([H])([H])C([H])([H])C([H])([H])C([H])(n4nc(-c5c([H])c([H])c(Oc6c([H])c([H])c(F)c([H])c6F)c([H])c5[H])c(C(=O)N([H])[H])c4N([H])[H])C3([H])[H])C([H])([H])C([H])([H])[H])c([H])c([H])c2C1([H])[H]

$$$$
54:0:0
     RDKit          3D

 92 99  0  0  1  0  0  0  0  0999 V2000
  -28.6770  -23.3890   19.8390 C   0  0  0  0  0  3  0  0  0  0  0  0
  -29.9990  -23.7050   19.2460 N   0  0  0  0  0  4  0  0  0  0  0  0
  -30.7540  -23.5450   19.8910 H   0  0  0  0  0  0  0  0  0  0  0  0
  -30.0410  -24.6680   18.9520 H   0  0  0  0  0  0  0  0  0  0  0  0
  -30.1690  -23.1390   18.4330 H   0  0  0  0  0  0  0  0  0  0  0  0
  -28.1120  -24.7530   20.6250 C   0  0  0  0  0  2  0  0  0  0  0  0
  -28.3140  -26.2220   20.2100 O   0  0  0  0  0  0  0  0  0  0  0  0
  -24.6950  -31.8480   23.2450 C   0  0  0  0  0  0  0  0  0  0  0  0
  -27.2330  -27.1540   20.2220 C   0  0  0  0  0  0  0  0  0  0  0  0
  -23.4640  -30.4410   21.6350 C   0  0  0  0  0  3  0  0  0  0  0  0
  -24.8890  -28.8470   20.2160 C   0  0  0  0  0  0  0  0  0  0  0  0
  -26.0090  -30.7130   21.4260 C   0  0  0  0  0  2  0  0  0  0  0  0
  -26.0750  -29.3180   20.7930 C   0  0  0  0  0  0  0  0  0  0  0  0
  -27.2500  -28.4880   20.7800 C   0  0  0  0  0  3  0  0  0  0  0  0
  -26.0240  -26.7650   19.6070 C   0  0  0  0  0  3  0  0  0  0  0  0
  -24.8720  -27.5780   19.6130 C   0  0  0  0  0  3  0  0  0  0  0  0
  -23.6600  -29.7410   20.2650 C   0  0  0  0  0  2  0  0  0  0  0  0
  -24.7420  -31.0230   22.1560 N   0  0  0  0  0  0  0  0  0  0  0  0
  -23.6190  -32.1430   23.7850 O   0  0  0  0  0  0  0  0  0  0  0  0
  -22.7960  -29.4460   22.6150 C   0  0  0  0  0  0  0  0  0  0  0  0
  -21.4680  -29.2690   22.4940 N   0  0  0  0  0  0  0  0  0  0  0  0
  -23.4740  -28.8350   23.4440 O   0  0  0  0  0  0  0  0  0  0  0  0
  -20.9780  -29.8120   21.7970 H   0  0  0  0  0  0  0  0  0  0  0  0
  -18.0940  -28.0670   23.0140 C   0  0  0  0  0  0  0  0  0  0  0  0
  -20.6510  -28.3420   23.2810 C   0  0  0  0  0  3  0  0  0  0  0  0
  -20.7580  -26.9000   22.7330 C   0  0  0  0  0  2  0  0  0  0  0  0
  -19.6590  -26.5550   21.7230 C   0  0  0  0  0  2  0  0  0  0  0  0
  -18.2760  -26.7070   22.3630 C   0  0  0  0  0  2  0  0  0  0  0  0
  -19.2090  -28.8420   23.4300 C   0  0  0  0  0  0  0  0  0  0  0  0
  -18.9860  -30.1160   23.9960 C   0  0  0  0  0  3  0  0  0  0  0  0
  -17.6800  -30.6150   24.1540 C   0  0  0  0  0  3  0  0  0  0  0  0
  -16.5790  -29.8370   23.7560 C   0  0  0  0  0  3  0  0  0  0  0  0
  -16.7860  -28.5650   23.1920 C   0  0  0  0  0  3  0  0  0  0  0  0
  -25.9880  -32.4770   23.8460 C   0  0  0  0  0  3  0  0  0  0  0  0
  -26.5180  -31.7050   25.1170 C   0  0  1  0  0  0  0  0  0  0  0  0
  -25.4380  -31.4700   26.1990 C   0  0  0  0  0  1  0  0  0  0  0  0
  -27.0960  -30.3250   24.7260 C   0  0  0  0  0  1  0  0  0  0  0  0
  -27.6800  -32.4930   25.7640 C   0  0  0  0  0  1  0  0  0  0  0  0
  -25.6840  -33.8780   24.1840 N   0  0  0  0  0  0  0  0  0  0  0  0
  -26.0010  -34.9310   23.4180 C   0  0  0  0  0  0  0  0  0  0  0  0
  -26.6460  -34.8270   22.3710 O   0  0  0  0  0  0  0  0  0  0  0  0
  -25.1000  -34.0310   24.9920 H   0  0  0  0  0  0  0  0  0  0  0  0
  -24.2610  -36.7250   23.1130 C   0  0  0  0  0  1  0  0  0  0  0  0
  -25.5270  -36.3230   23.8860 C   0  0  0  0  0  3  0  0  0  0  0  0
  -27.6850  -37.2120   24.6490 C   0  0  0  0  0  1  0  0  0  0  0  0
  -26.5550  -37.3770   23.7390 N   0  0  0  0  0  0  0  0  0  0  0  0
  -26.1520  -38.2970   23.8950 H   0  0  0  0  0  0  0  0  0  0  0  0
  -28.6570  -21.8460   20.5490 C   0  0  0  0  0  3  0  0  0  0  0  0
  -27.8730  -20.2700   18.8290 C   0  0  0  0  0  1  0  0  0  0  0  0
  -28.9350  -20.4900   19.8140 N   0  0  0  0  0  0  0  0  0  0  0  0
  -29.0910  -19.1080   20.5410 C   0  0  0  0  0  3  0  0  0  0  0  0
  -29.6850  -17.7010   19.8520 C   0  0  0  0  0  3  0  0  0  0  0  0
  -29.6040  -16.1760   20.5430 C   0  0  0  0  0  2  0  0  0  0  0  0
  -30.3880  -14.8140   20.0370 C   0  0  0  0  0  0  0  0  0  0  0  0
  -30.2500  -12.4820   19.0590 C   0  0  0  0  0  2  0  0  0  0  0  0
  -29.2480  -12.5210   17.8810 C   0  0  0  0  0  2  0  0  0  0  0  0
  -27.8070  -12.3010   18.3840 C   0  0  0  0  0  2  0  0  0  0  0  0
  -27.4710  -13.1690   19.6260 C   0  0  0  0  0  3  0  0  0  0  0  0
  -28.5930  -13.1230   20.6840 C   0  0  0  0  0  2  0  0  0  0  0  0
  -29.8380  -13.5380   20.0250 N   0  0  0  0  0  0  0  0  0  0  0  0
  -31.5350  -14.9320   19.5810 O   0  0  0  0  0  0  0  0  0  0  0  0
  -25.1340  -13.6990   20.5260 C   0  0  0  0  0  0  0  0  0  0  0  0
  -24.1080  -12.9060   20.9490 C   0  0  0  0  0  0  0  0  0  0  0  0
  -24.5820  -11.5590   20.8570 C   0  0  0  0  0  0  0  0  0  0  0  0
  -26.1700  -12.8400   20.1970 N   0  0  0  0  0  0  0  0  0  0  0  0
  -25.8500  -11.5450   20.4570 N   0  0  0  0  0  0  0  0  0  0  0  0
  -23.8810  -10.2890   21.0700 C   0  0  0  0  0  0  0  0  0  0  0  0
  -24.3460   -9.3350   22.0030 C   0  0  0  0  0  3  0  0  0  0  0  0
  -23.6460   -8.1270   22.2030 C   0  0  0  0  0  3  0  0  0  0  0  0
  -22.4620   -7.8640   21.4710 C   0  0  0  0  0  0  0  0  0  0  0  0
  -22.0180   -8.8040   20.5250 C   0  0  0  0  0  3  0  0  0  0  0  0
  -22.7210  -10.0040   20.3230 C   0  0  0  0  0  3  0  0  0  0  0  0
  -21.7260   -6.7100   21.5820 O   0  0  0  0  0  0  0  0  0  0  0  0
  -21.6790   -5.9930   22.7510 C   0  0  0  0  0  0  0  0  0  0  0  0
  -21.2130   -6.5630   23.9560 C   0  0  0  0  0  3  0  0  0  0  0  0
  -21.1190   -5.7730   25.1200 C   0  0  0  0  0  3  0  0  0  0  0  0
  -21.4760   -4.4110   25.0770 C   0  0  0  0  0  0  0  0  0  0  0  0
  -21.9310   -3.8390   23.8750 C   0  0  0  0  0  3  0  0  0  0  0  0
  -22.0290   -4.6280   22.7140 C   0  0  0  0  0  0  0  0  0  0  0  0
  -22.4510   -4.0660   21.5550 F   0  0  0  0  0  0  0  0  0  0  0  0
  -21.3740   -3.6500   26.1900 F   0  0  0  0  0  0  0  0  0  0  0  0
  -22.7250  -13.3560   21.3240 C   0  0  0  0  0  0  0  0  0  0  0  0
  -22.0610  -12.6340   22.2180 N   0  0  0  0  0  0  0  0  0  0  0  0
  -22.2400  -14.3850   20.8530 O   0  0  0  0  0  0  0  0  0  0  0  0
  -22.4690  -11.8030   22.6200 H   0  0  0  0  0  0  0  0  0  0  0  0
  -21.1320  -12.9090   22.4960 H   0  0  0  0  0  0  0  0  0  0  0  0
  -25.2640  -15.0770   20.3700 N   0  0  0  0  0  0  0  0  0  0  0  0
  -24.4950  -15.7070   20.5730 H   0  0  0  0  0  0  0  0  0  0  0  0
  -26.0760  -15.5520   19.9980 H   0  0  0  0  0  0  0  0  0  0  0  0
  -29.4770  -21.8280   21.8610 C   0  0  0  0  0  2  0  0  0  0  0  0
  -31.7200  -21.5370   23.0370 C   0  0  0  0  0  1  0  0  0  0  0  0
  -30.9930  -21.5900   21.6890 C   0  0  0  0  0  2  0  0  0  0  0  0
  1 48  1  0
  1  6  1  0
  2  1  1  0
  2  3  1  0
  4  2  1  0
  5  2  1  0
  7  9  1  0
  7  6  1  0
  8 19  2  0
  9 14  1  0
 10 18  1  0
 10 20  1  0
 11 17  1  0
 11 13  1  0
 12 18  1  0
 13 12  1  0
 14 13  2  0
 15 16  1  0
 15  9  2  0
 16 11  2  0
 17 10  1  0
 18  8  1  0
 20 22  2  0
 21 20  1  0
 23 21  1  0
 24 33  2  0
 24 29  1  0
 25 21  1  0
 25 29  1  0
 26 25  1  0
 27 28  1  0
 27 26  1  0
 28 24  1  0
 29 30  2  0
 30 31  1  0
 32 31  2  0
 33 32  1  0
 34  8  1  0
 34 39  1  0
 34 35  1  0
 35 38  1  1
 35 36  1  0
 37 35  1  0
 39 42  1  0
 40 44  1  0
 40 39  1  0
 41 40  2  0
 44 43  1  0
 46 44  1  0
 46 47  1  0
 46 45  1  0
 48 90  1  0
 49 50  1  0
 50 51  1  0
 50 48  1  0
 52 51  2  0
 52 53  1  0
 54 53  1  0
 55 60  1  0
 56 57  1  0
 56 55  1  0
 58 57  1  0
 58 65  1  0
 58 59  1  0
 60 54  1  0
 60 59  1  0
 61 54  2  0
 62 63  2  0
 63 82  1  0
 64 63  1  0
 64 67  1  0
 65 66  1  0
 65 62  1  0
 66 64  2  0
 67 68  1  0
 68 69  2  0
 70 73  1  0
 70 69  1  0
 71 70  2  0
 72 71  1  0
 72 67  2  0
 73 74  1  0
 74 75  1  0
 75 76  2  0
 77 76  1  0
 77 81  1  0
 78 77  2  0
 79 74  2  0
 79 78  1  0
 80 79  1  0
 82 83  1  0
 83 86  1  0
 83 85  1  0
 84 82  2  0
 87 62  1  0
 87 88  1  0
 89 87  1  0
 92 90  1  0
 92 91  1  0
M  ISO  4   6 101   7 101  53 100  54 100
M  END
>  <TORSDO>  (55) 
F 25

>  <SCORE>  (55) 
-12.386

>  <name>  (55) 
54

>  <ligand_id>  (55) 
54

>  <original_smiles>  (55) 
[H]c1c([H])c([H])c2c(c1[H])C([H])([H])C([H])([H])C([H])([H])C2([H])N([H])C(=O)C1([H])N(C(=O)C([H])(N([H])C(=O)C([H])(N([H])C([H])([H])[H])C([H])([H])[H])C(C([H])([H])[H])(C([H])([H])[H])C([H])([H])[H])C([H])([H])c2c([H])c(OC([H])([H])C([H])(C([H])(N(C([H])([H])[H])C([H])([H])C([H])([H])C([H])([H])C(=O)N3C([H])([H])C([H])([H])C([H])([H])C([H])(n4nc(-c5c([H])c([H])c(Oc6c([H])c([H])c(F)c([H])c6F)c([H])c5[H])c(C(=O)N([H])[H])c4N([H])[H])C3([H])[H])C([H])([H])C([H])([H])C([H])([H])[H])[N+]([H])([H])[H])c([H])c([H])c2C1([H])[H]

>  <smiles>  (55) 
[H]c1c([H])c([H])c2c(c1[H])C([H])([H])C([H])([H])C([H])([H])C2([H])N([H])C(=O)C1([H])N(C(=O)C([H])(N([H])C(=O)C([H])(N([H])C([H])([H])[H])C([H])([H])[H])C(C([H])([H])[H])(C([H])([H])[H])C([H])([H])[H])C([H])([H])c2c([H])c(OC([H])([H])C([H])(C([H])(N(C([H])([H])[H])C([H])([H])C([H])([H])C([H])([H])C(=O)N3C([H])([H])C([H])([H])C([H])([H])C([H])(n4nc(-c5c([H])c([H])c(Oc6c([H])c([H])c(F)c([H])c6F)c([H])c5[H])c(C(=O)N([H])[H])c4N([H])[H])C3([H])[H])C([H])([H])C([H])([H])C([H])([H])[H])[N+]([H])([H])[H])c([H])c([H])c2C1([H])[H]

$$$$
55:0:0
     RDKit          3D

 97104  0  0  1  0  0  0  0  0999 V2000
  -29.1630  -22.2780   20.3850 C   0  0  0  0  0  3  0  0  0  0  0  0
  -27.9720  -23.1590   20.6070 N   0  0  0  0  0  4  0  0  0  0  0  0
  -27.2000  -22.5390   20.8100 H   0  0  0  0  0  0  0  0  0  0  0  0
  -28.1090  -23.7240   21.4330 H   0  0  0  0  0  0  0  0  0  0  0  0
  -27.4720  -24.0120   19.4740 C   0  0  0  0  0  2  0  0  0  0  0  0
  -28.2890  -25.2860   19.0530 C   0  0  0  0  0  2  0  0  0  0  0  0
  -28.1810  -26.4910   19.8510 O   0  0  0  0  0  0  0  0  0  0  0  0
  -24.5540  -31.7010   23.0800 C   0  0  0  0  0  0  0  0  0  0  0  0
  -27.0340  -27.2660   19.8220 C   0  0  0  0  0  0  0  0  0  0  0  0
  -23.2830  -30.3590   21.4350 C   0  0  0  0  0  3  0  0  0  0  0  0
  -24.6750  -28.8410   19.9260 C   0  0  0  0  0  0  0  0  0  0  0  0
  -25.8070  -30.6760   21.1840 C   0  0  0  0  0  2  0  0  0  0  0  0
  -25.8540  -29.3190   20.5080 C   0  0  0  0  0  0  0  0  0  0  0  0
  -27.0330  -28.5360   20.4600 C   0  0  0  0  0  3  0  0  0  0  0  0
  -25.8410  -26.8330   19.2000 C   0  0  0  0  0  3  0  0  0  0  0  0
  -24.6680  -27.6020   19.2660 C   0  0  0  0  0  3  0  0  0  0  0  0
  -23.4440  -29.7120   20.0330 C   0  0  0  0  0  2  0  0  0  0  0  0
  -24.5680  -30.9240   21.9590 N   0  0  0  0  0  0  0  0  0  0  0  0
  -23.4930  -31.9730   23.6560 O   0  0  0  0  0  0  0  0  0  0  0  0
  -22.6410  -29.3200   22.3830 C   0  0  0  0  0  0  0  0  0  0  0  0
  -21.3110  -29.1680   22.2950 N   0  0  0  0  0  0  0  0  0  0  0  0
  -23.3380  -28.6550   23.1550 O   0  0  0  0  0  0  0  0  0  0  0  0
  -20.8090  -29.7580   21.6450 H   0  0  0  0  0  0  0  0  0  0  0  0
  -17.9330  -28.0370   22.8780 C   0  0  0  0  0  0  0  0  0  0  0  0
  -20.5030  -28.2260   23.0660 C   0  0  0  0  0  3  0  0  0  0  0  0
  -20.5470  -26.8120   22.4430 C   0  0  0  0  0  2  0  0  0  0  0  0
  -19.4030  -26.5470   21.4590 C   0  0  0  0  0  2  0  0  0  0  0  0
  -18.0490  -26.7050   22.1570 C   0  0  0  0  0  2  0  0  0  0  0  0
  -19.0840  -28.7600   23.2920 C   0  0  0  0  0  0  0  0  0  0  0  0
  -18.9160  -30.0090   23.9270 C   0  0  0  0  0  3  0  0  0  0  0  0
  -17.6310  -30.5370   24.1490 C   0  0  0  0  0  3  0  0  0  0  0  0
  -16.4940  -29.8090   23.7530 C   0  0  0  0  0  3  0  0  0  0  0  0
  -16.6460  -28.5620   23.1240 C   0  0  0  0  0  3  0  0  0  0  0  0
  -25.8650  -32.2990   23.6780 C   0  0  0  0  0  3  0  0  0  0  0  0
  -25.5830  -33.6850   24.0680 N   0  0  0  0  0  0  0  0  0  0  0  0
  -25.9100  -34.7620   23.3400 C   0  0  0  0  0  0  0  0  0  0  0  0
  -26.5540  -34.6930   22.2880 O   0  0  0  0  0  0  0  0  0  0  0  0
  -25.0080  -33.8120   24.8880 H   0  0  0  0  0  0  0  0  0  0  0  0
  -24.1890  -36.5810   23.0990 C   0  0  0  0  0  1  0  0  0  0  0  0
  -25.4450  -36.1330   23.8630 C   0  0  0  0  0  3  0  0  0  0  0  0
  -27.6060  -36.9670   24.6740 C   0  0  0  0  0  1  0  0  0  0  0  0
  -26.4820  -37.1830   23.7690 N   0  0  0  0  0  0  0  0  0  0  0  0
  -26.0860  -38.0970   23.9710 H   0  0  0  0  0  0  0  0  0  0  0  0
  -26.4230  -31.4760   24.9020 C   0  0  1  0  0  0  0  0  0  0  0  0
  -25.3730  -31.2020   26.0040 C   0  0  0  0  0  1  0  0  0  0  0  0
  -26.9660  -30.1080   24.4260 C   0  0  0  0  0  1  0  0  0  0  0  0
  -27.6120  -32.2370   25.5410 C   0  0  0  0  0  1  0  0  0  0  0  0
  -30.4290  -23.0580   20.8290 C   0  0  0  0  0  2  0  0  0  0  0  0
  -30.2920  -23.8250   22.1660 C   0  0  0  0  0  2  0  0  0  0  0  0
  -29.4550  -25.9620   23.3130 C   0  0  0  0  0  1  0  0  0  0  0  0
  -29.8690  -25.2960   21.9940 C   0  0  0  0  0  2  0  0  0  0  0  0
  -29.0370  -20.8510   21.0970 C   0  0  0  0  0  2  0  0  0  0  0  0
  -29.3100  -19.6300   18.7620 C   0  0  0  0  0  1  0  0  0  0  0  0
  -29.2010  -19.4770   20.2950 C   0  0  0  0  0  3  0  0  0  0  0  0
  -30.1610  -18.4280   20.8600 N   0  0  1  0  0  4  0  0  0  0  0  0
  -30.0850  -18.4850   21.8670 H   0  0  0  0  0  0  0  0  0  0  0  0
  -29.7690  -17.0050   20.5170 C   0  0  0  0  0  2  0  0  0  0  0  0
  -30.3360  -15.8690   21.4500 C   0  0  0  0  0  2  0  0  0  0  0  0
  -30.9350  -14.6300   20.7120 C   0  0  0  0  0  0  0  0  0  0  0  0
  -30.6800  -12.4380   19.5770 C   0  0  0  0  0  2  0  0  0  0  0  0
  -29.7880  -12.5940   18.3250 C   0  0  0  0  0  2  0  0  0  0  0  0
  -28.3000  -12.4540   18.6950 C   0  0  0  0  0  2  0  0  0  0  0  0
  -27.9130  -13.3310   19.9150 C   0  0  0  0  0  3  0  0  0  0  0  0
  -28.9160  -13.1480   21.0740 C   0  0  0  0  0  2  0  0  0  0  0  0
  -30.2620  -13.4510   20.5660 N   0  0  0  0  0  0  0  0  0  0  0  0
  -32.0540  -14.7830   20.2150 O   0  0  0  0  0  0  0  0  0  0  0  0
  -25.4990  -13.9700   20.5280 C   0  0  0  0  0  0  0  0  0  0  0  0
  -24.4070  -13.2100   20.8600 C   0  0  0  0  0  0  0  0  0  0  0  0
  -24.8520  -11.8550   20.8500 C   0  0  0  0  0  0  0  0  0  0  0  0
  -26.5400  -13.0750   20.3430 N   0  0  0  0  0  0  0  0  0  0  0  0
  -26.1520  -11.7980   20.5940 N   0  0  0  0  0  0  0  0  0  0  0  0
  -24.1030  -10.6030   21.0150 C   0  0  0  0  0  0  0  0  0  0  0  0
  -24.5040   -9.6240   21.9490 C   0  0  0  0  0  3  0  0  0  0  0  0
  -23.7590   -8.4360   22.1050 C   0  0  0  0  0  3  0  0  0  0  0  0
  -22.5990   -8.2200   21.3230 C   0  0  0  0  0  0  0  0  0  0  0  0
  -22.2160   -9.1890   20.3790 C   0  0  0  0  0  3  0  0  0  0  0  0
  -22.9620  -10.3690   20.2230 C   0  0  0  0  0  3  0  0  0  0  0  0
  -21.8260   -7.0830   21.3850 O   0  0  0  0  0  0  0  0  0  0  0  0
  -21.7460   -6.3290   22.5280 C   0  0  0  0  0  0  0  0  0  0  0  0
  -21.3200   -6.8810   23.7560 C   0  0  0  0  0  3  0  0  0  0  0  0
  -21.1880   -6.0560   24.8910 C   0  0  0  0  0  3  0  0  0  0  0  0
  -21.4700   -4.6800   24.7970 C   0  0  0  0  0  0  0  0  0  0  0  0
  -21.8900   -4.1270   23.5740 C   0  0  0  0  0  3  0  0  0  0  0  0
  -22.0260   -4.9510   22.4420 C   0  0  0  0  0  0  0  0  0  0  0  0
  -22.4090   -4.4110   21.2600 F   0  0  0  0  0  0  0  0  0  0  0  0
  -21.3370   -3.8830   25.8840 F   0  0  0  0  0  0  0  0  0  0  0  0
  -23.0060  -13.7080   21.0770 C   0  0  0  0  0  0  0  0  0  0  0  0
  -22.2420  -13.0270   21.9260 N   0  0  0  0  0  0  0  0  0  0  0  0
  -22.5970  -14.7310   20.5330 O   0  0  0  0  0  0  0  0  0  0  0  0
  -22.5900  -12.1980   22.3840 H   0  0  0  0  0  0  0  0  0  0  0  0
  -21.2990  -13.3390   22.1160 H   0  0  0  0  0  0  0  0  0  0  0  0
  -25.6870  -15.3360   20.3470 N   0  0  0  0  0  0  0  0  0  0  0  0
  -24.9160  -15.9930   20.3960 H   0  0  0  0  0  0  0  0  0  0  0  0
  -26.5410  -15.7560   20.0000 H   0  0  0  0  0  0  0  0  0  0  0  0
  -31.5980  -18.6380   20.4990 C   0  0  0  0  0  2  0  0  0  0  0  0
  -33.6790  -20.0770   20.7560 C   0  0  0  0  0  1  0  0  0  0  0  0
  -32.3400  -19.6560   21.3790 C   0  0  0  0  0  2  0  0  0  0  0  0
  1  2  1  0
  1 48  1  0
  1 52  1  0
  2  3  1  0
  2  4  1  0
  5  2  1  0
  6  5  1  0
  6  7  1  0
  8 19  2  0
  9  7  1  0
  9 14  1  0
 10 18  1  0
 10 20  1  0
 11 17  1  0
 11 13  1  0
 12 18  1  0
 13 12  1  0
 14 13  2  0
 15 16  1  0
 15  9  2  0
 16 11  2  0
 17 10  1  0
 18  8  1  0
 20 22  2  0
 21 20  1  0
 23 21  1  0
 24 33  2  0
 24 29  1  0
 25 21  1  0
 25 29  1  0
 26 25  1  0
 27 28  1  0
 27 26  1  0
 28 24  1  0
 29 30  2  0
 30 31  1  0
 32 31  2  0
 33 32  1  0
 34  8  1  0
 34 35  1  0
 34 44  1  0
 35 38  1  0
 36 40  1  0
 36 35  1  0
 37 36  2  0
 40 39  1  0
 42 40  1  0
 42 43  1  0
 42 41  1  0
 44 47  1  1
 44 45  1  0
 46 44  1  0
 48 49  1  0
 51 49  1  0
 51 50  1  0
 54 53  1  0
 54 55  1  0
 54 52  1  0
 55 56  1  1
 57 55  1  0
 57 58  1  0
 59 58  1  0
 60 65  1  0
 61 62  1  0
 61 60  1  0
 63 62  1  0
 63 70  1  0
 63 64  1  0
 65 59  1  0
 65 64  1  0
 66 59  2  0
 67 68  2  0
 68 87  1  0
 69 68  1  0
 69 72  1  0
 70 67  1  0
 70 71  1  0
 71 69  2  0
 72 73  1  0
 73 74  2  0
 75 78  1  0
 75 74  1  0
 76 75  2  0
 77 76  1  0
 77 72  2  0
 78 79  1  0
 79 80  1  0
 80 81  2  0
 82 81  1  0
 82 86  1  0
 83 82  2  0
 84 79  2  0
 84 83  1  0
 85 84  1  0
 87 88  1  0
 88 91  1  0
 88 90  1  0
 89 87  2  0
 92 93  1  0
 92 67  1  0
 94 92  1  0
 95 55  1  0
 95 97  1  0
 96 97  1  0
M  ISO  4   6 101   7 101  58 100  59 100
M  END
>  <TORSDO>  (56) 
F 29

>  <SCORE>  (56) 
-11.206

>  <name>  (56) 
55

>  <ligand_id>  (56) 
55

>  <original_smiles>  (56) 
[H]c1c([H])c([H])c2c(c1[H])C([H])([H])C([H])([H])C([H])([H])C2([H])N([H])C(=O)C1([H])N(C(=O)C([H])(N([H])C(=O)C([H])(N([H])C([H])([H])[H])C([H])([H])[H])C(C([H])([H])[H])(C([H])([H])[H])C([H])([H])[H])C([H])([H])c2c([H])c(OC([H])([H])C([H])([H])[N+]([H])([H])C([H])(C([H])([H])C([H])([H])C([H])([H])C([H])([H])[H])C([H])([H])C([H])(C([H])([H])[H])[N+]([H])(C([H])([H])C([H])([H])C(=O)N3C([H])([H])C([H])([H])C([H])([H])C([H])(n4nc(-c5c([H])c([H])c(Oc6c([H])c([H])c(F)c([H])c6F)c([H])c5[H])c(C(=O)N([H])[H])c4N([H])[H])C3([H])[H])C([H])([H])C([H])([H])C([H])([H])[H])c([H])c([H])c2C1([H])[H]

>  <smiles>  (56) 
[H]c1c([H])c([H])c2c(c1[H])C([H])([H])C([H])([H])C([H])([H])C2([H])N([H])C(=O)C1([H])N(C(=O)C([H])(N([H])C(=O)C([H])(N([H])C([H])([H])[H])C([H])([H])[H])C(C([H])([H])[H])(C([H])([H])[H])C([H])([H])[H])C([H])([H])c2c([H])c(OC([H])([H])C([H])([H])[N+]([H])([H])C([H])(C([H])([H])C([H])([H])C([H])([H])C([H])([H])[H])C([H])([H])C([H])(C([H])([H])[H])[N+]([H])(C([H])([H])C([H])([H])C(=O)N3C([H])([H])C([H])([H])C([H])([H])C([H])(n4nc(-c5c([H])c([H])c(Oc6c([H])c([H])c(F)c([H])c6F)c([H])c5[H])c(C(=O)N([H])[H])c4N([H])[H])C3([H])[H])C([H])([H])C([H])([H])C([H])([H])[H])c([H])c([H])c2C1([H])[H]

$$$$
56:0:0
     RDKit          3D

 87 94  0  0  1  0  0  0  0  0999 V2000
  -28.9360  -21.3840   20.0540 N   0  0  0  0  0  4  0  0  0  0  0  0
  -28.2060  -21.3500   20.7480 H   0  0  0  0  0  0  0  0  0  0  0  0
  -29.9290  -21.4610   20.2030 H   0  0  0  0  0  0  0  0  0  0  0  0
  -30.1940  -20.0930   21.9080 C   0  0  0  0  0  1  0  0  0  0  0  0
  -29.2500  -19.9000   20.7130 C   0  0  0  0  0  3  0  0  0  0  0  0
  -28.9620  -18.3250   18.5980 C   0  0  0  0  0  1  0  0  0  0  0  0
  -29.7280  -18.3810   19.9260 C   0  0  0  0  0  3  0  0  0  0  0  0
  -29.7260  -16.7270   20.5790 C   0  0  0  0  0  2  0  0  0  0  0  0
  -30.4810  -15.2360   20.1150 C   0  0  0  0  0  0  0  0  0  0  0  0
  -30.4120  -12.8240   19.1790 C   0  0  0  0  0  2  0  0  0  0  0  0
  -29.4560  -12.7180   17.9630 C   0  0  0  0  0  2  0  0  0  0  0  0
  -28.0070  -12.4730   18.4230 C   0  0  0  0  0  2  0  0  0  0  0  0
  -27.6110  -13.3950   19.6050 C   0  0  0  0  0  3  0  0  0  0  0  0
  -28.6890  -13.4530   20.7070 C   0  0  0  0  0  2  0  0  0  0  0  0
  -29.9300  -13.9300   20.0790 N   0  0  0  0  0  0  0  0  0  0  0  0
  -31.6600  -15.2670   19.7370 O   0  0  0  0  0  0  0  0  0  0  0  0
  -25.2520  -13.9510   20.4050 C   0  0  0  0  0  0  0  0  0  0  0  0
  -24.1990  -13.1720   20.7980 C   0  0  0  0  0  0  0  0  0  0  0  0
  -24.6690  -11.8230   20.7580 C   0  0  0  0  0  0  0  0  0  0  0  0
  -26.2910  -13.0790   20.1390 N   0  0  0  0  0  0  0  0  0  0  0  0
  -25.9530  -11.7930   20.4200 N   0  0  0  0  0  0  0  0  0  0  0  0
  -23.9480  -10.5590   20.9670 C   0  0  0  0  0  0  0  0  0  0  0  0
  -24.3970   -9.5950   21.8970 C   0  0  0  0  0  3  0  0  0  0  0  0
  -23.6740   -8.3990   22.0950 C   0  0  0  0  0  3  0  0  0  0  0  0
  -22.4880   -8.1580   21.3620 C   0  0  0  0  0  0  0  0  0  0  0  0
  -22.0570   -9.1100   20.4220 C   0  0  0  0  0  3  0  0  0  0  0  0
  -22.7810  -10.2970   20.2230 C   0  0  0  0  0  3  0  0  0  0  0  0
  -21.7360   -7.0120   21.4680 O   0  0  0  0  0  0  0  0  0  0  0  0
  -21.7080   -6.2730   22.6230 C   0  0  0  0  0  0  0  0  0  0  0  0
  -21.3060   -6.8330   23.8560 C   0  0  0  0  0  3  0  0  0  0  0  0
  -21.2250   -6.0200   25.0050 C   0  0  0  0  0  3  0  0  0  0  0  0
  -21.5360   -4.6500   24.9230 C   0  0  0  0  0  0  0  0  0  0  0  0
  -21.9310   -4.0900   23.6950 C   0  0  0  0  0  3  0  0  0  0  0  0
  -22.0140   -4.8980   22.5490 C   0  0  0  0  0  0  0  0  0  0  0  0
  -22.3740   -4.3500   21.3630 F   0  0  0  0  0  0  0  0  0  0  0  0
  -21.4510   -3.8680   26.0240 F   0  0  0  0  0  0  0  0  0  0  0  0
  -22.8070  -13.6460   21.0950 C   0  0  0  0  0  0  0  0  0  0  0  0
  -22.0980  -12.9520   21.9790 N   0  0  0  0  0  0  0  0  0  0  0  0
  -22.3570  -14.6700   20.5800 O   0  0  0  0  0  0  0  0  0  0  0  0
  -22.4770  -12.1260   22.4180 H   0  0  0  0  0  0  0  0  0  0  0  0
  -21.1640  -13.2530   22.2180 H   0  0  0  0  0  0  0  0  0  0  0  0
  -25.4070  -15.3230   20.2230 N   0  0  0  0  0  0  0  0  0  0  0  0
  -24.6430  -15.9770   20.3570 H   0  0  0  0  0  0  0  0  0  0  0  0
  -26.2480  -15.7630   19.8720 H   0  0  0  0  0  0  0  0  0  0  0  0
  -28.9830  -22.9660   20.5440 C   0  0  0  0  0  3  0  0  0  0  0  0
  -28.0410  -24.3790   20.0360 C   0  0  0  0  0  3  0  0  0  0  0  0
  -28.2170  -25.9780   20.3020 O   0  0  0  0  0  0  0  0  0  0  0  0
  -24.6200  -31.8700   23.2120 C   0  0  0  0  0  0  0  0  0  0  0  0
  -27.1850  -27.0340   20.2090 C   0  0  0  0  0  0  0  0  0  0  0  0
  -23.4210  -30.4660   21.5820 C   0  0  0  0  0  3  0  0  0  0  0  0
  -24.8700  -28.8660   20.1600 C   0  0  0  0  0  0  0  0  0  0  0  0
  -25.9830  -30.6980   21.4230 C   0  0  0  0  0  2  0  0  0  0  0  0
  -26.0550  -29.2910   20.7730 C   0  0  0  0  0  0  0  0  0  0  0  0
  -27.2070  -28.3940   20.7760 C   0  0  0  0  0  3  0  0  0  0  0  0
  -25.9720  -26.7480   19.5420 C   0  0  0  0  0  3  0  0  0  0  0  0
  -24.8510  -27.6140   19.5250 C   0  0  0  0  0  3  0  0  0  0  0  0
  -23.6460  -29.7780   20.2070 C   0  0  0  0  0  2  0  0  0  0  0  0
  -24.6960  -31.0380   22.1260 N   0  0  0  0  0  0  0  0  0  0  0  0
  -23.5330  -32.1590   23.7390 O   0  0  0  0  0  0  0  0  0  0  0  0
  -22.7370  -29.4700   22.5540 C   0  0  0  0  0  0  0  0  0  0  0  0
  -21.4070  -29.3000   22.4300 N   0  0  0  0  0  0  0  0  0  0  0  0
  -23.4060  -28.8520   23.3840 O   0  0  0  0  0  0  0  0  0  0  0  0
  -20.9200  -29.8510   21.7370 H   0  0  0  0  0  0  0  0  0  0  0  0
  -18.0310  -28.0750   22.9370 C   0  0  0  0  0  0  0  0  0  0  0  0
  -20.5880  -28.3640   23.2080 C   0  0  0  0  0  3  0  0  0  0  0  0
  -20.7020  -26.9270   22.6480 C   0  0  0  0  0  2  0  0  0  0  0  0
  -19.6070  -26.5850   21.6330 C   0  0  0  0  0  2  0  0  0  0  0  0
  -18.2220  -26.7220   22.2710 C   0  0  0  0  0  2  0  0  0  0  0  0
  -19.1410  -28.8520   23.3620 C   0  0  0  0  0  0  0  0  0  0  0  0
  -18.9070  -30.1150   23.9470 C   0  0  0  0  0  3  0  0  0  0  0  0
  -17.5960  -30.6030   24.1090 C   0  0  0  0  0  3  0  0  0  0  0  0
  -16.5010  -29.8240   23.6980 C   0  0  0  0  0  3  0  0  0  0  0  0
  -16.7190  -28.5610   23.1180 C   0  0  0  0  0  3  0  0  0  0  0  0
  -25.8940  -32.5150   23.8380 C   0  0  0  0  0  3  0  0  0  0  0  0
  -25.5770  -33.9150   24.1670 N   0  0  0  0  0  0  0  0  0  0  0  0
  -25.9090  -34.9740   23.4150 C   0  0  0  0  0  0  0  0  0  0  0  0
  -26.5780  -34.8740   22.3840 O   0  0  0  0  0  0  0  0  0  0  0  0
  -24.9800  -34.0660   24.9670 H   0  0  0  0  0  0  0  0  0  0  0  0
  -24.1830  -36.7750   23.0770 C   0  0  0  0  0  1  0  0  0  0  0  0
  -25.4260  -36.3630   23.8800 C   0  0  0  0  0  3  0  0  0  0  0  0
  -27.5640  -37.2490   24.7060 C   0  0  0  0  0  1  0  0  0  0  0  0
  -26.4590  -37.4170   23.7660 N   0  0  0  0  0  0  0  0  0  0  0  0
  -26.0540  -38.3380   23.9130 H   0  0  0  0  0  0  0  0  0  0  0  0
  -26.4030  -31.7560   25.1270 C   0  0  1  0  0  0  0  0  0  0  0  0
  -25.3060  -31.5330   26.1930 C   0  0  0  0  0  1  0  0  0  0  0  0
  -26.9840  -30.3720   24.7590 C   0  0  0  0  0  1  0  0  0  0  0  0
  -27.5520  -32.5550   25.7850 C   0  0  0  0  0  1  0  0  0  0  0  0
  1  3  1  0
  1 45  1  0
  1  5  1  0
  1  2  1  0
  5  4  1  0
  7  6  1  0
  7  8  1  0
  7  5  1  0
  9  8  1  0
 10 15  1  0
 11 12  1  0
 11 10  1  0
 13 12  1  0
 13 20  1  0
 13 14  1  0
 15  9  1  0
 15 14  1  0
 16  9  2  0
 17 18  2  0
 18 37  1  0
 19 18  1  0
 19 22  1  0
 20 17  1  0
 20 21  1  0
 21 19  2  0
 22 23  1  0
 23 24  2  0
 25 28  1  0
 25 24  1  0
 26 25  2  0
 27 26  1  0
 27 22  2  0
 28 29  1  0
 29 30  1  0
 30 31  2  0
 32 31  1  0
 32 36  1  0
 33 32  2  0
 34 29  2  0
 34 33  1  0
 35 34  1  0
 37 38  1  0
 38 41  1  0
 38 40  1  0
 39 37  2  0
 42 43  1  0
 42 17  1  0
 44 42  1  0
 46 47  1  0
 46 45  2  0
 48 59  2  0
 49 47  1  0
 49 54  1  0
 50 58  1  0
 50 60  1  0
 51 57  1  0
 51 53  1  0
 52 58  1  0
 53 54  2  0
 53 52  1  0
 55 49  2  0
 56 55  1  0
 56 51  2  0
 57 50  1  0
 58 48  1  0
 60 62  2  0
 61 60  1  0
 63 61  1  0
 64 73  2  0
 64 69  1  0
 65 61  1  0
 65 69  1  0
 66 65  1  0
 67 68  1  0
 67 66  1  0
 68 64  1  0
 69 70  2  0
 70 71  1  0
 72 71  2  0
 73 72  1  0
 74 48  1  0
 74 75  1  0
 74 84  1  0
 75 78  1  0
 76 80  1  0
 76 75  1  0
 77 76  2  0
 80 79  1  0
 82 80  1  0
 82 83  1  0
 82 81  1  0
 84 87  1  1
 84 85  1  0
 86 84  1  0
M  ISO  4   8 100   9 100  46 101  47 101
M  END
>  <TORSDO>  (57) 
F 21

>  <SCORE>  (57) 
-15.133

>  <name>  (57) 
56

>  <ligand_id>  (57) 
56

>  <original_smiles>  (57) 
[H]c1c([H])c([H])c2c(c1[H])C([H])([H])C([H])([H])C([H])([H])C2([H])N([H])C(=O)C1([H])N(C(=O)C([H])(N([H])C(=O)C([H])(N([H])C([H])([H])[H])C([H])([H])[H])C(C([H])([H])[H])(C([H])([H])[H])C([H])([H])[H])C([H])([H])c2c([H])c(OC([H])([H])C([H])([H])[N+]([H])([H])C([H])(C([H])([H])[H])C([H])(C([H])([H])[H])C([H])([H])C(=O)N3C([H])([H])C([H])([H])C([H])([H])C([H])(n4nc(-c5c([H])c([H])c(Oc6c([H])c([H])c(F)c([H])c6F)c([H])c5[H])c(C(=O)N([H])[H])c4N([H])[H])C3([H])[H])c([H])c([H])c2C1([H])[H]

>  <smiles>  (57) 
[H]c1c([H])c([H])c2c(c1[H])C([H])([H])C([H])([H])C([H])([H])C2([H])N([H])C(=O)C1([H])N(C(=O)C([H])(N([H])C(=O)C([H])(N([H])C([H])([H])[H])C([H])([H])[H])C(C([H])([H])[H])(C([H])([H])[H])C([H])([H])[H])C([H])([H])c2c([H])c(OC([H])([H])C([H])([H])[N+]([H])([H])C([H])(C([H])([H])[H])C([H])(C([H])([H])[H])C([H])([H])C(=O)N3C([H])([H])C([H])([H])C([H])([H])C([H])(n4nc(-c5c([H])c([H])c(Oc6c([H])c([H])c(F)c([H])c6F)c([H])c5[H])c(C(=O)N([H])[H])c4N([H])[H])C3([H])[H])c([H])c([H])c2C1([H])[H]

$$$$
57:0:0
     RDKit          3D

 83 90  0  0  1  0  0  0  0  0999 V2000
  -28.1270  -23.8710   20.5420 C   0  0  0  0  0  2  0  0  0  0  0  0
  -28.1920  -25.5940   20.2210 O   0  0  0  0  0  0  0  0  0  0  0  0
  -24.6080  -31.8320   23.1650 C   0  0  0  0  0  0  0  0  0  0  0  0
  -27.1810  -26.7640   20.2420 C   0  0  0  0  0  0  0  0  0  0  0  0
  -23.4330  -30.4080   21.5410 C   0  0  0  0  0  3  0  0  0  0  0  0
  -24.8940  -28.7590   20.1550 C   0  0  0  0  0  0  0  0  0  0  0  0
  -26.0100  -30.5780   21.4180 C   0  0  0  0  0  2  0  0  0  0  0  0
  -26.0870  -29.1400   20.7820 C   0  0  0  0  0  0  0  0  0  0  0  0
  -27.2190  -28.1730   20.7850 C   0  0  0  0  0  3  0  0  0  0  0  0
  -25.9490  -26.5810   19.5670 C   0  0  0  0  0  3  0  0  0  0  0  0
  -24.8620  -27.5040   19.5240 C   0  0  0  0  0  3  0  0  0  0  0  0
  -23.6800  -29.6990   20.1790 C   0  0  0  0  0  2  0  0  0  0  0  0
  -24.7080  -30.9730   22.0940 N   0  0  0  0  0  0  0  0  0  0  0  0
  -23.5110  -32.1270   23.6710 O   0  0  0  0  0  0  0  0  0  0  0  0
  -22.7250  -29.4330   22.5200 C   0  0  0  0  0  0  0  0  0  0  0  0
  -21.3920  -29.2790   22.4050 N   0  0  0  0  0  0  0  0  0  0  0  0
  -23.3880  -28.8120   23.3560 O   0  0  0  0  0  0  0  0  0  0  0  0
  -20.9070  -29.8300   21.7100 H   0  0  0  0  0  0  0  0  0  0  0  0
  -18.0070  -28.0780   22.9510 C   0  0  0  0  0  0  0  0  0  0  0  0
  -20.5700  -28.3470   23.1870 C   0  0  0  0  0  3  0  0  0  0  0  0
  -20.6640  -26.9110   22.6190 C   0  0  0  0  0  2  0  0  0  0  0  0
  -19.5540  -26.5850   21.6150 C   0  0  0  0  0  2  0  0  0  0  0  0
  -18.1770  -26.7290   22.2710 C   0  0  0  0  0  2  0  0  0  0  0  0
  -19.1280  -28.8440   23.3650 C   0  0  0  0  0  0  0  0  0  0  0  0
  -18.9110  -30.1030   23.9670 C   0  0  0  0  0  3  0  0  0  0  0  0
  -17.6060  -30.5970   24.1520 C   0  0  0  0  0  3  0  0  0  0  0  0
  -16.4990  -29.8300   23.7490 C   0  0  0  0  0  3  0  0  0  0  0  0
  -16.7010  -28.5710   23.1550 C   0  0  0  0  0  3  0  0  0  0  0  0
  -25.8650  -32.4980   23.8010 C   0  0  0  0  0  3  0  0  0  0  0  0
  -26.3700  -31.7520   25.0980 C   0  0  1  0  0  0  0  0  0  0  0  0
  -25.2660  -31.5260   26.1590 C   0  0  0  0  0  1  0  0  0  0  0  0
  -26.9650  -30.3700   24.7470 C   0  0  0  0  0  1  0  0  0  0  0  0
  -27.5100  -32.5630   25.7590 C   0  0  0  0  0  1  0  0  0  0  0  0
  -25.5280  -33.8970   24.1300 N   0  0  0  0  0  0  0  0  0  0  0  0
  -25.8490  -34.9640   23.3850 C   0  0  0  0  0  0  0  0  0  0  0  0
  -26.5170  -34.8740   22.3520 O   0  0  0  0  0  0  0  0  0  0  0  0
  -24.9300  -34.0380   24.9300 H   0  0  0  0  0  0  0  0  0  0  0  0
  -24.0990  -36.7500   23.0630 C   0  0  0  0  0  1  0  0  0  0  0  0
  -25.3540  -36.3490   23.8570 C   0  0  0  0  0  3  0  0  0  0  0  0
  -27.4880  -37.2560   24.6690 C   0  0  0  0  0  1  0  0  0  0  0  0
  -26.3730  -37.4130   23.7370 N   0  0  0  0  0  0  0  0  0  0  0  0
  -25.9590  -38.3290   23.8910 H   0  0  0  0  0  0  0  0  0  0  0  0
  -28.6610  -22.1180   19.9210 C   0  0  0  0  0  2  0  0  0  0  0  0
  -30.6820  -20.5270   20.9580 C   0  0  0  0  0  1  0  0  0  0  0  0
  -29.2130  -20.3790   20.5530 C   0  0  0  0  0  3  0  0  0  0  0  0
  -29.4160  -17.1130   20.0750 C   0  0  0  0  0  0  0  0  0  0  0  0
  -28.9840  -18.6000   20.1220 C   0  0  0  0  0  3  0  0  0  0  0  0
  -30.2560  -15.6240   20.1500 C   0  0  0  0  0  0  0  0  0  0  0  0
  -30.3280  -13.0850   19.3390 C   0  0  0  0  0  2  0  0  0  0  0  0
  -29.4250  -12.7120   18.1280 C   0  0  0  0  0  2  0  0  0  0  0  0
  -27.9970  -12.3760   18.5860 C   0  0  0  0  0  2  0  0  0  0  0  0
  -27.5000  -13.3810   19.6500 C   0  0  0  0  0  3  0  0  0  0  0  0
  -28.5360  -13.6760   20.7560 C   0  0  0  0  0  2  0  0  0  0  0  0
  -29.7250  -14.2650   20.1020 N   0  0  0  0  0  0  0  0  0  0  0  0
  -31.4910  -15.5290   20.0160 O   0  0  0  0  0  0  0  0  0  0  0  0
  -25.1440  -13.9150   20.4350 C   0  0  0  0  0  0  0  0  0  0  0  0
  -24.0890  -13.1350   20.8130 C   0  0  0  0  0  0  0  0  0  0  0  0
  -24.5630  -11.7870   20.7880 C   0  0  0  0  0  0  0  0  0  0  0  0
  -26.1880  -13.0440   20.1850 N   0  0  0  0  0  0  0  0  0  0  0  0
  -25.8540  -11.7570   20.4690 N   0  0  0  0  0  0  0  0  0  0  0  0
  -23.8400  -10.5230   20.9900 C   0  0  0  0  0  0  0  0  0  0  0  0
  -24.2780   -9.5600   21.9260 C   0  0  0  0  0  3  0  0  0  0  0  0
  -23.5500   -8.3650   22.1180 C   0  0  0  0  0  3  0  0  0  0  0  0
  -22.3710   -8.1240   21.3740 C   0  0  0  0  0  0  0  0  0  0  0  0
  -21.9530   -9.0740   20.4260 C   0  0  0  0  0  3  0  0  0  0  0  0
  -22.6800  -10.2600   20.2330 C   0  0  0  0  0  3  0  0  0  0  0  0
  -21.6160   -6.9800   21.4730 O   0  0  0  0  0  0  0  0  0  0  0  0
  -21.5760   -6.2420   22.6290 C   0  0  0  0  0  0  0  0  0  0  0  0
  -21.1640   -6.8030   23.8570 C   0  0  0  0  0  3  0  0  0  0  0  0
  -21.0710   -5.9920   25.0060 C   0  0  0  0  0  3  0  0  0  0  0  0
  -21.3800   -4.6210   24.9270 C   0  0  0  0  0  0  0  0  0  0  0  0
  -21.7860   -4.0590   23.7040 C   0  0  0  0  0  3  0  0  0  0  0  0
  -21.8800   -4.8680   22.5570 C   0  0  0  0  0  0  0  0  0  0  0  0
  -22.2510   -4.3170   21.3770 F   0  0  0  0  0  0  0  0  0  0  0  0
  -21.2840   -3.8400   26.0290 F   0  0  0  0  0  0  0  0  0  0  0  0
  -22.6910  -13.6080   21.0800 C   0  0  0  0  0  0  0  0  0  0  0  0
  -21.9670  -12.9200   21.9540 N   0  0  0  0  0  0  0  0  0  0  0  0
  -22.2510  -14.6270   20.5490 O   0  0  0  0  0  0  0  0  0  0  0  0
  -22.3360  -12.0970   22.4070 H   0  0  0  0  0  0  0  0  0  0  0  0
  -21.0280  -13.2210   22.1760 H   0  0  0  0  0  0  0  0  0  0  0  0
  -25.3020  -15.2860   20.2500 N   0  0  0  0  0  0  0  0  0  0  0  0
  -24.5380  -15.9420   20.3770 H   0  0  0  0  0  0  0  0  0  0  0  0
  -26.1570  -15.7290   19.9400 H   0  0  0  0  0  0  0  0  0  0  0  0
  2  4  1  0
  2  1  1  0
  3 14  2  0
  4  9  1  0
  5 13  1  0
  5 15  1  0
  6 12  1  0
  6  8  1  0
  7 13  1  0
  8  9  2  0
  8  7  1  0
 10  4  2  0
 11 10  1  0
 11  6  2  0
 12  5  1  0
 13  3  1  0
 15 17  2  0
 16 15  1  0
 18 16  1  0
 19 28  2  0
 19 24  1  0
 20 16  1  0
 20 24  1  0
 21 20  1  0
 22 23  1  0
 22 21  1  0
 23 19  1  0
 24 25  2  0
 25 26  1  0
 27 26  2  0
 28 27  1  0
 29  3  1  0
 29 34  1  0
 29 30  1  0
 30 33  1  1
 30 31  1  0
 32 30  1  0
 34 37  1  0
 35 39  1  0
 35 34  1  0
 36 35  2  0
 39 38  1  0
 41 39  1  0
 41 42  1  0
 41 40  1  0
 43  1  1  0
 43 45  1  0
 45 44  1  0
 46 47  2  0
 46 48  2  0
 47 45  1  0
 49 54  1  0
 50 51  1  0
 50 49  1  0
 52 51  1  0
 52 59  1  0
 52 53  1  0
 54 48  1  0
 54 53  1  0
 55 48  2  0
 56 57  2  0
 57 76  1  0
 58 57  1  0
 58 61  1  0
 59 56  1  0
 59 60  1  0
 60 58  2  0
 61 62  1  0
 62 63  2  0
 64 67  1  0
 64 63  1  0
 65 64  2  0
 66 65  1  0
 66 61  2  0
 67 68  1  0
 68 69  1  0
 69 70  2  0
 71 70  1  0
 71 75  1  0
 72 71  2  0
 73 68  2  0
 73 72  1  0
 74 73  1  0
 76 77  1  0
 77 80  1  0
 77 79  1  0
 78 76  2  0
 81 82  1  0
 81 56  1  0
 83 81  1  0
M  ISO  4   1 101   2 101  46 100  48 100
M  END
>  <TORSDO>  (58) 
F 19

>  <SCORE>  (58) 
-16.302

>  <name>  (58) 
57

>  <ligand_id>  (58) 
57

>  <original_smiles>  (58) 
[H]C(C(=O)N1C([H])([H])C([H])([H])C([H])([H])C([H])(n2nc(-c3c([H])c([H])c(Oc4c([H])c([H])c(F)c([H])c4F)c([H])c3[H])c(C(=O)N([H])[H])c2N([H])[H])C1([H])[H])=C([H])C([H])(C([H])([H])[H])C([H])([H])C([H])([H])Oc1c([H])c([H])c2c(c1[H])C([H])([H])N(C(=O)C([H])(N([H])C(=O)C([H])(N([H])C([H])([H])[H])C([H])([H])[H])C(C([H])([H])[H])(C([H])([H])[H])C([H])([H])[H])C([H])(C(=O)N([H])C1([H])c3c([H])c([H])c([H])c([H])c3C([H])([H])C([H])([H])C1([H])[H])C2([H])[H]

>  <smiles>  (58) 
[H]C(C(=O)N1C([H])([H])C([H])([H])C([H])([H])C([H])(n2nc(-c3c([H])c([H])c(Oc4c([H])c([H])c(F)c([H])c4F)c([H])c3[H])c(C(=O)N([H])[H])c2N([H])[H])C1([H])[H])=C([H])C([H])(C([H])([H])[H])C([H])([H])C([H])([H])Oc1c([H])c([H])c2c(c1[H])C([H])([H])N(C(=O)C([H])(N([H])C(=O)C([H])(N([H])C([H])([H])[H])C([H])([H])[H])C(C([H])([H])[H])(C([H])([H])[H])C([H])([H])[H])C([H])(C(=O)N([H])C1([H])c3c([H])c([H])c([H])c([H])c3C([H])([H])C([H])([H])C1([H])[H])C2([H])[H]

$$$$
58:0:0
     RDKit          3D

 88 96  0  0  1  0  0  0  0  0999 V2000
  -29.0080  -20.9380   20.9830 C   0  0  0  0  0  3  0  0  0  0  0  0
  -29.2120  -22.1980   20.4140 C   0  0  0  0  0  3  0  0  0  0  0  0
  -30.6060  -18.9590   21.1360 C   0  0  0  0  0  3  0  0  0  0  0  0
  -29.4520  -19.5030   20.6580 C   0  0  0  0  0  0  0  0  0  0  0  0
  -31.0600  -17.4480   21.0750 C   0  0  0  0  0  2  0  0  0  0  0  0
  -28.5140  -18.4520   20.0250 C   0  0  0  0  0  2  0  0  0  0  0  0
  -29.1460  -17.0440   19.6140 C   0  0  0  0  0  2  0  0  0  0  0  0
  -29.9960  -16.3160   20.7150 C   0  0  0  0  0  3  0  0  0  0  0  0
  -30.6320  -14.8560   20.3360 C   0  0  0  0  0  0  0  0  0  0  0  0
  -30.3890  -12.5480   19.3670 C   0  0  0  0  0  2  0  0  0  0  0  0
  -29.4650  -12.6200   18.1320 C   0  0  0  0  0  2  0  0  0  0  0  0
  -27.9890  -12.4580   18.5410 C   0  0  0  0  0  2  0  0  0  0  0  0
  -27.6140  -13.3220   19.7740 C   0  0  0  0  0  3  0  0  0  0  0  0
  -28.6810  -13.2860   20.8910 C   0  0  0  0  0  2  0  0  0  0  0  0
  -29.9770  -13.6310   20.2990 N   0  0  0  0  0  0  0  0  0  0  0  0
  -31.8080  -14.8670   19.9540 O   0  0  0  0  0  0  0  0  0  0  0  0
  -25.2330  -13.8890   20.5150 C   0  0  0  0  0  0  0  0  0  0  0  0
  -24.1700  -13.1110   20.8780 C   0  0  0  0  0  0  0  0  0  0  0  0
  -24.6390  -11.7600   20.8480 C   0  0  0  0  0  0  0  0  0  0  0  0
  -26.2790  -13.0150   20.2730 N   0  0  0  0  0  0  0  0  0  0  0  0
  -25.9300  -11.7280   20.5370 N   0  0  0  0  0  0  0  0  0  0  0  0
  -23.9140  -10.4970   21.0370 C   0  0  0  0  0  0  0  0  0  0  0  0
  -24.3500   -9.5300   21.9680 C   0  0  0  0  0  3  0  0  0  0  0  0
  -23.6280   -8.3310   22.1510 C   0  0  0  0  0  3  0  0  0  0  0  0
  -22.4500   -8.0930   21.4010 C   0  0  0  0  0  0  0  0  0  0  0  0
  -22.0310   -9.0490   20.4600 C   0  0  0  0  0  3  0  0  0  0  0  0
  -22.7550  -10.2390   20.2780 C   0  0  0  0  0  3  0  0  0  0  0  0
  -21.6990   -6.9470   21.4890 O   0  0  0  0  0  0  0  0  0  0  0  0
  -21.6580   -6.1970   22.6380 C   0  0  0  0  0  0  0  0  0  0  0  0
  -21.2380   -6.7430   23.8690 C   0  0  0  0  0  3  0  0  0  0  0  0
  -21.1470   -5.9200   25.0090 C   0  0  0  0  0  3  0  0  0  0  0  0
  -21.4590   -4.5510   24.9190 C   0  0  0  0  0  0  0  0  0  0  0  0
  -21.8720   -4.0050   23.6910 C   0  0  0  0  0  3  0  0  0  0  0  0
  -21.9680   -4.8240   22.5530 C   0  0  0  0  0  0  0  0  0  0  0  0
  -22.3450   -4.2850   21.3690 F   0  0  0  0  0  0  0  0  0  0  0  0
  -21.3640   -3.7600   26.0130 F   0  0  0  0  0  0  0  0  0  0  0  0
  -22.7720  -13.5840   21.1520 C   0  0  0  0  0  0  0  0  0  0  0  0
  -22.0480  -12.8790   22.0130 N   0  0  0  0  0  0  0  0  0  0  0  0
  -22.3340  -14.6150   20.6450 O   0  0  0  0  0  0  0  0  0  0  0  0
  -22.4200  -12.0470   22.4450 H   0  0  0  0  0  0  0  0  0  0  0  0
  -21.1120  -13.1810   22.2420 H   0  0  0  0  0  0  0  0  0  0  0  0
  -25.4010  -15.2610   20.3460 N   0  0  0  0  0  0  0  0  0  0  0  0
  -24.6440  -15.9280   20.4520 H   0  0  0  0  0  0  0  0  0  0  0  0
  -26.2730  -15.7010   20.0790 H   0  0  0  0  0  0  0  0  0  0  0  0
  -29.6740  -24.0830   22.0860 C   0  0  0  0  0  1  0  0  0  0  0  0
  -28.7230  -23.6500   20.9540 C   0  0  0  0  0  3  0  0  0  0  0  0
  -28.4500  -24.9150   19.9310 C   0  0  0  0  0  2  0  0  0  0  0  0
  -28.3610  -26.3830   20.3480 O   0  0  0  0  0  0  0  0  0  0  0  0
  -24.6160  -31.9100   23.2230 C   0  0  0  0  0  0  0  0  0  0  0  0
  -27.2350  -27.2520   20.2290 C   0  0  0  0  0  0  0  0  0  0  0  0
  -23.4200  -30.5020   21.5850 C   0  0  0  0  0  3  0  0  0  0  0  0
  -24.8750  -28.9250   20.1790 C   0  0  0  0  0  0  0  0  0  0  0  0
  -25.9640  -30.7980   21.4120 C   0  0  0  0  0  2  0  0  0  0  0  0
  -26.0460  -29.4040   20.7790 C   0  0  0  0  0  0  0  0  0  0  0  0
  -27.2220  -28.5800   20.7910 C   0  0  0  0  0  3  0  0  0  0  0  0
  -26.0360  -26.8480   19.5970 C   0  0  0  0  0  3  0  0  0  0  0  0
  -24.8810  -27.6590   19.5730 C   0  0  0  0  0  3  0  0  0  0  0  0
  -23.6430  -29.8070   20.2140 C   0  0  0  0  0  2  0  0  0  0  0  0
  -24.6850  -31.0930   22.1290 N   0  0  0  0  0  0  0  0  0  0  0  0
  -23.5300  -32.1940   23.7490 O   0  0  0  0  0  0  0  0  0  0  0  0
  -22.7460  -29.5020   22.5550 C   0  0  0  0  0  0  0  0  0  0  0  0
  -21.4180  -29.3330   22.4310 N   0  0  0  0  0  0  0  0  0  0  0  0
  -23.4180  -28.8760   23.3780 O   0  0  0  0  0  0  0  0  0  0  0  0
  -20.9290  -29.8980   21.7500 H   0  0  0  0  0  0  0  0  0  0  0  0
  -18.0360  -28.1410   22.9510 C   0  0  0  0  0  0  0  0  0  0  0  0
  -20.5960  -28.3990   23.2080 C   0  0  0  0  0  3  0  0  0  0  0  0
  -20.6910  -26.9640   22.6400 C   0  0  0  0  0  2  0  0  0  0  0  0
  -19.5870  -26.6390   21.6280 C   0  0  0  0  0  2  0  0  0  0  0  0
  -18.2060  -26.7910   22.2740 C   0  0  0  0  0  2  0  0  0  0  0  0
  -19.1560  -28.9030   23.3750 C   0  0  0  0  0  0  0  0  0  0  0  0
  -18.9410  -30.1660   23.9680 C   0  0  0  0  0  3  0  0  0  0  0  0
  -17.6380  -30.6680   24.1380 C   0  0  0  0  0  3  0  0  0  0  0  0
  -16.5310  -29.9050   23.7250 C   0  0  0  0  0  3  0  0  0  0  0  0
  -16.7320  -28.6440   23.1390 C   0  0  0  0  0  3  0  0  0  0  0  0
  -25.8950  -32.5460   23.8510 C   0  0  0  0  0  3  0  0  0  0  0  0
  -26.4060  -31.7820   25.1360 C   0  0  1  0  0  0  0  0  0  0  0  0
  -25.3100  -31.5500   26.2030 C   0  0  0  0  0  1  0  0  0  0  0  0
  -26.9890  -30.4010   24.7580 C   0  0  0  0  0  1  0  0  0  0  0  0
  -27.5570  -32.5780   25.7990 C   0  0  0  0  0  1  0  0  0  0  0  0
  -25.5840  -33.9470   24.1790 N   0  0  0  0  0  0  0  0  0  0  0  0
  -25.9140  -34.9990   23.4180 C   0  0  0  0  0  0  0  0  0  0  0  0
  -26.5780  -34.8920   22.3820 O   0  0  0  0  0  0  0  0  0  0  0  0
  -24.9890  -34.1030   24.9790 H   0  0  0  0  0  0  0  0  0  0  0  0
  -24.1830  -36.7960   23.0730 C   0  0  0  0  0  1  0  0  0  0  0  0
  -25.4300  -36.3900   23.8740 C   0  0  0  0  0  3  0  0  0  0  0  0
  -27.5720  -37.2800   24.6860 C   0  0  0  0  0  1  0  0  0  0  0  0
  -26.4620  -37.4440   23.7510 N   0  0  0  0  0  0  0  0  0  0  0  0
  -26.0570  -38.3650   23.8990 H   0  0  0  0  0  0  0  0  0  0  0  0
  2 46  1  0
  2  1  2  0
  4  1  1  0
  4  3  2  0
  5  3  1  0
  6  4  1  0
  7  6  1  0
  7  8  1  0
  8  9  1  0
  8  5  1  0
 10 15  1  0
 11 12  1  0
 11 10  1  0
 13 12  1  0
 13 20  1  0
 13 14  1  0
 15  9  1  0
 15 14  1  0
 16  9  2  0
 17 18  2  0
 18 37  1  0
 19 18  1  0
 19 22  1  0
 20 17  1  0
 20 21  1  0
 21 19  2  0
 22 23  1  0
 23 24  2  0
 25 28  1  0
 25 24  1  0
 26 25  2  0
 27 26  1  0
 27 22  2  0
 28 29  1  0
 29 30  1  0
 30 31  2  0
 32 31  1  0
 32 36  1  0
 33 32  2  0
 34 29  2  0
 34 33  1  0
 35 34  1  0
 37 38  1  0
 38 41  1  0
 38 40  1  0
 39 37  2  0
 42 43  1  0
 42 17  1  0
 44 42  1  0
 46 45  1  0
 47 48  1  0
 47 46  1  0
 49 60  2  0
 50 48  1  0
 50 55  1  0
 51 59  1  0
 51 61  1  0
 52 58  1  0
 52 54  1  0
 53 59  1  0
 54 55  2  0
 54 53  1  0
 56 50  2  0
 57 56  1  0
 57 52  2  0
 58 51  1  0
 59 49  1  0
 61 63  2  0
 62 61  1  0
 64 62  1  0
 65 74  2  0
 65 70  1  0
 66 62  1  0
 66 70  1  0
 67 66  1  0
 68 69  1  0
 68 67  1  0
 69 65  1  0
 70 71  2  0
 71 72  1  0
 73 72  2  0
 74 73  1  0
 75 49  1  0
 75 80  1  0
 75 76  1  0
 76 79  1  1
 76 77  1  0
 78 76  1  0
 80 83  1  0
 81 85  1  0
 81 80  1  0
 82 81  2  0
 85 84  1  0
 87 85  1  0
 87 88  1  0
 87 86  1  0
M  ISO  4   8 100   9 100  47 101  48 101
M  END
>  <TORSDO>  (59) 
F 19

>  <SCORE>  (59) 
-14.493

>  <name>  (59) 
58

>  <ligand_id>  (59) 
58

>  <original_smiles>  (59) 
[H]C(C1=C([H])C([H])([H])C([H])(C(=O)N2C([H])([H])C([H])([H])C([H])([H])C([H])(n3nc(-c4c([H])c([H])c(Oc5c([H])c([H])c(F)c([H])c5F)c([H])c4[H])c(C(=O)N([H])[H])c3N([H])[H])C2([H])[H])C([H])([H])C1([H])[H])=C([H])C([H])(C([H])([H])[H])C([H])([H])Oc1c([H])c([H])c2c(c1[H])C([H])([H])N(C(=O)C([H])(N([H])C(=O)C([H])(N([H])C([H])([H])[H])C([H])([H])[H])C(C([H])([H])[H])(C([H])([H])[H])C([H])([H])[H])C([H])(C(=O)N([H])C1([H])c3c([H])c([H])c([H])c([H])c3C([H])([H])C([H])([H])C1([H])[H])C2([H])[H]

>  <smiles>  (59) 
[H]C(C1=C([H])C([H])([H])C([H])(C(=O)N2C([H])([H])C([H])([H])C([H])([H])C([H])(n3nc(-c4c([H])c([H])c(Oc5c([H])c([H])c(F)c([H])c5F)c([H])c4[H])c(C(=O)N([H])[H])c3N([H])[H])C2([H])[H])C([H])([H])C1([H])[H])=C([H])C([H])(C([H])([H])[H])C([H])([H])Oc1c([H])c([H])c2c(c1[H])C([H])([H])N(C(=O)C([H])(N([H])C(=O)C([H])(N([H])C([H])([H])[H])C([H])([H])[H])C(C([H])([H])[H])(C([H])([H])[H])C([H])([H])[H])C([H])(C(=O)N([H])C1([H])c3c([H])c([H])c([H])c([H])c3C([H])([H])C([H])([H])C1([H])[H])C2([H])[H]

$$$$
59:0:0
     RDKit          3D

 84 88  0  0  1  0  0  0  0  0999 V2000
  -28.8940  -21.4590   20.1160 C   0  0  0  0  0 15  0  0  0  0  0  0
  -29.3060  -19.5010   20.7750 C   0  0  0  0  0  1  0  0  0  0  0  0
  -30.2540  -16.1880   20.5730 C   0  0  0  0  0  0  0  0  0  0  0  0
  -30.5310  -13.5350   19.8700 C   0  0  0  0  0  2  0  0  0  0  0  0
  -29.7620  -12.8590   18.6880 C   0  0  0  0  0  2  0  0  0  0  0  0
  -28.3500  -12.4250   19.1030 C   0  0  0  0  0  2  0  0  0  0  0  0
  -27.7100  -13.4800   20.0250 C   0  0  0  0  0  3  0  0  0  0  0  0
  -28.6510  -14.0260   21.1350 C   0  0  0  0  0  2  0  0  0  0  0  0
  -29.7710  -14.7600   20.4600 N   0  0  0  0  0  0  0  0  0  0  0  0
  -31.4950  -16.0330   20.7030 O   0  0  0  0  0  0  0  0  0  0  0  0
  -29.5610  -17.6720   20.2820 N   0  0  0  0  0  0  0  0  0  0  0  0
  -25.3180  -13.9850   20.6810 C   0  0  0  0  0  0  0  0  0  0  0  0
  -24.2440  -13.1990   20.9850 C   0  0  0  0  0  0  0  0  0  0  0  0
  -24.7240  -11.8530   20.9810 C   0  0  0  0  0  0  0  0  0  0  0  0
  -26.3800  -13.1200   20.4970 N   0  0  0  0  0  0  0  0  0  0  0  0
  -26.0340  -11.8290   20.7420 N   0  0  0  0  0  0  0  0  0  0  0  0
  -23.9900  -10.5880   21.1310 C   0  0  0  0  0  0  0  0  0  0  0  0
  -24.3730   -9.6190   22.0830 C   0  0  0  0  0  3  0  0  0  0  0  0
  -23.6350   -8.4230   22.2270 C   0  0  0  0  0  3  0  0  0  0  0  0
  -22.4980   -8.1900   21.4160 C   0  0  0  0  0  0  0  0  0  0  0  0
  -22.1340   -9.1470   20.4540 C   0  0  0  0  0  3  0  0  0  0  0  0
  -22.8730  -10.3340   20.3090 C   0  0  0  0  0  3  0  0  0  0  0  0
  -21.7360   -7.0470   21.4670 O   0  0  0  0  0  0  0  0  0  0  0  0
  -21.6370   -6.2980   22.6130 C   0  0  0  0  0  0  0  0  0  0  0  0
  -21.1520   -6.8450   23.8200 C   0  0  0  0  0  3  0  0  0  0  0  0
  -21.0000   -6.0230   24.9550 C   0  0  0  0  0  3  0  0  0  0  0  0
  -21.3240   -4.6550   24.8820 C   0  0  0  0  0  0  0  0  0  0  0  0
  -21.8010   -4.1070   23.6790 C   0  0  0  0  0  3  0  0  0  0  0  0
  -21.9530   -4.9260   22.5470 C   0  0  0  0  0  0  0  0  0  0  0  0
  -22.3940   -4.3880   21.3840 F   0  0  0  0  0  0  0  0  0  0  0  0
  -21.1710   -3.8630   25.9690 F   0  0  0  0  0  0  0  0  0  0  0  0
  -22.8330  -13.6710   21.1650 C   0  0  0  0  0  0  0  0  0  0  0  0
  -22.0570  -12.9830   21.9940 N   0  0  0  0  0  0  0  0  0  0  0  0
  -22.4240  -14.6890   20.6050 O   0  0  0  0  0  0  0  0  0  0  0  0
  -22.4000  -12.1610   22.4690 H   0  0  0  0  0  0  0  0  0  0  0  0
  -21.1060  -13.2820   22.1560 H   0  0  0  0  0  0  0  0  0  0  0  0
  -25.4780  -15.3570   20.5130 N   0  0  0  0  0  0  0  0  0  0  0  0
  -24.7020  -16.0050   20.5920 H   0  0  0  0  0  0  0  0  0  0  0  0
  -26.3480  -15.8080   20.2680 H   0  0  0  0  0  0  0  0  0  0  0  0
  -30.5150  -17.9180   17.9880 C   0  0  0  0  0  1  0  0  0  0  0  0
  -28.2610  -16.7750   18.2780 C   0  0  0  0  0  1  0  0  0  0  0  0
  -29.2370  -17.8200   18.8410 C   0  0  0  0  0  3  0  0  0  0  0  0
  -28.1480  -23.3870   20.5300 C   0  0  0  0  0 15  0  0  0  0  0  0
  -28.1310  -25.2610   20.2310 O   0  0  0  0  0  1  0  0  0  0  0  0
  -24.5670  -31.8790   23.0920 C   0  0  0  0  0  0  0  0  0  0  0  0
  -27.1460  -26.5600   20.2420 C   0  0  0  0  0  0  0  0  0  0  0  0
  -23.4020  -30.4240   21.4960 C   0  0  0  0  0  3  0  0  0  0  0  0
  -24.8690  -28.7140   20.1380 C   0  0  0  0  0  0  0  0  0  0  0  0
  -25.9910  -30.5300   21.3880 C   0  0  0  0  0  2  0  0  0  0  0  0
  -26.0710  -29.0570   20.7680 C   0  0  0  0  0  0  0  0  0  0  0  0
  -27.1820  -28.0170   20.7740 C   0  0  0  0  0  3  0  0  0  0  0  0
  -25.8980  -26.4890   19.5510 C   0  0  0  0  0  3  0  0  0  0  0  0
  -24.8360  -27.4590   19.5020 C   0  0  0  0  0  3  0  0  0  0  0  0
  -23.6610  -29.6800   20.1500 C   0  0  0  0  0  2  0  0  0  0  0  0
  -24.6800  -30.9860   22.0430 N   0  0  0  0  0  0  0  0  0  0  0  0
  -23.4660  -32.1860   23.5870 O   0  0  0  0  0  0  0  0  0  0  0  0
  -22.6800  -29.4790   22.4980 C   0  0  0  0  0  0  0  0  0  0  0  0
  -21.3450  -29.3230   22.3870 N   0  0  0  0  0  0  0  0  0  0  0  0
  -23.3380  -28.8810   23.3520 O   0  0  0  0  0  0  0  0  0  0  0  0
  -20.8600  -29.8560   21.6780 H   0  0  0  0  0  0  0  0  0  0  0  0
  -17.9650  -28.1000   22.9690 C   0  0  0  0  0  0  0  0  0  0  0  0
  -20.5290  -28.3970   23.1850 C   0  0  0  0  0  3  0  0  0  0  0  0
  -20.6310  -26.9550   22.6370 C   0  0  0  0  0  2  0  0  0  0  0  0
  -19.5190  -26.6070   21.6420 C   0  0  0  0  0  2  0  0  0  0  0  0
  -18.1450  -26.7470   22.3030 C   0  0  0  0  0  2  0  0  0  0  0  0
  -19.0840  -28.8820   23.3680 C   0  0  0  0  0  0  0  0  0  0  0  0
  -18.8570  -30.1440   23.9590 C   0  0  0  0  0  3  0  0  0  0  0  0
  -17.5480  -30.6270   24.1500 C   0  0  0  0  0  3  0  0  0  0  0  0
  -16.4460  -29.8450   23.7610 C   0  0  0  0  0  3  0  0  0  0  0  0
  -16.6560  -28.5830   23.1770 C   0  0  0  0  0  3  0  0  0  0  0  0
  -25.8120  -32.5750   23.7230 C   0  0  0  0  0  3  0  0  0  0  0  0
  -26.3380  -31.8380   25.0180 C   0  0  1  0  0  0  0  0  0  0  0  0
  -25.2470  -31.5950   26.0880 C   0  0  0  0  0  1  0  0  0  0  0  0
  -26.9530  -30.4650   24.6670 C   0  0  0  0  0  1  0  0  0  0  0  0
  -27.4700  -32.6670   25.6690 C   0  0  0  0  0  1  0  0  0  0  0  0
  -25.4490  -33.9680   24.0660 N   0  0  0  0  0  0  0  0  0  0  0  0
  -25.7730  -35.0550   23.3500 C   0  0  0  0  0  0  0  0  0  0  0  0
  -26.4600  -34.9900   22.3280 O   0  0  0  0  0  0  0  0  0  0  0  0
  -24.8360  -34.0870   24.8580 H   0  0  0  0  0  0  0  0  0  0  0  0
  -24.0340  -36.8510   23.0170 C   0  0  0  0  0  1  0  0  0  0  0  0
  -25.2610  -36.4270   23.8400 C   0  0  0  0  0  3  0  0  0  0  0  0
  -27.3640  -37.3210   24.7480 C   0  0  0  0  0  1  0  0  0  0  0  0
  -26.2820  -37.4980   23.7820 N   0  0  0  0  0  0  0  0  0  0  0  0
  -25.8600  -38.4080   23.9410 H   0  0  0  0  0  0  0  0  0  0  0  0
  3 10  2  0
  4  9  1  0
  5  6  1  0
  5  4  1  0
  7  6  1  0
  7 15  1  0
  7  8  1  0
  9  3  1  0
  9  8  1  0
 11  3  1  0
 11  2  1  0
 12 13  2  0
 13 32  1  0
 14 13  1  0
 14 17  1  0
 15 12  1  0
 15 16  1  0
 16 14  2  0
 17 18  1  0
 18 19  2  0
 20 23  1  0
 20 19  1  0
 21 20  2  0
 22 21  1  0
 22 17  2  0
 23 24  1  0
 24 25  1  0
 25 26  2  0
 27 26  1  0
 27 31  1  0
 28 27  2  0
 29 24  2  0
 29 28  1  0
 30 29  1  0
 32 33  1  0
 33 36  1  0
 33 35  1  0
 34 32  2  0
 37 38  1  0
 37 12  1  0
 39 37  1  0
 40 42  1  0
 41 42  1  0
 42 11  1  0
 44 46  1  0
 45 56  2  0
 46 51  1  0
 47 55  1  0
 47 57  1  0
 48 54  1  0
 48 50  1  0
 49 55  1  0
 50 51  2  0
 50 49  1  0
 52 46  2  0
 53 52  1  0
 53 48  2  0
 54 47  1  0
 55 45  1  0
 57 59  2  0
 58 57  1  0
 60 58  1  0
 61 70  2  0
 61 66  1  0
 62 58  1  0
 62 66  1  0
 63 62  1  0
 64 65  1  0
 64 63  1  0
 65 61  1  0
 66 67  2  0
 67 68  1  0
 69 68  2  0
 70 69  1  0
 71 45  1  0
 71 76  1  0
 71 72  1  0
 72 75  1  1
 72 73  1  0
 74 72  1  0
 76 79  1  0
 77 81  1  0
 77 76  1  0
 78 77  2  0
 81 80  1  0
 83 81  1  0
 83 84  1  0
 83 82  1  0
M  ISO  4   3 100  11 100  43 101  44 101
M  END
>  <TORSDO>  (60) 
F 19

>  <SCORE>  (60) 
-15.124

>  <name>  (60) 
59

>  <ligand_id>  (60) 
59

>  <original_smiles>  (60) 
[H]c1c([H])c([H])c2c(c1[H])C([H])([H])C([H])([H])C([H])([H])C2([H])N([H])C(=O)C1([H])N(C(=O)C([H])(N([H])C(=O)C([H])(N([H])C([H])([H])[H])C([H])([H])[H])C(C([H])([H])[H])(C([H])([H])[H])C([H])([H])[H])C([H])([H])c2c([H])c(OC([H])([H])C([H])([H])C([H])([H])N(C(=O)N3C([H])([H])C([H])([H])C([H])([H])C([H])(n4nc(-c5c([H])c([H])c(Oc6c([H])c([H])c(F)c([H])c6F)c([H])c5[H])c(C(=O)N([H])[H])c4N([H])[H])C3([H])[H])C([H])(C([H])([H])[H])C([H])([H])[H])c([H])c([H])c2C1([H])[H]

>  <smiles>  (60) 
[H]c1c([H])c([H])c2c(c1[H])C([H])([H])C([H])([H])C([H])([H])C2([H])N([H])C(=O)C1([H])N(C(=O)C([H])(N([H])C(=O)C([H])(N([H])C([H])([H])[H])C([H])([H])[H])C(C([H])([H])[H])(C([H])([H])[H])C([H])([H])[H])C([H])([H])c2c([H])c(OC([H])([H])C([H])([H])C([H])([H])N(C(=O)N3C([H])([H])C([H])([H])C([H])([H])C([H])(n4nc(-c5c([H])c([H])c(Oc6c([H])c([H])c(F)c([H])c6F)c([H])c5[H])c(C(=O)N([H])[H])c4N([H])[H])C3([H])[H])C([H])(C([H])([H])[H])C([H])([H])[H])c([H])c([H])c2C1([H])[H]

$$$$
60:0:0
     RDKit          3D

 87 90  0  0  1  0  0  0  0  0999 V2000
  -27.9100  -18.0110   19.8380 C   0  0  0  0  0  2  0  0  0  0  0  0
  -29.5830  -19.7420   20.5390 C   0  0  0  0  0 15  0  0  0  0  0  0
  -27.3810  -19.3170   19.0360 C   0  0  0  0  0  2  0  0  0  0  0  0
  -28.5150  -21.3910   20.2460 C   0  0  0  0  0  1  0  0  0  0  0  0
  -29.4660  -17.8450   19.9940 C   0  0  0  0  0  2  0  0  0  0  0  0
  -30.1060  -17.9950   18.5920 C   0  0  0  0  0  1  0  0  0  0  0  0
  -27.3040  -20.7170   19.6560 N   0  0  0  0  0  4  0  0  0  0  0  0
  -26.5960  -20.6880   20.3740 H   0  0  0  0  0  0  0  0  0  0  0  0
  -26.9380  -21.3270   18.9410 H   0  0  0  0  0  0  0  0  0  0  0  0
  -30.1690  -15.9910   20.2560 C   0  0  0  0  0  2  0  0  0  0  0  0
  -30.3760  -13.3580   19.5170 C   0  0  0  0  0  2  0  0  0  0  0  0
  -29.5420  -12.8060   18.3170 C   0  0  0  0  0  2  0  0  0  0  0  0
  -28.1330  -12.3880   18.7590 C   0  0  0  0  0  2  0  0  0  0  0  0
  -27.5540  -13.4150   19.7520 C   0  0  0  0  0  3  0  0  0  0  0  0
  -28.5410  -13.8710   20.8570 C   0  0  0  0  0  2  0  0  0  0  0  0
  -29.6870  -14.5700   20.2040 N   0  0  0  0  0  0  0  0  0  0  0  0
  -31.4130  -15.8290   20.2300 O   0  0  0  0  0  1  0  0  0  0  0  0
  -25.1860  -13.9020   20.4990 C   0  0  0  0  0  0  0  0  0  0  0  0
  -24.1300  -13.1120   20.8510 C   0  0  0  0  0  0  0  0  0  0  0  0
  -24.6180  -11.7680   20.8330 C   0  0  0  0  0  0  0  0  0  0  0  0
  -26.2430  -13.0450   20.2690 N   0  0  0  0  0  0  0  0  0  0  0  0
  -25.9160  -11.7510   20.5380 N   0  0  0  0  0  0  0  0  0  0  0  0
  -23.8980  -10.4990   21.0170 C   0  0  0  0  0  0  0  0  0  0  0  0
  -24.3130   -9.5410   21.9680 C   0  0  0  0  0  3  0  0  0  0  0  0
  -23.5860   -8.3430   22.1440 C   0  0  0  0  0  3  0  0  0  0  0  0
  -22.4290   -8.0930   21.3690 C   0  0  0  0  0  0  0  0  0  0  0  0
  -22.0320   -9.0390   20.4080 C   0  0  0  0  0  3  0  0  0  0  0  0
  -22.7590  -10.2290   20.2310 C   0  0  0  0  0  3  0  0  0  0  0  0
  -21.6770   -6.9460   21.4510 O   0  0  0  0  0  0  0  0  0  0  0  0
  -21.6000   -6.2170   22.6110 C   0  0  0  0  0  0  0  0  0  0  0  0
  -21.1340   -6.7830   23.8170 C   0  0  0  0  0  3  0  0  0  0  0  0
  -21.0050   -5.9800   24.9690 C   0  0  0  0  0  3  0  0  0  0  0  0
  -21.3330   -4.6130   24.9150 C   0  0  0  0  0  0  0  0  0  0  0  0
  -21.7910   -4.0450   23.7130 C   0  0  0  0  0  3  0  0  0  0  0  0
  -21.9210   -4.8450   22.5640 C   0  0  0  0  0  0  0  0  0  0  0  0
  -22.3430   -4.2880   21.4020 F   0  0  0  0  0  0  0  0  0  0  0  0
  -21.2020   -3.8400   26.0180 F   0  0  0  0  0  0  0  0  0  0  0  0
  -22.7230  -13.5750   21.0870 C   0  0  0  0  0  0  0  0  0  0  0  0
  -21.9870  -12.8860   21.9500 N   0  0  0  0  0  0  0  0  0  0  0  0
  -22.2860  -14.5890   20.5420 O   0  0  0  0  0  0  0  0  0  0  0  0
  -22.3560  -12.0690   22.4130 H   0  0  0  0  0  0  0  0  0  0  0  0
  -21.0420  -13.1800   22.1510 H   0  0  0  0  0  0  0  0  0  0  0  0
  -25.3310  -15.2740   20.3190 N   0  0  0  0  0  0  0  0  0  0  0  0
  -24.5550  -15.9180   20.4240 H   0  0  0  0  0  0  0  0  0  0  0  0
  -26.1840  -15.7230   20.0150 H   0  0  0  0  0  0  0  0  0  0  0  0
  -28.1600  -23.4260   20.5840 C   0  0  0  0  0 15  0  0  0  0  0  0
  -28.1540  -25.2610   20.2190 O   0  0  0  0  0  1  0  0  0  0  0  0
  -24.6300  -31.8230   23.1380 C   0  0  0  0  0  0  0  0  0  0  0  0
  -27.1790  -26.5450   20.2570 C   0  0  0  0  0  0  0  0  0  0  0  0
  -23.4590  -30.3900   21.5260 C   0  0  0  0  0  3  0  0  0  0  0  0
  -24.9170  -28.6900   20.1580 C   0  0  0  0  0  0  0  0  0  0  0  0
  -26.0460  -30.4900   21.4240 C   0  0  0  0  0  2  0  0  0  0  0  0
  -26.1170  -29.0260   20.7950 C   0  0  0  0  0  0  0  0  0  0  0  0
  -27.2250  -27.9910   20.7980 C   0  0  0  0  0  3  0  0  0  0  0  0
  -25.9360  -26.4710   19.5620 C   0  0  0  0  0  3  0  0  0  0  0  0
  -24.8760  -27.4400   19.5160 C   0  0  0  0  0  3  0  0  0  0  0  0
  -23.7140  -29.6590   20.1740 C   0  0  0  0  0  2  0  0  0  0  0  0
  -24.7380  -30.9400   22.0810 N   0  0  0  0  0  0  0  0  0  0  0  0
  -23.5300  -32.1310   23.6330 O   0  0  0  0  0  0  0  0  0  0  0  0
  -22.7300  -29.4390   22.5150 C   0  0  0  0  0  0  0  0  0  0  0  0
  -21.3950  -29.2910   22.4000 N   0  0  0  0  0  0  0  0  0  0  0  0
  -23.3820  -28.8260   23.3640 O   0  0  0  0  0  0  0  0  0  0  0  0
  -20.9140  -29.8360   21.6960 H   0  0  0  0  0  0  0  0  0  0  0  0
  -18.0050  -28.0890   22.9560 C   0  0  0  0  0  0  0  0  0  0  0  0
  -20.5700  -28.3650   23.1870 C   0  0  0  0  0  3  0  0  0  0  0  0
  -20.6640  -26.9250   22.6280 C   0  0  0  0  0  2  0  0  0  0  0  0
  -19.5540  -26.5930   21.6270 C   0  0  0  0  0  2  0  0  0  0  0  0
  -18.1780  -26.7380   22.2830 C   0  0  0  0  0  2  0  0  0  0  0  0
  -19.1270  -28.8600   23.3660 C   0  0  0  0  0  0  0  0  0  0  0  0
  -18.9060  -30.1190   23.9640 C   0  0  0  0  0  3  0  0  0  0  0  0
  -17.6000  -30.6110   24.1510 C   0  0  0  0  0  3  0  0  0  0  0  0
  -16.4950  -29.8400   23.7520 C   0  0  0  0  0  3  0  0  0  0  0  0
  -16.6990  -28.5800   23.1610 C   0  0  0  0  0  3  0  0  0  0  0  0
  -25.8790  -32.5010   23.7780 C   0  0  0  0  0  3  0  0  0  0  0  0
  -25.5310  -33.8980   24.1200 N   0  0  0  0  0  0  0  0  0  0  0  0
  -25.8430  -34.9770   23.3890 C   0  0  0  0  0  0  0  0  0  0  0  0
  -26.5070  -34.9040   22.3540 O   0  0  0  0  0  0  0  0  0  0  0  0
  -24.9340  -34.0240   24.9240 H   0  0  0  0  0  0  0  0  0  0  0  0
  -24.0870  -36.7650   23.1000 C   0  0  0  0  0  1  0  0  0  0  0  0
  -25.3460  -36.3550   23.8810 C   0  0  0  0  0  3  0  0  0  0  0  0
  -27.4790  -37.2650   24.6970 C   0  0  0  0  0  1  0  0  0  0  0  0
  -26.3610  -37.4260   23.7710 N   0  0  0  0  0  0  0  0  0  0  0  0
  -25.9430  -38.3380   23.9350 H   0  0  0  0  0  0  0  0  0  0  0  0
  -26.3900  -31.7550   25.0730 C   0  0  1  0  0  0  0  0  0  0  0  0
  -25.2910  -31.5220   26.1360 C   0  0  0  0  0  1  0  0  0  0  0  0
  -26.9910  -30.3770   24.7210 C   0  0  0  0  0  1  0  0  0  0  0  0
  -27.5280  -32.5700   25.7330 C   0  0  0  0  0  1  0  0  0  0  0  0
  1  5  1  0
  3  7  1  0
  3  1  1  0
  6  5  1  0
  7  4  1  0
  7  8  1  0
  9  7  1  0
 11 16  1  0
 12 13  1  0
 12 11  1  0
 14 13  1  0
 14 21  1  0
 14 15  1  0
 16 10  1  0
 16 15  1  0
 17 10  1  0
 18 19  2  0
 19 38  1  0
 20 19  1  0
 20 23  1  0
 21 18  1  0
 21 22  1  0
 22 20  2  0
 23 24  1  0
 24 25  2  0
 26 29  1  0
 26 25  1  0
 27 26  2  0
 28 27  1  0
 28 23  2  0
 29 30  1  0
 30 31  1  0
 31 32  2  0
 33 32  1  0
 33 37  1  0
 34 33  2  0
 35 30  2  0
 35 34  1  0
 36 35  1  0
 38 39  1  0
 39 42  1  0
 39 41  1  0
 40 38  2  0
 43 44  1  0
 43 18  1  0
 45 43  1  0
 47 49  1  0
 48 59  2  0
 49 54  1  0
 50 58  1  0
 50 60  1  0
 51 57  1  0
 51 53  1  0
 52 58  1  0
 53 54  2  0
 53 52  1  0
 55 49  2  0
 56 55  1  0
 56 51  2  0
 57 50  1  0
 58 48  1  0
 60 62  2  0
 61 60  1  0
 63 61  1  0
 64 73  2  0
 64 69  1  0
 65 61  1  0
 65 69  1  0
 66 65  1  0
 67 68  1  0
 67 66  1  0
 68 64  1  0
 69 70  2  0
 70 71  1  0
 72 71  2  0
 73 72  1  0
 74 48  1  0
 74 75  1  0
 74 84  1  0
 75 78  1  0
 76 80  1  0
 76 75  1  0
 77 76  2  0
 80 79  1  0
 82 80  1  0
 82 83  1  0
 82 81  1  0
 84 87  1  1
 84 85  1  0
 86 84  1  0
M  ISO  4   5 100  10 100  46 101  47 101
M  END
>  <TORSDO>  (61) 
F 17

>  <SCORE>  (61) 
-16.671

>  <name>  (61) 
60

>  <ligand_id>  (61) 
60

>  <original_smiles>  (61) 
[H]c1c([H])c([H])c2c(c1[H])C([H])([H])C([H])([H])C([H])([H])C2([H])N([H])C(=O)C1([H])N(C(=O)C([H])(N([H])C(=O)C([H])(N([H])C([H])([H])[H])C([H])([H])[H])C(C([H])([H])[H])(C([H])([H])[H])C([H])([H])[H])C([H])([H])c2c([H])c(OC([H])([H])C3([H])C([H])([H])C(C(=O)N4C([H])([H])C([H])([H])C([H])([H])C([H])(n5nc(-c6c([H])c([H])c(Oc7c([H])c([H])c(F)c([H])c7F)c([H])c6[H])c(C(=O)N([H])[H])c5N([H])[H])C4([H])[H])(C([H])([H])[H])C([H])([H])C([H])([H])[N+]3([H])[H])c([H])c([H])c2C1([H])[H]

>  <smiles>  (61) 
[H]c1c([H])c([H])c2c(c1[H])C([H])([H])C([H])([H])C([H])([H])C2([H])N([H])C(=O)C1([H])N(C(=O)C([H])(N([H])C(=O)C([H])(N([H])C([H])([H])[H])C([H])([H])[H])C(C([H])([H])[H])(C([H])([H])[H])C([H])([H])[H])C([H])([H])c2c([H])c(OC([H])([H])C3([H])C([H])([H])C(C(=O)N4C([H])([H])C([H])([H])C([H])([H])C([H])(n5nc(-c6c([H])c([H])c(Oc7c([H])c([H])c(F)c([H])c7F)c([H])c6[H])c(C(=O)N([H])[H])c5N([H])[H])C4([H])[H])(C([H])([H])[H])C([H])([H])C([H])([H])[N+]3([H])[H])c([H])c([H])c2C1([H])[H]

$$$$
61:0:0
     RDKit          3D

 88 96  0  0  1  0  0  0  0  0999 V2000
  -29.8080  -21.1110   20.4160 C   0  0  0  0  0  3  0  0  0  0  0  0
  -30.5960  -14.7700   20.3620 C   0  0  0  0  0  0  0  0  0  0  0  0
  -30.3530  -12.4950   19.3550 C   0  0  0  0  0  2  0  0  0  0  0  0
  -29.3950  -12.5190   18.1450 C   0  0  0  0  0  2  0  0  0  0  0  0
  -27.9400  -12.3060   18.6070 C   0  0  0  0  0  2  0  0  0  0  0  0
  -27.5560  -13.2230   19.7960 C   0  0  0  0  0  3  0  0  0  0  0  0
  -28.6370  -13.2250   20.9010 C   0  0  0  0  0  2  0  0  0  0  0  0
  -29.9210  -13.5690   20.2750 N   0  0  0  0  0  0  0  0  0  0  0  0
  -31.8120  -14.8000   20.1620 O   0  0  0  0  0  0  0  0  0  0  0  0
  -28.9520  -17.7190   18.8030 C   0  0  0  0  0  2  0  0  0  0  0  0
  -28.4710  -19.0040   19.5390 C   0  0  0  0  0  2  0  0  0  0  0  0
  -30.5490  -18.5400   20.9570 C   0  0  0  0  0  2  0  0  0  0  0  0
  -28.8220  -16.3570   19.5460 C   0  0  0  0  0  2  0  0  0  0  0  0
  -30.2070  -17.0680   21.4690 C   0  0  0  0  0  2  0  0  0  0  0  0
  -29.3780  -19.5700   20.6590 C   0  0  0  0  0  3  0  0  0  0  0  0
  -29.8860  -15.9670   20.4960 N   0  0  0  0  0  0  0  0  0  0  0  0
  -25.1900  -13.8380   20.5570 C   0  0  0  0  0  0  0  0  0  0  0  0
  -24.1260  -13.0670   20.9320 C   0  0  0  0  0  0  0  0  0  0  0  0
  -24.5880  -11.7170   20.8940 C   0  0  0  0  0  0  0  0  0  0  0  0
  -26.2270  -12.9490   20.3110 N   0  0  0  0  0  0  0  0  0  0  0  0
  -25.8750  -11.6710   20.5820 N   0  0  0  0  0  0  0  0  0  0  0  0
  -23.8630  -10.4560   21.0800 C   0  0  0  0  0  0  0  0  0  0  0  0
  -24.3070   -9.4820   22.0000 C   0  0  0  0  0  3  0  0  0  0  0  0
  -23.5830   -8.2830   22.1730 C   0  0  0  0  0  3  0  0  0  0  0  0
  -22.4040   -8.0530   21.4260 C   0  0  0  0  0  0  0  0  0  0  0  0
  -21.9800   -9.0170   20.4940 C   0  0  0  0  0  3  0  0  0  0  0  0
  -22.7050  -10.2070   20.3180 C   0  0  0  0  0  3  0  0  0  0  0  0
  -21.6490   -6.9090   21.5120 O   0  0  0  0  0  0  0  0  0  0  0  0
  -21.6150   -6.1560   22.6570 C   0  0  0  0  0  0  0  0  0  0  0  0
  -21.2090   -6.7010   23.8950 C   0  0  0  0  0  3  0  0  0  0  0  0
  -21.1200   -5.8730   25.0320 C   0  0  0  0  0  3  0  0  0  0  0  0
  -21.4290   -4.5040   24.9340 C   0  0  0  0  0  0  0  0  0  0  0  0
  -21.8320   -3.9590   23.7020 C   0  0  0  0  0  3  0  0  0  0  0  0
  -21.9210   -4.7840   22.5660 C   0  0  0  0  0  0  0  0  0  0  0  0
  -22.2870   -4.2510   21.3760 F   0  0  0  0  0  0  0  0  0  0  0  0
  -21.3380   -3.7070   26.0240 F   0  0  0  0  0  0  0  0  0  0  0  0
  -22.7320  -13.5480   21.2070 C   0  0  0  0  0  0  0  0  0  0  0  0
  -22.0060  -12.8540   22.0770 N   0  0  0  0  0  0  0  0  0  0  0  0
  -22.2940  -14.5730   20.6880 O   0  0  0  0  0  0  0  0  0  0  0  0
  -22.3730  -12.0250   22.5200 H   0  0  0  0  0  0  0  0  0  0  0  0
  -21.0710  -13.1590   22.3050 H   0  0  0  0  0  0  0  0  0  0  0  0
  -25.3470  -15.2090   20.3810 N   0  0  0  0  0  0  0  0  0  0  0  0
  -24.5750  -15.8550   20.5020 H   0  0  0  0  0  0  0  0  0  0  0  0
  -26.1920  -15.6590   20.0540 H   0  0  0  0  0  0  0  0  0  0  0  0
  -28.7150  -22.2930   20.3670 C   0  0  0  0  0  3  0  0  0  0  0  0
  -29.1630  -23.8440   20.3780 C   0  0  0  0  0  3  0  0  0  0  0  0
  -28.0360  -24.9610   20.1260 C   0  0  0  0  0  3  0  0  0  0  0  0
  -28.3020  -26.4300   20.2210 O   0  0  0  0  0  0  0  0  0  0  0  0
  -24.6250  -31.8970   23.2460 C   0  0  0  0  0  0  0  0  0  0  0  0
  -27.1950  -27.3100   20.1730 C   0  0  0  0  0  0  0  0  0  0  0  0
  -23.4070  -30.5100   21.6110 C   0  0  0  0  0  3  0  0  0  0  0  0
  -24.8420  -28.9570   20.1730 C   0  0  0  0  0  0  0  0  0  0  0  0
  -25.9510  -30.8100   21.4170 C   0  0  0  0  0  2  0  0  0  0  0  0
  -26.0210  -29.4320   20.7630 C   0  0  0  0  0  0  0  0  0  0  0  0
  -27.2010  -28.6230   20.7460 C   0  0  0  0  0  3  0  0  0  0  0  0
  -25.9860  -26.8950   19.5630 C   0  0  0  0  0  3  0  0  0  0  0  0
  -24.8290  -27.6960   19.5640 C   0  0  0  0  0  3  0  0  0  0  0  0
  -23.6100  -29.8400   20.2280 C   0  0  0  0  0  2  0  0  0  0  0  0
  -24.6800  -31.0880   22.1480 N   0  0  0  0  0  0  0  0  0  0  0  0
  -23.5450  -32.1810   23.7850 O   0  0  0  0  0  0  0  0  0  0  0  0
  -22.7420  -29.4930   22.5690 C   0  0  0  0  0  0  0  0  0  0  0  0
  -21.4150  -29.3250   22.4450 N   0  0  0  0  0  0  0  0  0  0  0  0
  -23.4190  -28.8610   23.3850 O   0  0  0  0  0  0  0  0  0  0  0  0
  -20.9290  -29.8860   21.7600 H   0  0  0  0  0  0  0  0  0  0  0  0
  -18.0300  -28.1520   22.9480 C   0  0  0  0  0  0  0  0  0  0  0  0
  -20.5890  -28.3910   23.2150 C   0  0  0  0  0  3  0  0  0  0  0  0
  -20.6800  -26.9600   22.6380 C   0  0  0  0  0  2  0  0  0  0  0  0
  -19.5740  -26.6470   21.6240 C   0  0  0  0  0  2  0  0  0  0  0  0
  -18.1940  -26.8010   22.2710 C   0  0  0  0  0  2  0  0  0  0  0  0
  -19.1540  -28.9050   23.3770 C   0  0  0  0  0  0  0  0  0  0  0  0
  -18.9440  -30.1690   23.9690 C   0  0  0  0  0  3  0  0  0  0  0  0
  -17.6430  -30.6780   24.1400 C   0  0  0  0  0  3  0  0  0  0  0  0
  -16.5340  -29.9220   23.7280 C   0  0  0  0  0  3  0  0  0  0  0  0
  -16.7270  -28.6590   23.1380 C   0  0  0  0  0  3  0  0  0  0  0  0
  -25.9130  -32.5200   23.8660 C   0  0  0  0  0  3  0  0  0  0  0  0
  -26.4290  -31.7400   25.1360 C   0  0  1  0  0  0  0  0  0  0  0  0
  -25.3380  -31.5030   26.2070 C   0  0  0  0  0  1  0  0  0  0  0  0
  -27.0040  -30.3620   24.7360 C   0  0  0  0  0  1  0  0  0  0  0  0
  -27.5870  -32.5260   25.7970 C   0  0  0  0  0  1  0  0  0  0  0  0
  -25.6090  -33.9160   24.2060 N   0  0  0  0  0  0  0  0  0  0  0  0
  -25.9270  -34.9740   23.4470 C   0  0  0  0  0  0  0  0  0  0  0  0
  -26.5760  -34.8740   22.4030 O   0  0  0  0  0  0  0  0  0  0  0  0
  -25.0250  -34.0670   25.0160 H   0  0  0  0  0  0  0  0  0  0  0  0
  -24.1810  -36.7610   23.1510 C   0  0  0  0  0  1  0  0  0  0  0  0
  -25.4490  -36.3600   23.9220 C   0  0  0  0  0  3  0  0  0  0  0  0
  -27.6070  -37.2510   24.6830 C   0  0  0  0  0  1  0  0  0  0  0  0
  -26.4750  -37.4170   23.7760 N   0  0  0  0  0  0  0  0  0  0  0  0
  -26.0710  -38.3360   23.9410 H   0  0  0  0  0  0  0  0  0  0  0  0
  2 16  1  0
  3  8  1  0
  4  5  1  0
  4  3  1  0
  6  5  1  0
  6 20  1  0
  6  7  1  0
  8  2  1  0
  8  7  1  0
  9  2  2  0
 10 11  1  0
 10 13  1  0
 11 15  1  0
 12 14  1  0
 13 16  1  0
 15  1  1  0
 15 12  1  0
 16 14  1  0
 17 18  2  0
 18 37  1  0
 19 18  1  0
 19 22  1  0
 20 17  1  0
 20 21  1  0
 21 19  2  0
 22 23  1  0
 23 24  2  0
 25 28  1  0
 25 24  1  0
 26 25  2  0
 27 26  1  0
 27 22  2  0
 28 29  1  0
 29 30  1  0
 30 31  2  0
 32 31  1  0
 32 36  1  0
 33 32  2  0
 34 29  2  0
 34 33  1  0
 35 34  1  0
 37 38  1  0
 38 41  1  0
 38 40  1  0
 39 37  2  0
 42 43  1  0
 42 17  1  0
 44 42  1  0
 45 46  1  0
 45  1  2  0
 47 48  1  0
 47 46  2  0
 49 60  2  0
 50 48  1  0
 50 55  1  0
 51 59  1  0
 51 61  1  0
 52 58  1  0
 52 54  1  0
 53 59  1  0
 54 53  1  0
 55 54  2  0
 56 57  1  0
 56 50  2  0
 57 52  2  0
 58 51  1  0
 59 49  1  0
 61 63  2  0
 62 61  1  0
 64 62  1  0
 65 74  2  0
 65 70  1  0
 66 62  1  0
 66 70  1  0
 67 66  1  0
 68 69  1  0
 68 67  1  0
 69 65  1  0
 70 71  2  0
 71 72  1  0
 73 72  2  0
 74 73  1  0
 75 49  1  0
 75 80  1  0
 75 76  1  0
 76 79  1  1
 76 77  1  0
 78 76  1  0
 80 83  1  0
 81 85  1  0
 81 80  1  0
 82 81  2  0
 85 84  1  0
 87 85  1  0
 87 88  1  0
 87 86  1  0
M  ISO  4   2 100  16 100  47 101  48 101
M  END
>  <TORSDO>  (62) 
F 19

>  <SCORE>  (62) 
-14.368

>  <name>  (62) 
61

>  <ligand_id>  (62) 
61

>  <original_smiles>  (62) 
[H]c1c([H])c([H])c2c(c1[H])C([H])([H])C([H])([H])C([H])([H])C2([H])N([H])C(=O)C1([H])N(C(=O)C([H])(N([H])C(=O)C([H])(N([H])C([H])([H])[H])C([H])([H])[H])C(C([H])([H])[H])(C([H])([H])[H])C([H])([H])[H])C([H])([H])c2c([H])c(OC([H])([H])C([H])([H])C([H])([H])C([H])([H])C3([H])C([H])([H])C([H])([H])N(C(=O)N4C([H])([H])C([H])([H])C([H])([H])C([H])(n5nc(-c6c([H])c([H])c(Oc7c([H])c([H])c(F)c([H])c7F)c([H])c6[H])c(C(=O)N([H])[H])c5N([H])[H])C4([H])[H])C([H])([H])C([H])([H])C3([H])[H])c([H])c([H])c2C1([H])[H]

>  <smiles>  (62) 
[H]c1c([H])c([H])c2c(c1[H])C([H])([H])C([H])([H])C([H])([H])C2([H])N([H])C(=O)C1([H])N(C(=O)C([H])(N([H])C(=O)C([H])(N([H])C([H])([H])[H])C([H])([H])[H])C(C([H])([H])[H])(C([H])([H])[H])C([H])([H])[H])C([H])([H])c2c([H])c(OC([H])([H])C([H])([H])C([H])([H])C([H])([H])C3([H])C([H])([H])C([H])([H])N(C(=O)N4C([H])([H])C([H])([H])C([H])([H])C([H])(n5nc(-c6c([H])c([H])c(Oc7c([H])c([H])c(F)c([H])c7F)c([H])c6[H])c(C(=O)N([H])[H])c5N([H])[H])C4([H])[H])C([H])([H])C([H])([H])C3([H])[H])c([H])c([H])c2C1([H])[H]

$$$$
62:0:0
     RDKit          3D

 95102  0  0  1  0  0  0  0  0999 V2000
  -30.1430  -20.9820   20.2100 C   0  0  0  0  0  3  0  0  0  0  0  0
  -27.9580  -21.8540   21.0390 C   0  0  0  0  0  1  0  0  0  0  0  0
  -29.3700  -22.1890   20.8310 N   0  0  0  0  0  0  0  0  0  0  0  0
  -29.4140  -23.6310   20.2350 C   0  0  0  0  0  3  0  0  0  0  0  0
  -28.3970  -24.8770   20.6820 C   0  0  0  0  0  3  0  0  0  0  0  0
  -28.5590  -26.3600   20.3230 O   0  0  0  0  0  0  0  0  0  0  0  0
  -24.6990  -31.8800   23.2000 C   0  0  0  0  0  0  0  0  0  0  0  0
  -27.4370  -27.2440   20.2720 C   0  0  0  0  0  0  0  0  0  0  0  0
  -23.5460  -30.4420   21.5580 C   0  0  0  0  0  3  0  0  0  0  0  0
  -25.0490  -28.8830   20.1770 C   0  0  0  0  0  0  0  0  0  0  0  0
  -26.0890  -30.7800   21.4150 C   0  0  0  0  0  2  0  0  0  0  0  0
  -26.2050  -29.3850   20.7890 C   0  0  0  0  0  0  0  0  0  0  0  0
  -27.4000  -28.5830   20.8140 C   0  0  0  0  0  3  0  0  0  0  0  0
  -26.2540  -26.8210   19.6260 C   0  0  0  0  0  3  0  0  0  0  0  0
  -25.0820  -27.6120   19.5800 C   0  0  0  0  0  3  0  0  0  0  0  0
  -23.7990  -29.7470   20.1920 C   0  0  0  0  0  2  0  0  0  0  0  0
  -24.7960  -31.0560   22.1130 N   0  0  0  0  0  0  0  0  0  0  0  0
  -23.6030  -32.1470   23.7140 O   0  0  0  0  0  0  0  0  0  0  0  0
  -22.8780  -29.4330   22.5240 C   0  0  0  0  0  0  0  0  0  0  0  0
  -21.5550  -29.2340   22.3820 N   0  0  0  0  0  0  0  0  0  0  0  0
  -23.5520  -28.8290   23.3640 O   0  0  0  0  0  0  0  0  0  0  0  0
  -21.0690  -29.7730   21.6790 H   0  0  0  0  0  0  0  0  0  0  0  0
  -18.1910  -27.9810   22.8540 C   0  0  0  0  0  0  0  0  0  0  0  0
  -20.7410  -28.2910   23.1530 C   0  0  0  0  0  3  0  0  0  0  0  0
  -20.8750  -26.8550   22.5960 C   0  0  0  0  0  2  0  0  0  0  0  0
  -19.7920  -26.5020   21.5710 C   0  0  0  0  0  2  0  0  0  0  0  0
  -18.4010  -26.6280   22.1950 C   0  0  0  0  0  2  0  0  0  0  0  0
  -19.2900  -28.7690   23.2900 C   0  0  0  0  0  0  0  0  0  0  0  0
  -19.0390  -30.0320   23.8680 C   0  0  0  0  0  3  0  0  0  0  0  0
  -17.7220  -30.5100   24.0130 C   0  0  0  0  0  3  0  0  0  0  0  0
  -16.6390  -29.7200   23.5920 C   0  0  0  0  0  3  0  0  0  0  0  0
  -16.8740  -28.4580   23.0200 C   0  0  0  0  0  3  0  0  0  0  0  0
  -25.9590  -32.5460   23.8370 C   0  0  0  0  0  3  0  0  0  0  0  0
  -26.4740  -31.7930   25.1240 C   0  0  1  0  0  0  0  0  0  0  0  0
  -25.3710  -31.5350   26.1780 C   0  0  0  0  0  1  0  0  0  0  0  0
  -27.0930  -30.4260   24.7510 C   0  0  0  0  0  1  0  0  0  0  0  0
  -27.5950  -32.6170   25.8000 C   0  0  0  0  0  1  0  0  0  0  0  0
  -25.6120  -33.9390   24.1580 N   0  0  0  0  0  0  0  0  0  0  0  0
  -25.9360  -34.9980   23.4050 C   0  0  0  0  0  0  0  0  0  0  0  0
  -26.6210  -34.9080   22.3830 O   0  0  0  0  0  0  0  0  0  0  0  0
  -25.0010  -34.0810   24.9490 H   0  0  0  0  0  0  0  0  0  0  0  0
  -24.1850  -36.7660   23.0240 C   0  0  0  0  0  1  0  0  0  0  0  0
  -25.4170  -36.3780   23.8570 C   0  0  0  0  0  3  0  0  0  0  0  0
  -27.5180  -37.3010   24.7320 C   0  0  0  0  0  1  0  0  0  0  0  0
  -26.4340  -37.4490   23.7650 N   0  0  0  0  0  0  0  0  0  0  0  0
  -26.0080  -38.3620   23.9020 H   0  0  0  0  0  0  0  0  0  0  0  0
  -32.0650  -21.0360   18.5280 C   0  0  0  0  0  1  0  0  0  0  0  0
  -31.6240  -21.3570   19.9620 C   0  0  0  0  0  2  0  0  0  0  0  0
  -30.0740  -19.4510   20.8760 C   0  0  0  0  0  3  0  0  0  0  0  0
  -30.5590  -19.5320   22.2640 N   0  0  0  0  0  4  0  0  0  0  0  0
  -31.5610  -19.4720   22.3070 H   0  0  0  0  0  0  0  0  0  0  0  0
  -30.1690  -18.7980   22.8300 H   0  0  0  0  0  0  0  0  0  0  0  0
  -30.2690  -20.4190   22.6440 H   0  0  0  0  0  0  0  0  0  0  0  0
  -30.6390  -18.0100   20.1830 C   0  0  0  0  0  2  0  0  0  0  0  0
  -29.9060  -16.4940   20.3650 C   0  0  0  0  0  3  0  0  0  0  0  0
  -30.5850  -15.0350   19.8690 C   0  0  0  0  0  0  0  0  0  0  0  0
  -30.4720  -12.6680   18.9260 C   0  0  0  0  0  2  0  0  0  0  0  0
  -29.4330  -12.5740   17.7790 C   0  0  0  0  0  2  0  0  0  0  0  0
  -28.0090  -12.3290   18.3200 C   0  0  0  0  0  2  0  0  0  0  0  0
  -27.6830  -13.2210   19.5420 C   0  0  0  0  0  3  0  0  0  0  0  0
  -28.8480  -13.2180   20.5650 C   0  0  0  0  0  2  0  0  0  0  0  0
  -30.0350  -13.7410   19.8710 N   0  0  0  0  0  0  0  0  0  0  0  0
  -31.7220  -15.1080   19.3880 O   0  0  0  0  0  0  0  0  0  0  0  0
  -25.3000  -13.7920   20.3740 C   0  0  0  0  0  0  0  0  0  0  0  0
  -24.2870  -13.0120   20.8370 C   0  0  0  0  0  0  0  0  0  0  0  0
  -24.7580  -11.6730   20.7410 C   0  0  0  0  0  0  0  0  0  0  0  0
  -26.3630  -12.9350   20.1030 N   0  0  0  0  0  0  0  0  0  0  0  0
  -26.0320  -11.6470   20.3610 N   0  0  0  0  0  0  0  0  0  0  0  0
  -24.0410  -10.4150   20.9340 C   0  0  0  0  0  0  0  0  0  0  0  0
  -24.4780   -9.4520   21.8670 C   0  0  0  0  0  3  0  0  0  0  0  0
  -23.7540   -8.2560   22.0460 C   0  0  0  0  0  3  0  0  0  0  0  0
  -22.5810   -8.0160   21.2940 C   0  0  0  0  0  0  0  0  0  0  0  0
  -22.1640   -8.9690   20.3480 C   0  0  0  0  0  3  0  0  0  0  0  0
  -22.8890  -10.1570   20.1660 C   0  0  0  0  0  3  0  0  0  0  0  0
  -21.8290   -6.8700   21.3870 O   0  0  0  0  0  0  0  0  0  0  0  0
  -21.7170   -6.1820   22.5670 C   0  0  0  0  0  0  0  0  0  0  0  0
  -21.1910   -6.7790   23.7330 C   0  0  0  0  0  3  0  0  0  0  0  0
  -21.0350   -6.0140   24.9060 C   0  0  0  0  0  3  0  0  0  0  0  0
  -21.3870   -4.6520   24.9120 C   0  0  0  0  0  0  0  0  0  0  0  0
  -21.9030   -4.0530   23.7490 C   0  0  0  0  0  3  0  0  0  0  0  0
  -22.0680   -4.8170   22.5800 C   0  0  0  0  0  0  0  0  0  0  0  0
  -22.5510   -4.2310   21.4570 F   0  0  0  0  0  0  0  0  0  0  0  0
  -21.2230   -3.9150   26.0350 F   0  0  0  0  0  0  0  0  0  0  0  0
  -22.9210  -13.4920   21.2350 C   0  0  0  0  0  0  0  0  0  0  0  0
  -22.2760  -12.7840   22.1550 N   0  0  0  0  0  0  0  0  0  0  0  0
  -22.4460  -14.5320   20.7820 O   0  0  0  0  0  0  0  0  0  0  0  0
  -22.6740  -11.9420   22.5440 H   0  0  0  0  0  0  0  0  0  0  0  0
  -21.3670  -13.0890   22.4720 H   0  0  0  0  0  0  0  0  0  0  0  0
  -25.3380  -15.1530   20.1440 N   0  0  0  0  0  0  0  0  0  0  0  0
  -24.5260  -15.7410   20.2980 H   0  0  0  0  0  0  0  0  0  0  0  0
  -26.1660  -15.6640   19.8670 H   0  0  0  0  0  0  0  0  0  0  0  0
  -27.3060  -16.1090   20.7740 C   0  0  0  0  0  1  0  0  0  0  0  0
  -28.4290  -16.7850   19.9530 C   0  0  0  0  0  3  0  0  0  0  0  0
  -27.5920  -18.7090   18.3850 C   0  0  0  0  0  1  0  0  0  0  0  0
  -28.2400  -17.3210   18.4900 C   0  0  0  0  0  2  0  0  0  0  0  0
  1 48  1  0
  1  3  1  0
  1 49  1  0
  3  2  1  0
  4  5  2  0
  4  3  1  0
  6  5  1  0
  7 18  2  0
  8  6  1  0
  8 13  1  0
  9 17  1  0
  9 19  1  0
 10 16  1  0
 10 12  1  0
 11 17  1  0
 12 13  2  0
 12 11  1  0
 14  8  2  0
 15 14  1  0
 15 10  2  0
 16  9  1  0
 17  7  1  0
 19 21  2  0
 20 19  1  0
 22 20  1  0
 23 32  2  0
 23 28  1  0
 24 20  1  0
 24 28  1  0
 25 24  1  0
 26 27  1  0
 26 25  1  0
 27 23  1  0
 28 29  2  0
 29 30  1  0
 31 30  2  0
 32 31  1  0
 33  7  1  0
 33 38  1  0
 33 34  1  0
 34 37  1  1
 34 35  1  0
 36 34  1  0
 38 41  1  0
 39 43  1  0
 39 38  1  0
 40 39  2  0
 43 42  1  0
 45 43  1  0
 45 46  1  0
 45 44  1  0
 47 48  1  0
 49 54  1  0
 49 50  1  0
 50 51  1  0
 50 53  1  0
 50 52  1  0
 55 54  1  0
 56 62  1  0
 56 55  1  0
 57 62  1  0
 58 59  1  0
 58 57  1  0
 60 59  1  0
 60 67  1  0
 60 61  1  0
 62 61  1  0
 63 56  2  0
 64 65  2  0
 65 84  1  0
 66 65  1  0
 66 69  1  0
 67 68  1  0
 67 64  1  0
 68 66  2  0
 69 70  1  0
 70 71  2  0
 72 75  1  0
 72 71  1  0
 73 72  2  0
 74 73  1  0
 74 69  2  0
 75 76  1  0
 76 81  2  0
 76 77  1  0
 77 78  2  0
 78 79  1  0
 79 83  1  0
 80 79  2  0
 81 80  1  0
 82 81  1  0
 84 85  1  0
 85 88  1  0
 85 87  1  0
 86 84  2  0
 89 90  1  0
 89 64  1  0
 91 89  1  0
 93 55  1  0
 93 92  1  0
 94 95  1  0
 95 93  1  0
M  ISO  4   5 101   6 101  55 100  56 100
M  END
>  <TORSDO>  (63) 
F 26

>  <SCORE>  (63) 
-12.291

>  <name>  (63) 
62

>  <ligand_id>  (63) 
62

>  <original_smiles>  (63) 
[H]c1c([H])c([H])c2c(c1[H])C([H])([H])C([H])([H])C([H])([H])C2([H])N([H])C(=O)C1([H])N(C(=O)C([H])(N([H])C(=O)C([H])(N([H])C([H])([H])[H])C([H])([H])[H])C(C([H])([H])[H])(C([H])([H])[H])C([H])([H])[H])C([H])([H])c2c([H])c(OC([H])([H])C([H])([H])N(C([H])([H])[H])C([H])(C([H])([H])C([H])([H])[H])C([H])(C([H])([H])C([H])(C(=O)N3C([H])([H])C([H])([H])C([H])([H])C([H])(n4nc(-c5c([H])c([H])c(Oc6c([H])c([H])c(F)c([H])c6F)c([H])c5[H])c(C(=O)N([H])[H])c4N([H])[H])C3([H])[H])C([H])(C([H])([H])[H])C([H])([H])C([H])([H])[H])[N+]([H])([H])[H])c([H])c([H])c2C1([H])[H]

>  <smiles>  (63) 
[H]c1c([H])c([H])c2c(c1[H])C([H])([H])C([H])([H])C([H])([H])C2([H])N([H])C(=O)C1([H])N(C(=O)C([H])(N([H])C(=O)C([H])(N([H])C([H])([H])[H])C([H])([H])[H])C(C([H])([H])[H])(C([H])([H])[H])C([H])([H])[H])C([H])([H])c2c([H])c(OC([H])([H])C([H])([H])N(C([H])([H])[H])C([H])(C([H])([H])C([H])([H])[H])C([H])(C([H])([H])C([H])(C(=O)N3C([H])([H])C([H])([H])C([H])([H])C([H])(n4nc(-c5c([H])c([H])c(Oc6c([H])c([H])c(F)c([H])c6F)c([H])c5[H])c(C(=O)N([H])[H])c4N([H])[H])C3([H])[H])C([H])(C([H])([H])[H])C([H])([H])C([H])([H])[H])[N+]([H])([H])[H])c([H])c([H])c2C1([H])[H]

$$$$
63:0:0
     RDKit          3D

 92100  0  0  1  0  0  0  0  0999 V2000
  -28.2890  -20.6290   21.4840 C   0  0  0  0  0  1  0  0  0  0  0  0
  -28.7860  -20.6780   20.0300 C   0  0  0  0  0  3  0  0  0  0  0  0
  -28.9570  -22.1870   19.5750 N   0  0  0  0  0  4  0  0  0  0  0  0
  -28.9650  -22.1640   18.5670 H   0  0  0  0  0  0  0  0  0  0  0  0
  -29.8870  -22.4720   19.8420 H   0  0  0  0  0  0  0  0  0  0  0  0
  -27.9970  -23.3760   20.0030 C   0  0  0  0  0  2  0  0  0  0  0  0
  -27.9590  -24.8480   19.2070 C   0  0  0  0  0  2  0  0  0  0  0  0
  -27.8930  -26.2820   19.7830 O   0  0  0  0  0  0  0  0  0  0  0  0
  -24.5080  -31.7950   23.1630 C   0  0  0  0  0  0  0  0  0  0  0  0
  -26.8000  -27.2090   19.7730 C   0  0  0  0  0  0  0  0  0  0  0  0
  -23.1680  -30.4770   21.5630 C   0  0  0  0  0  3  0  0  0  0  0  0
  -24.4850  -28.9460   19.9690 C   0  0  0  0  0  0  0  0  0  0  0  0
  -25.6980  -30.7360   21.2120 C   0  0  0  0  0  2  0  0  0  0  0  0
  -25.7050  -29.3690   20.5110 C   0  0  0  0  0  0  0  0  0  0  0  0
  -26.8570  -28.5140   20.3990 C   0  0  0  0  0  3  0  0  0  0  0  0
  -25.5550  -26.8740   19.1970 C   0  0  0  0  0  3  0  0  0  0  0  0
  -24.4210  -27.7130   19.2960 C   0  0  0  0  0  3  0  0  0  0  0  0
  -23.2740  -29.8490   20.1450 C   0  0  0  0  0  2  0  0  0  0  0  0
  -24.4830  -31.0230   22.0340 N   0  0  0  0  0  0  0  0  0  0  0  0
  -23.4690  -32.0690   23.7840 O   0  0  0  0  0  0  0  0  0  0  0  0
  -22.5520  -29.4410   22.5350 C   0  0  0  0  0  0  0  0  0  0  0  0
  -21.2350  -29.1970   22.4140 N   0  0  0  0  0  0  0  0  0  0  0  0
  -23.2610  -28.8590   23.3600 O   0  0  0  0  0  0  0  0  0  0  0  0
  -20.7180  -29.7220   21.7220 H   0  0  0  0  0  0  0  0  0  0  0  0
  -17.9650  -27.6960   22.8190 C   0  0  0  0  0  0  0  0  0  0  0  0
  -20.4690  -28.2210   23.1930 C   0  0  0  0  0  3  0  0  0  0  0  0
  -20.7370  -26.7810   22.7000 C   0  0  0  0  0  2  0  0  0  0  0  0
  -19.7260  -26.3020   21.6530 C   0  0  0  0  0  2  0  0  0  0  0  0
  -18.3060  -26.3410   22.2230 C   0  0  0  0  0  2  0  0  0  0  0  0
  -18.9810  -28.5850   23.2610 C   0  0  0  0  0  0  0  0  0  0  0  0
  -18.6100  -29.8450   23.7800 C   0  0  0  0  0  3  0  0  0  0  0  0
  -17.2560  -30.2200   23.8580 C   0  0  0  0  0  3  0  0  0  0  0  0
  -16.2530  -29.3320   23.4310 C   0  0  0  0  0  3  0  0  0  0  0  0
  -16.6090  -28.0720   22.9190 C   0  0  0  0  0  3  0  0  0  0  0  0
  -25.8390  -32.3900   23.7180 C   0  0  0  0  0  3  0  0  0  0  0  0
  -25.5800  -33.7860   24.1050 N   0  0  0  0  0  0  0  0  0  0  0  0
  -25.8920  -34.8570   23.3630 C   0  0  0  0  0  0  0  0  0  0  0  0
  -26.4970  -34.7700   22.2890 O   0  0  0  0  0  0  0  0  0  0  0  0
  -25.0410  -33.9290   24.9470 H   0  0  0  0  0  0  0  0  0  0  0  0
  -24.1880  -36.6990   23.1690 C   0  0  0  0  0  1  0  0  0  0  0  0
  -25.4680  -36.2410   23.8890 C   0  0  0  0  0  3  0  0  0  0  0  0
  -27.6730  -37.0510   24.6080 C   0  0  0  0  0  1  0  0  0  0  0  0
  -26.5160  -37.2750   23.7440 N   0  0  0  0  0  0  0  0  0  0  0  0
  -26.1440  -38.1980   23.9450 H   0  0  0  0  0  0  0  0  0  0  0  0
  -26.4200  -31.5800   24.9420 C   0  0  1  0  0  0  0  0  0  0  0  0
  -25.3840  -31.3130   26.0580 C   0  0  0  0  0  1  0  0  0  0  0  0
  -26.9740  -30.2140   24.4770 C   0  0  0  0  0  1  0  0  0  0  0  0
  -27.6090  -32.3510   25.5640 C   0  0  0  0  0  1  0  0  0  0  0  0
  -30.0290  -19.5550   19.8690 C   0  0  0  0  0  2  0  0  0  0  0  0
  -29.8930  -17.8690   19.8280 C   0  0  0  0  0  2  0  0  0  0  0  0
  -31.7040  -17.6820   23.3780 C   0  0  0  0  0  2  0  0  0  0  0  0
  -30.2410  -17.4380   23.0210 C   0  0  0  0  0  2  0  0  0  0  0  0
  -32.4440  -18.1720   22.1350 C   0  0  0  0  0  2  0  0  0  0  0  0
  -30.1480  -16.3440   21.9500 C   0  0  0  0  0  2  0  0  0  0  0  0
  -32.2530  -17.2400   20.9090 C   0  0  0  0  0  2  0  0  0  0  0  0
  -30.8180  -16.6610   20.5830 C   0  0  2  0  0  0  0  0  0  0  0  0
  -31.1750  -15.2000   19.8120 C   0  0  0  0  0  0  0  0  0  0  0  0
  -30.8840  -12.8610   18.8410 C   0  0  0  0  0  2  0  0  0  0  0  0
  -29.9010  -12.8590   17.6450 C   0  0  0  0  0  2  0  0  0  0  0  0
  -28.4450  -12.7070   18.1250 C   0  0  0  0  0  2  0  0  0  0  0  0
  -28.1350  -13.6360   19.3250 C   0  0  0  0  0  3  0  0  0  0  0  0
  -29.2300  -13.5370   20.4020 C   0  0  0  0  0  2  0  0  0  0  0  0
  -30.5050  -13.9620   19.7890 N   0  0  0  0  0  0  0  0  0  0  0  0
  -32.2450  -15.2010   19.1900 O   0  0  0  0  0  0  0  0  0  0  0  0
  -25.8230  -14.3230   20.1890 C   0  0  0  0  0  0  0  0  0  0  0  0
  -24.7440  -13.5960   20.6110 C   0  0  0  0  0  0  0  0  0  0  0  0
  -25.1410  -12.2240   20.5420 C   0  0  0  0  0  0  0  0  0  0  0  0
  -26.8070  -13.3990   19.8810 N   0  0  0  0  0  0  0  0  0  0  0  0
  -26.4090  -12.1300   20.1570 N   0  0  0  0  0  0  0  0  0  0  0  0
  -24.3670  -10.9960   20.7640 C   0  0  0  0  0  0  0  0  0  0  0  0
  -24.7470  -10.0500   21.7410 C   0  0  0  0  0  3  0  0  0  0  0  0
  -23.9760   -8.8860   21.9480 C   0  0  0  0  0  3  0  0  0  0  0  0
  -22.8100   -8.6610   21.1780 C   0  0  0  0  0  0  0  0  0  0  0  0
  -22.4490   -9.5950   20.1910 C   0  0  0  0  0  3  0  0  0  0  0  0
  -23.2210  -10.7500   19.9830 C   0  0  0  0  0  3  0  0  0  0  0  0
  -22.0140   -7.5460   21.2900 O   0  0  0  0  0  0  0  0  0  0  0  0
  -21.8480   -6.8990   22.4880 C   0  0  0  0  0  0  0  0  0  0  0  0
  -21.3520   -7.5630   23.6320 C   0  0  0  0  0  3  0  0  0  0  0  0
  -21.1300   -6.8420   24.8230 C   0  0  0  0  0  3  0  0  0  0  0  0
  -21.3950   -5.4610   24.8720 C   0  0  0  0  0  0  0  0  0  0  0  0
  -21.8830   -4.7970   23.7320 C   0  0  0  0  0  3  0  0  0  0  0  0
  -22.1060   -5.5130   22.5430 C   0  0  0  0  0  0  0  0  0  0  0  0
  -22.5570   -4.8650   21.4420 F   0  0  0  0  0  0  0  0  0  0  0  0
  -21.1740   -4.7670   26.0130 F   0  0  0  0  0  0  0  0  0  0  0  0
  -23.3890  -14.1370   20.9630 C   0  0  0  0  0  0  0  0  0  0  0  0
  -22.6980  -13.4970   21.9000 N   0  0  0  0  0  0  0  0  0  0  0  0
  -22.9560  -15.1630   20.4410 O   0  0  0  0  0  0  0  0  0  0  0  0
  -23.0620  -12.6690   22.3460 H   0  0  0  0  0  0  0  0  0  0  0  0
  -21.7910  -13.8440   22.1780 H   0  0  0  0  0  0  0  0  0  0  0  0
  -26.0420  -15.6860   20.0160 N   0  0  0  0  0  0  0  0  0  0  0  0
  -25.3150  -16.3730   20.1850 H   0  0  0  0  0  0  0  0  0  0  0  0
  -26.8910  -16.0900   19.6450 H   0  0  0  0  0  0  0  0  0  0  0  0
  2  1  1  0
  3  5  1  0
  3  6  1  0
  3  2  1  0
  4  3  1  0
  7  8  1  0
  7  6  1  0
  9 20  2  0
 10  8  1  0
 10 15  1  0
 11 19  1  0
 11 21  1  0
 12 18  1  0
 12 14  1  0
 13 19  1  0
 14 13  1  0
 15 14  2  0
 16 17  1  0
 16 10  2  0
 17 12  2  0
 18 11  1  0
 19  9  1  0
 21 23  2  0
 22 21  1  0
 24 22  1  0
 25 34  2  0
 25 30  1  0
 26 22  1  0
 26 30  1  0
 27 26  1  0
 28 29  1  0
 28 27  1  0
 29 25  1  0
 30 31  2  0
 31 32  1  0
 33 32  2  0
 34 33  1  0
 35  9  1  0
 35 36  1  0
 35 45  1  0
 36 39  1  0
 37 41  1  0
 37 36  1  0
 38 37  2  0
 41 40  1  0
 43 41  1  0
 43 44  1  0
 43 42  1  0
 45 48  1  1
 45 46  1  0
 47 45  1  0
 49  2  1  0
 50 49  1  0
 56 50  1  6
 52 51  1  0
 53 51  1  0
 54 52  1  0
 55 53  1  0
 56 55  1  0
 56 54  1  0
 57 56  1  0
 58 63  1  0
 59 60  1  0
 59 58  1  0
 61 60  1  0
 61 68  1  0
 61 62  1  0
 63 57  1  0
 63 62  1  0
 64 57  2  0
 65 66  2  0
 66 85  1  0
 67 66  1  0
 67 70  1  0
 68 69  1  0
 68 65  1  0
 69 67  2  0
 70 71  1  0
 71 72  2  0
 73 76  1  0
 73 72  1  0
 74 73  2  0
 75 74  1  0
 75 70  2  0
 76 77  1  0
 77 82  2  0
 77 78  1  0
 78 79  2  0
 79 80  1  0
 80 84  1  0
 81 80  2  0
 82 81  1  0
 83 82  1  0
 85 86  1  0
 86 89  1  0
 86 88  1  0
 87 85  2  0
 90 91  1  0
 90 65  1  0
 92 90  1  0
M  ISO  4   7 101   8 101  56 100  57 100
M  END
>  <TORSDO>  (64) 
F 22

>  <SCORE>  (64) 
-9.036

>  <name>  (64) 
63

>  <ligand_id>  (64) 
63

>  <original_smiles>  (64) 
[H]c1c([H])c([H])c2c(c1[H])C([H])([H])C([H])([H])C([H])([H])C2([H])N([H])C(=O)C1([H])N(C(=O)C([H])(N([H])C(=O)C([H])(N([H])C([H])([H])[H])C([H])([H])[H])C(C([H])([H])[H])(C([H])([H])[H])C([H])([H])[H])C([H])([H])c2c([H])c(OC([H])([H])C([H])([H])[N+]([H])([H])C([H])(C([H])([H])[H])C([H])([H])C([H])([H])C3(C(=O)N4C([H])([H])C([H])([H])C([H])([H])C([H])(n5nc(-c6c([H])c([H])c(Oc7c([H])c([H])c(F)c([H])c7F)c([H])c6[H])c(C(=O)N([H])[H])c5N([H])[H])C4([H])[H])C([H])([H])C([H])([H])C([H])([H])C([H])([H])C3([H])[H])c([H])c([H])c2C1([H])[H]

>  <smiles>  (64) 
[H]c1c([H])c([H])c2c(c1[H])C([H])([H])C([H])([H])C([H])([H])C2([H])N([H])C(=O)C1([H])N(C(=O)C([H])(N([H])C(=O)C([H])(N([H])C([H])([H])[H])C([H])([H])[H])C(C([H])([H])[H])(C([H])([H])[H])C([H])([H])[H])C([H])([H])c2c([H])c(OC([H])([H])C([H])([H])[N+]([H])([H])C([H])(C([H])([H])[H])C([H])([H])C([H])([H])C3(C(=O)N4C([H])([H])C([H])([H])C([H])([H])C([H])(n5nc(-c6c([H])c([H])c(Oc7c([H])c([H])c(F)c([H])c7F)c([H])c6[H])c(C(=O)N([H])[H])c5N([H])[H])C4([H])[H])C([H])([H])C([H])([H])C([H])([H])C([H])([H])C3([H])[H])c([H])c([H])c2C1([H])[H]

$$$$
64:0:0
     RDKit          3D

 95102  0  0  1  0  0  0  0  0999 V2000
  -28.6420  -21.2920   20.2720 C   0  0  0  0  0  3  0  0  0  0  0  0
  -29.6510  -20.0080   20.5770 N   0  0  2  0  0  4  0  0  0  0  0  0
  -29.4390  -19.8230   21.5470 H   0  0  0  0  0  0  0  0  0  0  0  0
  -31.0430  -20.5290   20.6150 C   0  0  0  0  0  2  0  0  0  0  0  0
  -33.4190  -20.3360   21.5260 C   0  0  0  0  0  1  0  0  0  0  0  0
  -32.0590  -19.6390   21.3610 C   0  0  0  0  0  2  0  0  0  0  0  0
  -29.5960  -18.4930   19.8950 C   0  0  0  0  0  2  0  0  0  0  0  0
  -29.7590  -16.8790   20.6250 C   0  0  0  0  0  2  0  0  0  0  0  0
  -30.5320  -15.4050   20.1350 C   0  0  0  0  0  0  0  0  0  0  0  0
  -30.5030  -13.0040   19.1680 C   0  0  0  0  0  2  0  0  0  0  0  0
  -29.5490  -12.8790   17.9510 C   0  0  0  0  0  2  0  0  0  0  0  0
  -28.1090  -12.5960   18.4180 C   0  0  0  0  0  2  0  0  0  0  0  0
  -27.6910  -13.5160   19.5910 C   0  0  0  0  0  3  0  0  0  0  0  0
  -28.7630  -13.5910   20.6990 C   0  0  0  0  0  2  0  0  0  0  0  0
  -29.9980  -14.0930   20.0780 N   0  0  0  0  0  0  0  0  0  0  0  0
  -31.7100  -15.4560   19.7510 O   0  0  0  0  0  0  0  0  0  0  0  0
  -25.3260  -14.0450   20.3960 C   0  0  0  0  0  0  0  0  0  0  0  0
  -24.2790  -13.2520   20.7760 C   0  0  0  0  0  0  0  0  0  0  0  0
  -24.7590  -11.9080   20.7150 C   0  0  0  0  0  0  0  0  0  0  0  0
  -26.3720  -13.1830   20.1160 N   0  0  0  0  0  0  0  0  0  0  0  0
  -26.0440  -11.8910   20.3740 N   0  0  0  0  0  0  0  0  0  0  0  0
  -24.0470  -10.6350   20.9020 C   0  0  0  0  0  0  0  0  0  0  0  0
  -24.4590   -9.6920   21.8690 C   0  0  0  0  0  3  0  0  0  0  0  0
  -23.7450   -8.4870   22.0430 C   0  0  0  0  0  3  0  0  0  0  0  0
  -22.6050   -8.2160   21.2490 C   0  0  0  0  0  0  0  0  0  0  0  0
  -22.2130   -9.1480   20.2720 C   0  0  0  0  0  3  0  0  0  0  0  0
  -22.9280  -10.3450   20.0970 C   0  0  0  0  0  3  0  0  0  0  0  0
  -21.8660   -7.0590   21.3300 O   0  0  0  0  0  0  0  0  0  0  0  0
  -21.7310   -6.3720   22.5090 C   0  0  0  0  0  0  0  0  0  0  0  0
  -21.1980   -6.9780   23.6670 C   0  0  0  0  0  3  0  0  0  0  0  0
  -21.0120   -6.2170   24.8380 C   0  0  0  0  0  3  0  0  0  0  0  0
  -21.3500   -4.8500   24.8520 C   0  0  0  0  0  0  0  0  0  0  0  0
  -21.8750   -4.2440   23.6970 C   0  0  0  0  0  3  0  0  0  0  0  0
  -22.0630   -5.0020   22.5280 C   0  0  0  0  0  0  0  0  0  0  0  0
  -22.5500   -4.4080   21.4130 F   0  0  0  0  0  0  0  0  0  0  0  0
  -21.1630   -4.1170   25.9740 F   0  0  0  0  0  0  0  0  0  0  0  0
  -22.8840  -13.7120   21.0810 C   0  0  0  0  0  0  0  0  0  0  0  0
  -22.1840  -13.0050   21.9610 N   0  0  0  0  0  0  0  0  0  0  0  0
  -22.4240  -14.7350   20.5750 O   0  0  0  0  0  0  0  0  0  0  0  0
  -22.5680  -12.1780   22.3920 H   0  0  0  0  0  0  0  0  0  0  0  0
  -21.2500  -13.2980   22.2110 H   0  0  0  0  0  0  0  0  0  0  0  0
  -25.4720  -15.4200   20.2380 N   0  0  0  0  0  0  0  0  0  0  0  0
  -24.7020  -16.0620   20.3870 H   0  0  0  0  0  0  0  0  0  0  0  0
  -26.3050  -15.8760   19.8880 H   0  0  0  0  0  0  0  0  0  0  0  0
  -28.1460  -21.2640   18.8080 C   0  0  0  0  0  2  0  0  0  0  0  0
  -26.7500  -21.9040   18.6660 C   0  0  0  0  0  2  0  0  0  0  0  0
  -26.5310  -22.6990   17.3690 C   0  0  0  0  0  2  0  0  0  0  0  0
  -25.3040  -23.6300   17.4870 C   0  0  0  0  0  2  0  0  0  0  0  0
  -25.1860  -24.5780   16.3670 N   0  0  0  0  0  4  0  0  0  0  0  0
  -26.0000  -25.1600   16.2900 H   0  0  0  0  0  0  0  0  0  0  0  0
  -24.3940  -25.1770   16.5230 H   0  0  0  0  0  0  0  0  0  0  0  0
  -25.0420  -24.0960   15.4980 H   0  0  0  0  0  0  0  0  0  0  0  0
  -28.8650  -23.0100   20.7030 C   0  0  0  0  0  3  0  0  0  0  0  0
  -27.9070  -24.4650   20.3500 C   0  0  0  0  0  3  0  0  0  0  0  0
  -28.1090  -26.0590   20.5970 O   0  0  0  0  0  0  0  0  0  0  0  0
  -24.5330  -32.0340   23.3270 C   0  0  0  0  0  0  0  0  0  0  0  0
  -27.0960  -27.1250   20.4550 C   0  0  0  0  0  0  0  0  0  0  0  0
  -23.3480  -30.6140   21.7000 C   0  0  0  0  0  3  0  0  0  0  0  0
  -24.8030  -28.9780   20.3260 C   0  0  0  0  0  0  0  0  0  0  0  0
  -25.9100  -30.8230   21.5730 C   0  0  0  0  0  2  0  0  0  0  0  0
  -25.9800  -29.4020   20.9540 C   0  0  0  0  0  0  0  0  0  0  0  0
  -27.1210  -28.4940   20.9970 C   0  0  0  0  0  3  0  0  0  0  0  0
  -25.8960  -26.8400   19.7640 C   0  0  0  0  0  3  0  0  0  0  0  0
  -24.7830  -27.7170   19.7090 C   0  0  0  0  0  3  0  0  0  0  0  0
  -23.5870  -29.9020   20.3400 C   0  0  0  0  0  2  0  0  0  0  0  0
  -24.6170  -31.1820   22.2560 N   0  0  0  0  0  0  0  0  0  0  0  0
  -23.4400  -32.3370   23.8350 O   0  0  0  0  0  0  0  0  0  0  0  0
  -22.6390  -29.6400   22.6770 C   0  0  0  0  0  0  0  0  0  0  0  0
  -21.3240  -29.4190   22.4910 N   0  0  0  0  0  0  0  0  0  0  0  0
  -23.2770  -29.0790   23.5710 O   0  0  0  0  0  0  0  0  0  0  0  0
  -20.8570  -29.9240   21.7490 H   0  0  0  0  0  0  0  0  0  0  0  0
  -17.9780  -28.0590   22.8300 C   0  0  0  0  0  0  0  0  0  0  0  0
  -20.4910  -28.4930   23.2640 C   0  0  0  0  0  3  0  0  0  0  0  0
  -20.7140  -27.0320   22.8100 C   0  0  0  0  0  2  0  0  0  0  0  0
  -19.7140  -26.5740   21.7430 C   0  0  0  0  0  2  0  0  0  0  0  0
  -18.2810  -26.6810   22.2680 C   0  0  0  0  0  2  0  0  0  0  0  0
  -19.0170  -28.9160   23.2830 C   0  0  0  0  0  0  0  0  0  0  0  0
  -18.6810  -30.1980   23.7700 C   0  0  0  0  0  3  0  0  0  0  0  0
  -17.3420  -30.6290   23.8060 C   0  0  0  0  0  3  0  0  0  0  0  0
  -16.3170  -29.7730   23.3660 C   0  0  0  0  0  3  0  0  0  0  0  0
  -16.6360  -28.4900   22.8850 C   0  0  0  0  0  3  0  0  0  0  0  0
  -25.8020  -32.6800   23.9580 C   0  0  0  0  0  3  0  0  0  0  0  0
  -26.2810  -31.9450   25.2720 C   0  0  1  0  0  0  0  0  0  0  0  0
  -25.1590  -31.7320   26.3150 C   0  0  0  0  0  1  0  0  0  0  0  0
  -26.8800  -30.5600   24.9420 C   0  0  0  0  0  1  0  0  0  0  0  0
  -27.4100  -32.7610   25.9450 C   0  0  0  0  0  1  0  0  0  0  0  0
  -25.4950  -34.0920   24.2480 N   0  0  0  0  0  0  0  0  0  0  0  0
  -25.8460  -35.1280   23.4740 C   0  0  0  0  0  0  0  0  0  0  0  0
  -26.5240  -34.9940   22.4520 O   0  0  0  0  0  0  0  0  0  0  0  0
  -24.8910  -34.2640   25.0370 H   0  0  0  0  0  0  0  0  0  0  0  0
  -24.1400  -36.9370   23.0720 C   0  0  0  0  0  1  0  0  0  0  0  0
  -25.3720  -36.5330   23.8980 C   0  0  0  0  0  3  0  0  0  0  0  0
  -27.5140  -37.4140   24.7180 C   0  0  0  0  0  1  0  0  0  0  0  0
  -26.4170  -37.5720   23.7670 N   0  0  0  0  0  0  0  0  0  0  0  0
  -26.0210  -38.4980   23.8920 H   0  0  0  0  0  0  0  0  0  0  0  0
  1 45  1  0
  1  2  1  0
  1 53  1  0
  2  4  1  0
  2  3  1  1
  4  6  1  0
  6  5  1  0
  7  2  1  0
  7  8  1  0
  9  8  1  0
 10 15  1  0
 11 12  1  0
 11 10  1  0
 13 12  1  0
 13 20  1  0
 13 14  1  0
 15  9  1  0
 15 14  1  0
 16  9  2  0
 17 18  2  0
 18 37  1  0
 19 18  1  0
 19 22  1  0
 20 21  1  0
 20 17  1  0
 21 19  2  0
 22 23  1  0
 23 24  2  0
 25 28  1  0
 25 24  1  0
 26 25  2  0
 27 26  1  0
 27 22  2  0
 28 29  1  0
 29 34  2  0
 29 30  1  0
 30 31  2  0
 31 32  1  0
 32 36  1  0
 33 32  2  0
 34 33  1  0
 35 34  1  0
 37 38  1  0
 38 41  1  0
 38 40  1  0
 39 37  2  0
 42 43  1  0
 42 17  1  0
 44 42  1  0
 46 45  1  0
 47 48  1  0
 47 46  1  0
 49 51  1  0
 49 48  1  0
 50 49  1  0
 52 49  1  0
 54 55  1  0
 54 53  2  0
 56 67  2  0
 57 55  1  0
 57 62  1  0
 58 66  1  0
 58 68  1  0
 59 65  1  0
 59 61  1  0
 60 66  1  0
 61 62  2  0
 61 60  1  0
 63 57  2  0
 64 63  1  0
 64 59  2  0
 65 58  1  0
 66 56  1  0
 68 70  2  0
 69 68  1  0
 71 69  1  0
 72 81  2  0
 72 77  1  0
 73 69  1  0
 73 77  1  0
 74 73  1  0
 75 76  1  0
 75 74  1  0
 76 72  1  0
 77 78  2  0
 78 79  1  0
 80 79  2  0
 81 80  1  0
 82 56  1  0
 82 87  1  0
 82 83  1  0
 83 86  1  1
 83 84  1  0
 85 83  1  0
 87 90  1  0
 88 92  1  0
 88 87  1  0
 89 88  2  0
 92 91  1  0
 94 95  1  0
 94 92  1  0
 94 93  1  0
M  ISO  4   8 100   9 100  54 101  55 101
M  END
>  <TORSDO>  (65) 
F 28

>  <SCORE>  (65) 
-12.498

>  <name>  (65) 
64

>  <ligand_id>  (65) 
64

>  <original_smiles>  (65) 
[H]c1c([H])c([H])c2c(c1[H])C([H])([H])C([H])([H])C([H])([H])C2([H])N([H])C(=O)C1([H])N(C(=O)C([H])(N([H])C(=O)C([H])(N([H])C([H])([H])[H])C([H])([H])[H])C(C([H])([H])[H])(C([H])([H])[H])C([H])([H])[H])C([H])([H])c2c([H])c(OC([H])([H])C([H])([H])C([H])(C([H])([H])C([H])([H])C([H])([H])C([H])([H])[N+]([H])([H])[H])[N+]([H])(C([H])([H])C([H])([H])C(=O)N3C([H])([H])C([H])([H])C([H])([H])C([H])(n4nc(-c5c([H])c([H])c(Oc6c([H])c([H])c(F)c([H])c6F)c([H])c5[H])c(C(=O)N([H])[H])c4N([H])[H])C3([H])[H])C([H])([H])C([H])([H])C([H])([H])[H])c([H])c([H])c2C1([H])[H]

>  <smiles>  (65) 
[H]c1c([H])c([H])c2c(c1[H])C([H])([H])C([H])([H])C([H])([H])C2([H])N([H])C(=O)C1([H])N(C(=O)C([H])(N([H])C(=O)C([H])(N([H])C([H])([H])[H])C([H])([H])[H])C(C([H])([H])[H])(C([H])([H])[H])C([H])([H])[H])C([H])([H])c2c([H])c(OC([H])([H])C([H])([H])C([H])(C([H])([H])C([H])([H])C([H])([H])C([H])([H])[N+]([H])([H])[H])[N+]([H])(C([H])([H])C([H])([H])C(=O)N3C([H])([H])C([H])([H])C([H])([H])C([H])(n4nc(-c5c([H])c([H])c(Oc6c([H])c([H])c(F)c([H])c6F)c([H])c5[H])c(C(=O)N([H])[H])c4N([H])[H])C3([H])[H])C([H])([H])C([H])([H])C([H])([H])[H])c([H])c([H])c2C1([H])[H]

$$$$
65:0:0
     RDKit          3D

 87 94  0  0  1  0  0  0  0  0999 V2000
  -28.9210  -21.2630   20.7610 C   0  0  0  0  0  3  0  0  0  0  0  0
  -29.1400  -19.7870   20.0540 N   0  0  0  0  0  4  0  0  0  0  0  0
  -29.6640  -19.9660   19.2140 H   0  0  0  0  0  0  0  0  0  0  0  0
  -28.2170  -19.5340   19.7390 H   0  0  0  0  0  0  0  0  0  0  0  0
  -31.2990  -18.5900   20.7900 C   0  0  0  0  0  1  0  0  0  0  0  0
  -29.7790  -18.3940   20.6800 C   0  0  0  0  0  3  0  0  0  0  0  0
  -29.1560  -16.8530   18.6400 C   0  0  0  0  0  1  0  0  0  0  0  0
  -29.4830  -16.7260   20.1390 C   0  0  0  0  0  3  0  0  0  0  0  0
  -30.3750  -15.2290   20.2540 C   0  0  0  0  0  0  0  0  0  0  0  0
  -30.3710  -12.8030   19.3790 C   0  0  0  0  0  2  0  0  0  0  0  0
  -29.4400  -12.6640   18.1470 C   0  0  0  0  0  2  0  0  0  0  0  0
  -27.9850  -12.4040   18.5800 C   0  0  0  0  0  2  0  0  0  0  0  0
  -27.5480  -13.3350   19.7380 C   0  0  0  0  0  3  0  0  0  0  0  0
  -28.6030  -13.4320   20.8570 C   0  0  0  0  0  2  0  0  0  0  0  0
  -29.8500  -13.9140   20.2490 N   0  0  0  0  0  0  0  0  0  0  0  0
  -31.6000  -15.2540   20.0610 O   0  0  0  0  0  0  0  0  0  0  0  0
  -25.1730  -13.8720   20.5000 C   0  0  0  0  0  0  0  0  0  0  0  0
  -24.1210  -13.0830   20.8770 C   0  0  0  0  0  0  0  0  0  0  0  0
  -24.6040  -11.7380   20.8490 C   0  0  0  0  0  0  0  0  0  0  0  0
  -26.2240  -13.0080   20.2510 N   0  0  0  0  0  0  0  0  0  0  0  0
  -25.8940  -11.7190   20.5310 N   0  0  0  0  0  0  0  0  0  0  0  0
  -23.8930  -10.4680   21.0450 C   0  0  0  0  0  0  0  0  0  0  0  0
  -24.3390   -9.5070   21.9790 C   0  0  0  0  0  3  0  0  0  0  0  0
  -23.6250   -8.3030   22.1640 C   0  0  0  0  0  3  0  0  0  0  0  0
  -22.4510   -8.0510   21.4150 C   0  0  0  0  0  0  0  0  0  0  0  0
  -22.0240   -9.0010   20.4700 C   0  0  0  0  0  3  0  0  0  0  0  0
  -22.7380  -10.1960   20.2840 C   0  0  0  0  0  3  0  0  0  0  0  0
  -21.7080   -6.8990   21.5090 O   0  0  0  0  0  0  0  0  0  0  0  0
  -21.6740   -6.1560   22.6620 C   0  0  0  0  0  0  0  0  0  0  0  0
  -21.2480   -6.7060   23.8910 C   0  0  0  0  0  3  0  0  0  0  0  0
  -21.1630   -5.8890   25.0360 C   0  0  0  0  0  3  0  0  0  0  0  0
  -21.4940   -4.5230   24.9530 C   0  0  0  0  0  0  0  0  0  0  0  0
  -21.9120   -3.9720   23.7290 C   0  0  0  0  0  3  0  0  0  0  0  0
  -21.9990   -4.7860   22.5870 C   0  0  0  0  0  0  0  0  0  0  0  0
  -22.3830   -4.2470   21.4050 F   0  0  0  0  0  0  0  0  0  0  0  0
  -21.4050   -3.7360   26.0500 F   0  0  0  0  0  0  0  0  0  0  0  0
  -22.7180  -13.5440   21.1480 C   0  0  0  0  0  0  0  0  0  0  0  0
  -22.0010  -12.8420   22.0170 N   0  0  0  0  0  0  0  0  0  0  0  0
  -22.2690  -14.5630   20.6240 O   0  0  0  0  0  0  0  0  0  0  0  0
  -22.3770  -12.0180   22.4620 H   0  0  0  0  0  0  0  0  0  0  0  0
  -21.0600  -13.1340   22.2430 H   0  0  0  0  0  0  0  0  0  0  0  0
  -25.3180  -15.2440   20.3190 N   0  0  0  0  0  0  0  0  0  0  0  0
  -24.5440  -15.8890   20.4290 H   0  0  0  0  0  0  0  0  0  0  0  0
  -26.1580  -15.6870   19.9700 H   0  0  0  0  0  0  0  0  0  0  0  0
  -28.7350  -22.8750   20.0240 C   0  0  0  0  0  3  0  0  0  0  0  0
  -28.0710  -24.4080   20.6350 C   0  0  0  0  0  2  0  0  0  0  0  0
  -28.2470  -25.9870   20.2790 O   0  0  0  0  0  0  0  0  0  0  0  0
  -24.6360  -31.8940   23.2310 C   0  0  0  0  0  0  0  0  0  0  0  0
  -27.2040  -27.0320   20.2750 C   0  0  0  0  0  0  0  0  0  0  0  0
  -23.4430  -30.4790   21.6070 C   0  0  0  0  0  3  0  0  0  0  0  0
  -24.8930  -28.8660   20.2070 C   0  0  0  0  0  0  0  0  0  0  0  0
  -26.0050  -30.7090   21.4510 C   0  0  0  0  0  2  0  0  0  0  0  0
  -26.0790  -29.2950   20.8150 C   0  0  0  0  0  0  0  0  0  0  0  0
  -27.2330  -28.4000   20.8200 C   0  0  0  0  0  3  0  0  0  0  0  0
  -25.9860  -26.7350   19.6260 C   0  0  0  0  0  3  0  0  0  0  0  0
  -24.8670  -27.6040   19.5900 C   0  0  0  0  0  3  0  0  0  0  0  0
  -23.6710  -29.7810   20.2390 C   0  0  0  0  0  2  0  0  0  0  0  0
  -24.7160  -31.0530   22.1500 N   0  0  0  0  0  0  0  0  0  0  0  0
  -23.5480  -32.1850   23.7510 O   0  0  0  0  0  0  0  0  0  0  0  0
  -22.7550  -29.4890   22.5840 C   0  0  0  0  0  0  0  0  0  0  0  0
  -21.4250  -29.3200   22.4610 N   0  0  0  0  0  0  0  0  0  0  0  0
  -23.4230  -28.8740   23.4180 O   0  0  0  0  0  0  0  0  0  0  0  0
  -20.9400  -29.8690   21.7650 H   0  0  0  0  0  0  0  0  0  0  0  0
  -18.0460  -28.1120   22.9810 C   0  0  0  0  0  0  0  0  0  0  0  0
  -20.6040  -28.3900   23.2430 C   0  0  0  0  0  3  0  0  0  0  0  0
  -20.7110  -26.9510   22.6850 C   0  0  0  0  0  2  0  0  0  0  0  0
  -19.6100  -26.6120   21.6740 C   0  0  0  0  0  2  0  0  0  0  0  0
  -18.2280  -26.7580   22.3170 C   0  0  0  0  0  2  0  0  0  0  0  0
  -19.1610  -28.8850   23.4010 C   0  0  0  0  0  0  0  0  0  0  0  0
  -18.9340  -30.1510   23.9850 C   0  0  0  0  0  3  0  0  0  0  0  0
  -17.6270  -30.6440   24.1500 C   0  0  0  0  0  3  0  0  0  0  0  0
  -16.5270  -29.8690   23.7440 C   0  0  0  0  0  3  0  0  0  0  0  0
  -16.7360  -28.6050   23.1650 C   0  0  0  0  0  3  0  0  0  0  0  0
  -25.9090  -32.5440   23.8550 C   0  0  0  0  0  3  0  0  0  0  0  0
  -25.5910  -33.9470   24.1730 N   0  0  0  0  0  0  0  0  0  0  0  0
  -25.9240  -35.0000   23.4130 C   0  0  0  0  0  0  0  0  0  0  0  0
  -26.5940  -34.8910   22.3830 O   0  0  0  0  0  0  0  0  0  0  0  0
  -24.9950  -34.1040   24.9720 H   0  0  0  0  0  0  0  0  0  0  0  0
  -24.1980  -36.7970   23.0560 C   0  0  0  0  0  1  0  0  0  0  0  0
  -25.4400  -36.3920   23.8660 C   0  0  0  0  0  3  0  0  0  0  0  0
  -27.5760  -37.2830   24.6910 C   0  0  0  0  0  1  0  0  0  0  0  0
  -26.4730  -37.4440   23.7470 N   0  0  0  0  0  0  0  0  0  0  0  0
  -26.0670  -38.3660   23.8860 H   0  0  0  0  0  0  0  0  0  0  0  0
  -26.4140  -31.7940   25.1510 C   0  0  1  0  0  0  0  0  0  0  0  0
  -25.3130  -31.5790   26.2170 C   0  0  0  0  0  1  0  0  0  0  0  0
  -26.9970  -30.4080   24.7940 C   0  0  0  0  0  1  0  0  0  0  0  0
  -27.5620  -32.5980   25.8060 C   0  0  0  0  0  1  0  0  0  0  0  0
  2  6  1  0
  2  1  1  0
  3  2  1  0
  4  2  1  0
  6  5  1  0
  8  7  1  0
  8  9  1  0
  8  6  1  0
 10 15  1  0
 11 12  1  0
 11 10  1  0
 13 12  1  0
 13 20  1  0
 13 14  1  0
 15  9  1  0
 15 14  1  0
 16  9  2  0
 17 18  2  0
 18 37  1  0
 19 18  1  0
 19 22  1  0
 20 17  1  0
 20 21  1  0
 21 19  2  0
 22 23  1  0
 23 24  2  0
 25 28  1  0
 25 24  1  0
 26 25  2  0
 27 26  1  0
 27 22  2  0
 28 29  1  0
 29 30  1  0
 30 31  2  0
 32 31  1  0
 32 36  1  0
 33 32  2  0
 34 29  2  0
 34 33  1  0
 35 34  1  0
 37 38  1  0
 38 41  1  0
 38 40  1  0
 39 37  2  0
 42 43  1  0
 42 17  1  0
 44 42  1  0
 45 46  1  0
 45  1  2  0
 47 46  1  0
 48 59  2  0
 49 47  1  0
 49 54  1  0
 50 58  1  0
 50 60  1  0
 51 57  1  0
 51 53  1  0
 52 58  1  0
 53 54  2  0
 53 52  1  0
 55 49  2  0
 56 55  1  0
 56 51  2  0
 57 50  1  0
 58 48  1  0
 60 62  2  0
 61 60  1  0
 63 61  1  0
 64 73  2  0
 64 69  1  0
 65 61  1  0
 65 69  1  0
 66 65  1  0
 67 68  1  0
 67 66  1  0
 68 64  1  0
 69 70  2  0
 70 71  1  0
 72 71  2  0
 73 72  1  0
 74 48  1  0
 74 75  1  0
 74 84  1  0
 75 78  1  0
 76 80  1  0
 76 75  1  0
 77 76  2  0
 80 79  1  0
 82 80  1  0
 82 83  1  0
 82 81  1  0
 84 87  1  1
 84 85  1  0
 86 84  1  0
M  ISO  4   8 100   9 100  46 101  47 101
M  END
>  <TORSDO>  (66) 
F 21

>  <SCORE>  (66) 
-15.152

>  <name>  (66) 
65

>  <ligand_id>  (66) 
65

>  <original_smiles>  (66) 
[H]c1c([H])c([H])c2c(c1[H])C([H])([H])C([H])([H])C([H])([H])C2([H])N([H])C(=O)C1([H])N(C(=O)C([H])(N([H])C(=O)C([H])(N([H])C([H])([H])[H])C([H])([H])[H])C(C([H])([H])[H])(C([H])([H])[H])C([H])([H])[H])C([H])([H])c2c([H])c(OC([H])([H])C([H])([H])C([H])([H])[N+]([H])([H])C([H])(C([H])([H])[H])C([H])(C(=O)N3C([H])([H])C([H])([H])C([H])([H])C([H])(n4nc(-c5c([H])c([H])c(Oc6c([H])c([H])c(F)c([H])c6F)c([H])c5[H])c(C(=O)N([H])[H])c4N([H])[H])C3([H])[H])C([H])([H])[H])c([H])c([H])c2C1([H])[H]

>  <smiles>  (66) 
[H]c1c([H])c([H])c2c(c1[H])C([H])([H])C([H])([H])C([H])([H])C2([H])N([H])C(=O)C1([H])N(C(=O)C([H])(N([H])C(=O)C([H])(N([H])C([H])([H])[H])C([H])([H])[H])C(C([H])([H])[H])(C([H])([H])[H])C([H])([H])[H])C([H])([H])c2c([H])c(OC([H])([H])C([H])([H])C([H])([H])[N+]([H])([H])C([H])(C([H])([H])[H])C([H])(C(=O)N3C([H])([H])C([H])([H])C([H])([H])C([H])(n4nc(-c5c([H])c([H])c(Oc6c([H])c([H])c(F)c([H])c6F)c([H])c5[H])c(C(=O)N([H])[H])c4N([H])[H])C3([H])[H])C([H])([H])[H])c([H])c([H])c2C1([H])[H]

$$$$
66:0:0
     RDKit          3D

 88 95  0  0  1  0  0  0  0  0999 V2000
  -29.0120  -21.6880   19.7160 C   0  0  0  0  0  2  0  0  0  0  0  0
  -29.4440  -20.3470   20.4670 N   0  0  0  0  0  4  0  0  0  0  0  0
  -28.6880  -20.1670   21.1090 H   0  0  0  0  0  0  0  0  0  0  0  0
  -30.2400  -20.5730   21.0420 H   0  0  0  0  0  0  0  0  0  0  0  0
  -31.1620  -18.8870   19.2000 C   0  0  0  0  0  1  0  0  0  0  0  0
  -29.7510  -18.9200   19.8020 C   0  0  0  0  0  3  0  0  0  0  0  0
  -29.7320  -16.1140   20.6340 C   0  0  0  0  0  3  0  0  0  0  0  0
  -29.4260  -17.5240   20.6230 C   0  0  0  0  0  0  0  0  0  0  0  0
  -28.4170  -17.9340   21.6990 C   0  0  0  0  0  1  0  0  0  0  0  0
  -30.5440  -14.9750   19.9530 C   0  0  0  0  0  0  0  0  0  0  0  0
  -30.4130  -12.6530   18.9010 C   0  0  0  0  0  2  0  0  0  0  0  0
  -29.3960  -12.6710   17.7310 C   0  0  0  0  0  2  0  0  0  0  0  0
  -27.9530  -12.4550   18.2320 C   0  0  0  0  0  2  0  0  0  0  0  0
  -27.6390  -13.3070   19.4890 C   0  0  0  0  0  3  0  0  0  0  0  0
  -28.7630  -13.1910   20.5370 C   0  0  0  0  0  2  0  0  0  0  0  0
  -30.0010  -13.6800   19.9030 N   0  0  0  0  0  0  0  0  0  0  0  0
  -31.6670  -15.1130   19.4540 O   0  0  0  0  0  0  0  0  0  0  0  0
  -25.3020  -13.8810   20.3650 C   0  0  0  0  0  0  0  0  0  0  0  0
  -24.2570  -13.1030   20.7810 C   0  0  0  0  0  0  0  0  0  0  0  0
  -24.7140  -11.7530   20.7040 C   0  0  0  0  0  0  0  0  0  0  0  0
  -26.3270  -13.0050   20.0530 N   0  0  0  0  0  0  0  0  0  0  0  0
  -25.9860  -11.7170   20.3210 N   0  0  0  0  0  0  0  0  0  0  0  0
  -23.9950  -10.4900   20.9190 C   0  0  0  0  0  0  0  0  0  0  0  0
  -24.4580   -9.5220   21.8380 C   0  0  0  0  0  3  0  0  0  0  0  0
  -23.7390   -8.3240   22.0390 C   0  0  0  0  0  3  0  0  0  0  0  0
  -22.5430   -8.0850   21.3210 C   0  0  0  0  0  0  0  0  0  0  0  0
  -22.1000   -9.0400   20.3900 C   0  0  0  0  0  3  0  0  0  0  0  0
  -22.8200  -10.2290   20.1870 C   0  0  0  0  0  3  0  0  0  0  0  0
  -21.7920   -6.9390   21.4320 O   0  0  0  0  0  0  0  0  0  0  0  0
  -21.7500   -6.2160   22.5970 C   0  0  0  0  0  0  0  0  0  0  0  0
  -21.3400   -6.7940   23.8190 C   0  0  0  0  0  3  0  0  0  0  0  0
  -21.2450   -5.9960   24.9780 C   0  0  0  0  0  3  0  0  0  0  0  0
  -21.5520   -4.6230   24.9150 C   0  0  0  0  0  0  0  0  0  0  0  0
  -21.9560   -4.0460   23.6990 C   0  0  0  0  0  3  0  0  0  0  0  0
  -22.0530   -4.8400   22.5430 C   0  0  0  0  0  0  0  0  0  0  0  0
  -22.4200   -4.2740   21.3670 F   0  0  0  0  0  0  0  0  0  0  0  0
  -21.4550   -3.8550   26.0260 F   0  0  0  0  0  0  0  0  0  0  0  0
  -22.8770  -13.5790   21.1360 C   0  0  0  0  0  0  0  0  0  0  0  0
  -22.1970  -12.8780   22.0350 N   0  0  0  0  0  0  0  0  0  0  0  0
  -22.4130  -14.6100   20.6500 O   0  0  0  0  0  0  0  0  0  0  0  0
  -22.5900  -12.0480   22.4560 H   0  0  0  0  0  0  0  0  0  0  0  0
  -21.2720  -13.1740   22.3070 H   0  0  0  0  0  0  0  0  0  0  0  0
  -25.4620  -15.2540   20.2060 N   0  0  0  0  0  0  0  0  0  0  0  0
  -24.7120  -15.9120   20.3960 H   0  0  0  0  0  0  0  0  0  0  0  0
  -26.3100  -15.7010   19.8790 H   0  0  0  0  0  0  0  0  0  0  0  0
  -28.8670  -23.2200   20.4580 C   0  0  0  0  0  3  0  0  0  0  0  0
  -28.2470  -24.6380   19.7480 C   0  0  0  0  0  3  0  0  0  0  0  0
  -28.2630  -26.1220   20.2700 O   0  0  0  0  0  0  0  0  0  0  0  0
  -24.5840  -31.8210   23.2110 C   0  0  0  0  0  0  0  0  0  0  0  0
  -27.1880  -27.0930   20.1770 C   0  0  0  0  0  0  0  0  0  0  0  0
  -23.3940  -30.4170   21.5740 C   0  0  0  0  0  3  0  0  0  0  0  0
  -24.8450  -28.8390   20.1560 C   0  0  0  0  0  0  0  0  0  0  0  0
  -25.9490  -30.6850   21.4110 C   0  0  0  0  0  2  0  0  0  0  0  0
  -26.0260  -29.2910   20.7580 C   0  0  0  0  0  0  0  0  0  0  0  0
  -27.1950  -28.4340   20.7470 C   0  0  0  0  0  3  0  0  0  0  0  0
  -25.9710  -26.7470   19.5450 C   0  0  0  0  0  3  0  0  0  0  0  0
  -24.8300  -27.5800   19.5390 C   0  0  0  0  0  3  0  0  0  0  0  0
  -23.6170  -29.7360   20.2000 C   0  0  0  0  0  2  0  0  0  0  0  0
  -24.6640  -30.9970   22.1210 N   0  0  0  0  0  0  0  0  0  0  0  0
  -23.4940  -32.1040   23.7330 O   0  0  0  0  0  0  0  0  0  0  0  0
  -22.7100  -29.4140   22.5360 C   0  0  0  0  0  0  0  0  0  0  0  0
  -21.3820  -29.2470   22.4070 N   0  0  0  0  0  0  0  0  0  0  0  0
  -23.3790  -28.7880   23.3630 O   0  0  0  0  0  0  0  0  0  0  0  0
  -20.9010  -29.8060   21.7180 H   0  0  0  0  0  0  0  0  0  0  0  0
  -17.9980  -28.0450   22.8970 C   0  0  0  0  0  0  0  0  0  0  0  0
  -20.5550  -28.3100   23.1740 C   0  0  0  0  0  3  0  0  0  0  0  0
  -20.6590  -26.8770   22.6010 C   0  0  0  0  0  2  0  0  0  0  0  0
  -19.5620  -26.5510   21.5840 C   0  0  0  0  0  2  0  0  0  0  0  0
  -18.1780  -26.6950   22.2230 C   0  0  0  0  0  2  0  0  0  0  0  0
  -19.1140  -28.8110   23.3280 C   0  0  0  0  0  0  0  0  0  0  0  0
  -18.8900  -30.0730   23.9200 C   0  0  0  0  0  3  0  0  0  0  0  0
  -17.5830  -30.5710   24.0840 C   0  0  0  0  0  3  0  0  0  0  0  0
  -16.4820  -29.8020   23.6680 C   0  0  0  0  0  3  0  0  0  0  0  0
  -16.6890  -28.5400   23.0820 C   0  0  0  0  0  3  0  0  0  0  0  0
  -25.8540  -32.4640   23.8450 C   0  0  0  0  0  3  0  0  0  0  0  0
  -25.5340  -33.8610   24.1810 N   0  0  0  0  0  0  0  0  0  0  0  0
  -25.8630  -34.9220   23.4330 C   0  0  0  0  0  0  0  0  0  0  0  0
  -26.5320  -34.8280   22.4000 O   0  0  0  0  0  0  0  0  0  0  0  0
  -24.9390  -34.0060   24.9820 H   0  0  0  0  0  0  0  0  0  0  0  0
  -24.1210  -36.7110   23.1100 C   0  0  0  0  0  1  0  0  0  0  0  0
  -25.3750  -36.3070   23.9020 C   0  0  0  0  0  3  0  0  0  0  0  0
  -27.5150  -37.2000   24.7110 C   0  0  0  0  0  1  0  0  0  0  0  0
  -26.4000  -37.3660   23.7820 N   0  0  0  0  0  0  0  0  0  0  0  0
  -25.9920  -38.2840   23.9380 H   0  0  0  0  0  0  0  0  0  0  0  0
  -26.3610  -31.6960   25.1290 C   0  0  1  0  0  0  0  0  0  0  0  0
  -25.2600  -31.4600   26.1910 C   0  0  0  0  0  1  0  0  0  0  0  0
  -26.9450  -30.3180   24.7460 C   0  0  0  0  0  1  0  0  0  0  0  0
  -27.5060  -32.4940   25.7960 C   0  0  0  0  0  1  0  0  0  0  0  0
  1 46  1  0
  1  2  1  0
  2  4  1  0
  2  3  1  0
  6  5  1  0
  6  2  1  0
  6  8  1  0
  8  7  2  0
  8  9  1  0
 10  7  1  0
 11 16  1  0
 12 13  1  0
 12 11  1  0
 14 13  1  0
 14 21  1  0
 14 15  1  0
 16 10  1  0
 16 15  1  0
 17 10  2  0
 18 19  2  0
 19 38  1  0
 20 19  1  0
 20 23  1  0
 21 22  1  0
 21 18  1  0
 22 20  2  0
 23 24  1  0
 24 25  2  0
 26 29  1  0
 26 25  1  0
 27 26  2  0
 28 27  1  0
 28 23  2  0
 29 30  1  0
 30 31  1  0
 31 32  2  0
 33 32  1  0
 33 37  1  0
 34 33  2  0
 35 30  2  0
 35 34  1  0
 36 35  1  0
 38 39  1  0
 39 42  1  0
 39 41  1  0
 40 38  2  0
 43 18  1  0
 43 44  1  0
 45 43  1  0
 47 48  1  0
 47 46  2  0
 49 60  2  0
 50 48  1  0
 50 55  1  0
 51 59  1  0
 51 61  1  0
 52 58  1  0
 52 54  1  0
 53 59  1  0
 54 53  1  0
 55 54  2  0
 56 50  2  0
 57 56  1  0
 57 52  2  0
 58 51  1  0
 59 49  1  0
 61 63  2  0
 62 61  1  0
 64 62  1  0
 65 74  2  0
 65 70  1  0
 66 62  1  0
 66 70  1  0
 67 66  1  0
 68 69  1  0
 68 67  1  0
 69 65  1  0
 70 71  2  0
 71 72  1  0
 73 72  2  0
 74 73  1  0
 75 49  1  0
 75 76  1  0
 75 85  1  0
 76 79  1  0
 77 81  1  0
 77 76  1  0
 78 77  2  0
 81 80  1  0
 83 81  1  0
 83 84  1  0
 83 82  1  0
 85 88  1  1
 85 86  1  0
 87 85  1  0
M  ISO  4   7 100  10 100  47 101  48 101
M  END
>  <TORSDO>  (67) 
F 21

>  <SCORE>  (67) 
-12.356

>  <name>  (67) 
66

>  <ligand_id>  (67) 
66

>  <original_smiles>  (67) 
[H]C(C(=O)N1C([H])([H])C([H])([H])C([H])([H])C([H])(n2nc(-c3c([H])c([H])c(Oc4c([H])c([H])c(F)c([H])c4F)c([H])c3[H])c(C(=O)N([H])[H])c2N([H])[H])C1([H])[H])=C(C([H])([H])[H])C([H])(C([H])([H])[H])[N+]([H])([H])C([H])([H])C([H])([H])C([H])([H])Oc1c([H])c([H])c2c(c1[H])C([H])([H])N(C(=O)C([H])(N([H])C(=O)C([H])(N([H])C([H])([H])[H])C([H])([H])[H])C(C([H])([H])[H])(C([H])([H])[H])C([H])([H])[H])C([H])(C(=O)N([H])C1([H])c3c([H])c([H])c([H])c([H])c3C([H])([H])C([H])([H])C1([H])[H])C2([H])[H]

>  <smiles>  (67) 
[H]C(C(=O)N1C([H])([H])C([H])([H])C([H])([H])C([H])(n2nc(-c3c([H])c([H])c(Oc4c([H])c([H])c(F)c([H])c4F)c([H])c3[H])c(C(=O)N([H])[H])c2N([H])[H])C1([H])[H])=C(C([H])([H])[H])C([H])(C([H])([H])[H])[N+]([H])([H])C([H])([H])C([H])([H])C([H])([H])Oc1c([H])c([H])c2c(c1[H])C([H])([H])N(C(=O)C([H])(N([H])C(=O)C([H])(N([H])C([H])([H])[H])C([H])([H])[H])C(C([H])([H])[H])(C([H])([H])[H])C([H])([H])[H])C([H])(C(=O)N([H])C1([H])c3c([H])c([H])c([H])c([H])c3C([H])([H])C([H])([H])C1([H])[H])C2([H])[H]

$$$$
67:0:0
     RDKit          3D

 90 97  0  0  1  0  0  0  0  0999 V2000
  -29.0710  -21.3070   19.6590 C   0  0  0  0  0  3  0  0  0  0  0  0
  -28.0290  -19.4730   21.1480 C   0  0  0  0  0  1  0  0  0  0  0  0
  -29.2250  -19.7790   20.3340 N   0  0  1  0  0  4  0  0  0  0  0  0
  -29.9570  -19.9110   21.0170 H   0  0  0  0  0  0  0  0  0  0  0  0
  -28.7320  -18.0580   18.4260 C   0  0  0  0  0  1  0  0  0  0  0  0
  -29.6780  -18.3450   19.6120 C   0  0  0  0  0  3  0  0  0  0  0  0
  -29.8640  -16.7480   20.3740 C   0  0  0  0  0  2  0  0  0  0  0  0
  -30.5430  -15.2420   19.8490 C   0  0  0  0  0  0  0  0  0  0  0  0
  -30.4210  -12.8270   18.9290 C   0  0  0  0  0  2  0  0  0  0  0  0
  -29.4100  -12.7140   17.7590 C   0  0  0  0  0  2  0  0  0  0  0  0
  -27.9820  -12.4800   18.2830 C   0  0  0  0  0  2  0  0  0  0  0  0
  -27.6440  -13.4030   19.4810 C   0  0  0  0  0  3  0  0  0  0  0  0
  -28.7730  -13.4630   20.5320 C   0  0  0  0  0  2  0  0  0  0  0  0
  -29.9820  -13.9380   19.8460 N   0  0  0  0  0  0  0  0  0  0  0  0
  -31.6990  -15.2580   19.4030 O   0  0  0  0  0  0  0  0  0  0  0  0
  -25.3420  -13.9760   20.4230 C   0  0  0  0  0  0  0  0  0  0  0  0
  -24.2950  -13.2030   20.8450 C   0  0  0  0  0  0  0  0  0  0  0  0
  -24.7320  -11.8480   20.7330 C   0  0  0  0  0  0  0  0  0  0  0  0
  -26.3470  -13.0940   20.0720 N   0  0  0  0  0  0  0  0  0  0  0  0
  -25.9970  -11.8050   20.3240 N   0  0  0  0  0  0  0  0  0  0  0  0
  -23.9970  -10.5910   20.9360 C   0  0  0  0  0  0  0  0  0  0  0  0
  -24.4570   -9.6020   21.8320 C   0  0  0  0  0  3  0  0  0  0  0  0
  -23.7210   -8.4130   22.0270 C   0  0  0  0  0  3  0  0  0  0  0  0
  -22.5110   -8.2030   21.3250 C   0  0  0  0  0  0  0  0  0  0  0  0
  -22.0690   -9.1810   20.4150 C   0  0  0  0  0  3  0  0  0  0  0  0
  -22.8040  -10.3620   20.2200 C   0  0  0  0  0  3  0  0  0  0  0  0
  -21.7450   -7.0680   21.4290 O   0  0  0  0  0  0  0  0  0  0  0  0
  -21.7200   -6.3180   22.5780 C   0  0  0  0  0  0  0  0  0  0  0  0
  -21.3040   -6.8610   23.8130 C   0  0  0  0  0  3  0  0  0  0  0  0
  -21.2280   -6.0390   24.9540 C   0  0  0  0  0  3  0  0  0  0  0  0
  -21.5590   -4.6730   24.8610 C   0  0  0  0  0  0  0  0  0  0  0  0
  -21.9690   -4.1290   23.6310 C   0  0  0  0  0  3  0  0  0  0  0  0
  -22.0460   -4.9500   22.4920 C   0  0  0  0  0  0  0  0  0  0  0  0
  -22.4220   -4.4160   21.3050 F   0  0  0  0  0  0  0  0  0  0  0  0
  -21.4780   -3.8810   25.9550 F   0  0  0  0  0  0  0  0  0  0  0  0
  -22.9290  -13.6930   21.2320 C   0  0  0  0  0  0  0  0  0  0  0  0
  -22.2550  -12.9810   22.1280 N   0  0  0  0  0  0  0  0  0  0  0  0
  -22.4730  -14.7410   20.7770 O   0  0  0  0  0  0  0  0  0  0  0  0
  -22.6450  -12.1370   22.5190 H   0  0  0  0  0  0  0  0  0  0  0  0
  -21.3400  -13.2850   22.4250 H   0  0  0  0  0  0  0  0  0  0  0  0
  -25.5150  -15.3500   20.2770 N   0  0  0  0  0  0  0  0  0  0  0  0
  -24.7650  -16.0080   20.4570 H   0  0  0  0  0  0  0  0  0  0  0  0
  -26.3330  -15.7790   19.8660 H   0  0  0  0  0  0  0  0  0  0  0  0
  -30.2870  -21.0120   17.3530 C   0  0  0  0  0  1  0  0  0  0  0  0
  -31.6580  -21.4380   19.4620 C   0  0  0  0  0  1  0  0  0  0  0  0
  -30.3040  -21.6350   18.7570 C   0  0  0  0  0  3  0  0  0  0  0  0
  -27.7550  -22.7110   21.6260 C   0  0  0  0  0  1  0  0  0  0  0  0
  -28.7190  -22.8890   20.4450 C   0  0  0  0  0  3  0  0  0  0  0  0
  -28.2080  -24.4350   19.7330 C   0  0  0  0  0  2  0  0  0  0  0  0
  -28.2630  -25.9880   20.2180 O   0  0  0  0  0  0  0  0  0  0  0  0
  -24.6100  -31.8280   23.1380 C   0  0  0  0  0  0  0  0  0  0  0  0
  -27.2360  -27.0440   20.0990 C   0  0  0  0  0  0  0  0  0  0  0  0
  -23.4420  -30.4410   21.4690 C   0  0  0  0  0  3  0  0  0  0  0  0
  -24.9190  -28.8720   20.0410 C   0  0  0  0  0  0  0  0  0  0  0  0
  -26.0050  -30.6830   21.3570 C   0  0  0  0  0  2  0  0  0  0  0  0
  -26.0900  -29.2860   20.6860 C   0  0  0  0  0  0  0  0  0  0  0  0
  -27.2410  -28.3890   20.6980 C   0  0  0  0  0  3  0  0  0  0  0  0
  -26.0410  -26.7740   19.3930 C   0  0  0  0  0  3  0  0  0  0  0  0
  -24.9170  -27.6360   19.3760 C   0  0  0  0  0  3  0  0  0  0  0  0
  -23.6910  -29.7770   20.0870 C   0  0  0  0  0  2  0  0  0  0  0  0
  -24.7060  -31.0090   22.0420 N   0  0  0  0  0  0  0  0  0  0  0  0
  -23.5130  -32.1060   23.6480 O   0  0  0  0  0  0  0  0  0  0  0  0
  -22.7470  -29.4280   22.4150 C   0  0  0  0  0  0  0  0  0  0  0  0
  -21.4200  -29.2560   22.2700 N   0  0  0  0  0  0  0  0  0  0  0  0
  -23.4070  -28.8010   23.2460 O   0  0  0  0  0  0  0  0  0  0  0  0
  -20.9400  -29.8180   21.5810 H   0  0  0  0  0  0  0  0  0  0  0  0
  -18.0400  -28.0210   22.7190 C   0  0  0  0  0  0  0  0  0  0  0  0
  -20.5930  -28.3050   23.0210 C   0  0  0  0  0  3  0  0  0  0  0  0
  -20.7140  -26.8780   22.4340 C   0  0  0  0  0  2  0  0  0  0  0  0
  -19.6280  -26.5580   21.4010 C   0  0  0  0  0  2  0  0  0  0  0  0
  -18.2370  -26.6840   22.0270 C   0  0  0  0  0  2  0  0  0  0  0  0
  -19.1450  -28.7890   23.1700 C   0  0  0  0  0  0  0  0  0  0  0  0
  -18.9060  -30.0400   23.7800 C   0  0  0  0  0  3  0  0  0  0  0  0
  -17.5940  -30.5250   23.9370 C   0  0  0  0  0  3  0  0  0  0  0  0
  -16.5020  -29.7550   23.5000 C   0  0  0  0  0  3  0  0  0  0  0  0
  -16.7260  -28.5040   22.8990 C   0  0  0  0  0  3  0  0  0  0  0  0
  -25.8720  -32.4670   23.7930 C   0  0  0  0  0  3  0  0  0  0  0  0
  -25.5520  -33.8690   24.1140 N   0  0  0  0  0  0  0  0  0  0  0  0
  -25.8910  -34.9250   23.3640 C   0  0  0  0  0  0  0  0  0  0  0  0
  -26.5680  -34.8210   22.3380 O   0  0  0  0  0  0  0  0  0  0  0  0
  -24.9480  -34.0220   24.9090 H   0  0  0  0  0  0  0  0  0  0  0  0
  -24.1610  -36.7240   23.0090 C   0  0  0  0  0  1  0  0  0  0  0  0
  -25.4020  -36.3160   23.8200 C   0  0  0  0  0  3  0  0  0  0  0  0
  -27.5310  -37.2130   24.6580 C   0  0  0  0  0  1  0  0  0  0  0  0
  -26.4350  -37.3700   23.7050 N   0  0  0  0  0  0  0  0  0  0  0  0
  -26.0260  -38.2920   23.8420 H   0  0  0  0  0  0  0  0  0  0  0  0
  -26.3490  -31.7060   25.0930 C   0  0  1  0  0  0  0  0  0  0  0  0
  -25.2250  -31.4810   26.1310 C   0  0  0  0  0  1  0  0  0  0  0  0
  -26.9410  -30.3240   24.7390 C   0  0  0  0  0  1  0  0  0  0  0  0
  -27.4800  -32.5070   25.7810 C   0  0  0  0  0  1  0  0  0  0  0  0
  1 46  1  0
  1  3  1  0
  1 48  1  0
  3  4  1  1
  3  2  1  0
  6  5  1  0
  6  3  1  0
  6  7  1  0
  8  7  1  0
  9 14  1  0
 10 11  1  0
 10  9  1  0
 12 11  1  0
 12 19  1  0
 12 13  1  0
 14  8  1  0
 14 13  1  0
 15  8  2  0
 16 17  2  0
 17 36  1  0
 18 17  1  0
 18 21  1  0
 19 20  1  0
 19 16  1  0
 20 18  2  0
 21 22  1  0
 22 23  2  0
 24 27  1  0
 24 23  1  0
 25 24  2  0
 26 25  1  0
 26 21  2  0
 27 28  1  0
 28 29  1  0
 29 30  2  0
 31 30  1  0
 31 35  1  0
 32 31  2  0
 33 28  2  0
 33 32  1  0
 34 33  1  0
 36 37  1  0
 37 40  1  0
 37 39  1  0
 38 36  2  0
 41 16  1  0
 41 42  1  0
 43 41  1  0
 44 46  1  0
 46 45  1  0
 48 47  1  0
 49 50  1  0
 49 48  1  0
 51 62  2  0
 52 50  1  0
 52 57  1  0
 53 61  1  0
 53 63  1  0
 54 60  1  0
 54 56  1  0
 55 61  1  0
 56 57  2  0
 56 55  1  0
 58 52  2  0
 59 58  1  0
 59 54  2  0
 60 53  1  0
 61 51  1  0
 63 65  2  0
 64 63  1  0
 66 64  1  0
 67 76  2  0
 67 72  1  0
 68 64  1  0
 68 72  1  0
 69 68  1  0
 70 71  1  0
 70 69  1  0
 71 67  1  0
 72 73  2  0
 73 74  1  0
 75 74  2  0
 76 75  1  0
 77 51  1  0
 77 78  1  0
 77 87  1  0
 78 81  1  0
 79 83  1  0
 79 78  1  0
 80 79  2  0
 83 82  1  0
 85 83  1  0
 85 86  1  0
 85 84  1  0
 87 90  1  1
 87 88  1  0
 89 87  1  0
M  ISO  4   7 100   8 100  49 101  50 101
M  END
>  <TORSDO>  (68) 
F 22

>  <SCORE>  (68) 
-14.393

>  <name>  (68) 
67

>  <ligand_id>  (68) 
67

>  <original_smiles>  (68) 
[H]c1c([H])c([H])c2c(c1[H])C([H])([H])C([H])([H])C([H])([H])C2([H])N([H])C(=O)C1([H])N(C(=O)C([H])(N([H])C(=O)C([H])(N([H])C([H])([H])[H])C([H])([H])[H])C(C([H])([H])[H])(C([H])([H])[H])C([H])([H])[H])C([H])([H])c2c([H])c(OC([H])([H])C([H])(C([H])([H])[H])C([H])(C([H])(C([H])([H])[H])C([H])([H])[H])[N+]([H])(C([H])([H])[H])C([H])(C([H])([H])[H])C([H])([H])C(=O)N3C([H])([H])C([H])([H])C([H])([H])C([H])(n4nc(-c5c([H])c([H])c(Oc6c([H])c([H])c(F)c([H])c6F)c([H])c5[H])c(C(=O)N([H])[H])c4N([H])[H])C3([H])[H])c([H])c([H])c2C1([H])[H]

>  <smiles>  (68) 
[H]c1c([H])c([H])c2c(c1[H])C([H])([H])C([H])([H])C([H])([H])C2([H])N([H])C(=O)C1([H])N(C(=O)C([H])(N([H])C(=O)C([H])(N([H])C([H])([H])[H])C([H])([H])[H])C(C([H])([H])[H])(C([H])([H])[H])C([H])([H])[H])C([H])([H])c2c([H])c(OC([H])([H])C([H])(C([H])([H])[H])C([H])(C([H])(C([H])([H])[H])C([H])([H])[H])[N+]([H])(C([H])([H])[H])C([H])(C([H])([H])[H])C([H])([H])C(=O)N3C([H])([H])C([H])([H])C([H])([H])C([H])(n4nc(-c5c([H])c([H])c(Oc6c([H])c([H])c(F)c([H])c6F)c([H])c5[H])c(C(=O)N([H])[H])c4N([H])[H])C3([H])[H])c([H])c([H])c2C1([H])[H]

$$$$
68:0:0
     RDKit          3D

 95103  0  0  1  0  0  0  0  0999 V2000
  -30.0610  -24.2210   20.8690 N   0  0  2  0  0  4  0  0  0  0  0  0
  -29.3520  -24.5250   20.2170 H   0  0  0  0  0  0  0  0  0  0  0  0
  -30.2040  -23.5390   23.3280 C   0  0  0  0  0  1  0  0  0  0  0  0
  -29.3200  -23.9550   22.1390 C   0  0  0  0  0  2  0  0  0  0  0  0
  -30.6880  -23.0260   20.2210 C   0  0  0  0  0  2  0  0  0  0  0  0
  -27.8390  -20.4780   19.7360 C   0  0  0  0  0  3  0  0  0  0  0  0
  -28.5410  -21.6960   19.7620 C   0  0  0  0  0  3  0  0  0  0  0  0
  -28.4890  -19.2690   20.0580 C   0  0  0  0  0  3  0  0  0  0  0  0
  -30.5280  -20.4970   20.5090 C   0  0  0  0  0  3  0  0  0  0  0  0
  -29.8870  -21.7190   20.1850 C   0  0  0  0  0  0  0  0  0  0  0  0
  -29.8580  -19.2440   20.4230 C   0  0  0  0  0  0  0  0  0  0  0  0
  -31.9370  -18.0100   20.1690 C   0  0  0  0  0  1  0  0  0  0  0  0
  -30.5540  -18.0230   20.6610 N   0  0  0  0  0  0  0  0  0  0  0  0
  -29.7870  -16.7580   20.7270 C   0  0  0  0  0  2  0  0  0  0  0  0
  -30.4960  -15.5440   21.4030 C   0  0  0  0  0  2  0  0  0  0  0  0
  -30.8840  -14.3930   20.4440 C   0  0  0  0  0  0  0  0  0  0  0  0
  -30.4830  -12.2450   19.2870 C   0  0  0  0  0  2  0  0  0  0  0  0
  -29.5570  -12.4340   18.0710 C   0  0  0  0  0  2  0  0  0  0  0  0
  -28.0820  -12.3190   18.4930 C   0  0  0  0  0  2  0  0  0  0  0  0
  -27.7490  -13.2080   19.7200 C   0  0  0  0  0  3  0  0  0  0  0  0
  -28.7910  -13.0200   20.8460 C   0  0  0  0  0  2  0  0  0  0  0  0
  -30.1330  -13.2640   20.2940 N   0  0  0  0  0  0  0  0  0  0  0  0
  -31.9360  -14.5410   19.8180 O   0  0  0  0  0  0  0  0  0  0  0  0
  -25.3540  -13.8680   20.3990 C   0  0  0  0  0  0  0  0  0  0  0  0
  -24.2720  -13.1230   20.7770 C   0  0  0  0  0  0  0  0  0  0  0  0
  -24.7090  -11.7620   20.7800 C   0  0  0  0  0  0  0  0  0  0  0  0
  -26.3870  -12.9670   20.1920 N   0  0  0  0  0  0  0  0  0  0  0  0
  -26.0010  -11.6960   20.4790 N   0  0  0  0  0  0  0  0  0  0  0  0
  -23.9590  -10.5180   20.9960 C   0  0  0  0  0  0  0  0  0  0  0  0
  -24.3660   -9.5650   21.9570 C   0  0  0  0  0  3  0  0  0  0  0  0
  -23.6190   -8.3840   22.1560 C   0  0  0  0  0  3  0  0  0  0  0  0
  -22.4510   -8.1440   21.3930 C   0  0  0  0  0  0  0  0  0  0  0  0
  -22.0640   -9.0840   20.4200 C   0  0  0  0  0  3  0  0  0  0  0  0
  -22.8100  -10.2570   20.2220 C   0  0  0  0  0  3  0  0  0  0  0  0
  -21.6760   -7.0150   21.5020 O   0  0  0  0  0  0  0  0  0  0  0  0
  -21.6010   -6.3020   22.6710 C   0  0  0  0  0  0  0  0  0  0  0  0
  -21.1790   -6.8970   23.8800 C   0  0  0  0  0  3  0  0  0  0  0  0
  -21.0520   -6.1120   25.0440 C   0  0  0  0  0  3  0  0  0  0  0  0
  -21.3350   -4.7330   24.9990 C   0  0  0  0  0  0  0  0  0  0  0  0
  -21.7520   -4.1380   23.7950 C   0  0  0  0  0  3  0  0  0  0  0  0
  -21.8830   -4.9210   22.6340 C   0  0  0  0  0  0  0  0  0  0  0  0
  -22.2630   -4.3380   21.4720 F   0  0  0  0  0  0  0  0  0  0  0  0
  -21.2050   -3.9780   26.1160 F   0  0  0  0  0  0  0  0  0  0  0  0
  -22.8790  -13.6250   21.0320 C   0  0  0  0  0  0  0  0  0  0  0  0
  -22.1390  -12.9610   21.9120 N   0  0  0  0  0  0  0  0  0  0  0  0
  -22.4580  -14.6440   20.4840 O   0  0  0  0  0  0  0  0  0  0  0  0
  -22.4970  -12.1380   22.3750 H   0  0  0  0  0  0  0  0  0  0  0  0
  -21.2010  -13.2720   22.1250 H   0  0  0  0  0  0  0  0  0  0  0  0
  -25.5470  -15.2300   20.1890 N   0  0  0  0  0  0  0  0  0  0  0  0
  -24.7970  -15.9060   20.2790 H   0  0  0  0  0  0  0  0  0  0  0  0
  -26.4090  -15.6340   19.8480 H   0  0  0  0  0  0  0  0  0  0  0  0
  -31.0440  -25.3430   20.9440 C   0  0  0  0  0  2  0  0  0  0  0  0
  -30.4620  -26.7480   21.2290 C   0  0  0  0  0  2  0  0  0  0  0  0
  -29.6110  -27.3160   20.0840 C   0  0  0  0  0  2  0  0  0  0  0  0
  -28.3330  -26.6950   20.1200 O   0  0  0  0  0  0  0  0  0  0  0  0
  -24.5500  -31.9300   23.2430 C   0  0  0  0  0  0  0  0  0  0  0  0
  -27.2060  -27.4850   20.1870 C   0  0  0  0  0  0  0  0  0  0  0  0
  -23.3440  -30.5210   21.6040 C   0  0  0  0  0  3  0  0  0  0  0  0
  -24.7990  -28.9680   20.2000 C   0  0  0  0  0  0  0  0  0  0  0  0
  -25.8710  -30.8750   21.4180 C   0  0  0  0  0  2  0  0  0  0  0  0
  -25.9540  -29.5030   20.7820 C   0  0  0  0  0  0  0  0  0  0  0  0
  -27.1600  -28.7680   20.7820 C   0  0  0  0  0  3  0  0  0  0  0  0
  -26.0250  -26.9450   19.6400 C   0  0  0  0  0  3  0  0  0  0  0  0
  -24.8250  -27.6810   19.6340 C   0  0  0  0  0  3  0  0  0  0  0  0
  -23.5570  -29.8270   20.2310 C   0  0  0  0  0  2  0  0  0  0  0  0
  -24.6050  -31.1230   22.1450 N   0  0  0  0  0  0  0  0  0  0  0  0
  -23.4670  -32.2130   23.7750 O   0  0  0  0  0  0  0  0  0  0  0  0
  -22.6840  -29.5100   22.5680 C   0  0  0  0  0  0  0  0  0  0  0  0
  -21.3570  -29.3440   22.4390 N   0  0  0  0  0  0  0  0  0  0  0  0
  -23.3600  -28.8780   23.3840 O   0  0  0  0  0  0  0  0  0  0  0  0
  -20.8760  -29.9070   21.7510 H   0  0  0  0  0  0  0  0  0  0  0  0
  -17.9640  -28.2110   22.9430 C   0  0  0  0  0  0  0  0  0  0  0  0
  -20.5260  -28.4190   23.2080 C   0  0  0  0  0  3  0  0  0  0  0  0
  -20.6000  -26.9870   22.6250 C   0  0  0  0  0  2  0  0  0  0  0  0
  -19.4890  -26.6890   21.6140 C   0  0  0  0  0  2  0  0  0  0  0  0
  -18.1120  -26.8610   22.2620 C   0  0  0  0  0  2  0  0  0  0  0  0
  -19.0980  -28.9510   23.3700 C   0  0  0  0  0  0  0  0  0  0  0  0
  -18.9050  -30.2190   23.9610 C   0  0  0  0  0  3  0  0  0  0  0  0
  -17.6110  -30.7440   24.1320 C   0  0  0  0  0  3  0  0  0  0  0  0
  -16.4910  -29.9980   23.7230 C   0  0  0  0  0  3  0  0  0  0  0  0
  -16.6690  -28.7350   23.1340 C   0  0  0  0  0  3  0  0  0  0  0  0
  -25.8390  -32.5550   23.8640 C   0  0  0  0  0  3  0  0  0  0  0  0
  -26.3510  -31.7820   25.1410 C   0  0  1  0  0  0  0  0  0  0  0  0
  -25.2550  -31.5380   26.2030 C   0  0  0  0  0  1  0  0  0  0  0  0
  -26.9400  -30.4070   24.7460 C   0  0  0  0  0  1  0  0  0  0  0  0
  -27.4970  -32.5760   25.8120 C   0  0  0  0  0  1  0  0  0  0  0  0
  -25.5410  -33.9570   24.1880 N   0  0  0  0  0  0  0  0  0  0  0  0
  -25.8890  -35.0040   23.4300 C   0  0  0  0  0  0  0  0  0  0  0  0
  -26.5690  -34.8920   22.4050 O   0  0  0  0  0  0  0  0  0  0  0  0
  -24.9470  -34.1200   24.9870 H   0  0  0  0  0  0  0  0  0  0  0  0
  -24.1800  -36.8050   23.0420 C   0  0  0  0  0  1  0  0  0  0  0  0
  -25.4050  -36.3970   23.8760 C   0  0  0  0  0  3  0  0  0  0  0  0
  -27.5330  -37.2620   24.7400 C   0  0  0  0  0  1  0  0  0  0  0  0
  -26.4480  -37.4400   23.7790 N   0  0  0  0  0  0  0  0  0  0  0  0
  -26.0490  -38.3640   23.9210 H   0  0  0  0  0  0  0  0  0  0  0  0
  1 52  1  0
  1  4  1  0
  1  2  1  6
  4  3  1  0
  5  1  1  0
  6  7  2  0
  6  8  1  0
  7 10  1  0
  8 11  2  0
 10  5  1  0
 10  9  2  0
 11  9  1  0
 11 13  1  0
 12 13  1  0
 13 14  1  0
 14 15  1  0
 16 15  1  0
 17 22  1  0
 18 19  1  0
 18 17  1  0
 20 19  1  0
 20 27  1  0
 20 21  1  0
 22 16  1  0
 22 21  1  0
 23 16  2  0
 24 25  2  0
 25 26  1  0
 25 44  1  0
 26 29  1  0
 27 24  1  0
 27 28  1  0
 28 26  2  0
 29 30  1  0
 30 31  2  0
 32 35  1  0
 32 31  1  0
 33 32  2  0
 34 33  1  0
 34 29  2  0
 35 36  1  0
 36 37  1  0
 37 38  2  0
 39 38  1  0
 39 43  1  0
 40 39  2  0
 41 36  2  0
 41 40  1  0
 42 41  1  0
 44 45  1  0
 45 48  1  0
 45 47  1  0
 46 44  2  0
 49 50  1  0
 49 24  1  0
 51 49  1  0
 52 53  1  0
 54 55  1  0
 54 53  1  0
 55 57  1  0
 56 67  2  0
 57 62  1  0
 58 66  1  0
 58 68  1  0
 59 65  1  0
 59 61  1  0
 60 66  1  0
 61 60  1  0
 62 61  2  0
 63 57  2  0
 64 63  1  0
 64 59  2  0
 65 58  1  0
 66 56  1  0
 68 70  2  0
 69 68  1  0
 71 69  1  0
 72 81  2  0
 72 77  1  0
 73 69  1  0
 73 77  1  0
 74 73  1  0
 75 76  1  0
 75 74  1  0
 76 72  1  0
 77 78  2  0
 78 79  1  0
 80 79  2  0
 81 80  1  0
 82 56  1  0
 82 87  1  0
 82 83  1  0
 83 86  1  1
 83 84  1  0
 85 83  1  0
 87 90  1  0
 88 92  1  0
 88 87  1  0
 89 88  2  0
 92 91  1  0
 94 92  1  0
 94 95  1  0
 94 93  1  0
M  ISO  4  15 100  16 100  54 101  55 101
M  END
>  <TORSDO>  (69) 
F 25

>  <SCORE>  (69) 
-12.331

>  <name>  (69) 
68

>  <ligand_id>  (69) 
68

>  <original_smiles>  (69) 
[H]c1c([H])c([H])c2c(c1[H])C([H])([H])C([H])([H])C([H])([H])C2([H])N([H])C(=O)C1([H])N(C(=O)C([H])(N([H])C(=O)C([H])(N([H])C([H])([H])[H])C([H])([H])[H])C(C([H])([H])[H])(C([H])([H])[H])C([H])([H])[H])C([H])([H])c2c([H])c(OC([H])([H])C([H])([H])C([H])([H])[N+]([H])(C([H])([H])c3c([H])c([H])c([H])c(N(C([H])([H])[H])C([H])([H])C([H])([H])C(=O)N4C([H])([H])C([H])([H])C([H])([H])C([H])(n5nc(-c6c([H])c([H])c(Oc7c([H])c([H])c(F)c([H])c7F)c([H])c6[H])c(C(=O)N([H])[H])c5N([H])[H])C4([H])[H])c3[H])C([H])([H])C([H])([H])[H])c([H])c([H])c2C1([H])[H]

>  <smiles>  (69) 
[H]c1c([H])c([H])c2c(c1[H])C([H])([H])C([H])([H])C([H])([H])C2([H])N([H])C(=O)C1([H])N(C(=O)C([H])(N([H])C(=O)C([H])(N([H])C([H])([H])[H])C([H])([H])[H])C(C([H])([H])[H])(C([H])([H])[H])C([H])([H])[H])C([H])([H])c2c([H])c(OC([H])([H])C([H])([H])C([H])([H])[N+]([H])(C([H])([H])c3c([H])c([H])c([H])c(N(C([H])([H])[H])C([H])([H])C([H])([H])C(=O)N4C([H])([H])C([H])([H])C([H])([H])C([H])(n5nc(-c6c([H])c([H])c(Oc7c([H])c([H])c(F)c([H])c7F)c([H])c6[H])c(C(=O)N([H])[H])c5N([H])[H])C4([H])[H])c3[H])C([H])([H])C([H])([H])[H])c([H])c([H])c2C1([H])[H]

$$$$
69:0:0
     RDKit          3D

 92 95  0  0  1  0  0  0  0  0999 V2000
  -30.0690  -26.9950   22.9110 C   0  0  0  0  0  3  0  0  0  0  0  0
  -30.9820  -26.9880   21.8120 C   0  0  0  0  0  3  0  0  0  0  0  0
  -29.0100  -26.0680   23.0820 C   0  0  0  0  0  3  0  0  0  0  0  0
  -30.9920  -26.0360   20.7590 C   0  0  0  0  0  3  0  0  0  0  0  0
  -28.8730  -25.0950   22.0890 C   0  0  0  0  0  3  0  0  0  0  0  0
  -30.0150  -25.0320   20.7700 C   0  0  0  0  0  0  0  0  0  0  0  0
  -27.6160  -23.3790   21.8080 C   0  0  0  0  0 15  0  0  0  0  0  0
  -28.5530  -22.1610   20.2070 C   0  0  0  0  0 15  0  0  0  0  0  0
  -29.8040  -23.5590   19.7620 N   0  0  0  0  0  2  0  0  0  0  0  0
  -29.3720  -20.0410   20.0970 C   0  0  0  0  0 15  0  0  0  0  0  0
  -30.0070  -16.4460   20.0490 C   0  0  0  0  0  0  0  0  0  0  0  0
  -30.2770  -13.7320   19.2590 C   0  0  0  0  0  2  0  0  0  0  0  0
  -29.4520  -12.9900   18.1400 C   0  0  0  0  0  2  0  0  0  0  0  0
  -28.1130  -12.4680   18.6640 C   0  0  0  0  0  2  0  0  0  0  0  0
  -27.5150  -13.5000   19.6350 C   0  0  0  0  0  3  0  0  0  0  0  0
  -28.5150  -14.1150   20.6730 C   0  0  0  0  0  2  0  0  0  0  0  0
  -29.5460  -14.9610   19.9490 N   0  0  0  0  0  0  0  0  0  0  0  0
  -31.2500  -16.2500   19.9230 O   0  0  0  0  0  0  0  0  0  0  0  0
  -29.2900  -18.0170   20.1150 N   0  0  0  0  0  2  0  0  0  0  0  0
  -28.3020  -17.8020   20.1650 H   0  0  0  0  0  0  0  0  0  0  0  0
  -25.1800  -13.9400   20.4810 C   0  0  0  0  0  0  0  0  0  0  0  0
  -24.1430  -13.1420   20.8620 C   0  0  0  0  0  0  0  0  0  0  0  0
  -24.6300  -11.7990   20.8000 C   0  0  0  0  0  0  0  0  0  0  0  0
  -26.2350  -13.0960   20.2040 N   0  0  0  0  0  0  0  0  0  0  0  0
  -25.9190  -11.7930   20.4520 N   0  0  0  0  0  0  0  0  0  0  0  0
  -23.9130  -10.5270   20.9930 C   0  0  0  0  0  0  0  0  0  0  0  0
  -24.3530   -9.5600   21.9240 C   0  0  0  0  0  3  0  0  0  0  0  0
  -23.6290   -8.3630   22.1130 C   0  0  0  0  0  3  0  0  0  0  0  0
  -22.4480   -8.1220   21.3710 C   0  0  0  0  0  0  0  0  0  0  0  0
  -22.0240   -9.0760   20.4310 C   0  0  0  0  0  3  0  0  0  0  0  0
  -22.7500  -10.2650   20.2400 C   0  0  0  0  0  3  0  0  0  0  0  0
  -21.6960   -6.9740   21.4680 O   0  0  0  0  0  0  0  0  0  0  0  0
  -21.6540   -6.2340   22.6220 C   0  0  0  0  0  0  0  0  0  0  0  0
  -21.2460   -6.7940   23.8520 C   0  0  0  0  0  3  0  0  0  0  0  0
  -21.1510   -5.9810   24.9990 C   0  0  0  0  0  3  0  0  0  0  0  0
  -21.4560   -4.6090   24.9190 C   0  0  0  0  0  0  0  0  0  0  0  0
  -21.8570   -4.0480   23.6940 C   0  0  0  0  0  3  0  0  0  0  0  0
  -21.9530   -4.8580   22.5490 C   0  0  0  0  0  0  0  0  0  0  0  0
  -22.3200   -4.3070   21.3670 F   0  0  0  0  0  0  0  0  0  0  0  0
  -21.3570   -3.8260   26.0190 F   0  0  0  0  0  0  0  0  0  0  0  0
  -22.7470  -13.6020   21.1610 C   0  0  0  0  0  0  0  0  0  0  0  0
  -22.0430  -12.8960   22.0370 N   0  0  0  0  0  0  0  0  0  0  0  0
  -22.2940  -14.6290   20.6570 O   0  0  0  0  0  0  0  0  0  0  0  0
  -22.4260  -12.0680   22.4680 H   0  0  0  0  0  0  0  0  0  0  0  0
  -21.1070  -13.1880   22.2810 H   0  0  0  0  0  0  0  0  0  0  0  0
  -25.3140  -15.3160   20.3110 N   0  0  0  0  0  0  0  0  0  0  0  0
  -24.5370  -15.9550   20.4410 H   0  0  0  0  0  0  0  0  0  0  0  0
  -26.1480  -15.7680   19.9600 H   0  0  0  0  0  0  0  0  0  0  0  0
  -31.1170  -22.9800   19.8160 C   0  0  0  0  0  2  0  0  0  0  0  0
  -31.2330  -22.7270   21.2940 C   0  0  0  0  0  2  0  0  0  0  0  0
  -29.8100  -23.0490   21.8840 C   0  0  0  0  0  1  0  0  0  0  0  0
  -27.9240  -24.6220   20.1620 O   0  0  0  0  0  1  0  0  0  0  0  0
  -24.5700  -31.7010   22.9520 C   0  0  0  0  0  0  0  0  0  0  0  0
  -27.1720  -26.1850   20.1490 C   0  0  0  0  0  0  0  0  0  0  0  0
  -23.4360  -30.2500   21.3330 C   0  0  0  0  0  3  0  0  0  0  0  0
  -24.9260  -28.5030   19.9990 C   0  0  0  0  0  0  0  0  0  0  0  0
  -26.0330  -30.2750   21.3080 C   0  0  0  0  0  2  0  0  0  0  0  0
  -26.1140  -28.7820   20.6830 C   0  0  0  0  0  0  0  0  0  0  0  0
  -27.1910  -27.6660   20.7250 C   0  0  0  0  0  3  0  0  0  0  0  0
  -25.9580  -26.2680   19.3730 C   0  0  0  0  0  3  0  0  0  0  0  0
  -24.9170  -27.2740   19.3150 C   0  0  0  0  0  3  0  0  0  0  0  0
  -23.7260  -29.4960   19.9960 C   0  0  0  0  0  2  0  0  0  0  0  0
  -24.7080  -30.7880   21.9150 N   0  0  0  0  0  0  0  0  0  0  0  0
  -23.4580  -32.0210   23.4150 O   0  0  0  0  0  0  0  0  0  0  0  0
  -22.6680  -29.3270   22.3230 C   0  0  0  0  0  0  0  0  0  0  0  0
  -21.3270  -29.2260   22.2180 N   0  0  0  0  0  0  0  0  0  0  0  0
  -23.3010  -28.6940   23.1700 O   0  0  0  0  0  0  0  0  0  0  0  0
  -20.8580  -29.7860   21.5200 H   0  0  0  0  0  0  0  0  0  0  0  0
  -17.9080  -28.1120   22.8190 C   0  0  0  0  0  0  0  0  0  0  0  0
  -20.4850  -28.3110   23.0040 C   0  0  0  0  0  3  0  0  0  0  0  0
  -20.5240  -26.8810   22.4170 C   0  0  0  0  0  2  0  0  0  0  0  0
  -19.3880  -26.6030   21.4270 C   0  0  0  0  0  2  0  0  0  0  0  0
  -18.0290  -26.7720   22.1110 C   0  0  0  0  0  2  0  0  0  0  0  0
  -19.0600  -28.8430   23.2230 C   0  0  0  0  0  0  0  0  0  0  0  0
  -18.8870  -30.0920   23.8550 C   0  0  0  0  0  3  0  0  0  0  0  0
  -17.5990  -30.6150   24.0810 C   0  0  0  0  0  3  0  0  0  0  0  0
  -16.4640  -29.8840   23.6860 C   0  0  0  0  0  3  0  0  0  0  0  0
  -16.6210  -28.6330   23.0630 C   0  0  0  0  0  3  0  0  0  0  0  0
  -25.7980  -32.3990   23.6140 C   0  0  0  0  0  3  0  0  0  0  0  0
  -26.3130  -31.6440   24.9020 C   0  0  1  0  0  0  0  0  0  0  0  0
  -25.2120  -31.3840   25.9600 C   0  0  0  0  0  1  0  0  0  0  0  0
  -26.9340  -30.2780   24.5430 C   0  0  0  0  0  1  0  0  0  0  0  0
  -27.4360  -32.4660   25.5770 C   0  0  0  0  0  1  0  0  0  0  0  0
  -25.4190  -33.7850   23.9820 N   0  0  0  0  0  0  0  0  0  0  0  0
  -25.7410  -34.8930   23.2990 C   0  0  0  0  0  0  0  0  0  0  0  0
  -26.4340  -34.8600   22.2810 O   0  0  0  0  0  0  0  0  0  0  0  0
  -24.7990  -33.8790   24.7730 H   0  0  0  0  0  0  0  0  0  0  0  0
  -23.9840  -36.6840   23.0160 C   0  0  0  0  0  1  0  0  0  0  0  0
  -25.2190  -36.2520   23.8230 C   0  0  0  0  0  3  0  0  0  0  0  0
  -27.3190  -37.1500   24.7350 C   0  0  0  0  0  1  0  0  0  0  0  0
  -26.2300  -37.3340   23.7800 N   0  0  0  0  0  0  0  0  0  0  0  0
  -25.8000  -38.2360   23.9600 H   0  0  0  0  0  0  0  0  0  0  0  0
  1  3  1  0
  2  1  2  0
  4  6  2  0
  4  2  1  0
  5  3  2  0
  6  5  1  0
  9 49  1  0
  9  6  1  0
 11 19  1  0
 12 17  1  0
 13 14  1  0
 13 12  1  0
 15 14  1  0
 15 24  1  0
 15 16  1  0
 17 11  1  0
 17 16  1  0
 18 11  2  0
 19 20  1  0
 21 22  2  0
 22 41  1  0
 23 22  1  0
 23 26  1  0
 24 25  1  0
 24 21  1  0
 25 23  2  0
 26 27  1  0
 27 28  2  0
 29 32  1  0
 29 28  1  0
 30 29  2  0
 31 30  1  0
 31 26  2  0
 32 33  1  0
 33 34  1  0
 34 35  2  0
 36 35  1  0
 36 40  1  0
 37 36  2  0
 38 33  2  0
 38 37  1  0
 39 38  1  0
 41 42  1  0
 42 45  1  0
 42 44  1  0
 43 41  2  0
 46 47  1  0
 46 21  1  0
 48 46  1  0
 49 50  1  0
 50 51  1  0
 53 64  2  0
 54 52  1  0
 54 59  1  0
 55 63  1  0
 55 65  1  0
 56 58  1  0
 57 63  1  0
 58 59  2  0
 58 57  1  0
 60 54  2  0
 61 60  1  0
 61 56  2  0
 62 56  1  0
 62 55  1  0
 63 53  1  0
 65 67  2  0
 66 65  1  0
 68 66  1  0
 69 78  2  0
 69 74  1  0
 70 66  1  0
 70 74  1  0
 71 70  1  0
 72 73  1  0
 72 71  1  0
 73 69  1  0
 74 75  2  0
 75 76  1  0
 77 76  2  0
 78 77  1  0
 79 53  1  0
 79 84  1  0
 79 80  1  0
 80 83  1  1
 80 81  1  0
 82 80  1  0
 84 87  1  0
 85 89  1  0
 85 84  1  0
 86 85  2  0
 89 88  1  0
 91 89  1  0
 91 92  1  0
 91 90  1  0
M  ISO  4  11 100  19 100  51 101  52 101
M  END
>  <TORSDO>  (70) 
F 20

>  <SCORE>  (70) 
-15.802

>  <name>  (70) 
69

>  <ligand_id>  (70) 
69

>  <original_smiles>  (70) 
[H]c1c([H])c([H])c2c(c1[H])N(C([H])([H])C([H])([H])C([H])([H])Oc1c([H])c([H])c3c(c1[H])C([H])([H])N(C(=O)C([H])(N([H])C(=O)C([H])(N([H])C([H])([H])[H])C([H])([H])[H])C(C([H])([H])[H])(C([H])([H])[H])C([H])([H])[H])C([H])(C(=O)N([H])C1([H])c4c([H])c([H])c([H])c([H])c4C([H])([H])C([H])([H])C1([H])[H])C3([H])[H])C([H])(C([H])([H])N([H])C(=O)N1C([H])([H])C([H])([H])C([H])([H])C([H])(n3nc(-c4c([H])c([H])c(Oc5c([H])c([H])c(F)c([H])c5F)c([H])c4[H])c(C(=O)N([H])[H])c3N([H])[H])C1([H])[H])C2([H])[H]

>  <smiles>  (70) 
[H]c1c([H])c([H])c2c(c1[H])N(C([H])([H])C([H])([H])C([H])([H])Oc1c([H])c([H])c3c(c1[H])C([H])([H])N(C(=O)C([H])(N([H])C(=O)C([H])(N([H])C([H])([H])[H])C([H])([H])[H])C(C([H])([H])[H])(C([H])([H])[H])C([H])([H])[H])C([H])(C(=O)N([H])C1([H])c4c([H])c([H])c([H])c([H])c4C([H])([H])C([H])([H])C1([H])[H])C3([H])[H])C([H])(C([H])([H])N([H])C(=O)N1C([H])([H])C([H])([H])C([H])([H])C([H])(n3nc(-c4c([H])c([H])c(Oc5c([H])c([H])c(F)c([H])c5F)c([H])c4[H])c(C(=O)N([H])[H])c3N([H])[H])C1([H])[H])C2([H])[H]

$$$$
70:0:0
     RDKit          3D

 95103  0  0  1  0  0  0  0  0999 V2000
  -30.2040  -21.9990   22.6130 C   0  0  0  0  0  3  0  0  0  0  0  0
  -30.2520  -23.2980   21.8980 N   0  0  0  0  0  4  0  0  0  0  0  0
  -30.7840  -23.9710   22.4280 H   0  0  0  0  0  0  0  0  0  0  0  0
  -30.7520  -23.1310   21.0400 H   0  0  0  0  0  0  0  0  0  0  0  0
  -28.9360  -23.8660   21.5350 C   0  0  0  0  0  2  0  0  0  0  0  0
  -29.0220  -24.8700   20.3660 C   0  0  0  0  0  2  0  0  0  0  0  0
  -28.3860  -26.2290   20.6790 C   0  0  0  0  0  2  0  0  0  0  0  0
  -28.0860  -26.8950   19.4580 O   0  0  0  0  0  0  0  0  0  0  0  0
  -24.4910  -31.7570   23.1660 C   0  0  0  0  0  0  0  0  0  0  0  0
  -26.9410  -27.6320   19.5650 C   0  0  0  0  0  0  0  0  0  0  0  0
  -23.1860  -30.4840   21.4940 C   0  0  0  0  0  3  0  0  0  0  0  0
  -24.5500  -29.0830   19.8540 C   0  0  0  0  0  0  0  0  0  0  0  0
  -25.6940  -30.8750   21.1760 C   0  0  0  0  0  2  0  0  0  0  0  0
  -25.7370  -29.5680   20.4180 C   0  0  0  0  0  0  0  0  0  0  0  0
  -26.9380  -28.8450   20.2780 C   0  0  0  0  0  3  0  0  0  0  0  0
  -25.7460  -27.1450   18.9970 C   0  0  0  0  0  3  0  0  0  0  0  0
  -24.5470  -27.8710   19.1390 C   0  0  0  0  0  3  0  0  0  0  0  0
  -23.3090  -29.9230   20.0520 C   0  0  0  0  0  2  0  0  0  0  0  0
  -24.4780  -31.0480   22.0030 N   0  0  0  0  0  0  0  0  0  0  0  0
  -23.4450  -31.9810   23.7900 O   0  0  0  0  0  0  0  0  0  0  0  0
  -22.5960  -29.3850   22.4040 C   0  0  0  0  0  0  0  0  0  0  0  0
  -21.2790  -29.1530   22.2840 N   0  0  0  0  0  0  0  0  0  0  0  0
  -23.3170  -28.7490   23.1770 O   0  0  0  0  0  0  0  0  0  0  0  0
  -20.7590  -29.7200   21.6300 H   0  0  0  0  0  0  0  0  0  0  0  0
  -17.9800  -27.7360   22.6920 C   0  0  0  0  0  0  0  0  0  0  0  0
  -20.5130  -28.1430   23.0140 C   0  0  0  0  0  3  0  0  0  0  0  0
  -20.7130  -26.7390   22.3980 C   0  0  0  0  0  2  0  0  0  0  0  0
  -19.6490  -26.3810   21.3550 C   0  0  0  0  0  2  0  0  0  0  0  0
  -18.2520  -26.4210   21.9820 C   0  0  0  0  0  2  0  0  0  0  0  0
  -19.0430  -28.5520   23.1630 C   0  0  0  0  0  0  0  0  0  0  0  0
  -18.7370  -29.7830   23.7840 C   0  0  0  0  0  3  0  0  0  0  0  0
  -17.4020  -30.1990   23.9390 C   0  0  0  0  0  3  0  0  0  0  0  0
  -16.3530  -29.3790   23.4890 C   0  0  0  0  0  3  0  0  0  0  0  0
  -16.6430  -28.1500   22.8700 C   0  0  0  0  0  3  0  0  0  0  0  0
  -25.8150  -32.3390   23.7520 C   0  0  0  0  0  3  0  0  0  0  0  0
  -26.3800  -31.5060   24.9680 C   0  0  1  0  0  0  0  0  0  0  0  0
  -25.3320  -31.2280   26.0700 C   0  0  0  0  0  1  0  0  0  0  0  0
  -26.9310  -30.1430   24.4870 C   0  0  0  0  0  1  0  0  0  0  0  0
  -27.5690  -32.2590   25.6100 C   0  0  0  0  0  1  0  0  0  0  0  0
  -25.5490  -33.7280   24.1490 N   0  0  0  0  0  0  0  0  0  0  0  0
  -25.9040  -34.8030   23.4330 C   0  0  0  0  0  0  0  0  0  0  0  0
  -26.5610  -34.7280   22.3910 O   0  0  0  0  0  0  0  0  0  0  0  0
  -24.9600  -33.8630   24.9590 H   0  0  0  0  0  0  0  0  0  0  0  0
  -24.2320  -36.6620   23.1650 C   0  0  0  0  0  1  0  0  0  0  0  0
  -25.4580  -36.1800   23.9570 C   0  0  0  0  0  3  0  0  0  0  0  0
  -27.6160  -36.9550   24.8360 C   0  0  0  0  0  1  0  0  0  0  0  0
  -26.5230  -37.2040   23.8980 N   0  0  0  0  0  0  0  0  0  0  0  0
  -26.1460  -38.1290   24.0890 H   0  0  0  0  0  0  0  0  0  0  0  0
  -30.8310  -22.8990   24.9870 C   0  0  0  0  0  1  0  0  0  0  0  0
  -29.8100  -22.1500   24.1080 C   0  0  0  0  0  2  0  0  0  0  0  0
  -31.5270  -21.2280   22.3980 C   0  0  0  0  0  2  0  0  0  0  0  0
  -31.2020  -17.6780   23.8350 C   0  0  0  0  0  3  0  0  0  0  0  0
  -31.1550  -16.9110   22.6560 C   0  0  0  0  0  3  0  0  0  0  0  0
  -31.3190  -19.0810   23.7620 C   0  0  0  0  0  3  0  0  0  0  0  0
  -31.3280  -18.9470   21.3260 C   0  0  0  0  0  3  0  0  0  0  0  0
  -31.2170  -17.5450   21.3960 C   0  0  0  0  0  0  0  0  0  0  0  0
  -31.3800  -19.7190   22.5050 C   0  0  0  0  0  0  0  0  0  0  0  0
  -31.2000  -16.7290   20.1170 C   0  0  0  0  0  2  0  0  0  0  0  0
  -30.1520  -15.6000   20.1260 C   0  0  0  0  0  2  0  0  0  0  0  0
  -30.5390  -14.4280   19.2130 C   0  0  0  0  0  0  0  0  0  0  0  0
  -30.2570  -12.0750   18.5230 C   0  0  0  0  0  2  0  0  0  0  0  0
  -29.1860  -11.9300   17.4290 C   0  0  0  0  0  2  0  0  0  0  0  0
  -27.7840  -11.7950   18.0520 C   0  0  0  0  0  2  0  0  0  0  0  0
  -27.4960  -12.8900   19.1130 C   0  0  0  0  0  3  0  0  0  0  0  0
  -28.6680  -13.0110   20.1140 C   0  0  0  0  0  2  0  0  0  0  0  0
  -29.9080  -13.2350   19.3530 N   0  0  0  0  0  0  0  0  0  0  0  0
  -31.4410  -14.6010   18.3860 O   0  0  0  0  0  0  0  0  0  0  0  0
  -25.2710  -13.5580   20.2270 C   0  0  0  0  0  0  0  0  0  0  0  0
  -24.2410  -12.8090   20.7310 C   0  0  0  0  0  0  0  0  0  0  0  0
  -24.6280  -11.4430   20.5680 C   0  0  0  0  0  0  0  0  0  0  0  0
  -26.2240  -12.6490   19.7940 N   0  0  0  0  0  0  0  0  0  0  0  0
  -25.8480  -11.3700   20.0500 N   0  0  0  0  0  0  0  0  0  0  0  0
  -23.8850  -10.2020   20.8180 C   0  0  0  0  0  0  0  0  0  0  0  0
  -24.3460   -9.2380   21.7410 C   0  0  0  0  0  3  0  0  0  0  0  0
  -23.6050   -8.0610   21.9780 C   0  0  0  0  0  3  0  0  0  0  0  0
  -22.3860   -7.8390   21.2930 C   0  0  0  0  0  0  0  0  0  0  0  0
  -21.9430   -8.7910   20.3580 C   0  0  0  0  0  3  0  0  0  0  0  0
  -22.6860   -9.9600   20.1190 C   0  0  0  0  0  3  0  0  0  0  0  0
  -21.6120   -6.7130   21.4400 O   0  0  0  0  0  0  0  0  0  0  0  0
  -21.5420   -6.0390   22.6330 C   0  0  0  0  0  0  0  0  0  0  0  0
  -21.1100   -6.6690   23.8200 C   0  0  0  0  0  3  0  0  0  0  0  0
  -20.9840   -5.9210   25.0080 C   0  0  0  0  0  3  0  0  0  0  0  0
  -21.2830   -4.5450   25.0110 C   0  0  0  0  0  0  0  0  0  0  0  0
  -21.7100   -3.9160   23.8280 C   0  0  0  0  0  3  0  0  0  0  0  0
  -21.8360   -4.6610   22.6420 C   0  0  0  0  0  0  0  0  0  0  0  0
  -22.2260   -4.0440   21.5000 F   0  0  0  0  0  0  0  0  0  0  0  0
  -21.1560   -3.8250   26.1500 F   0  0  0  0  0  0  0  0  0  0  0  0
  -22.9290  -13.3240   21.2510 C   0  0  0  0  0  0  0  0  0  0  0  0
  -22.3360  -12.6300   22.2160 N   0  0  0  0  0  0  0  0  0  0  0  0
  -22.4460  -14.3770   20.8340 O   0  0  0  0  0  0  0  0  0  0  0  0
  -22.7410  -11.7770   22.5700 H   0  0  0  0  0  0  0  0  0  0  0  0
  -21.4610  -12.9570   22.6030 H   0  0  0  0  0  0  0  0  0  0  0  0
  -25.4690  -14.9270   20.0840 N   0  0  0  0  0  0  0  0  0  0  0  0
  -24.7680  -15.6110   20.3510 H   0  0  0  0  0  0  0  0  0  0  0  0
  -26.2870  -15.3450   19.6560 H   0  0  0  0  0  0  0  0  0  0  0  0
  1 51  1  0
  1 50  1  0
  2  3  1  0
  2  1  1  0
  4  2  1  0
  5  2  1  0
  6  7  1  0
  6  5  1  0
  8 10  1  0
  8  7  1  0
  9 20  2  0
 10 15  1  0
 11 19  1  0
 11 21  1  0
 12 18  1  0
 12 14  1  0
 13 19  1  0
 14 13  1  0
 15 14  2  0
 16 17  1  0
 16 10  2  0
 17 12  2  0
 18 11  1  0
 19  9  1  0
 21 23  2  0
 22 21  1  0
 24 22  1  0
 25 34  2  0
 25 30  1  0
 26 22  1  0
 26 30  1  0
 27 26  1  0
 28 29  1  0
 28 27  1  0
 29 25  1  0
 30 31  2  0
 31 32  1  0
 33 32  2  0
 34 33  1  0
 35  9  1  0
 35 40  1  0
 35 36  1  0
 36 39  1  1
 36 37  1  0
 38 36  1  0
 40 43  1  0
 41 45  1  0
 41 40  1  0
 42 41  2  0
 45 44  1  0
 47 45  1  0
 47 48  1  0
 47 46  1  0
 50 49  1  0
 51 57  1  0
 53 52  2  0
 54 52  1  0
 55 56  2  0
 55 57  1  0
 56 53  1  0
 57 54  2  0
 58 59  1  0
 58 56  1  0
 60 66  1  0
 60 59  1  0
 61 66  1  0
 62 63  1  0
 62 61  1  0
 64 63  1  0
 64 71  1  0
 64 65  1  0
 66 65  1  0
 67 60  2  0
 68 69  2  0
 69 88  1  0
 70 69  1  0
 70 73  1  0
 71 72  1  0
 71 68  1  0
 72 70  2  0
 73 74  1  0
 74 75  2  0
 76 79  1  0
 76 75  1  0
 77 76  2  0
 78 77  1  0
 78 73  2  0
 79 80  1  0
 80 85  2  0
 80 81  1  0
 81 82  2  0
 82 83  1  0
 83 87  1  0
 84 83  2  0
 85 84  1  0
 86 85  1  0
 88 89  1  0
 89 91  1  0
 89 92  1  0
 90 88  2  0
 93 68  1  0
 93 94  1  0
 95 93  1  0
M  ISO  4   7 101   8 101  59 100  60 100
M  END
>  <TORSDO>  (71) 
F 25

>  <SCORE>  (71) 
-9.182

>  <name>  (71) 
70

>  <ligand_id>  (71) 
70

>  <original_smiles>  (71) 
[H]c1c([H])c([H])c2c(c1[H])C([H])([H])C([H])([H])C([H])([H])C2([H])N([H])C(=O)C1([H])N(C(=O)C([H])(N([H])C(=O)C([H])(N([H])C([H])([H])[H])C([H])([H])[H])C(C([H])([H])[H])(C([H])([H])[H])C([H])([H])[H])C([H])([H])c2c([H])c(OC([H])([H])C([H])([H])C([H])([H])[N+]([H])([H])C([H])(C([H])([H])c3c([H])c([H])c([H])c(C([H])([H])C([H])([H])C(=O)N4C([H])([H])C([H])([H])C([H])([H])C([H])(n5nc(-c6c([H])c([H])c(Oc7c([H])c([H])c(F)c([H])c7F)c([H])c6[H])c(C(=O)N([H])[H])c5N([H])[H])C4([H])[H])c3[H])C([H])([H])C([H])([H])[H])c([H])c([H])c2C1([H])[H]

>  <smiles>  (71) 
[H]c1c([H])c([H])c2c(c1[H])C([H])([H])C([H])([H])C([H])([H])C2([H])N([H])C(=O)C1([H])N(C(=O)C([H])(N([H])C(=O)C([H])(N([H])C([H])([H])[H])C([H])([H])[H])C(C([H])([H])[H])(C([H])([H])[H])C([H])([H])[H])C([H])([H])c2c([H])c(OC([H])([H])C([H])([H])C([H])([H])[N+]([H])([H])C([H])(C([H])([H])c3c([H])c([H])c([H])c(C([H])([H])C([H])([H])C(=O)N4C([H])([H])C([H])([H])C([H])([H])C([H])(n5nc(-c6c([H])c([H])c(Oc7c([H])c([H])c(F)c([H])c7F)c([H])c6[H])c(C(=O)N([H])[H])c5N([H])[H])C4([H])[H])c3[H])C([H])([H])C([H])([H])[H])c([H])c([H])c2C1([H])[H]

$$$$
71:0:0
     RDKit          3D

 86 93  0  0  1  0  0  0  0  0999 V2000
  -30.3440  -22.5030   21.0660 C   0  0  0  0  0  1  0  0  0  0  0  0
  -29.1870  -22.2130   20.1010 C   0  0  0  0  0  0  0  0  0  0  0  0
  -29.7770  -19.1160   19.9460 C   0  0  0  0  0  0  0  0  0  0  0  0
  -28.9980  -20.4450   20.1830 N   0  0  0  0  0  4  0  0  0  0  0  0
  -30.8940  -19.3140   19.4700 O   0  0  0  0  0  0  0  0  0  0  0  0
  -28.0710  -20.2250   20.5260 H   0  0  0  0  0  0  0  0  0  0  0  0
  -29.1150  -17.2430   21.7130 C   0  0  0  0  0  1  0  0  0  0  0  0
  -29.4630  -17.3000   20.2170 C   0  0  0  0  0  3  0  0  0  0  0  0
  -30.3230  -15.6750   19.8280 C   0  0  0  0  0  0  0  0  0  0  0  0
  -30.3710  -13.1620   18.8920 C   0  0  0  0  0  2  0  0  0  0  0  0
  -29.3560  -12.8510   17.7500 C   0  0  0  0  0  2  0  0  0  0  0  0
  -27.9680  -12.4940   18.3090 C   0  0  0  0  0  2  0  0  0  0  0  0
  -27.5820  -13.4270   19.4780 C   0  0  0  0  0  3  0  0  0  0  0  0
  -28.7220  -13.6320   20.4970 C   0  0  0  0  0  2  0  0  0  0  0  0
  -29.8460  -14.2880   19.7880 N   0  0  0  0  0  0  0  0  0  0  0  0
  -31.5130  -15.6500   19.4610 O   0  0  0  0  0  0  0  0  0  0  0  0
  -25.3140  -13.9220   20.5150 C   0  0  0  0  0  0  0  0  0  0  0  0
  -24.2920  -13.1260   20.9450 C   0  0  0  0  0  0  0  0  0  0  0  0
  -24.7460  -11.7800   20.7900 C   0  0  0  0  0  0  0  0  0  0  0  0
  -26.3190  -13.0650   20.1090 N   0  0  0  0  0  0  0  0  0  0  0  0
  -25.9990  -11.7630   20.3410 N   0  0  0  0  0  0  0  0  0  0  0  0
  -24.0310  -10.5100   20.9820 C   0  0  0  0  0  0  0  0  0  0  0  0
  -24.4910   -9.5280   21.8880 C   0  0  0  0  0  3  0  0  0  0  0  0
  -23.7700   -8.3290   22.0710 C   0  0  0  0  0  3  0  0  0  0  0  0
  -22.5740   -8.1020   21.3500 C   0  0  0  0  0  0  0  0  0  0  0  0
  -22.1330   -9.0720   20.4330 C   0  0  0  0  0  3  0  0  0  0  0  0
  -22.8540  -10.2630   20.2470 C   0  0  0  0  0  3  0  0  0  0  0  0
  -21.8230   -6.9550   21.4440 O   0  0  0  0  0  0  0  0  0  0  0  0
  -21.7470   -6.2360   22.6090 C   0  0  0  0  0  0  0  0  0  0  0  0
  -21.2820   -6.8130   23.8120 C   0  0  0  0  0  3  0  0  0  0  0  0
  -21.1530   -6.0200   24.9700 C   0  0  0  0  0  3  0  0  0  0  0  0
  -21.4810   -4.6510   24.9270 C   0  0  0  0  0  0  0  0  0  0  0  0
  -21.9380   -4.0740   23.7300 C   0  0  0  0  0  3  0  0  0  0  0  0
  -22.0680   -4.8640   22.5750 C   0  0  0  0  0  0  0  0  0  0  0  0
  -22.4900   -4.2970   21.4180 F   0  0  0  0  0  0  0  0  0  0  0  0
  -21.3490   -3.8890   26.0370 F   0  0  0  0  0  0  0  0  0  0  0  0
  -22.9320  -13.5900   21.3780 C   0  0  0  0  0  0  0  0  0  0  0  0
  -22.2990  -12.8670   22.2940 N   0  0  0  0  0  0  0  0  0  0  0  0
  -22.4440  -14.6300   20.9370 O   0  0  0  0  0  0  0  0  0  0  0  0
  -22.7100  -12.0260   22.6710 H   0  0  0  0  0  0  0  0  0  0  0  0
  -21.3910  -13.1600   22.6250 H   0  0  0  0  0  0  0  0  0  0  0  0
  -25.4660  -15.3030   20.4050 N   0  0  0  0  0  0  0  0  0  0  0  0
  -24.7170  -15.9430   20.6480 H   0  0  0  0  0  0  0  0  0  0  0  0
  -26.2770  -15.7680   20.0210 H   0  0  0  0  0  0  0  0  0  0  0  0
  -28.1140  -23.8270   20.1810 C   0  0  0  0  0  2  0  0  0  0  0  0
  -28.2680  -25.5810   20.1700 O   0  0  0  0  0  0  0  0  0  0  0  0
  -24.7100  -31.8330   23.1070 C   0  0  0  0  0  0  0  0  0  0  0  0
  -27.2690  -26.7680   20.1370 C   0  0  0  0  0  0  0  0  0  0  0  0
  -23.5290  -30.4240   21.4760 C   0  0  0  0  0  3  0  0  0  0  0  0
  -24.9830  -28.7770   20.0730 C   0  0  0  0  0  0  0  0  0  0  0  0
  -26.1050  -30.5830   21.3520 C   0  0  0  0  0  2  0  0  0  0  0  0
  -26.1770  -29.1480   20.7020 C   0  0  0  0  0  0  0  0  0  0  0  0
  -27.3050  -28.1720   20.6990 C   0  0  0  0  0  3  0  0  0  0  0  0
  -26.0370  -26.6020   19.4550 C   0  0  0  0  0  3  0  0  0  0  0  0
  -24.9510  -27.5300   19.4250 C   0  0  0  0  0  3  0  0  0  0  0  0
  -23.7720  -29.7230   20.1080 C   0  0  0  0  0  2  0  0  0  0  0  0
  -24.8050  -30.9790   22.0310 N   0  0  0  0  0  0  0  0  0  0  0  0
  -23.6150  -32.1300   23.6170 O   0  0  0  0  0  0  0  0  0  0  0  0
  -22.8150  -29.4480   22.4500 C   0  0  0  0  0  0  0  0  0  0  0  0
  -21.4820  -29.3010   22.3360 N   0  0  0  0  0  0  0  0  0  0  0  0
  -23.4740  -28.8180   23.2800 O   0  0  0  0  0  0  0  0  0  0  0  0
  -20.9990  -29.8600   21.6470 H   0  0  0  0  0  0  0  0  0  0  0  0
  -18.0870  -28.1330   22.9000 C   0  0  0  0  0  0  0  0  0  0  0  0
  -20.6550  -28.3690   23.1130 C   0  0  0  0  0  3  0  0  0  0  0  0
  -20.7270  -26.9410   22.5230 C   0  0  0  0  0  2  0  0  0  0  0  0
  -19.6020  -26.6430   21.5270 C   0  0  0  0  0  2  0  0  0  0  0  0
  -18.2350  -26.7930   22.1990 C   0  0  0  0  0  2  0  0  0  0  0  0
  -19.2220  -28.8800   23.3150 C   0  0  0  0  0  0  0  0  0  0  0  0
  -19.0260  -30.1310   23.9370 C   0  0  0  0  0  3  0  0  0  0  0  0
  -17.7280  -30.6380   24.1460 C   0  0  0  0  0  3  0  0  0  0  0  0
  -16.6090  -29.8900   23.7420 C   0  0  0  0  0  3  0  0  0  0  0  0
  -16.7890  -28.6390   23.1260 C   0  0  0  0  0  3  0  0  0  0  0  0
  -25.9690  -32.4900   23.7480 C   0  0  0  0  0  3  0  0  0  0  0  0
  -26.4790  -31.7240   25.0320 C   0  0  1  0  0  0  0  0  0  0  0  0
  -25.3800  -31.4840   26.0950 C   0  0  0  0  0  1  0  0  0  0  0  0
  -27.0720  -30.3470   24.6590 C   0  0  0  0  0  1  0  0  0  0  0  0
  -27.6230  -32.5240   25.6990 C   0  0  0  0  0  1  0  0  0  0  0  0
  -25.6360  -33.8860   24.0980 N   0  0  0  0  0  0  0  0  0  0  0  0
  -25.9360  -34.9610   23.3560 C   0  0  0  0  0  0  0  0  0  0  0  0
  -26.5810  -34.8830   22.3070 O   0  0  0  0  0  0  0  0  0  0  0  0
  -25.0570  -34.0170   24.9140 H   0  0  0  0  0  0  0  0  0  0  0  0
  -24.1690  -36.7390   23.0990 C   0  0  0  0  0  1  0  0  0  0  0  0
  -25.4490  -36.3390   23.8520 C   0  0  0  0  0  3  0  0  0  0  0  0
  -27.6000  -37.2590   24.6080 C   0  0  0  0  0  1  0  0  0  0  0  0
  -26.4600  -37.4110   23.7060 N   0  0  0  0  0  0  0  0  0  0  0  0
  -26.0460  -38.3240   23.8710 H   0  0  0  0  0  0  0  0  0  0  0  0
  2 45  1  0
  2  4  2  0
  2  1  1  0
  3  4  1  0
  3  8  1  0
  4  6  1  0
  5  3  2  0
  8  7  1  0
  9  8  1  0
 10 15  1  0
 11 12  1  0
 11 10  1  0
 13 12  1  0
 13 20  1  0
 13 14  1  0
 15  9  1  0
 15 14  1  0
 16  9  2  0
 17 18  2  0
 18 37  1  0
 19 18  1  0
 19 22  1  0
 20 21  1  0
 20 17  1  0
 21 19  2  0
 22 23  1  0
 23 24  2  0
 25 28  1  0
 25 24  1  0
 26 25  2  0
 27 26  1  0
 27 22  2  0
 28 29  1  0
 29 30  1  0
 30 31  2  0
 32 31  1  0
 32 36  1  0
 33 32  2  0
 34 29  2  0
 34 33  1  0
 35 34  1  0
 37 38  1  0
 38 41  1  0
 38 40  1  0
 39 37  2  0
 42 17  1  0
 42 43  1  0
 44 42  1  0
 46 45  1  0
 47 58  2  0
 48 46  1  0
 48 53  1  0
 49 57  1  0
 49 59  1  0
 50 56  1  0
 50 52  1  0
 51 57  1  0
 52 51  1  0
 53 52  2  0
 54 48  2  0
 55 54  1  0
 55 50  2  0
 56 49  1  0
 57 47  1  0
 59 61  2  0
 60 59  1  0
 62 60  1  0
 63 72  2  0
 63 68  1  0
 64 60  1  0
 64 68  1  0
 65 64  1  0
 66 67  1  0
 66 65  1  0
 67 63  1  0
 68 69  2  0
 69 70  1  0
 71 70  2  0
 72 71  1  0
 73 47  1  0
 73 78  1  0
 73 74  1  0
 74 77  1  1
 74 75  1  0
 76 74  1  0
 78 81  1  0
 79 83  1  0
 79 78  1  0
 80 79  2  0
 83 82  1  0
 85 83  1  0
 85 86  1  0
 85 84  1  0
M  ISO  4   8 100   9 100  45 101  46 101
M  END
>  <TORSDO>  (72) 
F 19

>  <SCORE>  (72) 
-15.400

>  <name>  (72) 
71

>  <ligand_id>  (72) 
71

>  <original_smiles>  (72) 
[H]c1c([H])c([H])c2c(c1[H])C([H])([H])C([H])([H])C([H])([H])C2([H])N([H])C(=O)C1([H])N(C(=O)C([H])(N([H])C(=O)C([H])(N([H])C([H])([H])[H])C([H])([H])[H])C(C([H])([H])[H])(C([H])([H])[H])C([H])([H])[H])C([H])([H])c2c([H])c(OC([H])([H])C([H])(N([H])C(=O)C([H])(C(=O)N3C([H])([H])C([H])([H])C([H])([H])C([H])(n4nc(-c5c([H])c([H])c(Oc6c([H])c([H])c(F)c([H])c6F)c([H])c5[H])c(C(=O)N([H])[H])c4N([H])[H])C3([H])[H])C([H])([H])[H])C([H])([H])[H])c([H])c([H])c2C1([H])[H]

>  <smiles>  (72) 
[H]c1c([H])c([H])c2c(c1[H])C([H])([H])C([H])([H])C([H])([H])C2([H])N([H])C(=O)C1([H])N(C(=O)C([H])(N([H])C(=O)C([H])(N([H])C([H])([H])[H])C([H])([H])[H])C(C([H])([H])[H])(C([H])([H])[H])C([H])([H])[H])C([H])([H])c2c([H])c(OC([H])([H])C([H])(N([H])C(=O)C([H])(C(=O)N3C([H])([H])C([H])([H])C([H])([H])C([H])(n4nc(-c5c([H])c([H])c(Oc6c([H])c([H])c(F)c([H])c6F)c([H])c5[H])c(C(=O)N([H])[H])c4N([H])[H])C3([H])[H])C([H])([H])[H])C([H])([H])[H])c([H])c([H])c2C1([H])[H]

$$$$
72:0:0
     RDKit          3D

 89 96  0  0  1  0  0  0  0  0999 V2000
  -29.6240  -20.7330   20.4880 N   0  0  0  0  0  4  0  0  0  0  0  0
  -29.7830  -20.7360   21.4820 H   0  0  0  0  0  0  0  0  0  0  0  0
  -30.5190  -20.9190   20.0600 H   0  0  0  0  0  0  0  0  0  0  0  0
  -27.7330  -19.0710   20.4210 C   0  0  0  0  0  1  0  0  0  0  0  0
  -29.2250  -19.2690   20.0720 C   0  0  0  0  0  3  0  0  0  0  0  0
  -30.0730  -17.8980   20.5540 C   0  0  0  0  0  2  0  0  0  0  0  0
  -31.1460  -16.8970   18.5030 C   0  0  0  0  0  1  0  0  0  0  0  0
  -28.8220  -16.3340   18.9140 C   0  0  0  0  0  1  0  0  0  0  0  0
  -30.1560  -16.4970   19.6350 C   0  0  2  0  0  0  0  0  0  0  0  0
  -30.7280  -14.9980   20.1390 C   0  0  0  0  0  0  0  0  0  0  0  0
  -30.5010  -12.6350   19.2940 C   0  0  0  0  0  2  0  0  0  0  0  0
  -29.5640  -12.5580   18.0690 C   0  0  0  0  0  2  0  0  0  0  0  0
  -28.1080  -12.3320   18.5190 C   0  0  0  0  0  2  0  0  0  0  0  0
  -27.6890  -13.2850   19.6620 C   0  0  0  0  0  3  0  0  0  0  0  0
  -28.7640  -13.4280   20.7650 C   0  0  0  0  0  2  0  0  0  0  0  0
  -30.0460  -13.7790   20.1300 N   0  0  0  0  0  0  0  0  0  0  0  0
  -31.9570  -14.9040   20.1520 O   0  0  0  0  0  0  0  0  0  0  0  0
  -25.3280  -13.9140   20.4110 C   0  0  0  0  0  0  0  0  0  0  0  0
  -24.2570  -13.1530   20.7850 C   0  0  0  0  0  0  0  0  0  0  0  0
  -24.7160  -11.7990   20.7760 C   0  0  0  0  0  0  0  0  0  0  0  0
  -26.3630  -13.0180   20.1860 N   0  0  0  0  0  0  0  0  0  0  0  0
  -26.0060  -11.7460   20.4760 N   0  0  0  0  0  0  0  0  0  0  0  0
  -23.9870  -10.5460   20.9730 C   0  0  0  0  0  0  0  0  0  0  0  0
  -24.4150   -9.5900   21.9190 C   0  0  0  0  0  3  0  0  0  0  0  0
  -23.6860   -8.3960   22.1070 C   0  0  0  0  0  3  0  0  0  0  0  0
  -22.5170   -8.1530   21.3470 C   0  0  0  0  0  0  0  0  0  0  0  0
  -22.1100   -9.0990   20.3890 C   0  0  0  0  0  3  0  0  0  0  0  0
  -22.8390  -10.2830   20.2000 C   0  0  0  0  0  3  0  0  0  0  0  0
  -21.7590   -7.0130   21.4450 O   0  0  0  0  0  0  0  0  0  0  0  0
  -21.7020   -6.2870   22.6060 C   0  0  0  0  0  0  0  0  0  0  0  0
  -21.2650   -6.8570   23.8220 C   0  0  0  0  0  3  0  0  0  0  0  0
  -21.1560   -6.0550   24.9750 C   0  0  0  0  0  3  0  0  0  0  0  0
  -21.4720   -4.6840   24.9140 C   0  0  0  0  0  0  0  0  0  0  0  0
  -21.9020   -4.1150   23.7020 C   0  0  0  0  0  3  0  0  0  0  0  0
  -22.0140   -4.9150   22.5520 C   0  0  0  0  0  0  0  0  0  0  0  0
  -22.4090   -4.3560   21.3810 F   0  0  0  0  0  0  0  0  0  0  0  0
  -21.3590   -3.9110   26.0200 F   0  0  0  0  0  0  0  0  0  0  0  0
  -22.8610  -13.6410   21.0370 C   0  0  0  0  0  0  0  0  0  0  0  0
  -22.1250  -12.9610   21.9090 N   0  0  0  0  0  0  0  0  0  0  0  0
  -22.4300  -14.6590   20.4980 O   0  0  0  0  0  0  0  0  0  0  0  0
  -22.4870  -12.1370   22.3660 H   0  0  0  0  0  0  0  0  0  0  0  0
  -21.1870  -13.2690   22.1230 H   0  0  0  0  0  0  0  0  0  0  0  0
  -25.4940  -15.2820   20.2120 N   0  0  0  0  0  0  0  0  0  0  0  0
  -24.7270  -15.9360   20.3100 H   0  0  0  0  0  0  0  0  0  0  0  0
  -26.3400  -15.7140   19.8650 H   0  0  0  0  0  0  0  0  0  0  0  0
  -28.6890  -21.9570   20.1600 C   0  0  0  0  0  2  0  0  0  0  0  0
  -29.0830  -23.5450   20.4590 C   0  0  0  0  0  3  0  0  0  0  0  0
  -28.0420  -24.7940   20.1210 C   0  0  0  0  0  3  0  0  0  0  0  0
  -28.2880  -26.2940   20.3300 O   0  0  0  0  0  0  0  0  0  0  0  0
  -24.6040  -31.8990   23.2740 C   0  0  0  0  0  0  0  0  0  0  0  0
  -27.2070  -27.2310   20.2550 C   0  0  0  0  0  0  0  0  0  0  0  0
  -23.4060  -30.4980   21.6360 C   0  0  0  0  0  3  0  0  0  0  0  0
  -24.8600  -28.9280   20.2180 C   0  0  0  0  0  0  0  0  0  0  0  0
  -25.9560  -30.7830   21.4690 C   0  0  0  0  0  2  0  0  0  0  0  0
  -26.0350  -29.3940   20.8230 C   0  0  0  0  0  0  0  0  0  0  0  0
  -27.2100  -28.5610   20.8230 C   0  0  0  0  0  3  0  0  0  0  0  0
  -26.0040  -26.8520   19.6160 C   0  0  0  0  0  3  0  0  0  0  0  0
  -24.8530  -27.6690   19.6020 C   0  0  0  0  0  3  0  0  0  0  0  0
  -23.6280  -29.8170   20.2590 C   0  0  0  0  0  2  0  0  0  0  0  0
  -24.6750  -31.0790   22.1810 N   0  0  0  0  0  0  0  0  0  0  0  0
  -23.5190  -32.1830   23.8010 O   0  0  0  0  0  0  0  0  0  0  0  0
  -22.7290  -29.4910   22.5990 C   0  0  0  0  0  0  0  0  0  0  0  0
  -21.4030  -29.3110   22.4620 N   0  0  0  0  0  0  0  0  0  0  0  0
  -23.3980  -28.8730   23.4310 O   0  0  0  0  0  0  0  0  0  0  0  0
  -20.9200  -29.8610   21.7650 H   0  0  0  0  0  0  0  0  0  0  0  0
  -18.0250  -28.0990   22.9400 C   0  0  0  0  0  0  0  0  0  0  0  0
  -20.5790  -28.3780   23.2350 C   0  0  0  0  0  3  0  0  0  0  0  0
  -20.6960  -26.9410   22.6770 C   0  0  0  0  0  2  0  0  0  0  0  0
  -19.6070  -26.6000   21.6540 C   0  0  0  0  0  2  0  0  0  0  0  0
  -18.2170  -26.7440   22.2800 C   0  0  0  0  0  2  0  0  0  0  0  0
  -19.1330  -28.8730   23.3740 C   0  0  0  0  0  0  0  0  0  0  0  0
  -18.8990  -30.1400   23.9520 C   0  0  0  0  0  3  0  0  0  0  0  0
  -17.5900  -30.6330   24.1000 C   0  0  0  0  0  3  0  0  0  0  0  0
  -16.4950  -29.8560   23.6820 C   0  0  0  0  0  3  0  0  0  0  0  0
  -16.7130  -28.5910   23.1080 C   0  0  0  0  0  3  0  0  0  0  0  0
  -25.8840  -32.5330   23.9000 C   0  0  0  0  0  3  0  0  0  0  0  0
  -25.5790  -33.9390   24.2110 N   0  0  0  0  0  0  0  0  0  0  0  0
  -25.9210  -34.9810   23.4430 C   0  0  0  0  0  0  0  0  0  0  0  0
  -26.5920  -34.8620   22.4160 O   0  0  0  0  0  0  0  0  0  0  0  0
  -24.9850  -34.1060   25.0110 H   0  0  0  0  0  0  0  0  0  0  0  0
  -24.2080  -36.7850   23.0590 C   0  0  0  0  0  1  0  0  0  0  0  0
  -25.4410  -36.3790   23.8830 C   0  0  0  0  0  3  0  0  0  0  0  0
  -27.5770  -37.2580   24.7200 C   0  0  0  0  0  1  0  0  0  0  0  0
  -26.4830  -37.4230   23.7650 N   0  0  0  0  0  0  0  0  0  0  0  0
  -26.0830  -38.3480   23.9000 H   0  0  0  0  0  0  0  0  0  0  0  0
  -26.3820  -31.7770   25.1930 C   0  0  1  0  0  0  0  0  0  0  0  0
  -25.2770  -31.5630   26.2540 C   0  0  0  0  0  1  0  0  0  0  0  0
  -26.9580  -30.3890   24.8300 C   0  0  0  0  0  1  0  0  0  0  0  0
  -27.5320  -32.5720   25.8520 C   0  0  0  0  0  1  0  0  0  0  0  0
  1  2  1  0
  3  1  1  0
  5  4  1  0
  5  1  1  0
  5  6  1  0
  9  7  1  6
  8  9  1  0
  9 10  1  0
  9  6  1  0
 10 17  2  0
 11 16  1  0
 12 13  1  0
 12 11  1  0
 14 13  1  0
 14 21  1  0
 14 15  1  0
 16 10  1  0
 16 15  1  0
 18 19  2  0
 19 38  1  0
 20 19  1  0
 20 23  1  0
 21 18  1  0
 21 22  1  0
 22 20  2  0
 23 24  1  0
 24 25  2  0
 26 29  1  0
 26 25  1  0
 27 26  2  0
 28 27  1  0
 28 23  2  0
 29 30  1  0
 30 31  1  0
 31 32  2  0
 33 32  1  0
 33 37  1  0
 34 33  2  0
 35 30  2  0
 35 34  1  0
 36 35  1  0
 38 39  1  0
 39 42  1  0
 39 41  1  0
 40 38  2  0
 43 44  1  0
 43 18  1  0
 45 43  1  0
 46 47  1  0
 46  1  1  0
 48 49  1  0
 48 47  2  0
 50 61  2  0
 51 49  1  0
 51 56  1  0
 52 60  1  0
 52 62  1  0
 53 59  1  0
 53 55  1  0
 54 60  1  0
 55 56  2  0
 55 54  1  0
 57 51  2  0
 58 57  1  0
 58 53  2  0
 59 52  1  0
 60 50  1  0
 62 64  2  0
 63 62  1  0
 65 63  1  0
 66 75  2  0
 66 71  1  0
 67 63  1  0
 67 71  1  0
 68 67  1  0
 69 70  1  0
 69 68  1  0
 70 66  1  0
 71 72  2  0
 72 73  1  0
 74 73  2  0
 75 74  1  0
 76 50  1  0
 76 77  1  0
 76 86  1  0
 77 80  1  0
 78 82  1  0
 78 77  1  0
 79 78  2  0
 82 81  1  0
 84 82  1  0
 84 85  1  0
 84 83  1  0
 86 89  1  1
 86 87  1  0
 88 86  1  0
M  ISO  4   9 100  10 100  48 101  49 101
M  END
>  <TORSDO>  (73) 
F 22

>  <SCORE>  (73) 
-12.819

>  <name>  (73) 
72

>  <ligand_id>  (73) 
72

>  <original_smiles>  (73) 
[H]c1c([H])c([H])c2c(c1[H])C([H])([H])C([H])([H])C([H])([H])C2([H])N([H])C(=O)C1([H])N(C(=O)C([H])(N([H])C(=O)C([H])(N([H])C([H])([H])[H])C([H])([H])[H])C(C([H])([H])[H])(C([H])([H])[H])C([H])([H])[H])C([H])([H])c2c([H])c(OC([H])([H])C([H])([H])C([H])([H])[N+]([H])([H])C([H])(C([H])([H])[H])C([H])([H])C(C(=O)N3C([H])([H])C([H])([H])C([H])([H])C([H])(n4nc(-c5c([H])c([H])c(Oc6c([H])c([H])c(F)c([H])c6F)c([H])c5[H])c(C(=O)N([H])[H])c4N([H])[H])C3([H])[H])(C([H])([H])[H])C([H])([H])[H])c([H])c([H])c2C1([H])[H]

>  <smiles>  (73) 
[H]c1c([H])c([H])c2c(c1[H])C([H])([H])C([H])([H])C([H])([H])C2([H])N([H])C(=O)C1([H])N(C(=O)C([H])(N([H])C(=O)C([H])(N([H])C([H])([H])[H])C([H])([H])[H])C(C([H])([H])[H])(C([H])([H])[H])C([H])([H])[H])C([H])([H])c2c([H])c(OC([H])([H])C([H])([H])C([H])([H])[N+]([H])([H])C([H])(C([H])([H])[H])C([H])([H])C(C(=O)N3C([H])([H])C([H])([H])C([H])([H])C([H])(n4nc(-c5c([H])c([H])c(Oc6c([H])c([H])c(F)c([H])c6F)c([H])c5[H])c(C(=O)N([H])[H])c4N([H])[H])C3([H])[H])(C([H])([H])[H])C([H])([H])[H])c([H])c([H])c2C1([H])[H]

$$$$
73:0:0
     RDKit          3D

 93101  0  0  1  0  0  0  0  0999 V2000
  -29.2250  -21.2690   19.2770 N   0  0  0  0  0  4  0  0  0  0  0  0
  -29.6290  -21.5470   18.3970 H   0  0  0  0  0  0  0  0  0  0  0  0
  -28.3410  -20.8340   19.0650 H   0  0  0  0  0  0  0  0  0  0  0  0
  -31.5780  -20.7920   20.0050 C   0  0  0  0  0  1  0  0  0  0  0  0
  -30.1470  -20.2220   19.9130 C   0  0  0  0  0  3  0  0  0  0  0  0
  -30.2170  -18.6850   19.3550 C   0  0  0  0  0  2  0  0  0  0  0  0
  -31.1200  -15.2800   21.5590 C   0  0  0  0  0  2  0  0  0  0  0  0
  -30.5770  -15.8660   22.8520 C   0  0  0  0  0  2  0  0  0  0  0  0
  -30.6520  -18.1080   21.7510 C   0  0  0  0  0  2  0  0  0  0  0  0
  -30.5250  -15.9470   20.2810 C   0  0  0  0  0  3  0  0  0  0  0  0
  -31.0850  -17.2900   22.9710 C   0  0  0  0  0  3  0  0  0  0  0  0
  -30.9030  -17.5500   20.3070 C   0  0  0  0  0  3  0  0  0  0  0  0
  -30.5900  -17.9460   24.2700 C   0  0  0  0  0  1  0  0  0  0  0  0
  -30.9510  -14.8840   19.1650 C   0  0  0  0  0  0  0  0  0  0  0  0
  -30.5240  -12.6790   18.0150 C   0  0  0  0  0  2  0  0  0  0  0  0
  -29.3270  -12.7810   17.0430 C   0  0  0  0  0  2  0  0  0  0  0  0
  -27.9860  -12.5840   17.7820 C   0  0  0  0  0  2  0  0  0  0  0  0
  -27.8970  -13.4340   19.0770 C   0  0  0  0  0  3  0  0  0  0  0  0
  -29.1670  -13.2480   19.9260 C   0  0  0  0  0  2  0  0  0  0  0  0
  -30.3170  -13.6610   19.1020 N   0  0  0  0  0  0  0  0  0  0  0  0
  -31.8900  -15.1350   18.4030 O   0  0  0  0  0  0  0  0  0  0  0  0
  -25.8170  -14.0270   20.4650 C   0  0  0  0  0  0  0  0  0  0  0  0
  -24.8070  -13.2590   20.9760 C   0  0  0  0  0  0  0  0  0  0  0  0
  -25.1250  -11.9100   20.6300 C   0  0  0  0  0  0  0  0  0  0  0  0
  -26.6880  -13.1470   19.8430 N   0  0  0  0  0  0  0  0  0  0  0  0
  -26.2910  -11.8570   19.9970 N   0  0  0  0  0  0  0  0  0  0  0  0
  -24.3580  -10.6720   20.8110 C   0  0  0  0  0  0  0  0  0  0  0  0
  -24.8190   -9.6350   21.6520 C   0  0  0  0  0  3  0  0  0  0  0  0
  -24.0550   -8.4600   21.8240 C   0  0  0  0  0  3  0  0  0  0  0  0
  -22.8150   -8.3160   21.1580 C   0  0  0  0  0  0  0  0  0  0  0  0
  -22.3710   -9.3410   20.3050 C   0  0  0  0  0  3  0  0  0  0  0  0
  -23.1360  -10.5080   20.1300 C   0  0  0  0  0  3  0  0  0  0  0  0
  -22.0180   -7.2010   21.2460 O   0  0  0  0  0  0  0  0  0  0  0  0
  -21.8440   -6.5310   22.4300 C   0  0  0  0  0  0  0  0  0  0  0  0
  -21.3600   -7.1780   23.5880 C   0  0  0  0  0  3  0  0  0  0  0  0
  -21.1300   -6.4370   24.7640 C   0  0  0  0  0  3  0  0  0  0  0  0
  -21.3740   -5.0510   24.7840 C   0  0  0  0  0  0  0  0  0  0  0  0
  -21.8500   -4.4040   23.6290 C   0  0  0  0  0  3  0  0  0  0  0  0
  -22.0820   -5.1410   22.4560 C   0  0  0  0  0  0  0  0  0  0  0  0
  -22.5210   -4.5090   21.3410 F   0  0  0  0  0  0  0  0  0  0  0  0
  -21.1450   -4.3370   25.9110 F   0  0  0  0  0  0  0  0  0  0  0  0
  -23.5680  -13.7530   21.6630 C   0  0  0  0  0  0  0  0  0  0  0  0
  -23.0640  -13.0030   22.6360 N   0  0  0  0  0  0  0  0  0  0  0  0
  -23.0630  -14.8370   21.3690 O   0  0  0  0  0  0  0  0  0  0  0  0
  -23.4870  -12.1230   22.8910 H   0  0  0  0  0  0  0  0  0  0  0  0
  -22.2410  -13.3120   23.1330 H   0  0  0  0  0  0  0  0  0  0  0  0
  -26.0560  -15.3980   20.4570 N   0  0  0  0  0  0  0  0  0  0  0  0
  -25.4030  -16.0600   20.8630 H   0  0  0  0  0  0  0  0  0  0  0  0
  -26.8390  -15.8480   19.9970 H   0  0  0  0  0  0  0  0  0  0  0  0
  -28.9160  -22.5250   20.1110 C   0  0  0  0  0  3  0  0  0  0  0  0
  -28.6110  -23.9370   19.3990 C   0  0  0  0  0  3  0  0  0  0  0  0
  -28.1260  -25.1510   20.3380 C   0  0  0  0  0  2  0  0  0  0  0  0
  -28.2660  -26.5730   19.9250 O   0  0  0  0  0  0  0  0  0  0  0  0
  -24.4750  -31.8650   23.1000 C   0  0  0  0  0  0  0  0  0  0  0  0
  -27.1310  -27.3980   19.9530 C   0  0  0  0  0  0  0  0  0  0  0  0
  -23.2800  -30.4820   21.4380 C   0  0  0  0  0  3  0  0  0  0  0  0
  -24.7430  -28.9730   19.9800 C   0  0  0  0  0  0  0  0  0  0  0  0
  -25.8130  -30.8390   21.2460 C   0  0  0  0  0  2  0  0  0  0  0  0
  -25.9080  -29.4720   20.5760 C   0  0  0  0  0  0  0  0  0  0  0  0
  -27.1070  -28.6980   20.5470 C   0  0  0  0  0  3  0  0  0  0  0  0
  -25.9440  -26.9440   19.3440 C   0  0  0  0  0  3  0  0  0  0  0  0
  -24.7630  -27.7150   19.3530 C   0  0  0  0  0  3  0  0  0  0  0  0
  -23.4950  -29.8300   20.0460 C   0  0  0  0  0  2  0  0  0  0  0  0
  -24.5410  -31.0800   21.9850 N   0  0  0  0  0  0  0  0  0  0  0  0
  -23.3910  -32.1180   23.6450 O   0  0  0  0  0  0  0  0  0  0  0  0
  -22.6340  -29.4430   22.3840 C   0  0  0  0  0  0  0  0  0  0  0  0
  -21.3070  -29.2610   22.2680 N   0  0  0  0  0  0  0  0  0  0  0  0
  -23.3250  -28.8020   23.1800 O   0  0  0  0  0  0  0  0  0  0  0  0
  -20.8070  -29.8300   21.6000 H   0  0  0  0  0  0  0  0  0  0  0  0
  -17.9370  -28.0660   22.8100 C   0  0  0  0  0  0  0  0  0  0  0  0
  -20.5030  -28.3010   23.0270 C   0  0  0  0  0  3  0  0  0  0  0  0
  -20.5810  -26.8890   22.4010 C   0  0  0  0  0  2  0  0  0  0  0  0
  -19.4540  -26.6080   21.4030 C   0  0  0  0  0  2  0  0  0  0  0  0
  -18.0890  -26.7400   22.0840 C   0  0  0  0  0  2  0  0  0  0  0  0
  -19.0700  -28.8060   23.2390 C   0  0  0  0  0  0  0  0  0  0  0  0
  -18.8740  -30.0500   23.8770 C   0  0  0  0  0  3  0  0  0  0  0  0
  -17.5770  -30.5520   24.0930 C   0  0  0  0  0  3  0  0  0  0  0  0
  -16.4580  -29.8070   23.6800 C   0  0  0  0  0  3  0  0  0  0  0  0
  -16.6390  -28.5660   23.0450 C   0  0  0  0  0  3  0  0  0  0  0  0
  -25.7530  -32.5020   23.7270 C   0  0  0  0  0  3  0  0  0  0  0  0
  -25.4250  -33.8840   24.1040 N   0  0  0  0  0  0  0  0  0  0  0  0
  -25.7400  -34.9660   23.3790 C   0  0  0  0  0  0  0  0  0  0  0  0
  -26.4090  -34.9060   22.3430 O   0  0  0  0  0  0  0  0  0  0  0  0
  -24.8310  -34.0030   24.9120 H   0  0  0  0  0  0  0  0  0  0  0  0
  -23.9990  -36.7550   23.0720 C   0  0  0  0  0  1  0  0  0  0  0  0
  -25.2340  -36.3320   23.8830 C   0  0  0  0  0  3  0  0  0  0  0  0
  -27.3450  -37.2090   24.7780 C   0  0  0  0  0  1  0  0  0  0  0  0
  -26.2580  -37.3970   23.8220 N   0  0  0  0  0  0  0  0  0  0  0  0
  -25.8420  -38.3090   23.9920 H   0  0  0  0  0  0  0  0  0  0  0  0
  -26.2970  -31.7020   24.9750 C   0  0  1  0  0  0  0  0  0  0  0  0
  -25.2120  -31.3860   26.0310 C   0  0  0  0  0  1  0  0  0  0  0  0
  -26.9280  -30.3620   24.5330 C   0  0  0  0  0  1  0  0  0  0  0  0
  -27.4190  -32.5100   25.6680 C   0  0  0  0  0  1  0  0  0  0  0  0
  1  5  1  0
  1 50  1  0
  2  1  1  0
  3  1  1  0
  5  4  1  0
  6  5  1  0
  7  8  1  0
  8 11  1  0
  9 11  1  0
 10 14  1  0
 10 12  1  0
 10  7  1  0
 11 13  1  0
 12  6  1  0
 12  9  1  0
 15 20  1  0
 16 17  1  0
 16 15  1  0
 18 17  1  0
 18 25  1  0
 18 19  1  0
 20 14  1  0
 20 19  1  0
 21 14  2  0
 22 23  2  0
 23 42  1  0
 24 27  1  0
 24 23  1  0
 25 26  1  0
 25 22  1  0
 26 24  2  0
 27 28  1  0
 28 29  2  0
 30 33  1  0
 30 29  1  0
 31 30  2  0
 32 31  1  0
 32 27  2  0
 33 34  1  0
 34 39  2  0
 34 35  1  0
 35 36  2  0
 36 37  1  0
 37 41  1  0
 38 37  2  0
 39 38  1  0
 40 39  1  0
 42 43  1  0
 43 45  1  0
 43 46  1  0
 44 42  2  0
 47 22  1  0
 47 48  1  0
 49 47  1  0
 51 50  2  0
 51 52  1  0
 53 55  1  0
 53 52  1  0
 54 65  2  0
 55 60  1  0
 56 64  1  0
 56 66  1  0
 57 63  1  0
 57 59  1  0
 58 64  1  0
 59 58  1  0
 60 59  2  0
 61 62  1  0
 61 55  2  0
 62 57  2  0
 63 56  1  0
 64 54  1  0
 66 68  2  0
 67 66  1  0
 69 67  1  0
 70 79  2  0
 70 75  1  0
 71 67  1  0
 71 75  1  0
 72 71  1  0
 73 74  1  0
 73 72  1  0
 74 70  1  0
 75 76  2  0
 76 77  1  0
 78 77  2  0
 79 78  1  0
 80 54  1  0
 80 81  1  0
 80 90  1  0
 81 84  1  0
 82 86  1  0
 82 81  1  0
 83 82  2  0
 86 85  1  0
 88 86  1  0
 88 89  1  0
 88 87  1  0
 90 93  1  1
 90 91  1  0
 92 90  1  0
M  ISO  4  10 100  14 100  52 101  53 101
M  END
>  <TORSDO>  (74) 
F 22

>  <SCORE>  (74) 
-8.377

>  <name>  (74) 
73

>  <ligand_id>  (74) 
73

>  <original_smiles>  (74) 
[H]c1c([H])c([H])c2c(c1[H])C([H])([H])C([H])([H])C([H])([H])C2([H])N([H])C(=O)C1([H])N(C(=O)C([H])(N([H])C(=O)C([H])(N([H])C([H])([H])[H])C([H])([H])[H])C(C([H])([H])[H])(C([H])([H])[H])C([H])([H])[H])C([H])([H])c2c([H])c(OC([H])([H])C([H])([H])C([H])([H])[N+]([H])([H])C([H])(C([H])([H])[H])C([H])([H])C3([H])C([H])([H])C([H])(C([H])([H])[H])C([H])([H])C([H])([H])C3([H])C(=O)N3C([H])([H])C([H])([H])C([H])([H])C([H])(n4nc(-c5c([H])c([H])c(Oc6c([H])c([H])c(F)c([H])c6F)c([H])c5[H])c(C(=O)N([H])[H])c4N([H])[H])C3([H])[H])c([H])c([H])c2C1([H])[H]

>  <smiles>  (74) 
[H]c1c([H])c([H])c2c(c1[H])C([H])([H])C([H])([H])C([H])([H])C2([H])N([H])C(=O)C1([H])N(C(=O)C([H])(N([H])C(=O)C([H])(N([H])C([H])([H])[H])C([H])([H])[H])C(C([H])([H])[H])(C([H])([H])[H])C([H])([H])[H])C([H])([H])c2c([H])c(OC([H])([H])C([H])([H])C([H])([H])[N+]([H])([H])C([H])(C([H])([H])[H])C([H])([H])C3([H])C([H])([H])C([H])(C([H])([H])[H])C([H])([H])C([H])([H])C3([H])C(=O)N3C([H])([H])C([H])([H])C([H])([H])C([H])(n4nc(-c5c([H])c([H])c(Oc6c([H])c([H])c(F)c([H])c6F)c([H])c5[H])c(C(=O)N([H])[H])c4N([H])[H])C3([H])[H])c([H])c([H])c2C1([H])[H]

$$$$
74:0:0
     RDKit          3D

 94101  0  0  1  0  0  0  0  0999 V2000
  -28.8080  -21.0690   20.1050 C   0  0  0  0  0  0  0  0  0  0  0  0
  -29.0080  -22.3400   20.6320 N   0  0  0  0  0  0  0  0  0  0  0  0
  -27.9720  -20.8950   19.2170 O   0  0  0  0  0  0  0  0  0  0  0  0
  -29.7650  -22.3900   21.3020 H   0  0  0  0  0  0  0  0  0  0  0  0
  -28.1260  -23.6010   20.6220 C   0  0  0  0  0  2  0  0  0  0  0  0
  -28.5800  -24.9840   19.9050 C   0  0  0  0  0  2  0  0  0  0  0  0
  -28.4050  -26.3620   20.4850 O   0  0  0  0  0  0  0  0  0  0  0  0
  -24.6640  -31.8950   23.2400 C   0  0  0  0  0  0  0  0  0  0  0  0
  -27.2830  -27.2080   20.3410 C   0  0  0  0  0  0  0  0  0  0  0  0
  -23.4790  -30.4810   21.5960 C   0  0  0  0  0  3  0  0  0  0  0  0
  -24.9420  -28.8740   20.2300 C   0  0  0  0  0  0  0  0  0  0  0  0
  -26.0250  -30.7530   21.4690 C   0  0  0  0  0  2  0  0  0  0  0  0
  -26.1000  -29.3570   20.8500 C   0  0  0  0  0  0  0  0  0  0  0  0
  -27.2670  -28.5330   20.8960 C   0  0  0  0  0  3  0  0  0  0  0  0
  -26.1050  -26.7830   19.6920 C   0  0  0  0  0  3  0  0  0  0  0  0
  -24.9500  -27.5960   19.6400 C   0  0  0  0  0  3  0  0  0  0  0  0
  -23.7160  -29.7700   20.2340 C   0  0  0  0  0  2  0  0  0  0  0  0
  -24.7410  -31.0630   22.1580 N   0  0  0  0  0  0  0  0  0  0  0  0
  -23.5720  -32.1970   23.7440 O   0  0  0  0  0  0  0  0  0  0  0  0
  -22.7780  -29.4960   22.5630 C   0  0  0  0  0  0  0  0  0  0  0  0
  -21.4540  -29.3250   22.4030 N   0  0  0  0  0  0  0  0  0  0  0  0
  -23.4270  -28.8860   23.4190 O   0  0  0  0  0  0  0  0  0  0  0  0
  -20.9910  -29.8690   21.6880 H   0  0  0  0  0  0  0  0  0  0  0  0
  -18.0630  -28.1330   22.8020 C   0  0  0  0  0  0  0  0  0  0  0  0
  -20.6070  -28.4110   23.1690 C   0  0  0  0  0  3  0  0  0  0  0  0
  -20.7360  -26.9610   22.6460 C   0  0  0  0  0  2  0  0  0  0  0  0
  -19.6780  -26.6020   21.5980 C   0  0  0  0  0  2  0  0  0  0  0  0
  -18.2700  -26.7620   22.1780 C   0  0  0  0  0  2  0  0  0  0  0  0
  -19.1600  -28.9130   23.2540 C   0  0  0  0  0  0  0  0  0  0  0  0
  -18.9140  -30.1930   23.7940 C   0  0  0  0  0  3  0  0  0  0  0  0
  -17.6020  -30.6940   23.8910 C   0  0  0  0  0  3  0  0  0  0  0  0
  -16.5180  -29.9110   23.4580 C   0  0  0  0  0  3  0  0  0  0  0  0
  -16.7490  -28.6320   22.9190 C   0  0  0  0  0  3  0  0  0  0  0  0
  -25.9390  -32.5230   23.8820 C   0  0  0  0  0  3  0  0  0  0  0  0
  -25.6340  -33.9270   24.1970 N   0  0  0  0  0  0  0  0  0  0  0  0
  -25.9860  -34.9730   23.4380 C   0  0  0  0  0  0  0  0  0  0  0  0
  -26.6710  -34.8590   22.4180 O   0  0  0  0  0  0  0  0  0  0  0  0
  -25.0300  -34.0910   24.9890 H   0  0  0  0  0  0  0  0  0  0  0  0
  -24.2760  -36.7810   23.0560 C   0  0  0  0  0  1  0  0  0  0  0  0
  -25.5050  -36.3700   23.8820 C   0  0  0  0  0  3  0  0  0  0  0  0
  -27.6370  -37.2420   24.7300 C   0  0  0  0  0  1  0  0  0  0  0  0
  -26.5460  -37.4140   23.7750 N   0  0  0  0  0  0  0  0  0  0  0  0
  -26.1460  -38.3380   23.9150 H   0  0  0  0  0  0  0  0  0  0  0  0
  -26.4250  -31.7600   25.1760 C   0  0  1  0  0  0  0  0  0  0  0  0
  -25.3080  -31.5370   26.2240 C   0  0  0  0  0  1  0  0  0  0  0  0
  -27.0080  -30.3770   24.8070 C   0  0  0  0  0  1  0  0  0  0  0  0
  -27.5680  -32.5540   25.8540 C   0  0  0  0  0  1  0  0  0  0  0  0
  -29.5650  -19.7550   20.6650 C   0  0  0  0  0  3  0  0  0  0  0  0
  -29.7850  -18.5710   19.6880 N   0  0  0  0  0  4  0  0  0  0  0  0
  -30.7320  -18.5930   19.3500 H   0  0  0  0  0  0  0  0  0  0  0  0
  -29.2300  -18.8830   18.9030 H   0  0  0  0  0  0  0  0  0  0  0  0
  -29.3270  -17.0990   19.9210 C   0  0  0  0  0  3  0  0  0  0  0  0
  -27.2070  -15.7970   20.8650 C   0  0  0  0  0  1  0  0  0  0  0  0
  -28.0250  -17.0970   20.7820 C   0  0  0  0  0  2  0  0  0  0  0  0
  -31.6030  -16.5320   21.0560 C   0  0  0  0  0  1  0  0  0  0  0  0
  -30.3520  -15.9070   20.4070 C   0  0  0  0  0  3  0  0  0  0  0  0
  -30.7510  -14.5660   19.5930 C   0  0  0  0  0  0  0  0  0  0  0  0
  -30.4510  -12.2210   18.7300 C   0  0  0  0  0  2  0  0  0  0  0  0
  -29.4480  -12.2000   17.5560 C   0  0  0  0  0  2  0  0  0  0  0  0
  -28.0070  -12.0700   18.0800 C   0  0  0  0  0  2  0  0  0  0  0  0
  -27.7100  -13.0540   19.2420 C   0  0  0  0  0  3  0  0  0  0  0  0
  -28.8290  -13.0400   20.3090 C   0  0  0  0  0  2  0  0  0  0  0  0
  -30.0960  -13.3470   19.6340 N   0  0  0  0  0  0  0  0  0  0  0  0
  -31.7990  -14.6270   18.9420 O   0  0  0  0  0  0  0  0  0  0  0  0
  -25.3780  -13.7220   20.0810 C   0  0  0  0  0  0  0  0  0  0  0  0
  -24.3330  -12.9900   20.5680 C   0  0  0  0  0  0  0  0  0  0  0  0
  -24.7650  -11.6290   20.5600 C   0  0  0  0  0  0  0  0  0  0  0  0
  -26.3930  -12.8140   19.8250 N   0  0  0  0  0  0  0  0  0  0  0  0
  -26.0320  -11.5510   20.1670 N   0  0  0  0  0  0  0  0  0  0  0  0
  -24.0250  -10.3930   20.8440 C   0  0  0  0  0  0  0  0  0  0  0  0
  -24.4810   -9.4620   21.8010 C   0  0  0  0  0  3  0  0  0  0  0  0
  -23.7380   -8.2920   22.0710 C   0  0  0  0  0  3  0  0  0  0  0  0
  -22.5260   -8.0450   21.3840 C   0  0  0  0  0  0  0  0  0  0  0  0
  -22.0880   -8.9660   20.4140 C   0  0  0  0  0  3  0  0  0  0  0  0
  -22.8310  -10.1270   20.1430 C   0  0  0  0  0  3  0  0  0  0  0  0
  -21.7520   -6.9240   21.5610 O   0  0  0  0  0  0  0  0  0  0  0  0
  -21.7230   -6.2530   22.7580 C   0  0  0  0  0  0  0  0  0  0  0  0
  -21.3610   -6.8950   23.9620 C   0  0  0  0  0  3  0  0  0  0  0  0
  -21.2750   -6.1520   25.1580 C   0  0  0  0  0  3  0  0  0  0  0  0
  -21.5420   -4.7690   25.1480 C   0  0  0  0  0  0  0  0  0  0  0  0
  -21.8970   -4.1280   23.9490 C   0  0  0  0  0  3  0  0  0  0  0  0
  -21.9840   -4.8680   22.7560 C   0  0  0  0  0  0  0  0  0  0  0  0
  -22.3060   -4.2420   21.5980 F   0  0  0  0  0  0  0  0  0  0  0  0
  -21.4520   -4.0530   26.2930 F   0  0  0  0  0  0  0  0  0  0  0  0
  -22.9710  -13.5120   20.9210 C   0  0  0  0  0  0  0  0  0  0  0  0
  -22.2970  -12.8730   21.8700 N   0  0  0  0  0  0  0  0  0  0  0  0
  -22.5170  -14.5260   20.3900 O   0  0  0  0  0  0  0  0  0  0  0  0
  -22.6800  -12.0550   22.3190 H   0  0  0  0  0  0  0  0  0  0  0  0
  -21.3860  -13.2060   22.1520 H   0  0  0  0  0  0  0  0  0  0  0  0
  -25.5330  -15.0760   19.8050 N   0  0  0  0  0  0  0  0  0  0  0  0
  -24.7690  -15.7300   19.9310 H   0  0  0  0  0  0  0  0  0  0  0  0
  -26.3340  -15.4860   19.3450 H   0  0  0  0  0  0  0  0  0  0  0  0
  -32.0380  -20.5570   20.4760 C   0  0  0  0  0  1  0  0  0  0  0  0
  -30.8860  -20.1050   21.3910 C   0  0  0  0  0  2  0  0  0  0  0  0
  1  2  1  0
  1 48  1  0
  2  4  1  0
  3  1  2  0
  5  2  1  0
  6  7  1  0
  6  5  1  0
  8 19  2  0
  9  7  1  0
  9 14  1  0
 10 18  1  0
 10 20  1  0
 11 17  1  0
 11 13  1  0
 12 18  1  0
 13 14  2  0
 13 12  1  0
 15  9  2  0
 16 15  1  0
 16 11  2  0
 17 10  1  0
 18  8  1  0
 20 22  2  0
 21 20  1  0
 23 21  1  0
 24 33  2  0
 24 29  1  0
 25 21  1  0
 25 29  1  0
 26 25  1  0
 27 28  1  0
 27 26  1  0
 28 24  1  0
 29 30  2  0
 30 31  1  0
 32 31  2  0
 33 32  1  0
 34  8  1  0
 34 35  1  0
 34 44  1  0
 35 38  1  0
 36 40  1  0
 36 35  1  0
 37 36  2  0
 40 39  1  0
 42 40  1  0
 42 43  1  0
 42 41  1  0
 44 47  1  1
 44 45  1  0
 46 44  1  0
 48 94  1  0
 49 52  1  0
 49 48  1  0
 50 49  1  0
 51 49  1  0
 52 56  1  0
 52 54  1  0
 54 53  1  0
 56 55  1  0
 57 63  1  0
 57 56  1  0
 58 63  1  0
 59 60  1  0
 59 58  1  0
 61 60  1  0
 61 68  1  0
 61 62  1  0
 63 62  1  0
 64 57  2  0
 65 66  2  0
 66 85  1  0
 67 66  1  0
 67 70  1  0
 68 65  1  0
 68 69  1  0
 69 67  2  0
 70 71  1  0
 71 72  2  0
 73 76  1  0
 73 72  1  0
 74 73  2  0
 75 74  1  0
 75 70  2  0
 76 77  1  0
 77 78  1  0
 78 79  2  0
 80 79  1  0
 80 84  1  0
 81 80  2  0
 82 77  2  0
 82 81  1  0
 83 82  1  0
 85 86  1  0
 86 89  1  0
 86 88  1  0
 87 85  2  0
 90 91  1  0
 90 65  1  0
 92 90  1  0
 93 94  1  0
M  ISO  4   6 101   7 101  56 100  57 100
M  END
>  <TORSDO>  (75) 
F 24

>  <SCORE>  (75) 
-11.356

>  <name>  (75) 
74

>  <ligand_id>  (75) 
74

>  <original_smiles>  (75) 
[H]c1c([H])c([H])c2c(c1[H])C([H])([H])C([H])([H])C([H])([H])C2([H])N([H])C(=O)C1([H])N(C(=O)C([H])(N([H])C(=O)C([H])(N([H])C([H])([H])[H])C([H])([H])[H])C(C([H])([H])[H])(C([H])([H])[H])C([H])([H])[H])C([H])([H])c2c([H])c(OC([H])([H])C([H])([H])N([H])C(=O)C([H])(C([H])([H])C([H])([H])[H])[N+]([H])([H])C([H])(C([H])([H])C([H])([H])[H])C([H])(C(=O)N3C([H])([H])C([H])([H])C([H])([H])C([H])(n4nc(-c5c([H])c([H])c(Oc6c([H])c([H])c(F)c([H])c6F)c([H])c5[H])c(C(=O)N([H])[H])c4N([H])[H])C3([H])[H])C([H])([H])[H])c([H])c([H])c2C1([H])[H]

>  <smiles>  (75) 
[H]c1c([H])c([H])c2c(c1[H])C([H])([H])C([H])([H])C([H])([H])C2([H])N([H])C(=O)C1([H])N(C(=O)C([H])(N([H])C(=O)C([H])(N([H])C([H])([H])[H])C([H])([H])[H])C(C([H])([H])[H])(C([H])([H])[H])C([H])([H])[H])C([H])([H])c2c([H])c(OC([H])([H])C([H])([H])N([H])C(=O)C([H])(C([H])([H])C([H])([H])[H])[N+]([H])([H])C([H])(C([H])([H])C([H])([H])[H])C([H])(C(=O)N3C([H])([H])C([H])([H])C([H])([H])C([H])(n4nc(-c5c([H])c([H])c(Oc6c([H])c([H])c(F)c([H])c6F)c([H])c5[H])c(C(=O)N([H])[H])c4N([H])[H])C3([H])[H])C([H])([H])[H])c([H])c([H])c2C1([H])[H]

$$$$
75:0:0
     RDKit          3D

 86 90  0  0  1  0  0  0  0  0999 V2000
  -29.0360  -18.5950   20.2390 C   0  0  0  0  0  1  0  0  0  0  0  0
  -29.0940  -20.3600   20.2380 C   0  0  0  0  0  2  0  0  0  0  0  0
  -29.8720  -16.7620   20.2270 C   0  0  0  0  0  2  0  0  0  0  0  0
  -30.3100  -13.9460   19.5500 C   0  0  0  0  0  2  0  0  0  0  0  0
  -29.5950  -13.0760   18.4270 C   0  0  0  0  0  2  0  0  0  0  0  0
  -28.2700  -12.4770   18.9040 C   0  0  0  0  0  2  0  0  0  0  0  0
  -27.5750  -13.5110   19.8010 C   0  0  0  0  0  3  0  0  0  0  0  0
  -28.4830  -14.2690   20.8450 C   0  0  0  0  0  2  0  0  0  0  0  0
  -29.4990  -15.1990   20.1670 N   0  0  0  0  0  0  0  0  0  0  0  0
  -31.1200  -16.5220   20.1460 O   0  0  0  0  0  1  0  0  0  0  0  0
  -25.2070  -13.8860   20.5600 C   0  0  0  0  0  0  0  0  0  0  0  0
  -24.1710  -13.0700   20.9070 C   0  0  0  0  0  0  0  0  0  0  0  0
  -24.6830  -11.7350   20.8710 C   0  0  0  0  0  0  0  0  0  0  0  0
  -26.2880  -13.0630   20.3300 N   0  0  0  0  0  0  0  0  0  0  0  0
  -25.9860  -11.7510   20.5700 N   0  0  0  0  0  0  0  0  0  0  0  0
  -23.9740  -10.4540   21.0470 C   0  0  0  0  0  0  0  0  0  0  0  0
  -24.4000   -9.4910   21.9890 C   0  0  0  0  0  3  0  0  0  0  0  0
  -23.6810   -8.2880   22.1640 C   0  0  0  0  0  3  0  0  0  0  0  0
  -22.5180   -8.0340   21.3980 C   0  0  0  0  0  0  0  0  0  0  0  0
  -22.1090   -8.9850   20.4450 C   0  0  0  0  0  3  0  0  0  0  0  0
  -22.8290  -10.1780   20.2690 C   0  0  0  0  0  3  0  0  0  0  0  0
  -21.7730   -6.8810   21.4800 O   0  0  0  0  0  0  0  0  0  0  0  0
  -21.7140   -6.1410   22.6350 C   0  0  0  0  0  0  0  0  0  0  0  0
  -21.2540   -6.6900   23.8510 C   0  0  0  0  0  3  0  0  0  0  0  0
  -21.1440   -5.8750   24.9970 C   0  0  0  0  0  3  0  0  0  0  0  0
  -21.4840   -4.5110   24.9260 C   0  0  0  0  0  0  0  0  0  0  0  0
  -21.9360   -3.9590   23.7140 C   0  0  0  0  0  3  0  0  0  0  0  0
  -22.0490   -4.7720   22.5720 C   0  0  0  0  0  0  0  0  0  0  0  0
  -22.4660   -4.2310   21.4030 F   0  0  0  0  0  0  0  0  0  0  0  0
  -21.3730   -3.7260   26.0230 F   0  0  0  0  0  0  0  0  0  0  0  0
  -22.7590  -13.5100   21.1540 C   0  0  0  0  0  0  0  0  0  0  0  0
  -22.0400  -12.8060   22.0180 N   0  0  0  0  0  0  0  0  0  0  0  0
  -22.3070  -14.5240   20.6190 O   0  0  0  0  0  0  0  0  0  0  0  0
  -22.4240  -11.9900   22.4710 H   0  0  0  0  0  0  0  0  0  0  0  0
  -21.0920  -13.0830   22.2310 H   0  0  0  0  0  0  0  0  0  0  0  0
  -25.3170  -15.2610   20.3790 N   0  0  0  0  0  0  0  0  0  0  0  0
  -24.5240  -15.8860   20.4780 H   0  0  0  0  0  0  0  0  0  0  0  0
  -26.1510  -15.7290   20.0510 H   0  0  0  0  0  0  0  0  0  0  0  0
  -30.9330  -21.5600   21.5200 C   0  0  0  0  0  1  0  0  0  0  0  0
  -30.5690  -20.7480   20.2650 C   0  0  0  0  0  3  0  0  0  0  0  0
  -30.9640  -21.4350   19.0200 N   0  0  0  0  0  4  0  0  0  0  0  0
  -30.5490  -22.3440   18.9340 H   0  0  0  0  0  0  0  0  0  0  0  0
  -30.6910  -20.8840   18.2250 H   0  0  0  0  0  0  0  0  0  0  0  0
  -31.9620  -21.5480   18.9830 H   0  0  0  0  0  0  0  0  0  0  0  0
  -28.0830  -22.3700   20.1860 C   0  0  0  0  0 15  0  0  0  0  0  0
  -28.0790  -24.5090   20.3110 O   0  0  0  0  0  1  0  0  0  0  0  0
  -24.6300  -31.7550   23.0880 C   0  0  0  0  0  0  0  0  0  0  0  0
  -27.1730  -26.0340   20.2680 C   0  0  0  0  0  0  0  0  0  0  0  0
  -23.4900  -30.3050   21.4750 C   0  0  0  0  0  3  0  0  0  0  0  0
  -24.9570  -28.4970   20.1490 C   0  0  0  0  0  0  0  0  0  0  0  0
  -26.0890  -30.2550   21.4520 C   0  0  0  0  0  2  0  0  0  0  0  0
  -26.1570  -28.7340   20.8250 C   0  0  0  0  0  0  0  0  0  0  0  0
  -27.2090  -27.5570   20.8330 C   0  0  0  0  0  3  0  0  0  0  0  0
  -25.9290  -26.1920   19.5270 C   0  0  0  0  0  3  0  0  0  0  0  0
  -24.9230  -27.2550   19.4750 C   0  0  0  0  0  3  0  0  0  0  0  0
  -23.7790  -29.5310   20.1440 C   0  0  0  0  0  2  0  0  0  0  0  0
  -24.7700  -30.8230   22.0570 N   0  0  0  0  0  0  0  0  0  0  0  0
  -23.5170  -32.0870   23.5440 O   0  0  0  0  0  0  0  0  0  0  0  0
  -22.7010  -29.4060   22.4700 C   0  0  0  0  0  0  0  0  0  0  0  0
  -21.3610  -29.2970   22.3470 N   0  0  0  0  0  0  0  0  0  0  0  0
  -23.3210  -28.7930   23.3420 O   0  0  0  0  0  0  0  0  0  0  0  0
  -20.8990  -29.8340   21.6260 H   0  0  0  0  0  0  0  0  0  0  0  0
  -17.9460  -28.1290   22.9000 C   0  0  0  0  0  0  0  0  0  0  0  0
  -20.5130  -28.3840   23.1330 C   0  0  0  0  0  3  0  0  0  0  0  0
  -20.5940  -26.9450   22.5720 C   0  0  0  0  0  2  0  0  0  0  0  0
  -19.4830  -26.6290   21.5650 C   0  0  0  0  0  2  0  0  0  0  0  0
  -18.1070  -26.7820   22.2170 C   0  0  0  0  0  2  0  0  0  0  0  0
  -19.0730  -28.8900   23.3140 C   0  0  0  0  0  0  0  0  0  0  0  0
  -18.8600  -30.1460   23.9240 C   0  0  0  0  0  3  0  0  0  0  0  0
  -17.5570  -30.6430   24.1160 C   0  0  0  0  0  3  0  0  0  0  0  0
  -16.4460  -29.8820   23.7110 C   0  0  0  0  0  3  0  0  0  0  0  0
  -16.6420  -28.6260   23.1100 C   0  0  0  0  0  3  0  0  0  0  0  0
  -25.8510  -32.4600   23.7600 C   0  0  0  0  0  3  0  0  0  0  0  0
  -26.3290  -31.7330   25.0800 C   0  0  1  0  0  0  0  0  0  0  0  0
  -25.2000  -31.5190   26.1190 C   0  0  0  0  0  1  0  0  0  0  0  0
  -26.9340  -30.3490   24.7670 C   0  0  0  0  0  1  0  0  0  0  0  0
  -27.4570  -32.5520   25.7530 C   0  0  0  0  0  1  0  0  0  0  0  0
  -25.4890  -33.8620   24.0910 N   0  0  0  0  0  0  0  0  0  0  0  0
  -25.8130  -34.9490   23.3760 C   0  0  0  0  0  0  0  0  0  0  0  0
  -26.4900  -34.8810   22.3480 O   0  0  0  0  0  0  0  0  0  0  0  0
  -24.8860  -33.9870   24.8910 H   0  0  0  0  0  0  0  0  0  0  0  0
  -24.0620  -36.7470   23.0860 C   0  0  0  0  0  1  0  0  0  0  0  0
  -25.3190  -36.3320   23.8690 C   0  0  0  0  0  3  0  0  0  0  0  0
  -27.4520  -37.2420   24.6900 C   0  0  0  0  0  1  0  0  0  0  0  0
  -26.3370  -37.4020   23.7600 N   0  0  0  0  0  0  0  0  0  0  0  0
  -25.9210  -38.3150   23.9240 H   0  0  0  0  0  0  0  0  0  0  0  0
  2  1  1  0
  2 40  1  0
  4  9  1  0
  5  6  1  0
  5  4  1  0
  7  6  1  0
  7 14  1  0
  7  8  1  0
  9  3  1  0
  9  8  1  0
 10  3  1  0
 11 12  2  0
 12 31  1  0
 13 12  1  0
 13 16  1  0
 14 11  1  0
 14 15  1  0
 15 13  2  0
 16 17  1  0
 17 18  2  0
 19 22  1  0
 19 18  1  0
 20 19  2  0
 21 20  1  0
 21 16  2  0
 22 23  1  0
 23 24  1  0
 24 25  2  0
 26 25  1  0
 26 30  1  0
 27 26  2  0
 28 23  2  0
 28 27  1  0
 29 28  1  0
 31 32  1  0
 32 35  1  0
 32 34  1  0
 33 31  2  0
 36 37  1  0
 36 11  1  0
 38 36  1  0
 40 39  1  0
 41 40  1  0
 42 41  1  0
 43 41  1  0
 44 41  1  0
 47 58  2  0
 48 46  1  0
 48 53  1  0
 49 57  1  0
 49 59  1  0
 50 52  1  0
 51 57  1  0
 52 53  2  0
 52 51  1  0
 54 48  2  0
 55 54  1  0
 55 50  2  0
 56 50  1  0
 56 49  1  0
 57 47  1  0
 59 61  2  0
 60 59  1  0
 62 60  1  0
 63 72  2  0
 63 68  1  0
 64 60  1  0
 64 68  1  0
 65 64  1  0
 66 67  1  0
 66 65  1  0
 67 63  1  0
 68 69  2  0
 69 70  1  0
 71 70  2  0
 72 71  1  0
 73 47  1  0
 73 78  1  0
 73 74  1  0
 74 77  1  1
 74 75  1  0
 76 74  1  0
 78 81  1  0
 79 83  1  0
 79 78  1  0
 80 79  2  0
 83 82  1  0
 85 83  1  0
 85 86  1  0
 85 84  1  0
M  ISO  4   1 100   3 100  45 101  46 101
M  END
>  <TORSDO>  (76) 
F 19

>  <SCORE>  (76) 
-15.867

>  <name>  (76) 
75

>  <ligand_id>  (76) 
75

>  <original_smiles>  (76) 
[H]C(C(=O)N1C([H])([H])C([H])([H])C([H])([H])C([H])(n2nc(-c3c([H])c([H])c(Oc4c([H])c([H])c(F)c([H])c4F)c([H])c3[H])c(C(=O)N([H])[H])c2N([H])[H])C1([H])[H])=C(C([H])([H])Oc1c([H])c([H])c2c(c1[H])C([H])([H])N(C(=O)C([H])(N([H])C(=O)C([H])(N([H])C([H])([H])[H])C([H])([H])[H])C(C([H])([H])[H])(C([H])([H])[H])C([H])([H])[H])C([H])(C(=O)N([H])C1([H])c3c([H])c([H])c([H])c([H])c3C([H])([H])C([H])([H])C1([H])[H])C2([H])[H])C([H])(C([H])([H])[H])[N+]([H])([H])[H]

>  <smiles>  (76) 
[H]C(C(=O)N1C([H])([H])C([H])([H])C([H])([H])C([H])(n2nc(-c3c([H])c([H])c(Oc4c([H])c([H])c(F)c([H])c4F)c([H])c3[H])c(C(=O)N([H])[H])c2N([H])[H])C1([H])[H])=C(C([H])([H])Oc1c([H])c([H])c2c(c1[H])C([H])([H])N(C(=O)C([H])(N([H])C(=O)C([H])(N([H])C([H])([H])[H])C([H])([H])[H])C(C([H])([H])[H])(C([H])([H])[H])C([H])([H])[H])C([H])(C(=O)N([H])C1([H])c3c([H])c([H])c([H])c([H])c3C([H])([H])C([H])([H])C1([H])[H])C2([H])[H])C([H])(C([H])([H])[H])[N+]([H])([H])[H]

$$$$
76:0:0
     RDKit          3D

 92 99  0  0  1  0  0  0  0  0999 V2000
  -29.0240  -21.2540   20.4410 N   0  0  1  0  0  4  0  0  0  0  0  0
  -28.0250  -21.1060   20.3950 H   0  0  0  0  0  0  0  0  0  0  0  0
  -30.6750  -21.5500   22.3620 C   0  0  0  0  0  1  0  0  0  0  0  0
  -29.2290  -21.2880   21.9170 C   0  0  0  0  0  2  0  0  0  0  0  0
  -29.0830  -22.8270   19.8580 C   0  0  0  0  0  3  0  0  0  0  0  0
  -28.2220  -24.3180   20.4140 C   0  0  0  0  0  3  0  0  0  0  0  0
  -28.3830  -25.9540   20.2010 O   0  0  0  0  0  0  0  0  0  0  0  0
  -24.6870  -31.8810   23.1280 C   0  0  0  0  0  0  0  0  0  0  0  0
  -27.3290  -27.0110   20.1840 C   0  0  0  0  0  0  0  0  0  0  0  0
  -23.5220  -30.4630   21.4870 C   0  0  0  0  0  3  0  0  0  0  0  0
  -24.9980  -28.8530   20.1000 C   0  0  0  0  0  0  0  0  0  0  0  0
  -26.0860  -30.6990   21.3620 C   0  0  0  0  0  2  0  0  0  0  0  0
  -26.1770  -29.2820   20.7240 C   0  0  0  0  0  0  0  0  0  0  0  0
  -27.3370  -28.3850   20.7340 C   0  0  0  0  0  3  0  0  0  0  0  0
  -26.1160  -26.7280   19.5160 C   0  0  0  0  0  3  0  0  0  0  0  0
  -24.9920  -27.5950   19.4760 C   0  0  0  0  0  3  0  0  0  0  0  0
  -23.7700  -29.7650   20.1210 C   0  0  0  0  0  2  0  0  0  0  0  0
  -24.7860  -31.0410   22.0460 N   0  0  0  0  0  0  0  0  0  0  0  0
  -23.5890  -32.1640   23.6360 O   0  0  0  0  0  0  0  0  0  0  0  0
  -22.8240  -29.4700   22.4530 C   0  0  0  0  0  0  0  0  0  0  0  0
  -21.4950  -29.3080   22.3270 N   0  0  0  0  0  0  0  0  0  0  0  0
  -23.4870  -28.8410   23.2820 O   0  0  0  0  0  0  0  0  0  0  0  0
  -21.0150  -29.8720   21.6380 H   0  0  0  0  0  0  0  0  0  0  0  0
  -18.1070  -28.1060   22.8360 C   0  0  0  0  0  0  0  0  0  0  0  0
  -20.6690  -28.3710   23.0950 C   0  0  0  0  0  3  0  0  0  0  0  0
  -20.7660  -26.9390   22.5200 C   0  0  0  0  0  2  0  0  0  0  0  0
  -19.6630  -26.6180   21.5050 C   0  0  0  0  0  2  0  0  0  0  0  0
  -18.2830  -26.7580   22.1550 C   0  0  0  0  0  2  0  0  0  0  0  0
  -19.2280  -28.8700   23.2620 C   0  0  0  0  0  0  0  0  0  0  0  0
  -19.0080  -30.1260   23.8660 C   0  0  0  0  0  3  0  0  0  0  0  0
  -17.7020  -30.6200   24.0490 C   0  0  0  0  0  3  0  0  0  0  0  0
  -16.5990  -29.8550   23.6370 C   0  0  0  0  0  3  0  0  0  0  0  0
  -16.8020  -28.6010   23.0330 C   0  0  0  0  0  3  0  0  0  0  0  0
  -25.9460  -32.5390   23.7700 C   0  0  0  0  0  3  0  0  0  0  0  0
  -25.6000  -33.9300   24.1130 N   0  0  0  0  0  0  0  0  0  0  0  0
  -25.9130  -35.0060   23.3750 C   0  0  0  0  0  0  0  0  0  0  0  0
  -26.5850  -34.9320   22.3440 O   0  0  0  0  0  0  0  0  0  0  0  0
  -25.0010  -34.0560   24.9150 H   0  0  0  0  0  0  0  0  0  0  0  0
  -24.1520  -36.7860   23.0600 C   0  0  0  0  0  1  0  0  0  0  0  0
  -25.4040  -36.3810   23.8580 C   0  0  0  0  0  3  0  0  0  0  0  0
  -27.5270  -37.2980   24.6930 C   0  0  0  0  0  1  0  0  0  0  0  0
  -26.4170  -37.4550   23.7580 N   0  0  0  0  0  0  0  0  0  0  0  0
  -25.9940  -38.3650   23.9150 H   0  0  0  0  0  0  0  0  0  0  0  0
  -26.4560  -31.7750   25.0560 C   0  0  1  0  0  0  0  0  0  0  0  0
  -25.3510  -31.5180   26.1090 C   0  0  0  0  0  1  0  0  0  0  0  0
  -27.0720  -30.4060   24.6840 C   0  0  0  0  0  1  0  0  0  0  0  0
  -27.5770  -32.5950   25.7380 C   0  0  0  0  0  1  0  0  0  0  0  0
  -29.5050  -19.7700   19.7720 C   0  0  0  0  0  3  0  0  0  0  0  0
  -27.9630  -18.2070   21.0920 C   0  0  0  0  0  1  0  0  0  0  0  0
  -29.4520  -18.1830   20.6270 C   0  0  0  0  0  3  0  0  0  0  0  0
  -30.4330  -15.3430   19.7970 C   0  0  0  0  0  0  0  0  0  0  0  0
  -30.3620  -12.9340   18.7830 C   0  0  0  0  0  2  0  0  0  0  0  0
  -29.3360  -12.7720   17.6300 C   0  0  0  0  0  2  0  0  0  0  0  0
  -27.9290  -12.4660   18.1720 C   0  0  0  0  0  2  0  0  0  0  0  0
  -27.5740  -13.3710   19.3750 C   0  0  0  0  0  3  0  0  0  0  0  0
  -28.7120  -13.4360   20.4090 C   0  0  0  0  0  2  0  0  0  0  0  0
  -29.8970  -14.0140   19.7350 N   0  0  0  0  0  0  0  0  0  0  0  0
  -31.5310  -15.4430   19.2320 O   0  0  0  0  0  0  0  0  0  0  0  0
  -29.7700  -16.0680   21.8910 C   0  0  0  0  0  1  0  0  0  0  0  0
  -29.7550  -16.4960   20.4570 N   0  0  0  0  0  0  0  0  0  0  0  0
  -25.2870  -13.8840   20.3900 C   0  0  0  0  0  0  0  0  0  0  0  0
  -24.2630  -13.0870   20.8150 C   0  0  0  0  0  0  0  0  0  0  0  0
  -24.7150  -11.7410   20.6540 C   0  0  0  0  0  0  0  0  0  0  0  0
  -26.2960  -13.0260   19.9840 N   0  0  0  0  0  0  0  0  0  0  0  0
  -25.9690  -11.7250   20.2110 N   0  0  0  0  0  0  0  0  0  0  0  0
  -24.0020  -10.4700   20.8360 C   0  0  0  0  0  0  0  0  0  0  0  0
  -24.4830   -9.4690   21.7110 C   0  0  0  0  0  3  0  0  0  0  0  0
  -23.7670   -8.2640   21.8810 C   0  0  0  0  0  3  0  0  0  0  0  0
  -22.5540   -8.0540   21.1800 C   0  0  0  0  0  0  0  0  0  0  0  0
  -22.0940   -9.0450   20.2940 C   0  0  0  0  0  3  0  0  0  0  0  0
  -22.8110  -10.2400   20.1210 C   0  0  0  0  0  3  0  0  0  0  0  0
  -21.8040   -6.9060   21.2660 O   0  0  0  0  0  0  0  0  0  0  0  0
  -21.7780   -6.1480   22.4090 C   0  0  0  0  0  0  0  0  0  0  0  0
  -21.3780   -6.6880   23.6520 C   0  0  0  0  0  3  0  0  0  0  0  0
  -21.2960   -5.8580   24.7870 C   0  0  0  0  0  3  0  0  0  0  0  0
  -21.6050   -4.4880   24.6830 C   0  0  0  0  0  0  0  0  0  0  0  0
  -21.9970   -3.9480   23.4440 C   0  0  0  0  0  3  0  0  0  0  0  0
  -22.0800   -4.7750   22.3110 C   0  0  0  0  0  0  0  0  0  0  0  0
  -22.4370   -4.2460   21.1170 F   0  0  0  0  0  0  0  0  0  0  0  0
  -21.5190   -3.6870   25.7690 F   0  0  0  0  0  0  0  0  0  0  0  0
  -22.9010  -13.5470   21.2470 C   0  0  0  0  0  0  0  0  0  0  0  0
  -22.2550  -12.8090   22.1410 N   0  0  0  0  0  0  0  0  0  0  0  0
  -22.4170  -14.5980   20.8230 O   0  0  0  0  0  0  0  0  0  0  0  0
  -22.6560  -11.9560   22.5050 H   0  0  0  0  0  0  0  0  0  0  0  0
  -21.3420  -13.0960   22.4630 H   0  0  0  0  0  0  0  0  0  0  0  0
  -25.4450  -15.2640   20.2820 N   0  0  0  0  0  0  0  0  0  0  0  0
  -24.7050  -15.9170   20.5140 H   0  0  0  0  0  0  0  0  0  0  0  0
  -26.2640  -15.7120   19.8950 H   0  0  0  0  0  0  0  0  0  0  0  0
  -32.0700  -20.1880   19.7050 C   0  0  0  0  0  1  0  0  0  0  0  0
  -30.8000  -19.8530   18.9040 C   0  0  0  0  0  3  0  0  0  0  0  0
  -29.5460  -20.3710   16.6760 C   0  0  0  0  0  1  0  0  0  0  0  0
  -30.7130  -20.7200   17.6210 C   0  0  0  0  0  2  0  0  0  0  0  0
  1  4  1  0
  1  2  1  1
  4  3  1  0
  5  6  2  0
  5  1  1  0
  7  6  1  0
  8 19  2  0
  9  7  1  0
  9 14  1  0
 10 18  1  0
 10 20  1  0
 11 17  1  0
 11 13  1  0
 12 18  1  0
 13 14  2  0
 13 12  1  0
 15  9  2  0
 16 15  1  0
 16 11  2  0
 17 10  1  0
 18  8  1  0
 20 22  2  0
 21 20  1  0
 23 21  1  0
 24 33  2  0
 24 29  1  0
 25 21  1  0
 25 29  1  0
 26 25  1  0
 27 28  1  0
 27 26  1  0
 28 24  1  0
 29 30  2  0
 30 31  1  0
 32 31  2  0
 33 32  1  0
 34  8  1  0
 34 35  1  0
 34 44  1  0
 35 38  1  0
 36 40  1  0
 36 35  1  0
 37 36  2  0
 40 39  1  0
 42 40  1  0
 42 43  1  0
 42 41  1  0
 44 47  1  1
 44 45  1  0
 46 44  1  0
 48  1  1  0
 48 50  1  0
 50 49  1  0
 51 60  1  0
 52 57  1  0
 53 54  1  0
 53 52  1  0
 55 54  1  0
 55 64  1  0
 55 56  1  0
 57 51  1  0
 57 56  1  0
 58 51  2  0
 60 50  1  0
 60 59  1  0
 61 62  2  0
 62 81  1  0
 63 62  1  0
 63 66  1  0
 64 65  1  0
 64 61  1  0
 65 63  2  0
 66 67  1  0
 67 68  2  0
 69 72  1  0
 69 68  1  0
 70 69  2  0
 71 70  1  0
 71 66  2  0
 72 73  1  0
 73 74  1  0
 74 75  2  0
 76 75  1  0
 76 80  1  0
 77 76  2  0
 78 73  2  0
 78 77  1  0
 79 78  1  0
 81 82  1  0
 82 85  1  0
 82 84  1  0
 83 81  2  0
 86 61  1  0
 86 87  1  0
 88 86  1  0
 90 89  1  0
 90 48  1  0
 91 92  1  0
 92 90  1  0
M  ISO  4   6 101   7 101  51 100  60 100
M  END
>  <TORSDO>  (77) 
F 23

>  <SCORE>  (77) 
-14.222

>  <name>  (77) 
76

>  <ligand_id>  (77) 
76

>  <original_smiles>  (77) 
[H]c1c([H])c([H])c2c(c1[H])C([H])([H])C([H])([H])C([H])([H])C2([H])N([H])C(=O)C1([H])N(C(=O)C([H])(N([H])C(=O)C([H])(N([H])C([H])([H])[H])C([H])([H])[H])C(C([H])([H])[H])(C([H])([H])[H])C([H])([H])[H])C([H])([H])c2c([H])c(OC([H])([H])C([H])([H])[N+]([H])(C([H])([H])C([H])([H])[H])C([H])(C([H])(N(C(=O)N3C([H])([H])C([H])([H])C([H])([H])C([H])(n4nc(-c5c([H])c([H])c(Oc6c([H])c([H])c(F)c([H])c6F)c([H])c5[H])c(C(=O)N([H])[H])c4N([H])[H])C3([H])[H])C([H])([H])[H])C([H])([H])[H])C([H])(C([H])([H])[H])C([H])([H])C([H])([H])[H])c([H])c([H])c2C1([H])[H]

>  <smiles>  (77) 
[H]c1c([H])c([H])c2c(c1[H])C([H])([H])C([H])([H])C([H])([H])C2([H])N([H])C(=O)C1([H])N(C(=O)C([H])(N([H])C(=O)C([H])(N([H])C([H])([H])[H])C([H])([H])[H])C(C([H])([H])[H])(C([H])([H])[H])C([H])([H])[H])C([H])([H])c2c([H])c(OC([H])([H])C([H])([H])[N+]([H])(C([H])([H])C([H])([H])[H])C([H])(C([H])(N(C(=O)N3C([H])([H])C([H])([H])C([H])([H])C([H])(n4nc(-c5c([H])c([H])c(Oc6c([H])c([H])c(F)c([H])c6F)c([H])c5[H])c(C(=O)N([H])[H])c4N([H])[H])C3([H])[H])C([H])([H])[H])C([H])([H])[H])C([H])(C([H])([H])[H])C([H])([H])C([H])([H])[H])c([H])c([H])c2C1([H])[H]

$$$$
77:0:0
     RDKit          3D

 89 97  0  0  1  0  0  0  0  0999 V2000
  -30.2460  -19.9780   18.8290 C   0  0  0  0  0  2  0  0  0  0  0  0
  -30.4560  -18.4080   18.8830 C   0  0  0  0  0  2  0  0  0  0  0  0
  -29.9970  -20.5050   20.2670 C   0  0  0  0  0  3  0  0  0  0  0  0
  -30.6100  -18.0210   20.3740 C   0  0  0  0  0  3  0  0  0  0  0  0
  -29.6510  -19.2700   22.4270 C   0  0  0  0  0  1  0  0  0  0  0  0
  -29.7010  -19.1530   20.9540 N   0  0  1  0  0  4  0  0  0  0  0  0
  -28.7610  -18.9140   20.6660 H   0  0  0  0  0  0  0  0  0  0  0  0
  -30.8950  -16.2860   22.3490 C   0  0  0  0  0  1  0  0  0  0  0  0
  -30.4970  -16.3890   20.8470 C   0  0  0  0  0  3  0  0  0  0  0  0
  -31.2590  -15.0860   20.1530 C   0  0  0  0  0  0  0  0  0  0  0  0
  -31.0650  -12.8360   18.9690 C   0  0  0  0  0  2  0  0  0  0  0  0
  -30.0900  -12.9470   17.7700 C   0  0  0  0  0  2  0  0  0  0  0  0
  -28.6220  -12.7830   18.2280 C   0  0  0  0  0  2  0  0  0  0  0  0
  -28.2970  -13.6190   19.4950 C   0  0  0  0  0  3  0  0  0  0  0  0
  -29.3720  -13.4260   20.5730 C   0  0  0  0  0  2  0  0  0  0  0  0
  -30.6550  -13.8400   19.9930 N   0  0  0  0  0  0  0  0  0  0  0  0
  -32.4150  -15.2040   19.7270 O   0  0  0  0  0  0  0  0  0  0  0  0
  -25.9460  -14.2500   20.2960 C   0  0  0  0  0  0  0  0  0  0  0  0
  -24.8750  -13.4950   20.7000 C   0  0  0  0  0  0  0  0  0  0  0  0
  -25.3140  -12.1380   20.6470 C   0  0  0  0  0  0  0  0  0  0  0  0
  -26.9630  -13.3510   20.0200 N   0  0  0  0  0  0  0  0  0  0  0  0
  -26.5940  -12.0750   20.2970 N   0  0  0  0  0  0  0  0  0  0  0  0
  -24.5700  -10.8910   20.8500 C   0  0  0  0  0  0  0  0  0  0  0  0
  -24.9490   -9.9550   21.8360 C   0  0  0  0  0  3  0  0  0  0  0  0
  -24.1970   -8.7740   22.0210 C   0  0  0  0  0  3  0  0  0  0  0  0
  -23.0530   -8.5280   21.2230 C   0  0  0  0  0  0  0  0  0  0  0  0
  -22.7040   -9.4520   20.2240 C   0  0  0  0  0  3  0  0  0  0  0  0
  -23.4560  -10.6220   20.0340 C   0  0  0  0  0  3  0  0  0  0  0  0
  -22.2820   -7.3940   21.3130 O   0  0  0  0  0  0  0  0  0  0  0  0
  -22.0770   -6.7540   22.5090 C   0  0  0  0  0  0  0  0  0  0  0  0
  -21.5020   -7.4100   23.6180 C   0  0  0  0  0  3  0  0  0  0  0  0
  -21.2430   -6.6960   24.8050 C   0  0  0  0  0  3  0  0  0  0  0  0
  -21.5540   -5.3260   24.8850 C   0  0  0  0  0  0  0  0  0  0  0  0
  -22.1260   -4.6680   23.7800 C   0  0  0  0  0  3  0  0  0  0  0  0
  -22.3850   -5.3800   22.5960 C   0  0  0  0  0  0  0  0  0  0  0  0
  -22.9140   -4.7350   21.5270 F   0  0  0  0  0  0  0  0  0  0  0  0
  -21.3070   -4.6350   26.0220 F   0  0  0  0  0  0  0  0  0  0  0  0
  -23.4960  -14.0060   21.0090 C   0  0  0  0  0  0  0  0  0  0  0  0
  -22.7790  -13.3390   21.9100 N   0  0  0  0  0  0  0  0  0  0  0  0
  -23.0630  -15.0280   20.4830 O   0  0  0  0  0  0  0  0  0  0  0  0
  -23.1360  -12.5110   22.3610 H   0  0  0  0  0  0  0  0  0  0  0  0
  -21.8500  -13.6570   22.1420 H   0  0  0  0  0  0  0  0  0  0  0  0
  -26.1280  -15.6170   20.1240 N   0  0  0  0  0  0  0  0  0  0  0  0
  -25.3510  -16.2610   20.2300 H   0  0  0  0  0  0  0  0  0  0  0  0
  -26.9410  -16.0420   19.6980 H   0  0  0  0  0  0  0  0  0  0  0  0
  -28.9910  -21.8480   20.4490 C   0  0  0  0  0  2  0  0  0  0  0  0
  -29.3680  -23.4500   20.1160 C   0  0  0  0  0  3  0  0  0  0  0  0
  -28.2770  -24.7220   20.1090 C   0  0  0  0  0  3  0  0  0  0  0  0
  -28.5870  -26.2460   20.1140 O   0  0  0  0  0  0  0  0  0  0  0  0
  -24.7670  -31.8130   23.0880 C   0  0  0  0  0  0  0  0  0  0  0  0
  -27.5200  -27.2070   20.0450 C   0  0  0  0  0  0  0  0  0  0  0  0
  -23.6370  -30.3840   21.4310 C   0  0  0  0  0  3  0  0  0  0  0  0
  -25.1480  -28.8780   20.0030 C   0  0  0  0  0  0  0  0  0  0  0  0
  -26.1840  -30.7370   21.2970 C   0  0  0  0  0  2  0  0  0  0  0  0
  -26.3060  -29.3540   20.6320 C   0  0  0  0  0  0  0  0  0  0  0  0
  -27.4930  -28.5280   20.6440 C   0  0  0  0  0  3  0  0  0  0  0  0
  -26.3410  -26.8430   19.3610 C   0  0  0  0  0  3  0  0  0  0  0  0
  -25.1770  -27.6370   19.3570 C   0  0  0  0  0  3  0  0  0  0  0  0
  -23.8970  -29.7340   20.0460 C   0  0  0  0  0  2  0  0  0  0  0  0
  -24.8820  -31.0000   21.9950 N   0  0  0  0  0  0  0  0  0  0  0  0
  -23.6670  -32.0530   23.6080 O   0  0  0  0  0  0  0  0  0  0  0  0
  -22.9880  -29.3420   22.3770 C   0  0  0  0  0  0  0  0  0  0  0  0
  -21.6650  -29.1290   22.2360 N   0  0  0  0  0  0  0  0  0  0  0  0
  -23.6720  -28.7290   23.1990 O   0  0  0  0  0  0  0  0  0  0  0  0
  -21.1730  -29.6670   21.5370 H   0  0  0  0  0  0  0  0  0  0  0  0
  -18.3140  -27.8140   22.6880 C   0  0  0  0  0  0  0  0  0  0  0  0
  -20.8630  -28.1580   22.9900 C   0  0  0  0  0  3  0  0  0  0  0  0
  -21.0190  -26.7330   22.4100 C   0  0  0  0  0  2  0  0  0  0  0  0
  -19.9420  -26.3790   21.3810 C   0  0  0  0  0  2  0  0  0  0  0  0
  -18.5450  -26.4740   22.0060 C   0  0  0  0  0  2  0  0  0  0  0  0
  -19.4030  -28.6080   23.1350 C   0  0  0  0  0  0  0  0  0  0  0  0
  -19.1370  -29.8570   23.7390 C   0  0  0  0  0  3  0  0  0  0  0  0
  -17.8150  -30.3160   23.8950 C   0  0  0  0  0  3  0  0  0  0  0  0
  -16.7410  -29.5170   23.4700 C   0  0  0  0  0  3  0  0  0  0  0  0
  -16.9880  -28.2670   22.8740 C   0  0  0  0  0  3  0  0  0  0  0  0
  -26.0130  -32.4910   23.7290 C   0  0  0  0  0  3  0  0  0  0  0  0
  -26.5400  -31.7300   25.0070 C   0  0  1  0  0  0  0  0  0  0  0  0
  -25.4400  -31.4270   26.0530 C   0  0  0  0  0  1  0  0  0  0  0  0
  -27.1830  -30.3840   24.6100 C   0  0  0  0  0  1  0  0  0  0  0  0
  -27.6590  -32.5560   25.6840 C   0  0  0  0  0  1  0  0  0  0  0  0
  -25.6480  -33.8720   24.0750 N   0  0  0  0  0  0  0  0  0  0  0  0
  -25.9370  -34.9490   23.3280 C   0  0  0  0  0  0  0  0  0  0  0  0
  -26.6100  -34.8820   22.2970 O   0  0  0  0  0  0  0  0  0  0  0  0
  -25.0510  -33.9910   24.8790 H   0  0  0  0  0  0  0  0  0  0  0  0
  -24.1340  -36.6710   22.9930 C   0  0  0  0  0  1  0  0  0  0  0  0
  -25.3940  -36.3150   23.7980 C   0  0  0  0  0  3  0  0  0  0  0  0
  -27.4920  -37.2770   24.6340 C   0  0  0  0  0  1  0  0  0  0  0  0
  -26.3850  -37.4100   23.6890 N   0  0  0  0  0  0  0  0  0  0  0  0
  -25.9510  -38.3150   23.8460 H   0  0  0  0  0  0  0  0  0  0  0  0
  1  2  1  0
  1  3  1  0
  2  4  1  0
  3 46  1  0
  3  6  1  0
  4  9  1  0
  4  6  1  0
  6  5  1  0
  6  7  1  6
  9  8  1  0
 10  9  1  0
 11 16  1  0
 12 13  1  0
 12 11  1  0
 14 13  1  0
 14 21  1  0
 14 15  1  0
 16 10  1  0
 16 15  1  0
 17 10  2  0
 18 19  2  0
 19 38  1  0
 20 19  1  0
 20 23  1  0
 21 18  1  0
 21 22  1  0
 22 20  2  0
 23 24  1  0
 24 25  2  0
 26 29  1  0
 26 25  1  0
 27 26  2  0
 28 27  1  0
 28 23  2  0
 29 30  1  0
 30 35  2  0
 30 31  1  0
 31 32  2  0
 32 33  1  0
 33 37  1  0
 34 33  2  0
 35 34  1  0
 36 35  1  0
 38 39  1  0
 39 42  1  0
 39 41  1  0
 40 38  2  0
 43 44  1  0
 43 18  1  0
 45 43  1  0
 47 46  1  0
 48 49  1  0
 48 47  2  0
 50 61  2  0
 51 49  1  0
 51 56  1  0
 52 60  1  0
 52 62  1  0
 53 59  1  0
 53 55  1  0
 54 60  1  0
 55 56  2  0
 55 54  1  0
 57 51  2  0
 58 57  1  0
 58 53  2  0
 59 52  1  0
 60 50  1  0
 62 64  2  0
 63 62  1  0
 65 63  1  0
 66 75  2  0
 66 71  1  0
 67 63  1  0
 67 71  1  0
 68 67  1  0
 69 70  1  0
 69 68  1  0
 70 66  1  0
 71 72  2  0
 72 73  1  0
 74 73  2  0
 75 74  1  0
 76 50  1  0
 76 81  1  0
 76 77  1  0
 77 80  1  1
 77 78  1  0
 79 77  1  0
 81 84  1  0
 82 86  1  0
 82 81  1  0
 83 82  2  0
 86 85  1  0
 88 86  1  0
 88 89  1  0
 88 87  1  0
M  ISO  4   9 100  10 100  48 101  49 101
M  END
>  <TORSDO>  (78) 
F 20

>  <SCORE>  (78) 
-11.726

>  <name>  (78) 
77

>  <ligand_id>  (78) 
77

>  <original_smiles>  (78) 
[H]c1c([H])c([H])c2c(c1[H])C([H])([H])C([H])([H])C([H])([H])C2([H])N([H])C(=O)C1([H])N(C(=O)C([H])(N([H])C(=O)C([H])(N([H])C([H])([H])[H])C([H])([H])[H])C(C([H])([H])[H])(C([H])([H])[H])C([H])([H])[H])C([H])([H])c2c([H])c(OC([H])([H])C([H])([H])C([H])([H])C3([H])C([H])([H])C([H])([H])C([H])(C([H])(C(=O)N4C([H])([H])C([H])([H])C([H])([H])C([H])(n5nc(-c6c([H])c([H])c(Oc7c([H])c([H])c(F)c([H])c7F)c([H])c6[H])c(C(=O)N([H])[H])c5N([H])[H])C4([H])[H])C([H])([H])[H])[N+]3([H])C([H])([H])[H])c([H])c([H])c2C1([H])[H]

>  <smiles>  (78) 
[H]c1c([H])c([H])c2c(c1[H])C([H])([H])C([H])([H])C([H])([H])C2([H])N([H])C(=O)C1([H])N(C(=O)C([H])(N([H])C(=O)C([H])(N([H])C([H])([H])[H])C([H])([H])[H])C(C([H])([H])[H])(C([H])([H])[H])C([H])([H])[H])C([H])([H])c2c([H])c(OC([H])([H])C([H])([H])C([H])([H])C3([H])C([H])([H])C([H])([H])C([H])(C([H])(C(=O)N4C([H])([H])C([H])([H])C([H])([H])C([H])(n5nc(-c6c([H])c([H])c(Oc7c([H])c([H])c(F)c([H])c7F)c([H])c6[H])c(C(=O)N([H])[H])c5N([H])[H])C4([H])[H])C([H])([H])[H])[N+]3([H])C([H])([H])[H])c([H])c([H])c2C1([H])[H]

$$$$
78:0:0
     RDKit          3D

 88 95  0  0  1  0  0  0  0  0999 V2000
  -28.6290  -21.9570   20.6710 C   0  0  0  0  0  2  0  0  0  0  0  0
  -27.8490  -20.2810   18.8690 C   0  0  0  0  0  1  0  0  0  0  0  0
  -28.9670  -20.5050   19.9110 C   0  0  0  0  0  3  0  0  0  0  0  0
  -29.1910  -19.1600   20.7180 N   0  0  0  0  0  4  0  0  0  0  0  0
  -29.7640  -19.3940   21.5140 H   0  0  0  0  0  0  0  0  0  0  0  0
  -28.2900  -18.9050   21.0960 H   0  0  0  0  0  0  0  0  0  0  0  0
  -31.2380  -18.1720   19.5880 C   0  0  0  0  0  1  0  0  0  0  0  0
  -29.8080  -17.8440   20.0740 C   0  0  0  0  0  3  0  0  0  0  0  0
  -29.7420  -16.3380   20.8540 C   0  0  0  0  0  2  0  0  0  0  0  0
  -30.4940  -14.9240   20.3900 C   0  0  0  0  0  0  0  0  0  0  0  0
  -30.3760  -12.5900   19.3900 C   0  0  0  0  0  2  0  0  0  0  0  0
  -29.4550  -12.6150   18.1450 C   0  0  0  0  0  2  0  0  0  0  0  0
  -27.9800  -12.4320   18.5620 C   0  0  0  0  0  2  0  0  0  0  0  0
  -27.5830  -13.3180   19.7750 C   0  0  0  0  0  3  0  0  0  0  0  0
  -28.6290  -13.2530   20.9050 C   0  0  0  0  0  2  0  0  0  0  0  0
  -29.9100  -13.6610   20.3210 N   0  0  0  0  0  0  0  0  0  0  0  0
  -31.6750  -14.9850   20.0310 O   0  0  0  0  0  0  0  0  0  0  0  0
  -25.1910  -13.9030   20.4710 C   0  0  0  0  0  0  0  0  0  0  0  0
  -24.1200  -13.1410   20.8290 C   0  0  0  0  0  0  0  0  0  0  0  0
  -24.5800  -11.7860   20.8230 C   0  0  0  0  0  0  0  0  0  0  0  0
  -26.2370  -13.0250   20.2540 N   0  0  0  0  0  0  0  0  0  0  0  0
  -25.8760  -11.7450   20.5290 N   0  0  0  0  0  0  0  0  0  0  0  0
  -23.8520  -10.5250   21.0160 C   0  0  0  0  0  0  0  0  0  0  0  0
  -24.2770   -9.5590   21.9560 C   0  0  0  0  0  3  0  0  0  0  0  0
  -23.5440   -8.3680   22.1480 C   0  0  0  0  0  3  0  0  0  0  0  0
  -22.3690   -8.1310   21.3990 C   0  0  0  0  0  0  0  0  0  0  0  0
  -21.9590   -9.0830   20.4500 C   0  0  0  0  0  3  0  0  0  0  0  0
  -22.6940  -10.2650   20.2550 C   0  0  0  0  0  3  0  0  0  0  0  0
  -21.6140   -6.9860   21.4930 O   0  0  0  0  0  0  0  0  0  0  0  0
  -21.5740   -6.2400   22.6430 C   0  0  0  0  0  0  0  0  0  0  0  0
  -21.1840   -6.7980   23.8800 C   0  0  0  0  0  3  0  0  0  0  0  0
  -21.0980   -5.9800   25.0230 C   0  0  0  0  0  3  0  0  0  0  0  0
  -21.3830   -4.6060   24.9290 C   0  0  0  0  0  0  0  0  0  0  0  0
  -21.7610   -4.0470   23.6960 C   0  0  0  0  0  3  0  0  0  0  0  0
  -21.8550   -4.8630   22.5560 C   0  0  0  0  0  0  0  0  0  0  0  0
  -22.2020   -4.3160   21.3680 F   0  0  0  0  0  0  0  0  0  0  0  0
  -21.2930   -3.8170   26.0240 F   0  0  0  0  0  0  0  0  0  0  0  0
  -22.7160  -13.6230   21.0610 C   0  0  0  0  0  0  0  0  0  0  0  0
  -21.9700  -12.9570   21.9300 N   0  0  0  0  0  0  0  0  0  0  0  0
  -22.2900  -14.6370   20.5070 O   0  0  0  0  0  0  0  0  0  0  0  0
  -22.3180  -12.1410   22.4110 H   0  0  0  0  0  0  0  0  0  0  0  0
  -21.0290  -13.2720   22.1180 H   0  0  0  0  0  0  0  0  0  0  0  0
  -25.3590  -15.2700   20.2820 N   0  0  0  0  0  0  0  0  0  0  0  0
  -24.5760  -15.9050   20.3820 H   0  0  0  0  0  0  0  0  0  0  0  0
  -26.1970  -15.7100   19.9180 H   0  0  0  0  0  0  0  0  0  0  0  0
  -28.6070  -23.4490   19.9180 C   0  0  0  0  0  3  0  0  0  0  0  0
  -28.0190  -24.8250   20.6370 C   0  0  0  0  0  3  0  0  0  0  0  0
  -28.2670  -26.2780   20.2090 O   0  0  0  0  0  0  0  0  0  0  0  0
  -24.6170  -31.8690   23.2130 C   0  0  0  0  0  0  0  0  0  0  0  0
  -27.1960  -27.2170   20.1880 C   0  0  0  0  0  0  0  0  0  0  0  0
  -23.4080  -30.4780   21.5710 C   0  0  0  0  0  3  0  0  0  0  0  0
  -24.8570  -28.9060   20.1460 C   0  0  0  0  0  0  0  0  0  0  0  0
  -25.9560  -30.7630   21.3930 C   0  0  0  0  0  2  0  0  0  0  0  0
  -26.0300  -29.3730   20.7560 C   0  0  0  0  0  0  0  0  0  0  0  0
  -27.2060  -28.5450   20.7600 C   0  0  0  0  0  3  0  0  0  0  0  0
  -26.0080  -26.8360   19.5350 C   0  0  0  0  0  3  0  0  0  0  0  0
  -24.8570  -27.6520   19.5170 C   0  0  0  0  0  3  0  0  0  0  0  0
  -23.6220  -29.7920   20.1930 C   0  0  0  0  0  2  0  0  0  0  0  0
  -24.6810  -31.0570   22.1130 N   0  0  0  0  0  0  0  0  0  0  0  0
  -23.5330  -32.1510   23.7430 O   0  0  0  0  0  0  0  0  0  0  0  0
  -22.7380  -29.4700   22.5360 C   0  0  0  0  0  0  0  0  0  0  0  0
  -21.4100  -29.3030   22.4190 N   0  0  0  0  0  0  0  0  0  0  0  0
  -23.4130  -28.8340   23.3520 O   0  0  0  0  0  0  0  0  0  0  0  0
  -20.9180  -29.8810   21.7500 H   0  0  0  0  0  0  0  0  0  0  0  0
  -18.0330  -28.1110   22.9330 C   0  0  0  0  0  0  0  0  0  0  0  0
  -20.5920  -28.3670   23.1940 C   0  0  0  0  0  3  0  0  0  0  0  0
  -20.6880  -26.9330   22.6190 C   0  0  0  0  0  2  0  0  0  0  0  0
  -19.5820  -26.6080   21.6090 C   0  0  0  0  0  2  0  0  0  0  0  0
  -18.2020  -26.7600   22.2580 C   0  0  0  0  0  2  0  0  0  0  0  0
  -19.1550  -28.8700   23.3590 C   0  0  0  0  0  0  0  0  0  0  0  0
  -18.9420  -30.1330   23.9510 C   0  0  0  0  0  3  0  0  0  0  0  0
  -17.6390  -30.6340   24.1310 C   0  0  0  0  0  3  0  0  0  0  0  0
  -16.5300  -29.8760   23.7150 C   0  0  0  0  0  3  0  0  0  0  0  0
  -16.7280  -28.6180   23.1200 C   0  0  0  0  0  3  0  0  0  0  0  0
  -25.8980  -32.5010   23.8400 C   0  0  0  0  0  3  0  0  0  0  0  0
  -26.4090  -31.7310   25.1190 C   0  0  1  0  0  0  0  0  0  0  0  0
  -25.3140  -31.5050   26.1880 C   0  0  0  0  0  1  0  0  0  0  0  0
  -26.9890  -30.3490   24.7340 C   0  0  0  0  0  1  0  0  0  0  0  0
  -27.5600  -32.5250   25.7810 C   0  0  0  0  0  1  0  0  0  0  0  0
  -25.5830  -33.9000   24.1720 N   0  0  0  0  0  0  0  0  0  0  0  0
  -25.9140  -34.9580   23.4190 C   0  0  0  0  0  0  0  0  0  0  0  0
  -26.5840  -34.8600   22.3870 O   0  0  0  0  0  0  0  0  0  0  0  0
  -24.9920  -34.0480   24.9750 H   0  0  0  0  0  0  0  0  0  0  0  0
  -24.1860  -36.7610   23.0790 C   0  0  0  0  0  1  0  0  0  0  0  0
  -25.4260  -36.3450   23.8860 C   0  0  0  0  0  3  0  0  0  0  0  0
  -27.5650  -37.2320   24.7060 C   0  0  0  0  0  1  0  0  0  0  0  0
  -26.4550  -37.3990   23.7720 N   0  0  0  0  0  0  0  0  0  0  0  0
  -26.0480  -38.3180   23.9290 H   0  0  0  0  0  0  0  0  0  0  0  0
  3  2  1  0
  3  1  1  0
  3  4  1  0
  4  6  1  0
  4  5  1  0
  8  7  1  0
  8  4  1  0
  8  9  1  0
 10  9  1  0
 11 16  1  0
 12 13  1  0
 12 11  1  0
 14 13  1  0
 14 21  1  0
 14 15  1  0
 16 10  1  0
 16 15  1  0
 17 10  2  0
 18 19  2  0
 19 38  1  0
 20 19  1  0
 20 23  1  0
 21 18  1  0
 21 22  1  0
 22 20  2  0
 23 24  1  0
 24 25  2  0
 26 29  1  0
 26 25  1  0
 27 26  2  0
 28 27  1  0
 28 23  2  0
 29 30  1  0
 30 31  1  0
 31 32  2  0
 33 32  1  0
 33 37  1  0
 34 33  2  0
 35 30  2  0
 35 34  1  0
 36 35  1  0
 38 39  1  0
 39 42  1  0
 39 41  1  0
 40 38  2  0
 43 44  1  0
 43 18  1  0
 45 43  1  0
 46 47  2  0
 46  1  1  0
 48 47  1  0
 49 60  2  0
 50 48  1  0
 50 55  1  0
 51 59  1  0
 51 61  1  0
 52 58  1  0
 52 54  1  0
 53 59  1  0
 54 55  2  0
 54 53  1  0
 56 50  2  0
 57 56  1  0
 57 52  2  0
 58 51  1  0
 59 49  1  0
 61 63  2  0
 62 61  1  0
 64 62  1  0
 65 74  2  0
 65 70  1  0
 66 62  1  0
 66 70  1  0
 67 66  1  0
 68 69  1  0
 68 67  1  0
 69 65  1  0
 70 71  2  0
 71 72  1  0
 73 72  2  0
 74 73  1  0
 75 49  1  0
 75 80  1  0
 75 76  1  0
 76 79  1  1
 76 77  1  0
 78 76  1  0
 80 83  1  0
 81 85  1  0
 81 80  1  0
 82 81  2  0
 85 84  1  0
 87 85  1  0
 87 88  1  0
 87 86  1  0
M  ISO  4   9 100  10 100  47 101  48 101
M  END
>  <TORSDO>  (79) 
F 22

>  <SCORE>  (79) 
-13.614

>  <name>  (79) 
78

>  <ligand_id>  (79) 
78

>  <original_smiles>  (79) 
[H]c1c([H])c([H])c2c(c1[H])C([H])([H])C([H])([H])C([H])([H])C2([H])N([H])C(=O)C1([H])N(C(=O)C([H])(N([H])C(=O)C([H])(N([H])C([H])([H])[H])C([H])([H])[H])C(C([H])([H])[H])(C([H])([H])[H])C([H])([H])[H])C([H])([H])c2c([H])c(OC([H])([H])C([H])([H])C([H])([H])C([H])(C([H])([H])[H])[N+]([H])([H])C([H])(C([H])([H])[H])C([H])([H])C(=O)N3C([H])([H])C([H])([H])C([H])([H])C([H])(n4nc(-c5c([H])c([H])c(Oc6c([H])c([H])c(F)c([H])c6F)c([H])c5[H])c(C(=O)N([H])[H])c4N([H])[H])C3([H])[H])c([H])c([H])c2C1([H])[H]

>  <smiles>  (79) 
[H]c1c([H])c([H])c2c(c1[H])C([H])([H])C([H])([H])C([H])([H])C2([H])N([H])C(=O)C1([H])N(C(=O)C([H])(N([H])C(=O)C([H])(N([H])C([H])([H])[H])C([H])([H])[H])C(C([H])([H])[H])(C([H])([H])[H])C([H])([H])[H])C([H])([H])c2c([H])c(OC([H])([H])C([H])([H])C([H])([H])C([H])(C([H])([H])[H])[N+]([H])([H])C([H])(C([H])([H])[H])C([H])([H])C(=O)N3C([H])([H])C([H])([H])C([H])([H])C([H])(n4nc(-c5c([H])c([H])c(Oc6c([H])c([H])c(F)c([H])c6F)c([H])c5[H])c(C(=O)N([H])[H])c4N([H])[H])C3([H])[H])c([H])c([H])c2C1([H])[H]

$$$$
79:0:0
     RDKit          3D

 93100  0  0  1  0  0  0  0  0999 V2000
  -29.6890  -20.6050   21.4890 C   0  0  0  0  0  0  0  0  0  0  0  0
  -29.6800  -21.5840   22.4050 N   0  0  0  0  0  0  0  0  0  0  0  0
  -28.8280  -20.5150   20.6090 O   0  0  0  0  0  0  0  0  0  0  0  0
  -30.4210  -21.5980   23.0980 H   0  0  0  0  0  0  0  0  0  0  0  0
  -30.7750  -19.5330   21.5780 C   0  0  0  0  0  2  0  0  0  0  0  0
  -30.2210  -18.3060   20.9770 N   0  0  0  0  0  4  0  0  0  0  0  0
  -30.3100  -18.4450   19.9810 H   0  0  0  0  0  0  0  0  0  0  0  0
  -29.2280  -18.3300   21.1750 H   0  0  0  0  0  0  0  0  0  0  0  0
  -30.8300  -16.9900   21.3100 C   0  0  0  0  0  3  0  0  0  0  0  0
  -31.1820  -17.3640   23.8920 C   0  0  0  0  0  1  0  0  0  0  0  0
  -30.5350  -16.5320   22.7710 C   0  0  0  0  0  2  0  0  0  0  0  0
  -30.2450  -15.9570   20.3130 C   0  0  0  0  0  2  0  0  0  0  0  0
  -31.0360  -14.6560   20.0510 C   0  0  0  0  0  0  0  0  0  0  0  0
  -30.6790  -12.4850   18.9560 C   0  0  0  0  0  2  0  0  0  0  0  0
  -29.7070  -12.7100   17.7700 C   0  0  0  0  0  2  0  0  0  0  0  0
  -28.2470  -12.5890   18.2460 C   0  0  0  0  0  2  0  0  0  0  0  0
  -27.9610  -13.4560   19.5020 C   0  0  0  0  0  3  0  0  0  0  0  0
  -29.0440  -13.2310   20.5890 C   0  0  0  0  0  2  0  0  0  0  0  0
  -30.3600  -13.4800   19.9860 N   0  0  0  0  0  0  0  0  0  0  0  0
  -32.1960  -14.7760   19.6410 O   0  0  0  0  0  0  0  0  0  0  0  0
  -25.6060  -14.1390   20.2720 C   0  0  0  0  0  0  0  0  0  0  0  0
  -24.5310  -13.3940   20.6760 C   0  0  0  0  0  0  0  0  0  0  0  0
  -24.9560  -12.0310   20.6420 C   0  0  0  0  0  0  0  0  0  0  0  0
  -26.6170  -13.2260   20.0130 N   0  0  0  0  0  0  0  0  0  0  0  0
  -26.2350  -11.9560   20.2960 N   0  0  0  0  0  0  0  0  0  0  0  0
  -24.2060  -10.7910   20.8570 C   0  0  0  0  0  0  0  0  0  0  0  0
  -24.6230   -9.8380   21.8090 C   0  0  0  0  0  3  0  0  0  0  0  0
  -23.8820   -8.6560   22.0130 C   0  0  0  0  0  3  0  0  0  0  0  0
  -22.7040   -8.4250   21.2640 C   0  0  0  0  0  0  0  0  0  0  0  0
  -22.3040   -9.3650   20.2970 C   0  0  0  0  0  3  0  0  0  0  0  0
  -23.0490  -10.5360   20.0920 C   0  0  0  0  0  3  0  0  0  0  0  0
  -21.9330   -7.2960   21.3690 O   0  0  0  0  0  0  0  0  0  0  0  0
  -21.8310   -6.6040   22.5500 C   0  0  0  0  0  0  0  0  0  0  0  0
  -21.3940   -7.2210   23.7400 C   0  0  0  0  0  3  0  0  0  0  0  0
  -21.2340   -6.4550   24.9120 C   0  0  0  0  0  3  0  0  0  0  0  0
  -21.5100   -5.0740   24.8950 C   0  0  0  0  0  0  0  0  0  0  0  0
  -21.9400   -4.4580   23.7090 C   0  0  0  0  0  3  0  0  0  0  0  0
  -22.0930   -5.2200   22.5390 C   0  0  0  0  0  0  0  0  0  0  0  0
  -22.4850   -4.6160   21.3920 F   0  0  0  0  0  0  0  0  0  0  0  0
  -21.3570   -4.3360   26.0190 F   0  0  0  0  0  0  0  0  0  0  0  0
  -23.1520  -13.9020   20.9800 C   0  0  0  0  0  0  0  0  0  0  0  0
  -22.4400  -13.2360   21.8810 N   0  0  0  0  0  0  0  0  0  0  0  0
  -22.7150  -14.9280   20.4620 O   0  0  0  0  0  0  0  0  0  0  0  0
  -22.8060  -12.4140   22.3360 H   0  0  0  0  0  0  0  0  0  0  0  0
  -21.5150  -13.5650   22.1240 H   0  0  0  0  0  0  0  0  0  0  0  0
  -25.7950  -15.5070   20.0920 N   0  0  0  0  0  0  0  0  0  0  0  0
  -25.0360  -16.1650   20.2410 H   0  0  0  0  0  0  0  0  0  0  0  0
  -26.6360  -15.9530   19.7510 H   0  0  0  0  0  0  0  0  0  0  0  0
  -28.6640  -22.6340   22.4950 C   0  0  0  0  0  2  0  0  0  0  0  0
  -29.2240  -23.9810   22.0010 C   0  0  0  0  0  2  0  0  0  0  0  0
  -28.1370  -25.0570   21.7910 C   0  0  0  0  0  2  0  0  0  0  0  0
  -28.7050  -26.3900   21.2420 C   0  0  0  0  0  2  0  0  0  0  0  0
  -28.1010  -26.7410   19.9970 O   0  0  0  0  0  0  0  0  0  0  0  0
  -24.4830  -31.9810   23.2040 C   0  0  0  0  0  0  0  0  0  0  0  0
  -26.9620  -27.5010   20.0800 C   0  0  0  0  0  0  0  0  0  0  0  0
  -23.2060  -30.5950   21.5960 C   0  0  0  0  0  3  0  0  0  0  0  0
  -24.5900  -29.0340   20.1350 C   0  0  0  0  0  0  0  0  0  0  0  0
  -25.7240  -30.9130   21.3300 C   0  0  0  0  0  2  0  0  0  0  0  0
  -25.7650  -29.5370   20.7060 C   0  0  0  0  0  0  0  0  0  0  0  0
  -26.9520  -28.7750   20.6880 C   0  0  0  0  0  3  0  0  0  0  0  0
  -25.7760  -27.0070   19.4970 C   0  0  0  0  0  3  0  0  0  0  0  0
  -24.5850  -27.7630   19.5350 C   0  0  0  0  0  3  0  0  0  0  0  0
  -23.3600  -29.9110   20.2120 C   0  0  0  0  0  2  0  0  0  0  0  0
  -24.4890  -31.1800   22.1010 N   0  0  0  0  0  0  0  0  0  0  0  0
  -23.4240  -32.2710   23.7780 O   0  0  0  0  0  0  0  0  0  0  0  0
  -22.5700  -29.5880   22.5780 C   0  0  0  0  0  0  0  0  0  0  0  0
  -21.2440  -29.4060   22.4730 N   0  0  0  0  0  0  0  0  0  0  0  0
  -23.2630  -28.9690   23.3870 O   0  0  0  0  0  0  0  0  0  0  0  0
  -20.7510  -29.9550   21.7850 H   0  0  0  0  0  0  0  0  0  0  0  0
  -17.8740  -28.2240   23.0030 C   0  0  0  0  0  0  0  0  0  0  0  0
  -20.4330  -28.4820   23.2610 C   0  0  0  0  0  3  0  0  0  0  0  0
  -20.5360  -27.0450   22.7020 C   0  0  0  0  0  2  0  0  0  0  0  0
  -19.4290  -26.7090   21.7000 C   0  0  0  0  0  2  0  0  0  0  0  0
  -18.0470  -26.8640   22.3480 C   0  0  0  0  0  2  0  0  0  0  0  0
  -18.9960  -28.9900   23.4170 C   0  0  0  0  0  0  0  0  0  0  0  0
  -18.7850  -30.2630   23.9860 C   0  0  0  0  0  3  0  0  0  0  0  0
  -17.4830  -30.7680   24.1560 C   0  0  0  0  0  3  0  0  0  0  0  0
  -16.3740  -29.9970   23.7660 C   0  0  0  0  0  3  0  0  0  0  0  0
  -16.5720  -28.7300   23.1900 C   0  0  0  0  0  3  0  0  0  0  0  0
  -25.7990  -32.5880   23.7830 C   0  0  0  0  0  3  0  0  0  0  0  0
  -26.3520  -31.7940   25.0290 C   0  0  1  0  0  0  0  0  0  0  0  0
  -25.2970  -31.5440   26.1320 C   0  0  0  0  0  1  0  0  0  0  0  0
  -26.9180  -30.4220   24.5910 C   0  0  0  0  0  1  0  0  0  0  0  0
  -27.5280  -32.5700   25.6700 C   0  0  0  0  0  1  0  0  0  0  0  0
  -25.5190  -33.9840   24.1460 N   0  0  0  0  0  0  0  0  0  0  0  0
  -25.8500  -35.0470   23.3990 C   0  0  0  0  0  0  0  0  0  0  0  0
  -26.5010  -34.9510   22.3550 O   0  0  0  0  0  0  0  0  0  0  0  0
  -24.9440  -34.1330   24.9610 H   0  0  0  0  0  0  0  0  0  0  0  0
  -24.1420  -36.8700   23.1020 C   0  0  0  0  0  1  0  0  0  0  0  0
  -25.3900  -36.4350   23.8880 C   0  0  0  0  0  3  0  0  0  0  0  0
  -27.5490  -37.2700   24.6990 C   0  0  0  0  0  1  0  0  0  0  0  0
  -26.4340  -37.4740   23.7770 N   0  0  0  0  0  0  0  0  0  0  0  0
  -26.0460  -38.3970   23.9540 H   0  0  0  0  0  0  0  0  0  0  0  0
  1  5  1  0
  1  2  1  0
  2 49  1  0
  2  4  1  0
  3  1  2  0
  6  8  1  0
  6  9  1  0
  6  5  1  0
  7  6  1  0
  9 12  1  0
  9 11  1  0
 11 10  1  0
 13 12  1  0
 14 19  1  0
 15 16  1  0
 15 14  1  0
 17 16  1  0
 17 24  1  0
 17 18  1  0
 19 13  1  0
 19 18  1  0
 20 13  2  0
 21 22  2  0
 22 41  1  0
 23 22  1  0
 23 26  1  0
 24 21  1  0
 24 25  1  0
 25 23  2  0
 26 27  1  0
 27 28  2  0
 29 32  1  0
 29 28  1  0
 30 29  2  0
 31 30  1  0
 31 26  2  0
 32 33  1  0
 33 34  1  0
 34 35  2  0
 36 35  1  0
 36 40  1  0
 37 36  2  0
 38 33  2  0
 38 37  1  0
 39 38  1  0
 41 42  1  0
 42 45  1  0
 42 44  1  0
 43 41  2  0
 46 47  1  0
 46 21  1  0
 48 46  1  0
 50 49  1  0
 51 50  1  0
 52 51  1  0
 53 55  1  0
 53 52  1  0
 54 65  2  0
 55 60  1  0
 56 64  1  0
 56 66  1  0
 57 63  1  0
 57 59  1  0
 58 64  1  0
 59 58  1  0
 60 59  2  0
 61 62  1  0
 61 55  2  0
 62 57  2  0
 63 56  1  0
 64 54  1  0
 66 68  2  0
 67 66  1  0
 69 67  1  0
 70 79  2  0
 70 75  1  0
 71 67  1  0
 71 75  1  0
 72 71  1  0
 73 74  1  0
 73 72  1  0
 74 70  1  0
 75 76  2  0
 76 77  1  0
 78 77  2  0
 79 78  1  0
 80 54  1  0
 80 85  1  0
 80 81  1  0
 81 84  1  1
 81 82  1  0
 83 81  1  0
 85 88  1  0
 86 90  1  0
 86 85  1  0
 87 86  2  0
 90 89  1  0
 92 90  1  0
 92 93  1  0
 92 91  1  0
M  ISO  4  12 100  13 100  52 101  53 101
M  END
>  <TORSDO>  (80) 
F 25

>  <SCORE>  (80) 
-10.617

>  <name>  (80) 
79

>  <ligand_id>  (80) 
79

>  <original_smiles>  (80) 
[H]c1c([H])c([H])c2c(c1[H])C([H])([H])C([H])([H])C([H])([H])C2([H])N([H])C(=O)C1([H])N(C(=O)C([H])(N([H])C(=O)C([H])(N([H])C([H])([H])[H])C([H])([H])[H])C(C([H])([H])[H])(C([H])([H])[H])C([H])([H])[H])C([H])([H])c2c([H])c(OC([H])([H])C([H])([H])C([H])([H])C([H])([H])N([H])C(=O)C([H])([H])[N+]([H])([H])C([H])(C([H])([H])C(=O)N3C([H])([H])C([H])([H])C([H])([H])C([H])(n4nc(-c5c([H])c([H])c(Oc6c([H])c([H])c(F)c([H])c6F)c([H])c5[H])c(C(=O)N([H])[H])c4N([H])[H])C3([H])[H])C([H])([H])C([H])([H])[H])c([H])c([H])c2C1([H])[H]

>  <smiles>  (80) 
[H]c1c([H])c([H])c2c(c1[H])C([H])([H])C([H])([H])C([H])([H])C2([H])N([H])C(=O)C1([H])N(C(=O)C([H])(N([H])C(=O)C([H])(N([H])C([H])([H])[H])C([H])([H])[H])C(C([H])([H])[H])(C([H])([H])[H])C([H])([H])[H])C([H])([H])c2c([H])c(OC([H])([H])C([H])([H])C([H])([H])C([H])([H])N([H])C(=O)C([H])([H])[N+]([H])([H])C([H])(C([H])([H])C(=O)N3C([H])([H])C([H])([H])C([H])([H])C([H])(n4nc(-c5c([H])c([H])c(Oc6c([H])c([H])c(F)c([H])c6F)c([H])c5[H])c(C(=O)N([H])[H])c4N([H])[H])C3([H])[H])C([H])([H])C([H])([H])[H])c([H])c([H])c2C1([H])[H]

$$$$
80:0:0
     RDKit          3D

 90 98  0  0  1  0  0  0  0  0999 V2000
  -29.2500  -20.6220   19.2000 C   0  0  0  0  0  2  0  0  0  0  0  0
  -30.1370  -19.3550   19.1440 C   0  0  0  0  0  2  0  0  0  0  0  0
  -30.3980  -19.4670   21.5240 C   0  0  0  0  0  2  0  0  0  0  0  0
  -29.5450  -20.7890   21.5460 C   0  0  0  0  0  3  0  0  0  0  0  0
  -30.0050  -21.6800   22.7170 C   0  0  0  0  0  1  0  0  0  0  0  0
  -29.6320  -21.5570   20.2770 N   0  0  0  0  0  0  0  0  0  0  0  0
  -30.0410  -18.5590   20.3970 N   0  0  2  0  0  4  0  0  0  0  0  0
  -29.0680  -18.3120   20.5000 H   0  0  0  0  0  0  0  0  0  0  0  0
  -28.6860  -22.7110   20.2210 C   0  0  0  0  0  2  0  0  0  0  0  0
  -29.2780  -24.1610   20.3040 C   0  0  0  0  0  2  0  0  0  0  0  0
  -28.1780  -25.2170   19.9540 C   0  0  0  0  0  2  0  0  0  0  0  0
  -28.4180  -26.6470   20.1260 O   0  0  0  0  0  0  0  0  0  0  0  0
  -24.6390  -31.8990   23.2150 C   0  0  0  0  0  0  0  0  0  0  0  0
  -27.2810  -27.4550   20.0770 C   0  0  0  0  0  0  0  0  0  0  0  0
  -23.4370  -30.5120   21.5650 C   0  0  0  0  0  3  0  0  0  0  0  0
  -24.8930  -29.0080   20.1080 C   0  0  0  0  0  0  0  0  0  0  0  0
  -25.9690  -30.8730   21.3650 C   0  0  0  0  0  2  0  0  0  0  0  0
  -26.0580  -29.5090   20.7010 C   0  0  0  0  0  0  0  0  0  0  0  0
  -27.2550  -28.7440   20.6790 C   0  0  0  0  0  3  0  0  0  0  0  0
  -26.0890  -27.0020   19.4560 C   0  0  0  0  0  3  0  0  0  0  0  0
  -24.9070  -27.7560   19.4800 C   0  0  0  0  0  3  0  0  0  0  0  0
  -23.6460  -29.8610   20.1740 C   0  0  0  0  0  2  0  0  0  0  0  0
  -24.7010  -31.1090   22.1050 N   0  0  0  0  0  0  0  0  0  0  0  0
  -23.5580  -32.1570   23.7610 O   0  0  0  0  0  0  0  0  0  0  0  0
  -22.7940  -29.4720   22.5120 C   0  0  0  0  0  0  0  0  0  0  0  0
  -21.4680  -29.2910   22.3940 N   0  0  0  0  0  0  0  0  0  0  0  0
  -23.4850  -28.8330   23.3090 O   0  0  0  0  0  0  0  0  0  0  0  0
  -20.9700  -29.8600   21.7240 H   0  0  0  0  0  0  0  0  0  0  0  0
  -18.0970  -28.0830   22.9070 C   0  0  0  0  0  0  0  0  0  0  0  0
  -20.6580  -28.3400   23.1580 C   0  0  0  0  0  3  0  0  0  0  0  0
  -20.7550  -26.9180   22.5600 C   0  0  0  0  0  2  0  0  0  0  0  0
  -19.6430  -26.6090   21.5510 C   0  0  0  0  0  2  0  0  0  0  0  0
  -18.2680  -26.7440   22.2100 C   0  0  0  0  0  2  0  0  0  0  0  0
  -19.2200  -28.8400   23.3380 C   0  0  0  0  0  0  0  0  0  0  0  0
  -19.0050  -30.0940   23.9510 C   0  0  0  0  0  3  0  0  0  0  0  0
  -17.7020  -30.5920   24.1360 C   0  0  0  0  0  3  0  0  0  0  0  0
  -16.5940  -29.8320   23.7210 C   0  0  0  0  0  3  0  0  0  0  0  0
  -16.7930  -28.5790   23.1140 C   0  0  0  0  0  3  0  0  0  0  0  0
  -25.9220  -32.5320   23.8380 C   0  0  0  0  0  3  0  0  0  0  0  0
  -25.6020  -33.9230   24.1870 N   0  0  0  0  0  0  0  0  0  0  0  0
  -25.9120  -34.9860   23.4330 C   0  0  0  0  0  0  0  0  0  0  0  0
  -26.5680  -34.9000   22.3910 O   0  0  0  0  0  0  0  0  0  0  0  0
  -25.0170  -34.0630   24.9980 H   0  0  0  0  0  0  0  0  0  0  0  0
  -24.1610  -36.7640   23.1210 C   0  0  0  0  0  1  0  0  0  0  0  0
  -25.4170  -36.3640   23.9110 C   0  0  0  0  0  3  0  0  0  0  0  0
  -27.5520  -37.2640   24.7240 C   0  0  0  0  0  1  0  0  0  0  0  0
  -26.4370  -37.4290   23.7940 N   0  0  0  0  0  0  0  0  0  0  0  0
  -26.0230  -38.3440   23.9540 H   0  0  0  0  0  0  0  0  0  0  0  0
  -26.4510  -31.7470   25.1000 C   0  0  1  0  0  0  0  0  0  0  0  0
  -25.3660  -31.4840   26.1710 C   0  0  0  0  0  1  0  0  0  0  0  0
  -27.0430  -30.3800   24.6840 C   0  0  0  0  0  1  0  0  0  0  0  0
  -27.6000  -32.5410   25.7650 C   0  0  0  0  0  1  0  0  0  0  0  0
  -30.8460  -17.2810   20.3260 C   0  0  0  0  0  2  0  0  0  0  0  0
  -30.2190  -15.9730   20.9410 C   0  0  0  0  0  2  0  0  0  0  0  0
  -30.9090  -14.6630   20.4310 C   0  0  0  0  0  0  0  0  0  0  0  0
  -30.6030  -12.4890   19.2890 C   0  0  0  0  0  2  0  0  0  0  0  0
  -29.6790  -12.6990   18.0690 C   0  0  0  0  0  2  0  0  0  0  0  0
  -28.2000  -12.5610   18.4800 C   0  0  0  0  0  2  0  0  0  0  0  0
  -27.8500  -13.3980   19.7390 C   0  0  0  0  0  3  0  0  0  0  0  0
  -28.8960  -13.2050   20.8600 C   0  0  0  0  0  2  0  0  0  0  0  0
  -30.2260  -13.4880   20.3060 N   0  0  0  0  0  0  0  0  0  0  0  0
  -32.0620  -14.7680   20.0060 O   0  0  0  0  0  0  0  0  0  0  0  0
  -25.4430  -14.0050   20.4100 C   0  0  0  0  0  0  0  0  0  0  0  0
  -24.3710  -13.2370   20.7750 C   0  0  0  0  0  0  0  0  0  0  0  0
  -24.8360  -11.8860   20.7730 C   0  0  0  0  0  0  0  0  0  0  0  0
  -26.4930  -13.1250   20.2080 N   0  0  0  0  0  0  0  0  0  0  0  0
  -26.1310  -11.8460   20.4850 N   0  0  0  0  0  0  0  0  0  0  0  0
  -24.1080  -10.6250   20.9720 C   0  0  0  0  0  0  0  0  0  0  0  0
  -24.5240   -9.6770   21.9310 C   0  0  0  0  0  3  0  0  0  0  0  0
  -23.7980   -8.4800   22.1170 C   0  0  0  0  0  3  0  0  0  0  0  0
  -22.6400   -8.2270   21.3430 C   0  0  0  0  0  0  0  0  0  0  0  0
  -22.2430   -9.1640   20.3730 C   0  0  0  0  0  3  0  0  0  0  0  0
  -22.9720  -10.3510   20.1860 C   0  0  0  0  0  3  0  0  0  0  0  0
  -21.8860   -7.0820   21.4370 O   0  0  0  0  0  0  0  0  0  0  0  0
  -21.8040   -6.3670   22.6060 C   0  0  0  0  0  0  0  0  0  0  0  0
  -21.3270   -6.9460   23.8030 C   0  0  0  0  0  3  0  0  0  0  0  0
  -21.1940   -6.1580   24.9630 C   0  0  0  0  0  3  0  0  0  0  0  0
  -21.5280   -4.7910   24.9270 C   0  0  0  0  0  0  0  0  0  0  0  0
  -21.9970   -4.2110   23.7350 C   0  0  0  0  0  3  0  0  0  0  0  0
  -22.1320   -4.9970   22.5780 C   0  0  0  0  0  0  0  0  0  0  0  0
  -22.5650   -4.4280   21.4270 F   0  0  0  0  0  0  0  0  0  0  0  0
  -21.3930   -4.0310   26.0390 F   0  0  0  0  0  0  0  0  0  0  0  0
  -22.9680  -13.7160   21.0170 C   0  0  0  0  0  0  0  0  0  0  0  0
  -22.2310  -13.0390   21.8910 N   0  0  0  0  0  0  0  0  0  0  0  0
  -22.5340  -14.7270   20.4660 O   0  0  0  0  0  0  0  0  0  0  0  0
  -22.5940  -12.2220   22.3590 H   0  0  0  0  0  0  0  0  0  0  0  0
  -21.2900  -13.3430   22.0940 H   0  0  0  0  0  0  0  0  0  0  0  0
  -25.6060  -15.3740   20.2130 N   0  0  0  0  0  0  0  0  0  0  0  0
  -24.8350  -16.0260   20.3010 H   0  0  0  0  0  0  0  0  0  0  0  0
  -26.4560  -15.8090   19.8790 H   0  0  0  0  0  0  0  0  0  0  0  0
  1  6  1  0
  2  1  1  0
  2  7  1  0
  3  4  1  0
  4  5  1  0
  6  4  1  0
  7  8  1  1
  7  3  1  0
  9  6  1  0
  9 10  1  0
 11 12  1  0
 11 10  1  0
 13 24  2  0
 14 12  1  0
 14 19  1  0
 15 23  1  0
 15 25  1  0
 16 22  1  0
 16 18  1  0
 17 23  1  0
 18 17  1  0
 19 18  2  0
 20 21  1  0
 20 14  2  0
 21 16  2  0
 22 15  1  0
 23 13  1  0
 25 27  2  0
 26 25  1  0
 28 26  1  0
 29 38  2  0
 29 34  1  0
 30 26  1  0
 30 34  1  0
 31 30  1  0
 32 33  1  0
 32 31  1  0
 33 29  1  0
 34 35  2  0
 35 36  1  0
 37 36  2  0
 38 37  1  0
 39 13  1  0
 39 40  1  0
 39 49  1  0
 40 43  1  0
 41 45  1  0
 41 40  1  0
 42 41  2  0
 45 44  1  0
 47 45  1  0
 47 48  1  0
 47 46  1  0
 49 52  1  1
 49 50  1  0
 51 49  1  0
 53  7  1  0
 53 54  1  0
 55 54  1  0
 56 61  1  0
 57 58  1  0
 57 56  1  0
 59 58  1  0
 59 66  1  0
 59 60  1  0
 61 55  1  0
 61 60  1  0
 62 55  2  0
 63 64  2  0
 64 83  1  0
 65 64  1  0
 65 68  1  0
 66 63  1  0
 66 67  1  0
 67 65  2  0
 68 69  1  0
 69 70  2  0
 71 74  1  0
 71 70  1  0
 72 71  2  0
 73 72  1  0
 73 68  2  0
 74 75  1  0
 75 76  1  0
 76 77  2  0
 78 77  1  0
 78 82  1  0
 79 78  2  0
 80 75  2  0
 80 79  1  0
 81 80  1  0
 83 84  1  0
 84 87  1  0
 84 86  1  0
 85 83  2  0
 88 89  1  0
 88 63  1  0
 90 88  1  0
M  ISO  4  11 101  12 101  54 100  55 100
M  END
>  <TORSDO>  (81) 
F 21

>  <SCORE>  (81) 
-13.421

>  <name>  (81) 
80

>  <ligand_id>  (81) 
80

>  <original_smiles>  (81) 
[H]c1c([H])c([H])c2c(c1[H])C([H])([H])C([H])([H])C([H])([H])C2([H])N([H])C(=O)C1([H])N(C(=O)C([H])(N([H])C(=O)C([H])(N([H])C([H])([H])[H])C([H])([H])[H])C(C([H])([H])[H])(C([H])([H])[H])C([H])([H])[H])C([H])([H])c2c([H])c(OC([H])([H])C([H])([H])C([H])([H])N3C([H])([H])C([H])([H])[N+]([H])(C([H])([H])C([H])([H])C(=O)N4C([H])([H])C([H])([H])C([H])([H])C([H])(n5nc(-c6c([H])c([H])c(Oc7c([H])c([H])c(F)c([H])c7F)c([H])c6[H])c(C(=O)N([H])[H])c5N([H])[H])C4([H])[H])C([H])([H])C3([H])C([H])([H])[H])c([H])c([H])c2C1([H])[H]

>  <smiles>  (81) 
[H]c1c([H])c([H])c2c(c1[H])C([H])([H])C([H])([H])C([H])([H])C2([H])N([H])C(=O)C1([H])N(C(=O)C([H])(N([H])C(=O)C([H])(N([H])C([H])([H])[H])C([H])([H])[H])C(C([H])([H])[H])(C([H])([H])[H])C([H])([H])[H])C([H])([H])c2c([H])c(OC([H])([H])C([H])([H])C([H])([H])N3C([H])([H])C([H])([H])[N+]([H])(C([H])([H])C([H])([H])C(=O)N4C([H])([H])C([H])([H])C([H])([H])C([H])(n5nc(-c6c([H])c([H])c(Oc7c([H])c([H])c(F)c([H])c7F)c([H])c6[H])c(C(=O)N([H])[H])c5N([H])[H])C4([H])[H])C([H])([H])C3([H])C([H])([H])[H])c([H])c([H])c2C1([H])[H]

$$$$
81:0:0
     RDKit          3D

 89 97  0  0  1  0  0  0  0  0999 V2000
  -27.5590  -22.7740   19.9200 C   0  0  0  0  0  2  0  0  0  0  0  0
  -29.7710  -23.2450   20.4450 C   0  0  0  0  0  2  0  0  0  0  0  0
  -27.9270  -21.1760   20.4450 C   0  0  0  0  0  2  0  0  0  0  0  0
  -28.3560  -24.1150   20.4660 C   0  0  0  0  0  3  0  0  0  0  0  0
  -30.1090  -21.6970   19.7620 C   0  0  0  0  0  3  0  0  0  0  0  0
  -29.2030  -20.4100   19.9520 N   0  0  1  0  0  4  0  0  0  0  0  0
  -28.9810  -20.1920   18.9920 H   0  0  0  0  0  0  0  0  0  0  0  0
  -32.0380  -20.5090   18.5360 C   0  0  0  0  0  1  0  0  0  0  0  0
  -32.5890  -22.5610   19.8260 C   0  0  0  0  0  1  0  0  0  0  0  0
  -31.6380  -21.3490   19.7710 C   0  0  0  0  0  3  0  0  0  0  0  0
  -28.2920  -25.8020   20.2090 O   0  0  0  0  0  0  0  0  0  0  0  0
  -24.6350  -31.8470   23.1870 C   0  0  0  0  0  0  0  0  0  0  0  0
  -27.2360  -26.8890   20.2370 C   0  0  0  0  0  0  0  0  0  0  0  0
  -23.4630  -30.4340   21.5490 C   0  0  0  0  0  3  0  0  0  0  0  0
  -24.9300  -28.8070   20.1600 C   0  0  0  0  0  0  0  0  0  0  0  0
  -26.0330  -30.6370   21.4230 C   0  0  0  0  0  2  0  0  0  0  0  0
  -26.1160  -29.2120   20.7820 C   0  0  0  0  0  0  0  0  0  0  0  0
  -27.2620  -28.2810   20.7810 C   0  0  0  0  0  3  0  0  0  0  0  0
  -26.0090  -26.6490   19.5760 C   0  0  0  0  0  3  0  0  0  0  0  0
  -24.9060  -27.5480   19.5350 C   0  0  0  0  0  3  0  0  0  0  0  0
  -23.7100  -29.7330   20.1840 C   0  0  0  0  0  2  0  0  0  0  0  0
  -24.7330  -31.0040   22.1070 N   0  0  0  0  0  0  0  0  0  0  0  0
  -23.5380  -32.1360   23.6940 O   0  0  0  0  0  0  0  0  0  0  0  0
  -22.7600  -29.4480   22.5180 C   0  0  0  0  0  0  0  0  0  0  0  0
  -21.4300  -29.2850   22.3900 N   0  0  0  0  0  0  0  0  0  0  0  0
  -23.4200  -28.8260   23.3540 O   0  0  0  0  0  0  0  0  0  0  0  0
  -20.9480  -29.8360   21.6920 H   0  0  0  0  0  0  0  0  0  0  0  0
  -18.0440  -28.0830   22.9060 C   0  0  0  0  0  0  0  0  0  0  0  0
  -20.6050  -28.3480   23.1620 C   0  0  0  0  0  3  0  0  0  0  0  0
  -20.7040  -26.9170   22.5830 C   0  0  0  0  0  2  0  0  0  0  0  0
  -19.5980  -26.5980   21.5710 C   0  0  0  0  0  2  0  0  0  0  0  0
  -18.2180  -26.7380   22.2200 C   0  0  0  0  0  2  0  0  0  0  0  0
  -19.1640  -28.8460   23.3330 C   0  0  0  0  0  0  0  0  0  0  0  0
  -18.9430  -30.1020   23.9380 C   0  0  0  0  0  3  0  0  0  0  0  0
  -17.6370  -30.5970   24.1170 C   0  0  0  0  0  3  0  0  0  0  0  0
  -16.5330  -29.8310   23.7040 C   0  0  0  0  0  3  0  0  0  0  0  0
  -16.7380  -28.5760   23.1040 C   0  0  0  0  0  3  0  0  0  0  0  0
  -25.8930  -32.5050   23.8300 C   0  0  0  0  0  3  0  0  0  0  0  0
  -26.3830  -31.7590   25.1320 C   0  0  1  0  0  0  0  0  0  0  0  0
  -25.2660  -31.5380   26.1820 C   0  0  0  0  0  1  0  0  0  0  0  0
  -26.9780  -30.3760   24.7860 C   0  0  0  0  0  1  0  0  0  0  0  0
  -27.5170  -32.5680   25.8050 C   0  0  0  0  0  1  0  0  0  0  0  0
  -25.5640  -33.9070   24.1480 N   0  0  0  0  0  0  0  0  0  0  0  0
  -25.9030  -34.9670   23.4000 C   0  0  0  0  0  0  0  0  0  0  0  0
  -26.5870  -34.8660   22.3780 O   0  0  0  0  0  0  0  0  0  0  0  0
  -24.9550  -34.0580   24.9390 H   0  0  0  0  0  0  0  0  0  0  0  0
  -24.1800  -36.7670   23.0310 C   0  0  0  0  0  1  0  0  0  0  0  0
  -25.4110  -36.3560   23.8560 C   0  0  0  0  0  3  0  0  0  0  0  0
  -27.5310  -37.2470   24.7220 C   0  0  0  0  0  1  0  0  0  0  0  0
  -26.4440  -37.4110   23.7590 N   0  0  0  0  0  0  0  0  0  0  0  0
  -26.0360  -38.3310   23.8990 H   0  0  0  0  0  0  0  0  0  0  0  0
  -29.7600  -18.8540   20.4770 C   0  0  0  0  0  2  0  0  0  0  0  0
  -29.4940  -17.0780   19.9970 C   0  0  0  0  0  2  0  0  0  0  0  0
  -30.3710  -15.4910   20.0560 C   0  0  0  0  0  0  0  0  0  0  0  0
  -30.4190  -12.9940   19.2300 C   0  0  0  0  0  2  0  0  0  0  0  0
  -29.4740  -12.7250   18.0260 C   0  0  0  0  0  2  0  0  0  0  0  0
  -28.0450  -12.4150   18.5030 C   0  0  0  0  0  2  0  0  0  0  0  0
  -27.5980  -13.3830   19.6240 C   0  0  0  0  0  3  0  0  0  0  0  0
  -28.6670  -13.5920   20.7130 C   0  0  0  0  0  2  0  0  0  0  0  0
  -29.8680  -14.1400   20.0550 N   0  0  0  0  0  0  0  0  0  0  0  0
  -31.5980  -15.4740   19.8580 O   0  0  0  0  0  0  0  0  0  0  0  0
  -25.2550  -13.9140   20.4670 C   0  0  0  0  0  0  0  0  0  0  0  0
  -24.2090  -13.1270   20.8580 C   0  0  0  0  0  0  0  0  0  0  0  0
  -24.6810  -11.7790   20.7980 C   0  0  0  0  0  0  0  0  0  0  0  0
  -26.2920  -13.0460   20.1760 N   0  0  0  0  0  0  0  0  0  0  0  0
  -25.9630  -11.7550   20.4450 N   0  0  0  0  0  0  0  0  0  0  0  0
  -23.9620  -10.5130   20.9950 C   0  0  0  0  0  0  0  0  0  0  0  0
  -24.4120   -9.5410   21.9160 C   0  0  0  0  0  3  0  0  0  0  0  0
  -23.6890   -8.3420   22.1020 C   0  0  0  0  0  3  0  0  0  0  0  0
  -22.5030   -8.1070   21.3670 C   0  0  0  0  0  0  0  0  0  0  0  0
  -22.0730   -9.0680   20.4340 C   0  0  0  0  0  3  0  0  0  0  0  0
  -22.7970  -10.2580   20.2460 C   0  0  0  0  0  3  0  0  0  0  0  0
  -21.7500   -6.9610   21.4630 O   0  0  0  0  0  0  0  0  0  0  0  0
  -21.7050   -6.2230   22.6190 C   0  0  0  0  0  0  0  0  0  0  0  0
  -21.2640   -6.7800   23.8390 C   0  0  0  0  0  3  0  0  0  0  0  0
  -21.1670   -5.9690   24.9890 C   0  0  0  0  0  3  0  0  0  0  0  0
  -21.5000   -4.6030   24.9180 C   0  0  0  0  0  0  0  0  0  0  0  0
  -21.9360   -4.0460   23.7020 C   0  0  0  0  0  3  0  0  0  0  0  0
  -22.0340   -4.8540   22.5550 C   0  0  0  0  0  0  0  0  0  0  0  0
  -22.4310   -4.3070   21.3810 F   0  0  0  0  0  0  0  0  0  0  0  0
  -21.4010   -3.8220   26.0190 F   0  0  0  0  0  0  0  0  0  0  0  0
  -22.8180  -13.5960   21.1730 C   0  0  0  0  0  0  0  0  0  0  0  0
  -22.1150  -12.8870   22.0490 N   0  0  0  0  0  0  0  0  0  0  0  0
  -22.3650  -14.6260   20.6760 O   0  0  0  0  0  0  0  0  0  0  0  0
  -22.4980  -12.0520   22.4690 H   0  0  0  0  0  0  0  0  0  0  0  0
  -21.1830  -13.1810   22.3010 H   0  0  0  0  0  0  0  0  0  0  0  0
  -25.4080  -15.2880   20.3010 N   0  0  0  0  0  0  0  0  0  0  0  0
  -24.6460  -15.9400   20.4530 H   0  0  0  0  0  0  0  0  0  0  0  0
  -26.2430  -15.7320   19.9390 H   0  0  0  0  0  0  0  0  0  0  0  0
  1  3  1  0
  1  4  1  0
  2  4  1  0
  4 11  1  0
  5 10  1  0
  5  6  1  0
  5  2  1  0
  6  3  1  0
  6 52  1  0
  6  7  1  6
  8 10  1  0
 10  9  1  0
 11 13  1  0
 12 23  2  0
 13 18  1  0
 14 22  1  0
 14 24  1  0
 15 21  1  0
 15 17  1  0
 16 22  1  0
 17 16  1  0
 18 17  2  0
 19 13  2  0
 20 19  1  0
 20 15  2  0
 21 14  1  0
 22 12  1  0
 24 26  2  0
 25 24  1  0
 27 25  1  0
 28 37  2  0
 28 33  1  0
 29 25  1  0
 29 33  1  0
 30 29  1  0
 31 32  1  0
 31 30  1  0
 32 28  1  0
 33 34  2  0
 34 35  1  0
 36 35  2  0
 37 36  1  0
 38 12  1  0
 38 43  1  0
 38 39  1  0
 39 42  1  1
 39 40  1  0
 41 39  1  0
 43 46  1  0
 44 48  1  0
 44 43  1  0
 45 44  2  0
 48 47  1  0
 50 48  1  0
 50 51  1  0
 50 49  1  0
 53 54  1  0
 53 52  1  0
 55 60  1  0
 56 57  1  0
 56 55  1  0
 58 57  1  0
 58 65  1  0
 58 59  1  0
 60 54  1  0
 60 59  1  0
 61 54  2  0
 62 63  2  0
 63 82  1  0
 64 63  1  0
 64 67  1  0
 65 66  1  0
 65 62  1  0
 66 64  2  0
 67 68  1  0
 68 69  2  0
 70 73  1  0
 70 69  1  0
 71 70  2  0
 72 71  1  0
 72 67  2  0
 73 74  1  0
 74 75  1  0
 75 76  2  0
 77 76  1  0
 77 81  1  0
 78 77  2  0
 79 74  2  0
 79 78  1  0
 80 79  1  0
 82 83  1  0
 83 86  1  0
 83 85  1  0
 84 82  2  0
 87 88  1  0
 87 62  1  0
 89 87  1  0
M  ISO  4   4 101  11 101  53 100  54 100
M  END
>  <TORSDO>  (82) 
F 19

>  <SCORE>  (82) 
-16.099

>  <name>  (82) 
81

>  <ligand_id>  (82) 
81

>  <original_smiles>  (82) 
[H]c1c([H])c([H])c2c(c1[H])C([H])([H])C([H])([H])C([H])([H])C2([H])N([H])C(=O)C1([H])N(C(=O)C([H])(N([H])C(=O)C([H])(N([H])C([H])([H])[H])C([H])([H])[H])C(C([H])([H])[H])(C([H])([H])[H])C([H])([H])[H])C([H])([H])c2c([H])c(OC3([H])C([H])([H])C([H])([H])[N+]([H])(C([H])([H])C([H])([H])C(=O)N4C([H])([H])C([H])([H])C([H])([H])C([H])(n5nc(-c6c([H])c([H])c(Oc7c([H])c([H])c(F)c([H])c7F)c([H])c6[H])c(C(=O)N([H])[H])c5N([H])[H])C4([H])[H])C([H])(C([H])(C([H])([H])[H])C([H])([H])[H])C3([H])[H])c([H])c([H])c2C1([H])[H]

>  <smiles>  (82) 
[H]c1c([H])c([H])c2c(c1[H])C([H])([H])C([H])([H])C([H])([H])C2([H])N([H])C(=O)C1([H])N(C(=O)C([H])(N([H])C(=O)C([H])(N([H])C([H])([H])[H])C([H])([H])[H])C(C([H])([H])[H])(C([H])([H])[H])C([H])([H])[H])C([H])([H])c2c([H])c(OC3([H])C([H])([H])C([H])([H])[N+]([H])(C([H])([H])C([H])([H])C(=O)N4C([H])([H])C([H])([H])C([H])([H])C([H])(n5nc(-c6c([H])c([H])c(Oc7c([H])c([H])c(F)c([H])c7F)c([H])c6[H])c(C(=O)N([H])[H])c5N([H])[H])C4([H])[H])C([H])(C([H])(C([H])([H])[H])C([H])([H])[H])C3([H])[H])c([H])c([H])c2C1([H])[H]

$$$$
82:0:0
     RDKit          3D

 90 98  0  0  1  0  0  0  0  0999 V2000
  -27.9690  -22.4210   19.9420 C   0  0  0  0  0  3  0  0  0  0  0  0
  -29.9340  -22.9780   21.1230 C   0  0  0  0  0  3  0  0  0  0  0  0
  -27.6750  -23.8390   19.7810 C   0  0  0  0  0  3  0  0  0  0  0  0
  -29.6320  -24.3820   20.9750 C   0  0  0  0  0  3  0  0  0  0  0  0
  -29.1210  -21.9110   20.6270 C   0  0  0  0  0  0  0  0  0  0  0  0
  -28.4800  -24.9110   20.3160 C   0  0  0  0  0  0  0  0  0  0  0  0
  -28.3530  -26.3580   20.1490 O   0  0  0  0  0  0  0  0  0  0  0  0
  -24.6200  -31.8850   23.2330 C   0  0  0  0  0  0  0  0  0  0  0  0
  -27.2080  -27.2160   20.1940 C   0  0  0  0  0  0  0  0  0  0  0  0
  -23.4100  -30.4850   21.6030 C   0  0  0  0  0  3  0  0  0  0  0  0
  -24.8540  -28.9070   20.1810 C   0  0  0  0  0  0  0  0  0  0  0  0
  -25.9570  -30.7650   21.4200 C   0  0  0  0  0  2  0  0  0  0  0  0
  -26.0300  -29.3720   20.7830 C   0  0  0  0  0  0  0  0  0  0  0  0
  -27.2040  -28.5410   20.7720 C   0  0  0  0  0  3  0  0  0  0  0  0
  -26.0070  -26.8380   19.5560 C   0  0  0  0  0  3  0  0  0  0  0  0
  -24.8510  -27.6490   19.5580 C   0  0  0  0  0  3  0  0  0  0  0  0
  -23.6210  -29.7960   20.2290 C   0  0  0  0  0  2  0  0  0  0  0  0
  -24.6840  -31.0640   22.1420 N   0  0  0  0  0  0  0  0  0  0  0  0
  -23.5360  -32.1680   23.7660 O   0  0  0  0  0  0  0  0  0  0  0  0
  -22.7410  -29.4750   22.5680 C   0  0  0  0  0  0  0  0  0  0  0  0
  -21.4140  -29.2990   22.4440 N   0  0  0  0  0  0  0  0  0  0  0  0
  -23.4150  -28.8520   23.3920 O   0  0  0  0  0  0  0  0  0  0  0  0
  -20.9210  -29.8530   21.7560 H   0  0  0  0  0  0  0  0  0  0  0  0
  -18.0370  -28.0900   22.9450 C   0  0  0  0  0  0  0  0  0  0  0  0
  -20.5940  -28.3640   23.2180 C   0  0  0  0  0  3  0  0  0  0  0  0
  -20.7050  -26.9290   22.6530 C   0  0  0  0  0  2  0  0  0  0  0  0
  -19.6070  -26.5940   21.6390 C   0  0  0  0  0  2  0  0  0  0  0  0
  -18.2220  -26.7370   22.2770 C   0  0  0  0  0  2  0  0  0  0  0  0
  -19.1500  -28.8610   23.3720 C   0  0  0  0  0  0  0  0  0  0  0  0
  -18.9240  -30.1270   23.9550 C   0  0  0  0  0  3  0  0  0  0  0  0
  -17.6160  -30.6210   24.1160 C   0  0  0  0  0  3  0  0  0  0  0  0
  -16.5180  -29.8460   23.7080 C   0  0  0  0  0  3  0  0  0  0  0  0
  -16.7280  -28.5820   23.1280 C   0  0  0  0  0  3  0  0  0  0  0  0
  -25.9020  -32.5240   23.8520 C   0  0  0  0  0  3  0  0  0  0  0  0
  -25.5900  -33.9240   24.1800 N   0  0  0  0  0  0  0  0  0  0  0  0
  -25.9190  -34.9780   23.4220 C   0  0  0  0  0  0  0  0  0  0  0  0
  -26.5840  -34.8750   22.3880 O   0  0  0  0  0  0  0  0  0  0  0  0
  -25.0000  -34.0780   24.9840 H   0  0  0  0  0  0  0  0  0  0  0  0
  -24.1900  -36.7730   23.0810 C   0  0  0  0  0  1  0  0  0  0  0  0
  -25.4370  -36.3670   23.8830 C   0  0  0  0  0  3  0  0  0  0  0  0
  -27.5780  -37.2490   24.7000 C   0  0  0  0  0  1  0  0  0  0  0  0
  -26.4700  -37.4200   23.7630 N   0  0  0  0  0  0  0  0  0  0  0  0
  -26.0660  -38.3390   23.9190 H   0  0  0  0  0  0  0  0  0  0  0  0
  -26.4190  -31.7570   25.1320 C   0  0  1  0  0  0  0  0  0  0  0  0
  -25.3290  -31.5230   26.2020 C   0  0  0  0  0  1  0  0  0  0  0  0
  -26.9980  -30.3750   24.7500 C   0  0  0  0  0  1  0  0  0  0  0  0
  -27.5720  -32.5520   25.7900 C   0  0  0  0  0  1  0  0  0  0  0  0
  -29.4400  -20.3570   21.0470 C   0  0  0  0  0  2  0  0  0  0  0  0
  -29.5000  -19.0850   20.1400 N   0  0  1  0  0  4  0  0  0  0  0  0
  -28.5240  -18.8830   19.9870 H   0  0  0  0  0  0  0  0  0  0  0  0
  -31.5050  -19.8380   18.7490 C   0  0  0  0  0  1  0  0  0  0  0  0
  -30.0300  -19.3800   18.7790 C   0  0  0  0  0  2  0  0  0  0  0  0
  -30.0830  -17.7510   20.7510 C   0  0  0  0  0  2  0  0  0  0  0  0
  -29.5940  -16.2420   20.2690 C   0  0  0  0  0  2  0  0  0  0  0  0
  -30.4990  -14.8760   20.2900 C   0  0  0  0  0  0  0  0  0  0  0  0
  -30.3900  -12.5560   19.3400 C   0  0  0  0  0  2  0  0  0  0  0  0
  -29.4510  -12.6050   18.1090 C   0  0  0  0  0  2  0  0  0  0  0  0
  -27.9760  -12.4190   18.5230 C   0  0  0  0  0  2  0  0  0  0  0  0
  -27.5900  -13.2920   19.7470 C   0  0  0  0  0  3  0  0  0  0  0  0
  -28.6480  -13.2180   20.8640 C   0  0  0  0  0  2  0  0  0  0  0  0
  -29.9390  -13.6080   20.2850 N   0  0  0  0  0  0  0  0  0  0  0  0
  -31.7040  -14.9720   20.0400 O   0  0  0  0  0  0  0  0  0  0  0  0
  -25.2010  -13.8750   20.4740 C   0  0  0  0  0  0  0  0  0  0  0  0
  -24.1370  -13.1000   20.8490 C   0  0  0  0  0  0  0  0  0  0  0  0
  -24.6050  -11.7500   20.8280 C   0  0  0  0  0  0  0  0  0  0  0  0
  -26.2480  -12.9980   20.2360 N   0  0  0  0  0  0  0  0  0  0  0  0
  -25.8960  -11.7150   20.5110 N   0  0  0  0  0  0  0  0  0  0  0  0
  -23.8790  -10.4880   21.0260 C   0  0  0  0  0  0  0  0  0  0  0  0
  -24.3190   -9.5200   21.9560 C   0  0  0  0  0  3  0  0  0  0  0  0
  -23.5960   -8.3220   22.1390 C   0  0  0  0  0  3  0  0  0  0  0  0
  -22.4170   -8.0840   21.3930 C   0  0  0  0  0  0  0  0  0  0  0  0
  -21.9970   -9.0380   20.4490 C   0  0  0  0  0  3  0  0  0  0  0  0
  -22.7220  -10.2280   20.2640 C   0  0  0  0  0  3  0  0  0  0  0  0
  -21.6640   -6.9390   21.4870 O   0  0  0  0  0  0  0  0  0  0  0  0
  -21.6300   -6.1890   22.6350 C   0  0  0  0  0  0  0  0  0  0  0  0
  -21.2250   -6.7400   23.8710 C   0  0  0  0  0  3  0  0  0  0  0  0
  -21.1440   -5.9200   25.0130 C   0  0  0  0  0  3  0  0  0  0  0  0
  -21.4530   -4.5490   24.9220 C   0  0  0  0  0  0  0  0  0  0  0  0
  -21.8470   -3.9980   23.6900 C   0  0  0  0  0  3  0  0  0  0  0  0
  -21.9330   -4.8160   22.5510 C   0  0  0  0  0  0  0  0  0  0  0  0
  -22.2960   -4.2760   21.3620 F   0  0  0  0  0  0  0  0  0  0  0  0
  -21.3640   -3.7600   26.0160 F   0  0  0  0  0  0  0  0  0  0  0  0
  -22.7370  -13.5740   21.1180 C   0  0  0  0  0  0  0  0  0  0  0  0
  -22.0090  -12.8810   21.9860 N   0  0  0  0  0  0  0  0  0  0  0  0
  -22.2980  -14.5970   20.5920 O   0  0  0  0  0  0  0  0  0  0  0  0
  -22.3750  -12.0550   22.4370 H   0  0  0  0  0  0  0  0  0  0  0  0
  -21.0670  -13.1770   22.2020 H   0  0  0  0  0  0  0  0  0  0  0  0
  -25.3650  -15.2440   20.2920 N   0  0  0  0  0  0  0  0  0  0  0  0
  -24.6050  -15.9060   20.4010 H   0  0  0  0  0  0  0  0  0  0  0  0
  -26.2080  -15.6670   19.9320 H   0  0  0  0  0  0  0  0  0  0  0  0
  1  5  1  0
  3  1  2  0
  3  6  1  0
  4  2  1  0
  5 48  1  0
  5  2  2  0
  6  4  2  0
  7  9  1  0
  7  6  1  0
  8 19  2  0
  9 14  1  0
 10 18  1  0
 10 20  1  0
 11 17  1  0
 11 13  1  0
 12 18  1  0
 13 12  1  0
 14 13  2  0
 15 16  1  0
 15  9  2  0
 16 11  2  0
 17 10  1  0
 18  8  1  0
 20 22  2  0
 21 20  1  0
 23 21  1  0
 24 33  2  0
 24 29  1  0
 25 21  1  0
 25 29  1  0
 26 25  1  0
 27 28  1  0
 27 26  1  0
 28 24  1  0
 29 30  2  0
 30 31  1  0
 32 31  2  0
 33 32  1  0
 34  8  1  0
 34 35  1  0
 34 44  1  0
 35 38  1  0
 36 40  1  0
 36 35  1  0
 37 36  2  0
 40 39  1  0
 42 40  1  0
 42 43  1  0
 42 41  1  0
 44 47  1  1
 44 45  1  0
 46 44  1  0
 49 53  1  0
 49 48  1  0
 49 50  1  6
 51 52  1  0
 52 49  1  0
 54 55  1  0
 54 53  1  0
 56 61  1  0
 57 58  1  0
 57 56  1  0
 59 58  1  0
 59 66  1  0
 59 60  1  0
 61 55  1  0
 61 60  1  0
 62 55  2  0
 63 64  2  0
 64 83  1  0
 65 64  1  0
 65 68  1  0
 66 63  1  0
 66 67  1  0
 67 65  2  0
 68 69  1  0
 69 70  2  0
 71 74  1  0
 71 70  1  0
 72 71  2  0
 73 72  1  0
 73 68  2  0
 74 75  1  0
 75 76  1  0
 76 77  2  0
 78 77  1  0
 78 82  1  0
 79 78  2  0
 80 75  2  0
 80 79  1  0
 81 80  1  0
 83 84  1  0
 84 87  1  0
 84 86  1  0
 85 83  2  0
 88 89  1  0
 88 63  1  0
 90 88  1  0
M  ISO  4   6 101   7 101  54 100  55 100
M  END
>  <TORSDO>  (83) 
F 21

>  <SCORE>  (83) 
-13.464

>  <name>  (83) 
82

>  <ligand_id>  (83) 
82

>  <original_smiles>  (83) 
[H]c1c([H])c([H])c2c(c1[H])C([H])([H])C([H])([H])C([H])([H])C2([H])N([H])C(=O)C1([H])N(C(=O)C([H])(N([H])C(=O)C([H])(N([H])C([H])([H])[H])C([H])([H])[H])C(C([H])([H])[H])(C([H])([H])[H])C([H])([H])[H])C([H])([H])c2c([H])c(Oc3c([H])c([H])c(C([H])([H])[N+]([H])(C([H])([H])C([H])([H])[H])C([H])([H])C([H])([H])C(=O)N4C([H])([H])C([H])([H])C([H])([H])C([H])(n5nc(-c6c([H])c([H])c(Oc7c([H])c([H])c(F)c([H])c7F)c([H])c6[H])c(C(=O)N([H])[H])c5N([H])[H])C4([H])[H])c([H])c3[H])c([H])c([H])c2C1([H])[H]

>  <smiles>  (83) 
[H]c1c([H])c([H])c2c(c1[H])C([H])([H])C([H])([H])C([H])([H])C2([H])N([H])C(=O)C1([H])N(C(=O)C([H])(N([H])C(=O)C([H])(N([H])C([H])([H])[H])C([H])([H])[H])C(C([H])([H])[H])(C([H])([H])[H])C([H])([H])[H])C([H])([H])c2c([H])c(Oc3c([H])c([H])c(C([H])([H])[N+]([H])(C([H])([H])C([H])([H])[H])C([H])([H])C([H])([H])C(=O)N4C([H])([H])C([H])([H])C([H])([H])C([H])(n5nc(-c6c([H])c([H])c(Oc7c([H])c([H])c(F)c([H])c7F)c([H])c6[H])c(C(=O)N([H])[H])c5N([H])[H])C4([H])[H])c([H])c3[H])c([H])c([H])c2C1([H])[H]

$$$$
83:0:0
     RDKit          3D

 85 89  0  0  1  0  0  0  0  0999 V2000
  -28.7660  -21.6020   20.5480 C   0  0  0  0  0 15  0  0  0  0  0  0
  -28.1790  -23.4960   20.0020 C   0  0  0  0  0  1  0  0  0  0  0  0
  -28.1130  -25.3040   20.3990 O   0  0  0  0  0  0  0  0  0  0  0  0
  -24.5750  -31.8120   23.1750 C   0  0  0  0  0  0  0  0  0  0  0  0
  -27.1620  -26.5890   20.2690 C   0  0  0  0  0  0  0  0  0  0  0  0
  -23.4230  -30.3930   21.5330 C   0  0  0  0  0  3  0  0  0  0  0  0
  -24.9000  -28.7130   20.1560 C   0  0  0  0  0  0  0  0  0  0  0  0
  -26.0080  -30.5000   21.4660 C   0  0  0  0  0  2  0  0  0  0  0  0
  -26.0860  -29.0480   20.8200 C   0  0  0  0  0  0  0  0  0  0  0  0
  -27.1890  -28.0160   20.8430 C   0  0  0  0  0  3  0  0  0  0  0  0
  -25.9440  -26.5090   19.5340 C   0  0  0  0  0  3  0  0  0  0  0  0
  -24.8790  -27.4720   19.4890 C   0  0  0  0  0  3  0  0  0  0  0  0
  -23.6930  -29.6760   20.1750 C   0  0  0  0  0  2  0  0  0  0  0  0
  -24.6940  -30.9400   22.1090 N   0  0  0  0  0  0  0  0  0  0  0  0
  -23.4710  -32.1170   23.6590 O   0  0  0  0  0  0  0  0  0  0  0  0
  -22.6820  -29.4340   22.5050 C   0  0  0  0  0  0  0  0  0  0  0  0
  -21.3470  -29.2980   22.3780 N   0  0  0  0  0  0  0  0  0  0  0  0
  -23.3240  -28.8060   23.3500 O   0  0  0  0  0  0  0  0  0  0  0  0
  -20.8760  -29.8540   21.6770 H   0  0  0  0  0  0  0  0  0  0  0  0
  -17.9440  -28.1240   22.9000 C   0  0  0  0  0  0  0  0  0  0  0  0
  -20.5090  -28.3690   23.1490 C   0  0  0  0  0  3  0  0  0  0  0  0
  -20.5910  -26.9370   22.5690 C   0  0  0  0  0  2  0  0  0  0  0  0
  -19.4830  -26.6310   21.5560 C   0  0  0  0  0  2  0  0  0  0  0  0
  -18.1060  -26.7810   22.2070 C   0  0  0  0  0  2  0  0  0  0  0  0
  -19.0710  -28.8760   23.3270 C   0  0  0  0  0  0  0  0  0  0  0  0
  -18.8610  -30.1300   23.9420 C   0  0  0  0  0  3  0  0  0  0  0  0
  -17.5590  -30.6320   24.1300 C   0  0  0  0  0  3  0  0  0  0  0  0
  -16.4480  -29.8780   23.7130 C   0  0  0  0  0  3  0  0  0  0  0  0
  -16.6410  -28.6250   23.1060 C   0  0  0  0  0  3  0  0  0  0  0  0
  -25.8190  -32.4810   23.8350 C   0  0  0  0  0  3  0  0  0  0  0  0
  -26.2890  -31.7450   25.1520 C   0  0  1  0  0  0  0  0  0  0  0  0
  -25.1590  -31.5370   26.1900 C   0  0  0  0  0  1  0  0  0  0  0  0
  -26.8840  -30.3560   24.8320 C   0  0  0  0  0  1  0  0  0  0  0  0
  -27.4180  -32.5570   25.8310 C   0  0  0  0  0  1  0  0  0  0  0  0
  -25.4820  -33.8860   24.1490 N   0  0  0  0  0  0  0  0  0  0  0  0
  -25.8300  -34.9510   23.4130 C   0  0  0  0  0  0  0  0  0  0  0  0
  -26.5220  -34.8540   22.3960 O   0  0  0  0  0  0  0  0  0  0  0  0
  -24.8680  -34.0330   24.9350 H   0  0  0  0  0  0  0  0  0  0  0  0
  -24.1120  -36.7600   23.0480 C   0  0  0  0  0  1  0  0  0  0  0  0
  -25.3390  -36.3420   23.8720 C   0  0  0  0  0  3  0  0  0  0  0  0
  -27.4590  -37.2320   24.7430 C   0  0  0  0  0  1  0  0  0  0  0  0
  -26.3750  -37.3960   23.7790 N   0  0  0  0  0  0  0  0  0  0  0  0
  -25.9660  -38.3170   23.9160 H   0  0  0  0  0  0  0  0  0  0  0  0
  -29.2370  -19.6960   19.9340 C   0  0  0  0  0  1  0  0  0  0  0  0
  -28.5070  -19.5800   18.6610 N   0  0  0  0  0  4  0  0  0  0  0  0
  -27.5310  -19.4130   18.8260 H   0  0  0  0  0  0  0  0  0  0  0  0
  -28.8740  -18.8270   18.1080 H   0  0  0  0  0  0  0  0  0  0  0  0
  -28.5980  -20.4250   18.1280 H   0  0  0  0  0  0  0  0  0  0  0  0
  -29.4570  -17.7400   20.5270 C   0  0  0  0  0  1  0  0  0  0  0  0
  -30.2030  -15.9530   20.1700 C   0  0  0  0  0  0  0  0  0  0  0  0
  -30.3940  -13.3350   19.3830 C   0  0  0  0  0  2  0  0  0  0  0  0
  -29.5280  -12.8510   18.1750 C   0  0  0  0  0  2  0  0  0  0  0  0
  -28.1190  -12.4430   18.6260 C   0  0  0  0  0  2  0  0  0  0  0  0
  -27.5760  -13.4440   19.6650 C   0  0  0  0  0  3  0  0  0  0  0  0
  -28.5880  -13.8350   20.7750 C   0  0  0  0  0  2  0  0  0  0  0  0
  -29.7450  -14.5270   20.1370 N   0  0  0  0  0  0  0  0  0  0  0  0
  -31.4230  -15.8470   19.9020 O   0  0  0  0  0  0  0  0  0  0  0  0
  -25.2140  -13.9360   20.4380 C   0  0  0  0  0  0  0  0  0  0  0  0
  -24.1630  -13.1450   20.8020 C   0  0  0  0  0  0  0  0  0  0  0  0
  -24.6470  -11.8000   20.7680 C   0  0  0  0  0  0  0  0  0  0  0  0
  -26.2670  -13.0780   20.1890 N   0  0  0  0  0  0  0  0  0  0  0  0
  -25.9410  -11.7840   20.4540 N   0  0  0  0  0  0  0  0  0  0  0  0
  -23.9280  -10.5320   20.9560 C   0  0  0  0  0  0  0  0  0  0  0  0
  -24.3530   -9.5700   21.8990 C   0  0  0  0  0  3  0  0  0  0  0  0
  -23.6280   -8.3720   22.0770 C   0  0  0  0  0  3  0  0  0  0  0  0
  -22.4620   -8.1260   21.3140 C   0  0  0  0  0  0  0  0  0  0  0  0
  -22.0540   -9.0760   20.3610 C   0  0  0  0  0  3  0  0  0  0  0  0
  -22.7810  -10.2650   20.1800 C   0  0  0  0  0  3  0  0  0  0  0  0
  -21.7100   -6.9790   21.4000 O   0  0  0  0  0  0  0  0  0  0  0  0
  -21.6440   -6.2460   22.5590 C   0  0  0  0  0  0  0  0  0  0  0  0
  -21.1800   -6.8060   23.7700 C   0  0  0  0  0  3  0  0  0  0  0  0
  -21.0640   -6.0000   24.9190 C   0  0  0  0  0  3  0  0  0  0  0  0
  -21.4010   -4.6340   24.8590 C   0  0  0  0  0  0  0  0  0  0  0  0
  -21.8580   -4.0730   23.6540 C   0  0  0  0  0  3  0  0  0  0  0  0
  -21.9760   -4.8760   22.5060 C   0  0  0  0  0  0  0  0  0  0  0  0
  -22.3960   -4.3270   21.3420 F   0  0  0  0  0  0  0  0  0  0  0  0
  -21.2820   -3.8570   25.9610 F   0  0  0  0  0  0  0  0  0  0  0  0
  -22.7620  -13.6100   21.0650 C   0  0  0  0  0  0  0  0  0  0  0  0
  -22.0350  -12.9100   21.9280 N   0  0  0  0  0  0  0  0  0  0  0  0
  -22.3220  -14.6340   20.5420 O   0  0  0  0  0  0  0  0  0  0  0  0
  -22.4060  -12.0830   22.3720 H   0  0  0  0  0  0  0  0  0  0  0  0
  -21.0940  -13.2040   22.1470 H   0  0  0  0  0  0  0  0  0  0  0  0
  -25.3620  -15.3100   20.2640 N   0  0  0  0  0  0  0  0  0  0  0  0
  -24.5870  -15.9550   20.3820 H   0  0  0  0  0  0  0  0  0  0  0  0
  -26.2090  -15.7590   19.9410 H   0  0  0  0  0  0  0  0  0  0  0  0
  2  3  1  0
  4 15  2  0
  5  3  1  0
  5 10  1  0
  6 14  1  0
  6 16  1  0
  7 13  1  0
  7  9  1  0
  8 14  1  0
  9 10  2  0
  9  8  1  0
 11  5  2  0
 12 11  1  0
 12  7  2  0
 13  6  1  0
 14  4  1  0
 16 18  2  0
 17 16  1  0
 19 17  1  0
 20 29  2  0
 20 25  1  0
 21 17  1  0
 21 25  1  0
 22 21  1  0
 23 24  1  0
 23 22  1  0
 24 20  1  0
 25 26  2  0
 26 27  1  0
 28 27  2  0
 29 28  1  0
 30  4  1  0
 30 35  1  0
 30 31  1  0
 31 34  1  1
 31 32  1  0
 33 31  1  0
 35 38  1  0
 36 40  1  0
 36 35  1  0
 37 36  2  0
 40 39  1  0
 42 40  1  0
 42 43  1  0
 42 41  1  0
 45 46  1  0
 45 44  1  0
 47 45  1  0
 48 45  1  0
 50 49  1  0
 51 56  1  0
 52 53  1  0
 52 51  1  0
 54 53  1  0
 54 61  1  0
 54 55  1  0
 56 50  1  0
 56 55  1  0
 57 50  2  0
 58 59  2  0
 59 78  1  0
 60 59  1  0
 60 63  1  0
 61 58  1  0
 61 62  1  0
 62 60  2  0
 63 64  1  0
 64 65  2  0
 66 69  1  0
 66 65  1  0
 67 66  2  0
 68 67  1  0
 68 63  2  0
 69 70  1  0
 70 71  1  0
 71 72  2  0
 73 72  1  0
 73 77  1  0
 74 73  2  0
 75 70  2  0
 75 74  1  0
 76 75  1  0
 78 79  1  0
 79 82  1  0
 79 81  1  0
 80 78  2  0
 83 84  1  0
 83 58  1  0
 85 83  1  0
M  ISO  4   2 101   3 101  49 100  50 100
M  END
>  <TORSDO>  (84) 
F 20

>  <SCORE>  (84) 
-16.205

>  <name>  (84) 
83

>  <ligand_id>  (84) 
83

>  <original_smiles>  (84) 
[H]c1c([H])c([H])c2c(c1[H])C([H])([H])C([H])([H])C([H])([H])C2([H])N([H])C(=O)C1([H])N(C(=O)C([H])(N([H])C(=O)C([H])(N([H])C([H])([H])[H])C([H])([H])[H])C(C([H])([H])[H])(C([H])([H])[H])C([H])([H])[H])C([H])([H])c2c([H])c(OC([H])([H])C([H])([H])C([H])(C([H])([H])C(=O)N3C([H])([H])C([H])([H])C([H])([H])C([H])(n4nc(-c5c([H])c([H])c(Oc6c([H])c([H])c(F)c([H])c6F)c([H])c5[H])c(C(=O)N([H])[H])c4N([H])[H])C3([H])[H])[N+]([H])([H])[H])c([H])c([H])c2C1([H])[H]

>  <smiles>  (84) 
[H]c1c([H])c([H])c2c(c1[H])C([H])([H])C([H])([H])C([H])([H])C2([H])N([H])C(=O)C1([H])N(C(=O)C([H])(N([H])C(=O)C([H])(N([H])C([H])([H])[H])C([H])([H])[H])C(C([H])([H])[H])(C([H])([H])[H])C([H])([H])[H])C([H])([H])c2c([H])c(OC([H])([H])C([H])([H])C([H])(C([H])([H])C(=O)N3C([H])([H])C([H])([H])C([H])([H])C([H])(n4nc(-c5c([H])c([H])c(Oc6c([H])c([H])c(F)c([H])c6F)c([H])c5[H])c(C(=O)N([H])[H])c4N([H])[H])C3([H])[H])[N+]([H])([H])[H])c([H])c([H])c2C1([H])[H]

$$$$
84:0:0
     RDKit          3D

 92100  0  0  1  0  0  0  0  0999 V2000
  -28.9580  -23.1550   19.9560 C   0  0  0  0  0  3  0  0  0  0  0  0
  -29.8650  -24.0590   22.0210 C   0  0  0  0  0  3  0  0  0  0  0  0
  -28.4620  -24.4340   19.6210 C   0  0  0  0  0  3  0  0  0  0  0  0
  -29.3540  -25.3300   21.6940 C   0  0  0  0  0  3  0  0  0  0  0  0
  -29.7170  -22.9660   21.1360 C   0  0  0  0  0  0  0  0  0  0  0  0
  -28.6870  -25.5380   20.4710 C   0  0  0  0  0  0  0  0  0  0  0  0
  -31.8630  -21.9690   21.4420 C   0  0  0  0  0  1  0  0  0  0  0  0
  -30.4100  -21.7670   21.4150 N   0  0  0  0  0  0  0  0  0  0  0  0
  -29.9130  -20.5000   20.8560 C   0  0  0  0  0  2  0  0  0  0  0  0
  -30.5890  -19.2550   21.4940 C   0  0  0  0  0  2  0  0  0  0  0  0
  -30.0760  -17.9590   20.9860 N   0  0  0  0  0  4  0  0  0  0  0  0
  -29.1000  -17.8980   21.2290 H   0  0  0  0  0  0  0  0  0  0  0  0
  -30.1480  -17.9500   19.9810 H   0  0  0  0  0  0  0  0  0  0  0  0
  -30.8020  -16.7800   21.5360 C   0  0  0  0  0  2  0  0  0  0  0  0
  -30.0510  -15.4270   21.3720 C   0  0  0  0  0  2  0  0  0  0  0  0
  -30.6460  -14.3940   20.3860 C   0  0  0  0  0  0  0  0  0  0  0  0
  -30.3050  -12.3140   19.0830 C   0  0  0  0  0  2  0  0  0  0  0  0
  -29.3230  -12.5680   17.9210 C   0  0  0  0  0  2  0  0  0  0  0  0
  -27.8620  -12.4270   18.3920 C   0  0  0  0  0  2  0  0  0  0  0  0
  -27.5730  -13.2210   19.6950 C   0  0  0  0  0  3  0  0  0  0  0  0
  -28.6510  -12.9160   20.7570 C   0  0  0  0  0  2  0  0  0  0  0  0
  -29.9640  -13.2370   20.1740 N   0  0  0  0  0  0  0  0  0  0  0  0
  -31.6970  -14.6540   19.7900 O   0  0  0  0  0  0  0  0  0  0  0  0
  -25.1910  -13.8420   20.4590 C   0  0  0  0  0  0  0  0  0  0  0  0
  -24.1270  -13.0730   20.8500 C   0  0  0  0  0  0  0  0  0  0  0  0
  -24.5810  -11.7200   20.7990 C   0  0  0  0  0  0  0  0  0  0  0  0
  -26.2260  -12.9560   20.2000 N   0  0  0  0  0  0  0  0  0  0  0  0
  -25.8620  -11.6750   20.4590 N   0  0  0  0  0  0  0  0  0  0  0  0
  -23.8530  -10.4620   21.0010 C   0  0  0  0  0  0  0  0  0  0  0  0
  -24.3110   -9.4820   21.9100 C   0  0  0  0  0  3  0  0  0  0  0  0
  -23.5850   -8.2860   22.1000 C   0  0  0  0  0  3  0  0  0  0  0  0
  -22.3860   -8.0630   21.3810 C   0  0  0  0  0  0  0  0  0  0  0  0
  -21.9470   -9.0320   20.4610 C   0  0  0  0  0  3  0  0  0  0  0  0
  -22.6740  -10.2180   20.2700 C   0  0  0  0  0  3  0  0  0  0  0  0
  -21.6280   -6.9220   21.4820 O   0  0  0  0  0  0  0  0  0  0  0  0
  -21.6220   -6.1610   22.6230 C   0  0  0  0  0  0  0  0  0  0  0  0
  -21.2570   -6.7000   23.8770 C   0  0  0  0  0  3  0  0  0  0  0  0
  -21.1980   -5.8670   25.0110 C   0  0  0  0  0  3  0  0  0  0  0  0
  -21.4900   -4.4940   24.8930 C   0  0  0  0  0  0  0  0  0  0  0  0
  -21.8460   -3.9540   23.6460 C   0  0  0  0  0  3  0  0  0  0  0  0
  -21.9100   -4.7860   22.5140 C   0  0  0  0  0  0  0  0  0  0  0  0
  -22.2340   -4.2550   21.3090 F   0  0  0  0  0  0  0  0  0  0  0  0
  -21.4240   -3.6920   25.9820 F   0  0  0  0  0  0  0  0  0  0  0  0
  -22.7400  -13.5560   21.1600 C   0  0  0  0  0  0  0  0  0  0  0  0
  -22.0310  -12.8580   22.0420 N   0  0  0  0  0  0  0  0  0  0  0  0
  -22.2930  -14.5860   20.6570 O   0  0  0  0  0  0  0  0  0  0  0  0
  -22.4080  -12.0270   22.4750 H   0  0  0  0  0  0  0  0  0  0  0  0
  -21.0990  -13.1580   22.2890 H   0  0  0  0  0  0  0  0  0  0  0  0
  -25.3560  -15.2120   20.2840 N   0  0  0  0  0  0  0  0  0  0  0  0
  -24.5840  -15.8610   20.3970 H   0  0  0  0  0  0  0  0  0  0  0  0
  -26.1920  -15.6500   19.9200 H   0  0  0  0  0  0  0  0  0  0  0  0
  -28.4620  -26.8210   20.0400 O   0  0  0  0  0  0  0  0  0  0  0  0
  -24.6190  -31.8960   23.2470 C   0  0  0  0  0  0  0  0  0  0  0  0
  -27.2480  -27.4500   20.1740 C   0  0  0  0  0  0  0  0  0  0  0  0
  -23.3980  -30.4790   21.6250 C   0  0  0  0  0  3  0  0  0  0  0  0
  -24.8390  -28.9240   20.2080 C   0  0  0  0  0  0  0  0  0  0  0  0
  -25.9170  -30.8450   21.3970 C   0  0  0  0  0  2  0  0  0  0  0  0
  -25.9970  -29.4640   20.7810 C   0  0  0  0  0  0  0  0  0  0  0  0
  -27.2030  -28.7300   20.7670 C   0  0  0  0  0  3  0  0  0  0  0  0
  -26.0740  -26.9120   19.6070 C   0  0  0  0  0  3  0  0  0  0  0  0
  -24.8690  -27.6450   19.6240 C   0  0  0  0  0  3  0  0  0  0  0  0
  -23.5950  -29.7830   20.2500 C   0  0  0  0  0  2  0  0  0  0  0  0
  -24.6640  -31.0890   22.1490 N   0  0  0  0  0  0  0  0  0  0  0  0
  -23.5430  -32.1720   23.7970 O   0  0  0  0  0  0  0  0  0  0  0  0
  -22.7560  -29.4660   22.5990 C   0  0  0  0  0  0  0  0  0  0  0  0
  -21.4330  -29.2780   22.4770 N   0  0  0  0  0  0  0  0  0  0  0  0
  -23.4450  -28.8520   23.4170 O   0  0  0  0  0  0  0  0  0  0  0  0
  -20.9390  -29.8250   21.7860 H   0  0  0  0  0  0  0  0  0  0  0  0
  -18.0680  -28.0650   22.9830 C   0  0  0  0  0  0  0  0  0  0  0  0
  -20.6240  -28.3430   23.2580 C   0  0  0  0  0  3  0  0  0  0  0  0
  -20.7380  -26.9060   22.6960 C   0  0  0  0  0  2  0  0  0  0  0  0
  -19.6390  -26.5650   21.6850 C   0  0  0  0  0  2  0  0  0  0  0  0
  -18.2550  -26.7090   22.3240 C   0  0  0  0  0  2  0  0  0  0  0  0
  -19.1810  -28.8390   23.4060 C   0  0  0  0  0  0  0  0  0  0  0  0
  -18.9540  -30.1080   23.9810 C   0  0  0  0  0  3  0  0  0  0  0  0
  -17.6470  -30.6040   24.1390 C   0  0  0  0  0  3  0  0  0  0  0  0
  -16.5480  -29.8270   23.7330 C   0  0  0  0  0  3  0  0  0  0  0  0
  -16.7590  -28.5600   23.1610 C   0  0  0  0  0  3  0  0  0  0  0  0
  -25.9110  -32.5290   23.8520 C   0  0  0  0  0  3  0  0  0  0  0  0
  -25.6060  -33.9270   24.1840 N   0  0  0  0  0  0  0  0  0  0  0  0
  -25.9230  -34.9760   23.4140 C   0  0  0  0  0  0  0  0  0  0  0  0
  -26.5750  -34.8720   22.3720 O   0  0  0  0  0  0  0  0  0  0  0  0
  -25.0250  -34.0820   24.9950 H   0  0  0  0  0  0  0  0  0  0  0  0
  -24.1750  -36.7560   23.0910 C   0  0  0  0  0  1  0  0  0  0  0  0
  -25.4390  -36.3640   23.8750 C   0  0  0  0  0  3  0  0  0  0  0  0
  -27.5870  -37.2640   24.6510 C   0  0  0  0  0  1  0  0  0  0  0  0
  -26.4620  -37.4230   23.7330 N   0  0  0  0  0  0  0  0  0  0  0  0
  -26.0540  -38.3410   23.8910 H   0  0  0  0  0  0  0  0  0  0  0  0
  -26.4500  -31.7560   25.1190 C   0  0  1  0  0  0  0  0  0  0  0  0
  -25.3710  -31.5140   26.2000 C   0  0  0  0  0  1  0  0  0  0  0  0
  -27.0290  -30.3810   24.7120 C   0  0  0  0  0  1  0  0  0  0  0  0
  -27.6080  -32.5510   25.7670 C   0  0  0  0  0  1  0  0  0  0  0  0
  1  5  1  0
  3  1  2  0
  3  6  1  0
  4  2  1  0
  5  8  1  0
  5  2  2  0
  6  4  2  0
  8  7  1  0
  9  8  1  0
  9 10  1  0
 11 12  1  0
 11 10  1  0
 11 14  1  0
 13 11  1  0
 15 14  1  0
 16 15  1  0
 17 22  1  0
 18 19  1  0
 18 17  1  0
 20 19  1  0
 20 27  1  0
 20 21  1  0
 22 16  1  0
 22 21  1  0
 23 16  2  0
 24 25  2  0
 25 44  1  0
 26 25  1  0
 26 29  1  0
 27 24  1  0
 27 28  1  0
 28 26  2  0
 29 30  1  0
 30 31  2  0
 32 35  1  0
 32 31  1  0
 33 32  2  0
 34 33  1  0
 34 29  2  0
 35 36  1  0
 36 37  1  0
 37 38  2  0
 39 38  1  0
 39 43  1  0
 40 39  2  0
 41 36  2  0
 41 40  1  0
 42 41  1  0
 44 45  1  0
 45 48  1  0
 45 47  1  0
 46 44  2  0
 49 50  1  0
 49 24  1  0
 51 49  1  0
 52 54  1  0
 52  6  1  0
 53 64  2  0
 54 59  1  0
 55 63  1  0
 55 65  1  0
 56 62  1  0
 56 58  1  0
 57 63  1  0
 58 57  1  0
 59 58  2  0
 60 61  1  0
 60 54  2  0
 61 56  2  0
 62 55  1  0
 63 53  1  0
 65 67  2  0
 66 65  1  0
 68 66  1  0
 69 78  2  0
 69 74  1  0
 70 66  1  0
 70 74  1  0
 71 70  1  0
 72 73  1  0
 72 71  1  0
 73 69  1  0
 74 75  2  0
 75 76  1  0
 77 76  2  0
 78 77  1  0
 79 53  1  0
 79 80  1  0
 79 89  1  0
 80 83  1  0
 81 85  1  0
 81 80  1  0
 82 81  2  0
 85 84  1  0
 87 85  1  0
 87 88  1  0
 87 86  1  0
 89 92  1  1
 89 90  1  0
 91 89  1  0
M  ISO  4   6 101  15 100  16 100  52 101
M  END
>  <TORSDO>  (85) 
F 22

>  <SCORE>  (85) 
-13.122

>  <name>  (85) 
84

>  <ligand_id>  (85) 
84

>  <original_smiles>  (85) 
[H]c1c([H])c([H])c2c(c1[H])C([H])([H])C([H])([H])C([H])([H])C2([H])N([H])C(=O)C1([H])N(C(=O)C([H])(N([H])C(=O)C([H])(N([H])C([H])([H])[H])C([H])([H])[H])C(C([H])([H])[H])(C([H])([H])[H])C([H])([H])[H])C([H])([H])c2c([H])c(Oc3c([H])c([H])c(N(C([H])([H])[H])C([H])([H])C([H])([H])[N+]([H])([H])C([H])([H])C([H])([H])C(=O)N4C([H])([H])C([H])([H])C([H])([H])C([H])(n5nc(-c6c([H])c([H])c(Oc7c([H])c([H])c(F)c([H])c7F)c([H])c6[H])c(C(=O)N([H])[H])c5N([H])[H])C4([H])[H])c([H])c3[H])c([H])c([H])c2C1([H])[H]

>  <smiles>  (85) 
[H]c1c([H])c([H])c2c(c1[H])C([H])([H])C([H])([H])C([H])([H])C2([H])N([H])C(=O)C1([H])N(C(=O)C([H])(N([H])C(=O)C([H])(N([H])C([H])([H])[H])C([H])([H])[H])C(C([H])([H])[H])(C([H])([H])[H])C([H])([H])[H])C([H])([H])c2c([H])c(Oc3c([H])c([H])c(N(C([H])([H])[H])C([H])([H])C([H])([H])[N+]([H])([H])C([H])([H])C([H])([H])C(=O)N4C([H])([H])C([H])([H])C([H])([H])C([H])(n5nc(-c6c([H])c([H])c(Oc7c([H])c([H])c(F)c([H])c7F)c([H])c6[H])c(C(=O)N([H])[H])c5N([H])[H])C4([H])[H])c([H])c3[H])c([H])c([H])c2C1([H])[H]

$$$$
85:0:0
     RDKit          3D

 92100  0  0  1  0  0  0  0  0999 V2000
  -27.1050  -20.0310   18.2160 C   0  0  0  0  0  2  0  0  0  0  0  0
  -27.8400  -18.7750   17.7350 C   0  0  0  0  0  2  0  0  0  0  0  0
  -27.1900  -20.1800   19.7460 C   0  0  0  0  0  2  0  0  0  0  0  0
  -29.2780  -18.6940   18.2780 C   0  0  0  0  0  2  0  0  0  0  0  0
  -28.6500  -20.1810   20.2680 C   0  0  0  0  0  3  0  0  0  0  0  0
  -29.3170  -18.8140   19.8250 C   0  0  0  0  0  3  0  0  0  0  0  0
  -30.7000  -18.7250   21.9090 C   0  0  0  0  0  1  0  0  0  0  0  0
  -30.6580  -18.5060   20.4410 N   0  0  1  0  0  4  0  0  0  0  0  0
  -31.2850  -19.2020   20.0610 H   0  0  0  0  0  0  0  0  0  0  0  0
  -31.3080  -17.1960   20.0690 C   0  0  0  0  0  2  0  0  0  0  0  0
  -30.5980  -15.8780   20.5410 C   0  0  0  0  0  2  0  0  0  0  0  0
  -31.2830  -14.5820   20.0140 C   0  0  0  0  0  0  0  0  0  0  0  0
  -30.9530  -12.3620   18.9750 C   0  0  0  0  0  2  0  0  0  0  0  0
  -30.0250  -12.5190   17.7510 C   0  0  0  0  0  2  0  0  0  0  0  0
  -28.5450  -12.4280   18.1740 C   0  0  0  0  0  2  0  0  0  0  0  0
  -28.2130  -13.3390   19.3860 C   0  0  0  0  0  3  0  0  0  0  0  0
  -29.2580  -13.1760   20.5130 C   0  0  0  0  0  2  0  0  0  0  0  0
  -30.5910  -13.4100   19.9430 N   0  0  0  0  0  0  0  0  0  0  0  0
  -32.4210  -14.6820   19.5500 O   0  0  0  0  0  0  0  0  0  0  0  0
  -25.8280  -14.0290   20.0600 C   0  0  0  0  0  0  0  0  0  0  0  0
  -24.7400  -13.2970   20.4530 C   0  0  0  0  0  0  0  0  0  0  0  0
  -25.1690  -11.9350   20.4770 C   0  0  0  0  0  0  0  0  0  0  0  0
  -26.8530  -13.1140   19.8700 N   0  0  0  0  0  0  0  0  0  0  0  0
  -26.4590  -11.8520   20.1800 N   0  0  0  0  0  0  0  0  0  0  0  0
  -24.4100  -10.6980   20.7110 C   0  0  0  0  0  0  0  0  0  0  0  0
  -24.7830   -9.7820   21.7190 C   0  0  0  0  0  3  0  0  0  0  0  0
  -24.0280   -8.6090   21.9370 C   0  0  0  0  0  3  0  0  0  0  0  0
  -22.8850   -8.3450   21.1440 C   0  0  0  0  0  0  0  0  0  0  0  0
  -22.5320   -9.2490   20.1260 C   0  0  0  0  0  3  0  0  0  0  0  0
  -23.2880  -10.4130   19.9090 C   0  0  0  0  0  3  0  0  0  0  0  0
  -22.1060   -7.2200   21.2670 O   0  0  0  0  0  0  0  0  0  0  0  0
  -21.9500   -6.5810   22.4710 C   0  0  0  0  0  0  0  0  0  0  0  0
  -21.4280   -7.2420   23.6030 C   0  0  0  0  0  3  0  0  0  0  0  0
  -21.2190   -6.5290   24.8000 C   0  0  0  0  0  3  0  0  0  0  0  0
  -21.5200   -5.1560   24.8650 C   0  0  0  0  0  0  0  0  0  0  0  0
  -22.0350   -4.4940   23.7360 C   0  0  0  0  0  3  0  0  0  0  0  0
  -22.2460   -5.2050   22.5420 C   0  0  0  0  0  0  0  0  0  0  0  0
  -22.7220   -4.5570   21.4510 F   0  0  0  0  0  0  0  0  0  0  0  0
  -21.3120   -4.4690   26.0130 F   0  0  0  0  0  0  0  0  0  0  0  0
  -23.3520  -13.8180   20.6960 C   0  0  0  0  0  0  0  0  0  0  0  0
  -22.6070  -13.1800   21.5910 N   0  0  0  0  0  0  0  0  0  0  0  0
  -22.9390  -14.8270   20.1250 O   0  0  0  0  0  0  0  0  0  0  0  0
  -22.9530  -12.3630   22.0730 H   0  0  0  0  0  0  0  0  0  0  0  0
  -21.6760  -13.5120   21.7970 H   0  0  0  0  0  0  0  0  0  0  0  0
  -26.0280  -15.3860   19.8290 N   0  0  0  0  0  0  0  0  0  0  0  0
  -25.2720  -16.0600   19.8950 H   0  0  0  0  0  0  0  0  0  0  0  0
  -26.8820  -15.7830   19.4600 H   0  0  0  0  0  0  0  0  0  0  0  0
  -29.3800  -21.5170   19.8750 C   0  0  0  0  0  2  0  0  0  0  0  0
  -28.8250  -22.8030   20.5780 C   0  0  0  0  0  2  0  0  0  0  0  0
  -29.0560  -24.1680   19.8540 C   0  0  0  0  0  2  0  0  0  0  0  0
  -28.4190  -25.3760   20.6030 C   0  0  0  0  0  2  0  0  0  0  0  0
  -28.5790  -26.6670   19.9630 O   0  0  0  0  0  0  0  0  0  0  0  0
  -24.6500  -31.7480   23.0910 C   0  0  0  0  0  0  0  0  0  0  0  0
  -27.4320  -27.4380   19.9350 C   0  0  0  0  0  0  0  0  0  0  0  0
  -23.5090  -30.3900   21.3680 C   0  0  0  0  0  3  0  0  0  0  0  0
  -25.0230  -28.9280   19.9230 C   0  0  0  0  0  0  0  0  0  0  0  0
  -26.0350  -30.7880   21.2500 C   0  0  0  0  0  2  0  0  0  0  0  0
  -26.1590  -29.4420   20.5610 C   0  0  0  0  0  0  0  0  0  0  0  0
  -27.3700  -28.7060   20.5610 C   0  0  0  0  0  3  0  0  0  0  0  0
  -26.2820  -26.9480   19.2780 C   0  0  0  0  0  3  0  0  0  0  0  0
  -25.0810  -27.6820   19.2730 C   0  0  0  0  0  3  0  0  0  0  0  0
  -23.7640  -29.7670   19.9700 C   0  0  0  0  0  2  0  0  0  0  0  0
  -24.7480  -30.9880   21.9630 N   0  0  0  0  0  0  0  0  0  0  0  0
  -23.5510  -31.9850   23.6110 O   0  0  0  0  0  0  0  0  0  0  0  0
  -22.8480  -29.3250   22.2730 C   0  0  0  0  0  0  0  0  0  0  0  0
  -21.5200  -29.1690   22.1430 N   0  0  0  0  0  0  0  0  0  0  0  0
  -23.5260  -28.6460   23.0480 O   0  0  0  0  0  0  0  0  0  0  0  0
  -21.0350  -29.7720   21.4930 H   0  0  0  0  0  0  0  0  0  0  0  0
  -18.1280  -28.0130   22.6120 C   0  0  0  0  0  0  0  0  0  0  0  0
  -20.6940  -28.2000   22.8630 C   0  0  0  0  0  3  0  0  0  0  0  0
  -20.7590  -26.8080   22.1950 C   0  0  0  0  0  2  0  0  0  0  0  0
  -19.6370  -26.5740   21.1770 C   0  0  0  0  0  2  0  0  0  0  0  0
  -18.2660  -26.7060   21.8490 C   0  0  0  0  0  2  0  0  0  0  0  0
  -19.2680  -28.7230   23.0740 C   0  0  0  0  0  0  0  0  0  0  0  0
  -19.0840  -29.9500   23.7470 C   0  0  0  0  0  3  0  0  0  0  0  0
  -17.7930  -30.4670   23.9620 C   0  0  0  0  0  3  0  0  0  0  0  0
  -16.6670  -29.7520   23.5160 C   0  0  0  0  0  3  0  0  0  0  0  0
  -16.8360  -28.5270   22.8470 C   0  0  0  0  0  3  0  0  0  0  0  0
  -25.9100  -32.3730   23.7670 C   0  0  0  0  0  3  0  0  0  0  0  0
  -25.5750  -33.7560   24.1330 N   0  0  0  0  0  0  0  0  0  0  0  0
  -25.9140  -34.8360   23.4150 C   0  0  0  0  0  0  0  0  0  0  0  0
  -26.6120  -34.7720   22.3990 O   0  0  0  0  0  0  0  0  0  0  0  0
  -24.9600  -33.8780   24.9240 H   0  0  0  0  0  0  0  0  0  0  0  0
  -24.1700  -36.6150   23.0710 C   0  0  0  0  0  1  0  0  0  0  0  0
  -25.3960  -36.2020   23.9020 C   0  0  0  0  0  3  0  0  0  0  0  0
  -27.4950  -37.0910   24.8150 C   0  0  0  0  0  1  0  0  0  0  0  0
  -26.4160  -37.2720   23.8470 N   0  0  0  0  0  0  0  0  0  0  0  0
  -25.9920  -38.1810   24.0120 H   0  0  0  0  0  0  0  0  0  0  0  0
  -26.4040  -31.5660   25.0300 C   0  0  1  0  0  0  0  0  0  0  0  0
  -25.2890  -31.2840   26.0640 C   0  0  0  0  0  1  0  0  0  0  0  0
  -27.0080  -30.2060   24.6060 C   0  0  0  0  0  1  0  0  0  0  0  0
  -27.5330  -32.3470   25.7440 C   0  0  0  0  0  1  0  0  0  0  0  0
  1  3  1  0
  2  1  1  0
  2  4  1  0
  3  5  1  0
  4  6  1  0
  5 48  1  0
  6  5  1  0
  6  8  1  0
  8  7  1  0
  8  9  1  6
 10  8  1  0
 10 11  1  0
 12 11  1  0
 13 18  1  0
 14 15  1  0
 14 13  1  0
 16 15  1  0
 16 23  1  0
 16 17  1  0
 18 12  1  0
 18 17  1  0
 19 12  2  0
 20 21  2  0
 21 22  1  0
 21 40  1  0
 22 25  1  0
 23 20  1  0
 23 24  1  0
 24 22  2  0
 25 26  1  0
 26 27  2  0
 28 31  1  0
 28 27  1  0
 29 28  2  0
 30 29  1  0
 30 25  2  0
 31 32  1  0
 32 37  2  0
 32 33  1  0
 33 34  2  0
 34 35  1  0
 35 39  1  0
 36 35  2  0
 37 36  1  0
 38 37  1  0
 40 41  1  0
 41 44  1  0
 41 43  1  0
 42 40  2  0
 45 46  1  0
 45 20  1  0
 47 45  1  0
 48 49  1  0
 50 49  1  0
 50 51  1  0
 52 51  1  0
 53 64  2  0
 54 52  1  0
 54 59  1  0
 55 63  1  0
 55 65  1  0
 56 62  1  0
 56 58  1  0
 57 63  1  0
 58 57  1  0
 59 58  2  0
 60 54  2  0
 61 60  1  0
 61 56  2  0
 62 55  1  0
 63 53  1  0
 65 67  2  0
 66 65  1  0
 68 66  1  0
 69 78  2  0
 69 74  1  0
 70 66  1  0
 70 74  1  0
 71 70  1  0
 72 73  1  0
 72 71  1  0
 73 69  1  0
 74 75  2  0
 75 76  1  0
 77 76  2  0
 78 77  1  0
 79 53  1  0
 79 80  1  0
 79 89  1  0
 80 83  1  0
 81 85  1  0
 81 80  1  0
 82 81  2  0
 85 84  1  0
 87 85  1  0
 87 88  1  0
 87 86  1  0
 89 92  1  1
 89 90  1  0
 91 89  1  0
M  ISO  4  11 100  12 100  51 101  52 101
M  END
>  <TORSDO>  (86) 
F 23

>  <SCORE>  (86) 
-11.649

>  <name>  (86) 
85

>  <ligand_id>  (86) 
85

>  <original_smiles>  (86) 
[H]c1c([H])c([H])c2c(c1[H])C([H])([H])C([H])([H])C([H])([H])C2([H])N([H])C(=O)C1([H])N(C(=O)C([H])(N([H])C(=O)C([H])(N([H])C([H])([H])[H])C([H])([H])[H])C(C([H])([H])[H])(C([H])([H])[H])C([H])([H])[H])C([H])([H])c2c([H])c(OC([H])([H])C([H])([H])C([H])([H])C([H])([H])C3([H])C([H])([H])C([H])([H])C([H])([H])C([H])([H])C3([H])[N+]([H])(C([H])([H])[H])C([H])([H])C([H])([H])C(=O)N3C([H])([H])C([H])([H])C([H])([H])C([H])(n4nc(-c5c([H])c([H])c(Oc6c([H])c([H])c(F)c([H])c6F)c([H])c5[H])c(C(=O)N([H])[H])c4N([H])[H])C3([H])[H])c([H])c([H])c2C1([H])[H]

>  <smiles>  (86) 
[H]c1c([H])c([H])c2c(c1[H])C([H])([H])C([H])([H])C([H])([H])C2([H])N([H])C(=O)C1([H])N(C(=O)C([H])(N([H])C(=O)C([H])(N([H])C([H])([H])[H])C([H])([H])[H])C(C([H])([H])[H])(C([H])([H])[H])C([H])([H])[H])C([H])([H])c2c([H])c(OC([H])([H])C([H])([H])C([H])([H])C([H])([H])C3([H])C([H])([H])C([H])([H])C([H])([H])C([H])([H])C3([H])[N+]([H])(C([H])([H])[H])C([H])([H])C([H])([H])C(=O)N3C([H])([H])C([H])([H])C([H])([H])C([H])(n4nc(-c5c([H])c([H])c(Oc6c([H])c([H])c(F)c([H])c6F)c([H])c5[H])c(C(=O)N([H])[H])c4N([H])[H])C3([H])[H])c([H])c([H])c2C1([H])[H]

$$$$
86:0:0
     RDKit          3D

 91 98  0  0  1  0  0  0  0  0999 V2000
  -29.0990  -19.7910   20.5690 N   0  0  0  0  0  4  0  0  0  0  0  0
  -29.4900  -19.9380   21.4870 H   0  0  0  0  0  0  0  0  0  0  0  0
  -28.1390  -19.5300   20.7090 H   0  0  0  0  0  0  0  0  0  0  0  0
  -28.3830  -21.1820   18.5020 C   0  0  0  0  0  1  0  0  0  0  0  0
  -29.0740  -21.2900   19.8740 C   0  0  0  0  0  3  0  0  0  0  0  0
  -28.5650  -22.8420   20.5890 C   0  0  0  0  0  2  0  0  0  0  0  0
  -28.2040  -24.4260   19.8650 C   0  0  0  0  0  2  0  0  0  0  0  0
  -28.2050  -25.9720   20.3810 O   0  0  0  0  0  0  0  0  0  0  0  0
  -24.6390  -31.9010   23.2560 C   0  0  0  0  0  0  0  0  0  0  0  0
  -27.1810  -27.0330   20.2620 C   0  0  0  0  0  0  0  0  0  0  0  0
  -23.4380  -30.4960   21.6280 C   0  0  0  0  0  3  0  0  0  0  0  0
  -24.8800  -28.8870   20.2110 C   0  0  0  0  0  0  0  0  0  0  0  0
  -26.0020  -30.7080   21.4790 C   0  0  0  0  0  2  0  0  0  0  0  0
  -26.0660  -29.3000   20.8320 C   0  0  0  0  0  0  0  0  0  0  0  0
  -27.2080  -28.3910   20.8390 C   0  0  0  0  0  3  0  0  0  0  0  0
  -25.9710  -26.7640   19.5820 C   0  0  0  0  0  3  0  0  0  0  0  0
  -24.8570  -27.6400   19.5670 C   0  0  0  0  0  3  0  0  0  0  0  0
  -23.6630  -29.8070   20.2560 C   0  0  0  0  0  2  0  0  0  0  0  0
  -24.7150  -31.0620   22.1740 N   0  0  0  0  0  0  0  0  0  0  0  0
  -23.5510  -32.2020   23.7740 O   0  0  0  0  0  0  0  0  0  0  0  0
  -22.7420  -29.5080   22.5980 C   0  0  0  0  0  0  0  0  0  0  0  0
  -21.4110  -29.3530   22.4730 N   0  0  0  0  0  0  0  0  0  0  0  0
  -23.4040  -28.8840   23.4300 O   0  0  0  0  0  0  0  0  0  0  0  0
  -20.9330  -29.9090   21.7790 H   0  0  0  0  0  0  0  0  0  0  0  0
  -18.0180  -28.1750   22.9800 C   0  0  0  0  0  0  0  0  0  0  0  0
  -20.5810  -28.4260   23.2480 C   0  0  0  0  0  3  0  0  0  0  0  0
  -20.6730  -26.9890   22.6850 C   0  0  0  0  0  2  0  0  0  0  0  0
  -19.5700  -26.6670   21.6710 C   0  0  0  0  0  2  0  0  0  0  0  0
  -18.1880  -26.8210   22.3110 C   0  0  0  0  0  2  0  0  0  0  0  0
  -19.1410  -28.9350   23.4060 C   0  0  0  0  0  0  0  0  0  0  0  0
  -18.9260  -30.2000   23.9950 C   0  0  0  0  0  3  0  0  0  0  0  0
  -17.6210  -30.7050   24.1620 C   0  0  0  0  0  3  0  0  0  0  0  0
  -16.5150  -29.9430   23.7510 C   0  0  0  0  0  3  0  0  0  0  0  0
  -16.7140  -28.6800   23.1660 C   0  0  0  0  0  3  0  0  0  0  0  0
  -25.9130  -32.5390   23.8860 C   0  0  0  0  0  3  0  0  0  0  0  0
  -25.6040  -33.9450   24.2080 N   0  0  0  0  0  0  0  0  0  0  0  0
  -25.9450  -34.9970   23.4540 C   0  0  0  0  0  0  0  0  0  0  0  0
  -26.6160  -34.8890   22.4250 O   0  0  0  0  0  0  0  0  0  0  0  0
  -25.0040  -34.1030   25.0030 H   0  0  0  0  0  0  0  0  0  0  0  0
  -24.2330  -36.8090   23.0970 C   0  0  0  0  0  1  0  0  0  0  0  0
  -25.4680  -36.3910   23.9100 C   0  0  0  0  0  3  0  0  0  0  0  0
  -27.6060  -37.2630   24.7490 C   0  0  0  0  0  1  0  0  0  0  0  0
  -26.5090  -37.4370   23.8000 N   0  0  0  0  0  0  0  0  0  0  0  0
  -26.1110  -38.3610   23.9390 H   0  0  0  0  0  0  0  0  0  0  0  0
  -26.4110  -31.7800   25.1800 C   0  0  1  0  0  0  0  0  0  0  0  0
  -25.3040  -31.5640   26.2390 C   0  0  0  0  0  1  0  0  0  0  0  0
  -26.9870  -30.3920   24.8160 C   0  0  0  0  0  1  0  0  0  0  0  0
  -27.5640  -32.5720   25.8430 C   0  0  0  0  0  1  0  0  0  0  0  0
  -29.8660  -18.4190   20.0630 C   0  0  0  0  0  3  0  0  0  0  0  0
  -31.3580  -18.7000   20.2220 C   0  0  0  0  0  0  0  0  0  0  0  0
  -32.1520  -18.5490   19.1660 N   0  0  0  0  0  0  0  0  0  0  0  0
  -31.7980  -19.0730   21.3080 O   0  0  0  0  0  0  0  0  0  0  0  0
  -31.7820  -18.2520   18.2730 H   0  0  0  0  0  0  0  0  0  0  0  0
  -33.1430  -18.7340   19.2430 H   0  0  0  0  0  0  0  0  0  0  0  0
  -29.6200  -16.7450   20.6080 C   0  0  0  0  0  2  0  0  0  0  0  0
  -30.4470  -15.2490   20.2850 C   0  0  0  0  0  0  0  0  0  0  0  0
  -30.4350  -12.8230   19.3800 C   0  0  0  0  0  2  0  0  0  0  0  0
  -29.5030  -12.6910   18.1470 C   0  0  0  0  0  2  0  0  0  0  0  0
  -28.0460  -12.4360   18.5810 C   0  0  0  0  0  2  0  0  0  0  0  0
  -27.6160  -13.3550   19.7530 C   0  0  0  0  0  3  0  0  0  0  0  0
  -28.6750  -13.4380   20.8720 C   0  0  0  0  0  2  0  0  0  0  0  0
  -29.9190  -13.9310   20.2590 N   0  0  0  0  0  0  0  0  0  0  0  0
  -31.6440  -15.2790   19.9740 O   0  0  0  0  0  0  0  0  0  0  0  0
  -25.2410  -13.8940   20.5130 C   0  0  0  0  0  0  0  0  0  0  0  0
  -24.1860  -13.1070   20.8820 C   0  0  0  0  0  0  0  0  0  0  0  0
  -24.6610  -11.7610   20.8430 C   0  0  0  0  0  0  0  0  0  0  0  0
  -26.2890  -13.0280   20.2620 N   0  0  0  0  0  0  0  0  0  0  0  0
  -25.9530  -11.7370   20.5290 N   0  0  0  0  0  0  0  0  0  0  0  0
  -23.9450  -10.4920   21.0330 C   0  0  0  0  0  0  0  0  0  0  0  0
  -24.3740   -9.5310   21.9730 C   0  0  0  0  0  3  0  0  0  0  0  0
  -23.6550   -8.3310   22.1520 C   0  0  0  0  0  3  0  0  0  0  0  0
  -22.4870   -8.0840   21.3920 C   0  0  0  0  0  0  0  0  0  0  0  0
  -22.0760   -9.0330   20.4390 C   0  0  0  0  0  3  0  0  0  0  0  0
  -22.7970  -10.2270   20.2580 C   0  0  0  0  0  3  0  0  0  0  0  0
  -21.7390   -6.9350   21.4790 O   0  0  0  0  0  0  0  0  0  0  0  0
  -21.6770   -6.2010   22.6340 C   0  0  0  0  0  0  0  0  0  0  0  0
  -21.2200   -6.7580   23.8480 C   0  0  0  0  0  3  0  0  0  0  0  0
  -21.1110   -5.9490   24.9980 C   0  0  0  0  0  3  0  0  0  0  0  0
  -21.4470   -4.5830   24.9330 C   0  0  0  0  0  0  0  0  0  0  0  0
  -21.8980   -4.0250   23.7250 C   0  0  0  0  0  3  0  0  0  0  0  0
  -22.0110   -4.8320   22.5780 C   0  0  0  0  0  0  0  0  0  0  0  0
  -22.4240   -4.2840   21.4090 F   0  0  0  0  0  0  0  0  0  0  0  0
  -21.3350   -3.8040   26.0340 F   0  0  0  0  0  0  0  0  0  0  0  0
  -22.7860  -13.5710   21.1580 C   0  0  0  0  0  0  0  0  0  0  0  0
  -22.0690  -12.8590   22.0180 N   0  0  0  0  0  0  0  0  0  0  0  0
  -22.3390  -14.5960   20.6450 O   0  0  0  0  0  0  0  0  0  0  0  0
  -22.4560  -12.0340   22.4560 H   0  0  0  0  0  0  0  0  0  0  0  0
  -21.1240  -13.1390   22.2410 H   0  0  0  0  0  0  0  0  0  0  0  0
  -25.3880  -15.2680   20.3410 N   0  0  0  0  0  0  0  0  0  0  0  0
  -24.6050  -15.9040   20.4450 H   0  0  0  0  0  0  0  0  0  0  0  0
  -26.2200  -15.7210   19.9850 H   0  0  0  0  0  0  0  0  0  0  0  0
  1  3  1  0
  1  2  1  0
  5  4  1  0
  5  1  1  0
  5  6  1  0
  7  8  1  0
  7  6  1  0
  9 20  2  0
 10  8  1  0
 10 15  1  0
 11 19  1  0
 11 21  1  0
 12 18  1  0
 12 14  1  0
 13 19  1  0
 14 15  2  0
 14 13  1  0
 16 10  2  0
 17 16  1  0
 17 12  2  0
 18 11  1  0
 19  9  1  0
 21 23  2  0
 22 21  1  0
 24 22  1  0
 25 34  2  0
 25 30  1  0
 26 22  1  0
 26 30  1  0
 27 26  1  0
 28 29  1  0
 28 27  1  0
 29 25  1  0
 30 31  2  0
 31 32  1  0
 33 32  2  0
 34 33  1  0
 35  9  1  0
 35 36  1  0
 35 45  1  0
 36 39  1  0
 37 41  1  0
 37 36  1  0
 38 37  2  0
 41 40  1  0
 43 41  1  0
 43 44  1  0
 43 42  1  0
 45 48  1  1
 45 46  1  0
 47 45  1  0
 49 50  1  0
 49  1  1  0
 49 55  1  0
 50 52  2  0
 51 54  1  0
 51 50  1  0
 53 51  1  0
 56 55  1  0
 57 62  1  0
 58 59  1  0
 58 57  1  0
 60 59  1  0
 60 67  1  0
 60 61  1  0
 62 56  1  0
 62 61  1  0
 63 56  2  0
 64 65  2  0
 65 84  1  0
 66 65  1  0
 66 69  1  0
 67 64  1  0
 67 68  1  0
 68 66  2  0
 69 70  1  0
 70 71  2  0
 72 75  1  0
 72 71  1  0
 73 72  2  0
 74 73  1  0
 74 69  2  0
 75 76  1  0
 76 77  1  0
 77 78  2  0
 79 78  1  0
 79 83  1  0
 80 79  2  0
 81 76  2  0
 81 80  1  0
 82 81  1  0
 84 85  1  0
 85 88  1  0
 85 87  1  0
 86 84  2  0
 89 90  1  0
 89 64  1  0
 91 89  1  0
M  ISO  4   7 101   8 101  55 100  56 100
M  END
>  <TORSDO>  (87) 
F 22

>  <SCORE>  (87) 
-14.817

>  <name>  (87) 
86

>  <ligand_id>  (87) 
86

>  <original_smiles>  (87) 
[H]c1c([H])c([H])c2c(c1[H])C([H])([H])C([H])([H])C([H])([H])C2([H])N([H])C(=O)C1([H])N(C(=O)C([H])(N([H])C(=O)C([H])(N([H])C([H])([H])[H])C([H])([H])[H])C(C([H])([H])[H])(C([H])([H])[H])C([H])([H])[H])C([H])([H])c2c([H])c(OC([H])([H])C([H])([H])C([H])(C([H])([H])[H])[N+]([H])([H])C([H])(C(=O)N([H])[H])C([H])([H])C(=O)N3C([H])([H])C([H])([H])C([H])([H])C([H])(n4nc(-c5c([H])c([H])c(Oc6c([H])c([H])c(F)c([H])c6F)c([H])c5[H])c(C(=O)N([H])[H])c4N([H])[H])C3([H])[H])c([H])c([H])c2C1([H])[H]

>  <smiles>  (87) 
[H]c1c([H])c([H])c2c(c1[H])C([H])([H])C([H])([H])C([H])([H])C2([H])N([H])C(=O)C1([H])N(C(=O)C([H])(N([H])C(=O)C([H])(N([H])C([H])([H])[H])C([H])([H])[H])C(C([H])([H])[H])(C([H])([H])[H])C([H])([H])[H])C([H])([H])c2c([H])c(OC([H])([H])C([H])([H])C([H])(C([H])([H])[H])[N+]([H])([H])C([H])(C(=O)N([H])[H])C([H])([H])C(=O)N3C([H])([H])C([H])([H])C([H])([H])C([H])(n4nc(-c5c([H])c([H])c(Oc6c([H])c([H])c(F)c([H])c6F)c([H])c5[H])c(C(=O)N([H])[H])c4N([H])[H])C3([H])[H])c([H])c([H])c2C1([H])[H]

$$$$
87:0:0
     RDKit          3D

 88 95  0  0  1  0  0  0  0  0999 V2000
  -29.0290  -21.2550   20.6000 C   0  0  0  0  0  2  0  0  0  0  0  0
  -27.8970  -19.4360   19.2210 C   0  0  0  0  0  1  0  0  0  0  0  0
  -29.2060  -19.8190   19.7930 N   0  0  2  0  0  4  0  0  0  0  0  0
  -29.7400  -20.1020   18.9840 H   0  0  0  0  0  0  0  0  0  0  0  0
  -30.0220  -18.4490   20.2580 C   0  0  0  0  0  3  0  0  0  0  0  0
  -29.6360  -16.7560   19.8710 C   0  0  0  0  0  2  0  0  0  0  0  0
  -30.5080  -15.2540   19.8810 C   0  0  0  0  0  0  0  0  0  0  0  0
  -30.4220  -12.8350   18.9850 C   0  0  0  0  0  2  0  0  0  0  0  0
  -29.4170  -12.7150   17.8100 C   0  0  0  0  0  2  0  0  0  0  0  0
  -27.9890  -12.4620   18.3290 C   0  0  0  0  0  2  0  0  0  0  0  0
  -27.6310  -13.3940   19.5140 C   0  0  0  0  0  3  0  0  0  0  0  0
  -28.7500  -13.4750   20.5690 C   0  0  0  0  0  2  0  0  0  0  0  0
  -29.9660  -13.9460   19.8890 N   0  0  0  0  0  0  0  0  0  0  0  0
  -31.7200  -15.2700   19.6140 O   0  0  0  0  0  0  0  0  0  0  0  0
  -25.3220  -13.9570   20.4490 C   0  0  0  0  0  0  0  0  0  0  0  0
  -24.2790  -13.1790   20.8680 C   0  0  0  0  0  0  0  0  0  0  0  0
  -24.7270  -11.8260   20.7660 C   0  0  0  0  0  0  0  0  0  0  0  0
  -26.3350  -13.0790   20.1040 N   0  0  0  0  0  0  0  0  0  0  0  0
  -25.9930  -11.7890   20.3630 N   0  0  0  0  0  0  0  0  0  0  0  0
  -24.0000  -10.5650   20.9710 C   0  0  0  0  0  0  0  0  0  0  0  0
  -24.4550   -9.5870   21.8820 C   0  0  0  0  0  3  0  0  0  0  0  0
  -23.7260   -8.3940   22.0760 C   0  0  0  0  0  3  0  0  0  0  0  0
  -22.5280   -8.1680   21.3570 C   0  0  0  0  0  0  0  0  0  0  0  0
  -22.0920   -9.1340   20.4340 C   0  0  0  0  0  3  0  0  0  0  0  0
  -22.8200  -10.3200   20.2380 C   0  0  0  0  0  3  0  0  0  0  0  0
  -21.7690   -7.0280   21.4610 O   0  0  0  0  0  0  0  0  0  0  0  0
  -21.7220   -6.2960   22.6200 C   0  0  0  0  0  0  0  0  0  0  0  0
  -21.2750   -6.8550   23.8370 C   0  0  0  0  0  3  0  0  0  0  0  0
  -21.1800   -6.0480   24.9900 C   0  0  0  0  0  3  0  0  0  0  0  0
  -21.5210   -4.6840   24.9250 C   0  0  0  0  0  0  0  0  0  0  0  0
  -21.9590   -4.1240   23.7110 C   0  0  0  0  0  3  0  0  0  0  0  0
  -22.0570   -4.9280   22.5620 C   0  0  0  0  0  0  0  0  0  0  0  0
  -22.4620   -4.3790   21.3910 F   0  0  0  0  0  0  0  0  0  0  0  0
  -21.4210   -3.9070   26.0280 F   0  0  0  0  0  0  0  0  0  0  0  0
  -22.9080  -13.6610   21.2440 C   0  0  0  0  0  0  0  0  0  0  0  0
  -22.2350  -12.9460   22.1370 N   0  0  0  0  0  0  0  0  0  0  0  0
  -22.4480  -14.7040   20.7800 O   0  0  0  0  0  0  0  0  0  0  0  0
  -22.6230  -12.1030   22.5310 H   0  0  0  0  0  0  0  0  0  0  0  0
  -21.3150  -13.2460   22.4300 H   0  0  0  0  0  0  0  0  0  0  0  0
  -25.4930  -15.3310   20.3010 N   0  0  0  0  0  0  0  0  0  0  0  0
  -24.7490  -15.9940   20.4810 H   0  0  0  0  0  0  0  0  0  0  0  0
  -26.3230  -15.7580   19.9130 H   0  0  0  0  0  0  0  0  0  0  0  0
  -30.3360  -18.5200   21.7730 C   0  0  0  0  0  2  0  0  0  0  0  0
  -31.7920  -18.8810   22.1060 C   0  0  0  0  0  2  0  0  0  0  0  0
  -32.1050  -20.0860   21.6300 F   0  0  0  0  0  0  0  0  0  0  0  0
  -28.8650  -22.9110   19.9670 C   0  0  0  0  0  2  0  0  0  0  0  0
  -28.1830  -24.4010   20.6610 C   0  0  0  0  0  2  0  0  0  0  0  0
  -28.3630  -26.0000   20.4050 O   0  0  0  0  0  0  0  0  0  0  0  0
  -24.6440  -31.8970   23.2390 C   0  0  0  0  0  0  0  0  0  0  0  0
  -27.3050  -27.0320   20.3730 C   0  0  0  0  0  0  0  0  0  0  0  0
  -23.4860  -30.4510   21.6160 C   0  0  0  0  0  3  0  0  0  0  0  0
  -24.9720  -28.8370   20.2540 C   0  0  0  0  0  0  0  0  0  0  0  0
  -26.0480  -30.7100   21.4870 C   0  0  0  0  0  2  0  0  0  0  0  0
  -26.1470  -29.2890   20.8710 C   0  0  0  0  0  0  0  0  0  0  0  0
  -27.3130  -28.4080   20.8990 C   0  0  0  0  0  3  0  0  0  0  0  0
  -26.0990  -26.7120   19.7140 C   0  0  0  0  0  3  0  0  0  0  0  0
  -24.9690  -27.5660   19.6550 C   0  0  0  0  0  3  0  0  0  0  0  0
  -23.7390  -29.7360   20.2590 C   0  0  0  0  0  2  0  0  0  0  0  0
  -24.7470  -31.0460   22.1670 N   0  0  0  0  0  0  0  0  0  0  0  0
  -23.5460  -32.1820   23.7420 O   0  0  0  0  0  0  0  0  0  0  0  0
  -22.7960  -29.4660   22.5940 C   0  0  0  0  0  0  0  0  0  0  0  0
  -21.4770  -29.2510   22.4320 N   0  0  0  0  0  0  0  0  0  0  0  0
  -23.4530  -28.8940   23.4660 O   0  0  0  0  0  0  0  0  0  0  0  0
  -21.0000  -29.7650   21.7040 H   0  0  0  0  0  0  0  0  0  0  0  0
  -18.1300  -27.9130   22.8350 C   0  0  0  0  0  0  0  0  0  0  0  0
  -20.6580  -28.3150   23.2100 C   0  0  0  0  0  3  0  0  0  0  0  0
  -20.8540  -26.8630   22.7170 C   0  0  0  0  0  2  0  0  0  0  0  0
  -19.8210  -26.4370   21.6680 C   0  0  0  0  0  2  0  0  0  0  0  0
  -18.4040  -26.5440   22.2360 C   0  0  0  0  0  2  0  0  0  0  0  0
  -19.1890  -28.7520   23.2770 C   0  0  0  0  0  0  0  0  0  0  0  0
  -18.8780  -30.0270   23.7970 C   0  0  0  0  0  3  0  0  0  0  0  0
  -17.5440  -30.4670   23.8770 C   0  0  0  0  0  3  0  0  0  0  0  0
  -16.5000  -29.6290   23.4500 C   0  0  0  0  0  3  0  0  0  0  0  0
  -16.7940  -28.3530   22.9360 C   0  0  0  0  0  3  0  0  0  0  0  0
  -25.9000  -32.5670   23.8730 C   0  0  0  0  0  3  0  0  0  0  0  0
  -25.5640  -33.9710   24.1690 N   0  0  0  0  0  0  0  0  0  0  0  0
  -25.8860  -35.0160   23.3950 C   0  0  0  0  0  0  0  0  0  0  0  0
  -26.5610  -34.9020   22.3690 O   0  0  0  0  0  0  0  0  0  0  0  0
  -24.9640  -34.1320   24.9640 H   0  0  0  0  0  0  0  0  0  0  0  0
  -24.1310  -36.7820   23.0160 C   0  0  0  0  0  1  0  0  0  0  0  0
  -25.3830  -36.4090   23.8270 C   0  0  0  0  0  3  0  0  0  0  0  0
  -27.5060  -37.3480   24.6310 C   0  0  0  0  0  1  0  0  0  0  0  0
  -26.3990  -37.4740   23.6860 N   0  0  0  0  0  0  0  0  0  0  0  0
  -25.9790  -38.3910   23.8100 H   0  0  0  0  0  0  0  0  0  0  0  0
  -26.3960  -31.8380   25.1830 C   0  0  1  0  0  0  0  0  0  0  0  0
  -25.2830  -31.6180   26.2330 C   0  0  0  0  0  1  0  0  0  0  0  0
  -27.0050  -30.4560   24.8510 C   0  0  0  0  0  1  0  0  0  0  0  0
  -27.5200  -32.6650   25.8510 C   0  0  0  0  0  1  0  0  0  0  0  0
  2  3  1  0
  3  5  1  0
  3  1  1  0
  3  4  1  6
  5  6  1  0
  5 43  1  0
  6  7  1  0
  7 13  1  0
  8 13  1  0
  9 10  1  0
  9  8  1  0
 11 10  1  0
 11 18  1  0
 11 12  1  0
 13 12  1  0
 14  7  2  0
 15 16  2  0
 16 35  1  0
 17 16  1  0
 17 20  1  0
 18 19  1  0
 18 15  1  0
 19 17  2  0
 20 21  1  0
 21 22  2  0
 23 26  1  0
 23 22  1  0
 24 23  2  0
 25 24  1  0
 25 20  2  0
 26 27  1  0
 27 28  1  0
 28 29  2  0
 30 29  1  0
 30 34  1  0
 31 30  2  0
 32 27  2  0
 32 31  1  0
 33 32  1  0
 35 36  1  0
 36 39  1  0
 36 38  1  0
 37 35  2  0
 40 15  1  0
 40 41  1  0
 42 40  1  0
 43 44  1  0
 45 44  1  0
 46  1  1  0
 46 47  1  0
 48 47  1  0
 49 60  2  0
 50 48  1  0
 50 55  1  0
 51 59  1  0
 51 61  1  0
 52 58  1  0
 52 54  1  0
 53 59  1  0
 54 55  2  0
 54 53  1  0
 56 50  2  0
 57 56  1  0
 57 52  2  0
 58 51  1  0
 59 49  1  0
 61 63  2  0
 62 61  1  0
 64 62  1  0
 65 74  2  0
 65 70  1  0
 66 62  1  0
 66 70  1  0
 67 66  1  0
 68 69  1  0
 68 67  1  0
 69 65  1  0
 70 71  2  0
 71 72  1  0
 73 72  2  0
 74 73  1  0
 75 49  1  0
 75 76  1  0
 75 85  1  0
 76 79  1  0
 77 81  1  0
 77 76  1  0
 78 77  2  0
 81 80  1  0
 83 84  1  0
 83 81  1  0
 83 82  1  0
 85 88  1  1
 85 86  1  0
 87 85  1  0
M  ISO  4   6 100   7 100  47 101  48 101
M  END
>  <TORSDO>  (88) 
F 23

>  <SCORE>  (88) 
-14.218

>  <name>  (88) 
87

>  <ligand_id>  (88) 
87

>  <original_smiles>  (88) 
[H]c1c([H])c([H])c2c(c1[H])C([H])([H])C([H])([H])C([H])([H])C2([H])N([H])C(=O)C1([H])N(C(=O)C([H])(N([H])C(=O)C([H])(N([H])C([H])([H])[H])C([H])([H])[H])C(C([H])([H])[H])(C([H])([H])[H])C([H])([H])[H])C([H])([H])c2c([H])c(OC([H])([H])C([H])([H])C([H])([H])[N+]([H])(C([H])([H])[H])C([H])(C([H])([H])C(=O)N3C([H])([H])C([H])([H])C([H])([H])C([H])(n4nc(-c5c([H])c([H])c(Oc6c([H])c([H])c(F)c([H])c6F)c([H])c5[H])c(C(=O)N([H])[H])c4N([H])[H])C3([H])[H])C([H])([H])C([H])([H])F)c([H])c([H])c2C1([H])[H]

>  <smiles>  (88) 
[H]c1c([H])c([H])c2c(c1[H])C([H])([H])C([H])([H])C([H])([H])C2([H])N([H])C(=O)C1([H])N(C(=O)C([H])(N([H])C(=O)C([H])(N([H])C([H])([H])[H])C([H])([H])[H])C(C([H])([H])[H])(C([H])([H])[H])C([H])([H])[H])C([H])([H])c2c([H])c(OC([H])([H])C([H])([H])C([H])([H])[N+]([H])(C([H])([H])[H])C([H])(C([H])([H])C(=O)N3C([H])([H])C([H])([H])C([H])([H])C([H])(n4nc(-c5c([H])c([H])c(Oc6c([H])c([H])c(F)c([H])c6F)c([H])c5[H])c(C(=O)N([H])[H])c4N([H])[H])C3([H])[H])C([H])([H])C([H])([H])F)c([H])c([H])c2C1([H])[H]

$$$$
88:0:0
     RDKit          3D

 87 94  0  0  1  0  0  0  0  0999 V2000
  -28.7690  -21.1780   19.9940 C   0  0  0  0  0  2  0  0  0  0  0  0
  -30.7220  -20.2310   21.2890 C   0  0  0  0  0  1  0  0  0  0  0  0
  -29.4500  -19.8160   20.6550 N   0  0  2  0  0  4  0  0  0  0  0  0
  -28.8330  -19.6250   21.4320 H   0  0  0  0  0  0  0  0  0  0  0  0
  -28.6300  -18.1820   18.8070 C   0  0  0  0  0  1  0  0  0  0  0  0
  -29.6570  -18.3210   19.9450 C   0  0  0  0  0  3  0  0  0  0  0  0
  -30.3010  -16.8820   22.1450 C   0  0  0  0  0  1  0  0  0  0  0  0
  -29.7830  -16.7040   20.7080 C   0  0  0  0  0  3  0  0  0  0  0  0
  -30.4980  -15.2030   20.1910 C   0  0  0  0  0  0  0  0  0  0  0  0
  -30.4170  -12.7920   19.2410 C   0  0  0  0  0  2  0  0  0  0  0  0
  -29.4620  -12.6880   18.0250 C   0  0  0  0  0  2  0  0  0  0  0  0
  -28.0150  -12.4390   18.4910 C   0  0  0  0  0  2  0  0  0  0  0  0
  -27.6200  -13.3680   19.6690 C   0  0  0  0  0  3  0  0  0  0  0  0
  -28.6980  -13.4260   20.7710 C   0  0  0  0  0  2  0  0  0  0  0  0
  -29.9370  -13.9020   20.1400 N   0  0  0  0  0  0  0  0  0  0  0  0
  -31.6780  -15.2200   19.8080 O   0  0  0  0  0  0  0  0  0  0  0  0
  -25.2680  -13.9470   20.4700 C   0  0  0  0  0  0  0  0  0  0  0  0
  -24.2070  -13.1760   20.8550 C   0  0  0  0  0  0  0  0  0  0  0  0
  -24.6610  -11.8210   20.8030 C   0  0  0  0  0  0  0  0  0  0  0  0
  -26.2970  -13.0640   20.1990 N   0  0  0  0  0  0  0  0  0  0  0  0
  -25.9470  -11.7780   20.4690 N   0  0  0  0  0  0  0  0  0  0  0  0
  -23.9270  -10.5640   21.0020 C   0  0  0  0  0  0  0  0  0  0  0  0
  -24.3710   -9.5900   21.9240 C   0  0  0  0  0  3  0  0  0  0  0  0
  -23.6370   -8.3990   22.1170 C   0  0  0  0  0  3  0  0  0  0  0  0
  -22.4460   -8.1730   21.3880 C   0  0  0  0  0  0  0  0  0  0  0  0
  -22.0190   -9.1370   20.4570 C   0  0  0  0  0  3  0  0  0  0  0  0
  -22.7530  -10.3200   20.2640 C   0  0  0  0  0  3  0  0  0  0  0  0
  -21.6830   -7.0350   21.4870 O   0  0  0  0  0  0  0  0  0  0  0  0
  -21.6550   -6.2850   22.6360 C   0  0  0  0  0  0  0  0  0  0  0  0
  -21.2750   -6.8400   23.8760 C   0  0  0  0  0  3  0  0  0  0  0  0
  -21.1900   -6.0190   25.0190 C   0  0  0  0  0  3  0  0  0  0  0  0
  -21.4770   -4.6450   24.9210 C   0  0  0  0  0  0  0  0  0  0  0  0
  -21.8520   -4.0890   23.6850 C   0  0  0  0  0  3  0  0  0  0  0  0
  -21.9380   -4.9080   22.5440 C   0  0  0  0  0  0  0  0  0  0  0  0
  -22.2750   -4.3620   21.3510 F   0  0  0  0  0  0  0  0  0  0  0  0
  -21.3890   -3.8570   26.0170 F   0  0  0  0  0  0  0  0  0  0  0  0
  -22.8180  -13.6640   21.1510 C   0  0  0  0  0  0  0  0  0  0  0  0
  -22.1010  -12.9740   22.0300 N   0  0  0  0  0  0  0  0  0  0  0  0
  -22.3770  -14.6910   20.6350 O   0  0  0  0  0  0  0  0  0  0  0  0
  -22.4660  -12.1420   22.4690 H   0  0  0  0  0  0  0  0  0  0  0  0
  -21.1710  -13.2870   22.2710 H   0  0  0  0  0  0  0  0  0  0  0  0
  -25.4370  -15.3190   20.2970 N   0  0  0  0  0  0  0  0  0  0  0  0
  -24.6740  -15.9750   20.4300 H   0  0  0  0  0  0  0  0  0  0  0  0
  -26.2780  -15.7560   19.9420 H   0  0  0  0  0  0  0  0  0  0  0  0
  -28.8400  -22.8690   20.5550 C   0  0  0  0  0  3  0  0  0  0  0  0
  -27.9700  -24.3400   20.0700 C   0  0  0  0  0  3  0  0  0  0  0  0
  -28.1920  -25.9320   20.3260 O   0  0  0  0  0  0  0  0  0  0  0  0
  -24.6350  -31.8570   23.2130 C   0  0  0  0  0  0  0  0  0  0  0  0
  -27.1740  -27.0010   20.2240 C   0  0  0  0  0  0  0  0  0  0  0  0
  -23.4330  -30.4550   21.5870 C   0  0  0  0  0  3  0  0  0  0  0  0
  -24.8710  -28.8480   20.1650 C   0  0  0  0  0  0  0  0  0  0  0  0
  -25.9960  -30.6730   21.4300 C   0  0  0  0  0  2  0  0  0  0  0  0
  -26.0610  -29.2650   20.7800 C   0  0  0  0  0  0  0  0  0  0  0  0
  -27.2070  -28.3630   20.7840 C   0  0  0  0  0  3  0  0  0  0  0  0
  -25.9610  -26.7210   19.5540 C   0  0  0  0  0  3  0  0  0  0  0  0
  -24.8450  -27.5960   19.5300 C   0  0  0  0  0  3  0  0  0  0  0  0
  -23.6540  -29.7670   20.2120 C   0  0  0  0  0  2  0  0  0  0  0  0
  -24.7100  -31.0200   22.1300 N   0  0  0  0  0  0  0  0  0  0  0  0
  -23.5480  -32.1530   23.7330 O   0  0  0  0  0  0  0  0  0  0  0  0
  -22.7420  -29.4620   22.5570 C   0  0  0  0  0  0  0  0  0  0  0  0
  -21.4110  -29.3000   22.4370 N   0  0  0  0  0  0  0  0  0  0  0  0
  -23.4090  -28.8390   23.3880 O   0  0  0  0  0  0  0  0  0  0  0  0
  -20.9260  -29.8540   21.7450 H   0  0  0  0  0  0  0  0  0  0  0  0
  -18.0300  -28.1070   22.9610 C   0  0  0  0  0  0  0  0  0  0  0  0
  -20.5900  -28.3700   23.2190 C   0  0  0  0  0  3  0  0  0  0  0  0
  -20.6860  -26.9320   22.6550 C   0  0  0  0  0  2  0  0  0  0  0  0
  -19.5830  -26.6040   21.6460 C   0  0  0  0  0  2  0  0  0  0  0  0
  -18.2030  -26.7540   22.2920 C   0  0  0  0  0  2  0  0  0  0  0  0
  -19.1490  -28.8730   23.3810 C   0  0  0  0  0  0  0  0  0  0  0  0
  -18.9300  -30.1380   23.9690 C   0  0  0  0  0  3  0  0  0  0  0  0
  -17.6250  -30.6390   24.1370 C   0  0  0  0  0  3  0  0  0  0  0  0
  -16.5200  -29.8700   23.7290 C   0  0  0  0  0  3  0  0  0  0  0  0
  -16.7240  -28.6060   23.1500 C   0  0  0  0  0  3  0  0  0  0  0  0
  -25.9100  -32.4990   23.8380 C   0  0  0  0  0  3  0  0  0  0  0  0
  -25.5950  -33.8990   24.1760 N   0  0  0  0  0  0  0  0  0  0  0  0
  -25.9200  -34.9600   23.4250 C   0  0  0  0  0  0  0  0  0  0  0  0
  -26.5790  -34.8640   22.3870 O   0  0  0  0  0  0  0  0  0  0  0  0
  -25.0120  -34.0480   24.9860 H   0  0  0  0  0  0  0  0  0  0  0  0
  -24.1830  -36.7530   23.1120 C   0  0  0  0  0  1  0  0  0  0  0  0
  -25.4390  -36.3470   23.8990 C   0  0  0  0  0  3  0  0  0  0  0  0
  -27.5850  -37.2330   24.6980 C   0  0  0  0  0  1  0  0  0  0  0  0
  -26.4680  -37.4020   23.7720 N   0  0  0  0  0  0  0  0  0  0  0  0
  -26.0650  -38.3210   23.9300 H   0  0  0  0  0  0  0  0  0  0  0  0
  -26.4270  -31.7320   25.1190 C   0  0  1  0  0  0  0  0  0  0  0  0
  -25.3330  -31.4980   26.1880 C   0  0  0  0  0  1  0  0  0  0  0  0
  -27.0070  -30.3530   24.7370 C   0  0  0  0  0  1  0  0  0  0  0  0
  -27.5840  -32.5250   25.7720 C   0  0  0  0  0  1  0  0  0  0  0  0
  1 45  1  0
  1  3  1  0
  3  2  1  0
  3  4  1  1
  6  5  1  0
  6  3  1  0
  6  8  1  0
  8  7  1  0
  9  8  1  0
 10 15  1  0
 11 12  1  0
 11 10  1  0
 13 12  1  0
 13 20  1  0
 13 14  1  0
 15  9  1  0
 15 14  1  0
 16  9  2  0
 17 18  2  0
 18 37  1  0
 19 18  1  0
 19 22  1  0
 20 21  1  0
 20 17  1  0
 21 19  2  0
 22 23  1  0
 23 24  2  0
 25 28  1  0
 25 24  1  0
 26 25  2  0
 27 26  1  0
 27 22  2  0
 28 29  1  0
 29 30  1  0
 30 31  2  0
 32 31  1  0
 32 36  1  0
 33 32  2  0
 34 29  2  0
 34 33  1  0
 35 34  1  0
 37 38  1  0
 38 41  1  0
 38 40  1  0
 39 37  2  0
 42 43  1  0
 42 17  1  0
 44 42  1  0
 46 47  1  0
 46 45  2  0
 48 59  2  0
 49 47  1  0
 49 54  1  0
 50 58  1  0
 50 60  1  0
 51 57  1  0
 51 53  1  0
 52 58  1  0
 53 54  2  0
 53 52  1  0
 55 49  2  0
 56 55  1  0
 56 51  2  0
 57 50  1  0
 58 48  1  0
 60 62  2  0
 61 60  1  0
 63 61  1  0
 64 73  2  0
 64 69  1  0
 65 61  1  0
 65 69  1  0
 66 65  1  0
 67 68  1  0
 67 66  1  0
 68 64  1  0
 69 70  2  0
 70 71  1  0
 72 71  2  0
 73 72  1  0
 74 48  1  0
 74 75  1  0
 74 84  1  0
 75 78  1  0
 76 80  1  0
 76 75  1  0
 77 76  2  0
 80 79  1  0
 82 80  1  0
 82 83  1  0
 82 81  1  0
 84 87  1  1
 84 85  1  0
 86 84  1  0
M  ISO  4   8 100   9 100  46 101  47 101
M  END
>  <TORSDO>  (89) 
F 21

>  <SCORE>  (89) 
-15.565

>  <name>  (89) 
88

>  <ligand_id>  (89) 
88

>  <original_smiles>  (89) 
[H]c1c([H])c([H])c2c(c1[H])C([H])([H])C([H])([H])C([H])([H])C2([H])N([H])C(=O)C1([H])N(C(=O)C([H])(N([H])C(=O)C([H])(N([H])C([H])([H])[H])C([H])([H])[H])C(C([H])([H])[H])(C([H])([H])[H])C([H])([H])[H])C([H])([H])c2c([H])c(OC([H])([H])C([H])([H])C([H])([H])[N+]([H])(C([H])([H])[H])C([H])(C([H])([H])[H])C([H])(C(=O)N3C([H])([H])C([H])([H])C([H])([H])C([H])(n4nc(-c5c([H])c([H])c(Oc6c([H])c([H])c(F)c([H])c6F)c([H])c5[H])c(C(=O)N([H])[H])c4N([H])[H])C3([H])[H])C([H])([H])[H])c([H])c([H])c2C1([H])[H]

>  <smiles>  (89) 
[H]c1c([H])c([H])c2c(c1[H])C([H])([H])C([H])([H])C([H])([H])C2([H])N([H])C(=O)C1([H])N(C(=O)C([H])(N([H])C(=O)C([H])(N([H])C([H])([H])[H])C([H])([H])[H])C(C([H])([H])[H])(C([H])([H])[H])C([H])([H])[H])C([H])([H])c2c([H])c(OC([H])([H])C([H])([H])C([H])([H])[N+]([H])(C([H])([H])[H])C([H])(C([H])([H])[H])C([H])(C(=O)N3C([H])([H])C([H])([H])C([H])([H])C([H])(n4nc(-c5c([H])c([H])c(Oc6c([H])c([H])c(F)c([H])c6F)c([H])c5[H])c(C(=O)N([H])[H])c4N([H])[H])C3([H])[H])C([H])([H])[H])c([H])c([H])c2C1([H])[H]

$$$$
89:0:0
     RDKit          3D

 91 98  0  0  1  0  0  0  0  0999 V2000
  -29.8940  -19.8690   19.8290 N   0  0  0  0  0  4  0  0  0  0  0  0
  -30.6680  -20.2050   19.2820 H   0  0  0  0  0  0  0  0  0  0  0  0
  -29.2030  -19.5770   19.1570 H   0  0  0  0  0  0  0  0  0  0  0  0
  -29.2270  -21.2180   20.5090 C   0  0  0  0  0  3  0  0  0  0  0  0
  -29.2260  -22.8970   19.9320 C   0  0  0  0  0  3  0  0  0  0  0  0
  -28.3340  -24.3310   20.4800 C   0  0  0  0  0  2  0  0  0  0  0  0
  -28.5280  -25.9410   20.3240 O   0  0  0  0  0  0  0  0  0  0  0  0
  -24.6330  -31.7480   23.0890 C   0  0  0  0  0  0  0  0  0  0  0  0
  -27.4580  -26.9570   20.2560 C   0  0  0  0  0  0  0  0  0  0  0  0
  -23.5370  -30.2710   21.4530 C   0  0  0  0  0  3  0  0  0  0  0  0
  -25.0830  -28.7050   20.1050 C   0  0  0  0  0  0  0  0  0  0  0  0
  -26.0890  -30.6000   21.3590 C   0  0  0  0  0  2  0  0  0  0  0  0
  -26.2350  -29.1840   20.7420 C   0  0  0  0  0  0  0  0  0  0  0  0
  -27.4220  -28.3330   20.7890 C   0  0  0  0  0  3  0  0  0  0  0  0
  -26.2720  -26.6160   19.5690 C   0  0  0  0  0  3  0  0  0  0  0  0
  -25.1240  -27.4420   19.4950 C   0  0  0  0  0  3  0  0  0  0  0  0
  -23.8270  -29.5710   20.0970 C   0  0  0  0  0  2  0  0  0  0  0  0
  -24.7720  -30.9000   22.0210 N   0  0  0  0  0  0  0  0  0  0  0  0
  -23.5210  -32.0020   23.5800 O   0  0  0  0  0  0  0  0  0  0  0  0
  -22.8620  -29.2640   22.4220 C   0  0  0  0  0  0  0  0  0  0  0  0
  -21.5460  -29.0360   22.2610 N   0  0  0  0  0  0  0  0  0  0  0  0
  -23.5280  -28.6920   23.2850 O   0  0  0  0  0  0  0  0  0  0  0  0
  -21.0580  -29.5520   21.5410 H   0  0  0  0  0  0  0  0  0  0  0  0
  -18.2110  -27.6670   22.6740 C   0  0  0  0  0  0  0  0  0  0  0  0
  -20.7400  -28.0830   23.0320 C   0  0  0  0  0  3  0  0  0  0  0  0
  -20.9410  -26.6390   22.5160 C   0  0  0  0  0  2  0  0  0  0  0  0
  -19.9030  -26.2220   21.4690 C   0  0  0  0  0  2  0  0  0  0  0  0
  -18.4890  -26.3100   22.0510 C   0  0  0  0  0  2  0  0  0  0  0  0
  -19.2680  -28.5080   23.1180 C   0  0  0  0  0  0  0  0  0  0  0  0
  -18.9520  -29.7730   23.6600 C   0  0  0  0  0  3  0  0  0  0  0  0
  -17.6160  -30.2020   23.7580 C   0  0  0  0  0  3  0  0  0  0  0  0
  -16.5740  -29.3610   23.3280 C   0  0  0  0  0  3  0  0  0  0  0  0
  -16.8720  -28.0960   22.7930 C   0  0  0  0  0  3  0  0  0  0  0  0
  -25.8650  -32.4530   23.7380 C   0  0  0  0  0  3  0  0  0  0  0  0
  -25.4850  -33.8440   24.0340 N   0  0  0  0  0  0  0  0  0  0  0  0
  -25.8130  -34.9060   23.2820 C   0  0  0  0  0  0  0  0  0  0  0  0
  -26.5310  -34.8180   22.2840 O   0  0  0  0  0  0  0  0  0  0  0  0
  -24.8520  -33.9820   24.8090 H   0  0  0  0  0  0  0  0  0  0  0  0
  -24.0350  -36.6340   22.8470 C   0  0  0  0  0  1  0  0  0  0  0  0
  -25.2590  -36.2810   23.7070 C   0  0  0  0  0  3  0  0  0  0  0  0
  -27.3300  -37.2560   24.6000 C   0  0  0  0  0  1  0  0  0  0  0  0
  -26.2560  -37.3720   23.6180 N   0  0  0  0  0  0  0  0  0  0  0  0
  -25.8110  -38.2770   23.7430 H   0  0  0  0  0  0  0  0  0  0  0  0
  -26.3700  -31.7340   25.0500 C   0  0  1  0  0  0  0  0  0  0  0  0
  -25.2550  -31.4760   26.0900 C   0  0  0  0  0  1  0  0  0  0  0  0
  -27.0210  -30.3720   24.7180 C   0  0  0  0  0  1  0  0  0  0  0  0
  -27.4650  -32.5900   25.7280 C   0  0  0  0  0  1  0  0  0  0  0  0
  -30.4270  -18.4590   20.5170 C   0  0  0  0  0  3  0  0  0  0  0  0
  -30.5440  -16.9910   18.4000 C   0  0  0  0  0  1  0  0  0  0  0  0
  -28.5730  -16.7100   19.8500 C   0  0  0  0  0  1  0  0  0  0  0  0
  -30.1080  -16.8260   19.8830 C   0  0  2  0  0  0  0  0  0  0  0  0
  -30.7080  -15.2050   20.2450 C   0  0  0  0  0  0  0  0  0  0  0  0
  -30.5900  -12.8110   19.2890 C   0  0  0  0  0  2  0  0  0  0  0  0
  -29.6510  -12.6710   18.0680 C   0  0  0  0  0  2  0  0  0  0  0  0
  -28.2010  -12.4170   18.5160 C   0  0  0  0  0  2  0  0  0  0  0  0
  -27.7770  -13.3290   19.6940 C   0  0  0  0  0  3  0  0  0  0  0  0
  -28.8480  -13.4550   20.7930 C   0  0  0  0  0  2  0  0  0  0  0  0
  -30.0800  -13.9360   20.1480 N   0  0  0  0  0  0  0  0  0  0  0  0
  -31.9400  -15.0800   20.2280 O   0  0  0  0  0  0  0  0  0  0  0  0
  -25.4340  -13.8700   20.5340 C   0  0  0  0  0  0  0  0  0  0  0  0
  -24.3730  -13.0870   20.8830 C   0  0  0  0  0  0  0  0  0  0  0  0
  -24.8290  -11.7360   20.7810 C   0  0  0  0  0  0  0  0  0  0  0  0
  -26.4630  -13.0000   20.2250 N   0  0  0  0  0  0  0  0  0  0  0  0
  -26.1140  -11.7060   20.4450 N   0  0  0  0  0  0  0  0  0  0  0  0
  -24.0970  -10.4720   20.9240 C   0  0  0  0  0  0  0  0  0  0  0  0
  -24.4890   -9.4930   21.8620 C   0  0  0  0  0  3  0  0  0  0  0  0
  -23.7570   -8.2950   21.9930 C   0  0  0  0  0  3  0  0  0  0  0  0
  -22.6170   -8.0680   21.1860 C   0  0  0  0  0  0  0  0  0  0  0  0
  -22.2460   -9.0350   20.2370 C   0  0  0  0  0  3  0  0  0  0  0  0
  -22.9780  -10.2250   20.1040 C   0  0  0  0  0  3  0  0  0  0  0  0
  -21.8590   -6.9230   21.2270 O   0  0  0  0  0  0  0  0  0  0  0  0
  -21.7140   -6.1970   22.3810 C   0  0  0  0  0  0  0  0  0  0  0  0
  -21.1620   -6.7620   23.5510 C   0  0  0  0  0  3  0  0  0  0  0  0
  -20.9650   -5.9630   24.6950 C   0  0  0  0  0  3  0  0  0  0  0  0
  -21.3120   -4.5980   24.6670 C   0  0  0  0  0  0  0  0  0  0  0  0
  -21.8570   -4.0320   23.5000 C   0  0  0  0  0  3  0  0  0  0  0  0
  -22.0540   -4.8300   22.3610 C   0  0  0  0  0  0  0  0  0  0  0  0
  -22.5610   -4.2750   21.2320 F   0  0  0  0  0  0  0  0  0  0  0  0
  -21.1150   -3.8270   25.7620 F   0  0  0  0  0  0  0  0  0  0  0  0
  -22.9840  -13.5600   21.1940 C   0  0  0  0  0  0  0  0  0  0  0  0
  -22.2670  -12.8310   22.0410 N   0  0  0  0  0  0  0  0  0  0  0  0
  -22.5450  -14.6090   20.7250 O   0  0  0  0  0  0  0  0  0  0  0  0
  -22.6390  -11.9820   22.4390 H   0  0  0  0  0  0  0  0  0  0  0  0
  -21.3330  -13.1220   22.2920 H   0  0  0  0  0  0  0  0  0  0  0  0
  -25.6040  -15.2480   20.4230 N   0  0  0  0  0  0  0  0  0  0  0  0
  -24.8430  -15.8990   20.5810 H   0  0  0  0  0  0  0  0  0  0  0  0
  -26.4470  -15.6950   20.0960 H   0  0  0  0  0  0  0  0  0  0  0  0
  -31.9450  -18.5530   20.8490 C   0  0  0  0  0  2  0  0  0  0  0  0
  -33.9570  -19.7260   21.8690 C   0  0  0  0  0  1  0  0  0  0  0  0
  -31.9180  -19.4060   23.3070 C   0  0  0  0  0  1  0  0  0  0  0  0
  -32.4220  -19.6280   21.8670 C   0  0  0  0  0  3  0  0  0  0  0  0
  1  4  1  0
  1 48  1  0
  2  1  1  0
  3  1  1  0
  5  6  1  0
  5  4  2  0
  7  6  1  0
  8 19  2  0
  9  7  1  0
  9 14  1  0
 10 18  1  0
 10 20  1  0
 11 13  1  0
 12 18  1  0
 13 14  2  0
 13 12  1  0
 15  9  2  0
 16 15  1  0
 16 11  2  0
 17 11  1  0
 17 10  1  0
 18  8  1  0
 20 22  2  0
 21 20  1  0
 23 21  1  0
 24 33  2  0
 24 29  1  0
 25 21  1  0
 25 29  1  0
 26 25  1  0
 27 28  1  0
 27 26  1  0
 28 24  1  0
 29 30  2  0
 30 31  1  0
 32 31  2  0
 33 32  1  0
 34  8  1  0
 34 35  1  0
 34 44  1  0
 35 38  1  0
 36 40  1  0
 36 35  1  0
 37 36  2  0
 40 39  1  0
 42 40  1  0
 42 43  1  0
 42 41  1  0
 44 47  1  1
 44 45  1  0
 46 44  1  0
 48 88  1  0
 51 49  1  6
 50 51  1  0
 51 52  1  0
 51 48  1  0
 53 58  1  0
 54 55  1  0
 54 53  1  0
 56 55  1  0
 56 63  1  0
 56 57  1  0
 58 52  1  0
 58 57  1  0
 59 52  2  0
 60 61  2  0
 61 80  1  0
 62 61  1  0
 62 65  1  0
 63 64  1  0
 63 60  1  0
 64 62  2  0
 65 66  1  0
 66 67  2  0
 68 71  1  0
 68 67  1  0
 69 68  2  0
 70 69  1  0
 70 65  2  0
 71 72  1  0
 72 73  1  0
 73 74  2  0
 75 74  1  0
 75 79  1  0
 76 75  2  0
 77 72  2  0
 77 76  1  0
 78 77  1  0
 80 81  1  0
 81 84  1  0
 81 83  1  0
 82 80  2  0
 85 60  1  0
 85 86  1  0
 87 85  1  0
 88 91  1  0
 91 89  1  0
 91 90  1  0
M  ISO  4   6 101   7 101  51 100  52 100
M  END
>  <TORSDO>  (90) 
F 23

>  <SCORE>  (90) 
-14.024

>  <name>  (90) 
89

>  <ligand_id>  (90) 
89

>  <original_smiles>  (90) 
[H]c1c([H])c([H])c2c(c1[H])C([H])([H])C([H])([H])C([H])([H])C2([H])N([H])C(=O)C1([H])N(C(=O)C([H])(N([H])C(=O)C([H])(N([H])C([H])([H])[H])C([H])([H])[H])C(C([H])([H])[H])(C([H])([H])[H])C([H])([H])[H])C([H])([H])c2c([H])c(OC([H])([H])C([H])([H])C([H])([H])[N+]([H])([H])C([H])(C([H])([H])C([H])(C([H])([H])[H])C([H])([H])[H])C(C(=O)N3C([H])([H])C([H])([H])C([H])([H])C([H])(n4nc(-c5c([H])c([H])c(Oc6c([H])c([H])c(F)c([H])c6F)c([H])c5[H])c(C(=O)N([H])[H])c4N([H])[H])C3([H])[H])(C([H])([H])[H])C([H])([H])[H])c([H])c([H])c2C1([H])[H]

>  <smiles>  (90) 
[H]c1c([H])c([H])c2c(c1[H])C([H])([H])C([H])([H])C([H])([H])C2([H])N([H])C(=O)C1([H])N(C(=O)C([H])(N([H])C(=O)C([H])(N([H])C([H])([H])[H])C([H])([H])[H])C(C([H])([H])[H])(C([H])([H])[H])C([H])([H])[H])C([H])([H])c2c([H])c(OC([H])([H])C([H])([H])C([H])([H])[N+]([H])([H])C([H])(C([H])([H])C([H])(C([H])([H])[H])C([H])([H])[H])C(C(=O)N3C([H])([H])C([H])([H])C([H])([H])C([H])(n4nc(-c5c([H])c([H])c(Oc6c([H])c([H])c(F)c([H])c6F)c([H])c5[H])c(C(=O)N([H])[H])c4N([H])[H])C3([H])[H])(C([H])([H])[H])C([H])([H])[H])c([H])c([H])c2C1([H])[H]

$$$$
90:0:0
     RDKit          3D

 89 97  0  0  1  0  0  0  0  0999 V2000
  -28.2350  -22.0000   20.0360 C   0  0  0  0  0  3  0  0  0  0  0  0
  -30.5440  -21.8650   20.7160 C   0  0  0  0  0  3  0  0  0  0  0  0
  -28.2140  -20.5870   19.8940 C   0  0  0  0  0  3  0  0  0  0  0  0
  -30.5230  -20.4470   20.5670 C   0  0  0  0  0  3  0  0  0  0  0  0
  -29.4040  -22.6750   20.4610 C   0  0  0  0  0  0  0  0  0  0  0  0
  -29.3460  -19.7690   20.1660 C   0  0  0  0  0  0  0  0  0  0  0  0
  -27.9030  -17.8460   20.4880 C   0  0  0  0  0  1  0  0  0  0  0  0
  -29.2340  -18.3410   20.1140 N   0  0  0  0  0  0  0  0  0  0  0  0
  -30.3840  -17.3800   20.0300 C   0  0  0  0  0  2  0  0  0  0  0  0
  -30.0390  -15.8970   20.4780 C   0  0  0  0  0  2  0  0  0  0  0  0
  -30.8460  -14.6640   19.9280 C   0  0  0  0  0  0  0  0  0  0  0  0
  -30.5860  -12.4200   18.8800 C   0  0  0  0  0  2  0  0  0  0  0  0
  -29.5620  -12.5090   17.7280 C   0  0  0  0  0  2  0  0  0  0  0  0
  -28.1200  -12.3490   18.2490 C   0  0  0  0  0  2  0  0  0  0  0  0
  -27.8290  -13.2640   19.4660 C   0  0  0  0  0  3  0  0  0  0  0  0
  -28.9460  -13.1300   20.5250 C   0  0  0  0  0  2  0  0  0  0  0  0
  -30.2330  -13.4430   19.8820 N   0  0  0  0  0  0  0  0  0  0  0  0
  -31.9690  -14.8360   19.4390 O   0  0  0  0  0  0  0  0  0  0  0  0
  -25.5100  -13.9190   20.3670 C   0  0  0  0  0  0  0  0  0  0  0  0
  -24.4490  -13.1640   20.7940 C   0  0  0  0  0  0  0  0  0  0  0  0
  -24.8730  -11.8030   20.6980 C   0  0  0  0  0  0  0  0  0  0  0  0
  -26.5090  -13.0150   20.0410 N   0  0  0  0  0  0  0  0  0  0  0  0
  -26.1360  -11.7380   20.3040 N   0  0  0  0  0  0  0  0  0  0  0  0
  -24.1330  -10.5530   20.9030 C   0  0  0  0  0  0  0  0  0  0  0  0
  -24.5330   -9.6090   21.8740 C   0  0  0  0  0  3  0  0  0  0  0  0
  -23.7980   -8.4190   22.0620 C   0  0  0  0  0  3  0  0  0  0  0  0
  -22.6470   -8.1650   21.2800 C   0  0  0  0  0  0  0  0  0  0  0  0
  -22.2670   -9.0970   20.2960 C   0  0  0  0  0  3  0  0  0  0  0  0
  -23.0010  -10.2790   20.1090 C   0  0  0  0  0  3  0  0  0  0  0  0
  -21.8820   -7.0290   21.3760 O   0  0  0  0  0  0  0  0  0  0  0  0
  -21.6970   -6.3880   22.5770 C   0  0  0  0  0  0  0  0  0  0  0  0
  -21.1080   -7.0350   23.6840 C   0  0  0  0  0  3  0  0  0  0  0  0
  -20.8760   -6.3160   24.8760 C   0  0  0  0  0  3  0  0  0  0  0  0
  -21.2180   -4.9530   24.9540 C   0  0  0  0  0  0  0  0  0  0  0  0
  -21.7970   -4.3070   23.8500 C   0  0  0  0  0  3  0  0  0  0  0  0
  -22.0350   -5.0230   22.6630 C   0  0  0  0  0  0  0  0  0  0  0  0
  -22.5760   -4.3910   21.5930 F   0  0  0  0  0  0  0  0  0  0  0  0
  -20.9860   -4.2600   26.0940 F   0  0  0  0  0  0  0  0  0  0  0  0
  -23.0840  -13.6640   21.1680 C   0  0  0  0  0  0  0  0  0  0  0  0
  -22.3980  -12.9670   22.0670 N   0  0  0  0  0  0  0  0  0  0  0  0
  -22.6350  -14.7070   20.6950 O   0  0  0  0  0  0  0  0  0  0  0  0
  -22.7690  -12.1180   22.4680 H   0  0  0  0  0  0  0  0  0  0  0  0
  -21.4870  -13.2900   22.3580 H   0  0  0  0  0  0  0  0  0  0  0  0
  -25.7050  -15.2870   20.2040 N   0  0  0  0  0  0  0  0  0  0  0  0
  -24.9560  -15.9600   20.3230 H   0  0  0  0  0  0  0  0  0  0  0  0
  -26.5280  -15.6870   19.7690 H   0  0  0  0  0  0  0  0  0  0  0  0
  -29.4870  -24.2280   20.6300 C   0  0  0  0  0  3  0  0  0  0  0  0
  -28.1880  -25.1000   20.4680 C   0  0  0  0  0  3  0  0  0  0  0  0
  -28.3850  -26.5570   20.4630 O   0  0  0  0  0  0  0  0  0  0  0  0
  -24.5780  -31.8920   23.3590 C   0  0  0  0  0  0  0  0  0  0  0  0
  -27.2470  -27.3610   20.3790 C   0  0  0  0  0  0  0  0  0  0  0  0
  -23.4040  -30.4930   21.6930 C   0  0  0  0  0  3  0  0  0  0  0  0
  -24.8790  -28.9470   20.2970 C   0  0  0  0  0  0  0  0  0  0  0  0
  -25.9400  -30.8190   21.5620 C   0  0  0  0  0  2  0  0  0  0  0  0
  -26.0290  -29.4440   20.9210 C   0  0  0  0  0  0  0  0  0  0  0  0
  -27.2150  -28.6640   20.9500 C   0  0  0  0  0  3  0  0  0  0  0  0
  -26.0750  -26.9030   19.7330 C   0  0  0  0  0  3  0  0  0  0  0  0
  -24.9030  -27.6830   19.6890 C   0  0  0  0  0  3  0  0  0  0  0  0
  -23.6410  -29.8190   20.3150 C   0  0  0  0  0  2  0  0  0  0  0  0
  -24.6570  -31.0870   22.2620 N   0  0  0  0  0  0  0  0  0  0  0  0
  -23.4870  -32.1720   23.8750 O   0  0  0  0  0  0  0  0  0  0  0  0
  -22.7230  -29.4780   22.6410 C   0  0  0  0  0  0  0  0  0  0  0  0
  -21.4080  -29.2730   22.4610 N   0  0  0  0  0  0  0  0  0  0  0  0
  -23.3800  -28.8790   23.4990 O   0  0  0  0  0  0  0  0  0  0  0  0
  -20.9390  -29.8010   21.7390 H   0  0  0  0  0  0  0  0  0  0  0  0
  -18.0330  -28.0340   22.8430 C   0  0  0  0  0  0  0  0  0  0  0  0
  -20.5730  -28.3400   23.2190 C   0  0  0  0  0  3  0  0  0  0  0  0
  -20.7210  -26.8960   22.6860 C   0  0  0  0  0  2  0  0  0  0  0  0
  -19.6710  -26.5240   21.6340 C   0  0  0  0  0  2  0  0  0  0  0  0
  -18.2580  -26.6720   22.2080 C   0  0  0  0  0  2  0  0  0  0  0  0
  -19.1210  -28.8220   23.3050 C   0  0  0  0  0  0  0  0  0  0  0  0
  -18.8600  -30.0910   23.8640 C   0  0  0  0  0  3  0  0  0  0  0  0
  -17.5420  -30.5720   23.9700 C   0  0  0  0  0  3  0  0  0  0  0  0
  -16.4670  -29.7830   23.5260 C   0  0  0  0  0  3  0  0  0  0  0  0
  -16.7150  -28.5150   22.9690 C   0  0  0  0  0  3  0  0  0  0  0  0
  -25.8530  -32.5190   24.0040 C   0  0  0  0  0  3  0  0  0  0  0  0
  -25.5620  -33.9310   24.2810 N   0  0  0  0  0  0  0  0  0  0  0  0
  -25.9050  -34.9510   23.4820 C   0  0  0  0  0  0  0  0  0  0  0  0
  -26.5750  -34.8000   22.4570 O   0  0  0  0  0  0  0  0  0  0  0  0
  -24.9720  -34.1220   25.0780 H   0  0  0  0  0  0  0  0  0  0  0  0
  -24.1820  -36.7390   23.0720 C   0  0  0  0  0  1  0  0  0  0  0  0
  -25.4300  -36.3600   23.8850 C   0  0  0  0  0  3  0  0  0  0  0  0
  -27.5770  -37.2720   24.6570 C   0  0  0  0  0  1  0  0  0  0  0  0
  -26.4670  -37.4020   23.7150 N   0  0  0  0  0  0  0  0  0  0  0  0
  -26.0650  -38.3280   23.8260 H   0  0  0  0  0  0  0  0  0  0  0  0
  -26.3110  -31.7790   25.3210 C   0  0  1  0  0  0  0  0  0  0  0  0
  -25.1770  -31.5940   26.3540 C   0  0  0  0  0  1  0  0  0  0  0  0
  -26.8890  -30.3810   24.9930 C   0  0  0  0  0  1  0  0  0  0  0  0
  -27.4470  -32.5790   26.0010 C   0  0  0  0  0  1  0  0  0  0  0  0
  1  5  1  0
  3  1  2  0
  3  6  1  0
  4  2  1  0
  5 47  1  0
  5  2  2  0
  6  4  2  0
  8  6  1  0
  8  7  1  0
  9  8  1  0
  9 10  1  0
 11 10  1  0
 12 17  1  0
 13 14  1  0
 13 12  1  0
 15 14  1  0
 15 22  1  0
 15 16  1  0
 17 11  1  0
 17 16  1  0
 18 11  2  0
 19 20  2  0
 20 39  1  0
 21 20  1  0
 21 24  1  0
 22 23  1  0
 22 19  1  0
 23 21  2  0
 24 25  1  0
 25 26  2  0
 27 30  1  0
 27 26  1  0
 28 27  2  0
 29 28  1  0
 29 24  2  0
 30 31  1  0
 31 36  2  0
 31 32  1  0
 32 33  2  0
 33 34  1  0
 34 38  1  0
 35 34  2  0
 36 35  1  0
 37 36  1  0
 39 40  1  0
 40 43  1  0
 40 42  1  0
 41 39  2  0
 44 45  1  0
 44 19  1  0
 46 44  1  0
 48 47  2  0
 49 48  1  0
 50 61  2  0
 51 49  1  0
 51 56  1  0
 52 60  1  0
 52 62  1  0
 53 59  1  0
 53 55  1  0
 54 60  1  0
 55 56  2  0
 55 54  1  0
 57 51  2  0
 58 57  1  0
 58 53  2  0
 59 52  1  0
 60 50  1  0
 62 64  2  0
 63 62  1  0
 65 63  1  0
 66 75  2  0
 66 71  1  0
 67 63  1  0
 67 71  1  0
 68 67  1  0
 69 70  1  0
 69 68  1  0
 70 66  1  0
 71 72  2  0
 72 73  1  0
 74 73  2  0
 75 74  1  0
 76 50  1  0
 76 77  1  0
 76 86  1  0
 77 80  1  0
 78 82  1  0
 78 77  1  0
 79 78  2  0
 82 81  1  0
 84 85  1  0
 84 82  1  0
 84 83  1  0
 86 89  1  1
 86 87  1  0
 88 86  1  0
M  ISO  4  10 100  11 100  48 101  49 101
M  END
>  <TORSDO>  (91) 
F 21

>  <SCORE>  (91) 
-13.115

>  <name>  (91) 
90

>  <ligand_id>  (91) 
90

>  <original_smiles>  (91) 
[H]c1c([H])c([H])c2c(c1[H])C([H])([H])C([H])([H])C([H])([H])C2([H])N([H])C(=O)C1([H])N(C(=O)C([H])(N([H])C(=O)C([H])(N([H])C([H])([H])[H])C([H])([H])[H])C(C([H])([H])[H])(C([H])([H])[H])C([H])([H])[H])C([H])([H])c2c([H])c(OC([H])([H])C([H])([H])c3c([H])c([H])c(N(C([H])([H])[H])C([H])([H])C([H])([H])C(=O)N4C([H])([H])C([H])([H])C([H])([H])C([H])(n5nc(-c6c([H])c([H])c(Oc7c([H])c([H])c(F)c([H])c7F)c([H])c6[H])c(C(=O)N([H])[H])c5N([H])[H])C4([H])[H])c([H])c3[H])c([H])c([H])c2C1([H])[H]

>  <smiles>  (91) 
[H]c1c([H])c([H])c2c(c1[H])C([H])([H])C([H])([H])C([H])([H])C2([H])N([H])C(=O)C1([H])N(C(=O)C([H])(N([H])C(=O)C([H])(N([H])C([H])([H])[H])C([H])([H])[H])C(C([H])([H])[H])(C([H])([H])[H])C([H])([H])[H])C([H])([H])c2c([H])c(OC([H])([H])C([H])([H])c3c([H])c([H])c(N(C([H])([H])[H])C([H])([H])C([H])([H])C(=O)N4C([H])([H])C([H])([H])C([H])([H])C([H])(n5nc(-c6c([H])c([H])c(Oc7c([H])c([H])c(F)c([H])c7F)c([H])c6[H])c(C(=O)N([H])[H])c5N([H])[H])C4([H])[H])c([H])c3[H])c([H])c([H])c2C1([H])[H]

$$$$
91:0:0
     RDKit          3D

 89 97  0  0  1  0  0  0  0  0999 V2000
  -29.3950  -20.5850   19.8640 C   0  0  0  0  0  3  0  0  0  0  0  0
  -30.0720  -17.8200   17.0950 C   0  0  0  0  0  2  0  0  0  0  0  0
  -28.8170  -18.7300   17.0430 C   0  0  0  0  0  2  0  0  0  0  0  0
  -30.8550  -18.1700   18.3620 C   0  0  0  0  0  2  0  0  0  0  0  0
  -28.0700  -18.7710   18.4210 C   0  0  0  0  0  2  0  0  0  0  0  0
  -30.0260  -17.9700   19.6650 C   0  0  0  0  0  3  0  0  0  0  0  0
  -28.9310  -19.0850   19.6140 N   0  0  1  0  0  4  0  0  0  0  0  0
  -28.3030  -18.9140   20.3890 H   0  0  0  0  0  0  0  0  0  0  0  0
  -29.5760  -16.3720   19.9320 C   0  0  0  0  0  2  0  0  0  0  0  0
  -30.5350  -15.0330   20.0440 C   0  0  0  0  0  0  0  0  0  0  0  0
  -30.4570  -12.6810   19.2130 C   0  0  0  0  0  2  0  0  0  0  0  0
  -29.4760  -12.6570   18.0180 C   0  0  0  0  0  2  0  0  0  0  0  0
  -28.0230  -12.4520   18.4900 C   0  0  0  0  0  2  0  0  0  0  0  0
  -27.6390  -13.3740   19.6780 C   0  0  0  0  0  3  0  0  0  0  0  0
  -28.7370  -13.3630   20.7630 C   0  0  0  0  0  2  0  0  0  0  0  0
  -30.0110  -13.7540   20.1310 N   0  0  0  0  0  0  0  0  0  0  0  0
  -31.7490  -15.1360   19.8110 O   0  0  0  0  0  0  0  0  0  0  0  0
  -25.2860  -13.9680   20.5080 C   0  0  0  0  0  0  0  0  0  0  0  0
  -24.2200  -13.1900   20.8940 C   0  0  0  0  0  0  0  0  0  0  0  0
  -24.6790  -11.8420   20.8330 C   0  0  0  0  0  0  0  0  0  0  0  0
  -26.3130  -13.0810   20.2220 N   0  0  0  0  0  0  0  0  0  0  0  0
  -25.9620  -11.7970   20.4940 N   0  0  0  0  0  0  0  0  0  0  0  0
  -23.9530  -10.5780   21.0230 C   0  0  0  0  0  0  0  0  0  0  0  0
  -24.3960   -9.6080   21.9430 C   0  0  0  0  0  3  0  0  0  0  0  0
  -23.6720   -8.4100   22.1240 C   0  0  0  0  0  3  0  0  0  0  0  0
  -22.4890   -8.1760   21.3820 C   0  0  0  0  0  0  0  0  0  0  0  0
  -22.0650   -9.1380   20.4530 C   0  0  0  0  0  3  0  0  0  0  0  0
  -22.7890  -10.3290   20.2700 C   0  0  0  0  0  3  0  0  0  0  0  0
  -21.7410   -7.0230   21.4680 O   0  0  0  0  0  0  0  0  0  0  0  0
  -21.6980   -6.2760   22.6150 C   0  0  0  0  0  0  0  0  0  0  0  0
  -21.2590   -6.8220   23.8410 C   0  0  0  0  0  3  0  0  0  0  0  0
  -21.1600   -6.0010   24.9810 C   0  0  0  0  0  3  0  0  0  0  0  0
  -21.4920   -4.6350   24.9000 C   0  0  0  0  0  0  0  0  0  0  0  0
  -21.9250   -4.0890   23.6790 C   0  0  0  0  0  3  0  0  0  0  0  0
  -22.0240   -4.9050   22.5400 C   0  0  0  0  0  0  0  0  0  0  0  0
  -22.4210   -4.3710   21.3600 F   0  0  0  0  0  0  0  0  0  0  0  0
  -21.3930   -3.8460   25.9960 F   0  0  0  0  0  0  0  0  0  0  0  0
  -22.8300  -13.6740   21.1850 C   0  0  0  0  0  0  0  0  0  0  0  0
  -22.1080  -12.9770   22.0600 N   0  0  0  0  0  0  0  0  0  0  0  0
  -22.3870  -14.6980   20.6700 O   0  0  0  0  0  0  0  0  0  0  0  0
  -22.4850  -12.1670   22.5180 H   0  0  0  0  0  0  0  0  0  0  0  0
  -21.1680  -13.2770   22.2810 H   0  0  0  0  0  0  0  0  0  0  0  0
  -25.4480  -15.3370   20.3510 N   0  0  0  0  0  0  0  0  0  0  0  0
  -24.6900  -15.9860   20.5400 H   0  0  0  0  0  0  0  0  0  0  0  0
  -26.2880  -15.7850   20.0120 H   0  0  0  0  0  0  0  0  0  0  0  0
  -28.4000  -21.9180   19.9820 C   0  0  0  0  0  3  0  0  0  0  0  0
  -28.9220  -23.4910   20.2550 C   0  0  0  0  0  3  0  0  0  0  0  0
  -27.9030  -24.8050   20.1700 C   0  0  0  0  0  3  0  0  0  0  0  0
  -28.2240  -26.3090   20.2940 O   0  0  0  0  0  0  0  0  0  0  0  0
  -24.5820  -31.9710   23.2450 C   0  0  0  0  0  0  0  0  0  0  0  0
  -27.1590  -27.2690   20.2410 C   0  0  0  0  0  0  0  0  0  0  0  0
  -23.3770  -30.5630   21.6190 C   0  0  0  0  0  3  0  0  0  0  0  0
  -24.8190  -28.9780   20.2140 C   0  0  0  0  0  0  0  0  0  0  0  0
  -25.9320  -30.8320   21.4430 C   0  0  0  0  0  2  0  0  0  0  0  0
  -26.0010  -29.4410   20.8050 C   0  0  0  0  0  0  0  0  0  0  0  0
  -27.1760  -28.6050   20.7980 C   0  0  0  0  0  3  0  0  0  0  0  0
  -25.9450  -26.8980   19.6170 C   0  0  0  0  0  3  0  0  0  0  0  0
  -24.8000  -27.7160   19.6080 C   0  0  0  0  0  3  0  0  0  0  0  0
  -23.5930  -29.8740   20.2470 C   0  0  0  0  0  2  0  0  0  0  0  0
  -24.6520  -31.1460   22.1540 N   0  0  0  0  0  0  0  0  0  0  0  0
  -23.4980  -32.2570   23.7770 O   0  0  0  0  0  0  0  0  0  0  0  0
  -22.7090  -29.5610   22.5940 C   0  0  0  0  0  0  0  0  0  0  0  0
  -21.3830  -29.3720   22.4640 N   0  0  0  0  0  0  0  0  0  0  0  0
  -23.3820  -28.9520   23.4280 O   0  0  0  0  0  0  0  0  0  0  0  0
  -20.8950  -29.9210   21.7710 H   0  0  0  0  0  0  0  0  0  0  0  0
  -18.0100  -28.1500   22.9730 C   0  0  0  0  0  0  0  0  0  0  0  0
  -20.5670  -28.4370   23.2410 C   0  0  0  0  0  3  0  0  0  0  0  0
  -20.6800  -26.9970   22.6860 C   0  0  0  0  0  2  0  0  0  0  0  0
  -19.5830  -26.6520   21.6730 C   0  0  0  0  0  2  0  0  0  0  0  0
  -18.1980  -26.7930   22.3140 C   0  0  0  0  0  2  0  0  0  0  0  0
  -19.1220  -28.9280   23.3940 C   0  0  0  0  0  0  0  0  0  0  0  0
  -18.8930  -30.1950   23.9720 C   0  0  0  0  0  3  0  0  0  0  0  0
  -17.5820  -30.6840   24.1350 C   0  0  0  0  0  3  0  0  0  0  0  0
  -16.4840  -29.9070   23.7290 C   0  0  0  0  0  3  0  0  0  0  0  0
  -16.7000  -28.6410   23.1550 C   0  0  0  0  0  3  0  0  0  0  0  0
  -25.8640  -32.6140   23.8610 C   0  0  0  0  0  3  0  0  0  0  0  0
  -25.5460  -34.0150   24.1820 N   0  0  0  0  0  0  0  0  0  0  0  0
  -25.8620  -35.0690   23.4180 C   0  0  0  0  0  0  0  0  0  0  0  0
  -26.5270  -34.9660   22.3830 O   0  0  0  0  0  0  0  0  0  0  0  0
  -24.9600  -34.1680   24.9900 H   0  0  0  0  0  0  0  0  0  0  0  0
  -24.1310  -36.8660   23.0710 C   0  0  0  0  0  1  0  0  0  0  0  0
  -25.3720  -36.4570   23.8780 C   0  0  0  0  0  3  0  0  0  0  0  0
  -27.5020  -37.3570   24.7090 C   0  0  0  0  0  1  0  0  0  0  0  0
  -26.3990  -37.5160   23.7640 N   0  0  0  0  0  0  0  0  0  0  0  0
  -25.9850  -38.4320   23.9110 H   0  0  0  0  0  0  0  0  0  0  0  0
  -26.3780  -31.8640   25.1520 C   0  0  1  0  0  0  0  0  0  0  0  0
  -25.2840  -31.6400   26.2210 C   0  0  0  0  0  1  0  0  0  0  0  0
  -26.9720  -30.4840   24.7850 C   0  0  0  0  0  1  0  0  0  0  0  0
  -27.5100  -32.6810   25.8160 C   0  0  0  0  0  1  0  0  0  0  0  0
  1 46  2  0
  2  4  1  0
  3  2  1  0
  3  5  1  0
  4  6  1  0
  5  7  1  0
  6  9  1  0
  7  6  1  0
  7  1  1  0
  7  8  1  1
  9 10  1  0
 10 16  1  0
 11 16  1  0
 12 13  1  0
 12 11  1  0
 14 13  1  0
 14 21  1  0
 14 15  1  0
 16 15  1  0
 17 10  2  0
 18 19  2  0
 19 38  1  0
 20 19  1  0
 20 23  1  0
 21 22  1  0
 21 18  1  0
 22 20  2  0
 23 24  1  0
 24 25  2  0
 26 29  1  0
 26 25  1  0
 27 26  2  0
 28 27  1  0
 28 23  2  0
 29 30  1  0
 30 31  1  0
 31 32  2  0
 33 32  1  0
 33 37  1  0
 34 33  2  0
 35 30  2  0
 35 34  1  0
 36 35  1  0
 38 39  1  0
 39 42  1  0
 39 41  1  0
 40 38  2  0
 43 18  1  0
 43 44  1  0
 45 43  1  0
 46 47  1  0
 48 47  2  0
 48 49  1  0
 50 61  2  0
 51 49  1  0
 51 56  1  0
 52 60  1  0
 52 62  1  0
 53 59  1  0
 53 55  1  0
 54 60  1  0
 55 54  1  0
 56 55  2  0
 57 51  2  0
 58 57  1  0
 58 53  2  0
 59 52  1  0
 60 50  1  0
 62 64  2  0
 63 62  1  0
 65 63  1  0
 66 75  2  0
 66 71  1  0
 67 63  1  0
 67 71  1  0
 68 67  1  0
 69 70  1  0
 69 68  1  0
 70 66  1  0
 71 72  2  0
 72 73  1  0
 74 73  2  0
 75 74  1  0
 76 50  1  0
 76 77  1  0
 76 86  1  0
 77 80  1  0
 78 82  1  0
 78 77  1  0
 79 78  2  0
 82 81  1  0
 84 82  1  0
 84 85  1  0
 84 83  1  0
 86 89  1  1
 86 87  1  0
 88 86  1  0
M  ISO  4   9 100  10 100  48 101  49 101
M  END
>  <TORSDO>  (92) 
F 21

>  <SCORE>  (92) 
-13.201

>  <name>  (92) 
91

>  <ligand_id>  (92) 
91

>  <original_smiles>  (92) 
[H]c1c([H])c([H])c2c(c1[H])C([H])([H])C([H])([H])C([H])([H])C2([H])N([H])C(=O)C1([H])N(C(=O)C([H])(N([H])C(=O)C([H])(N([H])C([H])([H])[H])C([H])([H])[H])C(C([H])([H])[H])(C([H])([H])[H])C([H])([H])[H])C([H])([H])c2c([H])c(OC([H])([H])C([H])([H])C([H])([H])C([H])([H])[N+]3([H])C([H])([H])C([H])([H])C([H])([H])C([H])([H])C3([H])C([H])([H])C(=O)N3C([H])([H])C([H])([H])C([H])([H])C([H])(n4nc(-c5c([H])c([H])c(Oc6c([H])c([H])c(F)c([H])c6F)c([H])c5[H])c(C(=O)N([H])[H])c4N([H])[H])C3([H])[H])c([H])c([H])c2C1([H])[H]

>  <smiles>  (92) 
[H]c1c([H])c([H])c2c(c1[H])C([H])([H])C([H])([H])C([H])([H])C2([H])N([H])C(=O)C1([H])N(C(=O)C([H])(N([H])C(=O)C([H])(N([H])C([H])([H])[H])C([H])([H])[H])C(C([H])([H])[H])(C([H])([H])[H])C([H])([H])[H])C([H])([H])c2c([H])c(OC([H])([H])C([H])([H])C([H])([H])C([H])([H])[N+]3([H])C([H])([H])C([H])([H])C([H])([H])C([H])([H])C3([H])C([H])([H])C(=O)N3C([H])([H])C([H])([H])C([H])([H])C([H])(n4nc(-c5c([H])c([H])c(Oc6c([H])c([H])c(F)c([H])c6F)c([H])c5[H])c(C(=O)N([H])[H])c4N([H])[H])C3([H])[H])c([H])c([H])c2C1([H])[H]

$$$$
92:0:0
     RDKit          3D

 82 88  0  0  1  0  0  0  0  0999 V2000
  -28.2670  -24.4000   20.1820 O   0  0  0  0  0  1  0  0  0  0  0  0
  -24.8020  -31.7490   23.1030 C   0  0  0  0  0  0  0  0  0  0  0  0
  -27.3520  -25.9670   20.2090 C   0  0  0  0  0  0  0  0  0  0  0  0
  -23.6700  -30.3210   21.4640 C   0  0  0  0  0  3  0  0  0  0  0  0
  -25.1430  -28.5060   20.1210 C   0  0  0  0  0  0  0  0  0  0  0  0
  -26.2740  -30.2310   21.4680 C   0  0  0  0  0  2  0  0  0  0  0  0
  -26.3400  -28.7080   20.8150 C   0  0  0  0  0  0  0  0  0  0  0  0
  -27.3800  -27.4990   20.8060 C   0  0  0  0  0  3  0  0  0  0  0  0
  -26.1180  -26.1960   19.4500 C   0  0  0  0  0  3  0  0  0  0  0  0
  -25.1210  -27.2790   19.4130 C   0  0  0  0  0  3  0  0  0  0  0  0
  -23.9680  -29.5520   20.1280 C   0  0  0  0  0  2  0  0  0  0  0  0
  -24.9510  -30.8210   22.0640 N   0  0  0  0  0  0  0  0  0  0  0  0
  -23.6870  -32.0800   23.5540 O   0  0  0  0  0  0  0  0  0  0  0  0
  -22.8670  -29.4210   22.4500 C   0  0  0  0  0  0  0  0  0  0  0  0
  -21.5260  -29.3190   22.3190 N   0  0  0  0  0  0  0  0  0  0  0  0
  -23.4790  -28.8000   23.3200 O   0  0  0  0  0  0  0  0  0  0  0  0
  -21.0690  -29.8680   21.6040 H   0  0  0  0  0  0  0  0  0  0  0  0
  -18.1040  -28.1570   22.8660 C   0  0  0  0  0  0  0  0  0  0  0  0
  -20.6750  -28.3920   23.0880 C   0  0  0  0  0  3  0  0  0  0  0  0
  -20.7420  -26.9650   22.4930 C   0  0  0  0  0  2  0  0  0  0  0  0
  -19.6250  -26.6800   21.4850 C   0  0  0  0  0  2  0  0  0  0  0  0
  -18.2540  -26.8260   22.1490 C   0  0  0  0  0  2  0  0  0  0  0  0
  -19.2400  -28.9020   23.2910 C   0  0  0  0  0  0  0  0  0  0  0  0
  -19.0390  -30.1430   23.9320 C   0  0  0  0  0  3  0  0  0  0  0  0
  -17.7390  -30.6420   24.1460 C   0  0  0  0  0  3  0  0  0  0  0  0
  -16.6210  -29.8980   23.7300 C   0  0  0  0  0  3  0  0  0  0  0  0
  -16.8050  -28.6570   23.0970 C   0  0  0  0  0  3  0  0  0  0  0  0
  -26.0150  -32.4530   23.7920 C   0  0  0  0  0  3  0  0  0  0  0  0
  -25.6500  -33.8560   24.1250 N   0  0  0  0  0  0  0  0  0  0  0  0
  -25.9680  -34.9460   23.4090 C   0  0  0  0  0  0  0  0  0  0  0  0
  -26.6320  -34.8790   22.3730 O   0  0  0  0  0  0  0  0  0  0  0  0
  -25.0510  -33.9770   24.9270 H   0  0  0  0  0  0  0  0  0  0  0  0
  -24.2030  -36.7390   23.1670 C   0  0  0  0  0  1  0  0  0  0  0  0
  -25.4830  -36.3280   23.9140 C   0  0  0  0  0  3  0  0  0  0  0  0
  -27.6250  -37.2620   24.6820 C   0  0  0  0  0  1  0  0  0  0  0  0
  -26.4930  -37.4020   23.7710 N   0  0  0  0  0  0  0  0  0  0  0  0
  -26.0740  -38.3150   23.9220 H   0  0  0  0  0  0  0  0  0  0  0  0
  -26.4740  -31.7240   25.1180 C   0  0  1  0  0  0  0  0  0  0  0  0
  -25.3310  -31.5030   26.1400 C   0  0  0  0  0  1  0  0  0  0  0  0
  -27.0870  -30.3430   24.8150 C   0  0  0  0  0  1  0  0  0  0  0  0
  -27.5840  -32.5460   25.8140 C   0  0  0  0  0  1  0  0  0  0  0  0
  -29.3930  -20.9000   20.0600 C   0  0  0  0  0  3  0  0  0  0  0  0
  -27.2930  -21.5960   20.0800 C   0  0  0  0  0  3  0  0  0  0  0  0
  -28.3720  -22.5200   20.1060 C   0  0  0  0  0  3  0  0  0  0  0  0
  -29.2420  -19.1600   20.0050 C   0  0  0  0  0  3  0  0  0  0  0  0
  -27.4670  -19.6490   20.0220 S   0  0  0  0  0  0  0  0  0  0  0  0
  -29.9730  -17.0110   19.9270 C   0  0  0  0  0  2  0  0  0  0  0  0
  -30.4280  -14.1570   19.2130 C   0  0  0  0  0  2  0  0  0  0  0  0
  -29.6900  -13.2190   18.1500 C   0  0  0  0  0  2  0  0  0  0  0  0
  -28.4160  -12.5760   18.7000 C   0  0  0  0  0  2  0  0  0  0  0  0
  -27.7410  -13.6070   19.6120 C   0  0  0  0  0  3  0  0  0  0  0  0
  -28.6800  -14.4210   20.5970 C   0  0  0  0  0  2  0  0  0  0  0  0
  -29.6240  -15.4140   19.8710 N   0  0  0  0  0  0  0  0  0  0  0  0
  -31.2160  -16.7380   19.7860 O   0  0  0  0  0  1  0  0  0  0  0  0
  -25.4260  -13.9560   20.5240 C   0  0  0  0  0  0  0  0  0  0  0  0
  -24.4080  -13.1350   20.9070 C   0  0  0  0  0  0  0  0  0  0  0  0
  -24.9040  -11.7990   20.7930 C   0  0  0  0  0  0  0  0  0  0  0  0
  -26.4860  -13.1380   20.2040 N   0  0  0  0  0  0  0  0  0  0  0  0
  -26.1880  -11.8180   20.4120 N   0  0  0  0  0  0  0  0  0  0  0  0
  -24.1910  -10.5170   20.9710 C   0  0  0  0  0  0  0  0  0  0  0  0
  -24.6200   -9.5470   21.9030 C   0  0  0  0  0  3  0  0  0  0  0  0
  -23.8950   -8.3460   22.0790 C   0  0  0  0  0  3  0  0  0  0  0  0
  -22.7220   -8.1050   21.3250 C   0  0  0  0  0  0  0  0  0  0  0  0
  -22.3070   -9.0650   20.3850 C   0  0  0  0  0  3  0  0  0  0  0  0
  -23.0330  -10.2550   20.2070 C   0  0  0  0  0  3  0  0  0  0  0  0
  -21.9720   -6.9550   21.4080 O   0  0  0  0  0  0  0  0  0  0  0  0
  -21.8600   -6.2480   22.5800 C   0  0  0  0  0  0  0  0  0  0  0  0
  -21.3250   -6.8260   23.7510 C   0  0  0  0  0  3  0  0  0  0  0  0
  -21.1640   -6.0460   24.9130 C   0  0  0  0  0  3  0  0  0  0  0  0
  -21.5270   -4.6860   24.9040 C   0  0  0  0  0  0  0  0  0  0  0  0
  -22.0540   -4.1050   23.7370 C   0  0  0  0  0  3  0  0  0  0  0  0
  -22.2160   -4.8840   22.5770 C   0  0  0  0  0  0  0  0  0  0  0  0
  -22.7040   -4.3120   21.4500 F   0  0  0  0  0  0  0  0  0  0  0  0
  -21.3660   -3.9340   26.0180 F   0  0  0  0  0  0  0  0  0  0  0  0
  -23.0190  -13.5810   21.2540 C   0  0  0  0  0  0  0  0  0  0  0  0
  -22.3460  -12.8600   22.1420 N   0  0  0  0  0  0  0  0  0  0  0  0
  -22.5430  -14.6100   20.7750 O   0  0  0  0  0  0  0  0  0  0  0  0
  -22.7480  -12.0300   22.5510 H   0  0  0  0  0  0  0  0  0  0  0  0
  -21.4170  -13.1420   22.4190 H   0  0  0  0  0  0  0  0  0  0  0  0
  -25.5350  -15.3360   20.3810 N   0  0  0  0  0  0  0  0  0  0  0  0
  -24.7500  -15.9580   20.5370 H   0  0  0  0  0  0  0  0  0  0  0  0
  -26.3540  -15.8110   20.0230 H   0  0  0  0  0  0  0  0  0  0  0  0
  1  3  1  0
  2 13  2  0
  3  8  1  0
  4 12  1  0
  4 14  1  0
  5 11  1  0
  5  7  1  0
  6 12  1  0
  7  6  1  0
  8  7  2  0
  9  3  2  0
 10  9  1  0
 10  5  2  0
 11  4  1  0
 12  2  1  0
 14 16  2  0
 15 14  1  0
 17 15  1  0
 18 27  2  0
 18 23  1  0
 19 15  1  0
 19 23  1  0
 20 19  1  0
 21 22  1  0
 21 20  1  0
 22 18  1  0
 23 24  2  0
 24 25  1  0
 26 25  2  0
 27 26  1  0
 28  2  1  0
 28 29  1  0
 28 38  1  0
 29 32  1  0
 30 34  1  0
 30 29  1  0
 31 30  2  0
 34 33  1  0
 36 34  1  0
 36 37  1  0
 36 35  1  0
 38 41  1  1
 38 39  1  0
 40 38  1  0
 42 44  1  0
 43 44  2  0
 45 46  1  0
 45 42  2  0
 46 43  1  0
 48 53  1  0
 49 50  1  0
 49 48  1  0
 51 50  1  0
 51 58  1  0
 51 52  1  0
 53 47  1  0
 53 52  1  0
 54 47  1  0
 55 56  2  0
 56 75  1  0
 57 56  1  0
 57 60  1  0
 58 59  1  0
 58 55  1  0
 59 57  2  0
 60 61  1  0
 61 62  2  0
 63 66  1  0
 63 62  1  0
 64 63  2  0
 65 64  1  0
 65 60  2  0
 66 67  1  0
 67 68  1  0
 68 69  2  0
 70 69  1  0
 70 74  1  0
 71 70  2  0
 72 67  2  0
 72 71  1  0
 73 72  1  0
 75 76  1  0
 76 79  1  0
 76 78  1  0
 77 75  2  0
 80 55  1  0
 80 81  1  0
 82 80  1  0
M  ISO  4   1 101  44 101  45 100  47 100
M  END
>  <TORSDO>  (93) 
F 16

>  <SCORE>  (93) 
-15.421

>  <name>  (93) 
92

>  <ligand_id>  (93) 
92

>  <original_smiles>  (93) 
[H]c1sc(C(=O)N2C([H])([H])C([H])([H])C([H])([H])C([H])(n3nc(-c4c([H])c([H])c(Oc5c([H])c([H])c(F)c([H])c5F)c([H])c4[H])c(C(=O)N([H])[H])c3N([H])[H])C2([H])[H])c([H])c1Oc1c([H])c([H])c2c(c1[H])C([H])([H])N(C(=O)C([H])(N([H])C(=O)C([H])(N([H])C([H])([H])[H])C([H])([H])[H])C(C([H])([H])[H])(C([H])([H])[H])C([H])([H])[H])C([H])(C(=O)N([H])C1([H])c3c([H])c([H])c([H])c([H])c3C([H])([H])C([H])([H])C1([H])[H])C2([H])[H]

>  <smiles>  (93) 
[H]c1sc(C(=O)N2C([H])([H])C([H])([H])C([H])([H])C([H])(n3nc(-c4c([H])c([H])c(Oc5c([H])c([H])c(F)c([H])c5F)c([H])c4[H])c(C(=O)N([H])[H])c3N([H])[H])C2([H])[H])c([H])c1Oc1c([H])c([H])c2c(c1[H])C([H])([H])N(C(=O)C([H])(N([H])C(=O)C([H])(N([H])C([H])([H])[H])C([H])([H])[H])C(C([H])([H])[H])(C([H])([H])[H])C([H])([H])[H])C([H])(C(=O)N([H])C1([H])c3c([H])c([H])c([H])c([H])c3C([H])([H])C([H])([H])C1([H])[H])C2([H])[H]

$$$$
93:0:0
     RDKit          3D

 90 97  0  0  1  0  0  0  0  0999 V2000
  -29.4660  -19.8250   20.3510 N   0  0  1  0  0  4  0  0  0  0  0  0
  -28.5200  -19.5930   20.0890 H   0  0  0  0  0  0  0  0  0  0  0  0
  -31.4360  -20.8500   19.1500 C   0  0  0  0  0  1  0  0  0  0  0  0
  -30.1670  -19.9800   19.0410 C   0  0  0  0  0  3  0  0  0  0  0  0
  -29.2650  -20.4570   17.8780 C   0  0  0  0  0  2  0  0  0  0  0  0
  -27.9930  -18.2870   17.3590 C   0  0  0  0  0  1  0  0  0  0  0  0
  -27.0540  -20.5120   16.6690 C   0  0  0  0  0  1  0  0  0  0  0  0
  -27.8860  -19.7750   17.7300 C   0  0  0  0  0  3  0  0  0  0  0  0
  -29.9860  -18.3950   21.0140 C   0  0  0  0  0  2  0  0  0  0  0  0
  -29.6880  -16.7300   20.4700 C   0  0  0  0  0  2  0  0  0  0  0  0
  -30.5730  -15.2370   20.4590 C   0  0  0  0  0  0  0  0  0  0  0  0
  -30.5360  -12.8700   19.4360 C   0  0  0  0  0  2  0  0  0  0  0  0
  -29.5920  -12.8120   18.2070 C   0  0  0  0  0  2  0  0  0  0  0  0
  -28.1370  -12.5410   18.6360 C   0  0  0  0  0  2  0  0  0  0  0  0
  -27.7190  -13.4110   19.8480 C   0  0  0  0  0  3  0  0  0  0  0  0
  -28.7820  -13.4350   20.9640 C   0  0  0  0  0  2  0  0  0  0  0  0
  -30.0330  -13.9320   20.3730 N   0  0  0  0  0  0  0  0  0  0  0  0
  -31.7950  -15.2700   20.2560 O   0  0  0  0  0  0  0  0  0  0  0  0
  -25.3420  -13.9240   20.6280 C   0  0  0  0  0  0  0  0  0  0  0  0
  -24.2910  -13.1250   20.9810 C   0  0  0  0  0  0  0  0  0  0  0  0
  -24.7740  -11.7820   20.9130 C   0  0  0  0  0  0  0  0  0  0  0  0
  -26.3940  -13.0670   20.3540 N   0  0  0  0  0  0  0  0  0  0  0  0
  -26.0650  -11.7710   20.5950 N   0  0  0  0  0  0  0  0  0  0  0  0
  -24.0610  -10.5060   21.0730 C   0  0  0  0  0  0  0  0  0  0  0  0
  -24.4610   -9.5490   22.0310 C   0  0  0  0  0  3  0  0  0  0  0  0
  -23.7440   -8.3410   22.1790 C   0  0  0  0  0  3  0  0  0  0  0  0
  -22.6150   -8.0810   21.3670 C   0  0  0  0  0  0  0  0  0  0  0  0
  -22.2370   -9.0280   20.3980 C   0  0  0  0  0  3  0  0  0  0  0  0
  -22.9530  -10.2260   20.2500 C   0  0  0  0  0  3  0  0  0  0  0  0
  -21.8740   -6.9240   21.4220 O   0  0  0  0  0  0  0  0  0  0  0  0
  -21.7310   -6.2160   22.5880 C   0  0  0  0  0  0  0  0  0  0  0  0
  -21.0920   -6.7660   23.7200 C   0  0  0  0  0  3  0  0  0  0  0  0
  -20.9060   -5.9790   24.8750 C   0  0  0  0  0  3  0  0  0  0  0  0
  -21.3470   -4.6430   24.8950 C   0  0  0  0  0  0  0  0  0  0  0  0
  -21.9790   -4.0910   23.7680 C   0  0  0  0  0  3  0  0  0  0  0  0
  -22.1670   -4.8750   22.6150 C   0  0  0  0  0  0  0  0  0  0  0  0
  -22.7570   -4.3330   21.5230 F   0  0  0  0  0  0  0  0  0  0  0  0
  -21.1610   -3.8840   26.0020 F   0  0  0  0  0  0  0  0  0  0  0  0
  -22.8890  -13.5770   21.2690 C   0  0  0  0  0  0  0  0  0  0  0  0
  -22.1710  -12.8420   22.1090 N   0  0  0  0  0  0  0  0  0  0  0  0
  -22.4430  -14.6170   20.7850 O   0  0  0  0  0  0  0  0  0  0  0  0
  -22.5480  -12.0000   22.5160 H   0  0  0  0  0  0  0  0  0  0  0  0
  -21.2310  -13.1230   22.3480 H   0  0  0  0  0  0  0  0  0  0  0  0
  -25.4880  -15.3010   20.4890 N   0  0  0  0  0  0  0  0  0  0  0  0
  -24.7100  -15.9390   20.6170 H   0  0  0  0  0  0  0  0  0  0  0  0
  -26.3260  -15.7610   20.1580 H   0  0  0  0  0  0  0  0  0  0  0  0
  -29.2420  -21.2730   21.1380 C   0  0  0  0  0  3  0  0  0  0  0  0
  -29.0030  -22.9290   20.5080 C   0  0  0  0  0  3  0  0  0  0  0  0
  -28.3820  -24.4320   21.2230 C   0  0  0  0  0  2  0  0  0  0  0  0
  -28.5490  -26.0210   20.9190 O   0  0  0  0  0  0  0  0  0  0  0  0
  -24.6620  -31.9360   23.4640 C   0  0  0  0  0  0  0  0  0  0  0  0
  -27.4870  -27.0410   20.8230 C   0  0  0  0  0  0  0  0  0  0  0  0
  -23.5930  -30.4520   21.8160 C   0  0  0  0  0  3  0  0  0  0  0  0
  -25.1520  -28.8250   20.5570 C   0  0  0  0  0  0  0  0  0  0  0  0
  -26.1550  -30.7260   21.8060 C   0  0  0  0  0  2  0  0  0  0  0  0
  -26.2920  -29.2960   21.2210 C   0  0  0  0  0  0  0  0  0  0  0  0
  -27.4610  -28.4260   21.3210 C   0  0  0  0  0  3  0  0  0  0  0  0
  -26.3170  -26.6980   20.1130 C   0  0  0  0  0  3  0  0  0  0  0  0
  -25.1860  -27.5430   19.9830 C   0  0  0  0  0  3  0  0  0  0  0  0
  -23.9160  -29.7160   20.4870 C   0  0  0  0  0  2  0  0  0  0  0  0
  -24.8210  -31.0670   22.4160 N   0  0  0  0  0  0  0  0  0  0  0  0
  -23.5390  -32.2240   23.9080 O   0  0  0  0  0  0  0  0  0  0  0  0
  -22.8610  -29.4810   22.7770 C   0  0  0  0  0  0  0  0  0  0  0  0
  -21.5480  -29.2730   22.5670 N   0  0  0  0  0  0  0  0  0  0  0  0
  -23.4820  -28.9140   23.6800 O   0  0  0  0  0  0  0  0  0  0  0  0
  -21.1020  -29.7810   21.8150 H   0  0  0  0  0  0  0  0  0  0  0  0
  -18.1620  -28.0170   22.9080 C   0  0  0  0  0  0  0  0  0  0  0  0
  -20.6940  -28.3490   23.3220 C   0  0  0  0  0  3  0  0  0  0  0  0
  -20.8590  -26.8980   22.8140 C   0  0  0  0  0  2  0  0  0  0  0  0
  -19.8300  -26.5110   21.7470 C   0  0  0  0  0  2  0  0  0  0  0  0
  -18.4070  -26.6490   22.2970 C   0  0  0  0  0  2  0  0  0  0  0  0
  -19.2360  -28.8220   23.3740 C   0  0  0  0  0  0  0  0  0  0  0  0
  -18.9510  -30.1000   23.9050 C   0  0  0  0  0  3  0  0  0  0  0  0
  -17.6270  -30.5730   23.9740 C   0  0  0  0  0  3  0  0  0  0  0  0
  -16.5680  -29.7660   23.5230 C   0  0  0  0  0  3  0  0  0  0  0  0
  -16.8360  -28.4900   22.9960 C   0  0  0  0  0  3  0  0  0  0  0  0
  -25.8830  -32.6260   24.1460 C   0  0  0  0  0  3  0  0  0  0  0  0
  -25.5380  -34.0420   24.3640 N   0  0  0  0  0  0  0  0  0  0  0  0
  -25.9130  -35.0530   23.5700 C   0  0  0  0  0  0  0  0  0  0  0  0
  -26.6490  -34.8940   22.5920 O   0  0  0  0  0  0  0  0  0  0  0  0
  -24.8910  -34.2380   25.1140 H   0  0  0  0  0  0  0  0  0  0  0  0
  -24.2110  -36.8190   22.9970 C   0  0  0  0  0  1  0  0  0  0  0  0
  -25.3940  -36.4650   23.9140 C   0  0  0  0  0  3  0  0  0  0  0  0
  -27.4500  -37.4240   24.8550 C   0  0  0  0  0  1  0  0  0  0  0  0
  -26.4310  -37.5170   23.8130 N   0  0  0  0  0  0  0  0  0  0  0  0
  -26.0110  -38.4410   23.8610 H   0  0  0  0  0  0  0  0  0  0  0  0
  -26.2910  -31.9500   25.5140 C   0  0  1  0  0  0  0  0  0  0  0  0
  -25.1070  -31.7550   26.4900 C   0  0  0  0  0  1  0  0  0  0  0  0
  -26.9330  -30.5640   25.2740 C   0  0  0  0  0  1  0  0  0  0  0  0
  -27.3590  -32.8130   26.2270 C   0  0  0  0  0  1  0  0  0  0  0  0
  1  9  1  0
  1 47  1  0
  1  2  1  6
  4  3  1  0
  4  1  1  0
  5  4  1  0
  6  8  1  0
  7  8  1  0
  8  5  1  0
 10  9  1  0
 11 10  1  0
 12 17  1  0
 13 14  1  0
 13 12  1  0
 15 14  1  0
 15 22  1  0
 15 16  1  0
 17 11  1  0
 17 16  1  0
 18 11  2  0
 19 20  2  0
 20 39  1  0
 21 20  1  0
 21 24  1  0
 22 23  1  0
 22 19  1  0
 23 21  2  0
 24 25  1  0
 25 26  2  0
 27 30  1  0
 27 26  1  0
 28 27  2  0
 29 28  1  0
 29 24  2  0
 30 31  1  0
 31 36  2  0
 31 32  1  0
 32 33  2  0
 33 34  1  0
 34 38  1  0
 35 34  2  0
 36 35  1  0
 37 36  1  0
 39 40  1  0
 40 43  1  0
 40 42  1  0
 41 39  2  0
 44 45  1  0
 44 19  1  0
 46 44  1  0
 48 47  2  0
 48 49  1  0
 50 49  1  0
 51 62  2  0
 52 50  1  0
 52 57  1  0
 53 61  1  0
 53 63  1  0
 54 56  1  0
 55 61  1  0
 56 57  2  0
 56 55  1  0
 58 52  2  0
 59 58  1  0
 59 54  2  0
 60 54  1  0
 60 53  1  0
 61 51  1  0
 63 65  2  0
 64 63  1  0
 66 64  1  0
 67 76  2  0
 67 72  1  0
 68 64  1  0
 68 72  1  0
 69 68  1  0
 70 71  1  0
 70 69  1  0
 71 67  1  0
 72 73  2  0
 73 74  1  0
 75 74  2  0
 76 75  1  0
 77 51  1  0
 77 78  1  0
 77 87  1  0
 78 81  1  0
 79 83  1  0
 79 78  1  0
 80 79  2  0
 83 82  1  0
 85 86  1  0
 85 83  1  0
 85 84  1  0
 87 90  1  1
 87 88  1  0
 89 87  1  0
M  ISO  4  10 100  11 100  49 101  50 101
M  END
>  <TORSDO>  (94) 
F 24

>  <SCORE>  (94) 
-13.386

>  <name>  (94) 
93

>  <ligand_id>  (94) 
93

>  <original_smiles>  (94) 
[H]c1c([H])c([H])c2c(c1[H])C([H])([H])C([H])([H])C([H])([H])C2([H])N([H])C(=O)C1([H])N(C(=O)C([H])(N([H])C(=O)C([H])(N([H])C([H])([H])[H])C([H])([H])[H])C(C([H])([H])[H])(C([H])([H])[H])C([H])([H])[H])C([H])([H])c2c([H])c(OC([H])([H])C([H])([H])C([H])([H])[N+]([H])(C([H])([H])C([H])([H])C(=O)N3C([H])([H])C([H])([H])C([H])([H])C([H])(n4nc(-c5c([H])c([H])c(Oc6c([H])c([H])c(F)c([H])c6F)c([H])c5[H])c(C(=O)N([H])[H])c4N([H])[H])C3([H])[H])C([H])(C([H])([H])[H])C([H])([H])C([H])(C([H])([H])[H])C([H])([H])[H])c([H])c([H])c2C1([H])[H]

>  <smiles>  (94) 
[H]c1c([H])c([H])c2c(c1[H])C([H])([H])C([H])([H])C([H])([H])C2([H])N([H])C(=O)C1([H])N(C(=O)C([H])(N([H])C(=O)C([H])(N([H])C([H])([H])[H])C([H])([H])[H])C(C([H])([H])[H])(C([H])([H])[H])C([H])([H])[H])C([H])([H])c2c([H])c(OC([H])([H])C([H])([H])C([H])([H])[N+]([H])(C([H])([H])C([H])([H])C(=O)N3C([H])([H])C([H])([H])C([H])([H])C([H])(n4nc(-c5c([H])c([H])c(Oc6c([H])c([H])c(F)c([H])c6F)c([H])c5[H])c(C(=O)N([H])[H])c4N([H])[H])C3([H])[H])C([H])(C([H])([H])[H])C([H])([H])C([H])(C([H])([H])[H])C([H])([H])[H])c([H])c([H])c2C1([H])[H]

$$$$
94:0:0
     RDKit          3D

 93101  0  0  1  0  0  0  0  0999 V2000
  -31.4660  -19.5080   22.8910 C   0  0  0  0  0  0  0  0  0  0  0  0
  -32.5690  -20.4260   22.3260 C   0  0  0  0  0  0  0  0  0  0  0  0
  -30.2580  -20.1760   23.6000 C   0  0  0  0  0  2  0  0  0  0  0  0
  -32.3460  -21.8740   21.8380 C   0  0  0  0  0  2  0  0  0  0  0  0
  -30.3830  -21.6680   23.9900 C   0  0  0  0  0  2  0  0  0  0  0  0
  -30.1460  -22.6870   22.8550 C   0  0  0  0  0  2  0  0  0  0  0  0
  -30.9210  -22.4020   21.5520 C   0  0  0  0  0  3  0  0  0  0  0  0
  -31.6180  -18.2250   22.7710 N   0  0  0  0  0  0  0  0  0  0  0  0
  -33.7290  -20.0000   22.2160 O   0  0  0  0  0  0  0  0  0  0  0  0
  -31.1080  -23.6700   20.6760 C   0  0  0  0  0  2  0  0  0  0  0  0
  -29.8630  -24.3900   20.1100 C   0  0  0  0  0  2  0  0  0  0  0  0
  -30.2810  -25.4680   19.0790 C   0  0  0  0  0  2  0  0  0  0  0  0
  -29.2300  -26.5540   18.8170 C   0  0  0  0  0  2  0  0  0  0  0  0
  -28.8810  -27.1790   20.0590 O   0  0  0  0  0  0  0  0  0  0  0  0
  -24.6780  -31.9270   23.3310 C   0  0  0  0  0  0  0  0  0  0  0  0
  -27.6480  -27.7880   20.1210 C   0  0  0  0  0  0  0  0  0  0  0  0
  -23.5930  -30.5110   21.6250 C   0  0  0  0  0  3  0  0  0  0  0  0
  -25.1610  -29.1190   20.1880 C   0  0  0  0  0  0  0  0  0  0  0  0
  -26.0950  -31.0350   21.4890 C   0  0  0  0  0  2  0  0  0  0  0  0
  -26.2780  -29.6960   20.8050 C   0  0  0  0  0  0  0  0  0  0  0  0
  -27.5250  -29.0320   20.7790 C   0  0  0  0  0  3  0  0  0  0  0  0
  -26.4950  -27.1960   19.5550 C   0  0  0  0  0  3  0  0  0  0  0  0
  -25.2600  -27.8640   19.5720 C   0  0  0  0  0  3  0  0  0  0  0  0
  -23.8710  -29.9000   20.2290 C   0  0  0  0  0  2  0  0  0  0  0  0
  -24.8050  -31.1700   22.2070 N   0  0  0  0  0  0  0  0  0  0  0  0
  -23.5710  -32.1160   23.8550 O   0  0  0  0  0  0  0  0  0  0  0  0
  -22.9940  -29.4150   22.5350 C   0  0  0  0  0  0  0  0  0  0  0  0
  -21.6930  -29.1300   22.3510 N   0  0  0  0  0  0  0  0  0  0  0  0
  -23.6940  -28.8220   23.3600 O   0  0  0  0  0  0  0  0  0  0  0  0
  -21.1890  -29.6600   21.6550 H   0  0  0  0  0  0  0  0  0  0  0  0
  -18.4110  -27.6630   22.6800 C   0  0  0  0  0  0  0  0  0  0  0  0
  -20.9240  -28.1190   23.0730 C   0  0  0  0  0  3  0  0  0  0  0  0
  -21.1690  -26.7130   22.4800 C   0  0  0  0  0  2  0  0  0  0  0  0
  -20.1410  -26.3200   21.4140 C   0  0  0  0  0  2  0  0  0  0  0  0
  -18.7250  -26.3450   21.9940 C   0  0  0  0  0  2  0  0  0  0  0  0
  -19.4450  -28.5030   23.1720 C   0  0  0  0  0  0  0  0  0  0  0  0
  -19.0960  -29.7360   23.7660 C   0  0  0  0  0  3  0  0  0  0  0  0
  -17.7490  -30.1260   23.8810 C   0  0  0  0  0  3  0  0  0  0  0  0
  -16.7310  -29.2820   23.4070 C   0  0  0  0  0  3  0  0  0  0  0  0
  -17.0620  -28.0540   22.8070 C   0  0  0  0  0  3  0  0  0  0  0  0
  -25.9130  -32.6140   23.9930 C   0  0  0  0  0  3  0  0  0  0  0  0
  -25.5390  -34.0070   24.2750 N   0  0  0  0  0  0  0  0  0  0  0  0
  -25.8740  -35.0520   23.5060 C   0  0  0  0  0  0  0  0  0  0  0  0
  -26.5980  -34.9510   22.5100 O   0  0  0  0  0  0  0  0  0  0  0  0
  -24.9010  -34.1600   25.0410 H   0  0  0  0  0  0  0  0  0  0  0  0
  -24.1010  -36.7710   23.0230 C   0  0  0  0  0  1  0  0  0  0  0  0
  -25.3110  -36.4300   23.9060 C   0  0  0  0  0  3  0  0  0  0  0  0
  -27.3670  -37.4090   24.8250 C   0  0  0  0  0  1  0  0  0  0  0  0
  -26.3080  -37.5200   23.8250 N   0  0  0  0  0  0  0  0  0  0  0  0
  -25.8580  -38.4240   23.9410 H   0  0  0  0  0  0  0  0  0  0  0  0
  -26.3990  -31.8880   25.3060 C   0  0  1  0  0  0  0  0  0  0  0  0
  -25.2550  -31.5790   26.3010 C   0  0  0  0  0  1  0  0  0  0  0  0
  -27.0950  -30.5500   24.9610 C   0  0  0  0  0  1  0  0  0  0  0  0
  -27.4450  -32.7640   26.0330 C   0  0  0  0  0  1  0  0  0  0  0  0
  -30.7610  -17.1970   23.3640 C   0  0  0  0  0  3  0  0  0  0  0  0
  -30.3100  -16.0190   22.3920 C   0  0  0  0  0  3  0  0  0  0  0  0
  -30.7940  -15.9670   20.8900 C   0  0  0  0  0  2  0  0  0  0  0  0
  -31.3480  -14.6560   20.2300 C   0  0  0  0  0  0  0  0  0  0  0  0
  -30.9220  -12.5800   18.9210 C   0  0  0  0  0  2  0  0  0  0  0  0
  -29.9050  -12.7510   17.7710 C   0  0  0  0  0  2  0  0  0  0  0  0
  -28.4410  -12.6980   18.2400 C   0  0  0  0  0  2  0  0  0  0  0  0
  -28.1930  -13.5290   19.5220 C   0  0  0  0  0  3  0  0  0  0  0  0
  -29.2720  -13.2250   20.5860 C   0  0  0  0  0  2  0  0  0  0  0  0
  -30.5930  -13.5320   20.0080 N   0  0  0  0  0  0  0  0  0  0  0  0
  -32.4700  -14.7550   19.7250 O   0  0  0  0  0  0  0  0  0  0  0  0
  -25.8220  -14.2120   20.2630 C   0  0  0  0  0  0  0  0  0  0  0  0
  -24.7340  -13.4700   20.6600 C   0  0  0  0  0  0  0  0  0  0  0  0
  -25.1570  -12.1090   20.6290 C   0  0  0  0  0  0  0  0  0  0  0  0
  -26.8380  -13.2990   20.0290 N   0  0  0  0  0  0  0  0  0  0  0  0
  -26.4420  -12.0310   20.3030 N   0  0  0  0  0  0  0  0  0  0  0  0
  -24.3890  -10.8710   20.8430 C   0  0  0  0  0  0  0  0  0  0  0  0
  -24.7760   -9.9260   21.8190 C   0  0  0  0  0  3  0  0  0  0  0  0
  -24.0100   -8.7550   22.0270 C   0  0  0  0  0  3  0  0  0  0  0  0
  -22.8420   -8.5240   21.2550 C   0  0  0  0  0  0  0  0  0  0  0  0
  -22.4790   -9.4580   20.2690 C   0  0  0  0  0  3  0  0  0  0  0  0
  -23.2460  -10.6200   20.0600 C   0  0  0  0  0  3  0  0  0  0  0  0
  -22.0580   -7.4030   21.3580 O   0  0  0  0  0  0  0  0  0  0  0  0
  -21.9060   -6.7380   22.5500 C   0  0  0  0  0  0  0  0  0  0  0  0
  -21.4040   -7.3760   23.7050 C   0  0  0  0  0  3  0  0  0  0  0  0
  -21.1930   -6.6320   24.8850 C   0  0  0  0  0  3  0  0  0  0  0  0
  -21.4760   -5.2530   24.9110 C   0  0  0  0  0  0  0  0  0  0  0  0
  -21.9760   -4.6170   23.7620 C   0  0  0  0  0  3  0  0  0  0  0  0
  -22.1820   -5.3540   22.5820 C   0  0  0  0  0  0  0  0  0  0  0  0
  -22.6340   -4.7260   21.4710 F   0  0  0  0  0  0  0  0  0  0  0  0
  -21.2790   -4.5400   26.0460 F   0  0  0  0  0  0  0  0  0  0  0  0
  -23.3600  -13.9900   20.9650 C   0  0  0  0  0  0  0  0  0  0  0  0
  -22.6470  -13.3200   21.8710 N   0  0  0  0  0  0  0  0  0  0  0  0
  -22.9200  -15.0090   20.4440 O   0  0  0  0  0  0  0  0  0  0  0  0
  -23.0140  -12.4760   22.2860 H   0  0  0  0  0  0  0  0  0  0  0  0
  -21.7250  -13.6390   22.1370 H   0  0  0  0  0  0  0  0  0  0  0  0
  -26.0340  -15.5700   20.0650 N   0  0  0  0  0  0  0  0  0  0  0  0
  -25.3000  -16.2680   20.0830 H   0  0  0  0  0  0  0  0  0  0  0  0
  -26.9280  -15.9590   19.7850 H   0  0  0  0  0  0  0  0  0  0  0  0
  1  3  1  0
  2  1  1  0
  3  5  1  0
  4  2  1  0
  6  5  1  0
  7 10  1  0
  7  4  1  0
  7  6  1  0
  8  1  2  0
  8 55  1  0
  9  2  2  0
 11 10  1  0
 12 11  1  0
 13 12  1  0
 13 14  1  0
 14 16  1  0
 15 26  2  0
 16 21  1  0
 17 25  1  0
 17 27  1  0
 18 24  1  0
 18 20  1  0
 19 25  1  0
 20 19  1  0
 21 20  2  0
 22 23  1  0
 22 16  2  0
 23 18  2  0
 24 17  1  0
 25 15  1  0
 27 29  2  0
 28 27  1  0
 30 28  1  0
 31 40  2  0
 31 36  1  0
 32 28  1  0
 32 36  1  0
 33 32  1  0
 34 35  1  0
 34 33  1  0
 35 31  1  0
 36 37  2  0
 37 38  1  0
 39 38  2  0
 40 39  1  0
 41 15  1  0
 41 42  1  0
 41 51  1  0
 42 45  1  0
 43 47  1  0
 43 42  1  0
 44 43  2  0
 47 46  1  0
 49 47  1  0
 49 50  1  0
 49 48  1  0
 51 54  1  1
 51 52  1  0
 53 51  1  0
 56 55  2  0
 57 56  1  0
 58 57  1  0
 59 64  1  0
 60 61  1  0
 60 59  1  0
 62 61  1  0
 62 69  1  0
 62 63  1  0
 64 58  1  0
 64 63  1  0
 65 58  2  0
 66 67  2  0
 67 86  1  0
 68 67  1  0
 68 71  1  0
 69 66  1  0
 69 70  1  0
 70 68  2  0
 71 72  1  0
 72 73  2  0
 74 77  1  0
 74 73  1  0
 75 74  2  0
 76 75  1  0
 76 71  2  0
 77 78  1  0
 78 83  2  0
 78 79  1  0
 79 80  2  0
 80 81  1  0
 81 85  1  0
 82 81  2  0
 83 82  1  0
 84 83  1  0
 86 87  1  0
 87 90  1  0
 87 89  1  0
 88 86  2  0
 91 92  1  0
 91 66  1  0
 93 91  1  0
M  ISO  4  13 101  14 101  57 100  58 100
M  END
>  <TORSDO>  (95) 
F 23

>  <SCORE>  (95) 
-10.473

>  <name>  (95) 
94

>  <ligand_id>  (95) 
94

>  <original_smiles>  (95) 
[H]c1c([H])c([H])c2c(c1[H])C([H])([H])C([H])([H])C([H])([H])C2([H])N([H])C(=O)C1([H])N(C(=O)C([H])(N([H])C(=O)C([H])(N([H])C([H])([H])[H])C([H])([H])[H])C(C([H])([H])[H])(C([H])([H])[H])C([H])([H])[H])C([H])([H])c2c([H])c(OC([H])([H])C([H])([H])C([H])([H])C([H])([H])C3([H])C([H])([H])C(=O)C(=NC([H])([H])C([H])([H])C([H])([H])C(=O)N4C([H])([H])C([H])([H])C([H])([H])C([H])(n5nc(-c6c([H])c([H])c(Oc7c([H])c([H])c(F)c([H])c7F)c([H])c6[H])c(C(=O)N([H])[H])c5N([H])[H])C4([H])[H])C([H])([H])C([H])([H])C3([H])[H])c([H])c([H])c2C1([H])[H]

>  <smiles>  (95) 
[H]c1c([H])c([H])c2c(c1[H])C([H])([H])C([H])([H])C([H])([H])C2([H])N([H])C(=O)C1([H])N(C(=O)C([H])(N([H])C(=O)C([H])(N([H])C([H])([H])[H])C([H])([H])[H])C(C([H])([H])[H])(C([H])([H])[H])C([H])([H])[H])C([H])([H])c2c([H])c(OC([H])([H])C([H])([H])C([H])([H])C([H])([H])C3([H])C([H])([H])C(=O)C(=NC([H])([H])C([H])([H])C([H])([H])C(=O)N4C([H])([H])C([H])([H])C([H])([H])C([H])(n5nc(-c6c([H])c([H])c(Oc7c([H])c([H])c(F)c([H])c7F)c([H])c6[H])c(C(=O)N([H])[H])c5N([H])[H])C4([H])[H])C([H])([H])C([H])([H])C3([H])[H])c([H])c([H])c2C1([H])[H]

$$$$
95:0:0
     RDKit          3D

 92 99  0  0  1  0  0  0  0  0999 V2000
  -29.3230  -21.2340   20.4420 C   0  0  0  0  0  3  0  0  0  0  0  0
  -29.0080  -19.6620   20.0410 N   0  0  0  0  0  4  0  0  0  0  0  0
  -28.1340  -19.4470   20.4930 H   0  0  0  0  0  0  0  0  0  0  0  0
  -28.7950  -19.6720   19.0580 H   0  0  0  0  0  0  0  0  0  0  0  0
  -29.9540  -18.3190   20.2500 C   0  0  0  0  0  3  0  0  0  0  0  0
  -29.5110  -16.6000   20.1720 C   0  0  0  0  0  3  0  0  0  0  0  0
  -30.4090  -15.1170   20.0520 C   0  0  0  0  0  0  0  0  0  0  0  0
  -30.3800  -12.6870   19.1700 C   0  0  0  0  0  2  0  0  0  0  0  0
  -29.4160  -12.5430   17.9640 C   0  0  0  0  0  2  0  0  0  0  0  0
  -27.9710  -12.2890   18.4350 C   0  0  0  0  0  2  0  0  0  0  0  0
  -27.5670  -13.2340   19.5930 C   0  0  0  0  0  3  0  0  0  0  0  0
  -28.6470  -13.3260   20.6870 C   0  0  0  0  0  2  0  0  0  0  0  0
  -29.8840  -13.8010   20.0490 N   0  0  0  0  0  0  0  0  0  0  0  0
  -31.6150  -15.1560   19.7720 O   0  0  0  0  0  0  0  0  0  0  0  0
  -25.2220  -13.7990   20.4280 C   0  0  0  0  0  0  0  0  0  0  0  0
  -24.1690  -13.0220   20.8240 C   0  0  0  0  0  0  0  0  0  0  0  0
  -24.6290  -11.6700   20.7650 C   0  0  0  0  0  0  0  0  0  0  0  0
  -26.2520  -12.9220   20.1380 N   0  0  0  0  0  0  0  0  0  0  0  0
  -25.9100  -11.6350   20.4100 N   0  0  0  0  0  0  0  0  0  0  0  0
  -23.9040  -10.4090   20.9670 C   0  0  0  0  0  0  0  0  0  0  0  0
  -24.3310   -9.4520   21.9150 C   0  0  0  0  0  3  0  0  0  0  0  0
  -23.6030   -8.2570   22.1030 C   0  0  0  0  0  3  0  0  0  0  0  0
  -22.4350   -8.0100   21.3450 C   0  0  0  0  0  0  0  0  0  0  0  0
  -22.0270   -8.9540   20.3860 C   0  0  0  0  0  3  0  0  0  0  0  0
  -22.7550  -10.1410   20.1960 C   0  0  0  0  0  3  0  0  0  0  0  0
  -21.6800   -6.8660   21.4420 O   0  0  0  0  0  0  0  0  0  0  0  0
  -21.5990   -6.1530   22.6110 C   0  0  0  0  0  0  0  0  0  0  0  0
  -21.1220   -6.7330   23.8060 C   0  0  0  0  0  3  0  0  0  0  0  0
  -20.9920   -5.9470   24.9690 C   0  0  0  0  0  3  0  0  0  0  0  0
  -21.3290   -4.5800   24.9350 C   0  0  0  0  0  0  0  0  0  0  0  0
  -21.7990   -3.9990   23.7440 C   0  0  0  0  0  3  0  0  0  0  0  0
  -21.9310   -4.7840   22.5850 C   0  0  0  0  0  0  0  0  0  0  0  0
  -22.3650   -4.2140   21.4350 F   0  0  0  0  0  0  0  0  0  0  0  0
  -21.1970   -3.8210   26.0480 F   0  0  0  0  0  0  0  0  0  0  0  0
  -22.7820  -13.5000   21.1410 C   0  0  0  0  0  0  0  0  0  0  0  0
  -22.0800  -12.7990   22.0230 N   0  0  0  0  0  0  0  0  0  0  0  0
  -22.3320  -14.5310   20.6420 O   0  0  0  0  0  0  0  0  0  0  0  0
  -22.4600  -11.9670   22.4500 H   0  0  0  0  0  0  0  0  0  0  0  0
  -21.1500  -13.0990   22.2780 H   0  0  0  0  0  0  0  0  0  0  0  0
  -25.3840  -15.1720   20.2630 N   0  0  0  0  0  0  0  0  0  0  0  0
  -24.6240  -15.8260   20.4100 H   0  0  0  0  0  0  0  0  0  0  0  0
  -26.2230  -15.6130   19.9080 H   0  0  0  0  0  0  0  0  0  0  0  0
  -29.3910  -21.3620   21.9800 C   0  0  0  0  0  2  0  0  0  0  0  0
  -30.7840  -21.8090   22.4860 C   0  0  0  0  0  2  0  0  0  0  0  0
  -30.8140  -22.1760   23.9720 C   0  0  0  0  0  0  0  0  0  0  0  0
  -32.0440  -21.9720   26.1080 C   0  0  0  0  0  1  0  0  0  0  0  0
  -31.8330  -21.6980   24.6910 N   0  0  0  0  0  0  0  0  0  0  0  0
  -29.9420  -22.8940   24.4620 O   0  0  0  0  0  0  0  0  0  0  0  0
  -32.5210  -21.1200   24.2240 H   0  0  0  0  0  0  0  0  0  0  0  0
  -28.5970  -22.7350   19.8010 C   0  0  0  0  0  2  0  0  0  0  0  0
  -28.1650  -24.3100   20.5170 C   0  0  0  0  0  2  0  0  0  0  0  0
  -28.2900  -25.8810   20.1100 O   0  0  0  0  0  0  0  0  0  0  0  0
  -24.5430  -31.7080   23.0670 C   0  0  0  0  0  0  0  0  0  0  0  0
  -27.2260  -26.9070   20.1100 C   0  0  0  0  0  0  0  0  0  0  0  0
  -23.3950  -30.2910   21.4120 C   0  0  0  0  0  3  0  0  0  0  0  0
  -24.8890  -28.7080   20.0230 C   0  0  0  0  0  0  0  0  0  0  0  0
  -25.9560  -30.5570   21.2990 C   0  0  0  0  0  2  0  0  0  0  0  0
  -26.0600  -29.1500   20.6530 C   0  0  0  0  0  0  0  0  0  0  0  0
  -27.2280  -28.2720   20.6660 C   0  0  0  0  0  3  0  0  0  0  0  0
  -26.0220  -26.5950   19.4450 C   0  0  0  0  0  3  0  0  0  0  0  0
  -24.8900  -27.4490   19.4010 C   0  0  0  0  0  3  0  0  0  0  0  0
  -23.6540  -29.6060   20.0420 C   0  0  0  0  0  2  0  0  0  0  0  0
  -24.6510  -30.8770   21.9810 N   0  0  0  0  0  0  0  0  0  0  0  0
  -23.4410  -31.9800   23.5700 O   0  0  0  0  0  0  0  0  0  0  0  0
  -22.7030  -29.2850   22.3680 C   0  0  0  0  0  0  0  0  0  0  0  0
  -21.3750  -29.1150   22.2350 N   0  0  0  0  0  0  0  0  0  0  0  0
  -23.3670  -28.6580   23.1980 O   0  0  0  0  0  0  0  0  0  0  0  0
  -20.8930  -29.6700   21.5410 H   0  0  0  0  0  0  0  0  0  0  0  0
  -17.9920  -27.9020   22.7270 C   0  0  0  0  0  0  0  0  0  0  0  0
  -20.5510  -28.1700   22.9960 C   0  0  0  0  0  3  0  0  0  0  0  0
  -20.6560  -26.7430   22.4100 C   0  0  0  0  0  2  0  0  0  0  0  0
  -19.5550  -26.4270   21.3920 C   0  0  0  0  0  2  0  0  0  0  0  0
  -18.1720  -26.5610   22.0360 C   0  0  0  0  0  2  0  0  0  0  0  0
  -19.1080  -28.6650   23.1640 C   0  0  0  0  0  0  0  0  0  0  0  0
  -18.8830  -29.9180   23.7730 C   0  0  0  0  0  3  0  0  0  0  0  0
  -17.5760  -30.4100   23.9470 C   0  0  0  0  0  3  0  0  0  0  0  0
  -16.4750  -29.6470   23.5240 C   0  0  0  0  0  3  0  0  0  0  0  0
  -16.6830  -28.3930   22.9200 C   0  0  0  0  0  3  0  0  0  0  0  0
  -25.7960  -32.3670   23.7180 C   0  0  0  0  0  3  0  0  0  0  0  0
  -25.4450  -33.7540   24.0710 N   0  0  0  0  0  0  0  0  0  0  0  0
  -25.7610  -34.8340   23.3440 C   0  0  0  0  0  0  0  0  0  0  0  0
  -26.4410  -34.7690   22.3170 O   0  0  0  0  0  0  0  0  0  0  0  0
  -24.8380  -33.8770   24.8680 H   0  0  0  0  0  0  0  0  0  0  0  0
  -23.9990  -36.6040   23.0180 C   0  0  0  0  0  1  0  0  0  0  0  0
  -25.2410  -36.2030   23.8300 C   0  0  0  0  0  3  0  0  0  0  0  0
  -27.3460  -37.1150   24.7060 C   0  0  0  0  0  1  0  0  0  0  0  0
  -26.2530  -37.2800   23.7520 N   0  0  0  0  0  0  0  0  0  0  0  0
  -25.8250  -38.1880   23.9140 H   0  0  0  0  0  0  0  0  0  0  0  0
  -26.3090  -31.5950   24.9960 C   0  0  1  0  0  0  0  0  0  0  0  0
  -25.2050  -31.3240   26.0450 C   0  0  0  0  0  1  0  0  0  0  0  0
  -26.9260  -30.2320   24.6060 C   0  0  0  0  0  1  0  0  0  0  0  0
  -27.4330  -32.4060   25.6830 C   0  0  0  0  0  1  0  0  0  0  0  0
  1 50  1  0
  1 43  1  0
  2  5  1  0
  2  1  1  0
  2  3  1  0
  4  2  1  0
  6  5  2  0
  7  6  1  0
  8 13  1  0
  9 10  1  0
  9  8  1  0
 11 10  1  0
 11 18  1  0
 11 12  1  0
 13  7  1  0
 13 12  1  0
 14  7  2  0
 15 16  2  0
 16 35  1  0
 17 16  1  0
 17 20  1  0
 18 19  1  0
 18 15  1  0
 19 17  2  0
 20 21  1  0
 21 22  2  0
 23 26  1  0
 23 22  1  0
 24 23  2  0
 25 24  1  0
 25 20  2  0
 26 27  1  0
 27 28  1  0
 28 29  2  0
 30 29  1  0
 30 34  1  0
 31 30  2  0
 32 27  2  0
 32 31  1  0
 33 32  1  0
 35 36  1  0
 36 39  1  0
 36 38  1  0
 37 35  2  0
 40 41  1  0
 40 15  1  0
 42 40  1  0
 43 44  1  0
 44 45  1  0
 45 48  2  0
 45 47  1  0
 47 46  1  0
 49 47  1  0
 50 51  1  0
 52 51  1  0
 53 64  2  0
 54 52  1  0
 54 59  1  0
 55 63  1  0
 55 65  1  0
 56 62  1  0
 56 58  1  0
 57 63  1  0
 58 59  2  0
 58 57  1  0
 60 54  2  0
 61 60  1  0
 61 56  2  0
 62 55  1  0
 63 53  1  0
 65 67  2  0
 66 65  1  0
 68 66  1  0
 69 78  2  0
 69 74  1  0
 70 66  1  0
 70 74  1  0
 71 70  1  0
 72 73  1  0
 72 71  1  0
 73 69  1  0
 74 75  2  0
 75 76  1  0
 77 76  2  0
 78 77  1  0
 79 53  1  0
 79 80  1  0
 79 89  1  0
 80 83  1  0
 81 85  1  0
 81 80  1  0
 82 81  2  0
 85 84  1  0
 87 85  1  0
 87 88  1  0
 87 86  1  0
 89 92  1  1
 89 90  1  0
 91 89  1  0
M  ISO  4   6 100   7 100  51 101  52 101
M  END
>  <TORSDO>  (96) 
F 24

>  <SCORE>  (96) 
-12.592

>  <name>  (96) 
95

>  <ligand_id>  (96) 
95

>  <original_smiles>  (96) 
[H]c1c([H])c([H])c2c(c1[H])C([H])([H])C([H])([H])C([H])([H])C2([H])N([H])C(=O)C1([H])N(C(=O)C([H])(N([H])C(=O)C([H])(N([H])C([H])([H])[H])C([H])([H])[H])C(C([H])([H])[H])(C([H])([H])[H])C([H])([H])[H])C([H])([H])c2c([H])c(OC([H])([H])C([H])([H])C([H])(C([H])([H])C([H])([H])C(=O)N([H])C([H])([H])[H])[N+]([H])([H])C([H])([H])C([H])([H])C(=O)N3C([H])([H])C([H])([H])C([H])([H])C([H])(n4nc(-c5c([H])c([H])c(Oc6c([H])c([H])c(F)c([H])c6F)c([H])c5[H])c(C(=O)N([H])[H])c4N([H])[H])C3([H])[H])c([H])c([H])c2C1([H])[H]

>  <smiles>  (96) 
[H]c1c([H])c([H])c2c(c1[H])C([H])([H])C([H])([H])C([H])([H])C2([H])N([H])C(=O)C1([H])N(C(=O)C([H])(N([H])C(=O)C([H])(N([H])C([H])([H])[H])C([H])([H])[H])C(C([H])([H])[H])(C([H])([H])[H])C([H])([H])[H])C([H])([H])c2c([H])c(OC([H])([H])C([H])([H])C([H])(C([H])([H])C([H])([H])C(=O)N([H])C([H])([H])[H])[N+]([H])([H])C([H])([H])C([H])([H])C(=O)N3C([H])([H])C([H])([H])C([H])([H])C([H])(n4nc(-c5c([H])c([H])c(Oc6c([H])c([H])c(F)c([H])c6F)c([H])c5[H])c(C(=O)N([H])[H])c4N([H])[H])C3([H])[H])c([H])c([H])c2C1([H])[H]

$$$$
96:0:0
     RDKit          3D

 86 93  0  0  1  0  0  0  0  0999 V2000
  -28.6980  -22.8010   19.8850 C   0  0  0  0  0  2  0  0  0  0  0  0
  -29.0420  -21.1630   20.5390 C   0  0  0  0  0  2  0  0  0  0  0  0
  -29.0780  -19.5390   19.7860 C   0  0  0  0  0  3  0  0  0  0  0  0
  -30.9020  -20.0500   18.0450 C   0  0  0  0  0  1  0  0  0  0  0  0
  -28.8570  -18.7290   17.3410 C   0  0  0  0  0  1  0  0  0  0  0  0
  -29.4010  -19.8140   18.2910 C   0  0  0  0  0  3  0  0  0  0  0  0
  -29.5400  -16.6090   20.1070 C   0  0  0  0  0  3  0  0  0  0  0  0
  -29.8650  -18.0370   20.1860 C   0  0  0  0  0  3  0  0  0  0  0  0
  -30.3880  -15.2330   20.1850 C   0  0  0  0  0  0  0  0  0  0  0  0
  -30.3320  -12.7960   19.3240 C   0  0  0  0  0  2  0  0  0  0  0  0
  -29.3970  -12.6350   18.0990 C   0  0  0  0  0  2  0  0  0  0  0  0
  -27.9440  -12.3810   18.5430 C   0  0  0  0  0  2  0  0  0  0  0  0
  -27.5170  -13.3280   19.6920 C   0  0  0  0  0  3  0  0  0  0  0  0
  -28.5820  -13.4540   20.8000 C   0  0  0  0  0  2  0  0  0  0  0  0
  -29.8190  -13.9330   20.1660 N   0  0  0  0  0  0  0  0  0  0  0  0
  -31.6160  -15.2130   20.0130 O   0  0  0  0  0  0  0  0  0  0  0  0
  -25.1560  -13.8750   20.4890 C   0  0  0  0  0  0  0  0  0  0  0  0
  -24.1020  -13.0940   20.8720 C   0  0  0  0  0  0  0  0  0  0  0  0
  -24.5750  -11.7460   20.8340 C   0  0  0  0  0  0  0  0  0  0  0  0
  -26.1980  -13.0060   20.2250 N   0  0  0  0  0  0  0  0  0  0  0  0
  -25.8630  -11.7180   20.5040 N   0  0  0  0  0  0  0  0  0  0  0  0
  -23.8540  -10.4810   21.0320 C   0  0  0  0  0  0  0  0  0  0  0  0
  -24.3020   -9.5080   21.9540 C   0  0  0  0  0  3  0  0  0  0  0  0
  -23.5790   -8.3110   22.1400 C   0  0  0  0  0  3  0  0  0  0  0  0
  -22.3910   -8.0760   21.4060 C   0  0  0  0  0  0  0  0  0  0  0  0
  -21.9630   -9.0360   20.4720 C   0  0  0  0  0  3  0  0  0  0  0  0
  -22.6870  -10.2250   20.2840 C   0  0  0  0  0  3  0  0  0  0  0  0
  -21.6380   -6.9310   21.5030 O   0  0  0  0  0  0  0  0  0  0  0  0
  -21.6170   -6.1770   22.6500 C   0  0  0  0  0  0  0  0  0  0  0  0
  -21.2200   -6.7210   23.8920 C   0  0  0  0  0  3  0  0  0  0  0  0
  -21.1440   -5.8940   25.0310 C   0  0  0  0  0  3  0  0  0  0  0  0
  -21.4580   -4.5240   24.9300 C   0  0  0  0  0  0  0  0  0  0  0  0
  -21.8480   -3.9820   23.6940 C   0  0  0  0  0  3  0  0  0  0  0  0
  -21.9230   -4.8050   22.5570 C   0  0  0  0  0  0  0  0  0  0  0  0
  -22.2780   -4.2710   21.3630 F   0  0  0  0  0  0  0  0  0  0  0  0
  -21.3790   -3.7280   26.0220 F   0  0  0  0  0  0  0  0  0  0  0  0
  -22.7060  -13.5660   21.1530 C   0  0  0  0  0  0  0  0  0  0  0  0
  -21.9850  -12.8690   22.0250 N   0  0  0  0  0  0  0  0  0  0  0  0
  -22.2630  -14.5910   20.6350 O   0  0  0  0  0  0  0  0  0  0  0  0
  -22.3540  -12.0400   22.4670 H   0  0  0  0  0  0  0  0  0  0  0  0
  -21.0460  -13.1680   22.2500 H   0  0  0  0  0  0  0  0  0  0  0  0
  -25.3100  -15.2460   20.3120 N   0  0  0  0  0  0  0  0  0  0  0  0
  -24.5440  -15.8970   20.4410 H   0  0  0  0  0  0  0  0  0  0  0  0
  -26.1580  -15.6910   19.9900 H   0  0  0  0  0  0  0  0  0  0  0  0
  -28.1170  -24.3470   20.5770 C   0  0  0  0  0  2  0  0  0  0  0  0
  -28.2600  -25.9400   20.2260 O   0  0  0  0  0  0  0  0  0  0  0  0
  -24.6330  -31.8570   23.2100 C   0  0  0  0  0  0  0  0  0  0  0  0
  -27.2150  -26.9930   20.2400 C   0  0  0  0  0  0  0  0  0  0  0  0
  -23.4480  -30.4500   21.5720 C   0  0  0  0  0  3  0  0  0  0  0  0
  -24.9030  -28.8390   20.1740 C   0  0  0  0  0  0  0  0  0  0  0  0
  -26.0120  -30.6760   21.4310 C   0  0  0  0  0  2  0  0  0  0  0  0
  -26.0880  -29.2630   20.7900 C   0  0  0  0  0  0  0  0  0  0  0  0
  -27.2430  -28.3620   20.7900 C   0  0  0  0  0  3  0  0  0  0  0  0
  -25.9960  -26.7040   19.5910 C   0  0  0  0  0  3  0  0  0  0  0  0
  -24.8800  -27.5780   19.5550 C   0  0  0  0  0  3  0  0  0  0  0  0
  -23.6820  -29.7550   20.2030 C   0  0  0  0  0  2  0  0  0  0  0  0
  -24.7190  -31.0200   22.1250 N   0  0  0  0  0  0  0  0  0  0  0  0
  -23.5400  -32.1470   23.7250 O   0  0  0  0  0  0  0  0  0  0  0  0
  -22.7500  -29.4590   22.5390 C   0  0  0  0  0  0  0  0  0  0  0  0
  -21.4200  -29.2940   22.4090 N   0  0  0  0  0  0  0  0  0  0  0  0
  -23.4110  -28.8370   23.3740 O   0  0  0  0  0  0  0  0  0  0  0  0
  -20.9400  -29.8500   21.7150 H   0  0  0  0  0  0  0  0  0  0  0  0
  -18.0350  -28.0820   22.8970 C   0  0  0  0  0  0  0  0  0  0  0  0
  -20.5920  -28.3610   23.1780 C   0  0  0  0  0  3  0  0  0  0  0  0
  -20.7030  -26.9230   22.6190 C   0  0  0  0  0  2  0  0  0  0  0  0
  -19.6110  -26.5870   21.5980 C   0  0  0  0  0  2  0  0  0  0  0  0
  -18.2230  -26.7290   22.2300 C   0  0  0  0  0  2  0  0  0  0  0  0
  -19.1470  -28.8540   23.3280 C   0  0  0  0  0  0  0  0  0  0  0  0
  -18.9150  -30.1160   23.9170 C   0  0  0  0  0  3  0  0  0  0  0  0
  -17.6060  -30.6090   24.0730 C   0  0  0  0  0  3  0  0  0  0  0  0
  -16.5090  -29.8350   23.6560 C   0  0  0  0  0  3  0  0  0  0  0  0
  -16.7250  -28.5730   23.0760 C   0  0  0  0  0  3  0  0  0  0  0  0
  -25.9000  -32.5040   23.8480 C   0  0  0  0  0  3  0  0  0  0  0  0
  -25.5760  -33.9030   24.1790 N   0  0  0  0  0  0  0  0  0  0  0  0
  -25.9110  -34.9660   23.4330 C   0  0  0  0  0  0  0  0  0  0  0  0
  -26.5860  -34.8690   22.4050 O   0  0  0  0  0  0  0  0  0  0  0  0
  -24.9750  -34.0510   24.9760 H   0  0  0  0  0  0  0  0  0  0  0  0
  -24.1820  -36.7630   23.0890 C   0  0  0  0  0  1  0  0  0  0  0  0
  -25.4230  -36.3530   23.8980 C   0  0  0  0  0  3  0  0  0  0  0  0
  -27.5570  -37.2360   24.7360 C   0  0  0  0  0  1  0  0  0  0  0  0
  -26.4560  -37.4080   23.7920 N   0  0  0  0  0  0  0  0  0  0  0  0
  -26.0510  -38.3280   23.9420 H   0  0  0  0  0  0  0  0  0  0  0  0
  -26.4020  -31.7420   25.1360 C   0  0  1  0  0  0  0  0  0  0  0  0
  -25.2980  -31.5110   26.1940 C   0  0  0  0  0  1  0  0  0  0  0  0
  -26.9880  -30.3610   24.7650 C   0  0  0  0  0  1  0  0  0  0  0  0
  -27.5510  -32.5360   25.8020 C   0  0  0  0  0  1  0  0  0  0  0  0
  1  2  1  0
  1 45  1  0
  3  8  1  0
  3  2  1  0
  4  6  1  0
  5  6  1  0
  6  3  1  0
  7  9  1  0
  7  8  2  0
 10 15  1  0
 11 12  1  0
 11 10  1  0
 13 12  1  0
 13 20  1  0
 13 14  1  0
 15  9  1  0
 15 14  1  0
 16  9  2  0
 17 18  2  0
 18 37  1  0
 19 18  1  0
 19 22  1  0
 20 17  1  0
 20 21  1  0
 21 19  2  0
 22 23  1  0
 23 24  2  0
 25 28  1  0
 25 24  1  0
 26 25  2  0
 27 26  1  0
 27 22  2  0
 28 29  1  0
 29 30  1  0
 30 31  2  0
 32 31  1  0
 32 36  1  0
 33 32  2  0
 34 29  2  0
 34 33  1  0
 35 34  1  0
 37 38  1  0
 38 41  1  0
 38 40  1  0
 39 37  2  0
 42 43  1  0
 42 17  1  0
 44 42  1  0
 46 48  1  0
 46 45  1  0
 47 58  2  0
 48 53  1  0
 49 57  1  0
 49 59  1  0
 50 56  1  0
 50 52  1  0
 51 57  1  0
 52 53  2  0
 52 51  1  0
 54 48  2  0
 55 54  1  0
 55 50  2  0
 56 49  1  0
 57 47  1  0
 59 61  2  0
 60 59  1  0
 62 60  1  0
 63 72  2  0
 63 68  1  0
 64 60  1  0
 64 68  1  0
 65 64  1  0
 66 67  1  0
 66 65  1  0
 67 63  1  0
 68 69  2  0
 69 70  1  0
 71 70  2  0
 72 71  1  0
 73 47  1  0
 73 74  1  0
 73 83  1  0
 74 77  1  0
 75 79  1  0
 75 74  1  0
 76 75  2  0
 79 78  1  0
 81 79  1  0
 81 82  1  0
 81 80  1  0
 83 86  1  1
 83 84  1  0
 85 83  1  0
M  ISO  4   7 100   9 100  45 101  46 101
M  END
>  <TORSDO>  (97) 
F 21

>  <SCORE>  (97) 
-15.411

>  <name>  (97) 
96

>  <ligand_id>  (97) 
96

>  <original_smiles>  (97) 
[H]C(C(=O)N1C([H])([H])C([H])([H])C([H])([H])C([H])(n2nc(-c3c([H])c([H])c(Oc4c([H])c([H])c(F)c([H])c4F)c([H])c3[H])c(C(=O)N([H])[H])c2N([H])[H])C1([H])[H])=C([H])C([H])(C([H])([H])C([H])([H])C([H])([H])Oc1c([H])c([H])c2c(c1[H])C([H])([H])N(C(=O)C([H])(N([H])C(=O)C([H])(N([H])C([H])([H])[H])C([H])([H])[H])C(C([H])([H])[H])(C([H])([H])[H])C([H])([H])[H])C([H])(C(=O)N([H])C1([H])c3c([H])c([H])c([H])c([H])c3C([H])([H])C([H])([H])C1([H])[H])C2([H])[H])C([H])(C([H])([H])[H])C([H])([H])[H]

>  <smiles>  (97) 
[H]C(C(=O)N1C([H])([H])C([H])([H])C([H])([H])C([H])(n2nc(-c3c([H])c([H])c(Oc4c([H])c([H])c(F)c([H])c4F)c([H])c3[H])c(C(=O)N([H])[H])c2N([H])[H])C1([H])[H])=C([H])C([H])(C([H])([H])C([H])([H])C([H])([H])Oc1c([H])c([H])c2c(c1[H])C([H])([H])N(C(=O)C([H])(N([H])C(=O)C([H])(N([H])C([H])([H])[H])C([H])([H])[H])C(C([H])([H])[H])(C([H])([H])[H])C([H])([H])[H])C([H])(C(=O)N([H])C1([H])c3c([H])c([H])c([H])c([H])c3C([H])([H])C([H])([H])C1([H])[H])C2([H])[H])C([H])(C([H])([H])[H])C([H])([H])[H]

$$$$
97:0:0
     RDKit          3D

 83 87  0  0  1  0  0  0  0  0999 V2000
  -28.2660  -23.3290   19.9650 C   0  0  0  0  0 15  0  0  0  0  0  0
  -28.1290  -25.1790   20.3750 O   0  0  0  0  0  1  0  0  0  0  0  0
  -24.6210  -31.8080   23.1460 C   0  0  0  0  0  0  0  0  0  0  0  0
  -27.1880  -26.5040   20.2430 C   0  0  0  0  0  0  0  0  0  0  0  0
  -23.4610  -30.3810   21.5180 C   0  0  0  0  0  3  0  0  0  0  0  0
  -24.9310  -28.6810   20.1400 C   0  0  0  0  0  0  0  0  0  0  0  0
  -26.0500  -30.4660   21.4430 C   0  0  0  0  0  2  0  0  0  0  0  0
  -26.1220  -29.0010   20.8000 C   0  0  0  0  0  0  0  0  0  0  0  0
  -27.2170  -27.9460   20.8170 C   0  0  0  0  0  3  0  0  0  0  0  0
  -25.9630  -26.4620   19.5090 C   0  0  0  0  0  3  0  0  0  0  0  0
  -24.9060  -27.4420   19.4700 C   0  0  0  0  0  3  0  0  0  0  0  0
  -23.7270  -29.6530   20.1630 C   0  0  0  0  0  2  0  0  0  0  0  0
  -24.7370  -30.9250   22.0870 N   0  0  0  0  0  0  0  0  0  0  0  0
  -23.5180  -32.1170   23.6340 O   0  0  0  0  0  0  0  0  0  0  0  0
  -22.7220  -29.4320   22.5010 C   0  0  0  0  0  0  0  0  0  0  0  0
  -21.3850  -29.2980   22.3840 N   0  0  0  0  0  0  0  0  0  0  0  0
  -23.3670  -28.8090   23.3480 O   0  0  0  0  0  0  0  0  0  0  0  0
  -20.9100  -29.8490   21.6830 H   0  0  0  0  0  0  0  0  0  0  0  0
  -17.9860  -28.1120   22.9300 C   0  0  0  0  0  0  0  0  0  0  0  0
  -20.5520  -28.3700   23.1640 C   0  0  0  0  0  3  0  0  0  0  0  0
  -20.6370  -26.9350   22.5930 C   0  0  0  0  0  2  0  0  0  0  0  0
  -19.5260  -26.6200   21.5870 C   0  0  0  0  0  2  0  0  0  0  0  0
  -18.1510  -26.7670   22.2440 C   0  0  0  0  0  2  0  0  0  0  0  0
  -19.1130  -28.8720   23.3470 C   0  0  0  0  0  0  0  0  0  0  0  0
  -18.9000  -30.1280   23.9580 C   0  0  0  0  0  3  0  0  0  0  0  0
  -17.5960  -30.6250   24.1490 C   0  0  0  0  0  3  0  0  0  0  0  0
  -16.4860  -29.8640   23.7430 C   0  0  0  0  0  3  0  0  0  0  0  0
  -16.6820  -28.6090   23.1400 C   0  0  0  0  0  3  0  0  0  0  0  0
  -25.8650  -32.4850   23.7990 C   0  0  0  0  0  3  0  0  0  0  0  0
  -25.5220  -33.8870   24.1250 N   0  0  0  0  0  0  0  0  0  0  0  0
  -25.8550  -34.9600   23.3950 C   0  0  0  0  0  0  0  0  0  0  0  0
  -26.5360  -34.8760   22.3700 O   0  0  0  0  0  0  0  0  0  0  0  0
  -24.9130  -34.0240   24.9190 H   0  0  0  0  0  0  0  0  0  0  0  0
  -24.1210  -36.7630   23.0660 C   0  0  0  0  0  1  0  0  0  0  0  0
  -25.3620  -36.3460   23.8710 C   0  0  0  0  0  3  0  0  0  0  0  0
  -27.4880  -37.2420   24.7210 C   0  0  0  0  0  1  0  0  0  0  0  0
  -26.3890  -37.4080   23.7730 N   0  0  0  0  0  0  0  0  0  0  0  0
  -25.9760  -38.3240   23.9250 H   0  0  0  0  0  0  0  0  0  0  0  0
  -26.3530  -31.7470   25.1080 C   0  0  1  0  0  0  0  0  0  0  0  0
  -25.2360  -31.5290   26.1560 C   0  0  0  0  0  1  0  0  0  0  0  0
  -26.9520  -30.3630   24.7790 C   0  0  0  0  0  1  0  0  0  0  0  0
  -27.4850  -32.5620   25.7780 C   0  0  0  0  0  1  0  0  0  0  0  0
  -28.7380  -21.3420   20.5050 C   0  0  0  0  0 15  0  0  0  0  0  0
  -29.0950  -19.4660   18.4200 C   0  0  0  0  0  1  0  0  0  0  0  0
  -29.4180  -19.4360   19.9170 C   0  0  0  0  0  2  0  0  0  0  0  0
  -30.1850  -16.0840   20.1350 C   0  0  0  0  0  0  0  0  0  0  0  0
  -30.3730  -13.4450   19.3550 C   0  0  0  0  0  2  0  0  0  0  0  0
  -29.5040  -12.8800   18.1820 C   0  0  0  0  0  2  0  0  0  0  0  0
  -28.1210  -12.4410   18.6730 C   0  0  0  0  0  2  0  0  0  0  0  0
  -27.5760  -13.4540   19.6990 C   0  0  0  0  0  3  0  0  0  0  0  0
  -28.6000  -13.9130   20.7780 C   0  0  0  0  0  2  0  0  0  0  0  0
  -29.7050  -14.6520   20.0890 N   0  0  0  0  0  0  0  0  0  0  0  0
  -31.4120  -15.9610   19.8980 O   0  0  0  0  0  0  0  0  0  0  0  0
  -29.4460  -17.5530   20.2610 N   0  0  0  0  0  0  0  0  0  0  0  0
  -28.5090  -17.3150   20.5560 H   0  0  0  0  0  0  0  0  0  0  0  0
  -25.2330  -13.9340   20.5180 C   0  0  0  0  0  0  0  0  0  0  0  0
  -24.1900  -13.1410   20.9000 C   0  0  0  0  0  0  0  0  0  0  0  0
  -24.6730  -11.7960   20.8510 C   0  0  0  0  0  0  0  0  0  0  0  0
  -26.2820  -13.0780   20.2500 N   0  0  0  0  0  0  0  0  0  0  0  0
  -25.9620  -11.7810   20.5130 N   0  0  0  0  0  0  0  0  0  0  0  0
  -23.9570  -10.5270   21.0470 C   0  0  0  0  0  0  0  0  0  0  0  0
  -24.4020   -9.5590   21.9740 C   0  0  0  0  0  3  0  0  0  0  0  0
  -23.6780   -8.3610   22.1630 C   0  0  0  0  0  3  0  0  0  0  0  0
  -22.4950   -8.1210   21.4250 C   0  0  0  0  0  0  0  0  0  0  0  0
  -22.0680   -9.0770   20.4870 C   0  0  0  0  0  3  0  0  0  0  0  0
  -22.7910  -10.2670   20.2960 C   0  0  0  0  0  3  0  0  0  0  0  0
  -21.7430   -6.9750   21.5230 O   0  0  0  0  0  0  0  0  0  0  0  0
  -21.7050   -6.2350   22.6780 C   0  0  0  0  0  0  0  0  0  0  0  0
  -21.2770   -6.7880   23.9040 C   0  0  0  0  0  3  0  0  0  0  0  0
  -21.1870   -5.9740   25.0510 C   0  0  0  0  0  3  0  0  0  0  0  0
  -21.5160   -4.6070   24.9730 C   0  0  0  0  0  0  0  0  0  0  0  0
  -21.9370   -4.0530   23.7510 C   0  0  0  0  0  3  0  0  0  0  0  0
  -22.0280   -4.8640   22.6070 C   0  0  0  0  0  0  0  0  0  0  0  0
  -22.4130   -4.3200   21.4270 F   0  0  0  0  0  0  0  0  0  0  0  0
  -21.4230   -3.8230   26.0720 F   0  0  0  0  0  0  0  0  0  0  0  0
  -22.7930  -13.6050   21.1890 C   0  0  0  0  0  0  0  0  0  0  0  0
  -22.0820  -12.9010   22.0610 N   0  0  0  0  0  0  0  0  0  0  0  0
  -22.3440  -14.6300   20.6780 O   0  0  0  0  0  0  0  0  0  0  0  0
  -22.4610  -12.0730   22.4970 H   0  0  0  0  0  0  0  0  0  0  0  0
  -21.1460  -13.1960   22.3000 H   0  0  0  0  0  0  0  0  0  0  0  0
  -25.3740  -15.3080   20.3420 N   0  0  0  0  0  0  0  0  0  0  0  0
  -24.5970  -15.9500   20.4610 H   0  0  0  0  0  0  0  0  0  0  0  0
  -26.2030  -15.7520   19.9730 H   0  0  0  0  0  0  0  0  0  0  0  0
  3 14  2  0
  4  2  1  0
  4  9  1  0
  5 13  1  0
  5 15  1  0
  6 12  1  0
  6  8  1  0
  7 13  1  0
  8  9  2  0
  8  7  1  0
 10  4  2  0
 11 10  1  0
 11  6  2  0
 12  5  1  0
 13  3  1  0
 15 17  2  0
 16 15  1  0
 18 16  1  0
 19 28  2  0
 19 24  1  0
 20 16  1  0
 20 24  1  0
 21 20  1  0
 22 23  1  0
 22 21  1  0
 23 19  1  0
 24 25  2  0
 25 26  1  0
 27 26  2  0
 28 27  1  0
 29  3  1  0
 29 30  1  0
 29 39  1  0
 30 33  1  0
 31 35  1  0
 31 30  1  0
 32 31  2  0
 35 34  1  0
 37 35  1  0
 37 38  1  0
 37 36  1  0
 39 42  1  1
 39 40  1  0
 41 39  1  0
 44 45  1  0
 45 54  1  0
 46 54  1  0
 47 52  1  0
 48 49  1  0
 48 47  1  0
 50 49  1  0
 50 59  1  0
 50 51  1  0
 52 46  1  0
 52 51  1  0
 53 46  2  0
 54 55  1  0
 56 57  2  0
 57 76  1  0
 58 57  1  0
 58 61  1  0
 59 60  1  0
 59 56  1  0
 60 58  2  0
 61 62  1  0
 62 63  2  0
 64 67  1  0
 64 63  1  0
 65 64  2  0
 66 65  1  0
 66 61  2  0
 67 68  1  0
 68 69  1  0
 69 70  2  0
 71 70  1  0
 71 75  1  0
 72 71  2  0
 73 68  2  0
 73 72  1  0
 74 73  1  0
 76 77  1  0
 77 80  1  0
 77 79  1  0
 78 76  2  0
 81 82  1  0
 81 56  1  0
 83 81  1  0
M  ISO  4   1 101   2 101  46 100  54 100
M  END
>  <TORSDO>  (98) 
F 18

>  <SCORE>  (98) 
-16.192

>  <name>  (98) 
97

>  <ligand_id>  (98) 
97

>  <original_smiles>  (98) 
[H]c1c([H])c([H])c2c(c1[H])C([H])([H])C([H])([H])C([H])([H])C2([H])N([H])C(=O)C1([H])N(C(=O)C([H])(N([H])C(=O)C([H])(N([H])C([H])([H])[H])C([H])([H])[H])C(C([H])([H])[H])(C([H])([H])[H])C([H])([H])[H])C([H])([H])c2c([H])c(OC([H])([H])C([H])([H])C([H])(N([H])C(=O)N3C([H])([H])C([H])([H])C([H])([H])C([H])(n4nc(-c5c([H])c([H])c(Oc6c([H])c([H])c(F)c([H])c6F)c([H])c5[H])c(C(=O)N([H])[H])c4N([H])[H])C3([H])[H])C([H])([H])[H])c([H])c([H])c2C1([H])[H]

>  <smiles>  (98) 
[H]c1c([H])c([H])c2c(c1[H])C([H])([H])C([H])([H])C([H])([H])C2([H])N([H])C(=O)C1([H])N(C(=O)C([H])(N([H])C(=O)C([H])(N([H])C([H])([H])[H])C([H])([H])[H])C(C([H])([H])[H])(C([H])([H])[H])C([H])([H])[H])C([H])([H])c2c([H])c(OC([H])([H])C([H])([H])C([H])(N([H])C(=O)N3C([H])([H])C([H])([H])C([H])([H])C([H])(n4nc(-c5c([H])c([H])c(Oc6c([H])c([H])c(F)c([H])c6F)c([H])c5[H])c(C(=O)N([H])[H])c4N([H])[H])C3([H])[H])C([H])([H])[H])c([H])c([H])c2C1([H])[H]

$$$$
98:0:0
     RDKit          3D

 90 98  0  0  1  0  0  0  0  0999 V2000
  -29.6820  -20.6350   20.5580 C   0  0  0  0  0  3  0  0  0  0  0  0
  -28.7650  -21.9340   20.0430 C   0  0  0  0  0  3  0  0  0  0  0  0
  -29.0430  -23.5330   20.4550 C   0  0  0  0  0  3  0  0  0  0  0  0
  -28.0470  -24.8090   20.0460 C   0  0  0  0  0  3  0  0  0  0  0  0
  -28.2630  -26.3060   20.3560 O   0  0  0  0  0  0  0  0  0  0  0  0
  -24.6200  -31.9740   23.2740 C   0  0  0  0  0  0  0  0  0  0  0  0
  -27.1910  -27.2580   20.2760 C   0  0  0  0  0  0  0  0  0  0  0  0
  -23.4120  -30.5700   21.6460 C   0  0  0  0  0  3  0  0  0  0  0  0
  -24.8530  -28.9790   20.2360 C   0  0  0  0  0  0  0  0  0  0  0  0
  -25.9650  -30.8270   21.4820 C   0  0  0  0  0  2  0  0  0  0  0  0
  -26.0320  -29.4340   20.8400 C   0  0  0  0  0  0  0  0  0  0  0  0
  -27.1980  -28.5880   20.8470 C   0  0  0  0  0  3  0  0  0  0  0  0
  -25.9870  -26.8950   19.6330 C   0  0  0  0  0  3  0  0  0  0  0  0
  -24.8410  -27.7180   19.6200 C   0  0  0  0  0  3  0  0  0  0  0  0
  -23.6270  -29.8760   20.2750 C   0  0  0  0  0  2  0  0  0  0  0  0
  -24.6860  -31.1460   22.1880 N   0  0  0  0  0  0  0  0  0  0  0  0
  -23.5360  -32.2720   23.7970 O   0  0  0  0  0  0  0  0  0  0  0  0
  -22.7270  -29.5770   22.6180 C   0  0  0  0  0  0  0  0  0  0  0  0
  -21.3990  -29.4090   22.4850 N   0  0  0  0  0  0  0  0  0  0  0  0
  -23.3930  -28.9580   23.4530 O   0  0  0  0  0  0  0  0  0  0  0  0
  -20.9220  -29.9580   21.7820 H   0  0  0  0  0  0  0  0  0  0  0  0
  -18.0100  -28.2330   22.9790 C   0  0  0  0  0  0  0  0  0  0  0  0
  -20.5680  -28.4860   23.2610 C   0  0  0  0  0  3  0  0  0  0  0  0
  -20.6670  -27.0470   22.7040 C   0  0  0  0  0  2  0  0  0  0  0  0
  -19.5690  -26.7160   21.6880 C   0  0  0  0  0  2  0  0  0  0  0  0
  -18.1840  -26.8750   22.3200 C   0  0  0  0  0  2  0  0  0  0  0  0
  -19.1280  -28.9960   23.4060 C   0  0  0  0  0  0  0  0  0  0  0  0
  -18.9110  -30.2670   23.9820 C   0  0  0  0  0  3  0  0  0  0  0  0
  -17.6060  -30.7730   24.1380 C   0  0  0  0  0  3  0  0  0  0  0  0
  -16.5020  -30.0070   23.7260 C   0  0  0  0  0  3  0  0  0  0  0  0
  -16.7040  -28.7390   23.1510 C   0  0  0  0  0  3  0  0  0  0  0  0
  -25.9050  -32.6020   23.8970 C   0  0  0  0  0  3  0  0  0  0  0  0
  -25.6010  -34.0040   24.2230 N   0  0  0  0  0  0  0  0  0  0  0  0
  -25.9230  -35.0550   23.4560 C   0  0  0  0  0  0  0  0  0  0  0  0
  -26.5770  -34.9450   22.4150 O   0  0  0  0  0  0  0  0  0  0  0  0
  -25.0190  -34.1620   25.0330 H   0  0  0  0  0  0  0  0  0  0  0  0
  -24.1860  -36.8470   23.1390 C   0  0  0  0  0  1  0  0  0  0  0  0
  -25.4500  -36.4480   23.9170 C   0  0  0  0  0  3  0  0  0  0  0  0
  -27.6070  -37.3420   24.6770 C   0  0  0  0  0  1  0  0  0  0  0  0
  -26.4780  -37.5000   23.7620 N   0  0  0  0  0  0  0  0  0  0  0  0
  -26.0770  -38.4220   23.9090 H   0  0  0  0  0  0  0  0  0  0  0  0
  -26.4090  -31.8330   25.1810 C   0  0  1  0  0  0  0  0  0  0  0  0
  -25.3120  -31.6110   26.2470 C   0  0  0  0  0  1  0  0  0  0  0  0
  -26.9830  -30.4460   24.8050 C   0  0  0  0  0  1  0  0  0  0  0  0
  -27.5610  -32.6260   25.8420 C   0  0  0  0  0  1  0  0  0  0  0  0
  -29.4420  -19.1670   20.0920 N   0  0  0  0  0  0  0  0  0  0  0  0
  -29.5470  -18.8660   15.8750 C   0  0  0  0  0  3  0  0  0  0  0  0
  -28.3340  -18.6870   16.5680 C   0  0  0  0  0  3  0  0  0  0  0  0
  -30.7250  -19.1700   16.5860 C   0  0  0  0  0  3  0  0  0  0  0  0
  -28.2970  -18.8080   17.9720 C   0  0  0  0  0  3  0  0  0  0  0  0
  -30.6860  -19.2980   17.9880 C   0  0  0  0  0  3  0  0  0  0  0  0
  -29.4710  -19.1110   18.6900 C   0  0  0  0  0  0  0  0  0  0  0  0
  -30.1840  -17.8960   20.6130 C   0  0  0  0  0  2  0  0  0  0  0  0
  -29.6210  -16.3420   20.3750 C   0  0  0  0  0  2  0  0  0  0  0  0
  -30.5070  -14.9540   20.3070 C   0  0  0  0  0  0  0  0  0  0  0  0
  -30.3900  -12.6150   19.3680 C   0  0  0  0  0  2  0  0  0  0  0  0
  -29.4600  -12.6540   18.1330 C   0  0  0  0  0  2  0  0  0  0  0  0
  -27.9890  -12.4540   18.5460 C   0  0  0  0  0  2  0  0  0  0  0  0
  -27.5910  -13.3470   19.7510 C   0  0  0  0  0  3  0  0  0  0  0  0
  -28.6460  -13.3040   20.8770 C   0  0  0  0  0  2  0  0  0  0  0  0
  -29.9380  -13.6850   20.2950 N   0  0  0  0  0  0  0  0  0  0  0  0
  -31.7100  -15.0350   20.0370 O   0  0  0  0  0  0  0  0  0  0  0  0
  -25.2040  -13.9290   20.4710 C   0  0  0  0  0  0  0  0  0  0  0  0
  -24.1360  -13.1560   20.8390 C   0  0  0  0  0  0  0  0  0  0  0  0
  -24.6000  -11.8070   20.8160 C   0  0  0  0  0  0  0  0  0  0  0  0
  -26.2480  -13.0510   20.2400 N   0  0  0  0  0  0  0  0  0  0  0  0
  -25.8930  -11.7670   20.5130 N   0  0  0  0  0  0  0  0  0  0  0  0
  -23.8700  -10.5450   21.0140 C   0  0  0  0  0  0  0  0  0  0  0  0
  -24.3010   -9.5830   21.9550 C   0  0  0  0  0  3  0  0  0  0  0  0
  -23.5720   -8.3870   22.1390 C   0  0  0  0  0  3  0  0  0  0  0  0
  -22.4010   -8.1450   21.3830 C   0  0  0  0  0  0  0  0  0  0  0  0
  -21.9890   -9.0970   20.4320 C   0  0  0  0  0  3  0  0  0  0  0  0
  -22.7170  -10.2840   20.2470 C   0  0  0  0  0  3  0  0  0  0  0  0
  -21.6450   -7.0010   21.4730 O   0  0  0  0  0  0  0  0  0  0  0  0
  -21.5950   -6.2610   22.6260 C   0  0  0  0  0  0  0  0  0  0  0  0
  -21.1730   -6.8180   23.8530 C   0  0  0  0  0  3  0  0  0  0  0  0
  -21.0700   -6.0040   25.0000 C   0  0  0  0  0  3  0  0  0  0  0  0
  -21.3800   -4.6330   24.9210 C   0  0  0  0  0  0  0  0  0  0  0  0
  -21.7950   -4.0750   23.6990 C   0  0  0  0  0  3  0  0  0  0  0  0
  -21.9010   -4.8860   22.5540 C   0  0  0  0  0  0  0  0  0  0  0  0
  -22.2800   -4.3370   21.3750 F   0  0  0  0  0  0  0  0  0  0  0  0
  -21.2740   -3.8500   26.0190 F   0  0  0  0  0  0  0  0  0  0  0  0
  -22.7370  -13.6350   21.1020 C   0  0  0  0  0  0  0  0  0  0  0  0
  -22.0040  -12.9470   21.9720 N   0  0  0  0  0  0  0  0  0  0  0  0
  -22.3000  -14.6540   20.5710 O   0  0  0  0  0  0  0  0  0  0  0  0
  -22.3680  -12.1210   22.4250 H   0  0  0  0  0  0  0  0  0  0  0  0
  -21.0640  -13.2490   22.1820 H   0  0  0  0  0  0  0  0  0  0  0  0
  -25.3690  -15.3000   20.2940 N   0  0  0  0  0  0  0  0  0  0  0  0
  -24.6080  -15.9580   20.4260 H   0  0  0  0  0  0  0  0  0  0  0  0
  -26.2290  -15.7460   20.0010 H   0  0  0  0  0  0  0  0  0  0  0  0
  2  3  1  0
  2  1  2  0
  4  5  1  0
  4  3  2  0
  6 17  2  0
  7  5  1  0
  7 12  1  0
  8 16  1  0
  8 18  1  0
  9 15  1  0
  9 11  1  0
 10 16  1  0
 11 12  2  0
 11 10  1  0
 13  7  2  0
 14 13  1  0
 14  9  2  0
 15  8  1  0
 16  6  1  0
 18 20  2  0
 19 18  1  0
 21 19  1  0
 22 31  2  0
 22 27  1  0
 23 19  1  0
 23 27  1  0
 24 23  1  0
 25 26  1  0
 25 24  1  0
 26 22  1  0
 27 28  2  0
 28 29  1  0
 30 29  2  0
 31 30  1  0
 32  6  1  0
 32 33  1  0
 32 42  1  0
 33 36  1  0
 34 38  1  0
 34 33  1  0
 35 34  2  0
 38 37  1  0
 40 41  1  0
 40 38  1  0
 40 39  1  0
 42 45  1  1
 42 43  1  0
 44 42  1  0
 46  1  1  0
 46 53  1  0
 47 48  2  0
 47 49  1  0
 48 50  1  0
 49 51  2  0
 50 52  2  0
 51 52  1  0
 52 46  1  0
 54 53  1  0
 55 54  1  0
 56 61  1  0
 57 58  1  0
 57 56  1  0
 59 58  1  0
 59 66  1  0
 59 60  1  0
 61 55  1  0
 61 60  1  0
 62 55  2  0
 63 64  2  0
 64 83  1  0
 65 64  1  0
 65 68  1  0
 66 63  1  0
 66 67  1  0
 67 65  2  0
 68 69  1  0
 69 70  2  0
 71 74  1  0
 71 70  1  0
 72 71  2  0
 73 72  1  0
 73 68  2  0
 74 75  1  0
 75 76  1  0
 76 77  2  0
 78 77  1  0
 78 82  1  0
 79 78  2  0
 80 75  2  0
 80 79  1  0
 81 80  1  0
 83 84  1  0
 84 87  1  0
 84 86  1  0
 85 83  2  0
 88 89  1  0
 88 63  1  0
 90 88  1  0
M  ISO  4   4 101   5 101  54 100  55 100
M  END
>  <TORSDO>  (99) 
F 23

>  <SCORE>  (99) 
-12.968

>  <name>  (99) 
98

>  <ligand_id>  (99) 
98

>  <original_smiles>  (99) 
[H]c1c([H])c([H])c(N(C([H])([H])C([H])([H])C(=O)N2C([H])([H])C([H])([H])C([H])([H])C([H])(n3nc(-c4c([H])c([H])c(Oc5c([H])c([H])c(F)c([H])c5F)c([H])c4[H])c(C(=O)N([H])[H])c3N([H])[H])C2([H])[H])C([H])([H])C([H])([H])C([H])([H])C([H])([H])Oc2c([H])c([H])c3c(c2[H])C([H])([H])N(C(=O)C([H])(N([H])C(=O)C([H])(N([H])C([H])([H])[H])C([H])([H])[H])C(C([H])([H])[H])(C([H])([H])[H])C([H])([H])[H])C([H])(C(=O)N([H])C2([H])c4c([H])c([H])c([H])c([H])c4C([H])([H])C([H])([H])C2([H])[H])C3([H])[H])c([H])c1[H]

>  <smiles>  (99) 
[H]c1c([H])c([H])c(N(C([H])([H])C([H])([H])C(=O)N2C([H])([H])C([H])([H])C([H])([H])C([H])(n3nc(-c4c([H])c([H])c(Oc5c([H])c([H])c(F)c([H])c5F)c([H])c4[H])c(C(=O)N([H])[H])c3N([H])[H])C2([H])[H])C([H])([H])C([H])([H])C([H])([H])C([H])([H])Oc2c([H])c([H])c3c(c2[H])C([H])([H])N(C(=O)C([H])(N([H])C(=O)C([H])(N([H])C([H])([H])[H])C([H])([H])[H])C(C([H])([H])[H])(C([H])([H])[H])C([H])([H])[H])C([H])(C(=O)N([H])C2([H])c4c([H])c([H])c([H])c([H])c4C([H])([H])C([H])([H])C2([H])[H])C3([H])[H])c([H])c1[H]

$$$$
