0:0:0
     RDKit          3D

 98106  0  0  1  0  0  0  0  0999 V2000
  -30.0210  -23.1860   19.9520 C   0  0  0  0  0  3  0  0  0  0  0  0
  -29.1960  -22.2280   20.7660 N   0  0  0  0  0  4  0  0  0  0  0  0
  -28.9570  -22.7390   21.6020 H   0  0  0  0  0  0  0  0  0  0  0  0
  -28.3250  -22.0620   20.2860 H   0  0  0  0  0  0  0  0  0  0  0  0
  -28.9090  -20.5190   22.5290 C   0  0  0  0  0  1  0  0  0  0  0  0
  -29.7260  -20.9150   21.2810 C   0  0  0  0  0  3  0  0  0  0  0  0
  -29.7960  -19.7290   20.2310 C   0  0  0  0  0  3  0  0  0  0  0  0
  -28.6560  -19.5100   17.9280 C   0  0  0  0  0  1  0  0  0  0  0  0
  -28.4670  -19.5380   19.4530 C   0  0  0  0  0  2  0  0  0  0  0  0
  -30.1480  -18.4560   20.9090 N   0  0  0  0  0  0  0  0  0  0  0  0
  -30.8910  -18.6430   21.5780 H   0  0  0  0  0  0  0  0  0  0  0  0
  -30.5630  -17.3100   20.0670 C   0  0  0  0  0  2  0  0  0  0  0  0
  -30.4400  -15.9330   20.8130 C   0  0  0  0  0  2  0  0  0  0  0  0
  -31.0990  -14.7020   20.1030 C   0  0  0  0  0  0  0  0  0  0  0  0
  -30.7630  -12.5380   18.9340 C   0  0  0  0  0  2  0  0  0  0  0  0
  -29.7800  -12.7670   17.7670 C   0  0  0  0  0  2  0  0  0  0  0  0
  -28.3170  -12.6610   18.2440 C   0  0  0  0  0  2  0  0  0  0  0  0
  -28.0480  -13.4780   19.5350 C   0  0  0  0  0  3  0  0  0  0  0  0
  -29.1360  -13.2010   20.5960 C   0  0  0  0  0  2  0  0  0  0  0  0
  -30.4350  -13.5140   19.9890 N   0  0  0  0  0  0  0  0  0  0  0  0
  -32.2070  -14.8640   19.5800 O   0  0  0  0  0  0  0  0  0  0  0  0
  -25.6860  -14.1350   20.3070 C   0  0  0  0  0  0  0  0  0  0  0  0
  -24.6120  -13.3870   20.7020 C   0  0  0  0  0  0  0  0  0  0  0  0
  -25.0390  -12.0240   20.6550 C   0  0  0  0  0  0  0  0  0  0  0  0
  -26.7050  -13.2310   20.0500 N   0  0  0  0  0  0  0  0  0  0  0  0
  -26.3210  -11.9560   20.3130 N   0  0  0  0  0  0  0  0  0  0  0  0
  -24.2900  -10.7770   20.8630 C   0  0  0  0  0  0  0  0  0  0  0  0
  -24.6670   -9.8450   21.8550 C   0  0  0  0  0  3  0  0  0  0  0  0
  -23.9180   -8.6650   22.0490 C   0  0  0  0  0  3  0  0  0  0  0  0
  -22.7790   -8.4070   21.2520 C   0  0  0  0  0  0  0  0  0  0  0  0
  -22.4220   -9.3250   20.2500 C   0  0  0  0  0  3  0  0  0  0  0  0
  -23.1710  -10.4990   20.0530 C   0  0  0  0  0  3  0  0  0  0  0  0
  -22.0070   -7.2750   21.3530 O   0  0  0  0  0  0  0  0  0  0  0  0
  -21.8360   -6.6240   22.5480 C   0  0  0  0  0  0  0  0  0  0  0  0
  -21.2680   -7.2670   23.6690 C   0  0  0  0  0  3  0  0  0  0  0  0
  -21.0450   -6.5420   24.8580 C   0  0  0  0  0  3  0  0  0  0  0  0
  -21.3820   -5.1750   24.9220 C   0  0  0  0  0  0  0  0  0  0  0  0
  -21.9450   -4.5340   23.8050 C   0  0  0  0  0  3  0  0  0  0  0  0
  -22.1680   -5.2570   22.6200 C   0  0  0  0  0  0  0  0  0  0  0  0
  -22.6920   -4.6280   21.5400 F   0  0  0  0  0  0  0  0  0  0  0  0
  -21.1600   -4.4760   26.0600 F   0  0  0  0  0  0  0  0  0  0  0  0
  -23.2360  -13.8930   21.0220 C   0  0  0  0  0  0  0  0  0  0  0  0
  -22.5230  -13.2090   21.9090 N   0  0  0  0  0  0  0  0  0  0  0  0
  -22.8040  -14.9290   20.5170 O   0  0  0  0  0  0  0  0  0  0  0  0
  -22.8900  -12.3710   22.3360 H   0  0  0  0  0  0  0  0  0  0  0  0
  -21.6000  -13.5250   22.1660 H   0  0  0  0  0  0  0  0  0  0  0  0
  -25.8790  -15.5030   20.1260 N   0  0  0  0  0  0  0  0  0  0  0  0
  -25.1380  -16.1790   20.2650 H   0  0  0  0  0  0  0  0  0  0  0  0
  -26.7440  -15.9220   19.8060 H   0  0  0  0  0  0  0  0  0  0  0  0
  -31.5540  -22.9150   20.0410 C   0  0  0  0  0  2  0  0  0  0  0  0
  -34.5560  -23.6870   17.8000 C   0  0  0  0  0  2  0  0  0  0  0  0
  -33.5120  -23.2440   16.7630 C   0  0  0  0  0  2  0  0  0  0  0  0
  -33.9090  -23.4880   19.1740 C   0  0  0  0  0  2  0  0  0  0  0  0
  -32.2720  -22.8140   17.5550 C   0  0  0  0  0  2  0  0  0  0  0  0
  -32.4040  -23.5270   18.9040 C   0  0  0  0  0  3  0  0  0  0  0  0
  -29.7240  -24.6860   20.3590 C   0  0  0  0  0  2  0  0  0  0  0  0
  -28.4800  -25.4030   19.7690 C   0  0  0  0  0  2  0  0  0  0  0  0
  -28.5400  -26.8310   20.0130 O   0  0  0  0  0  0  0  0  0  0  0  0
  -24.6590  -31.8650   23.2610 C   0  0  0  0  0  0  0  0  0  0  0  0
  -27.3640  -27.5650   20.0010 C   0  0  0  0  0  0  0  0  0  0  0  0
  -23.4750  -30.5100   21.5660 C   0  0  0  0  0  3  0  0  0  0  0  0
  -24.9500  -29.0560   20.0750 C   0  0  0  0  0  0  0  0  0  0  0  0
  -25.9950  -30.9100   21.3810 C   0  0  0  0  0  2  0  0  0  0  0  0
  -26.1020  -29.5660   20.6840 C   0  0  0  0  0  0  0  0  0  0  0  0
  -27.3120  -28.8290   20.6430 C   0  0  0  0  0  3  0  0  0  0  0  0
  -26.1920  -27.0850   19.3700 C   0  0  0  0  0  3  0  0  0  0  0  0
  -24.9910  -27.8180   19.4130 C   0  0  0  0  0  3  0  0  0  0  0  0
  -23.6920  -29.8930   20.1590 C   0  0  0  0  0  2  0  0  0  0  0  0
  -24.7280  -31.1080   22.1290 N   0  0  0  0  0  0  0  0  0  0  0  0
  -23.5740  -32.0970   23.8100 O   0  0  0  0  0  0  0  0  0  0  0  0
  -22.8420  -29.4390   22.4850 C   0  0  0  0  0  0  0  0  0  0  0  0
  -21.5310  -29.2070   22.3200 N   0  0  0  0  0  0  0  0  0  0  0  0
  -23.5320  -28.8210   23.3000 O   0  0  0  0  0  0  0  0  0  0  0  0
  -21.0340  -29.7630   21.6370 H   0  0  0  0  0  0  0  0  0  0  0  0
  -18.2020  -27.8460   22.6890 C   0  0  0  0  0  0  0  0  0  0  0  0
  -20.7340  -28.2180   23.0470 C   0  0  0  0  0  3  0  0  0  0  0  0
  -20.9220  -26.8050   22.4490 C   0  0  0  0  0  2  0  0  0  0  0  0
  -19.8690  -26.4490   21.3950 C   0  0  0  0  0  2  0  0  0  0  0  0
  -18.4620  -26.5190   21.9970 C   0  0  0  0  0  2  0  0  0  0  0  0
  -19.2690  -28.6500   23.1680 C   0  0  0  0  0  0  0  0  0  0  0  0
  -18.9730  -29.8920   23.7720 C   0  0  0  0  0  3  0  0  0  0  0  0
  -17.6420  -30.3300   23.9030 C   0  0  0  0  0  3  0  0  0  0  0  0
  -16.5880  -29.5230   23.4390 C   0  0  0  0  0  3  0  0  0  0  0  0
  -16.8690  -28.2820   22.8400 C   0  0  0  0  0  3  0  0  0  0  0  0
  -25.9350  -32.4930   23.9050 C   0  0  0  0  0  3  0  0  0  0  0  0
  -25.6190  -33.8880   24.2430 N   0  0  0  0  0  0  0  0  0  0  0  0
  -25.9760  -34.9480   23.5070 C   0  0  0  0  0  0  0  0  0  0  0  0
  -26.6770  -34.8550   22.4960 O   0  0  0  0  0  0  0  0  0  0  0  0
  -25.0020  -34.0340   25.0280 H   0  0  0  0  0  0  0  0  0  0  0  0
  -24.2790  -36.7580   23.1000 C   0  0  0  0  0  1  0  0  0  0  0  0
  -25.4760  -36.3320   23.9640 C   0  0  0  0  0  3  0  0  0  0  0  0
  -27.5670  -37.1910   24.9220 C   0  0  0  0  0  1  0  0  0  0  0  0
  -26.5200  -37.3790   23.9200 N   0  0  0  0  0  0  0  0  0  0  0  0
  -26.1130  -38.3000   24.0560 H   0  0  0  0  0  0  0  0  0  0  0  0
  -26.4380  -31.7100   25.1780 C   0  0  1  0  0  0  0  0  0  0  0  0
  -25.3300  -31.4470   26.2250 C   0  0  0  0  0  1  0  0  0  0  0  0
  -27.0400  -30.3430   24.7750 C   0  0  0  0  0  1  0  0  0  0  0  0
  -27.5730  -32.5030   25.8680 C   0  0  0  0  0  1  0  0  0  0  0  0
  1 50  1  0
  1 56  1  0
  1  2  1  0
  2  6  1  0
  2  3  1  0
  4  2  1  0
  6  5  1  0
  7  9  1  0
  7 10  1  0
  7  6  1  0
  8  9  1  0
 10 11  1  0
 12 13  1  0
 12 10  1  0
 14 13  1  0
 15 20  1  0
 16 17  1  0
 16 15  1  0
 18 17  1  0
 18 25  1  0
 18 19  1  0
 20 14  1  0
 20 19  1  0
 21 14  2  0
 22 23  2  0
 23 42  1  0
 24 23  1  0
 24 27  1  0
 25 22  1  0
 25 26  1  0
 26 24  2  0
 27 28  1  0
 28 29  2  0
 30 33  1  0
 30 29  1  0
 31 30  2  0
 32 31  1  0
 32 27  2  0
 33 34  1  0
 34 39  2  0
 34 35  1  0
 35 36  2  0
 36 37  1  0
 37 41  1  0
 38 37  2  0
 39 38  1  0
 40 39  1  0
 42 43  1  0
 43 46  1  0
 43 45  1  0
 44 42  2  0
 47 48  1  0
 47 22  1  0
 49 47  1  0
 51 53  1  0
 52 54  1  0
 52 51  1  0
 54 55  1  0
 55 53  1  0
 55 50  1  0
 57 58  1  0
 57 56  1  0
 59 70  2  0
 60 58  1  0
 60 65  1  0
 61 69  1  0
 61 71  1  0
 62 68  1  0
 62 64  1  0
 63 69  1  0
 64 63  1  0
 65 64  2  0
 66 67  1  0
 66 60  2  0
 67 62  2  0
 68 61  1  0
 69 59  1  0
 71 73  2  0
 72 71  1  0
 74 72  1  0
 75 84  2  0
 75 80  1  0
 76 72  1  0
 76 80  1  0
 77 76  1  0
 78 79  1  0
 78 77  1  0
 79 75  1  0
 80 81  2  0
 81 82  1  0
 83 82  2  0
 84 83  1  0
 85 59  1  0
 85 86  1  0
 85 95  1  0
 86 89  1  0
 87 91  1  0
 87 86  1  0
 88 87  2  0
 91 90  1  0
 93 91  1  0
 93 94  1  0
 93 92  1  0
 95 98  1  1
 95 96  1  0
 97 95  1  0
M  ISO  4  13 100  14 100  57 101  58 101
M  END
>  <TORSDO>  (1) 
F 27

>  <SCORE>  (1) 
-10.103

>  <name>  (1) 
0

>  <ligand_id>  (1) 
0

>  <original_smiles>  (1) 
[H]c1c([H])c([H])c2c(c1[H])C([H])([H])C([H])([H])C([H])([H])C2([H])N([H])C(=O)C1([H])N(C(=O)C([H])(N([H])C(=O)C([H])(N([H])C([H])([H])[H])C([H])([H])[H])C(C([H])([H])[H])(C([H])([H])[H])C([H])([H])[H])C([H])([H])c2c([H])c(OC([H])([H])C([H])([H])C([H])(C([H])([H])C3([H])C([H])([H])C([H])([H])C([H])([H])C3([H])[H])[N+]([H])([H])C([H])(C([H])([H])[H])C([H])(N([H])C([H])([H])C([H])([H])C(=O)N3C([H])([H])C([H])([H])C([H])([H])C([H])(n4nc(-c5c([H])c([H])c(Oc6c([H])c([H])c(F)c([H])c6F)c([H])c5[H])c(C(=O)N([H])[H])c4N([H])[H])C3([H])[H])C([H])([H])C([H])([H])[H])c([H])c([H])c2C1([H])[H]

>  <smiles>  (1) 
[H]c1c([H])c([H])c2c(c1[H])C([H])([H])C([H])([H])C([H])([H])C2([H])N([H])C(=O)C1([H])N(C(=O)C([H])(N([H])C(=O)C([H])(N([H])C([H])([H])[H])C([H])([H])[H])C(C([H])([H])[H])(C([H])([H])[H])C([H])([H])[H])C([H])([H])c2c([H])c(OC([H])([H])C([H])([H])C([H])(C([H])([H])C3([H])C([H])([H])C([H])([H])C([H])([H])C3([H])[H])[N+]([H])([H])C([H])(C([H])([H])[H])C([H])(N([H])C([H])([H])C([H])([H])C(=O)N3C([H])([H])C([H])([H])C([H])([H])C([H])(n4nc(-c5c([H])c([H])c(Oc6c([H])c([H])c(F)c([H])c6F)c([H])c5[H])c(C(=O)N([H])[H])c4N([H])[H])C3([H])[H])C([H])([H])C([H])([H])[H])c([H])c([H])c2C1([H])[H]

$$$$
1:0:0
     RDKit          3D

 94101  0  0  1  0  0  0  0  0999 V2000
  -29.5380  -23.4030   21.5310 C   0  0  0  0  0  2  0  0  0  0  0  0
  -29.2390  -22.0210   20.8130 C   0  0  0  0  0  3  0  0  0  0  0  0
  -26.7670  -22.5850   20.2320 C   0  0  0  0  0  1  0  0  0  0  0  0
  -27.7330  -21.6780   21.0070 C   0  0  0  0  0  2  0  0  0  0  0  0
  -30.1790  -20.8690   21.3600 C   0  0  0  0  0  2  0  0  0  0  0  0
  -29.9100  -19.3730   20.9900 C   0  0  0  0  0  0  0  0  0  0  0  0
  -30.6290  -18.4370   21.6490 N   0  0  0  0  0  0  0  0  0  0  0  0
  -29.0650  -19.0660   20.1470 O   0  0  0  0  0  0  0  0  0  0  0  0
  -31.3440  -18.8150   22.2590 H   0  0  0  0  0  0  0  0  0  0  0  0
  -30.4090  -16.9740   21.8180 C   0  0  0  0  0  2  0  0  0  0  0  0
  -29.9190  -16.1370   20.5940 C   0  0  0  0  0  2  0  0  0  0  0  0
  -30.6850  -14.8070   20.3050 C   0  0  0  0  0  0  0  0  0  0  0  0
  -30.4180  -12.5900   19.2540 C   0  0  0  0  0  2  0  0  0  0  0  0
  -29.4610  -12.7550   18.0530 C   0  0  0  0  0  2  0  0  0  0  0  0
  -27.9950  -12.5840   18.4980 C   0  0  0  0  0  2  0  0  0  0  0  0
  -27.6520  -13.4410   19.7480 C   0  0  0  0  0  3  0  0  0  0  0  0
  -28.7330  -13.2990   20.8450 C   0  0  0  0  0  2  0  0  0  0  0  0
  -30.0420  -13.6040   20.2540 N   0  0  0  0  0  0  0  0  0  0  0  0
  -31.8470  -14.9240   19.9060 O   0  0  0  0  0  0  0  0  0  0  0  0
  -25.2760  -14.0080   20.5480 C   0  0  0  0  0  0  0  0  0  0  0  0
  -24.2230  -13.2170   20.9250 C   0  0  0  0  0  0  0  0  0  0  0  0
  -24.6890  -11.8710   20.8400 C   0  0  0  0  0  0  0  0  0  0  0  0
  -26.3170  -13.1400   20.2590 N   0  0  0  0  0  0  0  0  0  0  0  0
  -25.9700  -11.8470   20.4960 N   0  0  0  0  0  0  0  0  0  0  0  0
  -23.9740  -10.6010   21.0140 C   0  0  0  0  0  0  0  0  0  0  0  0
  -24.4130   -9.6260   21.9350 C   0  0  0  0  0  3  0  0  0  0  0  0
  -23.7010   -8.4180   22.0970 C   0  0  0  0  0  3  0  0  0  0  0  0
  -22.5350   -8.1750   21.3340 C   0  0  0  0  0  0  0  0  0  0  0  0
  -22.1140   -9.1370   20.3990 C   0  0  0  0  0  3  0  0  0  0  0  0
  -22.8280  -10.3370   20.2370 C   0  0  0  0  0  3  0  0  0  0  0  0
  -21.7930   -7.0210   21.4050 O   0  0  0  0  0  0  0  0  0  0  0  0
  -21.7230   -6.2800   22.5560 C   0  0  0  0  0  0  0  0  0  0  0  0
  -21.2450   -6.8260   23.7680 C   0  0  0  0  0  3  0  0  0  0  0  0
  -21.1270   -6.0090   24.9100 C   0  0  0  0  0  3  0  0  0  0  0  0
  -21.4740   -4.6460   24.8390 C   0  0  0  0  0  0  0  0  0  0  0  0
  -21.9430   -4.0990   23.6320 C   0  0  0  0  0  3  0  0  0  0  0  0
  -22.0630   -4.9140   22.4930 C   0  0  0  0  0  0  0  0  0  0  0  0
  -22.4960   -4.3780   21.3260 F   0  0  0  0  0  0  0  0  0  0  0  0
  -21.3520   -3.8580   25.9330 F   0  0  0  0  0  0  0  0  0  0  0  0
  -22.8300  -13.6790   21.2500 C   0  0  0  0  0  0  0  0  0  0  0  0
  -22.1340  -12.9600   22.1260 N   0  0  0  0  0  0  0  0  0  0  0  0
  -22.3670  -14.7090   20.7660 O   0  0  0  0  0  0  0  0  0  0  0  0
  -22.5220  -12.1260   22.5420 H   0  0  0  0  0  0  0  0  0  0  0  0
  -21.2010  -13.2490   22.3850 H   0  0  0  0  0  0  0  0  0  0  0  0
  -25.4300  -15.3840   20.4070 N   0  0  0  0  0  0  0  0  0  0  0  0
  -24.6720  -16.0360   20.5820 H   0  0  0  0  0  0  0  0  0  0  0  0
  -26.2690  -15.8390   20.0710 H   0  0  0  0  0  0  0  0  0  0  0  0
  -29.7930  -24.7590   20.7680 C   0  0  0  0  0  3  0  0  0  0  0  0
  -30.9530  -24.6800   19.8550 N   0  0  0  0  0  4  0  0  0  0  0  0
  -31.1550  -25.5890   19.4710 H   0  0  0  0  0  0  0  0  0  0  0  0
  -30.7960  -24.0430   19.0930 H   0  0  0  0  0  0  0  0  0  0  0  0
  -31.7740  -24.3820   20.3500 H   0  0  0  0  0  0  0  0  0  0  0  0
  -28.5800  -25.5030   20.1180 C   0  0  0  0  0  2  0  0  0  0  0  0
  -28.6960  -26.9500   20.2030 O   0  0  0  0  0  0  0  0  0  0  0  0
  -24.6750  -31.9960   23.2880 C   0  0  0  0  0  0  0  0  0  0  0  0
  -27.5150  -27.6830   20.1630 C   0  0  0  0  0  0  0  0  0  0  0  0
  -23.5480  -30.5980   21.5910 C   0  0  0  0  0  3  0  0  0  0  0  0
  -25.0790  -29.1470   20.1560 C   0  0  0  0  0  0  0  0  0  0  0  0
  -26.0670  -31.0390   21.4490 C   0  0  0  0  0  2  0  0  0  0  0  0
  -26.2110  -29.6840   20.7790 C   0  0  0  0  0  0  0  0  0  0  0  0
  -27.4340  -28.9610   20.7740 C   0  0  0  0  0  3  0  0  0  0  0  0
  -26.3580  -27.1770   19.5240 C   0  0  0  0  0  3  0  0  0  0  0  0
  -25.1510  -27.8990   19.5210 C   0  0  0  0  0  3  0  0  0  0  0  0
  -23.8060  -29.9630   20.1980 C   0  0  0  0  0  2  0  0  0  0  0  0
  -24.7800  -31.2260   22.1690 N   0  0  0  0  0  0  0  0  0  0  0  0
  -23.5740  -32.2190   23.8120 O   0  0  0  0  0  0  0  0  0  0  0  0
  -22.9100  -29.5340   22.5120 C   0  0  0  0  0  0  0  0  0  0  0  0
  -21.5900  -29.3270   22.3700 N   0  0  0  0  0  0  0  0  0  0  0  0
  -23.6020  -28.8950   23.3080 O   0  0  0  0  0  0  0  0  0  0  0  0
  -21.0870  -29.9020   21.7070 H   0  0  0  0  0  0  0  0  0  0  0  0
  -18.2350  -28.0740   22.8370 C   0  0  0  0  0  0  0  0  0  0  0  0
  -20.7920  -28.3470   23.1040 C   0  0  0  0  0  3  0  0  0  0  0  0
  -20.9050  -26.9440   22.4630 C   0  0  0  0  0  2  0  0  0  0  0  0
  -19.8020  -26.6570   21.4410 C   0  0  0  0  0  2  0  0  0  0  0  0
  -18.4220  -26.7580   22.1000 C   0  0  0  0  0  2  0  0  0  0  0  0
  -19.3490  -28.8270   23.2970 C   0  0  0  0  0  0  0  0  0  0  0  0
  -19.1210  -30.0610   23.9440 C   0  0  0  0  0  3  0  0  0  0  0  0
  -17.8110  -30.5430   24.1370 C   0  0  0  0  0  3  0  0  0  0  0  0
  -16.7130  -29.7830   23.6990 C   0  0  0  0  0  3  0  0  0  0  0  0
  -16.9260  -28.5510   23.0550 C   0  0  0  0  0  3  0  0  0  0  0  0
  -25.9260  -32.6530   23.9480 C   0  0  0  0  0  3  0  0  0  0  0  0
  -26.4030  -31.9090   25.2550 C   0  0  1  0  0  0  0  0  0  0  0  0
  -25.2690  -31.6660   26.2770 C   0  0  0  0  0  1  0  0  0  0  0  0
  -27.0280  -30.5380   24.9050 C   0  0  0  0  0  1  0  0  0  0  0  0
  -27.5050  -32.7350   25.9590 C   0  0  0  0  0  1  0  0  0  0  0  0
  -25.5920  -34.0530   24.2420 N   0  0  0  0  0  0  0  0  0  0  0  0
  -25.9330  -35.0950   23.4710 C   0  0  0  0  0  0  0  0  0  0  0  0
  -26.6360  -34.9790   22.4630 O   0  0  0  0  0  0  0  0  0  0  0  0
  -24.9730  -34.2160   25.0210 H   0  0  0  0  0  0  0  0  0  0  0  0
  -24.1860  -36.8500   23.0340 C   0  0  0  0  0  1  0  0  0  0  0  0
  -25.4130  -36.4850   23.8840 C   0  0  0  0  0  3  0  0  0  0  0  0
  -27.5090  -37.4260   24.7490 C   0  0  0  0  0  1  0  0  0  0  0  0
  -26.4320  -37.5510   23.7730 N   0  0  0  0  0  0  0  0  0  0  0  0
  -26.0060  -38.4690   23.8850 H   0  0  0  0  0  0  0  0  0  0  0  0
  2  4  1  0
  2  5  1  0
  2  1  1  0
  3  4  1  0
  6  5  1  0
  6  7  1  0
  7 10  1  0
  7  9  1  0
  8  6  2  0
 11 10  1  0
 12 11  1  0
 13 18  1  0
 14 15  1  0
 14 13  1  0
 16 15  1  0
 16 23  1  0
 16 17  1  0
 18 12  1  0
 18 17  1  0
 19 12  2  0
 20 21  2  0
 21 40  1  0
 22 21  1  0
 22 25  1  0
 23 24  1  0
 23 20  1  0
 24 22  2  0
 25 26  1  0
 26 27  2  0
 28 31  1  0
 28 27  1  0
 29 28  2  0
 30 29  1  0
 30 25  2  0
 31 32  1  0
 32 33  1  0
 33 34  2  0
 35 34  1  0
 35 39  1  0
 36 35  2  0
 37 32  2  0
 37 36  1  0
 38 37  1  0
 40 41  1  0
 41 44  1  0
 41 43  1  0
 42 40  2  0
 45 20  1  0
 45 46  1  0
 47 45  1  0
 48 53  1  0
 48  1  1  0
 49 52  1  0
 49 48  1  0
 50 49  1  0
 51 49  1  0
 53 54  1  0
 55 66  2  0
 56 54  1  0
 56 61  1  0
 57 65  1  0
 57 67  1  0
 58 64  1  0
 58 60  1  0
 59 65  1  0
 60 59  1  0
 61 60  2  0
 62 56  2  0
 63 62  1  0
 63 58  2  0
 64 57  1  0
 65 55  1  0
 67 69  2  0
 68 67  1  0
 70 68  1  0
 71 80  2  0
 71 76  1  0
 72 68  1  0
 72 76  1  0
 73 72  1  0
 74 75  1  0
 74 73  1  0
 75 71  1  0
 76 77  2  0
 77 78  1  0
 79 78  2  0
 80 79  1  0
 81 55  1  0
 81 86  1  0
 81 82  1  0
 82 85  1  1
 82 83  1  0
 84 82  1  0
 86 89  1  0
 87 91  1  0
 87 86  1  0
 88 87  2  0
 91 90  1  0
 93 91  1  0
 93 94  1  0
 93 92  1  0
M  ISO  4  11 100  12 100  53 101  54 101
M  END
>  <TORSDO>  (2) 
F 25

>  <SCORE>  (2) 
-12.316

>  <name>  (2) 
1

>  <ligand_id>  (2) 
1

>  <original_smiles>  (2) 
[H]c1c([H])c([H])c2c(c1[H])C([H])([H])C([H])([H])C([H])([H])C2([H])N([H])C(=O)C1([H])N(C(=O)C([H])(N([H])C(=O)C([H])(N([H])C([H])([H])[H])C([H])([H])[H])C(C([H])([H])[H])(C([H])([H])[H])C([H])([H])[H])C([H])([H])c2c([H])c(OC([H])([H])C([H])(C([H])([H])C([H])(C([H])([H])C(=O)N([H])C([H])([H])C([H])([H])C(=O)N3C([H])([H])C([H])([H])C([H])([H])C([H])(n4nc(-c5c([H])c([H])c(Oc6c([H])c([H])c(F)c([H])c6F)c([H])c5[H])c(C(=O)N([H])[H])c4N([H])[H])C3([H])[H])C([H])([H])C([H])([H])[H])[N+]([H])([H])[H])c([H])c([H])c2C1([H])[H]

>  <smiles>  (2) 
[H]c1c([H])c([H])c2c(c1[H])C([H])([H])C([H])([H])C([H])([H])C2([H])N([H])C(=O)C1([H])N(C(=O)C([H])(N([H])C(=O)C([H])(N([H])C([H])([H])[H])C([H])([H])[H])C(C([H])([H])[H])(C([H])([H])[H])C([H])([H])[H])C([H])([H])c2c([H])c(OC([H])([H])C([H])(C([H])([H])C([H])(C([H])([H])C(=O)N([H])C([H])([H])C([H])([H])C(=O)N3C([H])([H])C([H])([H])C([H])([H])C([H])(n4nc(-c5c([H])c([H])c(Oc6c([H])c([H])c(F)c([H])c6F)c([H])c5[H])c(C(=O)N([H])[H])c4N([H])[H])C3([H])[H])C([H])([H])C([H])([H])[H])[N+]([H])([H])[H])c([H])c([H])c2C1([H])[H]

$$$$
2:0:0
     RDKit          3D

 98100  0  0  1  0  0  0  0  0999 V2000
  -25.5790  -14.9670   22.3720 C   0  0  0  0  0 15  0  0  0  0  0  0
  -27.5150  -14.0240   21.2820 C   0  0  0  0  0 15  0  0  0  0  0  0
  -25.4170  -17.2420   21.3720 C   0  0  0  0  0 15  0  0  0  0  0  0
  -28.3850  -15.9240   19.7550 C   0  0  0  0  0  1  0  0  0  0  0  0
  -27.1500  -17.5410   19.9730 C   0  0  0  0  0  2  0  0  0  0  0  0
  -30.0440  -16.7510   19.3600 C   0  0  0  0  0  3  0  0  0  0  0  0
  -31.0690  -17.8960   19.6360 C   0  0  0  0  0  0  0  0  0  0  0  0
  -32.3220  -17.8060   18.7770 C   0  0  0  0  0  1  0  0  0  0  0  0
  -31.4510  -19.3550   20.6810 C   0  0  0  0  0  2  0  0  0  0  0  0
  -31.6970  -21.1900   20.4400 C   0  0  0  0  0  3  0  0  0  0  0  0
  -31.0480  -22.7590   21.2120 C   0  0  0  0  0  3  0  0  0  0  0  0
  -31.2520  -24.4430   21.1480 O   0  0  0  0  0  0  0  0  0  0  0  0
  -26.5480  -30.0490   23.5490 C   0  0  0  0  0  0  0  0  0  0  0  0
  -30.2220  -25.5430   21.0200 C   0  0  0  0  0  0  0  0  0  0  0  0
  -26.0150  -28.7800   21.5180 C   0  0  0  0  0  3  0  0  0  0  0  0
  -27.9310  -27.3780   20.4780 C   0  0  0  0  0  0  0  0  0  0  0  0
  -28.4900  -29.0820   22.1960 C   0  0  0  0  0  2  0  0  0  0  0  0
  -28.8600  -27.7430   21.4690 C   0  0  0  0  0  0  0  0  0  0  0  0
  -30.0040  -26.8500   21.7140 C   0  0  0  0  0  3  0  0  0  0  0  0
  -29.2600  -25.3520   20.0140 C   0  0  0  0  0  3  0  0  0  0  0  0
  -28.1650  -26.2070   19.7470 C   0  0  0  0  0  3  0  0  0  0  0  0
  -26.7050  -28.2510   20.2320 C   0  0  0  0  0  2  0  0  0  0  0  0
  -27.0250  -29.3250   22.4820 N   0  0  0  0  0  0  0  0  0  0  0  0
  -25.3320  -30.2410   23.7210 O   0  0  0  0  0  0  0  0  0  0  0  0
  -25.1310  -27.6620   22.1310 C   0  0  0  0  0  0  0  0  0  0  0  0
  -23.8570  -27.5690   21.7060 N   0  0  0  0  0  0  0  0  0  0  0  0
  -25.6040  -26.8800   22.9610 O   0  0  0  0  0  0  0  0  0  0  0  0
  -23.5300  -28.2510   21.0350 H   0  0  0  0  0  0  0  0  0  0  0  0
  -20.3980  -26.5010   21.4080 C   0  0  0  0  0  0  0  0  0  0  0  0
  -22.8880  -26.5470   22.1130 C   0  0  0  0  0  3  0  0  0  0  0  0
  -23.0430  -25.2640   21.2640 C   0  0  0  0  0  2  0  0  0  0  0  0
  -22.1120  -25.2330   20.0470 C   0  0  0  0  0  2  0  0  0  0  0  0
  -20.6480  -25.3210   20.4870 C   0  0  0  0  0  2  0  0  0  0  0  0
  -21.4520  -27.0870   22.1600 C   0  0  0  0  0  0  0  0  0  0  0  0
  -21.1680  -28.2020   22.9780 C   0  0  0  0  0  3  0  0  0  0  0  0
  -19.8640  -28.7290   23.0530 C   0  0  0  0  0  3  0  0  0  0  0  0
  -18.8230  -28.1370   22.3160 C   0  0  0  0  0  3  0  0  0  0  0  0
  -19.0910  -27.0230   21.5010 C   0  0  0  0  0  3  0  0  0  0  0  0
  -27.5040  -30.6890   24.6000 C   0  0  0  0  0  3  0  0  0  0  0  0
  -27.5890  -29.8580   25.9420 C   0  0  1  0  0  0  0  0  0  0  0  0
  -26.2110  -29.5600   26.5810 C   0  0  0  0  0  1  0  0  0  0  0  0
  -28.2970  -28.5050   25.7080 C   0  0  0  0  0  1  0  0  0  0  0  0
  -28.4430  -30.6260   26.9810 C   0  0  0  0  0  1  0  0  0  0  0  0
  -27.0260  -32.0540   24.8850 N   0  0  0  0  0  0  0  0  0  0  0  0
  -27.5350  -33.1740   24.3530 C   0  0  0  0  0  0  0  0  0  0  0  0
  -28.5090  -33.1690   23.5990 O   0  0  0  0  0  0  0  0  0  0  0  0
  -26.1970  -32.1290   25.4540 H   0  0  0  0  0  0  0  0  0  0  0  0
  -25.9470  -34.9660   23.5650 C   0  0  0  0  0  1  0  0  0  0  0  0
  -26.8570  -34.5140   24.7190 C   0  0  0  0  0  3  0  0  0  0  0  0
  -28.5130  -35.3880   26.3100 C   0  0  0  0  0  1  0  0  0  0  0  0
  -27.8170  -35.5940   25.0450 N   0  0  0  0  0  0  0  0  0  0  0  0
  -27.3470  -36.4940   25.0840 H   0  0  0  0  0  0  0  0  0  0  0  0
  -25.7090  -18.8660   18.1010 C   0  0  0  0  0  1  0  0  0  0  0  0
  -26.8510  -17.9170   18.4830 C   0  0  0  0  0  2  0  0  0  0  0  0
  -28.4520  -18.2160   20.8680 C   0  0  0  0  0  0  0  0  0  0  0  0
  -29.3940  -17.2760   21.9040 N   0  0  0  0  0  4  0  0  0  0  0  0
  -30.1750  -17.8140   22.2320 H   0  0  0  0  0  0  0  0  0  0  0  0
  -28.6860  -17.3110   22.6240 H   0  0  0  0  0  0  0  0  0  0  0  0
  -29.7380  -15.6330   22.1430 C   0  0  0  0  0  2  0  0  0  0  0  0
  -30.7100  -14.2210   21.5250 C   0  0  0  0  0  2  0  0  0  0  0  0
  -31.2170  -13.1520   20.2510 C   0  0  0  0  0  0  0  0  0  0  0  0
  -31.1450  -11.3010   18.4190 C   0  0  0  0  0  2  0  0  0  0  0  0
  -30.1680  -11.5770   17.2310 C   0  0  0  0  0  2  0  0  0  0  0  0
  -28.6730  -11.4050   17.6170 C   0  0  0  0  0  2  0  0  0  0  0  0
  -28.4480  -12.0440   18.9960 C   0  0  0  0  0  3  0  0  0  0  0  0
  -29.4530  -11.3340   19.9910 C   0  0  0  0  0  2  0  0  0  0  0  0
  -30.6870  -11.9830   19.6780 N   0  0  0  0  0  0  0  0  0  0  0  0
  -32.3650  -13.3460   19.8040 O   0  0  0  0  0  0  0  0  0  0  0  0
  -26.1370  -13.4740   19.6660 C   0  0  0  0  0  2  0  0  0  0  0  0
  -24.9800  -12.4930   19.9540 C   0  0  0  0  0  0  0  0  0  0  0  0
  -25.3720  -11.1160   20.2010 C   0  0  0  0  0  0  0  0  0  0  0  0
  -27.0130  -12.2600   19.3730 N   0  0  0  0  0  0  0  0  0  0  0  0
  -26.6030  -11.0260   19.8540 N   0  0  0  0  0  2  0  0  0  0  0  0
  -24.6300   -9.8630   20.7050 C   0  0  0  0  0  0  0  0  0  0  0  0
  -24.7190   -9.3380   22.0310 C   0  0  0  0  0  3  0  0  0  0  0  0
  -23.9800   -8.1950   22.4490 C   0  0  0  0  0  3  0  0  0  0  0  0
  -23.1050   -7.5300   21.5600 C   0  0  0  0  0  0  0  0  0  0  0  0
  -23.0210   -8.0330   20.2510 C   0  0  0  0  0  3  0  0  0  0  0  0
  -23.7660   -9.1540   19.8310 C   0  0  0  0  0  3  0  0  0  0  0  0
  -22.3900   -6.3760   21.8370 O   0  0  0  0  0  0  0  0  0  0  0  0
  -21.5860   -6.2380   22.9490 C   0  0  0  0  0  0  0  0  0  0  0  0
  -20.4790   -7.0850   23.1800 C   0  0  0  0  0  3  0  0  0  0  0  0
  -19.6350   -6.8670   24.2920 C   0  0  0  0  0  3  0  0  0  0  0  0
  -19.8860   -5.7930   25.1690 C   0  0  0  0  0  0  0  0  0  0  0  0
  -20.9770   -4.9360   24.9350 C   0  0  0  0  0  3  0  0  0  0  0  0
  -21.8150   -5.1540   23.8230 C   0  0  0  0  0  0  0  0  0  0  0  0
  -22.8450   -4.3040   23.5940 F   0  0  0  0  0  0  0  0  0  0  0  0
  -19.0820   -5.5840   26.2410 F   0  0  0  0  0  0  0  0  0  0  0  0
  -23.4960  -12.7000   20.3840 C   0  0  0  0  0  0  0  0  0  0  0  0
  -23.0330  -12.2420   21.5430 N   0  0  0  0  0  0  0  0  0  0  0  0
  -22.6730  -13.2790   19.6910 O   0  0  0  0  0  0  0  0  0  0  0  0
  -23.6220  -11.7650   22.2100 H   0  0  0  0  0  0  0  0  0  0  0  0
  -22.0640  -12.4110   21.7840 H   0  0  0  0  0  0  0  0  0  0  0  0
  -26.6030  -15.5010   20.4300 N   0  0  0  0  0  2  0  0  0  0  0  0
  -25.7300  -15.7560   20.8620 H   0  0  0  0  0  0  0  0  0  0  0  0
  -27.2430  -15.2150   21.1660 H   0  0  0  0  0  0  0  0  0  0  0  0
  -28.3830  -20.4690   19.3170 C   0  0  0  0  0  1  0  0  0  0  0  0
  -28.9860  -19.6470   20.4500 C   0  0  0  0  0  3  0  0  0  0  0  0
  5 55  1  0
  6  7  2  0
  6  4  1  0
  7  9  1  0
  8  7  1  0
 10  9  1  0
 10 11  2  0
 12 11  1  0
 13 24  2  0
 14 12  1  0
 14 19  1  0
 15 25  1  0
 15 23  1  0
 16 18  1  0
 17 23  1  0
 18 19  2  0
 18 17  1  0
 20 14  2  0
 21 20  1  0
 21 16  2  0
 22 16  1  0
 22 15  1  0
 23 13  1  0
 25 27  2  0
 26 25  1  0
 28 26  1  0
 29 38  2  0
 29 34  1  0
 30 26  1  0
 30 34  1  0
 31 30  1  0
 32 33  1  0
 32 31  1  0
 33 29  1  0
 34 35  2  0
 35 36  1  0
 37 36  2  0
 38 37  1  0
 39 13  1  0
 39 44  1  0
 39 40  1  0
 40 41  1  1
 40 43  1  0
 42 40  1  0
 44 47  1  0
 45 49  1  0
 45 44  1  0
 46 45  2  0
 49 48  1  0
 49 51  1  0
 51 52  1  0
 51 50  1  0
 53 54  1  0
 54  5  1  0
 55 56  1  0
 56 59  1  0
 56 57  1  0
 56 58  1  0
 60 59  1  0
 61 60  1  0
 62 67  1  0
 63 64  1  0
 63 62  1  0
 65 64  1  0
 65 72  1  0
 65 66  1  0
 67 66  1  0
 67 61  1  0
 68 61  2  0
 69 70  1  0
 70 71  2  0
 70 89  1  0
 71 74  1  0
 72 69  1  0
 72 73  1  0
 73 71  1  0
 74 75  1  0
 75 76  2  0
 77 80  1  0
 77 76  1  0
 78 77  2  0
 79 78  1  0
 79 74  2  0
 80 81  1  0
 81 82  2  0
 81 86  1  0
 82 83  1  0
 83 84  2  0
 84 88  1  0
 85 84  1  0
 86 85  2  0
 87 86  1  0
 89 90  1  0
 90 93  1  0
 90 92  1  0
 91 89  2  0
 94 95  1  0
 94 96  1  0
 97 98  1  0
 98 55  2  0
M  ISO  4  11 101  12 101  60 100  61 100
M  END
>  <TORSDO>  (3) 
F 26

>  <SCORE>  (3) 
-0.065

>  <name>  (3) 
2

>  <ligand_id>  (3) 
2

>  <original_smiles>  (3) 
[H]C(=C(C([H])([H])[H])C([H])([H])C([H])([H])C([H])([H])Oc1c([H])c([H])c2c(c1[H])C([H])([H])N(C(=O)C([H])(N([H])C(=O)C([H])(N([H])C([H])([H])[H])C([H])([H])[H])C(C([H])([H])[H])(C([H])([H])[H])C([H])([H])[H])C([H])(C(=O)N([H])C1([H])c3c([H])c([H])c([H])c([H])c3C([H])([H])C([H])([H])C1([H])[H])C2([H])[H])C1([H])C([H])([H])C([H])([H])C([H])([H])C1(C([H])([H])C([H])([H])[H])C([H])(C([H])([H])C([H])([H])[H])[N+]([H])([H])C([H])([H])C([H])([H])C(=O)N1C([H])([H])C([H])([H])C([H])([H])C([H])(n2nc(-c3c([H])c([H])c(Oc4c([H])c([H])c(F)c([H])c4F)c([H])c3[H])c(C(=O)N([H])[H])c2N([H])[H])C1([H])[H]

>  <smiles>  (3) 
[H]C(=C(C([H])([H])[H])C([H])([H])C([H])([H])C([H])([H])Oc1c([H])c([H])c2c(c1[H])C([H])([H])N(C(=O)C([H])(N([H])C(=O)C([H])(N([H])C([H])([H])[H])C([H])([H])[H])C(C([H])([H])[H])(C([H])([H])[H])C([H])([H])[H])C([H])(C(=O)N([H])C1([H])c3c([H])c([H])c([H])c([H])c3C([H])([H])C([H])([H])C1([H])[H])C2([H])[H])C1([H])C([H])([H])C([H])([H])C([H])([H])C1(C([H])([H])C([H])([H])[H])C([H])(C([H])([H])C([H])([H])[H])[N+]([H])([H])C([H])([H])C([H])([H])C(=O)N1C([H])([H])C([H])([H])C([H])([H])C([H])(n2nc(-c3c([H])c([H])c(Oc4c([H])c([H])c(F)c([H])c4F)c([H])c3[H])c(C(=O)N([H])[H])c2N([H])[H])C1([H])[H]

$$$$
3:0:0
     RDKit          3D

 93100  0  0  1  0  0  0  0  0999 V2000
  -29.1160  -19.8590   20.1070 C   0  0  0  0  0  3  0  0  0  0  0  0
  -27.7490  -19.5440   19.6200 N   0  0  0  0  0  4  0  0  0  0  0  0
  -27.5170  -18.6140   19.9250 H   0  0  0  0  0  0  0  0  0  0  0  0
  -27.1060  -20.1670   20.0800 H   0  0  0  0  0  0  0  0  0  0  0  0
  -27.9550  -18.3550   17.4160 C   0  0  0  0  0  1  0  0  0  0  0  0
  -27.4730  -19.6140   18.1660 C   0  0  0  0  0  3  0  0  0  0  0  0
  -25.0150  -18.8650   18.5220 C   0  0  0  0  0  1  0  0  0  0  0  0
  -25.5830  -21.3320   18.4140 C   0  0  0  0  0  1  0  0  0  0  0  0
  -25.9720  -19.9200   17.9330 C   0  0  0  0  0  3  0  0  0  0  0  0
  -29.1240  -21.2960   20.8170 C   0  0  0  0  0  3  0  0  0  0  0  0
  -28.9810  -22.6240   19.9440 C   0  0  0  0  0  3  0  0  0  0  0  0
  -28.7810  -24.0320   20.6610 C   0  0  0  0  0  3  0  0  0  0  0  0
  -28.6440  -25.2920   19.7060 C   0  0  0  0  0  3  0  0  0  0  0  0
  -28.5130  -26.6380   20.3030 O   0  0  0  0  0  0  0  0  0  0  0  0
  -24.6380  -31.9380   23.2350 C   0  0  0  0  0  0  0  0  0  0  0  0
  -27.3430  -27.4090   20.2260 C   0  0  0  0  0  0  0  0  0  0  0  0
  -23.4650  -30.5180   21.5900 C   0  0  0  0  0  3  0  0  0  0  0  0
  -24.9470  -28.9790   20.1890 C   0  0  0  0  0  0  0  0  0  0  0  0
  -26.0030  -30.8680   21.4310 C   0  0  0  0  0  2  0  0  0  0  0  0
  -26.1010  -29.4880   20.7930 C   0  0  0  0  0  0  0  0  0  0  0  0
  -27.2950  -28.7130   20.8070 C   0  0  0  0  0  3  0  0  0  0  0  0
  -26.1570  -26.9440   19.6060 C   0  0  0  0  0  3  0  0  0  0  0  0
  -24.9770  -27.7110   19.5910 C   0  0  0  0  0  3  0  0  0  0  0  0
  -23.7000  -29.8350   20.2170 C   0  0  0  0  0  2  0  0  0  0  0  0
  -24.7200  -31.1270   22.1420 N   0  0  0  0  0  0  0  0  0  0  0  0
  -23.5460  -32.2070   23.7570 O   0  0  0  0  0  0  0  0  0  0  0  0
  -22.8070  -29.4980   22.5470 C   0  0  0  0  0  0  0  0  0  0  0  0
  -21.4830  -29.3160   22.4170 N   0  0  0  0  0  0  0  0  0  0  0  0
  -23.4870  -28.8720   23.3660 O   0  0  0  0  0  0  0  0  0  0  0  0
  -20.9930  -29.8750   21.7320 H   0  0  0  0  0  0  0  0  0  0  0  0
  -18.1020  -28.1310   22.9250 C   0  0  0  0  0  0  0  0  0  0  0  0
  -20.6640  -28.3770   23.1850 C   0  0  0  0  0  3  0  0  0  0  0  0
  -20.7560  -26.9480   22.6020 C   0  0  0  0  0  2  0  0  0  0  0  0
  -19.6470  -26.6370   21.5910 C   0  0  0  0  0  2  0  0  0  0  0  0
  -18.2690  -26.7850   22.2400 C   0  0  0  0  0  2  0  0  0  0  0  0
  -19.2270  -28.8860   23.3530 C   0  0  0  0  0  0  0  0  0  0  0  0
  -19.0160  -30.1470   23.9530 C   0  0  0  0  0  3  0  0  0  0  0  0
  -17.7150  -30.6530   24.1310 C   0  0  0  0  0  3  0  0  0  0  0  0
  -16.6050  -29.8950   23.7180 C   0  0  0  0  0  3  0  0  0  0  0  0
  -16.8010  -28.6360   23.1190 C   0  0  0  0  0  3  0  0  0  0  0  0
  -25.9070  -32.5860   23.8680 C   0  0  0  0  0  3  0  0  0  0  0  0
  -26.4070  -31.8380   25.1660 C   0  0  1  0  0  0  0  0  0  0  0  0
  -25.2980  -31.6120   26.2200 C   0  0  0  0  0  1  0  0  0  0  0  0
  -27.0040  -30.4560   24.8080 C   0  0  0  0  0  1  0  0  0  0  0  0
  -27.5400  -32.6500   25.8360 C   0  0  0  0  0  1  0  0  0  0  0  0
  -25.5850  -33.9870   24.1730 N   0  0  0  0  0  0  0  0  0  0  0  0
  -25.9230  -35.0310   23.4050 C   0  0  0  0  0  0  0  0  0  0  0  0
  -26.6100  -34.9180   22.3870 O   0  0  0  0  0  0  0  0  0  0  0  0
  -24.9820  -34.1500   24.9670 H   0  0  0  0  0  0  0  0  0  0  0  0
  -24.1830  -36.8050   23.0050 C   0  0  0  0  0  1  0  0  0  0  0  0
  -25.4190  -36.4230   23.8360 C   0  0  0  0  0  3  0  0  0  0  0  0
  -27.5370  -37.3390   24.6750 C   0  0  0  0  0  1  0  0  0  0  0  0
  -26.4430  -37.4820   23.7160 N   0  0  0  0  0  0  0  0  0  0  0  0
  -26.0280  -38.3990   23.8460 H   0  0  0  0  0  0  0  0  0  0  0  0
  -29.5590  -18.6250   21.0160 C   0  0  0  0  0  2  0  0  0  0  0  0
  -29.7560  -17.1940   20.3370 C   0  0  0  0  0  3  0  0  0  0  0  0
  -29.9560  -15.9370   21.2930 C   0  0  0  0  0  3  0  0  0  0  0  0
  -30.6040  -14.6310   20.6900 C   0  0  0  0  0  0  0  0  0  0  0  0
  -30.4140  -12.3580   19.7010 C   0  0  0  0  0  2  0  0  0  0  0  0
  -29.5150  -12.4290   18.4500 C   0  0  0  0  0  2  0  0  0  0  0  0
  -28.0310  -12.2760   18.8330 C   0  0  0  0  0  2  0  0  0  0  0  0
  -27.6240  -13.1840   20.0240 C   0  0  0  0  0  3  0  0  0  0  0  0
  -28.6440  -13.0880   21.1780 C   0  0  0  0  0  2  0  0  0  0  0  0
  -29.9710  -13.4150   20.6350 N   0  0  0  0  0  0  0  0  0  0  0  0
  -31.7340  -14.7600   20.2110 O   0  0  0  0  0  0  0  0  0  0  0  0
  -25.2230  -13.7870   20.7090 C   0  0  0  0  0  0  0  0  0  0  0  0
  -24.1390  -13.0200   21.0380 C   0  0  0  0  0  0  0  0  0  0  0  0
  -24.5850  -11.6630   20.9740 C   0  0  0  0  0  0  0  0  0  0  0  0
  -26.2610  -12.9010   20.4730 N   0  0  0  0  0  0  0  0  0  0  0  0
  -25.8810  -11.6150   20.6900 N   0  0  0  0  0  0  0  0  0  0  0  0
  -23.8380  -10.4050   21.1130 C   0  0  0  0  0  0  0  0  0  0  0  0
  -24.2700   -9.3840   21.9890 C   0  0  0  0  0  3  0  0  0  0  0  0
  -23.5240   -8.1920   22.1190 C   0  0  0  0  0  3  0  0  0  0  0  0
  -22.3340   -8.0140   21.3750 C   0  0  0  0  0  0  0  0  0  0  0  0
  -21.9230   -9.0240   20.4860 C   0  0  0  0  0  3  0  0  0  0  0  0
  -22.6680  -10.2070   20.3530 C   0  0  0  0  0  3  0  0  0  0  0  0
  -21.5610   -6.8790   21.4190 O   0  0  0  0  0  0  0  0  0  0  0  0
  -21.5520   -6.0550   22.5160 C   0  0  0  0  0  0  0  0  0  0  0  0
  -21.1990   -6.5290   23.7990 C   0  0  0  0  0  3  0  0  0  0  0  0
  -21.1360   -5.6360   24.8870 C   0  0  0  0  0  3  0  0  0  0  0  0
  -21.4140   -4.2690   24.6930 C   0  0  0  0  0  0  0  0  0  0  0  0
  -21.7580   -3.7940   23.4150 C   0  0  0  0  0  3  0  0  0  0  0  0
  -21.8250   -4.6840   22.3290 C   0  0  0  0  0  0  0  0  0  0  0  0
  -22.1390   -4.2190   21.0960 F   0  0  0  0  0  0  0  0  0  0  0  0
  -21.3440   -3.4090   25.7360 F   0  0  0  0  0  0  0  0  0  0  0  0
  -22.7430  -13.5080   21.3000 C   0  0  0  0  0  0  0  0  0  0  0  0
  -21.9940  -12.8040   22.1410 N   0  0  0  0  0  0  0  0  0  0  0  0
  -22.3250  -14.5490   20.7940 O   0  0  0  0  0  0  0  0  0  0  0  0
  -22.3470  -11.9630   22.5720 H   0  0  0  0  0  0  0  0  0  0  0  0
  -21.0570  -13.1130   22.3590 H   0  0  0  0  0  0  0  0  0  0  0  0
  -25.4080  -15.1570   20.5670 N   0  0  0  0  0  0  0  0  0  0  0  0
  -24.6300  -15.8010   20.6260 H   0  0  0  0  0  0  0  0  0  0  0  0
  -26.2530  -15.5670   20.1930 H   0  0  0  0  0  0  0  0  0  0  0  0
  1 10  1  0
  1 55  1  0
  2  3  1  0
  2  4  1  0
  2  1  1  0
  6  5  1  0
  6  2  1  0
  9  6  1  0
  9  8  1  0
  9  7  1  0
 11 12  1  0
 11 10  2  0
 13 14  1  0
 13 12  2  0
 15 26  2  0
 16 14  1  0
 16 21  1  0
 17 25  1  0
 17 27  1  0
 18 24  1  0
 18 20  1  0
 19 25  1  0
 20 21  2  0
 20 19  1  0
 22 16  2  0
 23 22  1  0
 23 18  2  0
 24 17  1  0
 25 15  1  0
 27 29  2  0
 28 27  1  0
 30 28  1  0
 31 40  2  0
 31 36  1  0
 32 28  1  0
 32 36  1  0
 33 32  1  0
 34 35  1  0
 34 33  1  0
 35 31  1  0
 36 37  2  0
 37 38  1  0
 39 38  2  0
 40 39  1  0
 41 15  1  0
 41 46  1  0
 41 42  1  0
 42 45  1  1
 42 43  1  0
 44 42  1  0
 46 49  1  0
 47 51  1  0
 47 46  1  0
 48 47  2  0
 51 50  1  0
 53 51  1  0
 53 54  1  0
 53 52  1  0
 56 55  1  0
 56 57  2  0
 58 57  1  0
 59 64  1  0
 60 61  1  0
 60 59  1  0
 62 61  1  0
 62 69  1  0
 62 63  1  0
 64 58  1  0
 64 63  1  0
 65 58  2  0
 66 67  2  0
 67 86  1  0
 68 67  1  0
 68 71  1  0
 69 70  1  0
 69 66  1  0
 70 68  2  0
 71 72  1  0
 72 73  2  0
 74 77  1  0
 74 73  1  0
 75 74  2  0
 76 75  1  0
 76 71  2  0
 77 78  1  0
 78 79  1  0
 79 80  2  0
 81 80  1  0
 81 85  1  0
 82 81  2  0
 83 78  2  0
 83 82  1  0
 84 83  1  0
 86 87  1  0
 87 90  1  0
 87 89  1  0
 88 86  2  0
 91 92  1  0
 91 66  1  0
 93 91  1  0
M  ISO  4  13 101  14 101  57 100  58 100
M  END
>  <TORSDO>  (4) 
F 26

>  <SCORE>  (4) 
-10.891

>  <name>  (4) 
3

>  <ligand_id>  (4) 
3

>  <original_smiles>  (4) 
[H]c1c([H])c([H])c2c(c1[H])C([H])([H])C([H])([H])C([H])([H])C2([H])N([H])C(=O)C1([H])N(C(=O)C([H])(N([H])C(=O)C([H])(N([H])C([H])([H])[H])C([H])([H])[H])C(C([H])([H])[H])(C([H])([H])[H])C([H])([H])[H])C([H])([H])c2c([H])c(OC([H])([H])C([H])([H])C([H])([H])C([H])([H])C([H])(C([H])([H])C([H])([H])C([H])([H])C(=O)N3C([H])([H])C([H])([H])C([H])([H])C([H])(n4nc(-c5c([H])c([H])c(Oc6c([H])c([H])c(F)c([H])c6F)c([H])c5[H])c(C(=O)N([H])[H])c4N([H])[H])C3([H])[H])[N+]([H])([H])C([H])(C([H])([H])[H])C([H])(C([H])([H])[H])C([H])([H])[H])c([H])c([H])c2C1([H])[H]

>  <smiles>  (4) 
[H]c1c([H])c([H])c2c(c1[H])C([H])([H])C([H])([H])C([H])([H])C2([H])N([H])C(=O)C1([H])N(C(=O)C([H])(N([H])C(=O)C([H])(N([H])C([H])([H])[H])C([H])([H])[H])C(C([H])([H])[H])(C([H])([H])[H])C([H])([H])[H])C([H])([H])c2c([H])c(OC([H])([H])C([H])([H])C([H])([H])C([H])([H])C([H])(C([H])([H])C([H])([H])C([H])([H])C(=O)N3C([H])([H])C([H])([H])C([H])([H])C([H])(n4nc(-c5c([H])c([H])c(Oc6c([H])c([H])c(F)c([H])c6F)c([H])c5[H])c(C(=O)N([H])[H])c4N([H])[H])C3([H])[H])[N+]([H])([H])C([H])(C([H])([H])[H])C([H])(C([H])([H])[H])C([H])([H])[H])c([H])c([H])c2C1([H])[H]

$$$$
4:0:0
     RDKit          3D

 92100  0  0  1  0  0  0  0  0999 V2000
  -29.2030  -23.4500   20.8520 C   0  0  0  0  0  0  0  0  0  0  0  0
  -28.5490  -24.5180   21.3820 C   0  0  0  0  0  3  0  0  0  0  0  0
  -28.9490  -21.9750   21.1870 C   0  0  0  0  0  2  0  0  0  0  0  0
  -30.3170  -23.5210   19.8360 C   0  0  0  0  0  2  0  0  0  0  0  0
  -29.8570  -21.1170   20.2560 C   0  0  0  0  0  3  0  0  0  0  0  0
  -30.9570  -22.1190   19.8160 C   0  0  0  0  0  3  0  0  0  0  0  0
  -32.6840  -22.6160   18.0800 C   0  0  0  0  0  1  0  0  0  0  0  0
  -31.5500  -21.7700   18.5040 N   0  0  0  0  0  4  0  0  0  0  0  0
  -30.8400  -21.8050   17.7910 H   0  0  0  0  0  0  0  0  0  0  0  0
  -31.8810  -20.8200   18.5440 H   0  0  0  0  0  0  0  0  0  0  0  0
  -28.8990  -26.0130   21.2350 C   0  0  0  0  0  2  0  0  0  0  0  0
  -28.3900  -26.6520   20.0580 O   0  0  0  0  0  0  0  0  0  0  0  0
  -24.6120  -31.8870   23.2410 C   0  0  0  0  0  0  0  0  0  0  0  0
  -27.2490  -27.4200   20.1690 C   0  0  0  0  0  0  0  0  0  0  0  0
  -23.4060  -30.4800   21.6050 C   0  0  0  0  0  3  0  0  0  0  0  0
  -24.8600  -28.9370   20.1840 C   0  0  0  0  0  0  0  0  0  0  0  0
  -25.9320  -30.8340   21.4050 C   0  0  0  0  0  2  0  0  0  0  0  0
  -26.0190  -29.4560   20.7760 C   0  0  0  0  0  0  0  0  0  0  0  0
  -27.2210  -28.7020   20.7720 C   0  0  0  0  0  3  0  0  0  0  0  0
  -26.0770  -26.9250   19.5650 C   0  0  0  0  0  3  0  0  0  0  0  0
  -24.8830  -27.6710   19.5760 C   0  0  0  0  0  3  0  0  0  0  0  0
  -23.6140  -29.7960   20.2270 C   0  0  0  0  0  2  0  0  0  0  0  0
  -24.6680  -31.0840   22.1410 N   0  0  0  0  0  0  0  0  0  0  0  0
  -23.5310  -32.1580   23.7830 O   0  0  0  0  0  0  0  0  0  0  0  0
  -22.7580  -29.4600   22.5680 C   0  0  0  0  0  0  0  0  0  0  0  0
  -21.4320  -29.2760   22.4430 N   0  0  0  0  0  0  0  0  0  0  0  0
  -23.4440  -28.8370   23.3810 O   0  0  0  0  0  0  0  0  0  0  0  0
  -20.9400  -29.8330   21.7580 H   0  0  0  0  0  0  0  0  0  0  0  0
  -18.0600  -28.0810   22.9520 C   0  0  0  0  0  0  0  0  0  0  0  0
  -20.6180  -28.3370   23.2150 C   0  0  0  0  0  3  0  0  0  0  0  0
  -20.7180  -26.9060   22.6340 C   0  0  0  0  0  2  0  0  0  0  0  0
  -19.6110  -26.5860   21.6250 C   0  0  0  0  0  2  0  0  0  0  0  0
  -18.2320  -26.7330   22.2720 C   0  0  0  0  0  2  0  0  0  0  0  0
  -19.1810  -28.8410   23.3790 C   0  0  0  0  0  0  0  0  0  0  0  0
  -18.9650  -30.1040   23.9710 C   0  0  0  0  0  3  0  0  0  0  0  0
  -17.6620  -30.6070   24.1440 C   0  0  0  0  0  3  0  0  0  0  0  0
  -16.5560  -29.8430   23.7340 C   0  0  0  0  0  3  0  0  0  0  0  0
  -16.7550  -28.5820   23.1450 C   0  0  0  0  0  3  0  0  0  0  0  0
  -25.8990  -32.5210   23.8560 C   0  0  0  0  0  3  0  0  0  0  0  0
  -25.5910  -33.9190   24.1850 N   0  0  0  0  0  0  0  0  0  0  0  0
  -25.9210  -34.9710   23.4230 C   0  0  0  0  0  0  0  0  0  0  0  0
  -26.5880  -34.8660   22.3910 O   0  0  0  0  0  0  0  0  0  0  0  0
  -24.9990  -34.0740   24.9880 H   0  0  0  0  0  0  0  0  0  0  0  0
  -24.1930  -36.7630   23.0650 C   0  0  0  0  0  1  0  0  0  0  0  0
  -25.4320  -36.3590   23.8780 C   0  0  0  0  0  3  0  0  0  0  0  0
  -27.5640  -37.2460   24.7140 C   0  0  0  0  0  1  0  0  0  0  0  0
  -26.4660  -37.4110   23.7660 N   0  0  0  0  0  0  0  0  0  0  0  0
  -26.0590  -38.3320   23.9100 H   0  0  0  0  0  0  0  0  0  0  0  0
  -26.4240  -31.7510   25.1300 C   0  0  1  0  0  0  0  0  0  0  0  0
  -25.3380  -31.5210   26.2070 C   0  0  0  0  0  1  0  0  0  0  0  0
  -26.9980  -30.3700   24.7360 C   0  0  0  0  0  1  0  0  0  0  0  0
  -27.5840  -32.5430   25.7800 C   0  0  0  0  0  1  0  0  0  0  0  0
  -30.4850  -19.8040   20.8530 C   0  0  0  0  0  2  0  0  0  0  0  0
  -29.6770  -18.4690   20.7920 C   0  0  0  0  0  2  0  0  0  0  0  0
  -30.5890  -17.1910   20.7860 C   0  0  0  0  0  2  0  0  0  0  0  0
  -29.8850  -15.8040   20.9970 C   0  0  0  0  0  2  0  0  0  0  0  0
  -30.6440  -14.5510   20.4520 C   0  0  0  0  0  0  0  0  0  0  0  0
  -30.3790  -12.3660   19.3130 C   0  0  0  0  0  2  0  0  0  0  0  0
  -29.4470  -12.5620   18.0970 C   0  0  0  0  0  2  0  0  0  0  0  0
  -27.9690  -12.4210   18.5120 C   0  0  0  0  0  2  0  0  0  0  0  0
  -27.6200  -13.2620   19.7680 C   0  0  0  0  0  3  0  0  0  0  0  0
  -28.6680  -13.0630   20.8860 C   0  0  0  0  0  2  0  0  0  0  0  0
  -29.9940  -13.3580   20.3290 N   0  0  0  0  0  0  0  0  0  0  0  0
  -31.7890  -14.7030   20.0120 O   0  0  0  0  0  0  0  0  0  0  0  0
  -25.2180  -13.8810   20.4540 C   0  0  0  0  0  0  0  0  0  0  0  0
  -24.1470  -13.1130   20.8210 C   0  0  0  0  0  0  0  0  0  0  0  0
  -24.6070  -11.7600   20.8090 C   0  0  0  0  0  0  0  0  0  0  0  0
  -26.2640  -12.9940   20.2400 N   0  0  0  0  0  0  0  0  0  0  0  0
  -25.8990  -11.7150   20.5130 N   0  0  0  0  0  0  0  0  0  0  0  0
  -23.8770  -10.5010   21.0060 C   0  0  0  0  0  0  0  0  0  0  0  0
  -24.3020   -9.5410   21.9510 C   0  0  0  0  0  3  0  0  0  0  0  0
  -23.5710   -8.3460   22.1350 C   0  0  0  0  0  3  0  0  0  0  0  0
  -22.4030   -8.1040   21.3730 C   0  0  0  0  0  0  0  0  0  0  0  0
  -21.9990   -9.0520   20.4170 C   0  0  0  0  0  3  0  0  0  0  0  0
  -22.7290  -10.2380   20.2320 C   0  0  0  0  0  3  0  0  0  0  0  0
  -21.6470   -6.9600   21.4640 O   0  0  0  0  0  0  0  0  0  0  0  0
  -21.5920   -6.2240   22.6210 C   0  0  0  0  0  0  0  0  0  0  0  0
  -21.1560   -6.7860   23.8410 C   0  0  0  0  0  3  0  0  0  0  0  0
  -21.0500   -5.9760   24.9890 C   0  0  0  0  0  3  0  0  0  0  0  0
  -21.3680   -4.6060   24.9180 C   0  0  0  0  0  0  0  0  0  0  0  0
  -21.7970   -4.0450   23.7030 C   0  0  0  0  0  3  0  0  0  0  0  0
  -21.9060   -4.8510   22.5580 C   0  0  0  0  0  0  0  0  0  0  0  0
  -22.3000   -4.3020   21.3830 F   0  0  0  0  0  0  0  0  0  0  0  0
  -21.2580   -3.8270   26.0180 F   0  0  0  0  0  0  0  0  0  0  0  0
  -22.7470  -13.5940   21.0770 C   0  0  0  0  0  0  0  0  0  0  0  0
  -22.0130  -12.9050   21.9430 N   0  0  0  0  0  0  0  0  0  0  0  0
  -22.3150  -14.6160   20.5460 O   0  0  0  0  0  0  0  0  0  0  0  0
  -22.3750  -12.0750   22.3890 H   0  0  0  0  0  0  0  0  0  0  0  0
  -21.0750  -13.2090   22.1620 H   0  0  0  0  0  0  0  0  0  0  0  0
  -25.3880  -15.2490   20.2650 N   0  0  0  0  0  0  0  0  0  0  0  0
  -24.6270  -15.9110   20.3770 H   0  0  0  0  0  0  0  0  0  0  0  0
  -26.2450  -15.6830   19.9470 H   0  0  0  0  0  0  0  0  0  0  0  0
  1  3  1  0
  1  2  2  0
  4  1  1  0
  5 53  1  0
  5  3  1  0
  6  8  1  0
  6  4  1  0
  6  5  1  0
  7  8  1  0
  8 10  1  0
  9  8  1  0
 11  2  1  0
 12 14  1  0
 12 11  1  0
 13 24  2  0
 14 19  1  0
 15 23  1  0
 15 25  1  0
 16 22  1  0
 16 18  1  0
 17 23  1  0
 18 17  1  0
 19 18  2  0
 20 21  1  0
 20 14  2  0
 21 16  2  0
 22 15  1  0
 23 13  1  0
 25 27  2  0
 26 25  1  0
 28 26  1  0
 29 38  2  0
 29 34  1  0
 30 26  1  0
 30 34  1  0
 31 30  1  0
 32 33  1  0
 32 31  1  0
 33 29  1  0
 34 35  2  0
 35 36  1  0
 37 36  2  0
 38 37  1  0
 39 13  1  0
 39 40  1  0
 39 49  1  0
 40 43  1  0
 41 45  1  0
 41 40  1  0
 42 41  2  0
 45 44  1  0
 47 45  1  0
 47 48  1  0
 47 46  1  0
 49 52  1  1
 49 50  1  0
 51 49  1  0
 54 53  1  0
 55 54  1  0
 55 56  1  0
 57 56  1  0
 58 63  1  0
 59 60  1  0
 59 58  1  0
 61 60  1  0
 61 68  1  0
 61 62  1  0
 63 57  1  0
 63 62  1  0
 64 57  2  0
 65 66  2  0
 66 85  1  0
 67 66  1  0
 67 70  1  0
 68 65  1  0
 68 69  1  0
 69 67  2  0
 70 71  1  0
 71 72  2  0
 73 76  1  0
 73 72  1  0
 74 73  2  0
 75 74  1  0
 75 70  2  0
 76 77  1  0
 77 78  1  0
 78 79  2  0
 80 79  1  0
 80 84  1  0
 81 80  2  0
 82 77  2  0
 82 81  1  0
 83 82  1  0
 85 86  1  0
 86 89  1  0
 86 88  1  0
 87 85  2  0
 90 91  1  0
 90 65  1  0
 92 90  1  0
M  ISO  4  11 101  12 101  56 100  57 100
M  END
>  <TORSDO>  (5) 
F 22

>  <SCORE>  (5) 
-13.107

>  <name>  (5) 
4

>  <ligand_id>  (5) 
4

>  <original_smiles>  (5) 
[H]C(=C1C([H])([H])C([H])(C([H])([H])C([H])([H])C([H])([H])C([H])([H])C(=O)N2C([H])([H])C([H])([H])C([H])([H])C([H])(n3nc(-c4c([H])c([H])c(Oc5c([H])c([H])c(F)c([H])c5F)c([H])c4[H])c(C(=O)N([H])[H])c3N([H])[H])C2([H])[H])C([H])([N+]([H])([H])C([H])([H])[H])C1([H])[H])C([H])([H])Oc1c([H])c([H])c2c(c1[H])C([H])([H])N(C(=O)C([H])(N([H])C(=O)C([H])(N([H])C([H])([H])[H])C([H])([H])[H])C(C([H])([H])[H])(C([H])([H])[H])C([H])([H])[H])C([H])(C(=O)N([H])C1([H])c3c([H])c([H])c([H])c([H])c3C([H])([H])C([H])([H])C1([H])[H])C2([H])[H]

>  <smiles>  (5) 
[H]C(=C1C([H])([H])C([H])(C([H])([H])C([H])([H])C([H])([H])C([H])([H])C(=O)N2C([H])([H])C([H])([H])C([H])([H])C([H])(n3nc(-c4c([H])c([H])c(Oc5c([H])c([H])c(F)c([H])c5F)c([H])c4[H])c(C(=O)N([H])[H])c3N([H])[H])C2([H])[H])C([H])([N+]([H])([H])C([H])([H])[H])C1([H])[H])C([H])([H])Oc1c([H])c([H])c2c(c1[H])C([H])([H])N(C(=O)C([H])(N([H])C(=O)C([H])(N([H])C([H])([H])[H])C([H])([H])[H])C(C([H])([H])[H])(C([H])([H])[H])C([H])([H])[H])C([H])(C(=O)N([H])C1([H])c3c([H])c([H])c([H])c([H])c3C([H])([H])C([H])([H])C1([H])[H])C2([H])[H]

$$$$
5:0:0
     RDKit          3D

 96105  0  0  1  0  0  0  0  0999 V2000
  -29.3840  -22.3930   22.3230 C   0  0  0  0  0  1  0  0  0  0  0  0
  -30.1570  -22.3190   20.9920 C   0  0  0  0  0  3  0  0  0  0  0  0
  -30.9600  -23.5480   20.7650 N   0  0  0  0  0  4  0  0  0  0  0  0
  -31.2910  -23.8860   21.6530 H   0  0  0  0  0  0  0  0  0  0  0  0
  -31.7670  -23.3180   20.2040 H   0  0  0  0  0  0  0  0  0  0  0  0
  -30.2080  -24.6170   20.0550 C   0  0  0  0  0  2  0  0  0  0  0  0
  -30.7010  -26.0600   20.3350 C   0  0  0  0  0  2  0  0  0  0  0  0
  -29.6950  -27.1480   19.8750 C   0  0  0  0  0  2  0  0  0  0  0  0
  -28.4280  -26.7320   20.3580 O   0  0  0  0  0  0  0  0  0  0  0  0
  -24.5870  -31.9590   23.2810 C   0  0  0  0  0  0  0  0  0  0  0  0
  -27.3360  -27.5530   20.2690 C   0  0  0  0  0  0  0  0  0  0  0  0
  -23.4250  -30.5370   21.6230 C   0  0  0  0  0  3  0  0  0  0  0  0
  -24.9240  -29.0130   20.2330 C   0  0  0  0  0  0  0  0  0  0  0  0
  -25.9510  -30.9290   21.4680 C   0  0  0  0  0  2  0  0  0  0  0  0
  -26.0670  -29.5610   20.8300 C   0  0  0  0  0  0  0  0  0  0  0  0
  -27.2830  -28.8400   20.8440 C   0  0  0  0  0  3  0  0  0  0  0  0
  -26.1750  -27.0050   19.6890 C   0  0  0  0  0  3  0  0  0  0  0  0
  -24.9700  -27.7310   19.6570 C   0  0  0  0  0  3  0  0  0  0  0  0
  -23.6690  -29.8560   20.2510 C   0  0  0  0  0  2  0  0  0  0  0  0
  -24.6710  -31.1550   22.1840 N   0  0  0  0  0  0  0  0  0  0  0  0
  -23.4930  -32.2270   23.7970 O   0  0  0  0  0  0  0  0  0  0  0  0
  -22.7620  -29.5160   22.5760 C   0  0  0  0  0  0  0  0  0  0  0  0
  -21.4390  -29.3390   22.4350 N   0  0  0  0  0  0  0  0  0  0  0  0
  -23.4350  -28.8870   23.3970 O   0  0  0  0  0  0  0  0  0  0  0  0
  -20.9590  -29.8960   21.7430 H   0  0  0  0  0  0  0  0  0  0  0  0
  -18.0500  -28.1860   22.9220 C   0  0  0  0  0  0  0  0  0  0  0  0
  -20.6090  -28.4070   23.1980 C   0  0  0  0  0  3  0  0  0  0  0  0
  -20.6950  -26.9800   22.6090 C   0  0  0  0  0  2  0  0  0  0  0  0
  -19.5900  -26.6800   21.5930 C   0  0  0  0  0  2  0  0  0  0  0  0
  -18.2090  -26.8410   22.2350 C   0  0  0  0  0  2  0  0  0  0  0  0
  -19.1780  -28.9290   23.3600 C   0  0  0  0  0  0  0  0  0  0  0  0
  -18.9760  -30.1900   23.9600 C   0  0  0  0  0  3  0  0  0  0  0  0
  -17.6780  -30.7070   24.1300 C   0  0  0  0  0  3  0  0  0  0  0  0
  -16.5650  -29.9610   23.7090 C   0  0  0  0  0  3  0  0  0  0  0  0
  -16.7510  -28.7020   23.1090 C   0  0  0  0  0  3  0  0  0  0  0  0
  -25.8570  -32.6000   23.9240 C   0  0  0  0  0  3  0  0  0  0  0  0
  -25.5410  -34.0030   24.2210 N   0  0  0  0  0  0  0  0  0  0  0  0
  -25.8930  -35.0410   23.4510 C   0  0  0  0  0  0  0  0  0  0  0  0
  -26.5910  -34.9190   22.4380 O   0  0  0  0  0  0  0  0  0  0  0  0
  -24.9310  -34.1750   25.0060 H   0  0  0  0  0  0  0  0  0  0  0  0
  -24.1820  -36.8280   23.0020 C   0  0  0  0  0  1  0  0  0  0  0  0
  -25.3920  -36.4370   23.8660 C   0  0  0  0  0  3  0  0  0  0  0  0
  -27.4930  -37.3320   24.7630 C   0  0  0  0  0  1  0  0  0  0  0  0
  -26.4290  -37.4850   23.7750 N   0  0  0  0  0  0  0  0  0  0  0  0
  -26.0210  -38.4090   23.8910 H   0  0  0  0  0  0  0  0  0  0  0  0
  -26.3440  -31.8490   25.2230 C   0  0  1  0  0  0  0  0  0  0  0  0
  -25.2260  -31.6170   26.2650 C   0  0  0  0  0  1  0  0  0  0  0  0
  -26.9450  -30.4700   24.8580 C   0  0  0  0  0  1  0  0  0  0  0  0
  -27.4730  -32.6580   25.9040 C   0  0  0  0  0  1  0  0  0  0  0  0
  -30.9890  -21.0140   20.8730 C   0  0  0  0  0  2  0  0  0  0  0  0
  -29.5480  -16.0410   19.0220 C   0  0  0  0  0  2  0  0  0  0  0  0
  -28.8580  -17.3540   18.6970 C   0  0  0  0  0  2  0  0  0  0  0  0
  -30.6230  -17.1740   21.0860 C   0  0  0  0  0  2  0  0  0  0  0  0
  -29.3000  -19.8350   19.2870 C   0  0  0  0  0  2  0  0  0  0  0  0
  -29.8870  -15.8930   20.5270 C   0  0  0  0  0  3  0  0  0  0  0  0
  -30.7090  -18.4280   20.1520 C   0  0  0  0  0  3  0  0  0  0  0  0
  -30.1040  -19.7880   20.5910 C   0  0  0  0  0  3  0  0  0  0  0  0
  -29.8540  -18.4770   18.8630 C   0  0  1  0  0  0  0  0  0  0  0  0
  -30.6900  -14.5620   20.6710 C   0  0  0  0  0  0  0  0  0  0  0  0
  -30.4400  -12.3350   19.6870 C   0  0  0  0  0  2  0  0  0  0  0  0
  -29.5820  -12.5180   18.4170 C   0  0  0  0  0  2  0  0  0  0  0  0
  -28.0730  -12.4520   18.7520 C   0  0  0  0  0  2  0  0  0  0  0  0
  -27.6620  -13.2770   20.0050 C   0  0  0  0  0  3  0  0  0  0  0  0
  -28.6760  -13.1100   21.1590 C   0  0  0  0  0  2  0  0  0  0  0  0
  -30.0300  -13.3700   20.6480 N   0  0  0  0  0  0  0  0  0  0  0  0
  -31.9040  -14.6380   20.4780 O   0  0  0  0  0  0  0  0  0  0  0  0
  -25.2310  -13.8810   20.5590 C   0  0  0  0  0  0  0  0  0  0  0  0
  -24.1470  -13.1080   20.8750 C   0  0  0  0  0  0  0  0  0  0  0  0
  -24.6180  -11.7600   20.8990 C   0  0  0  0  0  0  0  0  0  0  0  0
  -26.2920  -12.9990   20.4130 N   0  0  0  0  0  0  0  0  0  0  0  0
  -25.9240  -11.7210   20.6720 N   0  0  0  0  0  0  0  0  0  0  0  0
  -23.8900  -10.4990   21.0710 C   0  0  0  0  0  0  0  0  0  0  0  0
  -24.2790   -9.5490   22.0390 C   0  0  0  0  0  3  0  0  0  0  0  0
  -23.5520   -8.3500   22.1990 C   0  0  0  0  0  3  0  0  0  0  0  0
  -22.4220   -8.0910   21.3890 C   0  0  0  0  0  0  0  0  0  0  0  0
  -22.0520   -9.0310   20.4090 C   0  0  0  0  0  3  0  0  0  0  0  0
  -22.7790  -10.2210   20.2500 C   0  0  0  0  0  3  0  0  0  0  0  0
  -21.6760   -6.9400   21.4530 O   0  0  0  0  0  0  0  0  0  0  0  0
  -21.5790   -6.2110   22.6110 C   0  0  0  0  0  0  0  0  0  0  0  0
  -21.0840   -6.7740   23.8060 C   0  0  0  0  0  3  0  0  0  0  0  0
  -20.9330   -5.9710   24.9540 C   0  0  0  0  0  3  0  0  0  0  0  0
  -21.2700   -4.6050   24.9080 C   0  0  0  0  0  0  0  0  0  0  0  0
  -21.7610   -4.0410   23.7160 C   0  0  0  0  0  3  0  0  0  0  0  0
  -21.9120   -4.8420   22.5700 C   0  0  0  0  0  0  0  0  0  0  0  0
  -22.3630   -4.2890   21.4180 F   0  0  0  0  0  0  0  0  0  0  0  0
  -21.1200   -3.8290   26.0070 F   0  0  0  0  0  0  0  0  0  0  0  0
  -22.7330  -13.5800   21.0540 C   0  0  0  0  0  0  0  0  0  0  0  0
  -21.9620  -12.8920   21.8860 N   0  0  0  0  0  0  0  0  0  0  0  0
  -22.3200  -14.5940   20.4900 O   0  0  0  0  0  0  0  0  0  0  0  0
  -22.3160  -12.0710   22.3560 H   0  0  0  0  0  0  0  0  0  0  0  0
  -21.0110  -13.1870   22.0560 H   0  0  0  0  0  0  0  0  0  0  0  0
  -25.3940  -15.2510   20.3670 N   0  0  0  0  0  0  0  0  0  0  0  0
  -24.6150  -15.8960   20.4220 H   0  0  0  0  0  0  0  0  0  0  0  0
  -26.2570  -15.6980   20.0820 H   0  0  0  0  0  0  0  0  0  0  0  0
  -30.4900  -19.2950   16.5230 C   0  0  0  0  0  2  0  0  0  0  0  0
  -30.7320  -18.5520   17.6130 C   0  0  0  0  0  3  0  0  0  0  0  0
  2  1  1  0
  3  2  1  0
  3  4  1  0
  5  3  1  0
  6  7  1  0
  6  3  1  0
  8  7  1  0
  8  9  1  0
 10 21  2  0
 11  9  1  0
 11 16  1  0
 12 20  1  0
 12 22  1  0
 13 19  1  0
 13 15  1  0
 14 20  1  0
 15 16  2  0
 15 14  1  0
 17 11  2  0
 18 17  1  0
 18 13  2  0
 19 12  1  0
 20 10  1  0
 22 24  2  0
 23 22  1  0
 25 23  1  0
 26 35  2  0
 26 31  1  0
 27 23  1  0
 27 31  1  0
 28 27  1  0
 29 30  1  0
 29 28  1  0
 30 26  1  0
 31 32  2  0
 32 33  1  0
 34 33  2  0
 35 34  1  0
 36 10  1  0
 36 37  1  0
 36 46  1  0
 37 40  1  0
 38 42  1  0
 38 37  1  0
 39 38  2  0
 42 41  1  0
 44 42  1  0
 44 45  1  0
 44 43  1  0
 46 49  1  1
 46 47  1  0
 48 46  1  0
 50  2  1  0
 51 55  1  0
 52 58  1  0
 52 51  1  0
 54 57  1  0
 55 59  1  0
 55 53  1  0
 56 57  1  0
 56 53  1  0
 57 50  1  0
 58 96  1  6
 58 54  1  0
 58 56  1  0
 60 65  1  0
 61 62  1  0
 61 60  1  0
 63 62  1  0
 63 70  1  0
 63 64  1  0
 65 59  1  0
 65 64  1  0
 66 59  2  0
 67 68  2  0
 68 69  1  0
 68 87  1  0
 69 72  1  0
 70 67  1  0
 70 71  1  0
 71 69  2  0
 72 73  1  0
 73 74  2  0
 75 78  1  0
 75 74  1  0
 76 75  2  0
 77 76  1  0
 77 72  2  0
 78 79  1  0
 79 80  1  0
 80 81  2  0
 82 81  1  0
 82 86  1  0
 83 82  2  0
 84 79  2  0
 84 83  1  0
 85 84  1  0
 87 88  1  0
 88 91  1  0
 88 90  1  0
 89 87  2  0
 92 93  1  0
 92 67  1  0
 94 92  1  0
 95 96  2  0
M  ISO  4   8 101   9 101  55 100  59 100
M  END
>  <TORSDO>  (6) 
F 23

>  <SCORE>  (6) 
-13.007

>  <name>  (6) 
5

>  <ligand_id>  (6) 
5

>  <original_smiles>  (6) 
[H]C([H])=C([H])C12C([H])([H])C([H])([H])C([H])(C(=O)N3C([H])([H])C([H])([H])C([H])([H])C([H])(n4nc(-c5c([H])c([H])c(Oc6c([H])c([H])c(F)c([H])c6F)c([H])c5[H])c(C(=O)N([H])[H])c4N([H])[H])C3([H])[H])C([H])([H])C1([H])C([H])(C([H])([H])C([H])(C([H])([H])[H])[N+]([H])([H])C([H])([H])C([H])([H])C([H])([H])Oc1c([H])c([H])c3c(c1[H])C([H])([H])N(C(=O)C([H])(N([H])C(=O)C([H])(N([H])C([H])([H])[H])C([H])([H])[H])C(C([H])([H])[H])(C([H])([H])[H])C([H])([H])[H])C([H])(C(=O)N([H])C1([H])c4c([H])c([H])c([H])c([H])c4C([H])([H])C([H])([H])C1([H])[H])C3([H])[H])C2([H])[H]

>  <smiles>  (6) 
[H]C([H])=C([H])C12C([H])([H])C([H])([H])C([H])(C(=O)N3C([H])([H])C([H])([H])C([H])([H])C([H])(n4nc(-c5c([H])c([H])c(Oc6c([H])c([H])c(F)c([H])c6F)c([H])c5[H])c(C(=O)N([H])[H])c4N([H])[H])C3([H])[H])C([H])([H])C1([H])C([H])(C([H])([H])C([H])(C([H])([H])[H])[N+]([H])([H])C([H])([H])C([H])([H])C([H])([H])Oc1c([H])c([H])c3c(c1[H])C([H])([H])N(C(=O)C([H])(N([H])C(=O)C([H])(N([H])C([H])([H])[H])C([H])([H])[H])C(C([H])([H])[H])(C([H])([H])[H])C([H])([H])[H])C([H])(C(=O)N([H])C1([H])c4c([H])c([H])c([H])c([H])c4C([H])([H])C([H])([H])C1([H])[H])C3([H])[H])C2([H])[H]

$$$$
6:0:0
     RDKit          3D

 99107  0  0  1  0  0  0  0  0999 V2000
  -28.9270  -21.2170   18.5550 C   0  0  0  0  0  3  0  0  0  0  0  0
  -29.3810  -20.2540   19.5770 N   0  0  0  0  0  4  0  0  0  0  0  0
  -30.3590  -20.3930   19.7740 H   0  0  0  0  0  0  0  0  0  0  0  0
  -28.8740  -20.4670   20.4190 H   0  0  0  0  0  0  0  0  0  0  0  0
  -29.1350  -18.8310   19.2690 C   0  0  0  0  0  2  0  0  0  0  0  0
  -29.4160  -17.9370   20.4890 C   0  0  0  0  0  2  0  0  0  0  0  0
  -29.6670  -16.4820   20.0670 C   0  0  0  0  0  2  0  0  0  0  0  0
  -30.1900  -15.5580   21.1890 C   0  0  0  0  0  2  0  0  0  0  0  0
  -30.8420  -14.3120   20.5620 C   0  0  0  0  0  0  0  0  0  0  0  0
  -30.4810  -12.2160   19.3300 C   0  0  0  0  0  2  0  0  0  0  0  0
  -29.5620  -12.5270   18.1300 C   0  0  0  0  0  2  0  0  0  0  0  0
  -28.0730  -12.4400   18.5340 C   0  0  0  0  0  2  0  0  0  0  0  0
  -27.7590  -13.2100   19.8450 C   0  0  0  0  0  3  0  0  0  0  0  0
  -28.8010  -12.8890   20.9410 C   0  0  0  0  0  2  0  0  0  0  0  0
  -30.1390  -13.1630   20.3980 N   0  0  0  0  0  0  0  0  0  0  0  0
  -31.9680  -14.4720   20.0790 O   0  0  0  0  0  0  0  0  0  0  0  0
  -25.3830  -13.8710   20.5790 C   0  0  0  0  0  0  0  0  0  0  0  0
  -24.2870  -13.1200   20.9060 C   0  0  0  0  0  0  0  0  0  0  0  0
  -24.6970  -11.7560   20.8060 C   0  0  0  0  0  0  0  0  0  0  0  0
  -26.3950  -12.9620   20.3060 N   0  0  0  0  0  0  0  0  0  0  0  0
  -25.9860  -11.6830   20.4970 N   0  0  0  0  0  0  0  0  0  0  0  0
  -23.9250  -10.5160   20.9360 C   0  0  0  0  0  0  0  0  0  0  0  0
  -24.3490   -9.4700   21.7860 C   0  0  0  0  0  3  0  0  0  0  0  0
  -23.5810   -8.2920   21.9050 C   0  0  0  0  0  3  0  0  0  0  0  0
  -22.3780   -8.1520   21.1740 C   0  0  0  0  0  0  0  0  0  0  0  0
  -21.9740   -9.1870   20.3140 C   0  0  0  0  0  3  0  0  0  0  0  0
  -22.7410  -10.3580   20.1910 C   0  0  0  0  0  3  0  0  0  0  0  0
  -21.5780   -7.0350   21.2110 O   0  0  0  0  0  0  0  0  0  0  0  0
  -21.5580   -6.1980   22.2990 C   0  0  0  0  0  0  0  0  0  0  0  0
  -21.2340   -6.6650   23.5920 C   0  0  0  0  0  3  0  0  0  0  0  0
  -21.1570   -5.7600   24.6680 C   0  0  0  0  0  3  0  0  0  0  0  0
  -21.3940   -4.3890   24.4520 C   0  0  0  0  0  0  0  0  0  0  0  0
  -21.7120   -3.9210   23.1650 C   0  0  0  0  0  3  0  0  0  0  0  0
  -21.7930   -4.8240   22.0910 C   0  0  0  0  0  0  0  0  0  0  0  0
  -22.0770   -4.3670   20.8470 F   0  0  0  0  0  0  0  0  0  0  0  0
  -21.3170   -3.5160   25.4830 F   0  0  0  0  0  0  0  0  0  0  0  0
  -22.9070  -13.6330   21.2070 C   0  0  0  0  0  0  0  0  0  0  0  0
  -22.1620  -12.9240   22.0470 N   0  0  0  0  0  0  0  0  0  0  0  0
  -22.5010  -14.6930   20.7350 O   0  0  0  0  0  0  0  0  0  0  0  0
  -22.5070  -12.0630   22.4470 H   0  0  0  0  0  0  0  0  0  0  0  0
  -21.2360  -13.2440   22.2980 H   0  0  0  0  0  0  0  0  0  0  0  0
  -25.5980  -15.2420   20.4720 N   0  0  0  0  0  0  0  0  0  0  0  0
  -24.8600  -15.9210   20.6150 H   0  0  0  0  0  0  0  0  0  0  0  0
  -26.4740  -15.6620   20.1890 H   0  0  0  0  0  0  0  0  0  0  0  0
  -29.7900  -21.2470   17.2650 C   0  0  0  0  0  2  0  0  0  0  0  0
  -28.7030  -19.2300   16.0420 C   0  0  0  0  0  2  0  0  0  0  0  0
  -28.9700  -18.7830   14.6060 C   0  0  0  0  0  2  0  0  0  0  0  0
  -30.9050  -20.0300   15.3030 C   0  0  0  0  0  2  0  0  0  0  0  0
  -30.0070  -19.8920   16.5490 C   0  0  0  0  0  3  0  0  0  0  0  0
  -29.9800  -19.8090   14.0940 C   0  0  0  0  0  3  0  0  0  0  0  0
  -30.6920  -19.3730   12.8820 N   0  0  0  0  0  4  0  0  0  0  0  0
  -31.1810  -18.5100   13.0360 H   0  0  0  0  0  0  0  0  0  0  0  0
  -31.3550  -20.0710   12.5950 H   0  0  0  0  0  0  0  0  0  0  0  0
  -30.0400  -19.2390   12.1280 H   0  0  0  0  0  0  0  0  0  0  0  0
  -28.7730  -22.6080   19.1850 C   0  0  0  0  0  2  0  0  0  0  0  0
  -30.0700  -23.3920   19.5080 C   0  0  0  0  0  2  0  0  0  0  0  0
  -29.8010  -24.6860   20.3070 C   0  0  0  0  0  2  0  0  0  0  0  0
  -28.5490  -25.4170   19.8120 C   0  0  0  0  0  2  0  0  0  0  0  0
  -28.4760  -26.7340   20.2990 O   0  0  0  0  0  0  0  0  0  0  0  0
  -24.5320  -31.7810   23.2340 C   0  0  0  0  0  0  0  0  0  0  0  0
  -27.2550  -27.3650   20.2410 C   0  0  0  0  0  0  0  0  0  0  0  0
  -23.3520  -30.3680   21.5830 C   0  0  0  0  0  3  0  0  0  0  0  0
  -24.8310  -28.8150   20.2030 C   0  0  0  0  0  0  0  0  0  0  0  0
  -25.8730  -30.7350   21.4230 C   0  0  0  0  0  2  0  0  0  0  0  0
  -25.9720  -29.3620   20.8020 C   0  0  0  0  0  0  0  0  0  0  0  0
  -27.1790  -28.6420   20.8230 C   0  0  0  0  0  3  0  0  0  0  0  0
  -26.0920  -26.8170   19.6360 C   0  0  0  0  0  3  0  0  0  0  0  0
  -24.8830  -27.5380   19.6200 C   0  0  0  0  0  3  0  0  0  0  0  0
  -23.5820  -29.6640   20.2160 C   0  0  0  0  0  2  0  0  0  0  0  0
  -24.6030  -30.9760   22.1380 N   0  0  0  0  0  0  0  0  0  0  0  0
  -23.4450  -32.0570   23.7570 O   0  0  0  0  0  0  0  0  0  0  0  0
  -22.6850  -29.3570   22.5420 C   0  0  0  0  0  0  0  0  0  0  0  0
  -21.3600  -29.1970   22.4080 N   0  0  0  0  0  0  0  0  0  0  0  0
  -23.3560  -28.7130   23.3520 O   0  0  0  0  0  0  0  0  0  0  0  0
  -20.8830  -29.7650   21.7250 H   0  0  0  0  0  0  0  0  0  0  0  0
  -17.9590  -28.0830   22.9120 C   0  0  0  0  0  0  0  0  0  0  0  0
  -20.5230  -28.2730   23.1720 C   0  0  0  0  0  3  0  0  0  0  0  0
  -20.5850  -26.8450   22.5830 C   0  0  0  0  0  2  0  0  0  0  0  0
  -19.4700  -26.5590   21.5710 C   0  0  0  0  0  2  0  0  0  0  0  0
  -18.0960  -26.7350   22.2220 C   0  0  0  0  0  2  0  0  0  0  0  0
  -19.1000  -28.8120   23.3420 C   0  0  0  0  0  0  0  0  0  0  0  0
  -18.9180  -30.0770   23.9420 C   0  0  0  0  0  3  0  0  0  0  0  0
  -17.6300  -30.6110   24.1200 C   0  0  0  0  0  3  0  0  0  0  0  0
  -16.5030  -29.8820   23.7050 C   0  0  0  0  0  3  0  0  0  0  0  0
  -16.6690  -28.6180   23.1070 C   0  0  0  0  0  3  0  0  0  0  0  0
  -25.8120  -32.4090   23.8680 C   0  0  0  0  0  3  0  0  0  0  0  0
  -25.5090  -33.8140   24.1760 N   0  0  0  0  0  0  0  0  0  0  0  0
  -25.8800  -34.8540   23.4190 C   0  0  0  0  0  0  0  0  0  0  0  0
  -26.5870  -34.7330   22.4150 O   0  0  0  0  0  0  0  0  0  0  0  0
  -24.8930  -33.9820   24.9580 H   0  0  0  0  0  0  0  0  0  0  0  0
  -24.1800  -36.6540   22.9810 C   0  0  0  0  0  1  0  0  0  0  0  0
  -25.3890  -36.2530   23.8410 C   0  0  0  0  0  3  0  0  0  0  0  0
  -27.5060  -37.1260   24.7280 C   0  0  0  0  0  1  0  0  0  0  0  0
  -26.4360  -37.2950   23.7490 N   0  0  0  0  0  0  0  0  0  0  0  0
  -26.0360  -38.2210   23.8730 H   0  0  0  0  0  0  0  0  0  0  0  0
  -26.3070  -31.6480   25.1610 C   0  0  1  0  0  0  0  0  0  0  0  0
  -25.1990  -31.4270   26.2160 C   0  0  0  0  0  1  0  0  0  0  0  0
  -26.8920  -30.2640   24.7900 C   0  0  0  0  0  1  0  0  0  0  0  0
  -27.4520  -32.4480   25.8280 C   0  0  0  0  0  1  0  0  0  0  0  0
  1 45  1  0
  1 55  1  0
  1  2  1  0
  2  3  1  0
  2  4  1  0
  5  2  1  0
  5  6  1  0
  7  6  1  0
  7  8  1  0
  9  8  1  0
 10 15  1  0
 11 12  1  0
 11 10  1  0
 13 12  1  0
 13 20  1  0
 13 14  1  0
 15  9  1  0
 15 14  1  0
 16  9  2  0
 17 18  2  0
 18 37  1  0
 19 18  1  0
 19 22  1  0
 20 21  1  0
 20 17  1  0
 21 19  2  0
 22 23  1  0
 23 24  2  0
 25 28  1  0
 25 24  1  0
 26 25  2  0
 27 26  1  0
 27 22  2  0
 28 29  1  0
 29 30  1  0
 30 31  2  0
 32 31  1  0
 32 36  1  0
 33 32  2  0
 34 29  2  0
 34 33  1  0
 35 34  1  0
 37 38  1  0
 38 41  1  0
 38 40  1  0
 39 37  2  0
 42 17  1  0
 42 43  1  0
 44 42  1  0
 46 49  1  0
 47 46  1  0
 48 49  1  0
 49 45  1  0
 50 51  1  0
 50 47  1  0
 50 48  1  0
 51 52  1  0
 53 51  1  0
 54 51  1  0
 55 56  1  0
 56 57  1  0
 58 59  1  0
 58 57  1  0
 60 71  2  0
 61 59  1  0
 61 66  1  0
 62 70  1  0
 62 72  1  0
 63 69  1  0
 63 65  1  0
 64 70  1  0
 65 66  2  0
 65 64  1  0
 67 61  2  0
 68 67  1  0
 68 63  2  0
 69 62  1  0
 70 60  1  0
 72 74  2  0
 73 72  1  0
 75 73  1  0
 76 85  2  0
 76 81  1  0
 77 73  1  0
 77 81  1  0
 78 77  1  0
 79 80  1  0
 79 78  1  0
 80 76  1  0
 81 82  2  0
 82 83  1  0
 84 83  2  0
 85 84  1  0
 86 60  1  0
 86 87  1  0
 86 96  1  0
 87 90  1  0
 88 92  1  0
 88 87  1  0
 89 88  2  0
 92 91  1  0
 94 92  1  0
 94 95  1  0
 94 93  1  0
 96 99  1  1
 96 97  1  0
 98 96  1  0
M  ISO  4   8 100   9 100  58 101  59 101
M  END
>  <TORSDO>  (7) 
F 28

>  <SCORE>  (7) 
-11.461

>  <name>  (7) 
6

>  <ligand_id>  (7) 
6

>  <original_smiles>  (7) 
[H]c1c([H])c([H])c2c(c1[H])C([H])([H])C([H])([H])C([H])([H])C2([H])N([H])C(=O)C1([H])N(C(=O)C([H])(N([H])C(=O)C([H])(N([H])C([H])([H])[H])C([H])([H])[H])C(C([H])([H])[H])(C([H])([H])[H])C([H])([H])[H])C([H])([H])c2c([H])c(OC([H])([H])C([H])([H])C([H])([H])C([H])([H])C([H])(C([H])([H])C3([H])C([H])([H])C([H])([H])C([H])([N+]([H])([H])[H])C3([H])[H])[N+]([H])([H])C([H])([H])C([H])([H])C([H])([H])C([H])([H])C(=O)N3C([H])([H])C([H])([H])C([H])([H])C([H])(n4nc(-c5c([H])c([H])c(Oc6c([H])c([H])c(F)c([H])c6F)c([H])c5[H])c(C(=O)N([H])[H])c4N([H])[H])C3([H])[H])c([H])c([H])c2C1([H])[H]

>  <smiles>  (7) 
[H]c1c([H])c([H])c2c(c1[H])C([H])([H])C([H])([H])C([H])([H])C2([H])N([H])C(=O)C1([H])N(C(=O)C([H])(N([H])C(=O)C([H])(N([H])C([H])([H])[H])C([H])([H])[H])C(C([H])([H])[H])(C([H])([H])[H])C([H])([H])[H])C([H])([H])c2c([H])c(OC([H])([H])C([H])([H])C([H])([H])C([H])([H])C([H])(C([H])([H])C3([H])C([H])([H])C([H])([H])C([H])([N+]([H])([H])[H])C3([H])[H])[N+]([H])([H])C([H])([H])C([H])([H])C([H])([H])C([H])([H])C(=O)N3C([H])([H])C([H])([H])C([H])([H])C([H])(n4nc(-c5c([H])c([H])c(Oc6c([H])c([H])c(F)c([H])c6F)c([H])c5[H])c(C(=O)N([H])[H])c4N([H])[H])C3([H])[H])c([H])c([H])c2C1([H])[H]

$$$$
7:0:0
     RDKit          3D

 97105  0  0  1  0  0  0  0  0999 V2000
  -27.9520  -21.5600   21.5600 C   0  0  0  0  0  2  0  0  0  0  0  0
  -28.0470  -24.0690   21.6820 C   0  0  0  0  0  2  0  0  0  0  0  0
  -30.0940  -22.8320   22.0140 C   0  0  0  0  0  2  0  0  0  0  0  0
  -27.3610  -22.8630   21.0190 C   0  0  0  0  0  3  0  0  0  0  0  0
  -29.4800  -21.5610   21.3330 C   0  0  0  0  0  3  0  0  0  0  0  0
  -25.8380  -22.9040   21.1970 C   0  0  0  0  0  1  0  0  0  0  0  0
  -29.4960  -24.0600   21.4360 N   0  0  0  0  0  0  0  0  0  0  0  0
  -30.1330  -20.2570   21.6970 N   0  0  0  0  0  4  0  0  0  0  0  0
  -29.8450  -20.0040   22.6290 H   0  0  0  0  0  0  0  0  0  0  0  0
  -31.1270  -20.4210   21.7390 H   0  0  0  0  0  0  0  0  0  0  0  0
  -29.8950  -19.0840   20.7800 C   0  0  0  0  0  3  0  0  0  0  0  0
  -29.9270  -19.5020   19.2710 C   0  0  0  0  0  2  0  0  0  0  0  0
  -31.0790  -20.4160   18.7940 C   0  0  0  0  0  2  0  0  0  0  0  0
  -32.2570  -21.4120   16.7530 C   0  0  0  0  0  1  0  0  0  0  0  0
  -31.0650  -20.5980   17.2660 C   0  0  0  0  0  2  0  0  0  0  0  0
  -30.6970  -17.7720   21.1770 C   0  0  0  0  0  2  0  0  0  0  0  0
  -30.7010  -16.9100   18.7920 C   0  0  0  0  0  1  0  0  0  0  0  0
  -30.4540  -16.5060   20.2710 C   0  0  0  0  0  3  0  0  0  0  0  0
  -31.2810  -15.1930   20.5090 C   0  0  0  0  0  0  0  0  0  0  0  0
  -31.0240  -13.0480   19.3360 C   0  0  0  0  0  2  0  0  0  0  0  0
  -30.1270  -13.2630   18.0890 C   0  0  0  0  0  2  0  0  0  0  0  0
  -28.6280  -13.2050   18.4410 C   0  0  0  0  0  2  0  0  0  0  0  0
  -28.2600  -13.9880   19.7270 C   0  0  0  0  0  3  0  0  0  0  0  0
  -29.2690  -13.7160   20.8660 C   0  0  0  0  0  2  0  0  0  0  0  0
  -30.6260  -14.0020   20.3820 N   0  0  0  0  0  0  0  0  0  0  0  0
  -32.5040  -15.2810   20.3940 O   0  0  0  0  0  0  0  0  0  0  0  0
  -25.8350  -14.6280   20.2930 C   0  0  0  0  0  0  0  0  0  0  0  0
  -24.7440  -13.8660   20.6190 C   0  0  0  0  0  0  0  0  0  0  0  0
  -25.2060  -12.5170   20.6560 C   0  0  0  0  0  0  0  0  0  0  0  0
  -26.8880  -13.7360   20.1470 N   0  0  0  0  0  0  0  0  0  0  0  0
  -26.5120  -12.4660   20.4350 N   0  0  0  0  0  0  0  0  0  0  0  0
  -24.4720  -11.2600   20.8350 C   0  0  0  0  0  0  0  0  0  0  0  0
  -24.8620  -10.3100   21.8040 C   0  0  0  0  0  3  0  0  0  0  0  0
  -24.1320   -9.1130   21.9660 C   0  0  0  0  0  3  0  0  0  0  0  0
  -22.9970   -8.8610   21.1600 C   0  0  0  0  0  0  0  0  0  0  0  0
  -22.6270   -9.8000   20.1820 C   0  0  0  0  0  3  0  0  0  0  0  0
  -23.3580  -10.9880   20.0170 C   0  0  0  0  0  3  0  0  0  0  0  0
  -22.2370   -7.7200   21.2340 O   0  0  0  0  0  0  0  0  0  0  0  0
  -22.0930   -7.0260   22.4090 C   0  0  0  0  0  0  0  0  0  0  0  0
  -21.5920   -7.6390   23.5790 C   0  0  0  0  0  3  0  0  0  0  0  0
  -21.3980   -6.8720   24.7450 C   0  0  0  0  0  3  0  0  0  0  0  0
  -21.6900   -5.4950   24.7410 C   0  0  0  0  0  0  0  0  0  0  0  0
  -22.1810   -4.8820   23.5740 C   0  0  0  0  0  3  0  0  0  0  0  0
  -22.3790   -5.6460   22.4100 C   0  0  0  0  0  0  0  0  0  0  0  0
  -22.8340   -5.0480   21.2830 F   0  0  0  0  0  0  0  0  0  0  0  0
  -21.4950   -4.7560   25.8590 F   0  0  0  0  0  0  0  0  0  0  0  0
  -23.3330  -14.3500   20.7870 C   0  0  0  0  0  0  0  0  0  0  0  0
  -22.5640  -13.7030   21.6580 N   0  0  0  0  0  0  0  0  0  0  0  0
  -22.9200  -15.3360   20.1820 O   0  0  0  0  0  0  0  0  0  0  0  0
  -22.9120  -12.9080   22.1720 H   0  0  0  0  0  0  0  0  0  0  0  0
  -21.6140  -14.0100   21.8130 H   0  0  0  0  0  0  0  0  0  0  0  0
  -26.0110  -15.9890   20.0820 N   0  0  0  0  0  0  0  0  0  0  0  0
  -25.2270  -16.6300   20.1040 H   0  0  0  0  0  0  0  0  0  0  0  0
  -26.8610  -16.4070   19.7280 H   0  0  0  0  0  0  0  0  0  0  0  0
  -30.0360  -25.3310   21.9610 C   0  0  0  0  0  2  0  0  0  0  0  0
  -30.8970  -26.1490   20.9670 C   0  0  0  0  0  2  0  0  0  0  0  0
  -30.6100  -27.5630   21.0610 O   0  0  0  0  0  0  0  0  0  0  0  0
  -25.4280  -31.7190   23.6610 C   0  0  0  0  0  0  0  0  0  0  0  0
  -29.3120  -28.0250   20.8970 C   0  0  0  0  0  0  0  0  0  0  0  0
  -24.7660  -30.2020   21.8230 C   0  0  0  0  0  3  0  0  0  0  0  0
  -26.6820  -29.0500   20.5960 C   0  0  0  0  0  0  0  0  0  0  0  0
  -27.1730  -31.0500   22.0070 C   0  0  0  0  0  2  0  0  0  0  0  0
  -27.6200  -29.7530   21.3570 C   0  0  0  0  0  0  0  0  0  0  0  0
  -28.9370  -29.2500   21.5020 C   0  0  0  0  0  3  0  0  0  0  0  0
  -28.3450  -27.3340   20.1270 C   0  0  0  0  0  3  0  0  0  0  0  0
  -27.0410  -27.8400   19.9790 C   0  0  0  0  0  3  0  0  0  0  0  0
  -25.3000  -29.6530   20.4740 C   0  0  0  0  0  2  0  0  0  0  0  0
  -25.7960  -31.0040   22.5600 N   0  0  0  0  0  0  0  0  0  0  0  0
  -24.2490  -31.7490   24.0410 O   0  0  0  0  0  0  0  0  0  0  0  0
  -24.2040  -29.0230   22.6500 C   0  0  0  0  0  0  0  0  0  0  0  0
  -22.9820  -28.5830   22.3130 N   0  0  0  0  0  0  0  0  0  0  0  0
  -24.8700  -28.5140   23.5560 O   0  0  0  0  0  0  0  0  0  0  0  0
  -22.4960  -29.0590   21.5660 H   0  0  0  0  0  0  0  0  0  0  0  0
  -19.8890  -26.7170   22.2570 C   0  0  0  0  0  0  0  0  0  0  0  0
  -22.2710  -27.4630   22.9290 C   0  0  0  0  0  3  0  0  0  0  0  0
  -22.7470  -26.1130   22.3460 C   0  0  0  0  0  2  0  0  0  0  0  0
  -21.8970  -25.6320   21.1670 C   0  0  0  0  0  2  0  0  0  0  0  0
  -20.4350  -25.4660   21.5910 C   0  0  0  0  0  2  0  0  0  0  0  0
  -20.7520  -27.6620   22.8730 C   0  0  0  0  0  0  0  0  0  0  0  0
  -20.1950  -28.8260   23.4460 C   0  0  0  0  0  3  0  0  0  0  0  0
  -18.8050  -29.0490   23.4160 C   0  0  0  0  0  3  0  0  0  0  0  0
  -17.9540  -28.1030   22.8180 C   0  0  0  0  0  3  0  0  0  0  0  0
  -18.4960  -26.9390   22.2440 C   0  0  0  0  0  3  0  0  0  0  0  0
  -26.4640  -32.5540   24.4770 C   0  0  0  0  0  3  0  0  0  0  0  0
  -26.7520  -31.9550   25.9090 C   0  0  1  0  0  0  0  0  0  0  0  0
  -25.4760  -31.6480   26.7250 C   0  0  0  0  0  1  0  0  0  0  0  0
  -27.5630  -30.6420   25.7940 C   0  0  0  0  0  1  0  0  0  0  0  0
  -27.6180  -32.9400   26.7260 C   0  0  0  0  0  1  0  0  0  0  0  0
  -25.9480  -33.9240   24.5810 N   0  0  0  0  0  0  0  0  0  0  0  0
  -26.3250  -34.9380   23.7890 C   0  0  0  0  0  0  0  0  0  0  0  0
  -27.2080  -34.8290   22.9350 O   0  0  0  0  0  0  0  0  0  0  0  0
  -25.1820  -34.0750   25.2210 H   0  0  0  0  0  0  0  0  0  0  0  0
  -24.5240  -36.4480   22.8990 C   0  0  0  0  0  1  0  0  0  0  0  0
  -25.6060  -36.2870   23.9760 C   0  0  0  0  0  3  0  0  0  0  0  0
  -27.4210  -37.5100   25.0900 C   0  0  0  0  0  1  0  0  0  0  0  0
  -26.5180  -37.4510   23.9430 N   0  0  0  0  0  0  0  0  0  0  0  0
  -25.9930  -38.3200   23.9090 H   0  0  0  0  0  0  0  0  0  0  0  0
  4  6  1  0
  4  1  1  0
  4  2  1  0
  5  1  1  0
  5  8  1  0
  5  3  1  0
  7  2  1  0
  7 55  1  0
  7  3  1  0
  8 10  1  0
  8  9  1  0
 11 12  1  0
 11 16  1  0
 11  8  1  0
 13 12  1  0
 14 15  1  0
 15 13  1  0
 18 17  1  0
 18 19  1  0
 18 16  1  0
 20 25  1  0
 21 22  1  0
 21 20  1  0
 23 22  1  0
 23 30  1  0
 23 24  1  0
 25 19  1  0
 25 24  1  0
 26 19  2  0
 27 28  2  0
 28 29  1  0
 28 47  1  0
 29 32  1  0
 30 27  1  0
 30 31  1  0
 31 29  2  0
 32 33  1  0
 33 34  2  0
 35 38  1  0
 35 34  1  0
 36 35  2  0
 37 36  1  0
 37 32  2  0
 38 39  1  0
 39 44  2  0
 39 40  1  0
 40 41  2  0
 42 41  1  0
 42 46  1  0
 43 42  2  0
 44 43  1  0
 45 44  1  0
 47 48  1  0
 48 51  1  0
 48 50  1  0
 49 47  2  0
 52 53  1  0
 52 27  1  0
 54 52  1  0
 56 57  1  0
 56 55  1  0
 58 69  2  0
 59 57  1  0
 59 64  1  0
 60 68  1  0
 60 70  1  0
 61 63  1  0
 62 68  1  0
 63 64  2  0
 63 62  1  0
 65 59  2  0
 66 65  1  0
 66 61  2  0
 67 61  1  0
 67 60  1  0
 68 58  1  0
 70 72  2  0
 71 70  1  0
 73 71  1  0
 74 79  1  0
 75 71  1  0
 76 75  1  0
 77 78  1  0
 77 76  1  0
 78 74  1  0
 79 75  1  0
 79 80  2  0
 81 80  1  0
 82 81  2  0
 83 74  2  0
 83 82  1  0
 84 58  1  0
 84 89  1  0
 84 85  1  0
 85 86  1  1
 85 88  1  0
 87 85  1  0
 89 92  1  0
 90 94  1  0
 90 89  1  0
 91 90  2  0
 94 93  1  0
 96 94  1  0
 96 95  1  0
 97 96  1  0
M  ISO  4  18 100  19 100  56 101  57 101
M  END
>  <TORSDO>  (8) 
F 25

>  <SCORE>  (8) 
-9.098

>  <name>  (8) 
7

>  <ligand_id>  (8) 
7

>  <original_smiles>  (8) 
[H]c1c([H])c([H])c2c(c1[H])C([H])([H])C([H])([H])C([H])([H])C2([H])N([H])C(=O)C1([H])N(C(=O)C([H])(N([H])C(=O)C([H])(N([H])C([H])([H])[H])C([H])([H])[H])C(C([H])([H])[H])(C([H])([H])[H])C([H])([H])[H])C([H])([H])c2c([H])c(OC([H])([H])C([H])([H])N3C([H])([H])C([H])(C([H])([H])[H])C([H])([H])C([H])([N+]([H])([H])C([H])(C([H])([H])C([H])([H])C([H])([H])C([H])([H])[H])C([H])([H])C([H])(C(=O)N4C([H])([H])C([H])([H])C([H])([H])C([H])(n5nc(-c6c([H])c([H])c(Oc7c([H])c([H])c(F)c([H])c7F)c([H])c6[H])c(C(=O)N([H])[H])c5N([H])[H])C4([H])[H])C([H])([H])[H])C3([H])[H])c([H])c([H])c2C1([H])[H]

>  <smiles>  (8) 
[H]c1c([H])c([H])c2c(c1[H])C([H])([H])C([H])([H])C([H])([H])C2([H])N([H])C(=O)C1([H])N(C(=O)C([H])(N([H])C(=O)C([H])(N([H])C([H])([H])[H])C([H])([H])[H])C(C([H])([H])[H])(C([H])([H])[H])C([H])([H])[H])C([H])([H])c2c([H])c(OC([H])([H])C([H])([H])N3C([H])([H])C([H])(C([H])([H])[H])C([H])([H])C([H])([N+]([H])([H])C([H])(C([H])([H])C([H])([H])C([H])([H])C([H])([H])[H])C([H])([H])C([H])(C(=O)N4C([H])([H])C([H])([H])C([H])([H])C([H])(n5nc(-c6c([H])c([H])c(Oc7c([H])c([H])c(F)c([H])c7F)c([H])c6[H])c(C(=O)N([H])[H])c5N([H])[H])C4([H])[H])C([H])([H])[H])C3([H])[H])c([H])c([H])c2C1([H])[H]

$$$$
8:0:0
     RDKit          3D

100107  0  0  1  0  0  0  0  0999 V2000
  -28.4080  -20.3130   19.7960 C   0  0  0  0  0  3  0  0  0  0  0  0
  -28.6260  -21.3450   20.9190 C   0  0  0  0  0  0  0  0  0  0  0  0
  -29.0140  -22.5890   20.5830 N   0  0  0  0  0  0  0  0  0  0  0  0
  -28.4450  -21.0020   22.0880 O   0  0  0  0  0  0  0  0  0  0  0  0
  -29.1750  -22.7940   19.6050 H   0  0  0  0  0  0  0  0  0  0  0  0
  -29.1700  -23.6800   21.5520 C   0  0  0  0  0  2  0  0  0  0  0  0
  -29.5510  -25.0490   20.9460 C   0  0  0  0  0  2  0  0  0  0  0  0
  -28.4690  -25.6900   20.0630 C   0  0  0  0  0  2  0  0  0  0  0  0
  -28.5850  -27.1170   20.0990 O   0  0  0  0  0  0  0  0  0  0  0  0
  -24.6240  -32.0110   23.4100 C   0  0  0  0  0  0  0  0  0  0  0  0
  -27.3940  -27.8150   20.1120 C   0  0  0  0  0  0  0  0  0  0  0  0
  -23.4630  -30.6680   21.6900 C   0  0  0  0  0  3  0  0  0  0  0  0
  -24.9590  -29.2470   20.1950 C   0  0  0  0  0  0  0  0  0  0  0  0
  -25.9770  -31.1070   21.5210 C   0  0  0  0  0  2  0  0  0  0  0  0
  -26.1040  -29.7760   20.8090 C   0  0  0  0  0  0  0  0  0  0  0  0
  -27.3260  -29.0680   20.7620 C   0  0  0  0  0  3  0  0  0  0  0  0
  -26.2330  -27.3040   19.4900 C   0  0  0  0  0  3  0  0  0  0  0  0
  -25.0180  -28.0120   19.5320 C   0  0  0  0  0  3  0  0  0  0  0  0
  -23.6940  -30.0700   20.2790 C   0  0  0  0  0  2  0  0  0  0  0  0
  -24.7070  -31.2730   22.2670 N   0  0  0  0  0  0  0  0  0  0  0  0
  -23.5340  -32.2250   23.9570 O   0  0  0  0  0  0  0  0  0  0  0  0
  -22.8330  -29.5810   22.5900 C   0  0  0  0  0  0  0  0  0  0  0  0
  -21.5190  -29.3590   22.4290 N   0  0  0  0  0  0  0  0  0  0  0  0
  -23.5250  -28.9390   23.3860 O   0  0  0  0  0  0  0  0  0  0  0  0
  -21.0200  -29.9340   21.7620 H   0  0  0  0  0  0  0  0  0  0  0  0
  -18.1790  -28.0350   22.8090 C   0  0  0  0  0  0  0  0  0  0  0  0
  -20.7220  -28.3610   23.1410 C   0  0  0  0  0  3  0  0  0  0  0  0
  -20.8820  -26.9640   22.5000 C   0  0  0  0  0  2  0  0  0  0  0  0
  -19.8090  -26.6520   21.4520 C   0  0  0  0  0  2  0  0  0  0  0  0
  -18.4120  -26.7250   22.0770 C   0  0  0  0  0  2  0  0  0  0  0  0
  -19.2660  -28.8110   23.2960 C   0  0  0  0  0  0  0  0  0  0  0  0
  -18.9950  -30.0390   23.9390 C   0  0  0  0  0  3  0  0  0  0  0  0
  -17.6720  -30.4900   24.1030 C   0  0  0  0  0  3  0  0  0  0  0  0
  -16.6010  -29.7120   23.6340 C   0  0  0  0  0  3  0  0  0  0  0  0
  -16.8560  -28.4850   22.9930 C   0  0  0  0  0  3  0  0  0  0  0  0
  -25.8920  -32.6400   24.0680 C   0  0  0  0  0  3  0  0  0  0  0  0
  -25.5750  -34.0380   24.3920 N   0  0  0  0  0  0  0  0  0  0  0  0
  -25.9380  -35.0890   23.6450 C   0  0  0  0  0  0  0  0  0  0  0  0
  -26.6450  -34.9840   22.6380 O   0  0  0  0  0  0  0  0  0  0  0  0
  -24.9540  -34.1940   25.1710 H   0  0  0  0  0  0  0  0  0  0  0  0
  -24.2220  -36.8800   23.2320 C   0  0  0  0  0  1  0  0  0  0  0  0
  -25.4350  -36.4770   24.0850 C   0  0  0  0  0  3  0  0  0  0  0  0
  -27.5400  -37.3630   24.9870 C   0  0  0  0  0  1  0  0  0  0  0  0
  -26.4710  -37.5300   24.0050 N   0  0  0  0  0  0  0  0  0  0  0  0
  -26.0600  -38.4490   24.1400 H   0  0  0  0  0  0  0  0  0  0  0  0
  -26.3720  -31.8670   25.3590 C   0  0  1  0  0  0  0  0  0  0  0  0
  -25.2430  -31.6090   26.3860 C   0  0  0  0  0  1  0  0  0  0  0  0
  -26.9820  -30.5000   24.9750 C   0  0  0  0  0  1  0  0  0  0  0  0
  -27.4910  -32.6670   26.0650 C   0  0  0  0  0  1  0  0  0  0  0  0
  -28.7860  -18.9390   20.2470 N   0  0  0  0  0  4  0  0  0  0  0  0
  -28.2660  -18.3020   19.6690 H   0  0  0  0  0  0  0  0  0  0  0  0
  -28.4380  -18.8540   21.1910 H   0  0  0  0  0  0  0  0  0  0  0  0
  -30.2170  -18.5000   20.2550 C   0  0  0  0  0  3  0  0  0  0  0  0
  -32.6470  -19.1730   19.6520 C   0  0  0  0  0  1  0  0  0  0  0  0
  -31.1530  -19.3290   19.3050 C   0  0  0  0  0  3  0  0  0  0  0  0
  -31.4710  -20.1860   16.8990 C   0  0  0  0  0  1  0  0  0  0  0  0
  -30.9010  -19.0760   17.7980 C   0  0  0  0  0  2  0  0  0  0  0  0
  -30.3460  -16.9630   19.9710 C   0  0  0  0  0  2  0  0  0  0  0  0
  -30.9490  -16.3820   22.4320 C   0  0  0  0  0  1  0  0  0  0  0  0
  -30.2490  -15.9170   21.1380 C   0  0  0  0  0  3  0  0  0  0  0  0
  -30.9030  -14.5760   20.6840 C   0  0  0  0  0  0  0  0  0  0  0  0
  -30.6390  -12.3390   19.6900 C   0  0  0  0  0  2  0  0  0  0  0  0
  -29.7750  -12.4570   18.4160 C   0  0  0  0  0  2  0  0  0  0  0  0
  -28.2750  -12.3720   18.7600 C   0  0  0  0  0  2  0  0  0  0  0  0
  -27.8710  -13.2920   19.9450 C   0  0  0  0  0  3  0  0  0  0  0  0
  -28.8590  -13.1530   21.1240 C   0  0  0  0  0  2  0  0  0  0  0  0
  -30.2150  -13.4030   20.6150 N   0  0  0  0  0  0  0  0  0  0  0  0
  -32.0620  -14.6610   20.2690 O   0  0  0  0  0  0  0  0  0  0  0  0
  -25.4670  -13.9600   20.5660 C   0  0  0  0  0  0  0  0  0  0  0  0
  -24.3620  -13.2160   20.8790 C   0  0  0  0  0  0  0  0  0  0  0  0
  -24.7780  -11.8510   20.8410 C   0  0  0  0  0  0  0  0  0  0  0  0
  -26.4920  -13.0480   20.3610 N   0  0  0  0  0  0  0  0  0  0  0  0
  -26.0780  -11.7740   20.5870 N   0  0  0  0  0  0  0  0  0  0  0  0
  -24.0030  -10.6090   20.9760 C   0  0  0  0  0  0  0  0  0  0  0  0
  -24.3760   -9.6020   21.8940 C   0  0  0  0  0  3  0  0  0  0  0  0
  -23.6090   -8.4240   22.0180 C   0  0  0  0  0  3  0  0  0  0  0  0
  -22.4510   -8.2440   21.2230 C   0  0  0  0  0  0  0  0  0  0  0  0
  -22.0970   -9.2380   20.2930 C   0  0  0  0  0  3  0  0  0  0  0  0
  -22.8650  -10.4080   20.1680 C   0  0  0  0  0  3  0  0  0  0  0  0
  -21.6570   -7.1230   21.2590 O   0  0  0  0  0  0  0  0  0  0  0  0
  -21.5580   -6.3460   22.3850 C   0  0  0  0  0  0  0  0  0  0  0  0
  -21.1300   -6.8750   23.6210 C   0  0  0  0  0  3  0  0  0  0  0  0
  -20.9780   -6.0260   24.7360 C   0  0  0  0  0  3  0  0  0  0  0  0
  -21.2410   -4.6480   24.6140 C   0  0  0  0  0  0  0  0  0  0  0  0
  -21.6640   -4.1190   23.3810 C   0  0  0  0  0  3  0  0  0  0  0  0
  -21.8160   -4.9650   22.2690 C   0  0  0  0  0  0  0  0  0  0  0  0
  -22.2030   -4.4470   21.0790 F   0  0  0  0  0  0  0  0  0  0  0  0
  -21.0870   -3.8300   25.6810 F   0  0  0  0  0  0  0  0  0  0  0  0
  -22.9700  -13.7330   21.1030 C   0  0  0  0  0  0  0  0  0  0  0  0
  -22.1940  -13.0570   21.9410 N   0  0  0  0  0  0  0  0  0  0  0  0
  -22.5810  -14.7690   20.5660 O   0  0  0  0  0  0  0  0  0  0  0  0
  -22.5240  -12.2180   22.3960 H   0  0  0  0  0  0  0  0  0  0  0  0
  -21.2580  -13.3820   22.1360 H   0  0  0  0  0  0  0  0  0  0  0  0
  -25.6920  -15.3260   20.4070 N   0  0  0  0  0  0  0  0  0  0  0  0
  -24.9260  -15.9900   20.4000 H   0  0  0  0  0  0  0  0  0  0  0  0
  -26.5260  -15.6740   19.9570 H   0  0  0  0  0  0  0  0  0  0  0  0
  -26.9280  -20.3040   19.3180 C   0  0  0  0  0  2  0  0  0  0  0  0
  -26.2320  -22.5030   18.1600 C   0  0  0  0  0  1  0  0  0  0  0  0
  -25.5760  -20.2850   17.1800 C   0  0  0  0  0  1  0  0  0  0  0  0
  -26.6510  -21.0340   17.9810 C   0  0  0  0  0  3  0  0  0  0  0  0
  1 97  1  0
  1 50  1  0
  1  2  1  0
  2  4  2  0
  3  2  1  0
  3  6  1  0
  5  3  1  0
  7  6  1  0
  8  9  1  0
  8  7  1  0
  9 11  1  0
 10 21  2  0
 11 16  1  0
 12 20  1  0
 12 22  1  0
 13 19  1  0
 13 15  1  0
 14 20  1  0
 15 14  1  0
 16 15  2  0
 17 18  1  0
 17 11  2  0
 18 13  2  0
 19 12  1  0
 20 10  1  0
 22 24  2  0
 23 22  1  0
 25 23  1  0
 26 35  2  0
 26 31  1  0
 27 23  1  0
 27 31  1  0
 28 27  1  0
 29 30  1  0
 29 28  1  0
 30 26  1  0
 31 32  2  0
 32 33  1  0
 34 33  2  0
 35 34  1  0
 36 10  1  0
 36 37  1  0
 36 46  1  0
 37 40  1  0
 38 42  1  0
 38 37  1  0
 39 38  2  0
 42 41  1  0
 44 42  1  0
 44 45  1  0
 44 43  1  0
 46 49  1  1
 46 47  1  0
 48 46  1  0
 50 53  1  0
 50 52  1  0
 51 50  1  0
 53 58  1  0
 55 54  1  0
 55 53  1  0
 56 57  1  0
 57 55  1  0
 58 60  1  0
 60 59  1  0
 61 60  1  0
 62 67  1  0
 63 64  1  0
 63 62  1  0
 65 64  1  0
 65 72  1  0
 65 66  1  0
 67 61  1  0
 67 66  1  0
 68 61  2  0
 69 70  2  0
 70 89  1  0
 71 70  1  0
 71 74  1  0
 72 69  1  0
 72 73  1  0
 73 71  2  0
 74 75  1  0
 75 76  2  0
 77 80  1  0
 77 76  1  0
 78 77  2  0
 79 78  1  0
 79 74  2  0
 80 81  1  0
 81 82  1  0
 82 83  2  0
 84 83  1  0
 84 88  1  0
 85 84  2  0
 86 81  2  0
 86 85  1  0
 87 86  1  0
 89 90  1  0
 90 93  1  0
 90 92  1  0
 91 89  2  0
 94 69  1  0
 95 94  1  0
 96 94  1  0
 99100  1  0
100 98  1  0
100 97  1  0
M  ISO  4   8 101   9 101  60 100  61 100
M  END
>  <TORSDO>  (9) 
F 28

>  <SCORE>  (9) 
-10.748

>  <name>  (9) 
8

>  <ligand_id>  (9) 
8

>  <original_smiles>  (9) 
[H]c1c([H])c([H])c2c(c1[H])C([H])([H])C([H])([H])C([H])([H])C2([H])N([H])C(=O)C1([H])N(C(=O)C([H])(N([H])C(=O)C([H])(N([H])C([H])([H])[H])C([H])([H])[H])C(C([H])([H])[H])(C([H])([H])[H])C([H])([H])[H])C([H])([H])c2c([H])c(OC([H])([H])C([H])([H])C([H])([H])N([H])C(=O)C([H])(C([H])([H])C([H])(C([H])([H])[H])C([H])([H])[H])[N+]([H])([H])C([H])(C([H])([H])C([H])(C(=O)N3C([H])([H])C([H])([H])C([H])([H])C([H])(n4nc(-c5c([H])c([H])c(Oc6c([H])c([H])c(F)c([H])c6F)c([H])c5[H])c(C(=O)N([H])[H])c4N([H])[H])C3([H])[H])C([H])([H])[H])C([H])(C([H])([H])[H])C([H])([H])C([H])([H])[H])c([H])c([H])c2C1([H])[H]

>  <smiles>  (9) 
[H]c1c([H])c([H])c2c(c1[H])C([H])([H])C([H])([H])C([H])([H])C2([H])N([H])C(=O)C1([H])N(C(=O)C([H])(N([H])C(=O)C([H])(N([H])C([H])([H])[H])C([H])([H])[H])C(C([H])([H])[H])(C([H])([H])[H])C([H])([H])[H])C([H])([H])c2c([H])c(OC([H])([H])C([H])([H])C([H])([H])N([H])C(=O)C([H])(C([H])([H])C([H])(C([H])([H])[H])C([H])([H])[H])[N+]([H])([H])C([H])(C([H])([H])C([H])(C(=O)N3C([H])([H])C([H])([H])C([H])([H])C([H])(n4nc(-c5c([H])c([H])c(Oc6c([H])c([H])c(F)c([H])c6F)c([H])c5[H])c(C(=O)N([H])[H])c4N([H])[H])C3([H])[H])C([H])([H])[H])C([H])(C([H])([H])[H])C([H])([H])C([H])([H])[H])c([H])c([H])c2C1([H])[H]

$$$$
9:0:0
     RDKit          3D

 91 99  0  0  1  0  0  0  0  0999 V2000
  -30.0240  -25.3670   21.8300 C   0  0  0  0  0  3  0  0  0  0  0  0
  -30.9520  -24.6350   22.5170 C   0  0  0  0  0  3  0  0  0  0  0  0
  -29.2570  -24.6060   20.8870 C   0  0  0  0  0  0  0  0  0  0  0  0
  -29.6190  -23.2630   20.8880 C   0  0  0  0  0  0  0  0  0  0  0  0
  -30.9230  -22.9710   22.0320 S   0  0  0  0  0  0  0  0  0  0  0  0
  -29.1690  -22.0700   20.1000 C   0  0  0  0  0  0  0  0  0  0  0  0
  -29.5650  -20.8500   20.5230 N   0  0  0  0  0  0  0  0  0  0  0  0
  -28.4710  -22.2150   19.0960 O   0  0  0  0  0  0  0  0  0  0  0  0
  -30.1100  -20.8350   21.3750 H   0  0  0  0  0  0  0  0  0  0  0  0
  -29.4410  -19.5740   19.8000 C   0  0  0  0  0  2  0  0  0  0  0  0
  -29.7180  -18.3410   20.7060 C   0  0  0  0  0  2  0  0  0  0  0  0
  -29.8400  -16.9960   19.9390 C   0  0  0  0  0  2  0  0  0  0  0  0
  -29.9850  -15.7300   20.8420 C   0  0  0  0  0  2  0  0  0  0  0  0
  -30.5780  -14.4990   20.1050 C   0  0  0  0  0  0  0  0  0  0  0  0
  -30.2080  -12.3620   18.9240 C   0  0  0  0  0  2  0  0  0  0  0  0
  -29.2020  -12.6070   17.7800 C   0  0  0  0  0  2  0  0  0  0  0  0
  -27.7530  -12.4660   18.2880 C   0  0  0  0  0  2  0  0  0  0  0  0
  -27.4950  -13.2650   19.5950 C   0  0  0  0  0  3  0  0  0  0  0  0
  -28.6120  -12.9980   20.6290 C   0  0  0  0  0  2  0  0  0  0  0  0
  -29.8990  -13.3220   19.9980 N   0  0  0  0  0  0  0  0  0  0  0  0
  -31.6650  -14.6650   19.5410 O   0  0  0  0  0  0  0  0  0  0  0  0
  -25.1380  -13.8620   20.4350 C   0  0  0  0  0  0  0  0  0  0  0  0
  -24.0900  -13.0860   20.8500 C   0  0  0  0  0  0  0  0  0  0  0  0
  -24.5470  -11.7350   20.7780 C   0  0  0  0  0  0  0  0  0  0  0  0
  -26.1690  -12.9840   20.1400 N   0  0  0  0  0  0  0  0  0  0  0  0
  -25.8190  -11.6980   20.4010 N   0  0  0  0  0  0  0  0  0  0  0  0
  -23.8300  -10.4710   20.9930 C   0  0  0  0  0  0  0  0  0  0  0  0
  -24.3060   -9.4970   21.8980 C   0  0  0  0  0  3  0  0  0  0  0  0
  -23.5900   -8.2980   22.1000 C   0  0  0  0  0  3  0  0  0  0  0  0
  -22.3840   -8.0630   21.3980 C   0  0  0  0  0  0  0  0  0  0  0  0
  -21.9280   -9.0250   20.4810 C   0  0  0  0  0  3  0  0  0  0  0  0
  -22.6430  -10.2170   20.2770 C   0  0  0  0  0  3  0  0  0  0  0  0
  -21.6360   -6.9160   21.5110 O   0  0  0  0  0  0  0  0  0  0  0  0
  -21.6390   -6.1660   22.6600 C   0  0  0  0  0  0  0  0  0  0  0  0
  -21.2710   -6.7140   23.9080 C   0  0  0  0  0  3  0  0  0  0  0  0
  -21.2210   -5.8900   25.0500 C   0  0  0  0  0  3  0  0  0  0  0  0
  -21.5250   -4.5200   24.9460 C   0  0  0  0  0  0  0  0  0  0  0  0
  -21.8850   -3.9720   23.7020 C   0  0  0  0  0  3  0  0  0  0  0  0
  -21.9380   -4.7930   22.5620 C   0  0  0  0  0  0  0  0  0  0  0  0
  -22.2660   -4.2540   21.3630 F   0  0  0  0  0  0  0  0  0  0  0  0
  -21.4690   -3.7270   26.0420 F   0  0  0  0  0  0  0  0  0  0  0  0
  -22.7090  -13.5600   21.2030 C   0  0  0  0  0  0  0  0  0  0  0  0
  -22.0280  -12.8530   22.0970 N   0  0  0  0  0  0  0  0  0  0  0  0
  -22.2460  -14.5940   20.7240 O   0  0  0  0  0  0  0  0  0  0  0  0
  -22.4180  -12.0170   22.5090 H   0  0  0  0  0  0  0  0  0  0  0  0
  -21.1050  -13.1510   22.3750 H   0  0  0  0  0  0  0  0  0  0  0  0
  -25.2970  -15.2340   20.2650 N   0  0  0  0  0  0  0  0  0  0  0  0
  -24.5420  -15.8940   20.4240 H   0  0  0  0  0  0  0  0  0  0  0  0
  -26.1400  -15.6750   19.9170 H   0  0  0  0  0  0  0  0  0  0  0  0
  -28.1680  -25.2610   20.0600 C   0  0  0  0  0  2  0  0  0  0  0  0
  -28.2450  -26.7060   20.0980 O   0  0  0  0  0  0  0  0  0  0  0  0
  -24.4990  -31.8950   23.2110 C   0  0  0  0  0  0  0  0  0  0  0  0
  -27.0700  -27.4350   20.0840 C   0  0  0  0  0  0  0  0  0  0  0  0
  -23.2580  -30.4970   21.5940 C   0  0  0  0  0  3  0  0  0  0  0  0
  -24.6780  -28.9580   20.1360 C   0  0  0  0  0  0  0  0  0  0  0  0
  -25.7790  -30.8500   21.3430 C   0  0  0  0  0  2  0  0  0  0  0  0
  -25.8490  -29.4770   20.7010 C   0  0  0  0  0  0  0  0  0  0  0  0
  -27.0460  -28.7250   20.6690 C   0  0  0  0  0  3  0  0  0  0  0  0
  -25.8820  -26.9370   19.5030 C   0  0  0  0  0  3  0  0  0  0  0  0
  -24.6910  -27.6880   19.5320 C   0  0  0  0  0  3  0  0  0  0  0  0
  -23.4380  -29.8180   20.2090 C   0  0  0  0  0  2  0  0  0  0  0  0
  -24.5330  -31.0970   22.1080 N   0  0  0  0  0  0  0  0  0  0  0  0
  -23.4290  -32.1690   23.7730 O   0  0  0  0  0  0  0  0  0  0  0  0
  -22.6230  -29.4770   22.5670 C   0  0  0  0  0  0  0  0  0  0  0  0
  -21.2980  -29.2900   22.4580 N   0  0  0  0  0  0  0  0  0  0  0  0
  -23.3200  -28.8590   23.3770 O   0  0  0  0  0  0  0  0  0  0  0  0
  -20.7970  -29.8420   21.7760 H   0  0  0  0  0  0  0  0  0  0  0  0
  -17.9370  -28.0710   22.9850 C   0  0  0  0  0  0  0  0  0  0  0  0
  -20.4940  -28.3530   23.2410 C   0  0  0  0  0  3  0  0  0  0  0  0
  -20.6070  -26.9180   22.6760 C   0  0  0  0  0  2  0  0  0  0  0  0
  -19.5020  -26.5770   21.6710 C   0  0  0  0  0  2  0  0  0  0  0  0
  -18.1220  -26.7160   22.3220 C   0  0  0  0  0  2  0  0  0  0  0  0
  -19.0510  -28.8450   23.4030 C   0  0  0  0  0  0  0  0  0  0  0  0
  -18.8250  -30.1120   23.9830 C   0  0  0  0  0  3  0  0  0  0  0  0
  -17.5170  -30.6040   24.1520 C   0  0  0  0  0  3  0  0  0  0  0  0
  -16.4170  -29.8260   23.7500 C   0  0  0  0  0  3  0  0  0  0  0  0
  -16.6280  -28.5610   23.1730 C   0  0  0  0  0  3  0  0  0  0  0  0
  -25.7990  -32.5230   23.8070 C   0  0  0  0  0  3  0  0  0  0  0  0
  -25.5010  -33.9230   24.1390 N   0  0  0  0  0  0  0  0  0  0  0  0
  -25.8120  -34.9700   23.3630 C   0  0  0  0  0  0  0  0  0  0  0  0
  -26.4490  -34.8610   22.3130 O   0  0  0  0  0  0  0  0  0  0  0  0
  -24.9290  -34.0830   24.9560 H   0  0  0  0  0  0  0  0  0  0  0  0
  -24.0640  -36.7550   23.0650 C   0  0  0  0  0  1  0  0  0  0  0  0
  -25.3390  -36.3620   23.8280 C   0  0  0  0  0  3  0  0  0  0  0  0
  -27.5050  -37.2600   24.5560 C   0  0  0  0  0  1  0  0  0  0  0  0
  -26.3620  -37.4170   23.6600 N   0  0  0  0  0  0  0  0  0  0  0  0
  -25.9600  -38.3380   23.8160 H   0  0  0  0  0  0  0  0  0  0  0  0
  -26.3380  -31.7510   25.0730 C   0  0  1  0  0  0  0  0  0  0  0  0
  -25.2660  -31.5190   26.1620 C   0  0  0  0  0  1  0  0  0  0  0  0
  -26.9070  -30.3710   24.6680 C   0  0  0  0  0  1  0  0  0  0  0  0
  -27.5060  -32.5400   25.7100 C   0  0  0  0  0  1  0  0  0  0  0  0
  1  2  2  0
  3  4  2  0
  3  1  1  0
  4  5  1  0
  5  2  1  0
  6  7  1  0
  6  4  1  0
  7  9  1  0
  8  6  2  0
 10  7  1  0
 10 11  1  0
 12 11  1  0
 12 13  1  0
 14 13  1  0
 15 20  1  0
 16 17  1  0
 16 15  1  0
 18 17  1  0
 18 25  1  0
 18 19  1  0
 20 14  1  0
 20 19  1  0
 21 14  2  0
 22 23  2  0
 23 42  1  0
 24 23  1  0
 24 27  1  0
 25 26  1  0
 25 22  1  0
 26 24  2  0
 27 28  1  0
 28 29  2  0
 30 33  1  0
 30 29  1  0
 31 30  2  0
 32 31  1  0
 32 27  2  0
 33 34  1  0
 34 35  1  0
 35 36  2  0
 37 36  1  0
 37 41  1  0
 38 37  2  0
 39 34  2  0
 39 38  1  0
 40 39  1  0
 42 43  1  0
 43 46  1  0
 43 45  1  0
 44 42  2  0
 47 48  1  0
 47 22  1  0
 49 47  1  0
 50 51  1  0
 50  3  1  0
 52 63  2  0
 53 51  1  0
 53 58  1  0
 54 62  1  0
 54 64  1  0
 55 61  1  0
 55 57  1  0
 56 62  1  0
 57 56  1  0
 58 57  2  0
 59 60  1  0
 59 53  2  0
 60 55  2  0
 61 54  1  0
 62 52  1  0
 64 66  2  0
 65 64  1  0
 67 65  1  0
 68 77  2  0
 68 73  1  0
 69 65  1  0
 69 73  1  0
 70 69  1  0
 71 72  1  0
 71 70  1  0
 72 68  1  0
 73 74  2  0
 74 75  1  0
 76 75  2  0
 77 76  1  0
 78 52  1  0
 78 79  1  0
 78 88  1  0
 79 82  1  0
 80 84  1  0
 80 79  1  0
 81 80  2  0
 84 83  1  0
 86 87  1  0
 86 84  1  0
 86 85  1  0
 88 91  1  1
 88 89  1  0
 90 88  1  0
M  ISO  4  13 100  14 100  50 101  51 101
M  END
>  <TORSDO>  (10) 
F 22

>  <SCORE>  (10) 
-11.582

>  <name>  (10) 
9

>  <ligand_id>  (10) 
9

>  <original_smiles>  (10) 
[H]c1sc(C(=O)N([H])C([H])([H])C([H])([H])C([H])([H])C([H])([H])C(=O)N2C([H])([H])C([H])([H])C([H])([H])C([H])(n3nc(-c4c([H])c([H])c(Oc5c([H])c([H])c(F)c([H])c5F)c([H])c4[H])c(C(=O)N([H])[H])c3N([H])[H])C2([H])[H])c(C([H])([H])Oc2c([H])c([H])c3c(c2[H])C([H])([H])N(C(=O)C([H])(N([H])C(=O)C([H])(N([H])C([H])([H])[H])C([H])([H])[H])C(C([H])([H])[H])(C([H])([H])[H])C([H])([H])[H])C([H])(C(=O)N([H])C2([H])c4c([H])c([H])c([H])c([H])c4C([H])([H])C([H])([H])C2([H])[H])C3([H])[H])c1[H]

>  <smiles>  (10) 
[H]c1sc(C(=O)N([H])C([H])([H])C([H])([H])C([H])([H])C([H])([H])C(=O)N2C([H])([H])C([H])([H])C([H])([H])C([H])(n3nc(-c4c([H])c([H])c(Oc5c([H])c([H])c(F)c([H])c5F)c([H])c4[H])c(C(=O)N([H])[H])c3N([H])[H])C2([H])[H])c(C([H])([H])Oc2c([H])c([H])c3c(c2[H])C([H])([H])N(C(=O)C([H])(N([H])C(=O)C([H])(N([H])C([H])([H])[H])C([H])([H])[H])C(C([H])([H])[H])(C([H])([H])[H])C([H])([H])[H])C([H])(C(=O)N([H])C2([H])c4c([H])c([H])c([H])c([H])c4C([H])([H])C([H])([H])C2([H])[H])C3([H])[H])c1[H]

$$$$
10:0:0
     RDKit          3D

 93100  0  0  1  0  0  0  0  0999 V2000
  -29.3450  -20.5630   21.0970 C   0  0  0  0  0  0  0  0  0  0  0  0
  -29.5580  -21.1230   22.4920 C   0  0  0  0  0  1  0  0  0  0  0  0
  -29.6170  -19.2300   21.0660 N   0  0  0  0  0  0  0  0  0  0  0  0
  -29.6910  -18.0010   20.1070 C   0  0  0  0  0  3  0  0  0  0  0  0
  -29.9440  -16.4810   20.8360 C   0  0  0  0  0  2  0  0  0  0  0  0
  -30.5970  -15.0630   20.2520 C   0  0  0  0  0  0  0  0  0  0  0  0
  -30.4490  -12.7220   19.2710 C   0  0  0  0  0  2  0  0  0  0  0  0
  -29.5090  -12.7120   18.0430 C   0  0  0  0  0  2  0  0  0  0  0  0
  -28.0460  -12.5040   18.4780 C   0  0  0  0  0  2  0  0  0  0  0  0
  -27.6570  -13.4040   19.6770 C   0  0  0  0  0  3  0  0  0  0  0  0
  -28.7200  -13.3880   20.7960 C   0  0  0  0  0  2  0  0  0  0  0  0
  -29.9980  -13.7990   20.2010 N   0  0  0  0  0  0  0  0  0  0  0  0
  -31.7550  -15.1130   19.8250 O   0  0  0  0  0  0  0  0  0  0  0  0
  -25.2690  -13.9660   20.4080 C   0  0  0  0  0  0  0  0  0  0  0  0
  -24.2110  -13.1860   20.7840 C   0  0  0  0  0  0  0  0  0  0  0  0
  -24.6870  -11.8400   20.7670 C   0  0  0  0  0  0  0  0  0  0  0  0
  -26.3210  -13.0960   20.1750 N   0  0  0  0  0  0  0  0  0  0  0  0
  -25.9790  -11.8130   20.4550 N   0  0  0  0  0  0  0  0  0  0  0  0
  -23.9710  -10.5720   20.9680 C   0  0  0  0  0  0  0  0  0  0  0  0
  -24.4050   -9.6160   21.9110 C   0  0  0  0  0  3  0  0  0  0  0  0
  -23.6850   -8.4150   22.0980 C   0  0  0  0  0  3  0  0  0  0  0  0
  -22.5140   -8.1650   21.3410 C   0  0  0  0  0  0  0  0  0  0  0  0
  -22.1010   -9.1090   20.3860 C   0  0  0  0  0  3  0  0  0  0  0  0
  -22.8230  -10.3010   20.1970 C   0  0  0  0  0  3  0  0  0  0  0  0
  -21.7660   -7.0170   21.4400 O   0  0  0  0  0  0  0  0  0  0  0  0
  -21.7190   -6.2830   22.5990 C   0  0  0  0  0  0  0  0  0  0  0  0
  -21.2840   -6.8460   23.8190 C   0  0  0  0  0  3  0  0  0  0  0  0
  -21.1850   -6.0390   24.9700 C   0  0  0  0  0  3  0  0  0  0  0  0
  -21.5120   -4.6720   24.9020 C   0  0  0  0  0  0  0  0  0  0  0  0
  -21.9390   -4.1090   23.6870 C   0  0  0  0  0  3  0  0  0  0  0  0
  -22.0410   -4.9120   22.5390 C   0  0  0  0  0  0  0  0  0  0  0  0
  -22.4340   -4.3610   21.3650 F   0  0  0  0  0  0  0  0  0  0  0  0
  -21.4100   -3.8940   26.0050 F   0  0  0  0  0  0  0  0  0  0  0  0
  -22.8110  -13.6560   21.0480 C   0  0  0  0  0  0  0  0  0  0  0  0
  -22.0880  -12.9600   21.9200 N   0  0  0  0  0  0  0  0  0  0  0  0
  -22.3660  -14.6720   20.5170 O   0  0  0  0  0  0  0  0  0  0  0  0
  -22.4630  -12.1360   22.3670 H   0  0  0  0  0  0  0  0  0  0  0  0
  -21.1470  -13.2510   22.1420 H   0  0  0  0  0  0  0  0  0  0  0  0
  -25.4250  -15.3360   20.2210 N   0  0  0  0  0  0  0  0  0  0  0  0
  -24.6610  -15.9930   20.3290 H   0  0  0  0  0  0  0  0  0  0  0  0
  -26.2800  -15.7770   19.9080 H   0  0  0  0  0  0  0  0  0  0  0  0
  -30.6350  -18.3400   18.9300 C   0  0  0  0  0  2  0  0  0  0  0  0
  -32.0610  -18.8000   19.2980 C   0  0  0  0  0  2  0  0  0  0  0  0
  -32.8550  -19.2790   18.0670 C   0  0  0  0  0  2  0  0  0  0  0  0
  -34.3010  -19.6910   18.4040 C   0  0  0  0  0  2  0  0  0  0  0  0
  -35.0430  -20.1650   17.2230 N   0  0  0  0  0  4  0  0  0  0  0  0
  -34.9810  -19.5060   16.4660 H   0  0  0  0  0  0  0  0  0  0  0  0
  -36.0150  -20.2810   17.4540 H   0  0  0  0  0  0  0  0  0  0  0  0
  -34.6890  -21.0510   16.9080 H   0  0  0  0  0  0  0  0  0  0  0  0
  -28.8280  -21.8130   20.1290 C   0  0  0  0  0  2  0  0  0  0  0  0
  -28.9240  -23.4510   20.5880 C   0  0  0  0  0  3  0  0  0  0  0  0
  -28.0300  -24.7420   19.9840 C   0  0  0  0  0  3  0  0  0  0  0  0
  -28.2280  -26.2630   20.2730 O   0  0  0  0  0  0  0  0  0  0  0  0
  -24.6040  -31.9370   23.2410 C   0  0  0  0  0  0  0  0  0  0  0  0
  -27.1650  -27.2350   20.1880 C   0  0  0  0  0  0  0  0  0  0  0  0
  -23.3950  -30.5390   21.6090 C   0  0  0  0  0  3  0  0  0  0  0  0
  -24.8330  -28.9730   20.1650 C   0  0  0  0  0  0  0  0  0  0  0  0
  -25.9450  -30.8120   21.4260 C   0  0  0  0  0  2  0  0  0  0  0  0
  -26.0150  -29.4220   20.7660 C   0  0  0  0  0  0  0  0  0  0  0  0
  -27.1810  -28.5700   20.7580 C   0  0  0  0  0  3  0  0  0  0  0  0
  -25.9570  -26.8870   19.5430 C   0  0  0  0  0  3  0  0  0  0  0  0
  -24.8160  -27.7190   19.5370 C   0  0  0  0  0  3  0  0  0  0  0  0
  -23.6040  -29.8660   20.2270 C   0  0  0  0  0  2  0  0  0  0  0  0
  -24.6690  -31.1180   22.1460 N   0  0  0  0  0  0  0  0  0  0  0  0
  -23.5220  -32.2200   23.7740 O   0  0  0  0  0  0  0  0  0  0  0  0
  -22.7250  -29.5300   22.5740 C   0  0  0  0  0  0  0  0  0  0  0  0
  -21.3990  -29.3500   22.4460 N   0  0  0  0  0  0  0  0  0  0  0  0
  -23.4010  -28.9140   23.4030 O   0  0  0  0  0  0  0  0  0  0  0  0
  -20.9140  -29.8950   21.7480 H   0  0  0  0  0  0  0  0  0  0  0  0
  -18.0240  -28.1230   22.9390 C   0  0  0  0  0  0  0  0  0  0  0  0
  -20.5800  -28.4130   23.2190 C   0  0  0  0  0  3  0  0  0  0  0  0
  -20.6990  -26.9770   22.6560 C   0  0  0  0  0  2  0  0  0  0  0  0
  -19.6050  -26.6360   21.6390 C   0  0  0  0  0  2  0  0  0  0  0  0
  -18.2180  -26.7720   22.2730 C   0  0  0  0  0  2  0  0  0  0  0  0
  -19.1330  -28.9020   23.3680 C   0  0  0  0  0  0  0  0  0  0  0  0
  -18.8960  -30.1650   23.9500 C   0  0  0  0  0  3  0  0  0  0  0  0
  -17.5840  -30.6490   24.1110 C   0  0  0  0  0  3  0  0  0  0  0  0
  -16.4900  -29.8680   23.7000 C   0  0  0  0  0  3  0  0  0  0  0  0
  -16.7120  -28.6080   23.1170 C   0  0  0  0  0  3  0  0  0  0  0  0
  -25.8870  -32.5710   23.8590 C   0  0  0  0  0  3  0  0  0  0  0  0
  -26.3970  -31.8110   25.1460 C   0  0  1  0  0  0  0  0  0  0  0  0
  -25.3010  -31.5870   26.2150 C   0  0  0  0  0  1  0  0  0  0  0  0
  -26.9800  -30.4270   24.7770 C   0  0  0  0  0  1  0  0  0  0  0  0
  -27.5510  -32.6070   25.8000 C   0  0  0  0  0  1  0  0  0  0  0  0
  -25.5820  -33.9740   24.1840 N   0  0  0  0  0  0  0  0  0  0  0  0
  -25.9140  -35.0250   23.4210 C   0  0  0  0  0  0  0  0  0  0  0  0
  -26.5790  -34.9140   22.3870 O   0  0  0  0  0  0  0  0  0  0  0  0
  -24.9960  -34.1320   24.9900 H   0  0  0  0  0  0  0  0  0  0  0  0
  -24.1910  -36.8240   23.0700 C   0  0  0  0  0  1  0  0  0  0  0  0
  -25.4350  -36.4170   23.8770 C   0  0  0  0  0  3  0  0  0  0  0  0
  -27.5750  -37.2950   24.7010 C   0  0  0  0  0  1  0  0  0  0  0  0
  -26.4720  -37.4650   23.7570 N   0  0  0  0  0  0  0  0  0  0  0  0
  -26.0700  -38.3870   23.9010 H   0  0  0  0  0  0  0  0  0  0  0  0
  1  2  1  0
  3  1  2  0
  4 42  1  0
  4  5  1  0
  4  3  1  0
  6  5  1  0
  7 12  1  0
  8  9  1  0
  8  7  1  0
 10  9  1  0
 10 17  1  0
 10 11  1  0
 12  6  1  0
 12 11  1  0
 13  6  2  0
 14 15  2  0
 15 34  1  0
 16 15  1  0
 16 19  1  0
 17 14  1  0
 17 18  1  0
 18 16  2  0
 19 20  1  0
 20 21  2  0
 22 25  1  0
 22 21  1  0
 23 22  2  0
 24 23  1  0
 24 19  2  0
 25 26  1  0
 26 27  1  0
 27 28  2  0
 29 28  1  0
 29 33  1  0
 30 29  2  0
 31 26  2  0
 31 30  1  0
 32 31  1  0
 34 35  1  0
 35 38  1  0
 35 37  1  0
 36 34  2  0
 39 40  1  0
 39 14  1  0
 41 39  1  0
 42 43  1  0
 44 45  1  0
 44 43  1  0
 46 48  1  0
 46 45  1  0
 47 46  1  0
 49 46  1  0
 50 51  1  0
 50  1  1  0
 52 53  1  0
 52 51  2  0
 54 65  2  0
 55 53  1  0
 55 60  1  0
 56 64  1  0
 56 66  1  0
 57 63  1  0
 57 59  1  0
 58 64  1  0
 59 58  1  0
 60 59  2  0
 61 55  2  0
 62 61  1  0
 62 57  2  0
 63 56  1  0
 64 54  1  0
 66 68  2  0
 67 66  1  0
 69 67  1  0
 70 79  2  0
 70 75  1  0
 71 67  1  0
 71 75  1  0
 72 71  1  0
 73 74  1  0
 73 72  1  0
 74 70  1  0
 75 76  2  0
 76 77  1  0
 78 77  2  0
 79 78  1  0
 80 54  1  0
 80 85  1  0
 80 81  1  0
 81 84  1  1
 81 82  1  0
 83 81  1  0
 85 88  1  0
 86 90  1  0
 86 85  1  0
 87 86  2  0
 90 89  1  0
 92 90  1  0
 92 93  1  0
 92 91  1  0
M  ISO  4   5 100   6 100  52 101  53 101
M  END
>  <TORSDO>  (11) 
F 26

>  <SCORE>  (11) 
-12.884

>  <name>  (11) 
10

>  <ligand_id>  (11) 
10

>  <original_smiles>  (11) 
[H]c1c([H])c([H])c2c(c1[H])C([H])([H])C([H])([H])C([H])([H])C2([H])N([H])C(=O)C1([H])N(C(=O)C([H])(N([H])C(=O)C([H])(N([H])C([H])([H])[H])C([H])([H])[H])C(C([H])([H])[H])(C([H])([H])[H])C([H])([H])[H])C([H])([H])c2c([H])c(OC([H])([H])C([H])([H])C([H])([H])C(=NC([H])(C([H])([H])C(=O)N3C([H])([H])C([H])([H])C([H])([H])C([H])(n4nc(-c5c([H])c([H])c(Oc6c([H])c([H])c(F)c([H])c6F)c([H])c5[H])c(C(=O)N([H])[H])c4N([H])[H])C3([H])[H])C([H])([H])C([H])([H])C([H])([H])C([H])([H])[N+]([H])([H])[H])C([H])([H])[H])c([H])c([H])c2C1([H])[H]

>  <smiles>  (11) 
[H]c1c([H])c([H])c2c(c1[H])C([H])([H])C([H])([H])C([H])([H])C2([H])N([H])C(=O)C1([H])N(C(=O)C([H])(N([H])C(=O)C([H])(N([H])C([H])([H])[H])C([H])([H])[H])C(C([H])([H])[H])(C([H])([H])[H])C([H])([H])[H])C([H])([H])c2c([H])c(OC([H])([H])C([H])([H])C([H])([H])C(=NC([H])(C([H])([H])C(=O)N3C([H])([H])C([H])([H])C([H])([H])C([H])(n4nc(-c5c([H])c([H])c(Oc6c([H])c([H])c(F)c([H])c6F)c([H])c5[H])c(C(=O)N([H])[H])c4N([H])[H])C3([H])[H])C([H])([H])C([H])([H])C([H])([H])C([H])([H])[N+]([H])([H])[H])C([H])([H])[H])c([H])c([H])c2C1([H])[H]

$$$$
11:0:0
     RDKit          3D

 88 95  0  0  1  0  0  0  0  0999 V2000
  -28.8970  -22.5270   20.8850 C   0  0  0  0  0  3  0  0  0  0  0  0
  -29.4090  -21.2110   20.1230 C   0  0  0  0  0  3  0  0  0  0  0  0
  -29.6590  -19.8820   20.9930 C   0  0  0  0  0  2  0  0  0  0  0  0
  -30.5360  -17.4990   20.5000 C   0  0  0  0  0  0  0  0  0  0  0  0
  -28.2070  -18.1350   19.9670 C   0  0  0  0  0  1  0  0  0  0  0  0
  -29.5660  -18.4870   20.3810 N   0  0  0  0  0  0  0  0  0  0  0  0
  -31.7260  -17.8280   20.4830 O   0  0  0  0  0  0  0  0  0  0  0  0
  -30.4820  -15.8440   22.4470 C   0  0  0  0  0  1  0  0  0  0  0  0
  -30.1670  -15.9970   20.9350 C   0  0  0  0  0  3  0  0  0  0  0  0
  -30.8730  -14.7950   20.1380 C   0  0  0  0  0  0  0  0  0  0  0  0
  -30.5770  -12.6110   18.9380 C   0  0  0  0  0  2  0  0  0  0  0  0
  -29.5570  -12.7900   17.7920 C   0  0  0  0  0  2  0  0  0  0  0  0
  -28.1120  -12.6220   18.3000 C   0  0  0  0  0  2  0  0  0  0  0  0
  -27.8420  -13.4230   19.6000 C   0  0  0  0  0  3  0  0  0  0  0  0
  -28.9660  -13.1980   20.6330 C   0  0  0  0  0  2  0  0  0  0  0  0
  -30.2370  -13.5820   19.9980 N   0  0  0  0  0  0  0  0  0  0  0  0
  -31.9740  -14.9600   19.6000 O   0  0  0  0  0  0  0  0  0  0  0  0
  -25.4910  -14.0070   20.4590 C   0  0  0  0  0  0  0  0  0  0  0  0
  -24.4480  -13.2270   20.8730 C   0  0  0  0  0  0  0  0  0  0  0  0
  -24.9080  -11.8770   20.7910 C   0  0  0  0  0  0  0  0  0  0  0  0
  -26.5230  -13.1340   20.1510 N   0  0  0  0  0  0  0  0  0  0  0  0
  -26.1790  -11.8450   20.4100 N   0  0  0  0  0  0  0  0  0  0  0  0
  -24.1930  -10.6110   20.9980 C   0  0  0  0  0  0  0  0  0  0  0  0
  -24.6380   -9.6520   21.9340 C   0  0  0  0  0  3  0  0  0  0  0  0
  -23.9190   -8.4540   22.1260 C   0  0  0  0  0  3  0  0  0  0  0  0
  -22.7420   -8.2040   21.3810 C   0  0  0  0  0  0  0  0  0  0  0  0
  -22.3190   -9.1510   20.4310 C   0  0  0  0  0  3  0  0  0  0  0  0
  -23.0370  -10.3430   20.2370 C   0  0  0  0  0  3  0  0  0  0  0  0
  -21.9950   -7.0550   21.4830 O   0  0  0  0  0  0  0  0  0  0  0  0
  -21.9050   -6.3570   22.6590 C   0  0  0  0  0  0  0  0  0  0  0  0
  -21.4370   -6.9590   23.8500 C   0  0  0  0  0  3  0  0  0  0  0  0
  -21.2950   -6.1870   25.0200 C   0  0  0  0  0  3  0  0  0  0  0  0
  -21.6130   -4.8150   25.0010 C   0  0  0  0  0  0  0  0  0  0  0  0
  -22.0750   -4.2140   23.8190 C   0  0  0  0  0  3  0  0  0  0  0  0
  -22.2180   -4.9830   22.6500 C   0  0  0  0  0  0  0  0  0  0  0  0
  -22.6440   -4.3940   21.5060 F   0  0  0  0  0  0  0  0  0  0  0  0
  -21.4700   -4.0710   26.1220 F   0  0  0  0  0  0  0  0  0  0  0  0
  -23.0670  -13.6970   21.2290 C   0  0  0  0  0  0  0  0  0  0  0  0
  -22.3940  -12.9950   22.1340 N   0  0  0  0  0  0  0  0  0  0  0  0
  -22.5950  -14.7230   20.7390 O   0  0  0  0  0  0  0  0  0  0  0  0
  -22.7920  -12.1670   22.5510 H   0  0  0  0  0  0  0  0  0  0  0  0
  -21.4680  -13.2880   22.4150 H   0  0  0  0  0  0  0  0  0  0  0  0
  -25.6440  -15.3800   20.3000 N   0  0  0  0  0  0  0  0  0  0  0  0
  -24.8760  -16.0240   20.4610 H   0  0  0  0  0  0  0  0  0  0  0  0
  -26.4590  -15.8300   19.9050 H   0  0  0  0  0  0  0  0  0  0  0  0
  -28.8190  -23.9280   20.1040 C   0  0  0  0  0  3  0  0  0  0  0  0
  -28.3190  -25.2280   20.8960 C   0  0  0  0  0  3  0  0  0  0  0  0
  -28.3920  -26.5610   20.2480 O   0  0  0  0  0  0  0  0  0  0  0  0
  -24.6100  -31.9180   23.2570 C   0  0  0  0  0  0  0  0  0  0  0  0
  -27.2490  -27.3720   20.2470 C   0  0  0  0  0  0  0  0  0  0  0  0
  -23.4010  -30.4910   21.6390 C   0  0  0  0  0  3  0  0  0  0  0  0
  -24.8580  -28.9370   20.2170 C   0  0  0  0  0  0  0  0  0  0  0  0
  -25.9320  -30.8460   21.4200 C   0  0  0  0  0  2  0  0  0  0  0  0
  -26.0250  -29.4610   20.7900 C   0  0  0  0  0  0  0  0  0  0  0  0
  -27.2240  -28.6920   20.7900 C   0  0  0  0  0  3  0  0  0  0  0  0
  -26.0620  -26.8870   19.6610 C   0  0  0  0  0  3  0  0  0  0  0  0
  -24.8780  -27.6540   19.6430 C   0  0  0  0  0  3  0  0  0  0  0  0
  -23.6090  -29.7950   20.2670 C   0  0  0  0  0  2  0  0  0  0  0  0
  -24.6660  -31.1040   22.1600 N   0  0  0  0  0  0  0  0  0  0  0  0
  -23.5320  -32.1870   23.8060 O   0  0  0  0  0  0  0  0  0  0  0  0
  -22.7610  -29.4800   22.6200 C   0  0  0  0  0  0  0  0  0  0  0  0
  -21.4390  -29.2770   22.5050 N   0  0  0  0  0  0  0  0  0  0  0  0
  -23.4570  -28.8770   23.4430 O   0  0  0  0  0  0  0  0  0  0  0  0
  -20.9360  -29.8110   21.8090 H   0  0  0  0  0  0  0  0  0  0  0  0
  -18.0890  -28.0190   23.0350 C   0  0  0  0  0  0  0  0  0  0  0  0
  -20.6410  -28.3360   23.2940 C   0  0  0  0  0  3  0  0  0  0  0  0
  -20.7730  -26.8970   22.7420 C   0  0  0  0  0  2  0  0  0  0  0  0
  -19.6750  -26.5350   21.7370 C   0  0  0  0  0  2  0  0  0  0  0  0
  -18.2920  -26.6630   22.3800 C   0  0  0  0  0  2  0  0  0  0  0  0
  -19.1920  -28.8110   23.4500 C   0  0  0  0  0  0  0  0  0  0  0  0
  -18.9480  -30.0790   24.0220 C   0  0  0  0  0  3  0  0  0  0  0  0
  -17.6330  -30.5550   24.1830 C   0  0  0  0  0  3  0  0  0  0  0  0
  -16.5440  -29.7610   23.7850 C   0  0  0  0  0  3  0  0  0  0  0  0
  -16.7730  -28.4950   23.2180 C   0  0  0  0  0  3  0  0  0  0  0  0
  -25.8950  -32.5680   23.8570 C   0  0  0  0  0  3  0  0  0  0  0  0
  -25.5790  -33.9670   24.1750 N   0  0  0  0  0  0  0  0  0  0  0  0
  -25.9060  -35.0160   23.4060 C   0  0  0  0  0  0  0  0  0  0  0  0
  -26.5740  -34.9050   22.3750 O   0  0  0  0  0  0  0  0  0  0  0  0
  -24.9870  -34.1280   24.9770 H   0  0  0  0  0  0  0  0  0  0  0  0
  -24.1750  -36.8000   23.0350 C   0  0  0  0  0  1  0  0  0  0  0  0
  -25.4150  -36.4060   23.8540 C   0  0  0  0  0  3  0  0  0  0  0  0
  -27.5470  -37.2990   24.6840 C   0  0  0  0  0  1  0  0  0  0  0  0
  -26.4460  -37.4610   23.7360 N   0  0  0  0  0  0  0  0  0  0  0  0
  -26.0360  -38.3800   23.8830 H   0  0  0  0  0  0  0  0  0  0  0  0
  -26.4320  -31.8160   25.1370 C   0  0  1  0  0  0  0  0  0  0  0  0
  -25.3520  -31.5840   26.2180 C   0  0  0  0  0  1  0  0  0  0  0  0
  -27.0230  -30.4400   24.7590 C   0  0  0  0  0  1  0  0  0  0  0  0
  -27.5830  -32.6300   25.7760 C   0  0  0  0  0  1  0  0  0  0  0  0
  2  1  2  0
  2  3  1  0
  4  9  1  0
  5  6  1  0
  6  4  1  0
  6  3  1  0
  7  4  2  0
  9  8  1  0
 10  9  1  0
 11 16  1  0
 12 13  1  0
 12 11  1  0
 14 13  1  0
 14 21  1  0
 14 15  1  0
 16 10  1  0
 16 15  1  0
 17 10  2  0
 18 19  2  0
 19 38  1  0
 20 19  1  0
 20 23  1  0
 21 22  1  0
 21 18  1  0
 22 20  2  0
 23 24  1  0
 24 25  2  0
 26 29  1  0
 26 25  1  0
 27 26  2  0
 28 27  1  0
 28 23  2  0
 29 30  1  0
 30 31  1  0
 31 32  2  0
 33 32  1  0
 33 37  1  0
 34 33  2  0
 35 30  2  0
 35 34  1  0
 36 35  1  0
 38 39  1  0
 39 42  1  0
 39 41  1  0
 40 38  2  0
 43 18  1  0
 43 44  1  0
 45 43  1  0
 46  1  1  0
 46 47  2  0
 48 47  1  0
 49 60  2  0
 50 48  1  0
 50 55  1  0
 51 59  1  0
 51 61  1  0
 52 58  1  0
 52 54  1  0
 53 59  1  0
 54 53  1  0
 55 54  2  0
 56 50  2  0
 57 56  1  0
 57 52  2  0
 58 51  1  0
 59 49  1  0
 61 63  2  0
 62 61  1  0
 64 62  1  0
 65 74  2  0
 65 70  1  0
 66 62  1  0
 66 70  1  0
 67 66  1  0
 68 69  1  0
 68 67  1  0
 69 65  1  0
 70 71  2  0
 71 72  1  0
 73 72  2  0
 74 73  1  0
 75 49  1  0
 75 76  1  0
 75 85  1  0
 76 79  1  0
 77 81  1  0
 77 76  1  0
 78 77  2  0
 81 80  1  0
 83 81  1  0
 83 84  1  0
 83 82  1  0
 85 88  1  1
 85 86  1  0
 87 85  1  0
M  ISO  4   9 100  10 100  47 101  48 101
M  END
>  <TORSDO>  (12) 
F 22

>  <SCORE>  (12) 
-12.286

>  <name>  (12) 
11

>  <ligand_id>  (12) 
11

>  <original_smiles>  (12) 
[H]c1c([H])c([H])c2c(c1[H])C([H])([H])C([H])([H])C([H])([H])C2([H])N([H])C(=O)C1([H])N(C(=O)C([H])(N([H])C(=O)C([H])(N([H])C([H])([H])[H])C([H])([H])[H])C(C([H])([H])[H])(C([H])([H])[H])C([H])([H])[H])C([H])([H])c2c([H])c(OC([H])([H])C([H])([H])C([H])([H])C([H])([H])C([H])([H])N(C(=O)C([H])(C(=O)N3C([H])([H])C([H])([H])C([H])([H])C([H])(n4nc(-c5c([H])c([H])c(Oc6c([H])c([H])c(F)c([H])c6F)c([H])c5[H])c(C(=O)N([H])[H])c4N([H])[H])C3([H])[H])C([H])([H])[H])C([H])([H])[H])c([H])c([H])c2C1([H])[H]

>  <smiles>  (12) 
[H]c1c([H])c([H])c2c(c1[H])C([H])([H])C([H])([H])C([H])([H])C2([H])N([H])C(=O)C1([H])N(C(=O)C([H])(N([H])C(=O)C([H])(N([H])C([H])([H])[H])C([H])([H])[H])C(C([H])([H])[H])(C([H])([H])[H])C([H])([H])[H])C([H])([H])c2c([H])c(OC([H])([H])C([H])([H])C([H])([H])C([H])([H])C([H])([H])N(C(=O)C([H])(C(=O)N3C([H])([H])C([H])([H])C([H])([H])C([H])(n4nc(-c5c([H])c([H])c(Oc6c([H])c([H])c(F)c([H])c6F)c([H])c5[H])c(C(=O)N([H])[H])c4N([H])[H])C3([H])[H])C([H])([H])[H])C([H])([H])[H])c([H])c([H])c2C1([H])[H]

$$$$
12:0:0
     RDKit          3D

 96103  0  0  1  0  0  0  0  0999 V2000
  -29.0880  -21.7320   20.3570 C   0  0  0  0  0  2  0  0  0  0  0  0
  -29.2690  -21.3920   18.8610 C   0  0  0  0  0  2  0  0  0  0  0  0
  -30.0120  -20.0490   18.6140 C   0  0  0  0  0  3  0  0  0  0  0  0
  -31.5330  -18.9780   20.3260 C   0  0  0  0  0  0  0  0  0  0  0  0
  -32.2830  -20.9590   19.1220 C   0  0  0  0  0  1  0  0  0  0  0  0
  -31.2660  -19.9330   19.3960 N   0  0  0  0  0  0  0  0  0  0  0  0
  -32.5570  -19.0220   21.0160 O   0  0  0  0  0  0  0  0  0  0  0  0
  -30.5670  -17.7890   20.5130 C   0  0  0  0  0  2  0  0  0  0  0  0
  -30.9980  -16.7600   21.5860 C   0  0  0  0  0  2  0  0  0  0  0  0
  -30.2160  -15.4260   21.5110 C   0  0  0  0  0  2  0  0  0  0  0  0
  -30.7000  -14.4420   20.4280 C   0  0  0  0  0  0  0  0  0  0  0  0
  -30.3200  -12.3930   19.0960 C   0  0  0  0  0  2  0  0  0  0  0  0
  -29.3500  -12.6730   17.9340 C   0  0  0  0  0  2  0  0  0  0  0  0
  -27.8880  -12.5170   18.3970 C   0  0  0  0  0  2  0  0  0  0  0  0
  -27.5940  -13.3040   19.7030 C   0  0  0  0  0  3  0  0  0  0  0  0
  -28.6690  -13.0050   20.7730 C   0  0  0  0  0  2  0  0  0  0  0  0
  -29.9870  -13.3100   20.1940 N   0  0  0  0  0  0  0  0  0  0  0  0
  -31.7260  -14.7140   19.7950 O   0  0  0  0  0  0  0  0  0  0  0  0
  -25.2020  -13.9110   20.4470 C   0  0  0  0  0  0  0  0  0  0  0  0
  -24.1410  -13.1380   20.8310 C   0  0  0  0  0  0  0  0  0  0  0  0
  -24.6020  -11.7870   20.7890 C   0  0  0  0  0  0  0  0  0  0  0  0
  -26.2460  -13.0310   20.1990 N   0  0  0  0  0  0  0  0  0  0  0  0
  -25.8860  -11.7490   20.4580 N   0  0  0  0  0  0  0  0  0  0  0  0
  -23.8800  -10.5230   20.9890 C   0  0  0  0  0  0  0  0  0  0  0  0
  -24.3380   -9.5500   21.9060 C   0  0  0  0  0  3  0  0  0  0  0  0
  -23.6190   -8.3500   22.0930 C   0  0  0  0  0  3  0  0  0  0  0  0
  -22.4290   -8.1140   21.3650 C   0  0  0  0  0  0  0  0  0  0  0  0
  -21.9920   -9.0750   20.4370 C   0  0  0  0  0  3  0  0  0  0  0  0
  -22.7100  -10.2670   20.2460 C   0  0  0  0  0  3  0  0  0  0  0  0
  -21.6790   -6.9680   21.4640 O   0  0  0  0  0  0  0  0  0  0  0  0
  -21.6670   -6.2110   22.6080 C   0  0  0  0  0  0  0  0  0  0  0  0
  -21.2890   -6.7520   23.8560 C   0  0  0  0  0  3  0  0  0  0  0  0
  -21.2240   -5.9220   24.9940 C   0  0  0  0  0  3  0  0  0  0  0  0
  -21.5270   -4.5520   24.8840 C   0  0  0  0  0  0  0  0  0  0  0  0
  -21.8990   -4.0110   23.6410 C   0  0  0  0  0  3  0  0  0  0  0  0
  -21.9650   -4.8380   22.5060 C   0  0  0  0  0  0  0  0  0  0  0  0
  -22.3040   -4.3070   21.3070 F   0  0  0  0  0  0  0  0  0  0  0  0
  -21.4560   -3.7530   25.9730 F   0  0  0  0  0  0  0  0  0  0  0  0
  -22.7470  -13.6120   21.1300 C   0  0  0  0  0  0  0  0  0  0  0  0
  -22.0350  -12.9130   22.0070 N   0  0  0  0  0  0  0  0  0  0  0  0
  -22.2980  -14.6380   20.6200 O   0  0  0  0  0  0  0  0  0  0  0  0
  -22.4090  -12.0830   22.4420 H   0  0  0  0  0  0  0  0  0  0  0  0
  -21.1000  -13.2130   22.2470 H   0  0  0  0  0  0  0  0  0  0  0  0
  -25.3640  -15.2820   20.2690 N   0  0  0  0  0  0  0  0  0  0  0  0
  -24.6000  -15.9390   20.3890 H   0  0  0  0  0  0  0  0  0  0  0  0
  -26.2180  -15.7210   19.9480 H   0  0  0  0  0  0  0  0  0  0  0  0
  -30.7780  -18.3370   16.8330 C   0  0  0  0  0  1  0  0  0  0  0  0
  -30.2400  -19.7490   17.1140 C   0  0  0  0  0  2  0  0  0  0  0  0
  -28.1830  -22.9450   20.6870 C   0  0  0  0  0  3  0  0  0  0  0  0
  -26.7650  -22.6550   20.3830 N   0  0  0  0  0  4  0  0  0  0  0  0
  -26.6200  -22.4990   19.4010 H   0  0  0  0  0  0  0  0  0  0  0  0
  -26.1690  -23.4110   20.6740 H   0  0  0  0  0  0  0  0  0  0  0  0
  -26.4640  -21.8320   20.8750 H   0  0  0  0  0  0  0  0  0  0  0  0
  -28.6490  -24.2880   20.0600 C   0  0  0  0  0  2  0  0  0  0  0  0
  -28.2650  -25.5040   20.9290 C   0  0  0  0  0  2  0  0  0  0  0  0
  -28.3730  -26.7450   20.2230 O   0  0  0  0  0  0  0  0  0  0  0  0
  -24.5280  -31.8960   23.2590 C   0  0  0  0  0  0  0  0  0  0  0  0
  -27.2070  -27.4720   20.2060 C   0  0  0  0  0  0  0  0  0  0  0  0
  -23.3330  -30.4780   21.6200 C   0  0  0  0  0  3  0  0  0  0  0  0
  -24.8000  -28.9430   20.2080 C   0  0  0  0  0  0  0  0  0  0  0  0
  -25.8550  -30.8560   21.4250 C   0  0  0  0  0  2  0  0  0  0  0  0
  -25.9520  -29.4850   20.7930 C   0  0  0  0  0  0  0  0  0  0  0  0
  -27.1620  -28.7570   20.7870 C   0  0  0  0  0  3  0  0  0  0  0  0
  -26.0420  -26.9370   19.6170 C   0  0  0  0  0  3  0  0  0  0  0  0
  -24.8380  -27.6660   19.6200 C   0  0  0  0  0  3  0  0  0  0  0  0
  -23.5490  -29.7910   20.2460 C   0  0  0  0  0  2  0  0  0  0  0  0
  -24.5900  -31.0910   22.1610 N   0  0  0  0  0  0  0  0  0  0  0  0
  -23.4430  -32.1650   23.7940 O   0  0  0  0  0  0  0  0  0  0  0  0
  -22.6860  -29.4580   22.5850 C   0  0  0  0  0  0  0  0  0  0  0  0
  -21.3630  -29.2670   22.4530 N   0  0  0  0  0  0  0  0  0  0  0  0
  -23.3710  -28.8390   23.4040 O   0  0  0  0  0  0  0  0  0  0  0  0
  -20.8730  -29.8190   21.7620 H   0  0  0  0  0  0  0  0  0  0  0  0
  -17.9920  -28.0580   22.9400 C   0  0  0  0  0  0  0  0  0  0  0  0
  -20.5460  -28.3300   23.2240 C   0  0  0  0  0  3  0  0  0  0  0  0
  -20.6580  -26.8950   22.6590 C   0  0  0  0  0  2  0  0  0  0  0  0
  -19.5650  -26.5610   21.6390 C   0  0  0  0  0  2  0  0  0  0  0  0
  -18.1780  -26.7060   22.2730 C   0  0  0  0  0  2  0  0  0  0  0  0
  -19.1050  -28.8280   23.3700 C   0  0  0  0  0  0  0  0  0  0  0  0
  -18.8780  -30.0960   23.9490 C   0  0  0  0  0  3  0  0  0  0  0  0
  -17.5710  -30.5940   24.1030 C   0  0  0  0  0  3  0  0  0  0  0  0
  -16.4710  -29.8200   23.6890 C   0  0  0  0  0  3  0  0  0  0  0  0
  -16.6830  -28.5550   23.1150 C   0  0  0  0  0  3  0  0  0  0  0  0
  -25.8100  -32.5360   23.8780 C   0  0  0  0  0  3  0  0  0  0  0  0
  -26.3230  -31.7790   25.1640 C   0  0  1  0  0  0  0  0  0  0  0  0
  -25.2290  -31.5570   26.2340 C   0  0  0  0  0  1  0  0  0  0  0  0
  -26.9060  -30.3960   24.7880 C   0  0  0  0  0  1  0  0  0  0  0  0
  -27.4750  -32.5780   25.8180 C   0  0  0  0  0  1  0  0  0  0  0  0
  -25.5000  -33.9370   24.1880 N   0  0  0  0  0  0  0  0  0  0  0  0
  -25.8370  -34.9790   23.4160 C   0  0  0  0  0  0  0  0  0  0  0  0
  -26.5150  -34.8620   22.3920 O   0  0  0  0  0  0  0  0  0  0  0  0
  -24.9050  -34.1030   24.9870 H   0  0  0  0  0  0  0  0  0  0  0  0
  -24.1120  -36.7610   23.0150 C   0  0  0  0  0  1  0  0  0  0  0  0
  -25.3420  -36.3720   23.8490 C   0  0  0  0  0  3  0  0  0  0  0  0
  -27.4710  -37.2640   24.6880 C   0  0  0  0  0  1  0  0  0  0  0  0
  -26.3750  -37.4260   23.7360 N   0  0  0  0  0  0  0  0  0  0  0  0
  -25.9670  -38.3460   23.8740 H   0  0  0  0  0  0  0  0  0  0  0  0
  1 49  1  0
  2  1  1  0
  3 48  1  0
  3  2  1  0
  3  6  1  0
  4  8  1  0
  4  7  2  0
  5  6  1  0
  6  4  1  0
  8  9  1  0
 10  9  1  0
 11 10  1  0
 12 17  1  0
 13 14  1  0
 13 12  1  0
 15 14  1  0
 15 22  1  0
 15 16  1  0
 17 11  1  0
 17 16  1  0
 18 11  2  0
 19 20  2  0
 20 39  1  0
 21 20  1  0
 21 24  1  0
 22 19  1  0
 22 23  1  0
 23 21  2  0
 24 25  1  0
 25 26  2  0
 27 30  1  0
 27 26  1  0
 28 27  2  0
 29 28  1  0
 29 24  2  0
 30 31  1  0
 31 32  1  0
 32 33  2  0
 34 33  1  0
 34 38  1  0
 35 34  2  0
 36 31  2  0
 36 35  1  0
 37 36  1  0
 39 40  1  0
 40 43  1  0
 40 42  1  0
 41 39  2  0
 44 45  1  0
 44 19  1  0
 46 44  1  0
 47 48  1  0
 49 54  1  0
 50 52  1  0
 50 49  1  0
 50 53  1  0
 51 50  1  0
 54 55  1  0
 56 55  1  0
 57 68  2  0
 58 56  1  0
 58 63  1  0
 59 67  1  0
 59 69  1  0
 60 66  1  0
 60 62  1  0
 61 67  1  0
 62 61  1  0
 63 62  2  0
 64 65  1  0
 64 58  2  0
 65 60  2  0
 66 59  1  0
 67 57  1  0
 69 71  2  0
 70 69  1  0
 72 70  1  0
 73 82  2  0
 73 78  1  0
 74 70  1  0
 74 78  1  0
 75 74  1  0
 76 77  1  0
 76 75  1  0
 77 73  1  0
 78 79  2  0
 79 80  1  0
 81 80  2  0
 82 81  1  0
 83 57  1  0
 83 88  1  0
 83 84  1  0
 84 87  1  1
 84 85  1  0
 86 84  1  0
 88 91  1  0
 89 93  1  0
 89 88  1  0
 90 89  2  0
 93 92  1  0
 95 93  1  0
 95 96  1  0
 95 94  1  0
M  ISO  4  10 100  11 100  55 101  56 101
M  END
>  <TORSDO>  (13) 
F 27

>  <SCORE>  (13) 
-12.010

>  <name>  (13) 
12

>  <ligand_id>  (13) 
12

>  <original_smiles>  (13) 
[H]c1c([H])c([H])c2c(c1[H])C([H])([H])C([H])([H])C([H])([H])C2([H])N([H])C(=O)C1([H])N(C(=O)C([H])(N([H])C(=O)C([H])(N([H])C([H])([H])[H])C([H])([H])[H])C(C([H])([H])[H])(C([H])([H])[H])C([H])([H])[H])C([H])([H])c2c([H])c(OC([H])([H])C([H])([H])C([H])(C([H])([H])C([H])([H])C([H])(N(C(=O)C([H])([H])C([H])([H])C([H])([H])C(=O)N3C([H])([H])C([H])([H])C([H])([H])C([H])(n4nc(-c5c([H])c([H])c(Oc6c([H])c([H])c(F)c([H])c6F)c([H])c5[H])c(C(=O)N([H])[H])c4N([H])[H])C3([H])[H])C([H])([H])[H])C([H])([H])C([H])([H])[H])[N+]([H])([H])[H])c([H])c([H])c2C1([H])[H]

>  <smiles>  (13) 
[H]c1c([H])c([H])c2c(c1[H])C([H])([H])C([H])([H])C([H])([H])C2([H])N([H])C(=O)C1([H])N(C(=O)C([H])(N([H])C(=O)C([H])(N([H])C([H])([H])[H])C([H])([H])[H])C(C([H])([H])[H])(C([H])([H])[H])C([H])([H])[H])C([H])([H])c2c([H])c(OC([H])([H])C([H])([H])C([H])(C([H])([H])C([H])([H])C([H])(N(C(=O)C([H])([H])C([H])([H])C([H])([H])C(=O)N3C([H])([H])C([H])([H])C([H])([H])C([H])(n4nc(-c5c([H])c([H])c(Oc6c([H])c([H])c(F)c([H])c6F)c([H])c5[H])c(C(=O)N([H])[H])c4N([H])[H])C3([H])[H])C([H])([H])[H])C([H])([H])C([H])([H])[H])[N+]([H])([H])[H])c([H])c([H])c2C1([H])[H]

$$$$
13:0:0
     RDKit          3D

 91 98  0  0  1  0  0  0  0  0999 V2000
  -29.4310  -19.8890   20.4810 C   0  0  0  0  0  0  0  0  0  0  0  0
  -28.5050  -19.4860   21.1880 O   0  0  0  0  0  0  0  0  0  0  0  0
  -29.1440  -21.2260   19.6780 C   0  0  0  0  0  3  0  0  0  0  0  0
  -28.6310  -22.5110   20.4770 C   0  0  0  0  0  3  0  0  0  0  0  0
  -28.7250  -23.9540   19.7980 C   0  0  0  0  0  3  0  0  0  0  0  0
  -27.9980  -25.1470   20.5520 C   0  0  0  0  0  3  0  0  0  0  0  0
  -28.2010  -26.5380   20.0920 O   0  0  0  0  0  0  0  0  0  0  0  0
  -24.4990  -31.8710   23.2250 C   0  0  0  0  0  0  0  0  0  0  0  0
  -27.0850  -27.3760   20.0890 C   0  0  0  0  0  0  0  0  0  0  0  0
  -23.2760  -30.4900   21.5800 C   0  0  0  0  0  3  0  0  0  0  0  0
  -24.7140  -28.9640   20.1190 C   0  0  0  0  0  0  0  0  0  0  0  0
  -25.8090  -30.8300   21.3610 C   0  0  0  0  0  2  0  0  0  0  0  0
  -25.8880  -29.4610   20.7010 C   0  0  0  0  0  0  0  0  0  0  0  0
  -27.0790  -28.6800   20.6670 C   0  0  0  0  0  3  0  0  0  0  0  0
  -25.8920  -26.9260   19.4850 C   0  0  0  0  0  3  0  0  0  0  0  0
  -24.7210  -27.7070   19.4990 C   0  0  0  0  0  3  0  0  0  0  0  0
  -23.4740  -29.8290   20.1920 C   0  0  0  0  0  2  0  0  0  0  0  0
  -24.5480  -31.0830   22.1130 N   0  0  0  0  0  0  0  0  0  0  0  0
  -23.4220  -32.1350   23.7790 O   0  0  0  0  0  0  0  0  0  0  0  0
  -22.6340  -29.4560   22.5380 C   0  0  0  0  0  0  0  0  0  0  0  0
  -21.3100  -29.2550   22.4140 N   0  0  0  0  0  0  0  0  0  0  0  0
  -23.3240  -28.8400   23.3540 O   0  0  0  0  0  0  0  0  0  0  0  0
  -20.8130  -29.8120   21.7340 H   0  0  0  0  0  0  0  0  0  0  0  0
  -17.9590  -27.9760   22.8700 C   0  0  0  0  0  0  0  0  0  0  0  0
  -20.5050  -28.3000   23.1780 C   0  0  0  0  0  3  0  0  0  0  0  0
  -20.6520  -26.8670   22.6160 C   0  0  0  0  0  2  0  0  0  0  0  0
  -19.5750  -26.5050   21.5890 C   0  0  0  0  0  2  0  0  0  0  0  0
  -18.1810  -26.6260   22.2100 C   0  0  0  0  0  2  0  0  0  0  0  0
  -19.0500  -28.7700   23.3110 C   0  0  0  0  0  0  0  0  0  0  0  0
  -18.7900  -30.0340   23.8820 C   0  0  0  0  0  3  0  0  0  0  0  0
  -17.4700  -30.5010   24.0250 C   0  0  0  0  0  3  0  0  0  0  0  0
  -16.3950  -29.7020   23.6010 C   0  0  0  0  0  3  0  0  0  0  0  0
  -16.6380  -28.4420   23.0300 C   0  0  0  0  0  3  0  0  0  0  0  0
  -25.7890  -32.5000   23.8390 C   0  0  0  0  0  3  0  0  0  0  0  0
  -25.4940  -33.9000   24.1670 N   0  0  0  0  0  0  0  0  0  0  0  0
  -25.8270  -34.9520   23.4070 C   0  0  0  0  0  0  0  0  0  0  0  0
  -26.4920  -34.8400   22.3710 O   0  0  0  0  0  0  0  0  0  0  0  0
  -24.9160  -34.0590   24.9810 H   0  0  0  0  0  0  0  0  0  0  0  0
  -24.1160  -36.7530   23.0560 C   0  0  0  0  0  1  0  0  0  0  0  0
  -25.3540  -36.3420   23.8650 C   0  0  0  0  0  3  0  0  0  0  0  0
  -27.4950  -37.2140   24.6930 C   0  0  0  0  0  1  0  0  0  0  0  0
  -26.3950  -37.3830   23.7480 N   0  0  0  0  0  0  0  0  0  0  0  0
  -25.9960  -38.3080   23.8890 H   0  0  0  0  0  0  0  0  0  0  0  0
  -26.3110  -31.7290   25.1100 C   0  0  1  0  0  0  0  0  0  0  0  0
  -25.2220  -31.4920   26.1860 C   0  0  0  0  0  1  0  0  0  0  0  0
  -26.8970  -30.3530   24.7100 C   0  0  0  0  0  1  0  0  0  0  0  0
  -27.4660  -32.5200   25.7650 C   0  0  0  0  0  1  0  0  0  0  0  0
  -30.8480  -19.1090   20.4190 C   0  0  0  0  0  3  0  0  0  0  0  0
  -32.6690  -19.4930   22.2300 C   0  0  0  0  0  1  0  0  0  0  0  0
  -32.6980  -20.8420   20.2230 C   0  0  0  0  0  1  0  0  0  0  0  0
  -31.8240  -20.0390   21.1280 N   0  0  1  0  0  4  0  0  0  0  0  0
  -31.2230  -20.6990   21.6030 H   0  0  0  0  0  0  0  0  0  0  0  0
  -30.3310  -17.3180   22.3430 C   0  0  0  0  0  1  0  0  0  0  0  0
  -30.9120  -17.5390   20.9200 C   0  0  0  0  0  3  0  0  0  0  0  0
  -30.4280  -16.3080   20.0080 C   0  0  0  0  0  2  0  0  0  0  0  0
  -31.2330  -14.9260   19.9850 C   0  0  0  0  0  0  0  0  0  0  0  0
  -30.9860  -12.6210   19.0700 C   0  0  0  0  0  2  0  0  0  0  0  0
  -30.0290  -12.6780   17.8560 C   0  0  0  0  0  2  0  0  0  0  0  0
  -28.5640  -12.5500   18.3120 C   0  0  0  0  0  2  0  0  0  0  0  0
  -28.2220  -13.4990   19.4880 C   0  0  0  0  0  3  0  0  0  0  0  0
  -29.2920  -13.4320   20.6000 C   0  0  0  0  0  2  0  0  0  0  0  0
  -30.5980  -13.7080   19.9950 N   0  0  0  0  0  0  0  0  0  0  0  0
  -32.4280  -14.9880   19.6840 O   0  0  0  0  0  0  0  0  0  0  0  0
  -25.8660  -14.1690   20.2620 C   0  0  0  0  0  0  0  0  0  0  0  0
  -24.7830  -13.4280   20.6520 C   0  0  0  0  0  0  0  0  0  0  0  0
  -25.2060  -12.0640   20.6170 C   0  0  0  0  0  0  0  0  0  0  0  0
  -26.8800  -13.2580   20.0080 N   0  0  0  0  0  0  0  0  0  0  0  0
  -26.4900  -11.9870   20.2860 N   0  0  0  0  0  0  0  0  0  0  0  0
  -24.4470  -10.8220   20.8190 C   0  0  0  0  0  0  0  0  0  0  0  0
  -24.8140   -9.8870   21.8130 C   0  0  0  0  0  3  0  0  0  0  0  0
  -24.0580   -8.7090   22.0020 C   0  0  0  0  0  3  0  0  0  0  0  0
  -22.9210   -8.4590   21.1960 C   0  0  0  0  0  0  0  0  0  0  0  0
  -22.5740   -9.3820   20.1930 C   0  0  0  0  0  3  0  0  0  0  0  0
  -23.3300  -10.5510   20.0030 C   0  0  0  0  0  3  0  0  0  0  0  0
  -22.1430   -7.3280   21.2910 O   0  0  0  0  0  0  0  0  0  0  0  0
  -21.9460   -6.6890   22.4890 C   0  0  0  0  0  0  0  0  0  0  0  0
  -21.3560   -7.3390   23.5940 C   0  0  0  0  0  3  0  0  0  0  0  0
  -21.1080   -6.6240   24.7830 C   0  0  0  0  0  3  0  0  0  0  0  0
  -21.4420   -5.2600   24.8660 C   0  0  0  0  0  0  0  0  0  0  0  0
  -22.0270   -4.6080   23.7660 C   0  0  0  0  0  3  0  0  0  0  0  0
  -22.2750   -5.3200   22.5800 C   0  0  0  0  0  0  0  0  0  0  0  0
  -22.8170   -4.6830   21.5150 F   0  0  0  0  0  0  0  0  0  0  0  0
  -21.1990   -4.5710   26.0050 F   0  0  0  0  0  0  0  0  0  0  0  0
  -23.4030  -13.9440   20.9480 C   0  0  0  0  0  0  0  0  0  0  0  0
  -22.6820  -13.2770   21.8410 N   0  0  0  0  0  0  0  0  0  0  0  0
  -22.9800  -14.9730   20.4230 O   0  0  0  0  0  0  0  0  0  0  0  0
  -23.0380  -12.4410   22.2790 H   0  0  0  0  0  0  0  0  0  0  0  0
  -21.7600  -13.6060   22.0890 H   0  0  0  0  0  0  0  0  0  0  0  0
  -26.0670  -15.5340   20.0780 N   0  0  0  0  0  0  0  0  0  0  0  0
  -25.3250  -16.2140   20.2000 H   0  0  0  0  0  0  0  0  0  0  0  0
  -26.9230  -15.9430   19.7260 H   0  0  0  0  0  0  0  0  0  0  0  0
  1  2  2  0
  3  4  2  0
  3  1  1  0
  5  4  1  0
  5  6  2  0
  7  6  1  0
  8 19  2  0
  9  7  1  0
  9 14  1  0
 10 18  1  0
 10 20  1  0
 11 17  1  0
 11 13  1  0
 12 18  1  0
 13 12  1  0
 14 13  2  0
 15 16  1  0
 15  9  2  0
 16 11  2  0
 17 10  1  0
 18  8  1  0
 20 22  2  0
 21 20  1  0
 23 21  1  0
 24 33  2  0
 24 29  1  0
 25 21  1  0
 25 29  1  0
 26 25  1  0
 27 28  1  0
 27 26  1  0
 28 24  1  0
 29 30  2  0
 30 31  1  0
 32 31  2  0
 33 32  1  0
 34  8  1  0
 34 35  1  0
 34 44  1  0
 35 38  1  0
 36 40  1  0
 36 35  1  0
 37 36  2  0
 40 39  1  0
 42 40  1  0
 42 43  1  0
 42 41  1  0
 44 47  1  1
 44 45  1  0
 46 44  1  0
 48  1  1  0
 48 54  1  0
 48 51  1  0
 50 51  1  0
 51 52  1  1
 51 49  1  0
 54 53  1  0
 55 54  1  0
 56 62  1  0
 56 55  1  0
 57 62  1  0
 58 59  1  0
 58 57  1  0
 60 59  1  0
 60 67  1  0
 60 61  1  0
 62 61  1  0
 63 56  2  0
 64 65  2  0
 65 84  1  0
 66 65  1  0
 66 69  1  0
 67 64  1  0
 67 68  1  0
 68 66  2  0
 69 70  1  0
 70 71  2  0
 72 75  1  0
 72 71  1  0
 73 72  2  0
 74 73  1  0
 74 69  2  0
 75 76  1  0
 76 81  2  0
 76 77  1  0
 77 78  2  0
 78 79  1  0
 79 83  1  0
 80 79  2  0
 81 80  1  0
 82 81  1  0
 84 85  1  0
 85 88  1  0
 85 87  1  0
 86 84  2  0
 89 90  1  0
 89 64  1  0
 91 89  1  0
M  ISO  4   6 101   7 101  55 100  56 100
M  END
>  <TORSDO>  (14) 
F 24

>  <SCORE>  (14) 
-11.601

>  <name>  (14) 
13

>  <ligand_id>  (14) 
13

>  <original_smiles>  (14) 
[H]c1c([H])c([H])c2c(c1[H])C([H])([H])C([H])([H])C([H])([H])C2([H])N([H])C(=O)C1([H])N(C(=O)C([H])(N([H])C(=O)C([H])(N([H])C([H])([H])[H])C([H])([H])[H])C(C([H])([H])[H])(C([H])([H])[H])C([H])([H])[H])C([H])([H])c2c([H])c(OC([H])([H])C([H])([H])C([H])([H])C([H])([H])C(=O)C([H])(C([H])(C([H])([H])[H])C([H])([H])C(=O)N3C([H])([H])C([H])([H])C([H])([H])C([H])(n4nc(-c5c([H])c([H])c(Oc6c([H])c([H])c(F)c([H])c6F)c([H])c5[H])c(C(=O)N([H])[H])c4N([H])[H])C3([H])[H])[N+]([H])(C([H])([H])[H])C([H])([H])[H])c([H])c([H])c2C1([H])[H]

>  <smiles>  (14) 
[H]c1c([H])c([H])c2c(c1[H])C([H])([H])C([H])([H])C([H])([H])C2([H])N([H])C(=O)C1([H])N(C(=O)C([H])(N([H])C(=O)C([H])(N([H])C([H])([H])[H])C([H])([H])[H])C(C([H])([H])[H])(C([H])([H])[H])C([H])([H])[H])C([H])([H])c2c([H])c(OC([H])([H])C([H])([H])C([H])([H])C([H])([H])C(=O)C([H])(C([H])(C([H])([H])[H])C([H])([H])C(=O)N3C([H])([H])C([H])([H])C([H])([H])C([H])(n4nc(-c5c([H])c([H])c(Oc6c([H])c([H])c(F)c([H])c6F)c([H])c5[H])c(C(=O)N([H])[H])c4N([H])[H])C3([H])[H])[N+]([H])(C([H])([H])[H])C([H])([H])[H])c([H])c([H])c2C1([H])[H]

$$$$
14:0:0
     RDKit          3D

 96105  0  0  1  0  0  0  0  0999 V2000
  -30.0540  -21.4710   20.1770 C   0  0  0  0  0  3  0  0  0  0  0  0
  -30.0870  -20.1070   19.7890 C   0  0  0  0  0  3  0  0  0  0  0  0
  -30.3460  -20.7970   22.4930 C   0  0  0  0  0  3  0  0  0  0  0  0
  -30.3950  -19.4270   22.1340 C   0  0  0  0  0  0  0  0  0  0  0  0
  -30.1950  -21.8270   21.5390 C   0  0  0  0  0  0  0  0  0  0  0  0
  -30.2690  -19.0890   20.7550 C   0  0  0  0  0  0  0  0  0  0  0  0
  -30.5730  -18.2140   22.8720 C   0  0  0  0  0  0  0  0  0  0  0  0
  -30.6000  -17.1830   21.9690 C   0  0  0  0  0  0  0  0  0  0  0  0
  -30.3910  -17.6900   20.6780 N   0  0  0  0  0  0  0  0  0  0  0  0
  -30.7290  -18.0950   24.2270 O   0  0  0  0  0  0  0  0  0  0  0  0
  -30.6460  -18.9660   24.6040 H   0  0  0  0  0  0  0  0  0  0  0  0
  -30.2250  -23.2780   22.0530 C   0  0  0  0  0  2  0  0  0  0  0  0
  -30.1350  -24.4550   21.0430 C   0  0  0  0  0  2  0  0  0  0  0  0
  -29.7260  -25.7820   21.7480 C   0  0  0  0  0  2  0  0  0  0  0  0
  -29.7580  -26.9350   20.8910 O   0  0  0  0  0  0  0  0  0  0  0  0
  -24.8130  -31.5420   23.1920 C   0  0  0  0  0  0  0  0  0  0  0  0
  -28.5290  -27.5240   20.6960 C   0  0  0  0  0  0  0  0  0  0  0  0
  -24.0980  -29.9650   21.4250 C   0  0  0  0  0  3  0  0  0  0  0  0
  -25.9700  -28.6510   20.2870 C   0  0  0  0  0  0  0  0  0  0  0  0
  -26.5420  -30.6980   21.6060 C   0  0  0  0  0  2  0  0  0  0  0  0
  -26.9310  -29.3490   21.0310 C   0  0  0  0  0  0  0  0  0  0  0  0
  -28.2140  -28.7920   21.2370 C   0  0  0  0  0  3  0  0  0  0  0  0
  -27.5560  -26.8370   19.9440 C   0  0  0  0  0  3  0  0  0  0  0  0
  -26.2770  -27.3910   19.7400 C   0  0  0  0  0  3  0  0  0  0  0  0
  -24.6180  -29.3120   20.1160 C   0  0  0  0  0  2  0  0  0  0  0  0
  -25.1580  -30.7520   22.1350 N   0  0  0  0  0  0  0  0  0  0  0  0
  -23.6330  -31.6520   23.5510 O   0  0  0  0  0  0  0  0  0  0  0  0
  -23.4610  -28.8650   22.3040 C   0  0  0  0  0  0  0  0  0  0  0  0
  -22.2190  -28.4780   21.9700 N   0  0  0  0  0  0  0  0  0  0  0  0
  -24.0850  -28.3620   23.2410 O   0  0  0  0  0  0  0  0  0  0  0  0
  -21.7720  -28.9400   21.1900 H   0  0  0  0  0  0  0  0  0  0  0  0
  -19.0210  -26.7930   21.9790 C   0  0  0  0  0  0  0  0  0  0  0  0
  -21.4380  -27.4330   22.6320 C   0  0  0  0  0  3  0  0  0  0  0  0
  -21.8390  -26.0310   22.1180 C   0  0  0  0  0  2  0  0  0  0  0  0
  -20.9680  -25.5420   20.9560 C   0  0  0  0  0  2  0  0  0  0  0  0
  -19.4970  -25.4820   21.3750 C   0  0  0  0  0  2  0  0  0  0  0  0
  -19.9340  -27.7150   22.5530 C   0  0  0  0  0  0  0  0  0  0  0  0
  -19.4440  -28.9340   23.0700 C   0  0  0  0  0  3  0  0  0  0  0  0
  -18.0710  -29.2370   23.0190 C   0  0  0  0  0  3  0  0  0  0  0  0
  -17.1690  -28.3140   22.4610 C   0  0  0  0  0  3  0  0  0  0  0  0
  -17.6440  -27.0920   21.9500 C   0  0  0  0  0  3  0  0  0  0  0  0
  -25.8800  -32.3620   23.9840 C   0  0  0  0  0  3  0  0  0  0  0  0
  -25.3720  -33.7330   24.1200 N   0  0  0  0  0  0  0  0  0  0  0  0
  -25.7230  -34.7560   23.3300 C   0  0  0  0  0  0  0  0  0  0  0  0
  -26.5740  -34.6560   22.4420 O   0  0  0  0  0  0  0  0  0  0  0  0
  -24.6290  -33.8750   24.7880 H   0  0  0  0  0  0  0  0  0  0  0  0
  -23.9140  -36.2980   22.5090 C   0  0  0  0  0  1  0  0  0  0  0  0
  -25.0170  -36.1060   23.5610 C   0  0  0  0  0  3  0  0  0  0  0  0
  -26.8550  -37.2970   24.6710 C   0  0  0  0  0  1  0  0  0  0  0  0
  -25.9370  -37.2630   23.5340 N   0  0  0  0  0  0  0  0  0  0  0  0
  -25.4170  -38.1370   23.5230 H   0  0  0  0  0  0  0  0  0  0  0  0
  -26.2160  -31.7460   25.3970 C   0  0  1  0  0  0  0  0  0  0  0  0
  -24.9650  -31.4020   26.2400 C   0  0  0  0  0  1  0  0  0  0  0  0
  -27.0510  -30.4530   25.2470 C   0  0  0  0  0  1  0  0  0  0  0  0
  -27.0820  -32.7400   26.2080 C   0  0  0  0  0  1  0  0  0  0  0  0
  -30.8510  -15.7300   22.2790 C   0  0  0  0  0  2  0  0  0  0  0  0
  -32.5240  -13.8100   22.2660 C   0  0  0  0  0  1  0  0  0  0  0  0
  -32.3310  -15.3300   22.2080 C   0  0  0  0  0  2  0  0  0  0  0  0
  -30.4050  -16.8810   19.4500 C   0  0  0  0  0  2  0  0  0  0  0  0
  -29.4830  -15.6240   19.4700 C   0  0  0  0  0  2  0  0  0  0  0  0
  -30.0740  -14.3970   18.7260 C   0  0  0  0  0  0  0  0  0  0  0  0
  -29.6750  -12.1240   17.8360 C   0  0  0  0  0  2  0  0  0  0  0  0
  -28.4390  -12.1600   16.9130 C   0  0  0  0  0  2  0  0  0  0  0  0
  -27.1420  -11.9700   17.7230 C   0  0  0  0  0  2  0  0  0  0  0  0
  -27.0740  -12.8960   18.9680 C   0  0  0  0  0  3  0  0  0  0  0  0
  -28.3940  -12.8360   19.7680 C   0  0  0  0  0  2  0  0  0  0  0  0
  -29.4980  -13.1700   18.8570 N   0  0  0  0  0  0  0  0  0  0  0  0
  -30.9970  -14.5940   17.9300 O   0  0  0  0  0  0  0  0  0  0  0  0
  -25.0580  -13.4490   20.4690 C   0  0  0  0  0  0  0  0  0  0  0  0
  -24.1070  -12.6550   21.0510 C   0  0  0  0  0  0  0  0  0  0  0  0
  -24.4470  -11.3120   20.7040 C   0  0  0  0  0  0  0  0  0  0  0  0
  -25.9210  -12.5860   19.8090 N   0  0  0  0  0  0  0  0  0  0  0  0
  -25.5730  -11.2870   20.0000 N   0  0  0  0  0  0  0  0  0  0  0  0
  -23.7340  -10.0500   20.9480 C   0  0  0  0  0  0  0  0  0  0  0  0
  -24.2960   -9.0240   21.7390 C   0  0  0  0  0  3  0  0  0  0  0  0
  -23.5830   -7.8290   21.9730 C   0  0  0  0  0  3  0  0  0  0  0  0
  -22.2940   -7.6530   21.4200 C   0  0  0  0  0  0  0  0  0  0  0  0
  -21.7470   -8.6680   20.6150 C   0  0  0  0  0  3  0  0  0  0  0  0
  -22.4600   -9.8550   20.3780 C   0  0  0  0  0  3  0  0  0  0  0  0
  -21.5380   -6.5150   21.5730 O   0  0  0  0  0  0  0  0  0  0  0  0
  -21.5680   -5.7810   22.7320 C   0  0  0  0  0  0  0  0  0  0  0  0
  -21.2050   -6.3400   23.9780 C   0  0  0  0  0  3  0  0  0  0  0  0
  -21.1840   -5.5320   25.1320 C   0  0  0  0  0  3  0  0  0  0  0  0
  -21.5150   -4.1670   25.0430 C   0  0  0  0  0  0  0  0  0  0  0  0
  -21.8730   -3.6080   23.8040 C   0  0  0  0  0  3  0  0  0  0  0  0
  -21.8950   -4.4130   22.6510 C   0  0  0  0  0  0  0  0  0  0  0  0
  -22.2190   -3.8640   21.4540 F   0  0  0  0  0  0  0  0  0  0  0  0
  -21.4880   -3.3890   26.1510 F   0  0  0  0  0  0  0  0  0  0  0  0
  -22.8960  -13.1180   21.8080 C   0  0  0  0  0  0  0  0  0  0  0  0
  -22.4340  -12.3270   22.7700 N   0  0  0  0  0  0  0  0  0  0  0  0
  -22.3790  -14.2110   21.5800 O   0  0  0  0  0  0  0  0  0  0  0  0
  -22.8710  -11.4390   22.9710 H   0  0  0  0  0  0  0  0  0  0  0  0
  -21.6350  -12.6160   23.3160 H   0  0  0  0  0  0  0  0  0  0  0  0
  -25.2500  -14.8270   20.4280 N   0  0  0  0  0  0  0  0  0  0  0  0
  -24.6010  -15.4750   20.8580 H   0  0  0  0  0  0  0  0  0  0  0  0
  -25.9950  -15.2890   19.9220 H   0  0  0  0  0  0  0  0  0  0  0  0
  1  5  1  0
  2  1  2  0
  2  6  1  0
  4  3  1  0
  4  7  1  0
  5 12  1  0
  5  3  2  0
  6  4  2  0
  7 10  1  0
  8 56  1  0
  8  7  2  0
  9  6  1  0
  9  8  1  0
 10 11  1  0
 13 14  1  0
 13 12  1  0
 15 14  1  0
 16 27  2  0
 17 15  1  0
 17 22  1  0
 18 26  1  0
 18 28  1  0
 19 21  1  0
 20 26  1  0
 21 22  2  0
 21 20  1  0
 23 17  2  0
 24 23  1  0
 24 19  2  0
 25 19  1  0
 25 18  1  0
 26 16  1  0
 28 30  2  0
 29 28  1  0
 31 29  1  0
 32 37  1  0
 33 29  1  0
 34 33  1  0
 35 36  1  0
 35 34  1  0
 36 32  1  0
 37 33  1  0
 37 38  2  0
 39 38  1  0
 40 39  2  0
 41 32  2  0
 41 40  1  0
 42 16  1  0
 42 43  1  0
 42 52  1  0
 43 46  1  0
 44 48  1  0
 44 43  1  0
 45 44  2  0
 48 47  1  0
 50 48  1  0
 50 49  1  0
 51 50  1  0
 52 55  1  1
 52 53  1  0
 54 52  1  0
 58 57  1  0
 58 56  1  0
 59 60  1  0
 59  9  1  0
 61 67  1  0
 61 60  1  0
 62 67  1  0
 63 64  1  0
 63 62  1  0
 65 64  1  0
 65 66  1  0
 65 72  1  0
 67 66  1  0
 68 61  2  0
 69 70  2  0
 70 89  1  0
 71 74  1  0
 71 70  1  0
 72 73  1  0
 72 69  1  0
 73 71  2  0
 74 75  1  0
 75 76  2  0
 77 80  1  0
 77 76  1  0
 78 77  2  0
 79 78  1  0
 79 74  2  0
 80 81  1  0
 81 82  1  0
 82 83  2  0
 84 83  1  0
 84 88  1  0
 85 84  2  0
 86 81  2  0
 86 85  1  0
 87 86  1  0
 89 90  1  0
 90 92  1  0
 90 93  1  0
 91 89  2  0
 94 69  1  0
 94 95  1  0
 96 94  1  0
M  ISO  4  14 101  15 101  60 100  61 100
M  END
>  <TORSDO>  (15) 
F 24

>  <SCORE>  (15) 
-4.574

>  <name>  (15) 
14

>  <ligand_id>  (15) 
14

>  <original_smiles>  (15) 
[H]Oc1c(C([H])([H])C([H])([H])C([H])([H])[H])n(C([H])([H])C([H])([H])C(=O)N2C([H])([H])C([H])([H])C([H])([H])C([H])(n3nc(-c4c([H])c([H])c(Oc5c([H])c([H])c(F)c([H])c5F)c([H])c4[H])c(C(=O)N([H])[H])c3N([H])[H])C2([H])[H])c2c([H])c([H])c(C([H])([H])C([H])([H])C([H])([H])Oc3c([H])c([H])c4c(c3[H])C([H])([H])N(C(=O)C([H])(N([H])C(=O)C([H])(N([H])C([H])([H])[H])C([H])([H])[H])C(C([H])([H])[H])(C([H])([H])[H])C([H])([H])[H])C([H])(C(=O)N([H])C3([H])c5c([H])c([H])c([H])c([H])c5C([H])([H])C([H])([H])C3([H])[H])C4([H])[H])c([H])c12

>  <smiles>  (15) 
[H]Oc1c(C([H])([H])C([H])([H])C([H])([H])[H])n(C([H])([H])C([H])([H])C(=O)N2C([H])([H])C([H])([H])C([H])([H])C([H])(n3nc(-c4c([H])c([H])c(Oc5c([H])c([H])c(F)c([H])c5F)c([H])c4[H])c(C(=O)N([H])[H])c3N([H])[H])C2([H])[H])c2c([H])c([H])c(C([H])([H])C([H])([H])C([H])([H])Oc3c([H])c([H])c4c(c3[H])C([H])([H])N(C(=O)C([H])(N([H])C(=O)C([H])(N([H])C([H])([H])[H])C([H])([H])[H])C(C([H])([H])[H])(C([H])([H])[H])C([H])([H])[H])C([H])(C(=O)N([H])C3([H])c5c([H])c([H])c([H])c([H])c5C([H])([H])C([H])([H])C3([H])[H])C4([H])[H])c([H])c12

$$$$
15:0:0
     RDKit          3D

 91 99  0  0  1  0  0  0  0  0999 V2000
  -29.4520  -18.7500   20.6740 C   0  0  0  0  0  0  0  0  0  0  0  0
  -29.6840  -20.0550   20.3020 N   0  0  0  0  0  0  0  0  0  0  0  0
  -28.4590  -18.4750   21.3500 O   0  0  0  0  0  0  0  0  0  0  0  0
  -30.5220  -20.1990   19.7510 H   0  0  0  0  0  0  0  0  0  0  0  0
  -32.6730  -18.6740   20.5700 C   0  0  0  0  0  2  0  0  0  0  0  0
  -32.4910  -18.3910   19.0770 C   0  0  0  0  0  2  0  0  0  0  0  0
  -31.6890  -17.7330   21.2650 C   0  0  0  0  0  2  0  0  0  0  0  0
  -31.0720  -17.8200   18.8980 C   0  0  0  0  0  2  0  0  0  0  0  0
  -30.4740  -17.5700   20.3160 C   0  0  2  0  0  0  0  0  0  0  0  0
  -29.8670  -16.0720   20.4900 C   0  0  0  0  0  2  0  0  0  0  0  0
  -30.6360  -14.7530   20.0100 C   0  0  0  0  0  0  0  0  0  0  0  0
  -30.3500  -12.5220   18.9260 C   0  0  0  0  0  2  0  0  0  0  0  0
  -29.3210  -12.6380   17.7760 C   0  0  0  0  0  2  0  0  0  0  0  0
  -27.8830  -12.4650   18.3020 C   0  0  0  0  0  2  0  0  0  0  0  0
  -27.6050  -13.3270   19.5590 C   0  0  0  0  0  3  0  0  0  0  0  0
  -28.7360  -13.1890   20.6000 C   0  0  0  0  0  2  0  0  0  0  0  0
  -30.0040  -13.5330   19.9460 N   0  0  0  0  0  0  0  0  0  0  0  0
  -31.7760  -14.8610   19.5500 O   0  0  0  0  0  0  0  0  0  0  0  0
  -25.2810  -13.9150   20.4810 C   0  0  0  0  0  0  0  0  0  0  0  0
  -24.2370  -13.1360   20.9030 C   0  0  0  0  0  0  0  0  0  0  0  0
  -24.6840  -11.7840   20.7930 C   0  0  0  0  0  0  0  0  0  0  0  0
  -26.2950  -13.0350   20.1360 N   0  0  0  0  0  0  0  0  0  0  0  0
  -25.9460  -11.7470   20.3860 N   0  0  0  0  0  0  0  0  0  0  0  0
  -23.9620  -10.5210   20.9920 C   0  0  0  0  0  0  0  0  0  0  0  0
  -24.4160   -9.5440   21.9030 C   0  0  0  0  0  3  0  0  0  0  0  0
  -23.6900   -8.3480   22.0910 C   0  0  0  0  0  3  0  0  0  0  0  0
  -22.4970   -8.1210   21.3640 C   0  0  0  0  0  0  0  0  0  0  0  0
  -22.0620   -9.0880   20.4410 C   0  0  0  0  0  3  0  0  0  0  0  0
  -22.7900  -10.2750   20.2520 C   0  0  0  0  0  3  0  0  0  0  0  0
  -21.7420   -6.9760   21.4630 O   0  0  0  0  0  0  0  0  0  0  0  0
  -21.6880   -6.2460   22.6240 C   0  0  0  0  0  0  0  0  0  0  0  0
  -21.1940   -6.7940   23.8290 C   0  0  0  0  0  3  0  0  0  0  0  0
  -21.0920   -5.9870   24.9790 C   0  0  0  0  0  3  0  0  0  0  0  0
  -21.4750   -4.6340   24.9270 C   0  0  0  0  0  0  0  0  0  0  0  0
  -21.9640   -4.0850   23.7280 C   0  0  0  0  0  3  0  0  0  0  0  0
  -22.0680   -4.8890   22.5800 C   0  0  0  0  0  0  0  0  0  0  0  0
  -22.5180   -4.3490   21.4200 F   0  0  0  0  0  0  0  0  0  0  0  0
  -21.3700   -3.8560   26.0300 F   0  0  0  0  0  0  0  0  0  0  0  0
  -22.8710  -13.6150   21.2940 C   0  0  0  0  0  0  0  0  0  0  0  0
  -22.1990  -12.8890   22.1820 N   0  0  0  0  0  0  0  0  0  0  0  0
  -22.4100  -14.6660   20.8510 O   0  0  0  0  0  0  0  0  0  0  0  0
  -22.5910  -12.0410   22.5610 H   0  0  0  0  0  0  0  0  0  0  0  0
  -21.2820  -13.1870   22.4850 H   0  0  0  0  0  0  0  0  0  0  0  0
  -25.4460  -15.2870   20.3390 N   0  0  0  0  0  0  0  0  0  0  0  0
  -24.7020  -15.9470   20.5400 H   0  0  0  0  0  0  0  0  0  0  0  0
  -26.2840  -15.7350   19.9840 H   0  0  0  0  0  0  0  0  0  0  0  0
  -29.0010  -21.3060   20.7990 C   0  0  0  0  0  3  0  0  0  0  0  0
  -29.0500  -22.6170   19.8840 C   0  0  0  0  0  3  0  0  0  0  0  0
  -28.5520  -24.0000   20.5160 C   0  0  0  0  0  3  0  0  0  0  0  0
  -28.6800  -25.3250   19.6410 C   0  0  0  0  0  3  0  0  0  0  0  0
  -28.5120  -26.6530   20.2700 O   0  0  0  0  0  0  0  0  0  0  0  0
  -24.6280  -31.9190   23.2410 C   0  0  0  0  0  0  0  0  0  0  0  0
  -27.3400  -27.4170   20.1950 C   0  0  0  0  0  0  0  0  0  0  0  0
  -23.4560  -30.5130   21.5820 C   0  0  0  0  0  3  0  0  0  0  0  0
  -24.9420  -28.9790   20.1670 C   0  0  0  0  0  0  0  0  0  0  0  0
  -25.9910  -30.8640   21.4250 C   0  0  0  0  0  2  0  0  0  0  0  0
  -26.0920  -29.4870   20.7800 C   0  0  0  0  0  0  0  0  0  0  0  0
  -27.2880  -28.7160   20.7880 C   0  0  0  0  0  3  0  0  0  0  0  0
  -26.1650  -26.9480   19.5700 C   0  0  0  0  0  3  0  0  0  0  0  0
  -24.9790  -27.7130   19.5580 C   0  0  0  0  0  3  0  0  0  0  0  0
  -23.6940  -29.8390   20.2010 C   0  0  0  0  0  2  0  0  0  0  0  0
  -24.7090  -31.1170   22.1400 N   0  0  0  0  0  0  0  0  0  0  0  0
  -23.5370  -32.1810   23.7660 O   0  0  0  0  0  0  0  0  0  0  0  0
  -22.7990  -29.4860   22.5350 C   0  0  0  0  0  0  0  0  0  0  0  0
  -21.4770  -29.2930   22.3980 N   0  0  0  0  0  0  0  0  0  0  0  0
  -23.4810  -28.8630   23.3550 O   0  0  0  0  0  0  0  0  0  0  0  0
  -20.9870  -29.8550   21.7170 H   0  0  0  0  0  0  0  0  0  0  0  0
  -18.1020  -28.0920   22.9040 C   0  0  0  0  0  0  0  0  0  0  0  0
  -20.6630  -28.3450   23.1580 C   0  0  0  0  0  3  0  0  0  0  0  0
  -20.7580  -26.9210   22.5630 C   0  0  0  0  0  2  0  0  0  0  0  0
  -19.6500  -26.6150   21.5520 C   0  0  0  0  0  2  0  0  0  0  0  0
  -18.2730  -26.7520   22.2070 C   0  0  0  0  0  2  0  0  0  0  0  0
  -19.2260  -28.8460   23.3360 C   0  0  0  0  0  0  0  0  0  0  0  0
  -19.0110  -30.1010   23.9470 C   0  0  0  0  0  3  0  0  0  0  0  0
  -17.7080  -30.6010   24.1300 C   0  0  0  0  0  3  0  0  0  0  0  0
  -16.6000  -29.8440   23.7110 C   0  0  0  0  0  3  0  0  0  0  0  0
  -16.7970  -28.5930   23.1020 C   0  0  0  0  0  3  0  0  0  0  0  0
  -25.8970  -32.5650   23.8760 C   0  0  0  0  0  3  0  0  0  0  0  0
  -25.5720  -33.9620   24.1970 N   0  0  0  0  0  0  0  0  0  0  0  0
  -25.8900  -35.0120   23.4320 C   0  0  0  0  0  0  0  0  0  0  0  0
  -26.5600  -34.9080   22.4000 O   0  0  0  0  0  0  0  0  0  0  0  0
  -24.9740  -34.1140   24.9970 H   0  0  0  0  0  0  0  0  0  0  0  0
  -24.1450  -36.7870   23.0650 C   0  0  0  0  0  1  0  0  0  0  0  0
  -25.3890  -36.3990   23.8790 C   0  0  0  0  0  3  0  0  0  0  0  0
  -27.5070  -37.3180   24.7170 C   0  0  0  0  0  1  0  0  0  0  0  0
  -26.4100  -37.4630   23.7620 N   0  0  0  0  0  0  0  0  0  0  0  0
  -25.9930  -38.3800   23.8980 H   0  0  0  0  0  0  0  0  0  0  0  0
  -26.4030  -31.8020   25.1620 C   0  0  1  0  0  0  0  0  0  0  0  0
  -25.2930  -31.5370   26.2090 C   0  0  0  0  0  1  0  0  0  0  0  0
  -27.0220  -30.4390   24.7800 C   0  0  0  0  0  1  0  0  0  0  0  0
  -27.5310  -32.6160   25.8400 C   0  0  0  0  0  1  0  0  0  0  0  0
  1  3  2  0
  2  1  1  0
  2 47  1  0
  4  2  1  0
  5  7  1  0
  6  5  1  0
  8  6  1  0
  8  9  1  0
  9 10  1  6
  9  1  1  0
  9  7  1  0
 11 10  1  0
 12 17  1  0
 13 14  1  0
 13 12  1  0
 15 14  1  0
 15 22  1  0
 15 16  1  0
 17 11  1  0
 17 16  1  0
 18 11  2  0
 19 20  2  0
 20 39  1  0
 21 20  1  0
 21 24  1  0
 22 23  1  0
 22 19  1  0
 23 21  2  0
 24 25  1  0
 25 26  2  0
 27 30  1  0
 27 26  1  0
 28 27  2  0
 29 28  1  0
 29 24  2  0
 30 31  1  0
 31 32  1  0
 32 33  2  0
 34 33  1  0
 34 38  1  0
 35 34  2  0
 36 31  2  0
 36 35  1  0
 37 36  1  0
 39 40  1  0
 40 43  1  0
 40 42  1  0
 41 39  2  0
 44 19  1  0
 44 45  1  0
 46 44  1  0
 48 49  1  0
 48 47  2  0
 50 51  1  0
 50 49  2  0
 52 63  2  0
 53 51  1  0
 53 58  1  0
 54 62  1  0
 54 64  1  0
 55 61  1  0
 55 57  1  0
 56 62  1  0
 57 58  2  0
 57 56  1  0
 59 53  2  0
 60 59  1  0
 60 55  2  0
 61 54  1  0
 62 52  1  0
 64 66  2  0
 65 64  1  0
 67 65  1  0
 68 77  2  0
 68 73  1  0
 69 65  1  0
 69 73  1  0
 70 69  1  0
 71 72  1  0
 71 70  1  0
 72 68  1  0
 73 74  2  0
 74 75  1  0
 76 75  2  0
 77 76  1  0
 78 52  1  0
 78 79  1  0
 78 88  1  0
 79 82  1  0
 80 84  1  0
 80 79  1  0
 81 80  2  0
 84 83  1  0
 86 84  1  0
 86 87  1  0
 86 85  1  0
 88 91  1  1
 88 89  1  0
 90 88  1  0
M  ISO  4  10 100  11 100  50 101  51 101
M  END
>  <TORSDO>  (16) 
F 22

>  <SCORE>  (16) 
-12.740

>  <name>  (16) 
15

>  <ligand_id>  (16) 
15

>  <original_smiles>  (16) 
[H]c1c([H])c([H])c2c(c1[H])C([H])([H])C([H])([H])C([H])([H])C2([H])N([H])C(=O)C1([H])N(C(=O)C([H])(N([H])C(=O)C([H])(N([H])C([H])([H])[H])C([H])([H])[H])C(C([H])([H])[H])(C([H])([H])[H])C([H])([H])[H])C([H])([H])c2c([H])c(OC([H])([H])C([H])([H])C([H])([H])C([H])([H])N([H])C(=O)C3(C([H])([H])C(=O)N4C([H])([H])C([H])([H])C([H])([H])C([H])(n5nc(-c6c([H])c([H])c(Oc7c([H])c([H])c(F)c([H])c7F)c([H])c6[H])c(C(=O)N([H])[H])c5N([H])[H])C4([H])[H])C([H])([H])C([H])([H])C([H])([H])C3([H])[H])c([H])c([H])c2C1([H])[H]

>  <smiles>  (16) 
[H]c1c([H])c([H])c2c(c1[H])C([H])([H])C([H])([H])C([H])([H])C2([H])N([H])C(=O)C1([H])N(C(=O)C([H])(N([H])C(=O)C([H])(N([H])C([H])([H])[H])C([H])([H])[H])C(C([H])([H])[H])(C([H])([H])[H])C([H])([H])[H])C([H])([H])c2c([H])c(OC([H])([H])C([H])([H])C([H])([H])C([H])([H])N([H])C(=O)C3(C([H])([H])C(=O)N4C([H])([H])C([H])([H])C([H])([H])C([H])(n5nc(-c6c([H])c([H])c(Oc7c([H])c([H])c(F)c([H])c7F)c([H])c6[H])c(C(=O)N([H])[H])c5N([H])[H])C4([H])[H])C([H])([H])C([H])([H])C([H])([H])C3([H])[H])c([H])c([H])c2C1([H])[H]

$$$$
16:0:0
     RDKit          3D

 92100  0  0  1  0  0  0  0  0999 V2000
  -31.0760  -23.3980   21.6090 C   0  0  0  0  0  3  0  0  0  0  0  0
  -29.3170  -23.5840   23.2860 C   0  0  0  0  0  3  0  0  0  0  0  0
  -30.7150  -24.6560   21.0870 C   0  0  0  0  0  3  0  0  0  0  0  0
  -28.9600  -24.8450   22.7680 C   0  0  0  0  0  3  0  0  0  0  0  0
  -30.3910  -22.8630   22.7190 C   0  0  0  0  0  0  0  0  0  0  0  0
  -29.6680  -25.3950   21.6780 C   0  0  0  0  0  0  0  0  0  0  0  0
  -30.8320  -21.5430   23.3290 C   0  0  0  0  0  2  0  0  0  0  0  0
  -30.0400  -20.3230   22.8140 C   0  0  0  0  0  2  0  0  0  0  0  0
  -30.9220  -19.2920   22.0850 C   0  0  0  0  0  2  0  0  0  0  0  0
  -30.1730  -18.0660   21.7340 N   0  0  0  0  0  4  0  0  0  0  0  0
  -29.7590  -17.7080   22.5780 H   0  0  0  0  0  0  0  0  0  0  0  0
  -29.4220  -18.3090   21.1060 H   0  0  0  0  0  0  0  0  0  0  0  0
  -30.9950  -16.9980   21.1150 C   0  0  0  0  0  2  0  0  0  0  0  0
  -30.2910  -15.6250   21.1690 C   0  0  0  0  0  2  0  0  0  0  0  0
  -30.9360  -14.5400   20.2870 C   0  0  0  0  0  0  0  0  0  0  0  0
  -30.5850  -12.4840   18.9630 C   0  0  0  0  0  2  0  0  0  0  0  0
  -29.6130  -12.7870   17.8060 C   0  0  0  0  0  2  0  0  0  0  0  0
  -28.1460  -12.6460   18.2610 C   0  0  0  0  0  2  0  0  0  0  0  0
  -27.8560  -13.4060   19.5840 C   0  0  0  0  0  3  0  0  0  0  0  0
  -28.9300  -13.0750   20.6430 C   0  0  0  0  0  2  0  0  0  0  0  0
  -30.2500  -13.3880   20.0690 N   0  0  0  0  0  0  0  0  0  0  0  0
  -32.0170  -14.7780   19.7370 O   0  0  0  0  0  0  0  0  0  0  0  0
  -25.4610  -14.0160   20.3100 C   0  0  0  0  0  0  0  0  0  0  0  0
  -24.4000  -13.2440   20.6980 C   0  0  0  0  0  0  0  0  0  0  0  0
  -24.8640  -11.8940   20.6730 C   0  0  0  0  0  0  0  0  0  0  0  0
  -26.5060  -13.1360   20.0740 N   0  0  0  0  0  0  0  0  0  0  0  0
  -26.1500  -11.8550   20.3480 N   0  0  0  0  0  0  0  0  0  0  0  0
  -24.1450  -10.6310   20.8820 C   0  0  0  0  0  0  0  0  0  0  0  0
  -24.5700   -9.6920   21.8480 C   0  0  0  0  0  3  0  0  0  0  0  0
  -23.8510   -8.4930   22.0440 C   0  0  0  0  0  3  0  0  0  0  0  0
  -22.6960   -8.2230   21.2720 C   0  0  0  0  0  0  0  0  0  0  0  0
  -22.2900   -9.1510   20.2980 C   0  0  0  0  0  3  0  0  0  0  0  0
  -23.0090  -10.3430   20.1000 C   0  0  0  0  0  3  0  0  0  0  0  0
  -21.9510   -7.0730   21.3750 O   0  0  0  0  0  0  0  0  0  0  0  0
  -21.8500   -6.3850   22.5580 C   0  0  0  0  0  0  0  0  0  0  0  0
  -21.3440   -6.9880   23.7290 C   0  0  0  0  0  3  0  0  0  0  0  0
  -21.1910   -6.2250   24.9040 C   0  0  0  0  0  3  0  0  0  0  0  0
  -21.5330   -4.8590   24.9080 C   0  0  0  0  0  0  0  0  0  0  0  0
  -22.0310   -4.2550   23.7400 C   0  0  0  0  0  3  0  0  0  0  0  0
  -22.1870   -5.0160   22.5670 C   0  0  0  0  0  0  0  0  0  0  0  0
  -22.6480   -4.4240   21.4390 F   0  0  0  0  0  0  0  0  0  0  0  0
  -21.3780   -4.1240   26.0330 F   0  0  0  0  0  0  0  0  0  0  0  0
  -23.0040  -13.7190   20.9840 C   0  0  0  0  0  0  0  0  0  0  0  0
  -22.2890  -13.0310   21.8670 N   0  0  0  0  0  0  0  0  0  0  0  0
  -22.5550  -14.7370   20.4570 O   0  0  0  0  0  0  0  0  0  0  0  0
  -22.6620  -12.2080   22.3140 H   0  0  0  0  0  0  0  0  0  0  0  0
  -21.3530  -13.3330   22.0990 H   0  0  0  0  0  0  0  0  0  0  0  0
  -25.6190  -15.3860   20.1200 N   0  0  0  0  0  0  0  0  0  0  0  0
  -24.8470  -16.0350   20.2240 H   0  0  0  0  0  0  0  0  0  0  0  0
  -26.4570  -15.8230   19.7570 H   0  0  0  0  0  0  0  0  0  0  0  0
  -29.3140  -26.7830   21.1680 C   0  0  0  0  0  2  0  0  0  0  0  0
  -28.4160  -26.7230   20.0600 O   0  0  0  0  0  0  0  0  0  0  0  0
  -24.5750  -31.8570   23.2100 C   0  0  0  0  0  0  0  0  0  0  0  0
  -27.2730  -27.4890   20.1120 C   0  0  0  0  0  0  0  0  0  0  0  0
  -23.3790  -30.4580   21.5540 C   0  0  0  0  0  3  0  0  0  0  0  0
  -24.8500  -28.9430   20.1240 C   0  0  0  0  0  0  0  0  0  0  0  0
  -25.8970  -30.8520   21.3550 C   0  0  0  0  0  2  0  0  0  0  0  0
  -25.9970  -29.4860   20.7160 C   0  0  0  0  0  0  0  0  0  0  0  0
  -27.2110  -28.7690   20.7090 C   0  0  0  0  0  3  0  0  0  0  0  0
  -26.1150  -26.9600   19.5060 C   0  0  0  0  0  3  0  0  0  0  0  0
  -24.9010  -27.6770   19.5190 C   0  0  0  0  0  3  0  0  0  0  0  0
  -23.5950  -29.7870   20.1700 C   0  0  0  0  0  2  0  0  0  0  0  0
  -24.6350  -31.0710   22.0990 N   0  0  0  0  0  0  0  0  0  0  0  0
  -23.4930  -32.1150   23.7560 O   0  0  0  0  0  0  0  0  0  0  0  0
  -22.7390  -29.4260   22.5070 C   0  0  0  0  0  0  0  0  0  0  0  0
  -21.4210  -29.2120   22.3590 N   0  0  0  0  0  0  0  0  0  0  0  0
  -23.4250  -28.8190   23.3340 O   0  0  0  0  0  0  0  0  0  0  0  0
  -20.9290  -29.7510   21.6600 H   0  0  0  0  0  0  0  0  0  0  0  0
  -18.0780  -27.9190   22.7730 C   0  0  0  0  0  0  0  0  0  0  0  0
  -20.6160  -28.2590   23.1190 C   0  0  0  0  0  3  0  0  0  0  0  0
  -20.7810  -26.8260   22.5640 C   0  0  0  0  0  2  0  0  0  0  0  0
  -19.7210  -26.4560   21.5220 C   0  0  0  0  0  2  0  0  0  0  0  0
  -18.3160  -26.5680   22.1220 C   0  0  0  0  0  2  0  0  0  0  0  0
  -19.1590  -28.7210   23.2280 C   0  0  0  0  0  0  0  0  0  0  0  0
  -18.8840  -29.9850   23.7950 C   0  0  0  0  0  3  0  0  0  0  0  0
  -17.5600  -30.4480   23.9150 C   0  0  0  0  0  3  0  0  0  0  0  0
  -16.4930  -29.6440   23.4770 C   0  0  0  0  0  3  0  0  0  0  0  0
  -16.7520  -28.3830   22.9120 C   0  0  0  0  0  3  0  0  0  0  0  0
  -25.8590  -32.4920   23.8350 C   0  0  0  0  0  3  0  0  0  0  0  0
  -25.5470  -33.8890   24.1610 N   0  0  0  0  0  0  0  0  0  0  0  0
  -25.8890  -34.9400   23.4050 C   0  0  0  0  0  0  0  0  0  0  0  0
  -26.5740  -34.8340   22.3810 O   0  0  0  0  0  0  0  0  0  0  0  0
  -24.9410  -34.0440   24.9540 H   0  0  0  0  0  0  0  0  0  0  0  0
  -24.1690  -36.7320   23.0180 C   0  0  0  0  0  1  0  0  0  0  0  0
  -25.3950  -36.3280   23.8520 C   0  0  0  0  0  3  0  0  0  0  0  0
  -27.5140  -37.2100   24.7260 C   0  0  0  0  0  1  0  0  0  0  0  0
  -26.4310  -37.3800   23.7600 N   0  0  0  0  0  0  0  0  0  0  0  0
  -26.0220  -38.3000   23.8990 H   0  0  0  0  0  0  0  0  0  0  0  0
  -26.3770  -31.7200   25.1100 C   0  0  1  0  0  0  0  0  0  0  0  0
  -25.2840  -31.4770   26.1750 C   0  0  0  0  0  1  0  0  0  0  0  0
  -26.9650  -30.3440   24.7160 C   0  0  0  0  0  1  0  0  0  0  0  0
  -27.5230  -32.5170   25.7770 C   0  0  0  0  0  1  0  0  0  0  0  0
  1  5  1  0
  3  1  2  0
  3  6  1  0
  4  2  1  0
  5  2  2  0
  5  7  1  0
  6  4  2  0
  8  7  1  0
  9  8  1  0
 10  9  1  0
 10 11  1  0
 12 10  1  0
 13 14  1  0
 13 10  1  0
 15 14  1  0
 16 21  1  0
 17 18  1  0
 17 16  1  0
 19 18  1  0
 19 26  1  0
 19 20  1  0
 21 15  1  0
 21 20  1  0
 22 15  2  0
 23 24  2  0
 24 43  1  0
 25 24  1  0
 25 28  1  0
 26 23  1  0
 26 27  1  0
 27 25  2  0
 28 29  1  0
 29 30  2  0
 31 34  1  0
 31 30  1  0
 32 31  2  0
 33 32  1  0
 33 28  2  0
 34 35  1  0
 35 40  2  0
 35 36  1  0
 36 37  2  0
 37 38  1  0
 38 42  1  0
 39 38  2  0
 40 39  1  0
 41 40  1  0
 43 44  1  0
 44 47  1  0
 44 46  1  0
 45 43  2  0
 48 49  1  0
 48 23  1  0
 50 48  1  0
 51  6  1  0
 52 54  1  0
 52 51  1  0
 53 64  2  0
 54 59  1  0
 55 63  1  0
 55 65  1  0
 56 62  1  0
 56 58  1  0
 57 63  1  0
 58 57  1  0
 59 58  2  0
 60 61  1  0
 60 54  2  0
 61 56  2  0
 62 55  1  0
 63 53  1  0
 65 67  2  0
 66 65  1  0
 68 66  1  0
 69 78  2  0
 69 74  1  0
 70 66  1  0
 70 74  1  0
 71 70  1  0
 72 73  1  0
 72 71  1  0
 73 69  1  0
 74 75  2  0
 75 76  1  0
 77 76  2  0
 78 77  1  0
 79 53  1  0
 79 80  1  0
 79 89  1  0
 80 83  1  0
 81 85  1  0
 81 80  1  0
 82 81  2  0
 85 84  1  0
 87 85  1  0
 87 88  1  0
 87 86  1  0
 89 92  1  1
 89 90  1  0
 91 89  1  0
M  ISO  4  14 100  15 100  51 101  52 101
M  END
>  <TORSDO>  (17) 
F 23

>  <SCORE>  (17) 
-12.094

>  <name>  (17) 
16

>  <ligand_id>  (17) 
16

>  <original_smiles>  (17) 
[H]c1c([H])c([H])c2c(c1[H])C([H])([H])C([H])([H])C([H])([H])C2([H])N([H])C(=O)C1([H])N(C(=O)C([H])(N([H])C(=O)C([H])(N([H])C([H])([H])[H])C([H])([H])[H])C(C([H])([H])[H])(C([H])([H])[H])C([H])([H])[H])C([H])([H])c2c([H])c(OC([H])([H])c3c([H])c([H])c(C([H])([H])C([H])([H])C([H])([H])[N+]([H])([H])C([H])([H])C([H])([H])C(=O)N4C([H])([H])C([H])([H])C([H])([H])C([H])(n5nc(-c6c([H])c([H])c(Oc7c([H])c([H])c(F)c([H])c7F)c([H])c6[H])c(C(=O)N([H])[H])c5N([H])[H])C4([H])[H])c([H])c3[H])c([H])c([H])c2C1([H])[H]

>  <smiles>  (17) 
[H]c1c([H])c([H])c2c(c1[H])C([H])([H])C([H])([H])C([H])([H])C2([H])N([H])C(=O)C1([H])N(C(=O)C([H])(N([H])C(=O)C([H])(N([H])C([H])([H])[H])C([H])([H])[H])C(C([H])([H])[H])(C([H])([H])[H])C([H])([H])[H])C([H])([H])c2c([H])c(OC([H])([H])c3c([H])c([H])c(C([H])([H])C([H])([H])C([H])([H])[N+]([H])([H])C([H])([H])C([H])([H])C(=O)N4C([H])([H])C([H])([H])C([H])([H])C([H])(n5nc(-c6c([H])c([H])c(Oc7c([H])c([H])c(F)c([H])c7F)c([H])c6[H])c(C(=O)N([H])[H])c5N([H])[H])C4([H])[H])c([H])c3[H])c([H])c([H])c2C1([H])[H]

$$$$
17:0:0
     RDKit          3D

 92101  0  0  1  0  0  0  0  0999 V2000
  -31.2280  -23.8550   18.3920 C   0  0  0  0  0  3  0  0  0  0  0  0
  -31.1750  -22.4620   18.5790 C   0  0  0  0  0  3  0  0  0  0  0  0
  -30.2840  -24.6930   19.0120 C   0  0  0  0  0  3  0  0  0  0  0  0
  -30.1920  -21.8820   19.4060 C   0  0  0  0  0  0  0  0  0  0  0  0
  -29.2540  -22.7360   20.0620 C   0  0  0  0  0  0  0  0  0  0  0  0
  -29.2780  -24.1640   19.8490 C   0  0  0  0  0  0  0  0  0  0  0  0
  -28.2800  -22.0690   21.0270 C   0  0  0  0  0  2  0  0  0  0  0  0
  -30.1580  -20.3320   19.5190 C   0  0  0  0  0  2  0  0  0  0  0  0
  -28.0840  -20.5520   20.7750 C   0  0  0  0  0  2  0  0  0  0  0  0
  -29.3610  -19.7880   20.6550 N   0  0  1  0  0  4  0  0  0  0  0  0
  -29.8910  -19.9850   21.4900 H   0  0  0  0  0  0  0  0  0  0  0  0
  -28.2550  -25.1520   20.4780 C   0  0  0  0  0  2  0  0  0  0  0  0
  -28.3890  -26.5690   20.1140 O   0  0  0  0  0  0  0  0  0  0  0  0
  -24.6270  -31.8590   23.2090 C   0  0  0  0  0  0  0  0  0  0  0  0
  -27.2380  -27.3560   20.1250 C   0  0  0  0  0  0  0  0  0  0  0  0
  -23.4110  -30.4610   21.5740 C   0  0  0  0  0  3  0  0  0  0  0  0
  -24.8550  -28.9180   20.1400 C   0  0  0  0  0  0  0  0  0  0  0  0
  -25.9440  -30.8000   21.3670 C   0  0  0  0  0  2  0  0  0  0  0  0
  -26.0230  -29.4240   20.7240 C   0  0  0  0  0  0  0  0  0  0  0  0
  -27.2190  -28.6550   20.7070 C   0  0  0  0  0  3  0  0  0  0  0  0
  -26.0510  -26.8910   19.5170 C   0  0  0  0  0  3  0  0  0  0  0  0
  -24.8680  -27.6530   19.5290 C   0  0  0  0  0  3  0  0  0  0  0  0
  -23.6130  -29.7840   20.1940 C   0  0  0  0  0  2  0  0  0  0  0  0
  -24.6790  -31.0570   22.1080 N   0  0  0  0  0  0  0  0  0  0  0  0
  -23.5490  -32.1340   23.7540 O   0  0  0  0  0  0  0  0  0  0  0  0
  -22.7590  -29.4420   22.5390 C   0  0  0  0  0  0  0  0  0  0  0  0
  -21.4320  -29.2680   22.4240 N   0  0  0  0  0  0  0  0  0  0  0  0
  -23.4460  -28.8100   23.3460 O   0  0  0  0  0  0  0  0  0  0  0  0
  -20.9370  -29.8310   21.7470 H   0  0  0  0  0  0  0  0  0  0  0  0
  -18.0560  -28.0860   22.9530 C   0  0  0  0  0  0  0  0  0  0  0  0
  -20.6180  -28.3300   23.1980 C   0  0  0  0  0  3  0  0  0  0  0  0
  -20.7070  -26.9010   22.6160 C   0  0  0  0  0  2  0  0  0  0  0  0
  -19.5930  -26.5870   21.6110 C   0  0  0  0  0  2  0  0  0  0  0  0
  -18.2190  -26.7380   22.2700 C   0  0  0  0  0  2  0  0  0  0  0  0
  -19.1830  -28.8410   23.3740 C   0  0  0  0  0  0  0  0  0  0  0  0
  -18.9770  -30.1040   23.9700 C   0  0  0  0  0  3  0  0  0  0  0  0
  -17.6760  -30.6110   24.1520 C   0  0  0  0  0  3  0  0  0  0  0  0
  -16.5650  -29.8530   23.7480 C   0  0  0  0  0  3  0  0  0  0  0  0
  -16.7560  -28.5930   23.1540 C   0  0  0  0  0  3  0  0  0  0  0  0
  -25.9170  -32.4910   23.8220 C   0  0  0  0  0  3  0  0  0  0  0  0
  -26.4480  -31.7120   25.0880 C   0  0  1  0  0  0  0  0  0  0  0  0
  -25.3670  -31.4640   26.1660 C   0  0  0  0  0  1  0  0  0  0  0  0
  -27.0300  -30.3380   24.6820 C   0  0  0  0  0  1  0  0  0  0  0  0
  -27.6020  -32.5050   25.7450 C   0  0  0  0  0  1  0  0  0  0  0  0
  -25.6080  -33.8860   24.1630 N   0  0  0  0  0  0  0  0  0  0  0  0
  -25.9310  -34.9440   23.4070 C   0  0  0  0  0  0  0  0  0  0  0  0
  -26.5920  -34.8480   22.3690 O   0  0  0  0  0  0  0  0  0  0  0  0
  -25.0240  -34.0350   24.9730 H   0  0  0  0  0  0  0  0  0  0  0  0
  -24.1980  -36.7360   23.0770 C   0  0  0  0  0  1  0  0  0  0  0  0
  -25.4440  -36.3280   23.8770 C   0  0  0  0  0  3  0  0  0  0  0  0
  -27.5840  -37.2090   24.6980 C   0  0  0  0  0  1  0  0  0  0  0  0
  -26.4750  -37.3840   23.7660 N   0  0  0  0  0  0  0  0  0  0  0  0
  -26.0680  -38.3010   23.9260 H   0  0  0  0  0  0  0  0  0  0  0  0
  -29.0970  -18.2950   20.6370 C   0  0  0  0  0  2  0  0  0  0  0  0
  -30.2930  -17.2660   20.5760 C   0  0  0  0  0  2  0  0  0  0  0  0
  -29.8820  -15.8050   21.0320 C   0  0  0  0  0  2  0  0  0  0  0  0
  -30.6530  -14.5680   20.4520 C   0  0  0  0  0  0  0  0  0  0  0  0
  -30.4230  -12.3600   19.3320 C   0  0  0  0  0  2  0  0  0  0  0  0
  -29.4820  -12.5260   18.1170 C   0  0  0  0  0  2  0  0  0  0  0  0
  -28.0060  -12.3760   18.5350 C   0  0  0  0  0  2  0  0  0  0  0  0
  -27.6520  -13.2270   19.7820 C   0  0  0  0  0  3  0  0  0  0  0  0
  -28.7040  -13.0380   20.9000 C   0  0  0  0  0  2  0  0  0  0  0  0
  -30.0240  -13.3580   20.3400 N   0  0  0  0  0  0  0  0  0  0  0  0
  -31.7910  -14.7410   20.0050 O   0  0  0  0  0  0  0  0  0  0  0  0
  -25.2510  -13.8460   20.4680 C   0  0  0  0  0  0  0  0  0  0  0  0
  -24.1770  -13.0810   20.8340 C   0  0  0  0  0  0  0  0  0  0  0  0
  -24.6350  -11.7280   20.8220 C   0  0  0  0  0  0  0  0  0  0  0  0
  -26.2960  -12.9610   20.2540 N   0  0  0  0  0  0  0  0  0  0  0  0
  -25.9290  -11.6820   20.5260 N   0  0  0  0  0  0  0  0  0  0  0  0
  -23.9040  -10.4710   21.0180 C   0  0  0  0  0  0  0  0  0  0  0  0
  -24.3330   -9.5040   21.9550 C   0  0  0  0  0  3  0  0  0  0  0  0
  -23.6020   -8.3110   22.1390 C   0  0  0  0  0  3  0  0  0  0  0  0
  -22.4290   -8.0740   21.3830 C   0  0  0  0  0  0  0  0  0  0  0  0
  -22.0180   -9.0280   20.4350 C   0  0  0  0  0  3  0  0  0  0  0  0
  -22.7490  -10.2140   20.2510 C   0  0  0  0  0  3  0  0  0  0  0  0
  -21.6700   -6.9320   21.4750 O   0  0  0  0  0  0  0  0  0  0  0  0
  -21.6270   -6.1880   22.6260 C   0  0  0  0  0  0  0  0  0  0  0  0
  -21.2180   -6.7450   23.8570 C   0  0  0  0  0  3  0  0  0  0  0  0
  -21.1220   -5.9270   25.0020 C   0  0  0  0  0  3  0  0  0  0  0  0
  -21.4270   -4.5550   24.9150 C   0  0  0  0  0  0  0  0  0  0  0  0
  -21.8310   -3.9990   23.6880 C   0  0  0  0  0  3  0  0  0  0  0  0
  -21.9280   -4.8130   22.5470 C   0  0  0  0  0  0  0  0  0  0  0  0
  -22.2970   -4.2690   21.3610 F   0  0  0  0  0  0  0  0  0  0  0  0
  -21.3290   -3.7660   26.0120 F   0  0  0  0  0  0  0  0  0  0  0  0
  -22.7780  -13.5640   21.0870 C   0  0  0  0  0  0  0  0  0  0  0  0
  -22.0400  -12.8790   21.9540 N   0  0  0  0  0  0  0  0  0  0  0  0
  -22.3470  -14.5840   20.5500 O   0  0  0  0  0  0  0  0  0  0  0  0
  -22.4000  -12.0530   22.4080 H   0  0  0  0  0  0  0  0  0  0  0  0
  -21.1000  -13.1850   22.1650 H   0  0  0  0  0  0  0  0  0  0  0  0
  -25.4220  -15.2140   20.2760 N   0  0  0  0  0  0  0  0  0  0  0  0
  -24.6550  -15.8730   20.3580 H   0  0  0  0  0  0  0  0  0  0  0  0
  -26.2710  -15.6380   19.9240 H   0  0  0  0  0  0  0  0  0  0  0  0
  1  2  2  0
  1  3  1  0
  2  4  1  0
  3  6  2  0
  4  8  1  0
  4  5  2  0
  5  7  1  0
  6  5  1  0
  6 12  1  0
  8 10  1  0
  9  7  1  0
 10  9  1  0
 10 11  1  1
 13 15  1  0
 13 12  1  0
 14 25  2  0
 15 20  1  0
 16 24  1  0
 16 26  1  0
 17 23  1  0
 17 19  1  0
 18 24  1  0
 19 18  1  0
 20 19  2  0
 21 22  1  0
 21 15  2  0
 22 17  2  0
 23 16  1  0
 24 14  1  0
 26 28  2  0
 27 26  1  0
 29 27  1  0
 30 39  2  0
 30 35  1  0
 31 27  1  0
 31 35  1  0
 32 31  1  0
 33 34  1  0
 33 32  1  0
 34 30  1  0
 35 36  2  0
 36 37  1  0
 38 37  2  0
 39 38  1  0
 40 14  1  0
 40 45  1  0
 40 41  1  0
 41 44  1  1
 41 42  1  0
 43 41  1  0
 45 48  1  0
 46 50  1  0
 46 45  1  0
 47 46  2  0
 50 49  1  0
 52 50  1  0
 52 53  1  0
 52 51  1  0
 54 10  1  0
 55 54  1  0
 55 56  1  0
 57 56  1  0
 58 63  1  0
 59 60  1  0
 59 58  1  0
 61 60  1  0
 61 68  1  0
 61 62  1  0
 63 57  1  0
 63 62  1  0
 64 57  2  0
 65 66  2  0
 66 85  1  0
 67 66  1  0
 67 70  1  0
 68 65  1  0
 68 69  1  0
 69 67  2  0
 70 71  1  0
 71 72  2  0
 73 76  1  0
 73 72  1  0
 74 73  2  0
 75 74  1  0
 75 70  2  0
 76 77  1  0
 77 78  1  0
 78 79  2  0
 80 79  1  0
 80 84  1  0
 81 80  2  0
 82 77  2  0
 82 81  1  0
 83 82  1  0
 85 86  1  0
 86 89  1  0
 86 88  1  0
 87 85  2  0
 90 91  1  0
 90 65  1  0
 92 90  1  0
M  ISO  4  12 101  13 101  56 100  57 100
M  END
>  <TORSDO>  (18) 
F 20

>  <SCORE>  (18) 
-13.814

>  <name>  (18) 
17

>  <ligand_id>  (18) 
17

>  <original_smiles>  (18) 
[H]c1c([H])c([H])c2c(c1[H])C([H])([H])C([H])([H])C([H])([H])C2([H])N([H])C(=O)C1([H])N(C(=O)C([H])(N([H])C(=O)C([H])(N([H])C([H])([H])[H])C([H])([H])[H])C(C([H])([H])[H])(C([H])([H])[H])C([H])([H])[H])C([H])([H])c2c([H])c(OC([H])([H])c3c([H])c([H])c([H])c4c3C([H])([H])C([H])([H])[N+]([H])(C([H])([H])C([H])([H])C([H])([H])C(=O)N3C([H])([H])C([H])([H])C([H])([H])C([H])(n5nc(-c6c([H])c([H])c(Oc7c([H])c([H])c(F)c([H])c7F)c([H])c6[H])c(C(=O)N([H])[H])c5N([H])[H])C3([H])[H])C4([H])[H])c([H])c([H])c2C1([H])[H]

>  <smiles>  (18) 
[H]c1c([H])c([H])c2c(c1[H])C([H])([H])C([H])([H])C([H])([H])C2([H])N([H])C(=O)C1([H])N(C(=O)C([H])(N([H])C(=O)C([H])(N([H])C([H])([H])[H])C([H])([H])[H])C(C([H])([H])[H])(C([H])([H])[H])C([H])([H])[H])C([H])([H])c2c([H])c(OC([H])([H])c3c([H])c([H])c([H])c4c3C([H])([H])C([H])([H])[N+]([H])(C([H])([H])C([H])([H])C([H])([H])C(=O)N3C([H])([H])C([H])([H])C([H])([H])C([H])(n5nc(-c6c([H])c([H])c(Oc7c([H])c([H])c(F)c([H])c7F)c([H])c6[H])c(C(=O)N([H])[H])c5N([H])[H])C3([H])[H])C4([H])[H])c([H])c([H])c2C1([H])[H]

$$$$
18:0:0
     RDKit          3D

 98105  0  0  1  0  0  0  0  0999 V2000
  -30.5680  -20.2020   20.0800 C   0  0  0  0  0  3  0  0  0  0  0  0
  -29.4270  -21.2210   20.2130 N   0  0  0  0  0  4  0  0  0  0  0  0
  -29.0500  -21.3130   19.2840 H   0  0  0  0  0  0  0  0  0  0  0  0
  -28.6910  -20.7860   20.7470 H   0  0  0  0  0  0  0  0  0  0  0  0
  -31.0700  -23.0910   20.8980 C   0  0  0  0  0  1  0  0  0  0  0  0
  -29.5950  -22.6490   20.7560 C   0  0  0  0  0  3  0  0  0  0  0  0
  -28.7760  -23.8010   19.9900 C   0  0  0  0  0  2  0  0  0  0  0  0
  -28.4440  -25.1580   20.7690 C   0  0  0  0  0  2  0  0  0  0  0  0
  -28.4430  -26.4500   20.0530 O   0  0  0  0  0  0  0  0  0  0  0  0
  -24.6080  -31.7210   23.1840 C   0  0  0  0  0  0  0  0  0  0  0  0
  -27.2930  -27.2440   20.0870 C   0  0  0  0  0  0  0  0  0  0  0  0
  -23.4240  -30.3210   21.5260 C   0  0  0  0  0  3  0  0  0  0  0  0
  -24.8970  -28.7950   20.0940 C   0  0  0  0  0  0  0  0  0  0  0  0
  -25.9550  -30.6810   21.3460 C   0  0  0  0  0  2  0  0  0  0  0  0
  -26.0560  -29.3060   20.6940 C   0  0  0  0  0  0  0  0  0  0  0  0
  -27.2590  -28.5410   20.6800 C   0  0  0  0  0  3  0  0  0  0  0  0
  -26.1130  -26.7710   19.4760 C   0  0  0  0  0  3  0  0  0  0  0  0
  -24.9250  -27.5330   19.4750 C   0  0  0  0  0  3  0  0  0  0  0  0
  -23.6490  -29.6540   20.1420 C   0  0  0  0  0  2  0  0  0  0  0  0
  -24.6810  -30.9250   22.0760 N   0  0  0  0  0  0  0  0  0  0  0  0
  -23.5220  -31.9770   23.7220 O   0  0  0  0  0  0  0  0  0  0  0  0
  -22.7720  -29.2900   22.4770 C   0  0  0  0  0  0  0  0  0  0  0  0
  -21.4550  -29.0720   22.3200 N   0  0  0  0  0  0  0  0  0  0  0  0
  -23.4510  -28.6870   23.3120 O   0  0  0  0  0  0  0  0  0  0  0  0
  -20.9670  -29.6110   21.6190 H   0  0  0  0  0  0  0  0  0  0  0  0
  -18.1100  -27.7620   22.7340 C   0  0  0  0  0  0  0  0  0  0  0  0
  -20.6480  -28.1130   23.0750 C   0  0  0  0  0  3  0  0  0  0  0  0
  -20.8180  -26.6800   22.5150 C   0  0  0  0  0  2  0  0  0  0  0  0
  -19.7580  -26.3130   21.4710 C   0  0  0  0  0  2  0  0  0  0  0  0
  -18.3540  -26.4140   22.0750 C   0  0  0  0  0  2  0  0  0  0  0  0
  -19.1890  -28.5660   23.1890 C   0  0  0  0  0  0  0  0  0  0  0  0
  -18.9090  -29.8250   23.7630 C   0  0  0  0  0  3  0  0  0  0  0  0
  -17.5830  -30.2800   23.8900 C   0  0  0  0  0  3  0  0  0  0  0  0
  -16.5180  -29.4750   23.4500 C   0  0  0  0  0  3  0  0  0  0  0  0
  -16.7820  -28.2170   22.8780 C   0  0  0  0  0  3  0  0  0  0  0  0
  -25.8830  -32.3600   23.8150 C   0  0  0  0  0  3  0  0  0  0  0  0
  -25.5610  -33.7560   24.1460 N   0  0  0  0  0  0  0  0  0  0  0  0
  -25.8980  -34.8140   23.3960 C   0  0  0  0  0  0  0  0  0  0  0  0
  -26.5780  -34.7170   22.3710 O   0  0  0  0  0  0  0  0  0  0  0  0
  -24.9560  -33.9030   24.9410 H   0  0  0  0  0  0  0  0  0  0  0  0
  -24.1620  -36.5980   23.0320 C   0  0  0  0  0  1  0  0  0  0  0  0
  -25.3990  -36.1990   23.8520 C   0  0  0  0  0  3  0  0  0  0  0  0
  -27.5190  -37.0970   24.7070 C   0  0  0  0  0  1  0  0  0  0  0  0
  -26.4280  -37.2580   23.7500 N   0  0  0  0  0  0  0  0  0  0  0  0
  -26.0160  -38.1760   23.8930 H   0  0  0  0  0  0  0  0  0  0  0  0
  -26.3980  -31.5900   25.0920 C   0  0  1  0  0  0  0  0  0  0  0  0
  -25.3000  -31.3390   26.1510 C   0  0  0  0  0  1  0  0  0  0  0  0
  -26.9930  -30.2190   24.6970 C   0  0  0  0  0  1  0  0  0  0  0  0
  -27.5390  -32.3900   25.7610 C   0  0  0  0  0  1  0  0  0  0  0  0
  -30.4330  -18.8440   20.9620 C   0  0  0  0  0  3  0  0  0  0  0  0
  -31.3070  -20.3180   22.9460 C   0  0  0  0  0  1  0  0  0  0  0  0
  -31.2550  -18.9420   22.2720 C   0  0  0  0  0  2  0  0  0  0  0  0
  -30.8300  -17.4490   20.2570 C   0  0  0  0  0  3  0  0  0  0  0  0
  -30.4570  -16.0400   20.9170 C   0  0  0  0  0  3  0  0  0  0  0  0
  -31.1400  -14.7400   20.3220 C   0  0  0  0  0  0  0  0  0  0  0  0
  -30.8070  -12.5580   19.1670 C   0  0  0  0  0  2  0  0  0  0  0  0
  -29.8510  -12.7680   17.9720 C   0  0  0  0  0  2  0  0  0  0  0  0
  -28.3800  -12.6490   18.4200 C   0  0  0  0  0  2  0  0  0  0  0  0
  -28.0770  -13.4850   19.6920 C   0  0  0  0  0  3  0  0  0  0  0  0
  -29.1460  -13.2640   20.7830 C   0  0  0  0  0  2  0  0  0  0  0  0
  -30.4600  -13.5580   20.1980 N   0  0  0  0  0  0  0  0  0  0  0  0
  -32.2820  -14.8490   19.8670 O   0  0  0  0  0  0  0  0  0  0  0  0
  -25.7190  -14.1430   20.4680 C   0  0  0  0  0  0  0  0  0  0  0  0
  -24.6320  -13.3980   20.8340 C   0  0  0  0  0  0  0  0  0  0  0  0
  -25.0460  -12.0320   20.7630 C   0  0  0  0  0  0  0  0  0  0  0  0
  -26.7280  -13.2350   20.1950 N   0  0  0  0  0  0  0  0  0  0  0  0
  -26.3280  -11.9580   20.4290 N   0  0  0  0  0  0  0  0  0  0  0  0
  -24.2790  -10.7910   20.9320 C   0  0  0  0  0  0  0  0  0  0  0  0
  -24.6570   -9.8130   21.8780 C   0  0  0  0  0  3  0  0  0  0  0  0
  -23.8940   -8.6360   22.0360 C   0  0  0  0  0  3  0  0  0  0  0  0
  -22.7380   -8.4280   21.2470 C   0  0  0  0  0  0  0  0  0  0  0  0
  -22.3770   -9.3940   20.2910 C   0  0  0  0  0  3  0  0  0  0  0  0
  -23.1410  -10.5630   20.1320 C   0  0  0  0  0  3  0  0  0  0  0  0
  -21.9490   -7.3070   21.3140 O   0  0  0  0  0  0  0  0  0  0  0  0
  -21.8050   -6.5970   22.4790 C   0  0  0  0  0  0  0  0  0  0  0  0
  -21.2970   -7.1890   23.6560 C   0  0  0  0  0  3  0  0  0  0  0  0
  -21.1020   -6.4050   24.8110 C   0  0  0  0  0  3  0  0  0  0  0  0
  -21.4060   -5.0310   24.7900 C   0  0  0  0  0  0  0  0  0  0  0  0
  -21.9070   -4.4380   23.6180 C   0  0  0  0  0  3  0  0  0  0  0  0
  -22.1050   -5.2200   22.4660 C   0  0  0  0  0  0  0  0  0  0  0  0
  -22.5700   -4.6400   21.3340 F   0  0  0  0  0  0  0  0  0  0  0  0
  -21.2110   -4.2760   25.8970 F   0  0  0  0  0  0  0  0  0  0  0  0
  -23.2570  -13.9150   21.1440 C   0  0  0  0  0  0  0  0  0  0  0  0
  -22.5230  -13.2260   22.0110 N   0  0  0  0  0  0  0  0  0  0  0  0
  -22.8420  -14.9650   20.6520 O   0  0  0  0  0  0  0  0  0  0  0  0
  -22.8650  -12.3730   22.4310 H   0  0  0  0  0  0  0  0  0  0  0  0
  -21.6000  -13.5540   22.2590 H   0  0  0  0  0  0  0  0  0  0  0  0
  -25.9300  -15.5120   20.3240 N   0  0  0  0  0  0  0  0  0  0  0  0
  -25.1950  -16.1940   20.4680 H   0  0  0  0  0  0  0  0  0  0  0  0
  -26.7960  -15.9260   20.0070 H   0  0  0  0  0  0  0  0  0  0  0  0
  -30.7210  -19.8320   18.5790 C   0  0  0  0  0  2  0  0  0  0  0  0
  -30.9880  -20.9750   17.5800 C   0  0  0  0  0  2  0  0  0  0  0  0
  -31.2160  -20.4230   16.1570 C   0  0  0  0  0  2  0  0  0  0  0  0
  -31.4850  -21.4980   15.0840 C   0  0  0  0  0  2  0  0  0  0  0  0
  -32.8320  -22.0880   15.1860 N   0  0  0  0  0  4  0  0  0  0  0  0
  -32.9480  -22.6190   16.0290 H   0  0  0  0  0  0  0  0  0  0  0  0
  -32.9810  -22.7090   14.4100 H   0  0  0  0  0  0  0  0  0  0  0  0
  -33.5400  -21.3790   15.1420 H   0  0  0  0  0  0  0  0  0  0  0  0
  1 91  1  0
  1  2  1  0
  1 50  1  0
  2  4  1  0
  2  6  1  0
  3  2  1  0
  6  5  1  0
  7  6  1  0
  7  8  1  0
  9 11  1  0
  9  8  1  0
 10 21  2  0
 11 16  1  0
 12 20  1  0
 12 22  1  0
 13 19  1  0
 13 15  1  0
 14 20  1  0
 15 14  1  0
 16 15  2  0
 17 11  2  0
 18 17  1  0
 18 13  2  0
 19 12  1  0
 20 10  1  0
 22 24  2  0
 23 22  1  0
 25 23  1  0
 26 35  2  0
 26 31  1  0
 27 23  1  0
 27 31  1  0
 28 27  1  0
 29 30  1  0
 29 28  1  0
 30 26  1  0
 31 32  2  0
 32 33  1  0
 34 33  2  0
 35 34  1  0
 36 10  1  0
 36 37  1  0
 36 46  1  0
 37 40  1  0
 38 42  1  0
 38 37  1  0
 39 38  2  0
 42 41  1  0
 44 42  1  0
 44 45  1  0
 44 43  1  0
 46 49  1  1
 46 47  1  0
 48 46  1  0
 50 53  1  0
 50 52  1  0
 52 51  1  0
 53 54  2  0
 55 54  1  0
 56 61  1  0
 57 58  1  0
 57 56  1  0
 59 58  1  0
 59 66  1  0
 59 60  1  0
 61 55  1  0
 61 60  1  0
 62 55  2  0
 63 64  2  0
 64 83  1  0
 65 64  1  0
 65 68  1  0
 66 67  1  0
 66 63  1  0
 67 65  2  0
 68 69  1  0
 69 70  2  0
 71 74  1  0
 71 70  1  0
 72 71  2  0
 73 72  1  0
 73 68  2  0
 74 75  1  0
 75 76  1  0
 76 77  2  0
 78 77  1  0
 78 82  1  0
 79 78  2  0
 80 75  2  0
 80 79  1  0
 81 80  1  0
 83 84  1  0
 84 87  1  0
 84 86  1  0
 85 83  2  0
 88 89  1  0
 88 63  1  0
 90 88  1  0
 92 91  1  0
 93 92  1  0
 94 95  1  0
 94 93  1  0
 95 96  1  0
 97 95  1  0
 98 95  1  0
M  ISO  4   8 101   9 101  54 100  55 100
M  END
>  <TORSDO>  (19) 
F 29

>  <SCORE>  (19) 
-11.005

>  <name>  (19) 
18

>  <ligand_id>  (19) 
18

>  <original_smiles>  (19) 
[H]c1c([H])c([H])c2c(c1[H])C([H])([H])C([H])([H])C([H])([H])C2([H])N([H])C(=O)C1([H])N(C(=O)C([H])(N([H])C(=O)C([H])(N([H])C([H])([H])[H])C([H])([H])[H])C(C([H])([H])[H])(C([H])([H])[H])C([H])([H])[H])C([H])([H])c2c([H])c(OC([H])([H])C([H])([H])C([H])(C([H])([H])[H])[N+]([H])([H])C([H])(C([H])([H])C([H])([H])C([H])([H])C([H])([H])[N+]([H])([H])[H])C([H])(C([H])([H])C([H])([H])[H])C([H])([H])C([H])([H])C(=O)N3C([H])([H])C([H])([H])C([H])([H])C([H])(n4nc(-c5c([H])c([H])c(Oc6c([H])c([H])c(F)c([H])c6F)c([H])c5[H])c(C(=O)N([H])[H])c4N([H])[H])C3([H])[H])c([H])c([H])c2C1([H])[H]

>  <smiles>  (19) 
[H]c1c([H])c([H])c2c(c1[H])C([H])([H])C([H])([H])C([H])([H])C2([H])N([H])C(=O)C1([H])N(C(=O)C([H])(N([H])C(=O)C([H])(N([H])C([H])([H])[H])C([H])([H])[H])C(C([H])([H])[H])(C([H])([H])[H])C([H])([H])[H])C([H])([H])c2c([H])c(OC([H])([H])C([H])([H])C([H])(C([H])([H])[H])[N+]([H])([H])C([H])(C([H])([H])C([H])([H])C([H])([H])C([H])([H])[N+]([H])([H])[H])C([H])(C([H])([H])C([H])([H])[H])C([H])([H])C([H])([H])C(=O)N3C([H])([H])C([H])([H])C([H])([H])C([H])(n4nc(-c5c([H])c([H])c(Oc6c([H])c([H])c(F)c([H])c6F)c([H])c5[H])c(C(=O)N([H])[H])c4N([H])[H])C3([H])[H])c([H])c([H])c2C1([H])[H]

$$$$
19:0:0
     RDKit          3D

 91 99  0  0  1  0  0  0  0  0999 V2000
  -29.1540  -22.7770   19.4680 C   0  0  0  0  0  3  0  0  0  0  0  0
  -25.6530  -21.9450   20.9210 C   0  0  0  0  0  2  0  0  0  0  0  0
  -26.3080  -22.6660   22.1100 C   0  0  0  0  0  2  0  0  0  0  0  0
  -26.7420  -21.7620   19.8570 C   0  0  0  0  0  2  0  0  0  0  0  0
  -27.7170  -23.0850   21.6680 C   0  0  0  0  0  2  0  0  0  0  0  0
  -27.7510  -22.8820   20.1460 C   0  0  0  0  0  3  0  0  0  0  0  0
  -30.0480  -21.6590   20.1340 N   0  0  0  0  0  4  0  0  0  0  0  0
  -30.9410  -21.7040   19.6690 H   0  0  0  0  0  0  0  0  0  0  0  0
  -30.2160  -21.9500   21.0830 H   0  0  0  0  0  0  0  0  0  0  0  0
  -29.6610  -20.1330   20.1920 C   0  0  0  0  0  3  0  0  0  0  0  0
  -30.7190  -18.9570   20.6980 C   0  0  0  0  0  3  0  0  0  0  0  0
  -30.3500  -17.3210   20.8220 C   0  0  0  0  0  2  0  0  0  0  0  0
  -31.2390  -15.9360   20.7060 C   0  0  0  0  0  0  0  0  0  0  0  0
  -31.2640  -13.5480   19.8950 C   0  0  0  0  0  2  0  0  0  0  0  0
  -30.4690  -13.4640   18.5700 C   0  0  0  0  0  2  0  0  0  0  0  0
  -28.9670  -13.2540   18.8470 C   0  0  0  0  0  2  0  0  0  0  0  0
  -28.4250  -14.2170   19.9370 C   0  0  0  0  0  3  0  0  0  0  0  0
  -29.3540  -14.2880   21.1670 C   0  0  0  0  0  2  0  0  0  0  0  0
  -30.6930  -14.6610   20.6970 N   0  0  0  0  0  0  0  0  0  0  0  0
  -32.4540  -16.0280   20.4800 O   0  0  0  0  0  0  0  0  0  0  0  0
  -25.9780  -14.7730   20.4510 C   0  0  0  0  0  0  0  0  0  0  0  0
  -24.8920  -13.9850   20.7210 C   0  0  0  0  0  0  0  0  0  0  0  0
  -25.3710  -12.6390   20.7310 C   0  0  0  0  0  0  0  0  0  0  0  0
  -27.0480  -13.9050   20.3060 N   0  0  0  0  0  0  0  0  0  0  0  0
  -26.6860  -12.6170   20.5400 N   0  0  0  0  0  0  0  0  0  0  0  0
  -24.6440  -11.3690   20.8530 C   0  0  0  0  0  0  0  0  0  0  0  0
  -24.9920  -10.4070   21.8270 C   0  0  0  0  0  3  0  0  0  0  0  0
  -24.2630   -9.2030   21.9370 C   0  0  0  0  0  3  0  0  0  0  0  0
  -23.1720   -8.9520   21.0720 C   0  0  0  0  0  0  0  0  0  0  0  0
  -22.8450   -9.9020   20.0870 C   0  0  0  0  0  3  0  0  0  0  0  0
  -23.5740  -11.0980   19.9760 C   0  0  0  0  0  3  0  0  0  0  0  0
  -22.4230   -7.8000   21.0880 O   0  0  0  0  0  0  0  0  0  0  0  0
  -22.2410   -7.0760   22.2390 C   0  0  0  0  0  0  0  0  0  0  0  0
  -21.6590   -7.6450   23.3930 C   0  0  0  0  0  3  0  0  0  0  0  0
  -21.4250   -6.8470   24.5310 C   0  0  0  0  0  3  0  0  0  0  0  0
  -21.7650   -5.4810   24.5150 C   0  0  0  0  0  0  0  0  0  0  0  0
  -22.3380   -4.9120   23.3650 C   0  0  0  0  0  3  0  0  0  0  0  0
  -22.5730   -5.7060   22.2290 C   0  0  0  0  0  0  0  0  0  0  0  0
  -23.1070   -5.1480   21.1160 F   0  0  0  0  0  0  0  0  0  0  0  0
  -21.5340   -4.7120   25.6050 F   0  0  0  0  0  0  0  0  0  0  0  0
  -23.4710  -14.4460   20.8630 C   0  0  0  0  0  0  0  0  0  0  0  0
  -22.6780  -13.7520   21.6720 N   0  0  0  0  0  0  0  0  0  0  0  0
  -23.0670  -15.4600   20.2920 O   0  0  0  0  0  0  0  0  0  0  0  0
  -23.0150  -12.9330   22.1560 H   0  0  0  0  0  0  0  0  0  0  0  0
  -21.7200  -14.0420   21.8080 H   0  0  0  0  0  0  0  0  0  0  0  0
  -26.1430  -16.1450   20.2920 N   0  0  0  0  0  0  0  0  0  0  0  0
  -25.3660  -16.7940   20.3420 H   0  0  0  0  0  0  0  0  0  0  0  0
  -27.0210  -16.5940   20.0660 H   0  0  0  0  0  0  0  0  0  0  0  0
  -29.7420  -24.3300   19.2460 C   0  0  0  0  0  2  0  0  0  0  0  0
  -28.7770  -25.6330   18.8560 C   0  0  0  0  0  2  0  0  0  0  0  0
  -28.9940  -27.1190   19.1830 O   0  0  0  0  0  0  0  0  0  0  0  0
  -24.9450  -31.5850   23.3540 C   0  0  0  0  0  0  0  0  0  0  0  0
  -27.8640  -27.9890   19.3250 C   0  0  0  0  0  0  0  0  0  0  0  0
  -23.8500  -30.5490   21.4040 C   0  0  0  0  0  3  0  0  0  0  0  0
  -25.4100  -29.4860   19.6680 C   0  0  0  0  0  0  0  0  0  0  0  0
  -26.3740  -31.0410   21.3540 C   0  0  0  0  0  2  0  0  0  0  0  0
  -26.5500  -29.8630   20.3880 C   0  0  0  0  0  0  0  0  0  0  0  0
  -27.7780  -29.1330   20.2050 C   0  0  0  0  0  3  0  0  0  0  0  0
  -26.6890  -27.7100   18.5880 C   0  0  0  0  0  3  0  0  0  0  0  0
  -25.4890  -28.4240   18.7570 C   0  0  0  0  0  3  0  0  0  0  0  0
  -24.1180  -30.2480   19.9060 C   0  0  0  0  0  2  0  0  0  0  0  0
  -25.0740  -31.0660   22.0970 N   0  0  0  0  0  0  0  0  0  0  0  0
  -23.8410  -31.6540   23.9160 O   0  0  0  0  0  0  0  0  0  0  0  0
  -23.2500  -29.2900   22.0780 C   0  0  0  0  0  0  0  0  0  0  0  0
  -21.9470  -29.0420   21.8590 N   0  0  0  0  0  0  0  0  0  0  0  0
  -23.9600  -28.5460   22.7600 O   0  0  0  0  0  0  0  0  0  0  0  0
  -21.4270  -29.7020   21.2980 H   0  0  0  0  0  0  0  0  0  0  0  0
  -18.6840  -27.4730   21.9090 C   0  0  0  0  0  0  0  0  0  0  0  0
  -21.1970  -27.8870   22.3600 C   0  0  0  0  0  3  0  0  0  0  0  0
  -21.4540  -26.6360   21.4870 C   0  0  0  0  0  2  0  0  0  0  0  0
  -20.4180  -26.4550   20.3730 C   0  0  0  0  0  2  0  0  0  0  0  0
  -19.0110  -26.3310   20.9610 C   0  0  0  0  0  2  0  0  0  0  0  0
  -19.7110  -28.2130   22.5540 C   0  0  0  0  0  0  0  0  0  0  0  0
  -19.3530  -29.2850   23.4010 C   0  0  0  0  0  3  0  0  0  0  0  0
  -18.0010  -29.6200   23.6070 C   0  0  0  0  0  3  0  0  0  0  0  0
  -16.9890  -28.8750   22.9770 C   0  0  0  0  0  3  0  0  0  0  0  0
  -17.3310  -27.8030   22.1350 C   0  0  0  0  0  3  0  0  0  0  0  0
  -26.1740  -32.1360   24.1390 C   0  0  0  0  0  3  0  0  0  0  0  0
  -25.8190  -33.4700   24.6460 N   0  0  0  0  0  0  0  0  0  0  0  0
  -26.1630  -34.6250   24.0620 C   0  0  0  0  0  0  0  0  0  0  0  0
  -26.8810  -34.6790   23.0600 O   0  0  0  0  0  0  0  0  0  0  0  0
  -25.1870  -33.5000   25.4320 H   0  0  0  0  0  0  0  0  0  0  0  0
  -24.4100  -36.4230   23.8960 C   0  0  0  0  0  1  0  0  0  0  0  0
  -25.6300  -35.9280   24.6910 C   0  0  0  0  0  3  0  0  0  0  0  0
  -27.7100  -36.7260   25.7220 C   0  0  0  0  0  1  0  0  0  0  0  0
  -26.6420  -37.0050   24.7650 N   0  0  0  0  0  0  0  0  0  0  0  0
  -26.2100  -37.8890   25.0200 H   0  0  0  0  0  0  0  0  0  0  0  0
  -26.6250  -31.1960   25.3240 C   0  0  1  0  0  0  0  0  0  0  0  0
  -25.4740  -30.8070   26.2810 C   0  0  0  0  0  1  0  0  0  0  0  0
  -27.2470  -29.8880   24.7830 C   0  0  0  0  0  1  0  0  0  0  0  0
  -27.7250  -31.8950   26.1570 C   0  0  0  0  0  1  0  0  0  0  0  0
  1 49  1  0
  1  7  1  0
  1  6  1  0
  2  3  1  0
  4  6  1  0
  4  2  1  0
  5  3  1  0
  6  5  1  0
  7 10  1  0
  7  9  1  0
  8  7  1  0
 10 11  2  0
 11 12  1  0
 13 12  1  0
 14 19  1  0
 15 16  1  0
 15 14  1  0
 17 16  1  0
 17 24  1  0
 17 18  1  0
 19 13  1  0
 19 18  1  0
 20 13  2  0
 21 22  2  0
 22 23  1  0
 22 41  1  0
 23 26  1  0
 24 21  1  0
 24 25  1  0
 25 23  2  0
 26 27  1  0
 27 28  2  0
 29 32  1  0
 29 28  1  0
 30 29  2  0
 31 30  1  0
 31 26  2  0
 32 33  1  0
 33 34  1  0
 34 35  2  0
 36 35  1  0
 36 40  1  0
 37 36  2  0
 38 33  2  0
 38 37  1  0
 39 38  1  0
 41 42  1  0
 42 45  1  0
 42 44  1  0
 43 41  2  0
 46 47  1  0
 46 21  1  0
 48 46  1  0
 50 51  1  0
 50 49  1  0
 51 53  1  0
 52 63  2  0
 53 58  1  0
 54 64  1  0
 54 62  1  0
 55 61  1  0
 55 57  1  0
 56 62  1  0
 57 56  1  0
 58 57  2  0
 59 60  1  0
 59 53  2  0
 60 55  2  0
 61 54  1  0
 62 52  1  0
 64 66  2  0
 65 64  1  0
 67 65  1  0
 68 77  2  0
 68 73  1  0
 69 65  1  0
 69 73  1  0
 70 69  1  0
 71 72  1  0
 71 70  1  0
 72 68  1  0
 73 74  2  0
 74 75  1  0
 76 75  2  0
 77 76  1  0
 78 52  1  0
 78 79  1  0
 78 88  1  0
 79 82  1  0
 80 79  1  0
 80 84  1  0
 81 80  2  0
 84 83  1  0
 84 86  1  0
 86 87  1  0
 86 85  1  0
 88 91  1  1
 88 89  1  0
 90 88  1  0
M  ISO  4  12 100  13 100  50 101  51 101
M  END
>  <TORSDO>  (20) 
F 23

>  <SCORE>  (20) 
-5.534

>  <name>  (20) 
19

>  <ligand_id>  (20) 
19

>  <original_smiles>  (20) 
[H]c1c([H])c([H])c2c(c1[H])C([H])([H])C([H])([H])C([H])([H])C2([H])N([H])C(=O)C1([H])N(C(=O)C([H])(N([H])C(=O)C([H])(N([H])C([H])([H])[H])C([H])([H])[H])C(C([H])([H])[H])(C([H])([H])[H])C([H])([H])[H])C([H])([H])c2c([H])c(OC([H])([H])C([H])([H])C([H])(C3([H])C([H])([H])C([H])([H])C([H])([H])C3([H])[H])[N+]([H])([H])C([H])([H])C([H])([H])C([H])([H])C(=O)N3C([H])([H])C([H])([H])C([H])([H])C([H])(n4nc(-c5c([H])c([H])c(Oc6c([H])c([H])c(F)c([H])c6F)c([H])c5[H])c(C(=O)N([H])[H])c4N([H])[H])C3([H])[H])c([H])c([H])c2C1([H])[H]

>  <smiles>  (20) 
[H]c1c([H])c([H])c2c(c1[H])C([H])([H])C([H])([H])C([H])([H])C2([H])N([H])C(=O)C1([H])N(C(=O)C([H])(N([H])C(=O)C([H])(N([H])C([H])([H])[H])C([H])([H])[H])C(C([H])([H])[H])(C([H])([H])[H])C([H])([H])[H])C([H])([H])c2c([H])c(OC([H])([H])C([H])([H])C([H])(C3([H])C([H])([H])C([H])([H])C([H])([H])C3([H])[H])[N+]([H])([H])C([H])([H])C([H])([H])C([H])([H])C(=O)N3C([H])([H])C([H])([H])C([H])([H])C([H])(n4nc(-c5c([H])c([H])c(Oc6c([H])c([H])c(F)c([H])c6F)c([H])c5[H])c(C(=O)N([H])[H])c4N([H])[H])C3([H])[H])c([H])c([H])c2C1([H])[H]

$$$$
20:0:0
     RDKit          3D

 94102  0  0  1  0  0  0  0  0999 V2000
  -30.3390  -20.2490   17.5210 C   0  0  0  0  0  2  0  0  0  0  0  0
  -29.0040  -20.2910   16.7740 C   0  0  0  0  0  2  0  0  0  0  0  0
  -30.2700  -20.9780   18.8800 C   0  0  0  0  0  2  0  0  0  0  0  0
  -27.7510  -20.6260   18.9300 C   0  0  0  0  0  2  0  0  0  0  0  0
  -27.8590  -19.7650   17.6500 C   0  0  0  0  0  3  0  0  0  0  0  0
  -29.0420  -20.6800   19.8040 C   0  0  1  0  0  0  0  0  0  0  0  0
  -26.5460  -19.7530   16.8470 C   0  0  0  0  0  1  0  0  0  0  0  0
  -29.1540  -19.2840   20.5830 N   0  0  0  0  0  4  0  0  0  0  0  0
  -28.2110  -18.9290   20.5820 H   0  0  0  0  0  0  0  0  0  0  0  0
  -29.3290  -19.5260   21.5470 H   0  0  0  0  0  0  0  0  0  0  0  0
  -30.0910  -18.0240   20.3080 C   0  0  0  0  0  3  0  0  0  0  0  0
  -31.3740  -18.1520   22.5580 C   0  0  0  0  0  1  0  0  0  0  0  0
  -31.4410  -18.2650   21.0230 C   0  0  0  0  0  2  0  0  0  0  0  0
  -29.6080  -16.4320   20.6180 C   0  0  0  0  0  2  0  0  0  0  0  0
  -30.4950  -15.0440   20.3790 C   0  0  0  0  0  0  0  0  0  0  0  0
  -30.4430  -12.6980   19.4300 C   0  0  0  0  0  2  0  0  0  0  0  0
  -29.5190  -12.6960   18.1890 C   0  0  0  0  0  2  0  0  0  0  0  0
  -28.0520  -12.4700   18.5940 C   0  0  0  0  0  2  0  0  0  0  0  0
  -27.6280  -13.3590   19.7920 C   0  0  0  0  0  3  0  0  0  0  0  0
  -28.6700  -13.3470   20.9290 C   0  0  0  0  0  2  0  0  0  0  0  0
  -29.9550  -13.7610   20.3530 N   0  0  0  0  0  0  0  0  0  0  0  0
  -31.6920  -15.1330   20.0750 O   0  0  0  0  0  0  0  0  0  0  0  0
  -25.2290  -13.9050   20.4910 C   0  0  0  0  0  0  0  0  0  0  0  0
  -24.1700  -13.1130   20.8460 C   0  0  0  0  0  0  0  0  0  0  0  0
  -24.6590  -11.7700   20.8290 C   0  0  0  0  0  0  0  0  0  0  0  0
  -26.2880  -13.0430   20.2690 N   0  0  0  0  0  0  0  0  0  0  0  0
  -25.9550  -11.7560   20.5370 N   0  0  0  0  0  0  0  0  0  0  0  0
  -23.9540  -10.4960   21.0160 C   0  0  0  0  0  0  0  0  0  0  0  0
  -24.3720   -9.5530   21.9800 C   0  0  0  0  0  3  0  0  0  0  0  0
  -23.6630   -8.3440   22.1500 C   0  0  0  0  0  3  0  0  0  0  0  0
  -22.5240   -8.0690   21.3560 C   0  0  0  0  0  0  0  0  0  0  0  0
  -22.1280   -9.0010   20.3790 C   0  0  0  0  0  3  0  0  0  0  0  0
  -22.8360  -10.2020   20.2100 C   0  0  0  0  0  3  0  0  0  0  0  0
  -21.7870   -6.9120   21.4350 O   0  0  0  0  0  0  0  0  0  0  0  0
  -21.6960   -6.1960   22.6020 C   0  0  0  0  0  0  0  0  0  0  0  0
  -21.1740   -6.7650   23.7850 C   0  0  0  0  0  3  0  0  0  0  0  0
  -21.0380   -5.9750   24.9440 C   0  0  0  0  0  3  0  0  0  0  0  0
  -21.4060   -4.6160   24.9160 C   0  0  0  0  0  0  0  0  0  0  0  0
  -21.9200   -4.0470   23.7370 C   0  0  0  0  0  3  0  0  0  0  0  0
  -22.0600   -4.8350   22.5810 C   0  0  0  0  0  0  0  0  0  0  0  0
  -22.5360   -4.2770   21.4410 F   0  0  0  0  0  0  0  0  0  0  0  0
  -21.2670   -3.8530   26.0260 F   0  0  0  0  0  0  0  0  0  0  0  0
  -22.7610  -13.5670   21.0940 C   0  0  0  0  0  0  0  0  0  0  0  0
  -22.0240  -12.8540   21.9400 N   0  0  0  0  0  0  0  0  0  0  0  0
  -22.3180  -14.5900   20.5740 O   0  0  0  0  0  0  0  0  0  0  0  0
  -22.3930  -12.0250   22.3830 H   0  0  0  0  0  0  0  0  0  0  0  0
  -21.0790  -13.1460   22.1490 H   0  0  0  0  0  0  0  0  0  0  0  0
  -25.3740  -15.2770   20.3160 N   0  0  0  0  0  0  0  0  0  0  0  0
  -24.5990  -15.9200   20.4460 H   0  0  0  0  0  0  0  0  0  0  0  0
  -26.2190  -15.7310   19.9940 H   0  0  0  0  0  0  0  0  0  0  0  0
  -28.9150  -22.0800   20.7310 C   0  0  0  0  0  2  0  0  0  0  0  0
  -28.0670  -23.5290   20.5010 C   0  0  0  0  0  2  0  0  0  0  0  0
  -28.4770  -24.9590   19.7520 C   0  0  0  0  0  2  0  0  0  0  0  0
  -28.3430  -26.3990   20.2880 O   0  0  0  0  0  0  0  0  0  0  0  0
  -24.5860  -31.9280   23.2410 C   0  0  0  0  0  0  0  0  0  0  0  0
  -27.2320  -27.2930   20.1850 C   0  0  0  0  0  0  0  0  0  0  0  0
  -23.4040  -30.5270   21.5930 C   0  0  0  0  0  3  0  0  0  0  0  0
  -24.8710  -28.9720   20.1570 C   0  0  0  0  0  0  0  0  0  0  0  0
  -25.9520  -30.8270   21.4330 C   0  0  0  0  0  2  0  0  0  0  0  0
  -26.0360  -29.4430   20.7750 C   0  0  0  0  0  0  0  0  0  0  0  0
  -27.2110  -28.6130   20.7770 C   0  0  0  0  0  3  0  0  0  0  0  0
  -26.0430  -26.9050   19.5320 C   0  0  0  0  0  3  0  0  0  0  0  0
  -24.8840  -27.7180   19.5210 C   0  0  0  0  0  3  0  0  0  0  0  0
  -23.6280  -29.8500   20.2120 C   0  0  0  0  0  2  0  0  0  0  0  0
  -24.6670  -31.1170   22.1430 N   0  0  0  0  0  0  0  0  0  0  0  0
  -23.4940  -32.2010   23.7650 O   0  0  0  0  0  0  0  0  0  0  0  0
  -22.7370  -29.5090   22.5490 C   0  0  0  0  0  0  0  0  0  0  0  0
  -21.4120  -29.3210   22.4130 N   0  0  0  0  0  0  0  0  0  0  0  0
  -23.4100  -28.8900   23.3760 O   0  0  0  0  0  0  0  0  0  0  0  0
  -20.9260  -29.8760   21.7230 H   0  0  0  0  0  0  0  0  0  0  0  0
  -18.0370  -28.0900   22.8910 C   0  0  0  0  0  0  0  0  0  0  0  0
  -20.5930  -28.3740   23.1720 C   0  0  0  0  0  3  0  0  0  0  0  0
  -20.7100  -26.9450   22.5910 C   0  0  0  0  0  2  0  0  0  0  0  0
  -19.6140  -26.6190   21.5700 C   0  0  0  0  0  2  0  0  0  0  0  0
  -18.2270  -26.7470   22.2060 C   0  0  0  0  0  2  0  0  0  0  0  0
  -19.1470  -28.8610   23.3290 C   0  0  0  0  0  0  0  0  0  0  0  0
  -18.9110  -30.1200   23.9250 C   0  0  0  0  0  3  0  0  0  0  0  0
  -17.5990  -30.6050   24.0890 C   0  0  0  0  0  3  0  0  0  0  0  0
  -16.5050  -29.8300   23.6670 C   0  0  0  0  0  3  0  0  0  0  0  0
  -16.7250  -28.5750   23.0710 C   0  0  0  0  0  3  0  0  0  0  0  0
  -25.8570  -32.5710   23.8790 C   0  0  0  0  0  3  0  0  0  0  0  0
  -25.5410  -33.9770   24.1860 N   0  0  0  0  0  0  0  0  0  0  0  0
  -25.8920  -35.0220   23.4260 C   0  0  0  0  0  0  0  0  0  0  0  0
  -26.5820  -34.9070   22.4100 O   0  0  0  0  0  0  0  0  0  0  0  0
  -24.9300  -34.1400   24.9720 H   0  0  0  0  0  0  0  0  0  0  0  0
  -24.1850  -36.8250   23.0190 C   0  0  0  0  0  1  0  0  0  0  0  0
  -25.4030  -36.4180   23.8630 C   0  0  0  0  0  3  0  0  0  0  0  0
  -27.5180  -37.2970   24.7480 C   0  0  0  0  0  1  0  0  0  0  0  0
  -26.4470  -37.4630   23.7700 N   0  0  0  0  0  0  0  0  0  0  0  0
  -26.0430  -38.3870   23.8950 H   0  0  0  0  0  0  0  0  0  0  0  0
  -26.3480  -31.8220   25.1780 C   0  0  1  0  0  0  0  0  0  0  0  0
  -25.2320  -31.6060   26.2280 C   0  0  0  0  0  1  0  0  0  0  0  0
  -26.9380  -30.4370   24.8260 C   0  0  0  0  0  1  0  0  0  0  0  0
  -27.4860  -32.6270   25.8470 C   0  0  0  0  0  1  0  0  0  0  0  0
  1  3  1  0
  2  1  1  0
  2  5  1  0
  3  6  1  0
  4  6  1  0
  5  7  1  0
  5  4  1  0
  6  8  1  0
  6 51  1  1
  8 10  1  0
  9  8  1  0
 11  8  1  0
 11 14  1  0
 11 13  1  0
 13 12  1  0
 15 14  1  0
 16 21  1  0
 17 18  1  0
 17 16  1  0
 19 18  1  0
 19 26  1  0
 19 20  1  0
 21 15  1  0
 21 20  1  0
 22 15  2  0
 23 24  2  0
 24 43  1  0
 25 24  1  0
 25 28  1  0
 26 23  1  0
 26 27  1  0
 27 25  2  0
 28 29  1  0
 29 30  2  0
 31 34  1  0
 31 30  1  0
 32 31  2  0
 33 32  1  0
 33 28  2  0
 34 35  1  0
 35 36  1  0
 36 37  2  0
 38 37  1  0
 38 42  1  0
 39 38  2  0
 40 35  2  0
 40 39  1  0
 41 40  1  0
 43 44  1  0
 44 47  1  0
 44 46  1  0
 45 43  2  0
 48 49  1  0
 48 23  1  0
 50 48  1  0
 52 51  1  0
 53 54  1  0
 53 52  1  0
 55 66  2  0
 56 54  1  0
 56 61  1  0
 57 65  1  0
 57 67  1  0
 58 64  1  0
 58 60  1  0
 59 65  1  0
 60 61  2  0
 60 59  1  0
 62 56  2  0
 63 62  1  0
 63 58  2  0
 64 57  1  0
 65 55  1  0
 67 69  2  0
 68 67  1  0
 70 68  1  0
 71 80  2  0
 71 76  1  0
 72 68  1  0
 72 76  1  0
 73 72  1  0
 74 75  1  0
 74 73  1  0
 75 71  1  0
 76 77  2  0
 77 78  1  0
 79 78  2  0
 80 79  1  0
 81 55  1  0
 81 82  1  0
 81 91  1  0
 82 85  1  0
 83 87  1  0
 83 82  1  0
 84 83  2  0
 87 86  1  0
 89 87  1  0
 89 90  1  0
 89 88  1  0
 91 94  1  1
 91 92  1  0
 93 91  1  0
M  ISO  4  14 100  15 100  53 101  54 101
M  END
>  <TORSDO>  (21) 
F 23

>  <SCORE>  (21) 
-13.389

>  <name>  (21) 
20

>  <ligand_id>  (21) 
20

>  <original_smiles>  (21) 
[H]c1c([H])c([H])c2c(c1[H])C([H])([H])C([H])([H])C([H])([H])C2([H])N([H])C(=O)C1([H])N(C(=O)C([H])(N([H])C(=O)C([H])(N([H])C([H])([H])[H])C([H])([H])[H])C(C([H])([H])[H])(C([H])([H])[H])C([H])([H])[H])C([H])([H])c2c([H])c(OC([H])([H])C([H])([H])C([H])([H])C3([N+]([H])([H])C([H])(C([H])([H])C(=O)N4C([H])([H])C([H])([H])C([H])([H])C([H])(n5nc(-c6c([H])c([H])c(Oc7c([H])c([H])c(F)c([H])c7F)c([H])c6[H])c(C(=O)N([H])[H])c5N([H])[H])C4([H])[H])C([H])([H])C([H])([H])[H])C([H])([H])C([H])([H])C([H])([H])C([H])(C([H])([H])[H])C3([H])[H])c([H])c([H])c2C1([H])[H]

>  <smiles>  (21) 
[H]c1c([H])c([H])c2c(c1[H])C([H])([H])C([H])([H])C([H])([H])C2([H])N([H])C(=O)C1([H])N(C(=O)C([H])(N([H])C(=O)C([H])(N([H])C([H])([H])[H])C([H])([H])[H])C(C([H])([H])[H])(C([H])([H])[H])C([H])([H])[H])C([H])([H])c2c([H])c(OC([H])([H])C([H])([H])C([H])([H])C3([N+]([H])([H])C([H])(C([H])([H])C(=O)N4C([H])([H])C([H])([H])C([H])([H])C([H])(n5nc(-c6c([H])c([H])c(Oc7c([H])c([H])c(F)c([H])c7F)c([H])c6[H])c(C(=O)N([H])[H])c5N([H])[H])C4([H])[H])C([H])([H])C([H])([H])[H])C([H])([H])C([H])([H])C([H])([H])C([H])(C([H])([H])[H])C3([H])[H])c([H])c([H])c2C1([H])[H]

$$$$
21:0:0
     RDKit          3D

 95103  0  0  1  0  0  0  0  0999 V2000
  -29.2340  -22.0610   20.3870 C   0  0  0  0  0  3  0  0  0  0  0  0
  -29.3490  -20.5840   19.8080 N   0  0  0  0  0  4  0  0  0  0  0  0
  -28.4240  -20.3340   19.4970 H   0  0  0  0  0  0  0  0  0  0  0  0
  -29.9060  -20.6490   18.9700 H   0  0  0  0  0  0  0  0  0  0  0  0
  -31.2980  -19.6270   21.1960 C   0  0  0  0  0  1  0  0  0  0  0  0
  -29.8990  -19.3310   20.6210 C   0  0  0  0  0  3  0  0  0  0  0  0
  -30.0310  -17.8070   19.9500 C   0  0  0  0  0  2  0  0  0  0  0  0
  -30.1180  -16.3890   20.8390 C   0  0  0  0  0  2  0  0  0  0  0  0
  -30.8850  -14.9960   20.4270 C   0  0  0  0  0  0  0  0  0  0  0  0
  -30.7860  -12.6220   19.5570 C   0  0  0  0  0  2  0  0  0  0  0  0
  -29.8400  -12.5780   18.3320 C   0  0  0  0  0  2  0  0  0  0  0  0
  -28.3830  -12.3610   18.7750 C   0  0  0  0  0  2  0  0  0  0  0  0
  -27.9840  -13.3260   19.9190 C   0  0  0  0  0  3  0  0  0  0  0  0
  -29.0350  -13.3460   21.0500 C   0  0  0  0  0  2  0  0  0  0  0  0
  -30.3200  -13.7250   20.4450 N   0  0  0  0  0  0  0  0  0  0  0  0
  -32.0540  -15.0830   20.0260 O   0  0  0  0  0  0  0  0  0  0  0  0
  -25.6410  -13.9670   20.7360 C   0  0  0  0  0  0  0  0  0  0  0  0
  -24.5480  -13.2130   21.0670 C   0  0  0  0  0  0  0  0  0  0  0  0
  -24.9490  -11.8470   20.9290 C   0  0  0  0  0  0  0  0  0  0  0  0
  -26.6400  -13.0600   20.4170 N   0  0  0  0  0  0  0  0  0  0  0  0
  -26.2320  -11.7770   20.5950 N   0  0  0  0  0  0  0  0  0  0  0  0
  -24.1680  -10.6080   21.0400 C   0  0  0  0  0  0  0  0  0  0  0  0
  -24.5890   -9.5440   21.8660 C   0  0  0  0  0  3  0  0  0  0  0  0
  -23.8150   -8.3670   21.9710 C   0  0  0  0  0  3  0  0  0  0  0  0
  -22.6040   -8.2470   21.2510 C   0  0  0  0  0  0  0  0  0  0  0  0
  -22.2030   -9.2980   20.4100 C   0  0  0  0  0  3  0  0  0  0  0  0
  -22.9750  -10.4660   20.2990 C   0  0  0  0  0  3  0  0  0  0  0  0
  -21.8040   -7.1290   21.2670 O   0  0  0  0  0  0  0  0  0  0  0  0
  -21.7860   -6.2760   22.3420 C   0  0  0  0  0  0  0  0  0  0  0  0
  -21.4460   -6.7210   23.6380 C   0  0  0  0  0  3  0  0  0  0  0  0
  -21.3660   -5.7990   24.7020 C   0  0  0  0  0  3  0  0  0  0  0  0
  -21.6230   -4.4330   24.4690 C   0  0  0  0  0  0  0  0  0  0  0  0
  -21.9610   -3.9870   23.1780 C   0  0  0  0  0  3  0  0  0  0  0  0
  -22.0400   -4.9070   22.1180 C   0  0  0  0  0  0  0  0  0  0  0  0
  -22.3430   -4.4710   20.8710 F   0  0  0  0  0  0  0  0  0  0  0  0
  -21.5420   -3.5460   25.4880 F   0  0  0  0  0  0  0  0  0  0  0  0
  -23.1770  -13.7240   21.3950 C   0  0  0  0  0  0  0  0  0  0  0  0
  -22.4460  -13.0020   22.2370 N   0  0  0  0  0  0  0  0  0  0  0  0
  -22.7660  -14.7930   20.9430 O   0  0  0  0  0  0  0  0  0  0  0  0
  -22.8020  -12.1360   22.6080 H   0  0  0  0  0  0  0  0  0  0  0  0
  -21.5200  -13.3120   22.4980 H   0  0  0  0  0  0  0  0  0  0  0  0
  -25.8740  -15.3340   20.6500 N   0  0  0  0  0  0  0  0  0  0  0  0
  -25.1550  -16.0340   20.7940 H   0  0  0  0  0  0  0  0  0  0  0  0
  -26.7480  -15.7300   20.3310 H   0  0  0  0  0  0  0  0  0  0  0  0
  -28.4520  -22.0750   21.7360 C   0  0  0  0  0  2  0  0  0  0  0  0
  -29.3070  -25.0600   24.0320 C   0  0  0  0  0  3  0  0  0  0  0  0
  -28.2190  -25.9210   23.8020 C   0  0  0  0  0  3  0  0  0  0  0  0
  -29.3850  -23.8270   23.3550 C   0  0  0  0  0  3  0  0  0  0  0  0
  -27.2620  -24.2930   22.2560 C   0  0  0  0  0  3  0  0  0  0  0  0
  -27.1990  -25.5450   22.9070 C   0  0  0  0  0  0  0  0  0  0  0  0
  -28.3680  -23.4330   22.4490 C   0  0  0  0  0  0  0  0  0  0  0  0
  -26.0570  -26.5050   22.6280 C   0  0  0  0  0  1  0  0  0  0  0  0
  -28.7750  -23.3560   19.3960 C   0  0  0  0  0  3  0  0  0  0  0  0
  -28.1160  -24.8200   19.9050 C   0  0  0  0  0  3  0  0  0  0  0  0
  -28.0120  -26.1800   19.1920 O   0  0  0  0  0  0  0  0  0  0  0  0
  -24.6260  -31.6270   22.8650 C   0  0  0  0  0  0  0  0  0  0  0  0
  -26.9310  -27.0970   19.3900 C   0  0  0  0  0  0  0  0  0  0  0  0
  -23.2960  -30.3410   21.2370 C   0  0  0  0  0  3  0  0  0  0  0  0
  -24.6200  -28.8320   19.6280 C   0  0  0  0  0  0  0  0  0  0  0  0
  -25.8330  -30.5920   20.9090 C   0  0  0  0  0  2  0  0  0  0  0  0
  -25.8410  -29.2400   20.1770 C   0  0  0  0  0  0  0  0  0  0  0  0
  -26.9980  -28.3900   20.0400 C   0  0  0  0  0  3  0  0  0  0  0  0
  -25.6760  -26.7650   18.8410 C   0  0  0  0  0  3  0  0  0  0  0  0
  -24.5450  -27.6070   18.9430 C   0  0  0  0  0  3  0  0  0  0  0  0
  -23.4130  -29.7370   19.8140 C   0  0  0  0  0  2  0  0  0  0  0  0
  -24.6090  -30.8710   21.7250 N   0  0  0  0  0  0  0  0  0  0  0  0
  -23.5830  -31.8960   23.4770 O   0  0  0  0  0  0  0  0  0  0  0  0
  -22.6630  -29.2900   22.1840 C   0  0  0  0  0  0  0  0  0  0  0  0
  -21.3270  -29.1400   22.1300 N   0  0  0  0  0  0  0  0  0  0  0  0
  -23.3750  -28.6170   22.9340 O   0  0  0  0  0  0  0  0  0  0  0  0
  -20.8110  -29.7250   21.4870 H   0  0  0  0  0  0  0  0  0  0  0  0
  -17.9690  -27.9460   22.7580 C   0  0  0  0  0  0  0  0  0  0  0  0
  -20.5410  -28.1730   22.8960 C   0  0  0  0  0  3  0  0  0  0  0  0
  -20.5990  -26.7740   22.2410 C   0  0  0  0  0  2  0  0  0  0  0  0
  -19.4370  -26.5130   21.2770 C   0  0  0  0  0  2  0  0  0  0  0  0
  -18.0940  -26.6340   22.0030 C   0  0  0  0  0  2  0  0  0  0  0  0
  -19.1170  -28.6770   23.1620 C   0  0  0  0  0  0  0  0  0  0  0  0
  -18.9410  -29.9090   23.8310 C   0  0  0  0  0  3  0  0  0  0  0  0
  -17.6510  -30.4080   24.0980 C   0  0  0  0  0  3  0  0  0  0  0  0
  -16.5180  -29.6700   23.7110 C   0  0  0  0  0  3  0  0  0  0  0  0
  -16.6790  -28.4400   23.0470 C   0  0  0  0  0  3  0  0  0  0  0  0
  -25.9550  -32.2080   23.4370 C   0  0  0  0  0  3  0  0  0  0  0  0
  -25.6750  -33.5630   23.9350 N   0  0  0  0  0  0  0  0  0  0  0  0
  -25.9730  -34.6940   23.2800 C   0  0  0  0  0  0  0  0  0  0  0  0
  -26.5790  -34.7000   22.2060 O   0  0  0  0  0  0  0  0  0  0  0  0
  -25.1320  -33.6260   24.7830 H   0  0  0  0  0  0  0  0  0  0  0  0
  -24.2470  -36.5250   23.2290 C   0  0  0  0  0  1  0  0  0  0  0  0
  -25.5290  -36.0260   23.9170 C   0  0  0  0  0  3  0  0  0  0  0  0
  -27.7170  -36.8070   24.7160 C   0  0  0  0  0  1  0  0  0  0  0  0
  -26.5670  -37.0800   23.8600 N   0  0  0  0  0  0  0  0  0  0  0  0
  -26.1800  -37.9830   24.1280 H   0  0  0  0  0  0  0  0  0  0  0  0
  -26.5740  -31.3150   24.5830 C   0  0  1  0  0  0  0  0  0  0  0  0
  -25.5750  -30.9790   25.7160 C   0  0  0  0  0  1  0  0  0  0  0  0
  -27.1060  -29.9790   24.0150 C   0  0  0  0  0  1  0  0  0  0  0  0
  -27.7920  -32.0350   25.2060 C   0  0  0  0  0  1  0  0  0  0  0  0
  1 53  1  0
  1 45  1  0
  2  1  1  0
  2  6  1  0
  3  2  1  0
  4  2  1  0
  6  5  1  0
  7  6  1  0
  7  8  1  0
  9 15  1  0
  9  8  1  0
 10 15  1  0
 11 12  1  0
 11 10  1  0
 13 12  1  0
 13 20  1  0
 13 14  1  0
 15 14  1  0
 16  9  2  0
 17 18  2  0
 18 37  1  0
 19 22  1  0
 19 18  1  0
 20 21  1  0
 20 17  1  0
 21 19  2  0
 22 23  1  0
 23 24  2  0
 25 28  1  0
 25 24  1  0
 26 25  2  0
 27 26  1  0
 27 22  2  0
 28 29  1  0
 29 30  1  0
 30 31  2  0
 32 31  1  0
 32 36  1  0
 33 32  2  0
 34 29  2  0
 34 33  1  0
 35 34  1  0
 37 38  1  0
 38 41  1  0
 38 40  1  0
 39 37  2  0
 42 17  1  0
 42 43  1  0
 44 42  1  0
 45 51  1  0
 47 46  1  0
 48 46  2  0
 49 51  2  0
 49 50  1  0
 50 47  2  0
 51 48  1  0
 52 50  1  0
 53 54  2  0
 55 57  1  0
 55 54  1  0
 56 67  2  0
 57 62  1  0
 58 66  1  0
 58 68  1  0
 59 65  1  0
 59 61  1  0
 60 66  1  0
 61 60  1  0
 62 61  2  0
 63 64  1  0
 63 57  2  0
 64 59  2  0
 65 58  1  0
 66 56  1  0
 68 70  2  0
 69 68  1  0
 71 69  1  0
 72 81  2  0
 72 77  1  0
 73 69  1  0
 73 77  1  0
 74 73  1  0
 75 76  1  0
 75 74  1  0
 76 72  1  0
 77 78  2  0
 78 79  1  0
 80 79  2  0
 81 80  1  0
 82 56  1  0
 82 83  1  0
 82 92  1  0
 83 86  1  0
 84 88  1  0
 84 83  1  0
 85 84  2  0
 88 87  1  0
 90 88  1  0
 90 91  1  0
 90 89  1  0
 92 95  1  1
 92 93  1  0
 94 92  1  0
M  ISO  4   8 100   9 100  54 101  55 101
M  END
>  <TORSDO>  (22) 
F 24

>  <SCORE>  (22) 
-10.687

>  <name>  (22) 
21

>  <ligand_id>  (22) 
21

>  <original_smiles>  (22) 
[H]c1c([H])c([H])c2c(c1[H])C([H])([H])C([H])([H])C([H])([H])C2([H])N([H])C(=O)C1([H])N(C(=O)C([H])(N([H])C(=O)C([H])(N([H])C([H])([H])[H])C([H])([H])[H])C(C([H])([H])[H])(C([H])([H])[H])C([H])([H])[H])C([H])([H])c2c([H])c(OC([H])([H])C([H])([H])C([H])(C([H])([H])c3c([H])c([H])c([H])c(C([H])([H])[H])c3[H])[N+]([H])([H])C([H])(C([H])([H])[H])C([H])([H])C([H])([H])C(=O)N3C([H])([H])C([H])([H])C([H])([H])C([H])(n4nc(-c5c([H])c([H])c(Oc6c([H])c([H])c(F)c([H])c6F)c([H])c5[H])c(C(=O)N([H])[H])c4N([H])[H])C3([H])[H])c([H])c([H])c2C1([H])[H]

>  <smiles>  (22) 
[H]c1c([H])c([H])c2c(c1[H])C([H])([H])C([H])([H])C([H])([H])C2([H])N([H])C(=O)C1([H])N(C(=O)C([H])(N([H])C(=O)C([H])(N([H])C([H])([H])[H])C([H])([H])[H])C(C([H])([H])[H])(C([H])([H])[H])C([H])([H])[H])C([H])([H])c2c([H])c(OC([H])([H])C([H])([H])C([H])(C([H])([H])c3c([H])c([H])c([H])c(C([H])([H])[H])c3[H])[N+]([H])([H])C([H])(C([H])([H])[H])C([H])([H])C([H])([H])C(=O)N3C([H])([H])C([H])([H])C([H])([H])C([H])(n4nc(-c5c([H])c([H])c(Oc6c([H])c([H])c(F)c([H])c6F)c([H])c5[H])c(C(=O)N([H])[H])c4N([H])[H])C3([H])[H])c([H])c([H])c2C1([H])[H]

$$$$
22:0:0
     RDKit          3D

 88 97  0  0  1  0  0  0  0  0999 V2000
  -27.4020  -19.5120   20.5490 C   0  0  0  0  0  2  0  0  0  0  0  0
  -29.8180  -19.9660   19.1640 C   0  0  0  0  0  2  0  0  0  0  0  0
  -28.4060  -20.5740   20.9630 C   0  0  0  0  0  3  0  0  0  0  0  0
  -28.7650  -19.0440   21.0330 C   0  0  0  0  0  3  0  0  0  0  0  0
  -29.2800  -21.3680   19.9770 C   0  0  0  0  0  3  0  0  0  0  0  0
  -29.8950  -18.5290   20.0850 C   0  0  2  0  0  0  0  0  0  0  0  0
  -31.2220  -18.5850   20.8580 C   0  0  0  0  0  1  0  0  0  0  0  0
  -29.1910  -16.8710   18.1580 C   0  0  0  0  0  1  0  0  0  0  0  0
  -29.7050  -16.8170   19.6060 C   0  0  0  0  0  3  0  0  0  0  0  0
  -30.6410  -15.3450   19.7220 C   0  0  0  0  0  0  0  0  0  0  0  0
  -30.6190  -12.8790   18.9590 C   0  0  0  0  0  2  0  0  0  0  0  0
  -29.6220  -12.6770   17.7860 C   0  0  0  0  0  2  0  0  0  0  0  0
  -28.1950  -12.4280   18.3100 C   0  0  0  0  0  2  0  0  0  0  0  0
  -27.8140  -13.4070   19.4490 C   0  0  0  0  0  3  0  0  0  0  0  0
  -28.9270  -13.5570   20.5030 C   0  0  0  0  0  2  0  0  0  0  0  0
  -30.1360  -14.0220   19.8060 N   0  0  0  0  0  0  0  0  0  0  0  0
  -31.8510  -15.3790   19.4570 O   0  0  0  0  0  0  0  0  0  0  0  0
  -25.5210  -13.9820   20.4080 C   0  0  0  0  0  0  0  0  0  0  0  0
  -24.4740  -13.2110   20.8280 C   0  0  0  0  0  0  0  0  0  0  0  0
  -24.9080  -11.8540   20.7090 C   0  0  0  0  0  0  0  0  0  0  0  0
  -26.5220  -13.0980   20.0460 N   0  0  0  0  0  0  0  0  0  0  0  0
  -26.1710  -11.8090   20.2940 N   0  0  0  0  0  0  0  0  0  0  0  0
  -24.1710  -10.5990   20.9070 C   0  0  0  0  0  0  0  0  0  0  0  0
  -24.6150   -9.6160   21.8190 C   0  0  0  0  0  3  0  0  0  0  0  0
  -23.8760   -8.4270   22.0050 C   0  0  0  0  0  3  0  0  0  0  0  0
  -22.6810   -8.2130   21.2800 C   0  0  0  0  0  0  0  0  0  0  0  0
  -22.2560   -9.1840   20.3560 C   0  0  0  0  0  3  0  0  0  0  0  0
  -22.9960  -10.3640   20.1670 C   0  0  0  0  0  3  0  0  0  0  0  0
  -21.9120   -7.0780   21.3760 O   0  0  0  0  0  0  0  0  0  0  0  0
  -21.8370   -6.3560   22.5410 C   0  0  0  0  0  0  0  0  0  0  0  0
  -21.3750   -6.9300   23.7440 C   0  0  0  0  0  3  0  0  0  0  0  0
  -21.2470   -6.1350   24.9000 C   0  0  0  0  0  3  0  0  0  0  0  0
  -21.5720   -4.7670   24.8550 C   0  0  0  0  0  0  0  0  0  0  0  0
  -22.0280   -4.1920   23.6550 C   0  0  0  0  0  3  0  0  0  0  0  0
  -22.1560   -4.9840   22.5010 C   0  0  0  0  0  0  0  0  0  0  0  0
  -22.5760   -4.4200   21.3420 F   0  0  0  0  0  0  0  0  0  0  0  0
  -21.4430   -4.0010   25.9630 F   0  0  0  0  0  0  0  0  0  0  0  0
  -23.1120  -13.7020   21.2240 C   0  0  0  0  0  0  0  0  0  0  0  0
  -22.4410  -12.9880   22.1210 N   0  0  0  0  0  0  0  0  0  0  0  0
  -22.6560  -14.7520   20.7750 O   0  0  0  0  0  0  0  0  0  0  0  0
  -22.8260  -12.1380   22.5050 H   0  0  0  0  0  0  0  0  0  0  0  0
  -21.5290  -13.2960   22.4290 H   0  0  0  0  0  0  0  0  0  0  0  0
  -25.6980  -15.3560   20.2750 N   0  0  0  0  0  0  0  0  0  0  0  0
  -24.9590  -16.0170   20.4820 H   0  0  0  0  0  0  0  0  0  0  0  0
  -26.5310  -15.7960   19.9030 H   0  0  0  0  0  0  0  0  0  0  0  0
  -28.7810  -22.9640   19.3530 C   0  0  0  0  0  2  0  0  0  0  0  0
  -28.1760  -24.4750   20.0670 C   0  0  0  0  0  2  0  0  0  0  0  0
  -28.2700  -26.0540   19.6830 O   0  0  0  0  0  0  0  0  0  0  0  0
  -24.6780  -31.7600   23.0300 C   0  0  0  0  0  0  0  0  0  0  0  0
  -27.2090  -27.0780   19.7680 C   0  0  0  0  0  0  0  0  0  0  0  0
  -23.4490  -30.4060   21.3800 C   0  0  0  0  0  3  0  0  0  0  0  0
  -24.8720  -28.8780   19.8610 C   0  0  0  0  0  0  0  0  0  0  0  0
  -26.0010  -30.6790   21.1530 C   0  0  0  0  0  2  0  0  0  0  0  0
  -26.0720  -29.2980   20.4500 C   0  0  0  0  0  0  0  0  0  0  0  0
  -27.2380  -28.4210   20.3730 C   0  0  0  0  0  3  0  0  0  0  0  0
  -25.9730  -26.7910   19.1500 C   0  0  0  0  0  3  0  0  0  0  0  0
  -24.8430  -27.6440   19.1920 C   0  0  0  0  0  3  0  0  0  0  0  0
  -23.6410  -29.7730   19.9750 C   0  0  0  0  0  2  0  0  0  0  0  0
  -24.7320  -30.9720   21.9080 N   0  0  0  0  0  0  0  0  0  0  0  0
  -23.6040  -32.0140   23.5980 O   0  0  0  0  0  0  0  0  0  0  0  0
  -22.8040  -29.3640   22.3310 C   0  0  0  0  0  0  0  0  0  0  0  0
  -21.4700  -29.1970   22.2540 N   0  0  0  0  0  0  0  0  0  0  0  0
  -23.5070  -28.7070   23.1020 O   0  0  0  0  0  0  0  0  0  0  0  0
  -20.9570  -29.7800   21.6070 H   0  0  0  0  0  0  0  0  0  0  0  0
  -18.1160  -27.9540   22.8510 C   0  0  0  0  0  0  0  0  0  0  0  0
  -20.6830  -28.2230   23.0180 C   0  0  0  0  0  3  0  0  0  0  0  0
  -20.7660  -26.8180   22.3780 C   0  0  0  0  0  2  0  0  0  0  0  0
  -19.6230  -26.5330   21.3980 C   0  0  0  0  0  2  0  0  0  0  0  0
  -18.2690  -26.6390   22.1070 C   0  0  0  0  0  2  0  0  0  0  0  0
  -19.2490  -28.7060   23.2640 C   0  0  0  0  0  0  0  0  0  0  0  0
  -19.0480  -29.9370   23.9260 C   0  0  0  0  0  3  0  0  0  0  0  0
  -17.7480  -30.4180   24.1740 C   0  0  0  0  0  3  0  0  0  0  0  0
  -16.6310  -29.6630   23.7740 C   0  0  0  0  0  3  0  0  0  0  0  0
  -16.8160  -28.4330   23.1190 C   0  0  0  0  0  3  0  0  0  0  0  0
  -25.9610  -32.3950   23.6440 C   0  0  0  0  0  3  0  0  0  0  0  0
  -26.5190  -31.5910   24.8840 C   0  0  1  0  0  0  0  0  0  0  0  0
  -25.4580  -31.3170   25.9770 C   0  0  0  0  0  1  0  0  0  0  0  0
  -27.0980  -30.2280   24.4440 C   0  0  0  0  0  1  0  0  0  0  0  0
  -27.6840  -32.3730   25.5350 C   0  0  0  0  0  1  0  0  0  0  0  0
  -25.6390  -33.7770   24.0390 N   0  0  0  0  0  0  0  0  0  0  0  0
  -25.9480  -34.8710   23.3300 C   0  0  0  0  0  0  0  0  0  0  0  0
  -26.6000  -34.8220   22.2830 O   0  0  0  0  0  0  0  0  0  0  0  0
  -25.0550  -33.8870   24.8550 H   0  0  0  0  0  0  0  0  0  0  0  0
  -24.2020  -36.6700   23.0950 C   0  0  0  0  0  1  0  0  0  0  0  0
  -25.4600  -36.2340   23.8620 C   0  0  0  0  0  3  0  0  0  0  0  0
  -27.5990  -37.1000   24.7040 C   0  0  0  0  0  1  0  0  0  0  0  0
  -26.4840  -37.2990   23.7820 N   0  0  0  0  0  0  0  0  0  0  0  0
  -26.0740  -38.2090   23.9720 H   0  0  0  0  0  0  0  0  0  0  0  0
  2  5  1  0
  2  6  1  0
  3  1  1  0
  3  4  1  0
  4  1  1  0
  5 46  1  0
  5  3  1  0
  6  7  1  1
  6  4  1  0
  9  8  1  0
  9 10  1  0
  9  6  1  0
 10 16  1  0
 11 16  1  0
 12 13  1  0
 12 11  1  0
 14 13  1  0
 14 21  1  0
 14 15  1  0
 16 15  1  0
 17 10  2  0
 18 19  2  0
 19 38  1  0
 20 19  1  0
 20 23  1  0
 21 22  1  0
 21 18  1  0
 22 20  2  0
 23 24  1  0
 24 25  2  0
 26 29  1  0
 26 25  1  0
 27 26  2  0
 28 27  1  0
 28 23  2  0
 29 30  1  0
 30 31  1  0
 31 32  2  0
 33 32  1  0
 33 37  1  0
 34 33  2  0
 35 30  2  0
 35 34  1  0
 36 35  1  0
 38 39  1  0
 39 42  1  0
 39 41  1  0
 40 38  2  0
 43 18  1  0
 43 44  1  0
 45 43  1  0
 46 47  1  0
 48 50  1  0
 48 47  1  0
 49 60  2  0
 50 55  1  0
 51 59  1  0
 51 61  1  0
 52 58  1  0
 52 54  1  0
 53 59  1  0
 54 53  1  0
 55 54  2  0
 56 57  1  0
 56 50  2  0
 57 52  2  0
 58 51  1  0
 59 49  1  0
 61 63  2  0
 62 61  1  0
 64 62  1  0
 65 74  2  0
 65 70  1  0
 66 62  1  0
 66 70  1  0
 67 66  1  0
 68 69  1  0
 68 67  1  0
 69 65  1  0
 70 71  2  0
 71 72  1  0
 73 72  2  0
 74 73  1  0
 75 49  1  0
 75 80  1  0
 75 76  1  0
 76 79  1  1
 76 77  1  0
 78 76  1  0
 80 83  1  0
 81 85  1  0
 81 80  1  0
 82 81  2  0
 85 84  1  0
 87 85  1  0
 87 88  1  0
 87 86  1  0
M  ISO  4   9 100  10 100  47 101  48 101
M  END
>  <TORSDO>  (23) 
F 19

>  <SCORE>  (23) 
-14.136

>  <name>  (23) 
22

>  <ligand_id>  (23) 
22

>  <original_smiles>  (23) 
[H]c1c([H])c([H])c2c(c1[H])C([H])([H])C([H])([H])C([H])([H])C2([H])N([H])C(=O)C1([H])N(C(=O)C([H])(N([H])C(=O)C([H])(N([H])C([H])([H])[H])C([H])([H])[H])C(C([H])([H])[H])(C([H])([H])[H])C([H])([H])[H])C([H])([H])c2c([H])c(OC([H])([H])C([H])([H])C3([H])C([H])([H])C(C([H])([H])[H])(C([H])(C(=O)N4C([H])([H])C([H])([H])C([H])([H])C([H])(n5nc(-c6c([H])c([H])c(Oc7c([H])c([H])c(F)c([H])c7F)c([H])c6[H])c(C(=O)N([H])[H])c5N([H])[H])C4([H])[H])C([H])([H])[H])C4([H])C([H])([H])C34[H])c([H])c([H])c2C1([H])[H]

>  <smiles>  (23) 
[H]c1c([H])c([H])c2c(c1[H])C([H])([H])C([H])([H])C([H])([H])C2([H])N([H])C(=O)C1([H])N(C(=O)C([H])(N([H])C(=O)C([H])(N([H])C([H])([H])[H])C([H])([H])[H])C(C([H])([H])[H])(C([H])([H])[H])C([H])([H])[H])C([H])([H])c2c([H])c(OC([H])([H])C([H])([H])C3([H])C([H])([H])C(C([H])([H])[H])(C([H])(C(=O)N4C([H])([H])C([H])([H])C([H])([H])C([H])(n5nc(-c6c([H])c([H])c(Oc7c([H])c([H])c(F)c([H])c7F)c([H])c6[H])c(C(=O)N([H])[H])c5N([H])[H])C4([H])[H])C([H])([H])[H])C4([H])C([H])([H])C34[H])c([H])c([H])c2C1([H])[H]

$$$$
23:0:0
     RDKit          3D

 90 98  0  0  1  0  0  0  0  0999 V2000
  -28.9370  -21.2120   20.1030 C   0  0  0  0  0  2  0  0  0  0  0  0
  -29.0500  -22.5370   21.0130 C   0  0  0  0  0  2  0  0  0  0  0  0
  -28.1010  -23.8410   20.8420 C   0  0  0  0  0  2  0  0  0  0  0  0
  -28.5000  -25.0910   19.9160 C   0  0  0  0  0  2  0  0  0  0  0  0
  -28.3670  -26.5170   20.3440 O   0  0  0  0  0  0  0  0  0  0  0  0
  -24.6010  -31.9020   23.2290 C   0  0  0  0  0  0  0  0  0  0  0  0
  -27.2190  -27.3190   20.2290 C   0  0  0  0  0  0  0  0  0  0  0  0
  -23.3950  -30.4940   21.5930 C   0  0  0  0  0  3  0  0  0  0  0  0
  -24.8450  -28.9260   20.1760 C   0  0  0  0  0  0  0  0  0  0  0  0
  -25.9270  -30.8160   21.4030 C   0  0  0  0  0  2  0  0  0  0  0  0
  -26.0070  -29.4290   20.7670 C   0  0  0  0  0  0  0  0  0  0  0  0
  -27.1930  -28.6390   20.7770 C   0  0  0  0  0  3  0  0  0  0  0  0
  -26.0340  -26.8580   19.6140 C   0  0  0  0  0  3  0  0  0  0  0  0
  -24.8610  -27.6470   19.5840 C   0  0  0  0  0  3  0  0  0  0  0  0
  -23.6100  -29.8080   20.2130 C   0  0  0  0  0  2  0  0  0  0  0  0
  -24.6600  -31.0890   22.1310 N   0  0  0  0  0  0  0  0  0  0  0  0
  -23.5210  -32.1860   23.7640 O   0  0  0  0  0  0  0  0  0  0  0  0
  -22.7330  -29.4880   22.5640 C   0  0  0  0  0  0  0  0  0  0  0  0
  -21.4080  -29.3060   22.4340 N   0  0  0  0  0  0  0  0  0  0  0  0
  -23.4110  -28.8730   23.3900 O   0  0  0  0  0  0  0  0  0  0  0  0
  -20.9220  -29.8560   21.7390 H   0  0  0  0  0  0  0  0  0  0  0  0
  -18.0360  -28.1050   22.9510 C   0  0  0  0  0  0  0  0  0  0  0  0
  -20.5920  -28.3760   23.2160 C   0  0  0  0  0  3  0  0  0  0  0  0
  -20.6960  -26.9360   22.6570 C   0  0  0  0  0  2  0  0  0  0  0  0
  -19.5960  -26.6010   21.6450 C   0  0  0  0  0  2  0  0  0  0  0  0
  -18.2150  -26.7490   22.2880 C   0  0  0  0  0  2  0  0  0  0  0  0
  -19.1520  -28.8750   23.3760 C   0  0  0  0  0  0  0  0  0  0  0  0
  -18.9290  -30.1410   23.9560 C   0  0  0  0  0  3  0  0  0  0  0  0
  -17.6220  -30.6370   24.1210 C   0  0  0  0  0  3  0  0  0  0  0  0
  -16.5200  -29.8680   23.7080 C   0  0  0  0  0  3  0  0  0  0  0  0
  -16.7280  -28.6050   23.1300 C   0  0  0  0  0  3  0  0  0  0  0  0
  -25.8890  -32.5350   23.8410 C   0  0  0  0  0  3  0  0  0  0  0  0
  -25.5760  -33.9340   24.1690 N   0  0  0  0  0  0  0  0  0  0  0  0
  -25.9050  -34.9890   23.4140 C   0  0  0  0  0  0  0  0  0  0  0  0
  -26.5740  -34.8890   22.3830 O   0  0  0  0  0  0  0  0  0  0  0  0
  -24.9810  -34.0820   24.9690 H   0  0  0  0  0  0  0  0  0  0  0  0
  -24.1770  -36.7870   23.0550 C   0  0  0  0  0  1  0  0  0  0  0  0
  -25.4180  -36.3800   23.8670 C   0  0  0  0  0  3  0  0  0  0  0  0
  -27.5510  -37.2650   24.7000 C   0  0  0  0  0  1  0  0  0  0  0  0
  -26.4500  -37.4350   23.7570 N   0  0  0  0  0  0  0  0  0  0  0  0
  -26.0430  -38.3520   23.9080 H   0  0  0  0  0  0  0  0  0  0  0  0
  -26.4130  -31.7730   25.1220 C   0  0  1  0  0  0  0  0  0  0  0  0
  -25.3230  -31.5390   26.1970 C   0  0  0  0  0  1  0  0  0  0  0  0
  -26.9940  -30.3930   24.7320 C   0  0  0  0  0  1  0  0  0  0  0  0
  -27.5670  -32.5740   25.7760 C   0  0  0  0  0  1  0  0  0  0  0  0
  -28.9710  -19.7220   20.7540 C   0  0  0  0  0  2  0  0  0  0  0  0
  -32.6560  -18.1910   20.2640 C   0  0  0  0  0  2  0  0  0  0  0  0
  -31.9590  -18.1540   18.8660 C   0  0  0  0  0  2  0  0  0  0  0  0
  -31.8500  -17.4860   21.4190 C   0  0  0  0  0  2  0  0  0  0  0  0
  -30.4410  -18.5180   18.9200 C   0  0  0  0  0  2  0  0  0  0  0  0
  -30.3220  -17.4420   21.1610 C   0  0  0  0  0  3  0  0  0  0  0  0
  -30.0400  -18.7000   20.3390 N   0  0  2  0  0  4  0  0  0  0  0  0
  -30.8430  -19.2340   20.6390 H   0  0  0  0  0  0  0  0  0  0  0  0
  -29.7110  -15.9870   20.7460 C   0  0  0  0  0  2  0  0  0  0  0  0
  -30.5390  -14.7080   20.2290 C   0  0  0  0  0  0  0  0  0  0  0  0
  -30.3500  -12.4530   19.1380 C   0  0  0  0  0  2  0  0  0  0  0  0
  -29.3720  -12.5490   17.9430 C   0  0  0  0  0  2  0  0  0  0  0  0
  -27.9070  -12.3830   18.4010 C   0  0  0  0  0  2  0  0  0  0  0  0
  -27.5760  -13.2480   19.6480 C   0  0  0  0  0  3  0  0  0  0  0  0
  -28.6620  -13.0750   20.7310 C   0  0  0  0  0  2  0  0  0  0  0  0
  -29.9510  -13.4650   20.1430 N   0  0  0  0  0  0  0  0  0  0  0  0
  -31.6780  -14.8610   19.7780 O   0  0  0  0  0  0  0  0  0  0  0  0
  -25.2040  -13.8510   20.4270 C   0  0  0  0  0  0  0  0  0  0  0  0
  -24.1420  -13.0740   20.8210 C   0  0  0  0  0  0  0  0  0  0  0  0
  -24.6050  -11.7270   20.7750 C   0  0  0  0  0  0  0  0  0  0  0  0
  -26.2390  -12.9700   20.1650 N   0  0  0  0  0  0  0  0  0  0  0  0
  -25.8840  -11.6890   20.4300 N   0  0  0  0  0  0  0  0  0  0  0  0
  -23.8840  -10.4620   20.9800 C   0  0  0  0  0  0  0  0  0  0  0  0
  -24.3270   -9.4990   21.9140 C   0  0  0  0  0  3  0  0  0  0  0  0
  -23.6050   -8.3000   22.1000 C   0  0  0  0  0  3  0  0  0  0  0  0
  -22.4280   -8.0590   21.3540 C   0  0  0  0  0  0  0  0  0  0  0  0
  -22.0050   -9.0100   20.4080 C   0  0  0  0  0  3  0  0  0  0  0  0
  -22.7270  -10.2010   20.2200 C   0  0  0  0  0  3  0  0  0  0  0  0
  -21.6730   -6.9150   21.4540 O   0  0  0  0  0  0  0  0  0  0  0  0
  -21.6290   -6.1820   22.6140 C   0  0  0  0  0  0  0  0  0  0  0  0
  -21.1990   -6.7450   23.8340 C   0  0  0  0  0  3  0  0  0  0  0  0
  -21.1020   -5.9400   24.9870 C   0  0  0  0  0  3  0  0  0  0  0  0
  -21.4230   -4.5710   24.9190 C   0  0  0  0  0  0  0  0  0  0  0  0
  -21.8470   -4.0070   23.7030 C   0  0  0  0  0  3  0  0  0  0  0  0
  -21.9460   -4.8100   22.5530 C   0  0  0  0  0  0  0  0  0  0  0  0
  -22.3360   -4.2570   21.3790 F   0  0  0  0  0  0  0  0  0  0  0  0
  -21.3230   -3.7950   26.0230 F   0  0  0  0  0  0  0  0  0  0  0  0
  -22.7540  -13.5590   21.1270 C   0  0  0  0  0  0  0  0  0  0  0  0
  -22.0390  -12.8610   22.0070 N   0  0  0  0  0  0  0  0  0  0  0  0
  -22.3130  -14.5900   20.6270 O   0  0  0  0  0  0  0  0  0  0  0  0
  -22.4030  -12.0240   22.4370 H   0  0  0  0  0  0  0  0  0  0  0  0
  -21.1150  -13.1820   22.2560 H   0  0  0  0  0  0  0  0  0  0  0  0
  -25.3660  -15.2200   20.2510 N   0  0  0  0  0  0  0  0  0  0  0  0
  -24.6040  -15.8790   20.3720 H   0  0  0  0  0  0  0  0  0  0  0  0
  -26.2050  -15.6520   19.8820 H   0  0  0  0  0  0  0  0  0  0  0  0
  1 46  1  0
  1  2  1  0
  3  2  1  0
  4  5  1  0
  4  3  1  0
  6 17  2  0
  7  5  1  0
  7 12  1  0
  8 16  1  0
  8 18  1  0
  9 15  1  0
  9 11  1  0
 10 16  1  0
 11 12  2  0
 11 10  1  0
 13  7  2  0
 14 13  1  0
 14  9  2  0
 15  8  1  0
 16  6  1  0
 18 20  2  0
 19 18  1  0
 21 19  1  0
 22 31  2  0
 22 27  1  0
 23 19  1  0
 23 27  1  0
 24 23  1  0
 25 26  1  0
 25 24  1  0
 26 22  1  0
 27 28  2  0
 28 29  1  0
 30 29  2  0
 31 30  1  0
 32  6  1  0
 32 33  1  0
 32 42  1  0
 33 36  1  0
 34 38  1  0
 34 33  1  0
 35 34  2  0
 38 37  1  0
 40 38  1  0
 40 41  1  0
 40 39  1  0
 42 45  1  1
 42 43  1  0
 44 42  1  0
 47 49  1  0
 48 50  1  0
 48 47  1  0
 50 52  1  0
 51 54  1  0
 51 49  1  0
 52 53  1  1
 52 46  1  0
 52 51  1  0
 55 54  1  0
 56 61  1  0
 57 58  1  0
 57 56  1  0
 59 58  1  0
 59 66  1  0
 59 60  1  0
 61 55  1  0
 61 60  1  0
 62 55  2  0
 63 64  2  0
 64 83  1  0
 65 64  1  0
 65 68  1  0
 66 63  1  0
 66 67  1  0
 67 65  2  0
 68 69  1  0
 69 70  2  0
 71 74  1  0
 71 70  1  0
 72 71  2  0
 73 72  1  0
 73 68  2  0
 74 75  1  0
 75 76  1  0
 76 77  2  0
 78 77  1  0
 78 82  1  0
 79 78  2  0
 80 75  2  0
 80 79  1  0
 81 80  1  0
 83 84  1  0
 84 87  1  0
 84 86  1  0
 85 83  2  0
 88 89  1  0
 88 63  1  0
 90 88  1  0
M  ISO  4   4 101   5 101  54 100  55 100
M  END
>  <TORSDO>  (24) 
F 22

>  <SCORE>  (24) 
-13.017

>  <name>  (24) 
23

>  <ligand_id>  (24) 
23

>  <original_smiles>  (24) 
[H]c1c([H])c([H])c2c(c1[H])C([H])([H])C([H])([H])C([H])([H])C2([H])N([H])C(=O)C1([H])N(C(=O)C([H])(N([H])C(=O)C([H])(N([H])C([H])([H])[H])C([H])([H])[H])C(C([H])([H])[H])(C([H])([H])[H])C([H])([H])[H])C([H])([H])c2c([H])c(OC([H])([H])C([H])([H])C([H])([H])C([H])([H])C([H])([H])[N+]3([H])C([H])([H])C([H])([H])C([H])([H])C([H])([H])C3([H])C([H])([H])C(=O)N3C([H])([H])C([H])([H])C([H])([H])C([H])(n4nc(-c5c([H])c([H])c(Oc6c([H])c([H])c(F)c([H])c6F)c([H])c5[H])c(C(=O)N([H])[H])c4N([H])[H])C3([H])[H])c([H])c([H])c2C1([H])[H]

>  <smiles>  (24) 
[H]c1c([H])c([H])c2c(c1[H])C([H])([H])C([H])([H])C([H])([H])C2([H])N([H])C(=O)C1([H])N(C(=O)C([H])(N([H])C(=O)C([H])(N([H])C([H])([H])[H])C([H])([H])[H])C(C([H])([H])[H])(C([H])([H])[H])C([H])([H])[H])C([H])([H])c2c([H])c(OC([H])([H])C([H])([H])C([H])([H])C([H])([H])C([H])([H])[N+]3([H])C([H])([H])C([H])([H])C([H])([H])C([H])([H])C3([H])C([H])([H])C(=O)N3C([H])([H])C([H])([H])C([H])([H])C([H])(n4nc(-c5c([H])c([H])c(Oc6c([H])c([H])c(F)c([H])c6F)c([H])c5[H])c(C(=O)N([H])[H])c4N([H])[H])C3([H])[H])c([H])c([H])c2C1([H])[H]

$$$$
24:0:0
     RDKit          3D

 90 98  0  0  1  0  0  0  0  0999 V2000
  -29.9780  -20.2070   20.4020 C   0  0  0  0  0  0  0  0  0  0  0  0
  -29.0700  -21.1990   20.6790 N   0  0  0  0  0  0  0  0  0  0  0  0
  -31.0370  -20.4840   19.8350 O   0  0  0  0  0  0  0  0  0  0  0  0
  -28.1960  -20.8730   21.0720 H   0  0  0  0  0  0  0  0  0  0  0  0
  -31.6620  -18.1700   22.3340 C   0  0  0  0  0  2  0  0  0  0  0  0
  -30.1890  -18.6160   22.3650 C   0  0  0  0  0  2  0  0  0  0  0  0
  -31.9360  -17.6540   20.9140 C   0  0  0  0  0  2  0  0  0  0  0  0
  -29.7270  -18.7080   20.8970 C   0  0  0  0  0  3  0  0  0  0  0  0
  -30.5550  -17.4830   20.2560 C   0  0  0  0  0  3  0  0  0  0  0  0
  -30.0070  -15.9880   20.5210 C   0  0  0  0  0  2  0  0  0  0  0  0
  -30.8070  -14.6980   20.0290 C   0  0  0  0  0  0  0  0  0  0  0  0
  -30.5600  -12.4590   18.9530 C   0  0  0  0  0  2  0  0  0  0  0  0
  -29.5430  -12.5830   17.7970 C   0  0  0  0  0  2  0  0  0  0  0  0
  -28.1020  -12.3900   18.3110 C   0  0  0  0  0  2  0  0  0  0  0  0
  -27.8060  -13.2430   19.5720 C   0  0  0  0  0  3  0  0  0  0  0  0
  -28.9310  -13.1130   20.6200 C   0  0  0  0  0  2  0  0  0  0  0  0
  -30.2030  -13.4650   19.9730 N   0  0  0  0  0  0  0  0  0  0  0  0
  -31.9400  -14.8460   19.5590 O   0  0  0  0  0  0  0  0  0  0  0  0
  -25.4640  -13.8120   20.4560 C   0  0  0  0  0  0  0  0  0  0  0  0
  -24.4260  -13.0240   20.8780 C   0  0  0  0  0  0  0  0  0  0  0  0
  -24.8940  -11.6770   20.7950 C   0  0  0  0  0  0  0  0  0  0  0  0
  -26.4950  -12.9420   20.1390 N   0  0  0  0  0  0  0  0  0  0  0  0
  -26.1630  -11.6530   20.4040 N   0  0  0  0  0  0  0  0  0  0  0  0
  -24.1900  -10.4070   21.0080 C   0  0  0  0  0  0  0  0  0  0  0  0
  -24.6260   -9.4750   21.9750 C   0  0  0  0  0  3  0  0  0  0  0  0
  -23.9220   -8.2680   22.1750 C   0  0  0  0  0  3  0  0  0  0  0  0
  -22.7670   -7.9840   21.4050 C   0  0  0  0  0  0  0  0  0  0  0  0
  -22.3520   -8.9050   20.4270 C   0  0  0  0  0  3  0  0  0  0  0  0
  -23.0570  -10.1030   20.2270 C   0  0  0  0  0  3  0  0  0  0  0  0
  -22.0340   -6.8270   21.5140 O   0  0  0  0  0  0  0  0  0  0  0  0
  -21.9010   -6.1670   22.7090 C   0  0  0  0  0  0  0  0  0  0  0  0
  -21.3290   -6.7850   23.8430 C   0  0  0  0  0  3  0  0  0  0  0  0
  -21.1470   -6.0490   25.0300 C   0  0  0  0  0  3  0  0  0  0  0  0
  -21.5290   -4.6950   25.0840 C   0  0  0  0  0  0  0  0  0  0  0  0
  -22.0950   -4.0760   23.9550 C   0  0  0  0  0  3  0  0  0  0  0  0
  -22.2780   -4.8110   22.7700 C   0  0  0  0  0  0  0  0  0  0  0  0
  -22.8040   -4.2040   21.6790 F   0  0  0  0  0  0  0  0  0  0  0  0
  -21.3480   -3.9840   26.2220 F   0  0  0  0  0  0  0  0  0  0  0  0
  -23.0470  -13.4860   21.2470 C   0  0  0  0  0  0  0  0  0  0  0  0
  -22.3770  -12.7670   22.1430 N   0  0  0  0  0  0  0  0  0  0  0  0
  -22.5720  -14.5180   20.7760 O   0  0  0  0  0  0  0  0  0  0  0  0
  -22.7750  -11.9310   22.5430 H   0  0  0  0  0  0  0  0  0  0  0  0
  -21.4550  -13.0580   22.4320 H   0  0  0  0  0  0  0  0  0  0  0  0
  -25.6100  -15.1870   20.2920 N   0  0  0  0  0  0  0  0  0  0  0  0
  -24.8490  -15.8350   20.4600 H   0  0  0  0  0  0  0  0  0  0  0  0
  -26.4390  -15.6370   19.9250 H   0  0  0  0  0  0  0  0  0  0  0  0
  -29.3440  -22.6730   20.8960 C   0  0  0  0  0  2  0  0  0  0  0  0
  -28.4760  -23.8010   20.1670 C   0  0  0  0  0  2  0  0  0  0  0  0
  -28.4720  -25.2400   20.8640 C   0  0  0  0  0  2  0  0  0  0  0  0
  -28.4000  -26.4910   20.0880 O   0  0  0  0  0  0  0  0  0  0  0  0
  -24.6290  -31.8330   23.1750 C   0  0  0  0  0  0  0  0  0  0  0  0
  -27.2510  -27.2800   20.1490 C   0  0  0  0  0  0  0  0  0  0  0  0
  -23.4210  -30.4220   21.5450 C   0  0  0  0  0  3  0  0  0  0  0  0
  -24.8710  -28.8550   20.1370 C   0  0  0  0  0  0  0  0  0  0  0  0
  -25.9550  -30.7510   21.3480 C   0  0  0  0  0  2  0  0  0  0  0  0
  -26.0360  -29.3650   20.7220 C   0  0  0  0  0  0  0  0  0  0  0  0
  -27.2320  -28.5910   20.7130 C   0  0  0  0  0  3  0  0  0  0  0  0
  -26.0640  -26.8030   19.5600 C   0  0  0  0  0  3  0  0  0  0  0  0
  -24.8840  -27.5750   19.5510 C   0  0  0  0  0  3  0  0  0  0  0  0
  -23.6330  -29.7280   20.1720 C   0  0  0  0  0  2  0  0  0  0  0  0
  -24.6870  -31.0210   22.0790 N   0  0  0  0  0  0  0  0  0  0  0  0
  -23.5460  -32.1120   23.7120 O   0  0  0  0  0  0  0  0  0  0  0  0
  -22.7610  -29.4150   22.5150 C   0  0  0  0  0  0  0  0  0  0  0  0
  -21.4340  -29.2390   22.3930 N   0  0  0  0  0  0  0  0  0  0  0  0
  -23.4420  -28.7950   23.3360 O   0  0  0  0  0  0  0  0  0  0  0  0
  -20.9460  -29.7920   21.7030 H   0  0  0  0  0  0  0  0  0  0  0  0
  -18.0560  -28.0580   22.9100 C   0  0  0  0  0  0  0  0  0  0  0  0
  -20.6150  -28.3080   23.1710 C   0  0  0  0  0  3  0  0  0  0  0  0
  -20.7110  -26.8750   22.6010 C   0  0  0  0  0  2  0  0  0  0  0  0
  -19.6040  -26.5510   21.5930 C   0  0  0  0  0  2  0  0  0  0  0  0
  -18.2250  -26.7050   22.2390 C   0  0  0  0  0  2  0  0  0  0  0  0
  -19.1790  -28.8180   23.3330 C   0  0  0  0  0  0  0  0  0  0  0  0
  -18.9650  -30.0850   23.9180 C   0  0  0  0  0  3  0  0  0  0  0  0
  -17.6640  -30.5900   24.0880 C   0  0  0  0  0  3  0  0  0  0  0  0
  -16.5550  -29.8270   23.6820 C   0  0  0  0  0  3  0  0  0  0  0  0
  -16.7530  -28.5640   23.0950 C   0  0  0  0  0  3  0  0  0  0  0  0
  -25.9140  -32.4680   23.7920 C   0  0  0  0  0  3  0  0  0  0  0  0
  -25.5950  -33.8560   24.1540 N   0  0  0  0  0  0  0  0  0  0  0  0
  -25.9120  -34.9280   23.4150 C   0  0  0  0  0  0  0  0  0  0  0  0
  -26.5750  -34.8500   22.3760 O   0  0  0  0  0  0  0  0  0  0  0  0
  -25.0090  -33.9890   24.9640 H   0  0  0  0  0  0  0  0  0  0  0  0
  -24.1740  -36.7200   23.1000 C   0  0  0  0  0  1  0  0  0  0  0  0
  -25.4160  -36.3020   23.9030 C   0  0  0  0  0  3  0  0  0  0  0  0
  -27.5420  -37.1830   24.7630 C   0  0  0  0  0  1  0  0  0  0  0  0
  -26.4430  -37.3630   23.8170 N   0  0  0  0  0  0  0  0  0  0  0  0
  -26.0300  -38.2780   23.9800 H   0  0  0  0  0  0  0  0  0  0  0  0
  -26.4560  -31.6780   25.0470 C   0  0  1  0  0  0  0  0  0  0  0  0
  -25.3810  -31.4060   26.1240 C   0  0  0  0  0  1  0  0  0  0  0  0
  -27.0530  -30.3160   24.6200 C   0  0  0  0  0  1  0  0  0  0  0  0
  -27.6060  -32.4740   25.7080 C   0  0  0  0  0  1  0  0  0  0  0  0
  1  2  1  0
  2 47  1  0
  2  4  1  0
  3  1  2  0
  5  6  1  0
  7  5  1  0
  8  1  1  0
  8  6  1  0
  9 10  1  0
  9  8  1  0
  9  7  1  0
 11 10  1  0
 12 17  1  0
 13 14  1  0
 13 12  1  0
 15 14  1  0
 15 22  1  0
 15 16  1  0
 17 11  1  0
 17 16  1  0
 18 11  2  0
 19 20  2  0
 20 39  1  0
 21 20  1  0
 21 24  1  0
 22 23  1  0
 22 19  1  0
 23 21  2  0
 24 25  1  0
 25 26  2  0
 27 30  1  0
 27 26  1  0
 28 27  2  0
 29 28  1  0
 29 24  2  0
 30 31  1  0
 31 36  2  0
 31 32  1  0
 32 33  2  0
 33 34  1  0
 34 38  1  0
 35 34  2  0
 36 35  1  0
 37 36  1  0
 39 40  1  0
 40 43  1  0
 40 42  1  0
 41 39  2  0
 44 19  1  0
 44 45  1  0
 46 44  1  0
 48 49  1  0
 48 47  1  0
 50 52  1  0
 50 49  1  0
 51 62  2  0
 52 57  1  0
 53 61  1  0
 53 63  1  0
 54 60  1  0
 54 56  1  0
 55 61  1  0
 56 55  1  0
 57 56  2  0
 58 52  2  0
 59 58  1  0
 59 54  2  0
 60 53  1  0
 61 51  1  0
 63 65  2  0
 64 63  1  0
 66 64  1  0
 67 76  2  0
 67 72  1  0
 68 64  1  0
 68 72  1  0
 69 68  1  0
 70 71  1  0
 70 69  1  0
 71 67  1  0
 72 73  2  0
 73 74  1  0
 75 74  2  0
 76 75  1  0
 77 51  1  0
 77 78  1  0
 77 87  1  0
 78 81  1  0
 79 83  1  0
 79 78  1  0
 80 79  2  0
 83 82  1  0
 85 83  1  0
 85 86  1  0
 85 84  1  0
 87 90  1  1
 87 88  1  0
 89 87  1  0
M  ISO  4  10 100  11 100  49 101  50 101
M  END
>  <TORSDO>  (25) 
F 21

>  <SCORE>  (25) 
-12.297

>  <name>  (25) 
24

>  <ligand_id>  (25) 
24

>  <original_smiles>  (25) 
[H]c1c([H])c([H])c2c(c1[H])C([H])([H])C([H])([H])C([H])([H])C2([H])N([H])C(=O)C1([H])N(C(=O)C([H])(N([H])C(=O)C([H])(N([H])C([H])([H])[H])C([H])([H])[H])C(C([H])([H])[H])(C([H])([H])[H])C([H])([H])[H])C([H])([H])c2c([H])c(OC([H])([H])C([H])([H])C([H])([H])N([H])C(=O)C3([H])C([H])([H])C([H])([H])C([H])([H])C3([H])C([H])([H])C(=O)N3C([H])([H])C([H])([H])C([H])([H])C([H])(n4nc(-c5c([H])c([H])c(Oc6c([H])c([H])c(F)c([H])c6F)c([H])c5[H])c(C(=O)N([H])[H])c4N([H])[H])C3([H])[H])c([H])c([H])c2C1([H])[H]

>  <smiles>  (25) 
[H]c1c([H])c([H])c2c(c1[H])C([H])([H])C([H])([H])C([H])([H])C2([H])N([H])C(=O)C1([H])N(C(=O)C([H])(N([H])C(=O)C([H])(N([H])C([H])([H])[H])C([H])([H])[H])C(C([H])([H])[H])(C([H])([H])[H])C([H])([H])[H])C([H])([H])c2c([H])c(OC([H])([H])C([H])([H])C([H])([H])N([H])C(=O)C3([H])C([H])([H])C([H])([H])C([H])([H])C3([H])C([H])([H])C(=O)N3C([H])([H])C([H])([H])C([H])([H])C([H])(n4nc(-c5c([H])c([H])c(Oc6c([H])c([H])c(F)c([H])c6F)c([H])c5[H])c(C(=O)N([H])[H])c4N([H])[H])C3([H])[H])c([H])c([H])c2C1([H])[H]

$$$$
25:0:0
     RDKit          3D

 91 99  0  0  1  0  0  0  0  0999 V2000
  -29.7660  -17.6250   19.1780 C   0  0  0  0  0  2  0  0  0  0  0  0
  -31.2250  -17.1590   20.9570 C   0  0  0  0  0  2  0  0  0  0  0  0
  -29.9380  -19.0340   19.9700 C   0  0  0  0  0  3  0  0  0  0  0  0
  -30.1320  -16.3580   20.1390 C   0  0  2  0  0  0  0  0  0  0  0  0
  -31.1090  -18.6590   20.7950 N   0  0  0  0  0  4  0  0  0  0  0  0
  -31.9440  -18.9750   20.3300 H   0  0  0  0  0  0  0  0  0  0  0  0
  -31.0750  -19.1180   21.6910 H   0  0  0  0  0  0  0  0  0  0  0  0
  -30.7580  -14.9140   19.5270 C   0  0  0  0  0  0  0  0  0  0  0  0
  -30.6080  -12.5670   18.5520 C   0  0  0  0  0  2  0  0  0  0  0  0
  -29.5310  -12.5100   17.4380 C   0  0  0  0  0  2  0  0  0  0  0  0
  -28.1230  -12.2690   18.0200 C   0  0  0  0  0  2  0  0  0  0  0  0
  -27.8490  -13.1550   19.2620 C   0  0  0  0  0  3  0  0  0  0  0  0
  -29.0320  -13.0760   20.2470 C   0  0  0  0  0  2  0  0  0  0  0  0
  -30.2130  -13.6170   19.5460 N   0  0  0  0  0  0  0  0  0  0  0  0
  -31.8480  -14.9960   18.9480 O   0  0  0  0  0  0  0  0  0  0  0  0
  -25.5840  -13.7020   20.3300 C   0  0  0  0  0  0  0  0  0  0  0  0
  -24.5650  -12.9100   20.7790 C   0  0  0  0  0  0  0  0  0  0  0  0
  -25.0000  -11.5610   20.5930 C   0  0  0  0  0  0  0  0  0  0  0  0
  -26.5760  -12.8360   19.8980 N   0  0  0  0  0  0  0  0  0  0  0  0
  -26.2390  -11.5380   20.1140 N   0  0  0  0  0  0  0  0  0  0  0  0
  -24.2850  -10.2940   20.7880 C   0  0  0  0  0  0  0  0  0  0  0  0
  -24.7270   -9.3320   21.7240 C   0  0  0  0  0  3  0  0  0  0  0  0
  -24.0100   -8.1310   21.9060 C   0  0  0  0  0  3  0  0  0  0  0  0
  -22.8390   -7.8810   21.1520 C   0  0  0  0  0  0  0  0  0  0  0  0
  -22.4170   -8.8310   20.2060 C   0  0  0  0  0  3  0  0  0  0  0  0
  -23.1340  -10.0240   20.0220 C   0  0  0  0  0  3  0  0  0  0  0  0
  -22.0950   -6.7300   21.2440 O   0  0  0  0  0  0  0  0  0  0  0  0
  -21.8990   -6.0930   22.4430 C   0  0  0  0  0  0  0  0  0  0  0  0
  -21.2590   -6.7280   23.5280 C   0  0  0  0  0  3  0  0  0  0  0  0
  -21.0170   -6.0130   24.7190 C   0  0  0  0  0  3  0  0  0  0  0  0
  -21.4070   -4.6650   24.8230 C   0  0  0  0  0  0  0  0  0  0  0  0
  -22.0390   -4.0280   23.7400 C   0  0  0  0  0  3  0  0  0  0  0  0
  -22.2840   -4.7410   22.5520 C   0  0  0  0  0  0  0  0  0  0  0  0
  -22.8760   -4.1180   21.5050 F   0  0  0  0  0  0  0  0  0  0  0  0
  -21.1670   -3.9740   25.9620 F   0  0  0  0  0  0  0  0  0  0  0  0
  -23.2230  -13.3760   21.2650 C   0  0  0  0  0  0  0  0  0  0  0  0
  -22.6150  -12.6370   22.1860 N   0  0  0  0  0  0  0  0  0  0  0  0
  -22.7280  -14.4280   20.8650 O   0  0  0  0  0  0  0  0  0  0  0  0
  -23.0320  -11.7840   22.5280 H   0  0  0  0  0  0  0  0  0  0  0  0
  -21.7220  -12.9290   22.5550 H   0  0  0  0  0  0  0  0  0  0  0  0
  -25.7390  -15.0810   20.2310 N   0  0  0  0  0  0  0  0  0  0  0  0
  -25.0130  -15.7230   20.5300 H   0  0  0  0  0  0  0  0  0  0  0  0
  -26.5550  -15.5510   19.8640 H   0  0  0  0  0  0  0  0  0  0  0  0
  -29.9840  -20.5710   19.3080 C   0  0  0  0  0  3  0  0  0  0  0  0
  -29.3520  -21.9450   20.0240 C   0  0  0  0  0  3  0  0  0  0  0  0
  -29.3830  -23.4960   19.3980 C   0  0  0  0  0  3  0  0  0  0  0  0
  -28.4910  -24.7730   19.9930 C   0  0  0  0  0  3  0  0  0  0  0  0
  -28.6470  -26.2650   19.6410 O   0  0  0  0  0  0  0  0  0  0  0  0
  -24.8180  -31.6060   22.9440 C   0  0  0  0  0  0  0  0  0  0  0  0
  -27.5360  -27.1680   19.6810 C   0  0  0  0  0  0  0  0  0  0  0  0
  -23.6560  -30.2640   21.2310 C   0  0  0  0  0  3  0  0  0  0  0  0
  -25.1480  -28.8030   19.7400 C   0  0  0  0  0  0  0  0  0  0  0  0
  -26.1970  -30.6210   21.0800 C   0  0  0  0  0  2  0  0  0  0  0  0
  -26.3120  -29.2680   20.3640 C   0  0  0  0  0  0  0  0  0  0  0  0
  -27.5100  -28.4690   20.3150 C   0  0  0  0  0  3  0  0  0  0  0  0
  -26.3450  -26.7910   19.0270 C   0  0  0  0  0  3  0  0  0  0  0  0
  -25.1720  -27.5760   19.0580 C   0  0  0  0  0  3  0  0  0  0  0  0
  -23.8940  -29.6590   19.8230 C   0  0  0  0  0  2  0  0  0  0  0  0
  -24.9100  -30.8490   21.8090 N   0  0  0  0  0  0  0  0  0  0  0  0
  -23.7240  -31.8340   23.4830 O   0  0  0  0  0  0  0  0  0  0  0  0
  -23.0030  -29.1940   22.1400 C   0  0  0  0  0  0  0  0  0  0  0  0
  -21.6710  -29.0350   22.0410 N   0  0  0  0  0  0  0  0  0  0  0  0
  -23.6960  -28.5070   22.8960 O   0  0  0  0  0  0  0  0  0  0  0  0
  -21.1680  -29.6430   21.4090 H   0  0  0  0  0  0  0  0  0  0  0  0
  -18.2910  -27.8690   22.6190 C   0  0  0  0  0  0  0  0  0  0  0  0
  -20.8670  -28.0490   22.7660 C   0  0  0  0  0  3  0  0  0  0  0  0
  -20.8980  -26.6740   22.0570 C   0  0  0  0  0  2  0  0  0  0  0  0
  -19.7340  -26.4730   21.0800 C   0  0  0  0  0  2  0  0  0  0  0  0
  -18.3940  -26.5860   21.8120 C   0  0  0  0  0  2  0  0  0  0  0  0
  -19.4500  -28.5640   23.0540 C   0  0  0  0  0  0  0  0  0  0  0  0
  -19.2970  -29.7680   23.7740 C   0  0  0  0  0  3  0  0  0  0  0  0
  -18.0170  -30.2780   24.0590 C   0  0  0  0  0  3  0  0  0  0  0  0
  -16.8720  -29.5800   23.6380 C   0  0  0  0  0  3  0  0  0  0  0  0
  -17.0100  -28.3760   22.9240 C   0  0  0  0  0  3  0  0  0  0  0  0
  -26.0790  -32.2400   23.6060 C   0  0  0  0  0  3  0  0  0  0  0  0
  -25.7140  -33.5900   24.0620 N   0  0  0  0  0  0  0  0  0  0  0  0
  -25.9880  -34.7200   23.3970 C   0  0  0  0  0  0  0  0  0  0  0  0
  -26.6420  -34.7360   22.3500 O   0  0  0  0  0  0  0  0  0  0  0  0
  -25.1280  -33.6470   24.8820 H   0  0  0  0  0  0  0  0  0  0  0  0
  -24.1770  -36.4600   23.2410 C   0  0  0  0  0  1  0  0  0  0  0  0
  -25.4560  -36.0420   23.9840 C   0  0  0  0  0  3  0  0  0  0  0  0
  -27.5630  -36.9590   24.8530 C   0  0  0  0  0  1  0  0  0  0  0  0
  -26.4400  -37.1470   23.9370 N   0  0  0  0  0  0  0  0  0  0  0  0
  -25.9970  -38.0340   24.1570 H   0  0  0  0  0  0  0  0  0  0  0  0
  -26.6410  -31.3850   24.8080 C   0  0  1  0  0  0  0  0  0  0  0  0
  -25.5730  -31.0190   25.8660 C   0  0  0  0  0  1  0  0  0  0  0  0
  -27.2660  -30.0660   24.2980 C   0  0  0  0  0  1  0  0  0  0  0  0
  -27.7740  -32.1640   25.5180 C   0  0  0  0  0  1  0  0  0  0  0  0
  -28.9380  -16.0130   21.0910 C   0  0  0  0  0  2  0  0  0  0  0  0
  -27.7710  -16.9860   21.3540 C   0  0  0  0  0  2  0  0  0  0  0  0
  -26.9710  -17.0760   20.2920 F   0  0  0  0  0  0  0  0  0  0  0  0
  1  3  1  0
  1  4  1  0
  3 44  1  0
  3  5  1  0
  4  2  1  0
  4 89  1  1
  5  2  1  0
  5  7  1  0
  6  5  1  0
  8 14  1  0
  8  4  1  0
  9 14  1  0
 10 11  1  0
 10  9  1  0
 12 11  1  0
 12 19  1  0
 12 13  1  0
 14 13  1  0
 15  8  2  0
 16 17  2  0
 17 36  1  0
 18 17  1  0
 18 21  1  0
 19 20  1  0
 19 16  1  0
 20 18  2  0
 21 22  1  0
 22 23  2  0
 24 27  1  0
 24 23  1  0
 25 24  2  0
 26 25  1  0
 26 21  2  0
 27 28  1  0
 28 33  2  0
 28 29  1  0
 29 30  2  0
 30 31  1  0
 31 35  1  0
 32 31  2  0
 33 32  1  0
 34 33  1  0
 36 37  1  0
 37 39  1  0
 37 40  1  0
 38 36  2  0
 41 16  1  0
 41 42  1  0
 43 41  1  0
 44 45  2  0
 46 47  2  0
 46 45  1  0
 48 50  1  0
 48 47  1  0
 49 60  2  0
 50 55  1  0
 51 59  1  0
 51 61  1  0
 52 58  1  0
 52 54  1  0
 53 59  1  0
 54 53  1  0
 55 54  2  0
 56 57  1  0
 56 50  2  0
 57 52  2  0
 58 51  1  0
 59 49  1  0
 61 63  2  0
 62 61  1  0
 64 62  1  0
 65 74  2  0
 65 70  1  0
 66 62  1  0
 66 70  1  0
 67 66  1  0
 68 69  1  0
 68 67  1  0
 69 65  1  0
 70 71  2  0
 71 72  1  0
 73 72  2  0
 74 73  1  0
 75 49  1  0
 75 76  1  0
 75 85  1  0
 76 79  1  0
 77 81  1  0
 77 76  1  0
 78 77  2  0
 81 80  1  0
 83 81  1  0
 83 84  1  0
 83 82  1  0
 85 88  1  1
 85 86  1  0
 87 85  1  0
 89 90  1  0
 91 90  1  0
M  ISO  4   4 100   8 100  47 101  48 101
M  END
>  <TORSDO>  (26) 
F 22

>  <SCORE>  (26) 
-10.034

>  <name>  (26) 
25

>  <ligand_id>  (26) 
25

>  <original_smiles>  (26) 
[H]c1c([H])c([H])c2c(c1[H])C([H])([H])C([H])([H])C([H])([H])C2([H])N([H])C(=O)C1([H])N(C(=O)C([H])(N([H])C(=O)C([H])(N([H])C([H])([H])[H])C([H])([H])[H])C(C([H])([H])[H])(C([H])([H])[H])C([H])([H])[H])C([H])([H])c2c([H])c(OC([H])([H])C([H])([H])C([H])([H])C([H])([H])C3([H])C([H])([H])C(C(=O)N4C([H])([H])C([H])([H])C([H])([H])C([H])(n5nc(-c6c([H])c([H])c(Oc7c([H])c([H])c(F)c([H])c7F)c([H])c6[H])c(C(=O)N([H])[H])c5N([H])[H])C4([H])[H])(C([H])([H])C([H])([H])F)C([H])([H])[N+]3([H])[H])c([H])c([H])c2C1([H])[H]

>  <smiles>  (26) 
[H]c1c([H])c([H])c2c(c1[H])C([H])([H])C([H])([H])C([H])([H])C2([H])N([H])C(=O)C1([H])N(C(=O)C([H])(N([H])C(=O)C([H])(N([H])C([H])([H])[H])C([H])([H])[H])C(C([H])([H])[H])(C([H])([H])[H])C([H])([H])[H])C([H])([H])c2c([H])c(OC([H])([H])C([H])([H])C([H])([H])C([H])([H])C3([H])C([H])([H])C(C(=O)N4C([H])([H])C([H])([H])C([H])([H])C([H])(n5nc(-c6c([H])c([H])c(Oc7c([H])c([H])c(F)c([H])c7F)c([H])c6[H])c(C(=O)N([H])[H])c5N([H])[H])C4([H])[H])(C([H])([H])C([H])([H])F)C([H])([H])[N+]3([H])[H])c([H])c([H])c2C1([H])[H]

$$$$
26:0:0
     RDKit          3D

 91 98  0  0  1  0  0  0  0  0999 V2000
  -29.4550  -21.3310   19.6640 C   0  0  0  0  0  3  0  0  0  0  0  0
  -29.9250  -20.4350   22.0010 C   0  0  0  0  0  1  0  0  0  0  0  0
  -29.9690  -20.1610   20.5450 N   0  0  1  0  0  4  0  0  0  0  0  0
  -30.9540  -20.1180   20.3340 H   0  0  0  0  0  0  0  0  0  0  0  0
  -29.4580  -18.7370   20.2770 C   0  0  0  0  0  3  0  0  0  0  0  0
  -30.4760  -17.5110   20.4900 C   0  0  0  0  0  3  0  0  0  0  0  0
  -29.8440  -16.0450   20.5760 C   0  0  0  0  0  2  0  0  0  0  0  0
  -30.7040  -14.7460   20.2820 C   0  0  0  0  0  0  0  0  0  0  0  0
  -30.4420  -12.5500   19.1480 C   0  0  0  0  0  2  0  0  0  0  0  0
  -29.4650  -12.7700   17.9710 C   0  0  0  0  0  2  0  0  0  0  0  0
  -28.0060  -12.5980   18.4350 C   0  0  0  0  0  2  0  0  0  0  0  0
  -27.6950  -13.4000   19.7250 C   0  0  0  0  0  3  0  0  0  0  0  0
  -28.7870  -13.1850   20.7960 C   0  0  0  0  0  2  0  0  0  0  0  0
  -30.0880  -13.5230   20.2010 N   0  0  0  0  0  0  0  0  0  0  0  0
  -31.8780  -14.8860   19.9290 O   0  0  0  0  0  0  0  0  0  0  0  0
  -25.3280  -14.0020   20.5140 C   0  0  0  0  0  0  0  0  0  0  0  0
  -24.2620  -13.2270   20.8850 C   0  0  0  0  0  0  0  0  0  0  0  0
  -24.7130  -11.8730   20.8070 C   0  0  0  0  0  0  0  0  0  0  0  0
  -26.3590  -13.1180   20.2360 N   0  0  0  0  0  0  0  0  0  0  0  0
  -25.9970  -11.8340   20.4720 N   0  0  0  0  0  0  0  0  0  0  0  0
  -23.9850  -10.6120   20.9790 C   0  0  0  0  0  0  0  0  0  0  0  0
  -24.4220   -9.6250   21.8910 C   0  0  0  0  0  3  0  0  0  0  0  0
  -23.6950   -8.4270   22.0520 C   0  0  0  0  0  3  0  0  0  0  0  0
  -22.5180   -8.2060   21.3010 C   0  0  0  0  0  0  0  0  0  0  0  0
  -22.0990   -9.1790   20.3780 C   0  0  0  0  0  3  0  0  0  0  0  0
  -22.8250  -10.3700   20.2150 C   0  0  0  0  0  3  0  0  0  0  0  0
  -21.7610   -7.0610   21.3720 O   0  0  0  0  0  0  0  0  0  0  0  0
  -21.7070   -6.3050   22.5140 C   0  0  0  0  0  0  0  0  0  0  0  0
  -21.2420   -6.8350   23.7380 C   0  0  0  0  0  3  0  0  0  0  0  0
  -21.1380   -6.0030   24.8700 C   0  0  0  0  0  3  0  0  0  0  0  0
  -21.4890   -4.6420   24.7800 C   0  0  0  0  0  0  0  0  0  0  0  0
  -21.9470   -4.1120   23.5620 C   0  0  0  0  0  3  0  0  0  0  0  0
  -22.0530   -4.9420   22.4310 C   0  0  0  0  0  0  0  0  0  0  0  0
  -22.4760   -4.4190   21.2540 F   0  0  0  0  0  0  0  0  0  0  0  0
  -21.3810   -3.8410   25.8670 F   0  0  0  0  0  0  0  0  0  0  0  0
  -22.8750  -13.7050   21.1980 C   0  0  0  0  0  0  0  0  0  0  0  0
  -22.1590  -12.9830   22.0520 N   0  0  0  0  0  0  0  0  0  0  0  0
  -22.4350  -14.7510   20.7230 O   0  0  0  0  0  0  0  0  0  0  0  0
  -22.5310  -12.1320   22.4500 H   0  0  0  0  0  0  0  0  0  0  0  0
  -21.2320  -13.2830   22.3120 H   0  0  0  0  0  0  0  0  0  0  0  0
  -25.5000  -15.3750   20.3700 N   0  0  0  0  0  0  0  0  0  0  0  0
  -24.7440  -16.0340   20.5160 H   0  0  0  0  0  0  0  0  0  0  0  0
  -26.3440  -15.8090   20.0160 H   0  0  0  0  0  0  0  0  0  0  0  0
  -30.5310  -20.2000   17.5310 C   0  0  0  0  0  1  0  0  0  0  0  0
  -30.2100  -22.6580   17.5340 C   0  0  0  0  0  1  0  0  0  0  0  0
  -30.4460  -21.4450   18.4440 C   0  0  0  0  0  3  0  0  0  0  0  0
  -29.2710  -22.8120   20.3630 C   0  0  0  0  0  2  0  0  0  0  0  0
  -26.9020  -23.3660   19.7790 C   0  0  0  0  0  2  0  0  0  0  0  0
  -28.1690  -23.8290   19.8390 C   0  0  0  0  0  0  0  0  0  0  0  0
  -28.4760  -25.3100   19.3350 C   0  0  0  0  0  2  0  0  0  0  0  0
  -28.2830  -26.5180   20.1760 O   0  0  0  0  0  0  0  0  0  0  0  0
  -24.5620  -31.9310   23.2040 C   0  0  0  0  0  0  0  0  0  0  0  0
  -27.1610  -27.3690   20.0940 C   0  0  0  0  0  0  0  0  0  0  0  0
  -23.3470  -30.5220   21.5820 C   0  0  0  0  0  3  0  0  0  0  0  0
  -24.7890  -28.9790   20.1400 C   0  0  0  0  0  0  0  0  0  0  0  0
  -25.8840  -30.8480   21.3760 C   0  0  0  0  0  2  0  0  0  0  0  0
  -25.9630  -29.4680   20.7250 C   0  0  0  0  0  0  0  0  0  0  0  0
  -27.1500  -28.6660   20.7030 C   0  0  0  0  0  3  0  0  0  0  0  0
  -25.9670  -26.9490   19.4760 C   0  0  0  0  0  3  0  0  0  0  0  0
  -24.7940  -27.7240   19.5170 C   0  0  0  0  0  3  0  0  0  0  0  0
  -23.5490  -29.8440   20.2000 C   0  0  0  0  0  2  0  0  0  0  0  0
  -24.6150  -31.1190   22.1110 N   0  0  0  0  0  0  0  0  0  0  0  0
  -23.4860  -32.2010   23.7570 O   0  0  0  0  0  0  0  0  0  0  0  0
  -22.7060  -29.5040   22.5560 C   0  0  0  0  0  0  0  0  0  0  0  0
  -21.3830  -29.3120   22.4410 N   0  0  0  0  0  0  0  0  0  0  0  0
  -23.3990  -28.8870   23.3680 O   0  0  0  0  0  0  0  0  0  0  0  0
  -20.8900  -29.8630   21.7520 H   0  0  0  0  0  0  0  0  0  0  0  0
  -18.0200  -28.0820   22.9620 C   0  0  0  0  0  0  0  0  0  0  0  0
  -20.5760  -28.3690   23.2180 C   0  0  0  0  0  3  0  0  0  0  0  0
  -20.6950  -26.9340   22.6530 C   0  0  0  0  0  2  0  0  0  0  0  0
  -19.5940  -26.5940   21.6440 C   0  0  0  0  0  2  0  0  0  0  0  0
  -18.2120  -26.7280   22.2940 C   0  0  0  0  0  2  0  0  0  0  0  0
  -19.1340  -28.8580   23.3830 C   0  0  0  0  0  0  0  0  0  0  0  0
  -18.9090  -30.1210   23.9720 C   0  0  0  0  0  3  0  0  0  0  0  0
  -17.6020  -30.6080   24.1480 C   0  0  0  0  0  3  0  0  0  0  0  0
  -16.5030  -29.8320   23.7470 C   0  0  0  0  0  3  0  0  0  0  0  0
  -16.7110  -28.5710   23.1590 C   0  0  0  0  0  3  0  0  0  0  0  0
  -25.8500  -32.5740   23.8040 C   0  0  0  0  0  3  0  0  0  0  0  0
  -25.5290  -33.9670   24.1430 N   0  0  0  0  0  0  0  0  0  0  0  0
  -25.8620  -35.0290   23.3970 C   0  0  0  0  0  0  0  0  0  0  0  0
  -26.5380  -34.9350   22.3680 O   0  0  0  0  0  0  0  0  0  0  0  0
  -24.9090  -34.1050   24.9250 H   0  0  0  0  0  0  0  0  0  0  0  0
  -24.1460  -36.8340   23.0470 C   0  0  0  0  0  1  0  0  0  0  0  0
  -25.3770  -36.4160   23.8670 C   0  0  0  0  0  3  0  0  0  0  0  0
  -27.4990  -37.2880   24.7410 C   0  0  0  0  0  1  0  0  0  0  0  0
  -26.4150  -37.4690   23.7770 N   0  0  0  0  0  0  0  0  0  0  0  0
  -26.0120  -38.3930   23.9230 H   0  0  0  0  0  0  0  0  0  0  0  0
  -26.3840  -31.8050   25.0730 C   0  0  1  0  0  0  0  0  0  0  0  0
  -25.3010  -31.5580   26.1500 C   0  0  0  0  0  1  0  0  0  0  0  0
  -26.9710  -30.4320   24.6720 C   0  0  0  0  0  1  0  0  0  0  0  0
  -27.5350  -32.6080   25.7210 C   0  0  0  0  0  1  0  0  0  0  0  0
  1 47  1  0
  1  3  1  0
  3  2  1  0
  3  4  1  6
  5  6  2  0
  5  3  1  0
  6  7  1  0
  8  7  1  0
  9 14  1  0
 10 11  1  0
 10  9  1  0
 12 11  1  0
 12 19  1  0
 12 13  1  0
 14  8  1  0
 14 13  1  0
 15  8  2  0
 16 17  2  0
 17 36  1  0
 18 17  1  0
 18 21  1  0
 19 20  1  0
 19 16  1  0
 20 18  2  0
 21 22  1  0
 22 23  2  0
 24 27  1  0
 24 23  1  0
 25 24  2  0
 26 25  1  0
 26 21  2  0
 27 28  1  0
 28 29  1  0
 29 30  2  0
 31 30  1  0
 31 35  1  0
 32 31  2  0
 33 28  2  0
 33 32  1  0
 34 33  1  0
 36 37  1  0
 37 40  1  0
 37 39  1  0
 38 36  2  0
 41 16  1  0
 41 42  1  0
 43 41  1  0
 44 46  1  0
 45 46  1  0
 46  1  1  0
 48 49  2  0
 49 47  1  0
 50 49  1  0
 50 51  1  0
 52 63  2  0
 53 51  1  0
 53 58  1  0
 54 62  1  0
 54 64  1  0
 55 61  1  0
 55 57  1  0
 56 62  1  0
 57 56  1  0
 58 57  2  0
 59 60  1  0
 59 53  2  0
 60 55  2  0
 61 54  1  0
 62 52  1  0
 64 66  2  0
 65 64  1  0
 67 65  1  0
 68 77  2  0
 68 73  1  0
 69 65  1  0
 69 73  1  0
 70 69  1  0
 71 72  1  0
 71 70  1  0
 72 68  1  0
 73 74  2  0
 74 75  1  0
 76 75  2  0
 77 76  1  0
 78 52  1  0
 78 79  1  0
 78 88  1  0
 79 82  1  0
 80 84  1  0
 80 79  1  0
 81 80  2  0
 84 83  1  0
 86 84  1  0
 86 87  1  0
 86 85  1  0
 88 91  1  1
 88 89  1  0
 90 88  1  0
M  ISO  4   7 100   8 100  50 101  51 101
M  END
>  <TORSDO>  (27) 
F 24

>  <SCORE>  (27) 
-12.305

>  <name>  (27) 
26

>  <ligand_id>  (27) 
26

>  <original_smiles>  (27) 
[H]C([H])=C(C([H])([H])Oc1c([H])c([H])c2c(c1[H])C([H])([H])N(C(=O)C([H])(N([H])C(=O)C([H])(N([H])C([H])([H])[H])C([H])([H])[H])C(C([H])([H])[H])(C([H])([H])[H])C([H])([H])[H])C([H])(C(=O)N([H])C1([H])c3c([H])c([H])c([H])c([H])c3C([H])([H])C([H])([H])C1([H])[H])C2([H])[H])C([H])([H])C([H])(C([H])(C([H])([H])[H])C([H])([H])[H])[N+]([H])(C([H])([H])[H])C([H])([H])C([H])([H])C([H])([H])C(=O)N1C([H])([H])C([H])([H])C([H])([H])C([H])(n2nc(-c3c([H])c([H])c(Oc4c([H])c([H])c(F)c([H])c4F)c([H])c3[H])c(C(=O)N([H])[H])c2N([H])[H])C1([H])[H]

>  <smiles>  (27) 
[H]C([H])=C(C([H])([H])Oc1c([H])c([H])c2c(c1[H])C([H])([H])N(C(=O)C([H])(N([H])C(=O)C([H])(N([H])C([H])([H])[H])C([H])([H])[H])C(C([H])([H])[H])(C([H])([H])[H])C([H])([H])[H])C([H])(C(=O)N([H])C1([H])c3c([H])c([H])c([H])c([H])c3C([H])([H])C([H])([H])C1([H])[H])C2([H])[H])C([H])([H])C([H])(C([H])(C([H])([H])[H])C([H])([H])[H])[N+]([H])(C([H])([H])[H])C([H])([H])C([H])([H])C([H])([H])C(=O)N1C([H])([H])C([H])([H])C([H])([H])C([H])(n2nc(-c3c([H])c([H])c(Oc4c([H])c([H])c(F)c([H])c4F)c([H])c3[H])c(C(=O)N([H])[H])c2N([H])[H])C1([H])[H]

$$$$
27:0:0
     RDKit          3D

 91 99  0  0  1  0  0  0  0  0999 V2000
  -33.8490  -21.0160   18.4450 C   0  0  0  0  0  3  0  0  0  0  0  0
  -33.2930  -18.3670   18.7250 C   0  0  0  0  0  2  0  0  0  0  0  0
  -31.9810  -17.6270   20.7500 C   0  0  0  0  0  2  0  0  0  0  0  0
  -32.4010  -20.1090   20.3580 C   0  0  0  0  0  2  0  0  0  0  0  0
  -32.2770  -17.2760   19.2780 C   0  0  0  0  0  3  0  0  0  0  0  0
  -32.8190  -19.8780   18.8840 C   0  0  0  0  0  3  0  0  0  0  0  0
  -31.4220  -19.0630   20.9630 C   0  0  1  0  0  0  0  0  0  0  0  0
  -30.0190  -19.1970   20.3280 C   0  0  0  0  0  1  0  0  0  0  0  0
  -32.6680  -15.7430   19.1260 C   0  0  0  0  0  0  0  0  0  0  0  0
  -33.7220  -14.0250   17.6540 C   0  0  0  0  0  2  0  0  0  0  0  0
  -35.0430  -14.5930   17.0910 C   0  0  0  0  0  2  0  0  0  0  0  0
  -34.7900  -15.4120   15.8090 C   0  0  0  0  0  2  0  0  0  0  0  0
  -33.6290  -16.4260   15.9740 C   0  0  0  0  0  3  0  0  0  0  0  0
  -32.3940  -15.7590   16.6140 C   0  0  0  0  0  2  0  0  0  0  0  0
  -32.8110  -15.1630   17.8900 N   0  0  0  0  0  0  0  0  0  0  0  0
  -32.9650  -15.1120   20.1450 O   0  0  0  0  0  0  0  0  0  0  0  0
  -33.6630  -18.3460   14.2640 C   0  0  0  0  0  0  0  0  0  0  0  0
  -33.1590  -18.4530   12.9980 C   0  0  0  0  0  0  0  0  0  0  0  0
  -32.4940  -17.2170   12.7320 C   0  0  0  0  0  0  0  0  0  0  0  0
  -33.2970  -17.0870   14.7140 N   0  0  0  0  0  0  0  0  0  0  0  0
  -32.5370  -16.4310   13.8010 N   0  0  0  0  0  0  0  0  0  0  0  0
  -31.8700  -16.7130   11.5010 C   0  0  0  0  0  0  0  0  0  0  0  0
  -30.5590  -17.0870   11.1310 C   0  0  0  0  0  3  0  0  0  0  0  0
  -29.9900  -16.6030    9.9330 C   0  0  0  0  0  3  0  0  0  0  0  0
  -30.7320  -15.7410    9.0920 C   0  0  0  0  0  0  0  0  0  0  0  0
  -32.0270  -15.3540    9.4770 C   0  0  0  0  0  3  0  0  0  0  0  0
  -32.5910  -15.8320   10.6720 C   0  0  0  0  0  3  0  0  0  0  0  0
  -30.2500  -15.2010    7.9240 O   0  0  0  0  0  0  0  0  0  0  0  0
  -30.0100  -15.9770    6.8170 C   0  0  0  0  0  0  0  0  0  0  0  0
  -31.0530  -16.4020    5.9660 C   0  0  0  0  0  3  0  0  0  0  0  0
  -30.7540  -17.1400    4.8020 C   0  0  0  0  0  3  0  0  0  0  0  0
  -29.4170  -17.4440    4.4840 C   0  0  0  0  0  0  0  0  0  0  0  0
  -28.3770  -17.0160    5.3280 C   0  0  0  0  0  3  0  0  0  0  0  0
  -28.6730  -16.2820    6.4910 C   0  0  0  0  0  0  0  0  0  0  0  0
  -27.6670  -15.8540    7.2900 F   0  0  0  0  0  0  0  0  0  0  0  0
  -29.1290  -18.1450    3.3630 F   0  0  0  0  0  0  0  0  0  0  0  0
  -33.3660  -19.5960   12.0460 C   0  0  0  0  0  0  0  0  0  0  0  0
  -32.2840  -20.1840   11.5480 N   0  0  0  0  0  0  0  0  0  0  0  0
  -34.4940  -20.0080   11.7760 O   0  0  0  0  0  0  0  0  0  0  0  0
  -31.3580  -19.8600   11.7870 H   0  0  0  0  0  0  0  0  0  0  0  0
  -32.3820  -20.9700   10.9210 H   0  0  0  0  0  0  0  0  0  0  0  0
  -34.4220  -19.1990   15.0590 N   0  0  0  0  0  0  0  0  0  0  0  0
  -34.7420  -20.1030   14.7300 H   0  0  0  0  0  0  0  0  0  0  0  0
  -34.7680  -18.9690   15.9820 H   0  0  0  0  0  0  0  0  0  0  0  0
  -32.0460  -20.4840   23.0890 C   0  0  0  0  0  1  0  0  0  0  0  0
  -31.3060  -19.2710   22.4990 C   0  0  0  0  0  2  0  0  0  0  0  0
  -33.4370  -22.0510   17.3040 C   0  0  0  0  0  3  0  0  0  0  0  0
  -34.4990  -23.1480   16.8490 C   0  0  0  0  0  3  0  0  0  0  0  0
  -34.0150  -24.6220   16.4740 C   0  0  0  0  0  3  0  0  0  0  0  0
  -35.1080  -25.7770   16.4770 C   0  0  0  0  0  2  0  0  0  0  0  0
  -34.7790  -27.1330   16.9330 O   0  0  0  0  0  0  0  0  0  0  0  0
  -38.6560  -31.7600   20.8830 C   0  0  0  0  0  0  0  0  0  0  0  0
  -35.2220  -27.5700   18.1800 C   0  0  0  0  0  0  0  0  0  0  0  0
  -37.7670  -29.7770   22.0600 C   0  0  0  0  0  3  0  0  0  0  0  0
  -36.0290  -28.4060   20.7800 C   0  0  0  0  0  0  0  0  0  0  0  0
  -36.5450  -30.7300   20.0190 C   0  0  0  0  0  2  0  0  0  0  0  0
  -36.0530  -29.3200   19.7190 C   0  0  0  0  0  0  0  0  0  0  0  0
  -35.6330  -28.9130   18.4220 C   0  0  0  0  0  3  0  0  0  0  0  0
  -35.1990  -26.6780   19.2690 C   0  0  0  0  0  3  0  0  0  0  0  0
  -35.5950  -27.0860   20.5590 C   0  0  0  0  0  3  0  0  0  0  0  0
  -36.4860  -28.9030   22.1360 C   0  0  0  0  0  2  0  0  0  0  0  0
  -37.6990  -30.7890   20.9560 N   0  0  0  0  0  0  0  0  0  0  0  0
  -39.5550  -31.8420   21.7300 O   0  0  0  0  0  0  0  0  0  0  0  0
  -38.9990  -28.8470   21.9650 C   0  0  0  0  0  0  0  0  0  0  0  0
  -39.5240  -28.4200   23.1250 N   0  0  0  0  0  0  0  0  0  0  0  0
  -39.4440  -28.5020   20.8670 O   0  0  0  0  0  0  0  0  0  0  0  0
  -39.1070  -28.7540   23.9830 H   0  0  0  0  0  0  0  0  0  0  0  0
  -41.9200  -27.1020   25.4900 C   0  0  0  0  0  0  0  0  0  0  0  0
  -40.6550  -27.5050   23.2720 C   0  0  0  0  0  3  0  0  0  0  0  0
  -40.1730  -26.0410   23.4010 C   0  0  0  0  0  2  0  0  0  0  0  0
  -39.9920  -25.5900   24.8540 C   0  0  0  0  0  2  0  0  0  0  0  0
  -41.3100  -25.7170   25.6230 C   0  0  0  0  0  2  0  0  0  0  0  0
  -41.6000  -27.9470   24.3950 C   0  0  0  0  0  0  0  0  0  0  0  0
  -42.1660  -29.2390   24.3380 C   0  0  0  0  0  3  0  0  0  0  0  0
  -43.0390  -29.6880   25.3480 C   0  0  0  0  0  3  0  0  0  0  0  0
  -43.3650  -28.8410   26.4220 C   0  0  0  0  0  3  0  0  0  0  0  0
  -42.8090  -27.5500   26.4890 C   0  0  0  0  0  3  0  0  0  0  0  0
  -38.6520  -32.8270   19.7440 C   0  0  0  0  0  3  0  0  0  0  0  0
  -38.7470  -34.1510   20.3750 N   0  0  0  0  0  0  0  0  0  0  0  0
  -37.6970  -34.8890   20.7600 C   0  0  0  0  0  0  0  0  0  0  0  0
  -36.5290  -34.5480   20.5520 O   0  0  0  0  0  0  0  0  0  0  0  0
  -39.6730  -34.4660   20.6250 H   0  0  0  0  0  0  0  0  0  0  0  0
  -37.7430  -36.0390   22.9960 C   0  0  0  0  0  1  0  0  0  0  0  0
  -37.9880  -36.2140   21.4890 C   0  0  0  0  0  3  0  0  0  0  0  0
  -37.6590  -37.8650   19.7010 C   0  0  0  0  0  1  0  0  0  0  0  0
  -37.1880  -37.3520   20.9840 N   0  0  0  0  0  0  0  0  0  0  0  0
  -37.1890  -38.1180   21.6520 H   0  0  0  0  0  0  0  0  0  0  0  0
  -39.8170  -32.6250   18.6980 C   0  0  1  0  0  0  0  0  0  0  0  0
  -41.1700  -33.2190   19.1520 C   0  0  0  0  0  1  0  0  0  0  0  0
  -40.0350  -31.1210   18.4080 C   0  0  0  0  0  1  0  0  0  0  0  0
  -39.4330  -33.2830   17.3510 C   0  0  0  0  0  1  0  0  0  0  0  0
  2  6  1  0
  2  5  1  0
  3  7  1  0
  4  7  1  0
  5  9  1  0
  5  3  1  0
  6  1  1  0
  6  4  1  0
  7  8  1  6
  7 46  1  0
  9 16  2  0
 10 15  1  0
 11 10  1  0
 12 13  1  0
 12 11  1  0
 13 20  1  0
 13 14  1  0
 14 15  1  0
 15  9  1  0
 17 20  1  0
 17 42  1  0
 18 17  2  0
 19 18  1  0
 19 21  2  0
 21 20  1  0
 22 19  1  0
 23 22  1  0
 24 23  2  0
 25 26  2  0
 25 24  1  0
 26 27  1  0
 27 22  2  0
 28 25  1  0
 29 28  1  0
 30 29  2  0
 31 30  1  0
 32 31  2  0
 32 33  1  0
 33 34  2  0
 34 29  1  0
 34 35  1  0
 36 32  1  0
 37 18  1  0
 38 40  1  0
 38 37  1  0
 39 37  2  0
 41 38  1  0
 42 44  1  0
 43 42  1  0
 46 45  1  0
 47  1  2  0
 48 47  1  0
 49 50  1  0
 49 48  2  0
 50 51  1  0
 51 53  1  0
 52 62  1  0
 52 63  2  0
 53 58  2  0
 53 59  1  0
 54 64  1  0
 54 61  1  0
 55 61  1  0
 56 62  1  0
 57 56  1  0
 57 55  2  0
 58 57  1  0
 59 60  2  0
 60 55  1  0
 62 54  1  0
 64 65  1  0
 65 67  1  0
 66 64  2  0
 68 72  1  0
 68 77  1  0
 69 65  1  0
 69 70  1  0
 69 73  1  0
 70 71  1  0
 71 72  1  0
 73 68  2  0
 74 73  1  0
 74 75  2  0
 75 76  1  0
 76 77  2  0
 78 79  1  0
 78 52  1  0
 79 82  1  0
 79 80  1  0
 80 84  1  0
 81 80  2  0
 84 83  1  0
 85 86  1  0
 86 84  1  0
 86 87  1  0
 88 89  1  1
 88 78  1  0
 90 88  1  0
 91 88  1  0
M  ISO  4   5 100   9 100  50 101  51 101
M  END
>  <TORSDO>  (28) 
F 22

>  <SCORE>  (28) 
-3.444

>  <name>  (28) 
27

>  <ligand_id>  (28) 
27

>  <original_smiles>  (28) 
[H]c1c([H])c([H])c2c(c1[H])C([H])([H])C([H])([H])C([H])([H])C2([H])N([H])C(=O)C1([H])N(C(=O)C([H])(N([H])C(=O)C([H])(N([H])C([H])([H])[H])C([H])([H])[H])C(C([H])([H])[H])(C([H])([H])[H])C([H])([H])[H])C([H])([H])c2c([H])c(OC([H])([H])C([H])([H])C([H])([H])C([H])([H])C([H])([H])C3([H])C([H])([H])C([H])(C(=O)N4C([H])([H])C([H])([H])C([H])([H])C([H])(n5nc(-c6c([H])c([H])c(Oc7c([H])c([H])c(F)c([H])c7F)c([H])c6[H])c(C(=O)N([H])[H])c5N([H])[H])C4([H])[H])C([H])([H])C(C([H])([H])[H])(C([H])([H])C([H])([H])[H])C3([H])[H])c([H])c([H])c2C1([H])[H]

>  <smiles>  (28) 
[H]c1c([H])c([H])c2c(c1[H])C([H])([H])C([H])([H])C([H])([H])C2([H])N([H])C(=O)C1([H])N(C(=O)C([H])(N([H])C(=O)C([H])(N([H])C([H])([H])[H])C([H])([H])[H])C(C([H])([H])[H])(C([H])([H])[H])C([H])([H])[H])C([H])([H])c2c([H])c(OC([H])([H])C([H])([H])C([H])([H])C([H])([H])C([H])([H])C3([H])C([H])([H])C([H])(C(=O)N4C([H])([H])C([H])([H])C([H])([H])C([H])(n5nc(-c6c([H])c([H])c(Oc7c([H])c([H])c(F)c([H])c7F)c([H])c6[H])c(C(=O)N([H])[H])c5N([H])[H])C4([H])[H])C([H])([H])C(C([H])([H])[H])(C([H])([H])C([H])([H])[H])C3([H])[H])c([H])c([H])c2C1([H])[H]

$$$$
28:0:0
     RDKit          3D

 97106  0  0  1  0  0  0  0  0999 V2000
  -27.6730  -22.2270   22.2890 C   0  0  0  0  0  2  0  0  0  0  0  0
  -28.2360  -19.7920   19.2500 C   0  0  0  0  0  2  0  0  0  0  0  0
  -27.4860  -22.9700   20.9600 C   0  0  0  0  0  2  0  0  0  0  0  0
  -27.4360  -21.0990   19.2230 C   0  0  0  0  0  2  0  0  0  0  0  0
  -28.7500  -21.1510   22.0590 C   0  0  0  0  0  2  0  0  0  0  0  0
  -29.6250  -20.1370   19.8220 C   0  0  0  0  0  3  0  0  0  0  0  0
  -28.2890  -22.1740   19.9180 C   0  0  0  0  0  3  0  0  0  0  0  0
  -29.4060  -21.4260   20.6790 C   0  0  1  0  0  0  0  0  0  0  0  0
  -30.3650  -18.9500   20.4890 C   0  0  0  0  0  0  0  0  0  0  0  0
  -29.8400  -17.7200   20.3440 N   0  0  0  0  0  0  0  0  0  0  0  0
  -31.4320  -19.1350   21.0710 O   0  0  0  0  0  0  0  0  0  0  0  0
  -28.9380  -17.6640   19.8840 H   0  0  0  0  0  0  0  0  0  0  0  0
  -30.4900  -16.4480   20.6930 C   0  0  0  0  0  2  0  0  0  0  0  0
  -30.9850  -15.7420   19.4110 C   0  0  0  0  0  2  0  0  0  0  0  0
  -31.7000  -14.3750   19.5380 C   0  0  0  0  0  0  0  0  0  0  0  0
  -31.2480  -12.0270   18.9750 C   0  0  0  0  0  2  0  0  0  0  0  0
  -30.2800  -12.0000   17.7710 C   0  0  0  0  0  2  0  0  0  0  0  0
  -28.8120  -12.0450   18.2480 C   0  0  0  0  0  2  0  0  0  0  0  0
  -28.5600  -13.1860   19.2630 C   0  0  0  0  0  3  0  0  0  0  0  0
  -29.6400  -13.2010   20.3680 C   0  0  0  0  0  2  0  0  0  0  0  0
  -30.9650  -13.2500   19.7380 N   0  0  0  0  0  0  0  0  0  0  0  0
  -32.8710  -14.3350   19.1520 O   0  0  0  0  0  0  0  0  0  0  0  0
  -26.3570  -14.1750   20.1420 C   0  0  0  0  0  0  0  0  0  0  0  0
  -25.1960  -13.5850   20.5610 C   0  0  0  0  0  0  0  0  0  0  0  0
  -25.4190  -12.1750   20.4830 C   0  0  0  0  0  0  0  0  0  0  0  0
  -27.2160  -13.1340   19.8280 N   0  0  0  0  0  0  0  0  0  0  0  0
  -26.6630  -11.9260   20.0980 N   0  0  0  0  0  0  0  0  0  0  0  0
  -24.5060  -11.0480   20.7010 C   0  0  0  0  0  0  0  0  0  0  0  0
  -24.8640   -9.9590   21.5260 C   0  0  0  0  0  3  0  0  0  0  0  0
  -23.9640   -8.8920   21.7310 C   0  0  0  0  0  3  0  0  0  0  0  0
  -22.6910   -8.9100   21.1120 C   0  0  0  0  0  0  0  0  0  0  0  0
  -22.3500   -9.9860   20.2740 C   0  0  0  0  0  3  0  0  0  0  0  0
  -23.2490  -11.0440   20.0660 C   0  0  0  0  0  3  0  0  0  0  0  0
  -21.7600   -7.9070   21.2360 O   0  0  0  0  0  0  0  0  0  0  0  0
  -21.6850   -7.1290   22.3620 C   0  0  0  0  0  0  0  0  0  0  0  0
  -21.5210   -7.6910   23.6470 C   0  0  0  0  0  3  0  0  0  0  0  0
  -21.3780   -6.8520   24.7690 C   0  0  0  0  0  3  0  0  0  0  0  0
  -21.3900   -5.4540   24.6090 C   0  0  0  0  0  0  0  0  0  0  0  0
  -21.5470   -4.8910   23.3300 C   0  0  0  0  0  3  0  0  0  0  0  0
  -21.6910   -5.7280   22.2090 C   0  0  0  0  0  0  0  0  0  0  0  0
  -21.8220   -5.1820   20.9750 F   0  0  0  0  0  0  0  0  0  0  0  0
  -21.2450   -4.6450   25.6860 F   0  0  0  0  0  0  0  0  0  0  0  0
  -23.9140  -14.2810   20.9170 C   0  0  0  0  0  0  0  0  0  0  0  0
  -23.1340  -13.7020   21.8220 N   0  0  0  0  0  0  0  0  0  0  0  0
  -23.6210  -15.3720   20.4280 O   0  0  0  0  0  0  0  0  0  0  0  0
  -23.3840  -12.8180   22.2390 H   0  0  0  0  0  0  0  0  0  0  0  0
  -22.2730  -14.1490   22.1030 H   0  0  0  0  0  0  0  0  0  0  0  0
  -26.7440  -15.5020   19.9770 N   0  0  0  0  0  0  0  0  0  0  0  0
  -26.1000  -16.2690   20.1300 H   0  0  0  0  0  0  0  0  0  0  0  0
  -27.6120  -15.7910   19.5490 H   0  0  0  0  0  0  0  0  0  0  0  0
  -30.7070  -22.2840   20.8000 C   0  0  0  0  0  2  0  0  0  0  0  0
  -30.4510  -23.6060   21.4200 N   0  0  0  0  0  4  0  0  0  0  0  0
  -29.4790  -23.8210   21.2540 H   0  0  0  0  0  0  0  0  0  0  0  0
  -30.5740  -23.5060   22.4160 H   0  0  0  0  0  0  0  0  0  0  0  0
  -31.2700  -24.7440   20.9360 C   0  0  0  0  0  2  0  0  0  0  0  0
  -31.0560  -25.9870   21.8260 C   0  0  0  0  0  2  0  0  0  0  0  0
  -30.9690  -27.1970   21.0670 O   0  0  0  0  0  0  0  0  0  0  0  0
  -25.6960  -31.1620   23.7100 C   0  0  0  0  0  0  0  0  0  0  0  0
  -29.6820  -27.6500   20.9140 C   0  0  0  0  0  0  0  0  0  0  0  0
  -25.0750  -29.6190   21.8760 C   0  0  0  0  0  3  0  0  0  0  0  0
  -27.0220  -28.5370   20.6330 C   0  0  0  0  0  0  0  0  0  0  0  0
  -27.4470  -30.5590   22.0460 C   0  0  0  0  0  2  0  0  0  0  0  0
  -27.9350  -29.2850   21.3910 C   0  0  0  0  0  0  0  0  0  0  0  0
  -29.2690  -28.8500   21.5290 C   0  0  0  0  0  3  0  0  0  0  0  0
  -28.7580  -26.9020   20.1570 C   0  0  0  0  0  3  0  0  0  0  0  0
  -27.4290  -27.3420   20.0140 C   0  0  0  0  0  3  0  0  0  0  0  0
  -25.6170  -29.0840   20.5240 C   0  0  0  0  0  2  0  0  0  0  0  0
  -26.0780  -30.4630   22.6050 N   0  0  0  0  0  0  0  0  0  0  0  0
  -24.5200  -31.1510   24.0990 O   0  0  0  0  0  0  0  0  0  0  0  0
  -24.5610  -28.4250   22.7100 C   0  0  0  0  0  0  0  0  0  0  0  0
  -23.4510  -27.8180   22.2610 N   0  0  0  0  0  0  0  0  0  0  0  0
  -25.1680  -28.0450   23.7150 O   0  0  0  0  0  0  0  0  0  0  0  0
  -23.0070  -28.1980   21.4360 H   0  0  0  0  0  0  0  0  0  0  0  0
  -20.6960  -25.5100   21.9050 C   0  0  0  0  0  0  0  0  0  0  0  0
  -22.8100  -26.6490   22.8610 C   0  0  0  0  0  3  0  0  0  0  0  0
  -23.5580  -25.3510   22.4800 C   0  0  0  0  0  2  0  0  0  0  0  0
  -22.9870  -24.6690   21.2340 C   0  0  0  0  0  2  0  0  0  0  0  0
  -21.5130  -24.3120   21.4460 C   0  0  0  0  0  2  0  0  0  0  0  0
  -21.3080  -26.6130   22.5540 C   0  0  0  0  0  0  0  0  0  0  0  0
  -20.5100  -27.7160   22.9280 C   0  0  0  0  0  3  0  0  0  0  0  0
  -19.1290  -27.7290   22.6630 C   0  0  0  0  0  3  0  0  0  0  0  0
  -18.5250  -26.6270   22.0320 C   0  0  0  0  0  3  0  0  0  0  0  0
  -19.3070  -25.5180   21.6610 C   0  0  0  0  0  3  0  0  0  0  0  0
  -26.7100  -32.0310   24.5210 C   0  0  0  0  0  3  0  0  0  0  0  0
  -26.1490  -33.3850   24.6210 N   0  0  0  0  0  0  0  0  0  0  0  0
  -26.4880  -34.4090   23.8250 C   0  0  0  0  0  0  0  0  0  0  0  0
  -27.3690  -34.3240   22.9650 O   0  0  0  0  0  0  0  0  0  0  0  0
  -25.3850  -33.5110   25.2680 H   0  0  0  0  0  0  0  0  0  0  0  0
  -24.6210  -35.8490   22.9470 C   0  0  0  0  0  1  0  0  0  0  0  0
  -25.7260  -35.7360   24.0110 C   0  0  0  0  0  3  0  0  0  0  0  0
  -27.5640  -36.9920   25.0470 C   0  0  0  0  0  1  0  0  0  0  0  0
  -26.6000  -36.9270   23.9500 N   0  0  0  0  0  0  0  0  0  0  0  0
  -26.0480  -37.7790   23.9610 H   0  0  0  0  0  0  0  0  0  0  0  0
  -27.0200  -31.4470   25.9550 C   0  0  1  0  0  0  0  0  0  0  0  0
  -25.7600  -31.0020   26.7320 C   0  0  0  0  0  1  0  0  0  0  0  0
  -27.9690  -30.2310   25.8540 C   0  0  0  0  0  1  0  0  0  0  0  0
  -27.7560  -32.5100   26.8050 C   0  0  0  0  0  1  0  0  0  0  0  0
  2  6  1  0
  3  1  1  0
  4  2  1  0
  5  1  1  0
  6  9  1  0
  6  8  1  0
  7  4  1  0
  7  8  1  0
  7  3  1  0
  8 51  1  1
  8  5  1  0
  9 11  2  0
 10  9  1  0
 10 13  1  0
 12 10  1  0
 14 15  1  0
 14 13  1  0
 15 21  1  0
 16 21  1  0
 17 18  1  0
 17 16  1  0
 19 18  1  0
 19 26  1  0
 19 20  1  0
 21 20  1  0
 22 15  2  0
 23 24  2  0
 24 43  1  0
 25 24  1  0
 25 28  1  0
 26 27  1  0
 26 23  1  0
 27 25  2  0
 28 29  1  0
 29 30  2  0
 31 34  1  0
 31 30  1  0
 32 31  2  0
 33 32  1  0
 33 28  2  0
 34 35  1  0
 35 36  1  0
 36 37  2  0
 38 37  1  0
 38 42  1  0
 39 38  2  0
 40 35  2  0
 40 39  1  0
 41 40  1  0
 43 44  1  0
 44 47  1  0
 44 46  1  0
 45 43  2  0
 48 49  1  0
 48 23  1  0
 50 48  1  0
 51 52  1  0
 52 54  1  0
 53 52  1  0
 55 52  1  0
 55 56  1  0
 57 56  1  0
 58 69  2  0
 59 57  1  0
 59 64  1  0
 60 68  1  0
 60 70  1  0
 61 63  1  0
 62 68  1  0
 63 64  2  0
 63 62  1  0
 65 59  2  0
 66 65  1  0
 66 61  2  0
 67 61  1  0
 67 60  1  0
 68 58  1  0
 70 72  2  0
 71 70  1  0
 73 71  1  0
 74 79  1  0
 75 71  1  0
 76 75  1  0
 77 78  1  0
 77 76  1  0
 78 74  1  0
 79 75  1  0
 79 80  2  0
 81 80  1  0
 82 81  2  0
 83 74  2  0
 83 82  1  0
 84 58  1  0
 84 85  1  0
 84 94  1  0
 85 88  1  0
 86 90  1  0
 86 85  1  0
 87 86  2  0
 90 89  1  0
 92 93  1  0
 92 90  1  0
 92 91  1  0
 94 95  1  1
 94 97  1  0
 96 94  1  0
M  ISO  4  14 100  15 100  56 101  57 101
M  END
>  <TORSDO>  (29) 
F 23

>  <SCORE>  (29) 
-9.028

>  <name>  (29) 
28

>  <ligand_id>  (29) 
28

>  <original_smiles>  (29) 
[H]c1c([H])c([H])c2c(c1[H])C([H])([H])C([H])([H])C([H])([H])C2([H])N([H])C(=O)C1([H])N(C(=O)C([H])(N([H])C(=O)C([H])(N([H])C([H])([H])[H])C([H])([H])[H])C(C([H])([H])[H])(C([H])([H])[H])C([H])([H])[H])C([H])([H])c2c([H])c(OC([H])([H])C([H])([H])[N+]([H])([H])C([H])([H])C34C([H])([H])C([H])([H])C([H])([H])C3([H])C([H])([H])C([H])([H])C4([H])C(=O)N([H])C([H])([H])C([H])([H])C(=O)N3C([H])([H])C([H])([H])C([H])([H])C([H])(n4nc(-c5c([H])c([H])c(Oc6c([H])c([H])c(F)c([H])c6F)c([H])c5[H])c(C(=O)N([H])[H])c4N([H])[H])C3([H])[H])c([H])c([H])c2C1([H])[H]

>  <smiles>  (29) 
[H]c1c([H])c([H])c2c(c1[H])C([H])([H])C([H])([H])C([H])([H])C2([H])N([H])C(=O)C1([H])N(C(=O)C([H])(N([H])C(=O)C([H])(N([H])C([H])([H])[H])C([H])([H])[H])C(C([H])([H])[H])(C([H])([H])[H])C([H])([H])[H])C([H])([H])c2c([H])c(OC([H])([H])C([H])([H])[N+]([H])([H])C([H])([H])C34C([H])([H])C([H])([H])C([H])([H])C3([H])C([H])([H])C([H])([H])C4([H])C(=O)N([H])C([H])([H])C([H])([H])C(=O)N3C([H])([H])C([H])([H])C([H])([H])C([H])(n4nc(-c5c([H])c([H])c(Oc6c([H])c([H])c(F)c([H])c6F)c([H])c5[H])c(C(=O)N([H])[H])c4N([H])[H])C3([H])[H])c([H])c([H])c2C1([H])[H]

$$$$
29:0:0
     RDKit          3D

 93102  0  0  1  0  0  0  0  0999 V2000
  -30.0590  -23.3440   17.8120 C   0  0  0  0  0  0  0  0  0  0  0  0
  -30.7250  -21.9950   17.5930 C   0  0  0  0  0  2  0  0  0  0  0  0
  -32.3970  -20.7550   19.1080 C   0  0  0  0  0  2  0  0  0  0  0  0
  -31.0870  -22.8420   19.8220 C   0  0  0  0  0  2  0  0  0  0  0  0
  -32.1150  -19.5850   20.0420 C   0  0  0  0  0  2  0  0  0  0  0  0
  -30.0020  -20.5260   19.5850 C   0  0  0  0  0  2  0  0  0  0  0  0
  -31.0620  -21.5200   19.0220 C   0  0  1  0  0  0  0  0  0  0  0  0
  -30.2400  -23.7570   19.0740 N   0  0  0  0  0  0  0  0  0  0  0  0
  -30.7070  -19.2440   19.7630 N   0  0  2  0  0  4  0  0  0  0  0  0
  -29.4790  -23.9540   16.9130 O   0  0  0  0  0  0  0  0  0  0  0  0
  -30.7060  -18.8130   18.8510 H   0  0  0  0  0  0  0  0  0  0  0  0
  -29.9700  -25.0830   19.6230 C   0  0  0  0  0  2  0  0  0  0  0  0
  -28.5140  -25.5390   19.4620 C   0  0  0  0  0  2  0  0  0  0  0  0
  -28.4200  -26.8000   20.1040 O   0  0  0  0  0  0  0  0  0  0  0  0
  -24.6030  -31.8800   23.2190 C   0  0  0  0  0  0  0  0  0  0  0  0
  -27.2150  -27.4590   20.1050 C   0  0  0  0  0  0  0  0  0  0  0  0
  -23.3760  -30.4800   21.5890 C   0  0  0  0  0  3  0  0  0  0  0  0
  -24.8120  -28.9410   20.1510 C   0  0  0  0  0  0  0  0  0  0  0  0
  -25.8970  -30.8410   21.3640 C   0  0  0  0  0  2  0  0  0  0  0  0
  -25.9720  -29.4700   20.7280 C   0  0  0  0  0  0  0  0  0  0  0  0
  -27.1720  -28.7330   20.7080 C   0  0  0  0  0  3  0  0  0  0  0  0
  -26.0330  -26.9290   19.5340 C   0  0  0  0  0  3  0  0  0  0  0  0
  -24.8340  -27.6670   19.5580 C   0  0  0  0  0  3  0  0  0  0  0  0
  -23.5690  -29.7980   20.2070 C   0  0  0  0  0  2  0  0  0  0  0  0
  -24.6440  -31.0810   22.1170 N   0  0  0  0  0  0  0  0  0  0  0  0
  -23.5270  -32.1550   23.7700 O   0  0  0  0  0  0  0  0  0  0  0  0
  -22.7350  -29.4580   22.5550 C   0  0  0  0  0  0  0  0  0  0  0  0
  -21.4110  -29.2740   22.4360 N   0  0  0  0  0  0  0  0  0  0  0  0
  -23.4250  -28.8350   23.3660 O   0  0  0  0  0  0  0  0  0  0  0  0
  -20.9170  -29.8310   21.7530 H   0  0  0  0  0  0  0  0  0  0  0  0
  -18.0440  -28.0660   22.9390 C   0  0  0  0  0  0  0  0  0  0  0  0
  -20.6000  -28.3370   23.2120 C   0  0  0  0  0  3  0  0  0  0  0  0
  -20.7090  -26.9030   22.6450 C   0  0  0  0  0  2  0  0  0  0  0  0
  -19.6110  -26.5670   21.6320 C   0  0  0  0  0  2  0  0  0  0  0  0
  -18.2270  -26.7120   22.2750 C   0  0  0  0  0  2  0  0  0  0  0  0
  -19.1590  -28.8360   23.3640 C   0  0  0  0  0  0  0  0  0  0  0  0
  -18.9350  -30.1020   23.9460 C   0  0  0  0  0  3  0  0  0  0  0  0
  -17.6290  -30.6010   24.1040 C   0  0  0  0  0  3  0  0  0  0  0  0
  -16.5280  -29.8300   23.6950 C   0  0  0  0  0  3  0  0  0  0  0  0
  -16.7370  -28.5630   23.1190 C   0  0  0  0  0  3  0  0  0  0  0  0
  -25.8970  -32.5070   23.8260 C   0  0  0  0  0  3  0  0  0  0  0  0
  -25.5920  -33.9020   24.1700 N   0  0  0  0  0  0  0  0  0  0  0  0
  -25.9160  -34.9590   23.4130 C   0  0  0  0  0  0  0  0  0  0  0  0
  -26.5760  -34.8620   22.3740 O   0  0  0  0  0  0  0  0  0  0  0  0
  -25.0090  -34.0540   24.9790 H   0  0  0  0  0  0  0  0  0  0  0  0
  -24.1810  -36.7500   23.0860 C   0  0  0  0  0  1  0  0  0  0  0  0
  -25.4310  -36.3440   23.8830 C   0  0  0  0  0  3  0  0  0  0  0  0
  -27.5760  -37.2230   24.6930 C   0  0  0  0  0  1  0  0  0  0  0  0
  -26.4620  -37.3980   23.7650 N   0  0  0  0  0  0  0  0  0  0  0  0
  -26.0570  -38.3160   23.9270 H   0  0  0  0  0  0  0  0  0  0  0  0
  -26.4370  -31.7260   25.0860 C   0  0  1  0  0  0  0  0  0  0  0  0
  -25.3630  -31.4780   26.1690 C   0  0  0  0  0  1  0  0  0  0  0  0
  -27.0150  -30.3530   24.6710 C   0  0  0  0  0  1  0  0  0  0  0  0
  -27.6000  -32.5140   25.7350 C   0  0  0  0  0  1  0  0  0  0  0  0
  -30.0790  -18.2660   20.6870 C   0  0  0  0  0  2  0  0  0  0  0  0
  -30.7570  -16.9020   20.5050 C   0  0  0  0  0  2  0  0  0  0  0  0
  -30.0790  -15.6630   21.1320 C   0  0  0  0  0  2  0  0  0  0  0  0
  -30.7200  -14.3940   20.5410 C   0  0  0  0  0  0  0  0  0  0  0  0
  -30.3490  -12.2780   19.3570 C   0  0  0  0  0  2  0  0  0  0  0  0
  -29.4330  -12.5500   18.1480 C   0  0  0  0  0  2  0  0  0  0  0  0
  -27.9510  -12.4430   18.5590 C   0  0  0  0  0  2  0  0  0  0  0  0
  -27.6210  -13.2610   19.8380 C   0  0  0  0  0  3  0  0  0  0  0  0
  -28.6650  -13.0110   20.9490 C   0  0  0  0  0  2  0  0  0  0  0  0
  -30.0010  -13.2540   20.3960 N   0  0  0  0  0  0  0  0  0  0  0  0
  -31.8570  -14.5060   20.0730 O   0  0  0  0  0  0  0  0  0  0  0  0
  -25.2180  -13.8820   20.5140 C   0  0  0  0  0  0  0  0  0  0  0  0
  -24.1430  -13.1160   20.8810 C   0  0  0  0  0  0  0  0  0  0  0  0
  -24.6000  -11.7620   20.8680 C   0  0  0  0  0  0  0  0  0  0  0  0
  -26.2620  -12.9950   20.3040 N   0  0  0  0  0  0  0  0  0  0  0  0
  -25.8940  -11.7160   20.5740 N   0  0  0  0  0  0  0  0  0  0  0  0
  -23.8690  -10.5050   21.0600 C   0  0  0  0  0  0  0  0  0  0  0  0
  -24.3050   -9.5320   21.9870 C   0  0  0  0  0  3  0  0  0  0  0  0
  -23.5720   -8.3390   22.1690 C   0  0  0  0  0  3  0  0  0  0  0  0
  -22.3900   -8.1110   21.4240 C   0  0  0  0  0  0  0  0  0  0  0  0
  -21.9760   -9.0720   20.4860 C   0  0  0  0  0  3  0  0  0  0  0  0
  -22.7090  -10.2550   20.3020 C   0  0  0  0  0  3  0  0  0  0  0  0
  -21.6310   -6.9680   21.5160 O   0  0  0  0  0  0  0  0  0  0  0  0
  -21.6030   -6.2110   22.6600 C   0  0  0  0  0  0  0  0  0  0  0  0
  -21.2310   -6.7580   23.9070 C   0  0  0  0  0  3  0  0  0  0  0  0
  -21.1490   -5.9280   25.0430 C   0  0  0  0  0  3  0  0  0  0  0  0
  -21.4280   -4.5520   24.9320 C   0  0  0  0  0  0  0  0  0  0  0  0
  -21.7940   -4.0060   23.6900 C   0  0  0  0  0  3  0  0  0  0  0  0
  -21.8780   -4.8330   22.5570 C   0  0  0  0  0  0  0  0  0  0  0  0
  -22.2100   -4.2980   21.3570 F   0  0  0  0  0  0  0  0  0  0  0  0
  -21.3420   -3.7530   26.0210 F   0  0  0  0  0  0  0  0  0  0  0  0
  -22.7460  -13.6000   21.1330 C   0  0  0  0  0  0  0  0  0  0  0  0
  -22.0060  -12.9160   22.0000 N   0  0  0  0  0  0  0  0  0  0  0  0
  -22.3160  -14.6190   20.5940 O   0  0  0  0  0  0  0  0  0  0  0  0
  -22.3620  -12.0920   22.4610 H   0  0  0  0  0  0  0  0  0  0  0  0
  -21.0670  -13.2260   22.2080 H   0  0  0  0  0  0  0  0  0  0  0  0
  -25.3880  -15.2510   20.3260 N   0  0  0  0  0  0  0  0  0  0  0  0
  -24.6200  -15.9060   20.4270 H   0  0  0  0  0  0  0  0  0  0  0  0
  -26.2430  -15.6910   20.0120 H   0  0  0  0  0  0  0  0  0  0  0  0
  1  8  1  0
  2  1  1  0
  3  5  1  0
  6  9  1  0
  7  2  1  6
  7  3  1  0
  7  6  1  0
  7  4  1  0
  8 12  1  0
  8  4  1  0
  9  5  1  0
  9 55  1  0
 10  1  2  0
  9 11  1  6
 13 12  1  0
 13 14  1  0
 14 16  1  0
 15 26  2  0
 16 21  1  0
 17 25  1  0
 17 27  1  0
 18 24  1  0
 18 20  1  0
 19 25  1  0
 20 19  1  0
 21 20  2  0
 22 23  1  0
 22 16  2  0
 23 18  2  0
 24 17  1  0
 25 15  1  0
 27 29  2  0
 28 27  1  0
 30 28  1  0
 31 40  2  0
 31 36  1  0
 32 28  1  0
 32 36  1  0
 33 32  1  0
 34 35  1  0
 34 33  1  0
 35 31  1  0
 36 37  2  0
 37 38  1  0
 39 38  2  0
 40 39  1  0
 41 15  1  0
 41 42  1  0
 41 51  1  0
 42 45  1  0
 43 47  1  0
 43 42  1  0
 44 43  2  0
 47 46  1  0
 49 47  1  0
 49 50  1  0
 49 48  1  0
 51 54  1  1
 51 52  1  0
 53 51  1  0
 56 55  1  0
 56 57  1  0
 58 57  1  0
 59 64  1  0
 60 61  1  0
 60 59  1  0
 62 61  1  0
 62 69  1  0
 62 63  1  0
 64 58  1  0
 64 63  1  0
 65 58  2  0
 66 67  2  0
 67 86  1  0
 68 67  1  0
 68 71  1  0
 69 66  1  0
 69 70  1  0
 70 68  2  0
 71 72  1  0
 72 73  2  0
 74 77  1  0
 74 73  1  0
 75 74  2  0
 76 75  1  0
 76 71  2  0
 77 78  1  0
 78 79  1  0
 79 80  2  0
 81 80  1  0
 81 85  1  0
 82 81  2  0
 83 78  2  0
 83 82  1  0
 84 83  1  0
 86 87  1  0
 87 90  1  0
 87 89  1  0
 88 86  2  0
 91 92  1  0
 91 66  1  0
 93 91  1  0
M  ISO  4  13 101  14 101  57 100  58 100
M  END
>  <TORSDO>  (30) 
F 21

>  <SCORE>  (30) 
-13.416

>  <name>  (30) 
29

>  <ligand_id>  (30) 
29

>  <original_smiles>  (30) 
[H]c1c([H])c([H])c2c(c1[H])C([H])([H])C([H])([H])C([H])([H])C2([H])N([H])C(=O)C1([H])N(C(=O)C([H])(N([H])C(=O)C([H])(N([H])C([H])([H])[H])C([H])([H])[H])C(C([H])([H])[H])(C([H])([H])[H])C([H])([H])[H])C([H])([H])c2c([H])c(OC([H])([H])C([H])([H])N3C(=O)C([H])([H])C4(C3([H])[H])C([H])([H])C([H])([H])[N+]([H])(C([H])([H])C([H])([H])C([H])([H])C(=O)N3C([H])([H])C([H])([H])C([H])([H])C([H])(n5nc(-c6c([H])c([H])c(Oc7c([H])c([H])c(F)c([H])c7F)c([H])c6[H])c(C(=O)N([H])[H])c5N([H])[H])C3([H])[H])C4([H])[H])c([H])c([H])c2C1([H])[H]

>  <smiles>  (30) 
[H]c1c([H])c([H])c2c(c1[H])C([H])([H])C([H])([H])C([H])([H])C2([H])N([H])C(=O)C1([H])N(C(=O)C([H])(N([H])C(=O)C([H])(N([H])C([H])([H])[H])C([H])([H])[H])C(C([H])([H])[H])(C([H])([H])[H])C([H])([H])[H])C([H])([H])c2c([H])c(OC([H])([H])C([H])([H])N3C(=O)C([H])([H])C4(C3([H])[H])C([H])([H])C([H])([H])[N+]([H])(C([H])([H])C([H])([H])C([H])([H])C(=O)N3C([H])([H])C([H])([H])C([H])([H])C([H])(n5nc(-c6c([H])c([H])c(Oc7c([H])c([H])c(F)c([H])c7F)c([H])c6[H])c(C(=O)N([H])[H])c5N([H])[H])C3([H])[H])C4([H])[H])c([H])c([H])c2C1([H])[H]

$$$$
30:0:0
     RDKit          3D

 88 96  0  0  1  0  0  0  0  0999 V2000
  -28.7880  -21.9150   20.1570 C   0  0  0  0  0  2  0  0  0  0  0  0
  -31.3100  -20.4450   21.8870 C   0  0  0  0  0  2  0  0  0  0  0  0
  -30.0890  -19.5260   22.0310 C   0  0  0  0  0  2  0  0  0  0  0  0
  -31.1700  -21.1180   20.5110 C   0  0  0  0  0  2  0  0  0  0  0  0
  -29.5890  -19.3150   20.5950 C   0  0  0  0  0  3  0  0  0  0  0  0
  -29.8390  -20.7450   19.9800 N   0  0  1  0  0  4  0  0  0  0  0  0
  -29.9370  -20.6310   18.9810 H   0  0  0  0  0  0  0  0  0  0  0  0
  -30.3250  -17.9280   20.0010 C   0  0  0  0  0  3  0  0  0  0  0  0
  -29.9780  -16.3820   20.5390 C   0  0  0  0  0  3  0  0  0  0  0  0
  -30.8050  -15.0110   20.1640 C   0  0  0  0  0  0  0  0  0  0  0  0
  -30.6550  -12.6930   19.1640 C   0  0  0  0  0  2  0  0  0  0  0  0
  -29.7000  -12.7300   17.9470 C   0  0  0  0  0  2  0  0  0  0  0  0
  -28.2370  -12.5370   18.3940 C   0  0  0  0  0  2  0  0  0  0  0  0
  -27.8670  -13.4310   19.6070 C   0  0  0  0  0  3  0  0  0  0  0  0
  -28.9390  -13.3690   20.7160 C   0  0  0  0  0  2  0  0  0  0  0  0
  -30.2240  -13.7500   20.1170 N   0  0  0  0  0  0  0  0  0  0  0  0
  -31.9820  -15.1100   19.7970 O   0  0  0  0  0  0  0  0  0  0  0  0
  -25.4960  -14.0230   20.3770 C   0  0  0  0  0  0  0  0  0  0  0  0
  -24.4320  -13.2520   20.7540 C   0  0  0  0  0  0  0  0  0  0  0  0
  -24.8880  -11.8990   20.7110 C   0  0  0  0  0  0  0  0  0  0  0  0
  -26.5310  -13.1410   20.1180 N   0  0  0  0  0  0  0  0  0  0  0  0
  -26.1740  -11.8580   20.3840 N   0  0  0  0  0  0  0  0  0  0  0  0
  -24.1590  -10.6380   20.9050 C   0  0  0  0  0  0  0  0  0  0  0  0
  -24.5600   -9.6940   21.8760 C   0  0  0  0  0  3  0  0  0  0  0  0
  -23.8270   -8.5000   22.0570 C   0  0  0  0  0  3  0  0  0  0  0  0
  -22.6830   -8.2410   21.2630 C   0  0  0  0  0  0  0  0  0  0  0  0
  -22.3040   -9.1750   20.2830 C   0  0  0  0  0  3  0  0  0  0  0  0
  -23.0360  -10.3600   20.1010 C   0  0  0  0  0  3  0  0  0  0  0  0
  -21.9260   -7.0980   21.3500 O   0  0  0  0  0  0  0  0  0  0  0  0
  -21.7790   -6.4210   22.5330 C   0  0  0  0  0  0  0  0  0  0  0  0
  -21.2230   -7.0350   23.6780 C   0  0  0  0  0  3  0  0  0  0  0  0
  -21.0220   -6.2840   24.8530 C   0  0  0  0  0  3  0  0  0  0  0  0
  -21.3680   -4.9200   24.8840 C   0  0  0  0  0  0  0  0  0  0  0  0
  -21.9190   -4.3050   23.7450 C   0  0  0  0  0  3  0  0  0  0  0  0
  -22.1190   -5.0530   22.5720 C   0  0  0  0  0  0  0  0  0  0  0  0
  -22.6290   -4.4500   21.4710 F   0  0  0  0  0  0  0  0  0  0  0  0
  -21.1690   -4.1970   26.0110 F   0  0  0  0  0  0  0  0  0  0  0  0
  -23.0400  -13.7340   21.0410 C   0  0  0  0  0  0  0  0  0  0  0  0
  -22.3260  -13.0500   21.9280 N   0  0  0  0  0  0  0  0  0  0  0  0
  -22.5950  -14.7540   20.5150 O   0  0  0  0  0  0  0  0  0  0  0  0
  -22.7060  -12.2290   22.3770 H   0  0  0  0  0  0  0  0  0  0  0  0
  -21.3930  -13.3540   22.1650 H   0  0  0  0  0  0  0  0  0  0  0  0
  -25.6630  -15.3960   20.2080 N   0  0  0  0  0  0  0  0  0  0  0  0
  -24.8960  -16.0480   20.3330 H   0  0  0  0  0  0  0  0  0  0  0  0
  -26.5070  -15.8350   19.8680 H   0  0  0  0  0  0  0  0  0  0  0  0
  -29.1840  -23.5460   20.1690 C   0  0  0  0  0  3  0  0  0  0  0  0
  -28.0790  -24.7870   20.0310 C   0  0  0  0  0  3  0  0  0  0  0  0
  -28.3440  -26.3010   20.1830 O   0  0  0  0  0  0  0  0  0  0  0  0
  -24.6530  -31.8990   23.1900 C   0  0  0  0  0  0  0  0  0  0  0  0
  -27.2670  -27.2490   20.1280 C   0  0  0  0  0  0  0  0  0  0  0  0
  -23.4620  -30.5070   21.5400 C   0  0  0  0  0  3  0  0  0  0  0  0
  -24.9200  -28.9540   20.1090 C   0  0  0  0  0  0  0  0  0  0  0  0
  -26.0130  -30.7950   21.3800 C   0  0  0  0  0  2  0  0  0  0  0  0
  -26.0960  -29.4120   20.7180 C   0  0  0  0  0  0  0  0  0  0  0  0
  -27.2710  -28.5760   20.7100 C   0  0  0  0  0  3  0  0  0  0  0  0
  -26.0610  -26.8820   19.4880 C   0  0  0  0  0  3  0  0  0  0  0  0
  -24.9130  -27.7010   19.4810 C   0  0  0  0  0  3  0  0  0  0  0  0
  -23.6870  -29.8390   20.1590 C   0  0  0  0  0  2  0  0  0  0  0  0
  -24.7280  -31.0870   22.0920 N   0  0  0  0  0  0  0  0  0  0  0  0
  -23.5650  -32.1750   23.7180 O   0  0  0  0  0  0  0  0  0  0  0  0
  -22.7870  -29.4890   22.4940 C   0  0  0  0  0  0  0  0  0  0  0  0
  -21.4630  -29.3000   22.3500 N   0  0  0  0  0  0  0  0  0  0  0  0
  -23.4580  -28.8720   23.3260 O   0  0  0  0  0  0  0  0  0  0  0  0
  -20.9790  -29.8490   21.6520 H   0  0  0  0  0  0  0  0  0  0  0  0
  -18.0970  -28.0400   22.7890 C   0  0  0  0  0  0  0  0  0  0  0  0
  -20.6440  -28.3550   23.1110 C   0  0  0  0  0  3  0  0  0  0  0  0
  -20.7870  -26.9200   22.5530 C   0  0  0  0  0  2  0  0  0  0  0  0
  -19.7130  -26.5660   21.5170 C   0  0  0  0  0  2  0  0  0  0  0  0
  -18.3140  -26.6890   22.1280 C   0  0  0  0  0  2  0  0  0  0  0  0
  -19.1910  -28.8290   23.2350 C   0  0  0  0  0  0  0  0  0  0  0  0
  -18.9340  -30.0920   23.8120 C   0  0  0  0  0  3  0  0  0  0  0  0
  -17.6160  -30.5670   23.9480 C   0  0  0  0  0  3  0  0  0  0  0  0
  -16.5360  -29.7760   23.5180 C   0  0  0  0  0  3  0  0  0  0  0  0
  -16.7780  -28.5160   22.9450 C   0  0  0  0  0  3  0  0  0  0  0  0
  -25.9280  -32.5340   23.8240 C   0  0  0  0  0  3  0  0  0  0  0  0
  -25.6140  -33.9340   24.1500 N   0  0  0  0  0  0  0  0  0  0  0  0
  -25.9500  -34.9880   23.3950 C   0  0  0  0  0  0  0  0  0  0  0  0
  -26.6250  -34.8850   22.3670 O   0  0  0  0  0  0  0  0  0  0  0  0
  -25.0170  -34.0880   24.9490 H   0  0  0  0  0  0  0  0  0  0  0  0
  -24.2300  -36.7900   23.0310 C   0  0  0  0  0  1  0  0  0  0  0  0
  -25.4630  -36.3780   23.8520 C   0  0  0  0  0  3  0  0  0  0  0  0
  -27.5880  -37.2580   24.7110 C   0  0  0  0  0  1  0  0  0  0  0  0
  -26.4990  -37.4280   23.7530 N   0  0  0  0  0  0  0  0  0  0  0  0
  -26.0930  -38.3490   23.8960 H   0  0  0  0  0  0  0  0  0  0  0  0
  -26.4300  -31.7670   25.1090 C   0  0  1  0  0  0  0  0  0  0  0  0
  -25.3260  -31.5330   26.1660 C   0  0  0  0  0  1  0  0  0  0  0  0
  -27.0180  -30.3870   24.7320 C   0  0  0  0  0  1  0  0  0  0  0  0
  -27.5730  -32.5650   25.7810 C   0  0  0  0  0  1  0  0  0  0  0  0
  1 46  1  0
  2  3  1  0
  4  2  1  0
  5  8  1  0
  5  3  1  0
  6  1  1  0
  6  4  1  0
  6  5  1  0
  6  7  1  6
  8  9  2  0
 10  9  1  0
 11 16  1  0
 12 13  1  0
 12 11  1  0
 14 13  1  0
 14 21  1  0
 14 15  1  0
 16 10  1  0
 16 15  1  0
 17 10  2  0
 18 19  2  0
 19 38  1  0
 20 19  1  0
 20 23  1  0
 21 18  1  0
 21 22  1  0
 22 20  2  0
 23 24  1  0
 24 25  2  0
 26 29  1  0
 26 25  1  0
 27 26  2  0
 28 27  1  0
 28 23  2  0
 29 30  1  0
 30 35  2  0
 30 31  1  0
 31 32  2  0
 32 33  1  0
 33 37  1  0
 34 33  2  0
 35 34  1  0
 36 35  1  0
 38 39  1  0
 39 42  1  0
 39 41  1  0
 40 38  2  0
 43 44  1  0
 43 18  1  0
 45 43  1  0
 47 46  2  0
 47 48  1  0
 49 60  2  0
 50 48  1  0
 50 55  1  0
 51 59  1  0
 51 61  1  0
 52 58  1  0
 52 54  1  0
 53 59  1  0
 54 53  1  0
 55 54  2  0
 56 50  2  0
 57 56  1  0
 57 52  2  0
 58 51  1  0
 59 49  1  0
 61 63  2  0
 62 61  1  0
 64 62  1  0
 65 74  2  0
 65 70  1  0
 66 62  1  0
 66 70  1  0
 67 66  1  0
 68 69  1  0
 68 67  1  0
 69 65  1  0
 70 71  2  0
 71 72  1  0
 73 72  2  0
 74 73  1  0
 75 49  1  0
 75 76  1  0
 75 85  1  0
 76 79  1  0
 77 81  1  0
 77 76  1  0
 78 77  2  0
 81 80  1  0
 83 81  1  0
 83 84  1  0
 83 82  1  0
 85 88  1  1
 85 86  1  0
 87 85  1  0
M  ISO  4   9 100  10 100  47 101  48 101
M  END
>  <TORSDO>  (31) 
F 21

>  <SCORE>  (31) 
-12.824

>  <name>  (31) 
30

>  <ligand_id>  (31) 
30

>  <original_smiles>  (31) 
[H]c1c([H])c([H])c2c(c1[H])C([H])([H])C([H])([H])C([H])([H])C2([H])N([H])C(=O)C1([H])N(C(=O)C([H])(N([H])C(=O)C([H])(N([H])C([H])([H])[H])C([H])([H])[H])C(C([H])([H])[H])(C([H])([H])[H])C([H])([H])[H])C([H])([H])c2c([H])c(OC([H])([H])C([H])([H])C([H])([H])[N+]3([H])C([H])([H])C([H])([H])C([H])([H])C3([H])C([H])([H])C([H])([H])C(=O)N3C([H])([H])C([H])([H])C([H])([H])C([H])(n4nc(-c5c([H])c([H])c(Oc6c([H])c([H])c(F)c([H])c6F)c([H])c5[H])c(C(=O)N([H])[H])c4N([H])[H])C3([H])[H])c([H])c([H])c2C1([H])[H]

>  <smiles>  (31) 
[H]c1c([H])c([H])c2c(c1[H])C([H])([H])C([H])([H])C([H])([H])C2([H])N([H])C(=O)C1([H])N(C(=O)C([H])(N([H])C(=O)C([H])(N([H])C([H])([H])[H])C([H])([H])[H])C(C([H])([H])[H])(C([H])([H])[H])C([H])([H])[H])C([H])([H])c2c([H])c(OC([H])([H])C([H])([H])C([H])([H])[N+]3([H])C([H])([H])C([H])([H])C([H])([H])C3([H])C([H])([H])C([H])([H])C(=O)N3C([H])([H])C([H])([H])C([H])([H])C([H])(n4nc(-c5c([H])c([H])c(Oc6c([H])c([H])c(F)c([H])c6F)c([H])c5[H])c(C(=O)N([H])[H])c4N([H])[H])C3([H])[H])c([H])c([H])c2C1([H])[H]

$$$$
31:0:0
     RDKit          3D

 87 95  0  0  1  0  0  0  0  0999 V2000
  -30.6520  -19.6100   20.9560 C   0  0  0  0  0  3  0  0  0  0  0  0
  -29.5280  -19.0820   20.4060 C   0  0  0  0  0  0  0  0  0  0  0  0
  -30.9450  -21.0430   21.3040 C   0  0  0  0  0  0  0  0  0  0  0  0
  -28.4570  -20.4550   20.1420 C   0  0  0  0  0  2  0  0  0  0  0  0
  -28.8720  -22.2320   20.2450 C   0  0  0  0  0  3  0  0  0  0  0  0
  -30.0880  -22.0950   21.0720 N   0  0  0  0  0  0  0  0  0  0  0  0
  -31.9960  -21.3240   21.8790 O   0  0  0  0  0  0  0  0  0  0  0  0
  -30.4210  -22.9760   21.4410 H   0  0  0  0  0  0  0  0  0  0  0  0
  -29.3360  -17.2490   20.3000 C   0  0  0  0  0  2  0  0  0  0  0  0
  -30.2440  -15.6330   20.1770 C   0  0  0  0  0  0  0  0  0  0  0  0
  -30.3650  -13.1080   19.3350 C   0  0  0  0  0  2  0  0  0  0  0  0
  -29.4430  -12.7810   18.1250 C   0  0  0  0  0  2  0  0  0  0  0  0
  -28.0180  -12.4320   18.5880 C   0  0  0  0  0  2  0  0  0  0  0  0
  -27.5370  -13.4000   19.6940 C   0  0  0  0  0  3  0  0  0  0  0  0
  -28.5890  -13.6490   20.7940 C   0  0  0  0  0  2  0  0  0  0  0  0
  -29.7750  -14.2550   20.1520 N   0  0  0  0  0  0  0  0  0  0  0  0
  -31.4670  -15.6200   19.9450 O   0  0  0  0  0  0  0  0  0  0  0  0
  -25.1840  -13.9000   20.5160 C   0  0  0  0  0  0  0  0  0  0  0  0
  -24.1400  -13.1030   20.8940 C   0  0  0  0  0  0  0  0  0  0  0  0
  -24.6240  -11.7590   20.8340 C   0  0  0  0  0  0  0  0  0  0  0  0
  -26.2310  -13.0440   20.2330 N   0  0  0  0  0  0  0  0  0  0  0  0
  -25.9100  -11.7470   20.4950 N   0  0  0  0  0  0  0  0  0  0  0  0
  -23.9150  -10.4870   21.0210 C   0  0  0  0  0  0  0  0  0  0  0  0
  -24.3660   -9.5140   21.9410 C   0  0  0  0  0  3  0  0  0  0  0  0
  -23.6520   -8.3090   22.1190 C   0  0  0  0  0  3  0  0  0  0  0  0
  -22.4700   -8.0680   21.3780 C   0  0  0  0  0  0  0  0  0  0  0  0
  -22.0370   -9.0300   20.4480 C   0  0  0  0  0  3  0  0  0  0  0  0
  -22.7520  -10.2260   20.2680 C   0  0  0  0  0  3  0  0  0  0  0  0
  -21.7270   -6.9160   21.4650 O   0  0  0  0  0  0  0  0  0  0  0  0
  -21.6910   -6.1670   22.6150 C   0  0  0  0  0  0  0  0  0  0  0  0
  -21.2500   -6.7060   23.8420 C   0  0  0  0  0  3  0  0  0  0  0  0
  -21.1630   -5.8830   24.9830 C   0  0  0  0  0  3  0  0  0  0  0  0
  -21.5090   -4.5210   24.8960 C   0  0  0  0  0  0  0  0  0  0  0  0
  -21.9430   -3.9810   23.6730 C   0  0  0  0  0  3  0  0  0  0  0  0
  -22.0300   -4.8010   22.5350 C   0  0  0  0  0  0  0  0  0  0  0  0
  -22.4290   -4.2700   21.3540 F   0  0  0  0  0  0  0  0  0  0  0  0
  -21.4190   -3.7280   25.9890 F   0  0  0  0  0  0  0  0  0  0  0  0
  -22.7430  -13.5610   21.1940 C   0  0  0  0  0  0  0  0  0  0  0  0
  -22.0400  -12.8510   22.0690 N   0  0  0  0  0  0  0  0  0  0  0  0
  -22.2850  -14.5830   20.6870 O   0  0  0  0  0  0  0  0  0  0  0  0
  -22.4250  -12.0230   22.5000 H   0  0  0  0  0  0  0  0  0  0  0  0
  -21.1030  -13.1400   22.3120 H   0  0  0  0  0  0  0  0  0  0  0  0
  -25.3260  -15.2750   20.3570 N   0  0  0  0  0  0  0  0  0  0  0  0
  -24.5550  -15.9190   20.5030 H   0  0  0  0  0  0  0  0  0  0  0  0
  -26.1660  -15.7330   20.0270 H   0  0  0  0  0  0  0  0  0  0  0  0
  -27.9450  -23.9130   20.4040 C   0  0  0  0  0  2  0  0  0  0  0  0
  -28.1620  -25.6420   20.3840 O   0  0  0  0  0  0  0  0  0  0  0  0
  -24.6350  -31.9030   23.2500 C   0  0  0  0  0  0  0  0  0  0  0  0
  -27.1770  -26.8280   20.3320 C   0  0  0  0  0  0  0  0  0  0  0  0
  -23.4540  -30.4930   21.6180 C   0  0  0  0  0  3  0  0  0  0  0  0
  -24.9070  -28.8340   20.2350 C   0  0  0  0  0  0  0  0  0  0  0  0
  -26.0320  -30.6410   21.5090 C   0  0  0  0  0  2  0  0  0  0  0  0
  -26.0980  -29.2060   20.8690 C   0  0  0  0  0  0  0  0  0  0  0  0
  -27.2210  -28.2300   20.8830 C   0  0  0  0  0  3  0  0  0  0  0  0
  -25.9500  -26.6520   19.6450 C   0  0  0  0  0  3  0  0  0  0  0  0
  -24.8690  -27.5820   19.5990 C   0  0  0  0  0  3  0  0  0  0  0  0
  -23.7010  -29.7830   20.2560 C   0  0  0  0  0  2  0  0  0  0  0  0
  -24.7310  -31.0450   22.1780 N   0  0  0  0  0  0  0  0  0  0  0  0
  -23.5390  -32.2110   23.7500 O   0  0  0  0  0  0  0  0  0  0  0  0
  -22.7310  -29.5250   22.5930 C   0  0  0  0  0  0  0  0  0  0  0  0
  -21.4000  -29.3680   22.4550 N   0  0  0  0  0  0  0  0  0  0  0  0
  -23.3780  -28.9120   23.4440 O   0  0  0  0  0  0  0  0  0  0  0  0
  -20.9280  -29.9130   21.7460 H   0  0  0  0  0  0  0  0  0  0  0  0
  -18.0090  -28.1580   22.9370 C   0  0  0  0  0  0  0  0  0  0  0  0
  -20.5640  -28.4430   23.2300 C   0  0  0  0  0  3  0  0  0  0  0  0
  -20.6780  -27.0000   22.6820 C   0  0  0  0  0  2  0  0  0  0  0  0
  -19.5930  -26.6560   21.6580 C   0  0  0  0  0  2  0  0  0  0  0  0
  -18.2020  -26.8010   22.2800 C   0  0  0  0  0  2  0  0  0  0  0  0
  -19.1170  -28.9350   23.3680 C   0  0  0  0  0  0  0  0  0  0  0  0
  -18.8800  -30.2010   23.9470 C   0  0  0  0  0  3  0  0  0  0  0  0
  -17.5680  -30.6900   24.0950 C   0  0  0  0  0  3  0  0  0  0  0  0
  -16.4750  -29.9130   23.6770 C   0  0  0  0  0  3  0  0  0  0  0  0
  -16.6960  -28.6470   23.1050 C   0  0  0  0  0  3  0  0  0  0  0  0
  -25.8960  -32.5550   23.8930 C   0  0  0  0  0  3  0  0  0  0  0  0
  -25.5750  -33.9590   24.2130 N   0  0  0  0  0  0  0  0  0  0  0  0
  -25.8990  -35.0170   23.4550 C   0  0  0  0  0  0  0  0  0  0  0  0
  -26.5570  -34.9130   22.4180 O   0  0  0  0  0  0  0  0  0  0  0  0
  -24.9880  -34.1130   25.0190 H   0  0  0  0  0  0  0  0  0  0  0  0
  -24.1570  -36.8100   23.1440 C   0  0  0  0  0  1  0  0  0  0  0  0
  -25.4220  -36.4100   23.9210 C   0  0  0  0  0  3  0  0  0  0  0  0
  -27.5730  -37.3150   24.6890 C   0  0  0  0  0  1  0  0  0  0  0  0
  -26.4460  -37.4670   23.7710 N   0  0  0  0  0  0  0  0  0  0  0  0
  -26.0400  -38.3870   23.9160 H   0  0  0  0  0  0  0  0  0  0  0  0
  -26.3810  -31.8060   25.1970 C   0  0  1  0  0  0  0  0  0  0  0  0
  -25.2660  -31.5960   26.2480 C   0  0  0  0  0  1  0  0  0  0  0  0
  -26.9640  -30.4170   24.8540 C   0  0  0  0  0  1  0  0  0  0  0  0
  -27.5240  -32.6070   25.8650 C   0  0  0  0  0  1  0  0  0  0  0  0
  1  3  1  0
  2  1  2  0
  3  7  2  0
  4  5  1  0
  4  2  1  0
  5 46  1  0
  5  6  1  0
  6  3  1  0
  6  8  1  0
  9  2  1  0
 10  9  1  0
 11 16  1  0
 12 13  1  0
 12 11  1  0
 14 13  1  0
 14 21  1  0
 14 15  1  0
 16 10  1  0
 16 15  1  0
 17 10  2  0
 18 19  2  0
 19 38  1  0
 20 19  1  0
 20 23  1  0
 21 22  1  0
 21 18  1  0
 22 20  2  0
 23 24  1  0
 24 25  2  0
 26 29  1  0
 26 25  1  0
 27 26  2  0
 28 27  1  0
 28 23  2  0
 29 30  1  0
 30 31  1  0
 31 32  2  0
 33 32  1  0
 33 37  1  0
 34 33  2  0
 35 30  2  0
 35 34  1  0
 36 35  1  0
 38 39  1  0
 39 42  1  0
 39 41  1  0
 40 38  2  0
 43 44  1  0
 43 18  1  0
 45 43  1  0
 47 46  1  0
 48 59  2  0
 49 47  1  0
 49 54  1  0
 50 58  1  0
 50 60  1  0
 51 57  1  0
 51 53  1  0
 52 58  1  0
 53 54  2  0
 53 52  1  0
 55 49  2  0
 56 55  1  0
 56 51  2  0
 57 50  1  0
 58 48  1  0
 60 62  2  0
 61 60  1  0
 63 61  1  0
 64 73  2  0
 64 69  1  0
 65 61  1  0
 65 69  1  0
 66 65  1  0
 67 68  1  0
 67 66  1  0
 68 64  1  0
 69 70  2  0
 70 71  1  0
 72 71  2  0
 73 72  1  0
 74 48  1  0
 74 75  1  0
 74 84  1  0
 75 78  1  0
 76 80  1  0
 76 75  1  0
 77 76  2  0
 80 79  1  0
 82 83  1  0
 82 80  1  0
 82 81  1  0
 84 87  1  1
 84 85  1  0
 86 84  1  0
M  ISO  4   9 100  10 100  46 101  47 101
M  END
>  <TORSDO>  (32) 
F 18

>  <SCORE>  (32) 
-16.783

>  <name>  (32) 
31

>  <ligand_id>  (32) 
31

>  <original_smiles>  (32) 
[H]C1=C(C([H])([H])C(=O)N2C([H])([H])C([H])([H])C([H])([H])C([H])(n3nc(-c4c([H])c([H])c(Oc5c([H])c([H])c(F)c([H])c5F)c([H])c4[H])c(C(=O)N([H])[H])c3N([H])[H])C2([H])[H])C([H])([H])C([H])(C([H])([H])Oc2c([H])c([H])c3c(c2[H])C([H])([H])N(C(=O)C([H])(N([H])C(=O)C([H])(N([H])C([H])([H])[H])C([H])([H])[H])C(C([H])([H])[H])(C([H])([H])[H])C([H])([H])[H])C([H])(C(=O)N([H])C2([H])c4c([H])c([H])c([H])c([H])c4C([H])([H])C([H])([H])C2([H])[H])C3([H])[H])N([H])C1=O

>  <smiles>  (32) 
[H]C1=C(C([H])([H])C(=O)N2C([H])([H])C([H])([H])C([H])([H])C([H])(n3nc(-c4c([H])c([H])c(Oc5c([H])c([H])c(F)c([H])c5F)c([H])c4[H])c(C(=O)N([H])[H])c3N([H])[H])C2([H])[H])C([H])([H])C([H])(C([H])([H])Oc2c([H])c([H])c3c(c2[H])C([H])([H])N(C(=O)C([H])(N([H])C(=O)C([H])(N([H])C([H])([H])[H])C([H])([H])[H])C(C([H])([H])[H])(C([H])([H])[H])C([H])([H])[H])C([H])(C(=O)N([H])C2([H])c4c([H])c([H])c([H])c([H])c4C([H])([H])C([H])([H])C2([H])[H])C3([H])[H])N([H])C1=O

$$$$
32:0:0
     RDKit          3D

 92 99  0  0  1  0  0  0  0  0999 V2000
  -30.9020  -21.0200   20.3850 C   0  0  0  0  0  3  0  0  0  0  0  0
  -32.6560  -19.3490   20.9440 C   0  0  0  0  0  1  0  0  0  0  0  0
  -31.2760  -19.5460   20.4140 N   0  0  1  0  0  4  0  0  0  0  0  0
  -31.3100  -19.2890   19.4400 H   0  0  0  0  0  0  0  0  0  0  0  0
  -30.3460  -18.5220   21.0160 C   0  0  0  0  0  2  0  0  0  0  0  0
  -30.4810  -17.1270   20.3050 C   0  0  0  0  0  2  0  0  0  0  0  0
  -30.0880  -15.8180   21.0870 C   0  0  0  0  0  2  0  0  0  0  0  0
  -30.6950  -14.5210   20.4680 C   0  0  0  0  0  0  0  0  0  0  0  0
  -30.3500  -12.3510   19.3360 C   0  0  0  0  0  2  0  0  0  0  0  0
  -29.4230  -12.5740   18.1230 C   0  0  0  0  0  2  0  0  0  0  0  0
  -27.9430  -12.4570   18.5400 C   0  0  0  0  0  2  0  0  0  0  0  0
  -27.6120  -13.2810   19.8140 C   0  0  0  0  0  3  0  0  0  0  0  0
  -28.6710  -13.0720   20.9200 C   0  0  0  0  0  2  0  0  0  0  0  0
  -29.9940  -13.3560   20.3500 N   0  0  0  0  0  0  0  0  0  0  0  0
  -31.8280  -14.6190   19.9910 O   0  0  0  0  0  0  0  0  0  0  0  0
  -25.2120  -13.8800   20.5200 C   0  0  0  0  0  0  0  0  0  0  0  0
  -24.1440  -13.1070   20.8910 C   0  0  0  0  0  0  0  0  0  0  0  0
  -24.6060  -11.7560   20.8660 C   0  0  0  0  0  0  0  0  0  0  0  0
  -26.2590  -12.9990   20.2960 N   0  0  0  0  0  0  0  0  0  0  0  0
  -25.8980  -11.7170   20.5610 N   0  0  0  0  0  0  0  0  0  0  0  0
  -23.8760  -10.4940   21.0590 C   0  0  0  0  0  0  0  0  0  0  0  0
  -24.3180   -9.5210   21.9840 C   0  0  0  0  0  3  0  0  0  0  0  0
  -23.5900   -8.3260   22.1660 C   0  0  0  0  0  3  0  0  0  0  0  0
  -22.4070   -8.0960   21.4280 C   0  0  0  0  0  0  0  0  0  0  0  0
  -21.9830   -9.0560   20.4920 C   0  0  0  0  0  3  0  0  0  0  0  0
  -22.7120  -10.2430   20.3070 C   0  0  0  0  0  3  0  0  0  0  0  0
  -21.6490   -6.9530   21.5210 O   0  0  0  0  0  0  0  0  0  0  0  0
  -21.6250   -6.1950   22.6650 C   0  0  0  0  0  0  0  0  0  0  0  0
  -21.2480   -6.7390   23.9120 C   0  0  0  0  0  3  0  0  0  0  0  0
  -21.1720   -5.9080   25.0480 C   0  0  0  0  0  3  0  0  0  0  0  0
  -21.4620   -4.5350   24.9370 C   0  0  0  0  0  0  0  0  0  0  0  0
  -21.8290   -3.9900   23.6950 C   0  0  0  0  0  3  0  0  0  0  0  0
  -21.9080   -4.8180   22.5620 C   0  0  0  0  0  0  0  0  0  0  0  0
  -22.2440   -4.2830   21.3620 F   0  0  0  0  0  0  0  0  0  0  0  0
  -21.3790   -3.7340   26.0250 F   0  0  0  0  0  0  0  0  0  0  0  0
  -22.7460  -13.5880   21.1570 C   0  0  0  0  0  0  0  0  0  0  0  0
  -22.0150  -12.8980   22.0260 N   0  0  0  0  0  0  0  0  0  0  0  0
  -22.3100  -14.6110   20.6300 O   0  0  0  0  0  0  0  0  0  0  0  0
  -22.3760  -12.0720   22.4790 H   0  0  0  0  0  0  0  0  0  0  0  0
  -21.0750  -13.2010   22.2440 H   0  0  0  0  0  0  0  0  0  0  0  0
  -25.3720  -15.2480   20.3370 N   0  0  0  0  0  0  0  0  0  0  0  0
  -24.5990  -15.8960   20.4500 H   0  0  0  0  0  0  0  0  0  0  0  0
  -26.2240  -15.6950   20.0220 H   0  0  0  0  0  0  0  0  0  0  0  0
  -31.8060  -21.7970   19.3720 C   0  0  0  0  0  2  0  0  0  0  0  0
  -30.8100  -21.1600   17.0700 C   0  0  0  0  0  1  0  0  0  0  0  0
  -33.2110  -21.8910   17.2660 C   0  0  0  0  0  1  0  0  0  0  0  0
  -32.0530  -21.1680   17.9730 C   0  0  0  0  0  3  0  0  0  0  0  0
  -29.3770  -21.3430   20.2410 C   0  0  0  0  0  2  0  0  0  0  0  0
  -28.8820  -22.7180   19.6660 C   0  0  0  0  0  2  0  0  0  0  0  0
  -29.1230  -24.0860   20.3940 C   0  0  0  0  0  2  0  0  0  0  0  0
  -28.1770  -25.1790   19.8000 C   0  0  0  0  0  2  0  0  0  0  0  0
  -28.3210  -26.5670   20.2130 O   0  0  0  0  0  0  0  0  0  0  0  0
  -24.5990  -31.8820   23.2430 C   0  0  0  0  0  0  0  0  0  0  0  0
  -27.1840  -27.3740   20.1470 C   0  0  0  0  0  0  0  0  0  0  0  0
  -23.3790  -30.4910   21.6100 C   0  0  0  0  0  3  0  0  0  0  0  0
  -24.8150  -28.9550   20.1670 C   0  0  0  0  0  0  0  0  0  0  0  0
  -25.9120  -30.8160   21.4040 C   0  0  0  0  0  2  0  0  0  0  0  0
  -25.9850  -29.4450   20.7590 C   0  0  0  0  0  0  0  0  0  0  0  0
  -27.1710  -28.6630   20.7470 C   0  0  0  0  0  3  0  0  0  0  0  0
  -25.9920  -26.9390   19.5120 C   0  0  0  0  0  3  0  0  0  0  0  0
  -24.8190  -27.7060   19.5350 C   0  0  0  0  0  3  0  0  0  0  0  0
  -23.5790  -29.8230   20.2250 C   0  0  0  0  0  2  0  0  0  0  0  0
  -24.6500  -31.0770   22.1440 N   0  0  0  0  0  0  0  0  0  0  0  0
  -23.5210  -32.1600   23.7860 O   0  0  0  0  0  0  0  0  0  0  0  0
  -22.7250  -29.4690   22.5700 C   0  0  0  0  0  0  0  0  0  0  0  0
  -21.3980  -29.2940   22.4500 N   0  0  0  0  0  0  0  0  0  0  0  0
  -23.4080  -28.8390   23.3820 O   0  0  0  0  0  0  0  0  0  0  0  0
  -20.9110  -29.8520   21.7630 H   0  0  0  0  0  0  0  0  0  0  0  0
  -18.0180  -28.1100   22.9560 C   0  0  0  0  0  0  0  0  0  0  0  0
  -20.5780  -28.3610   23.2230 C   0  0  0  0  0  3  0  0  0  0  0  0
  -20.6760  -26.9290   22.6500 C   0  0  0  0  0  2  0  0  0  0  0  0
  -19.5720  -26.6060   21.6390 C   0  0  0  0  0  2  0  0  0  0  0  0
  -18.1910  -26.7570   22.2840 C   0  0  0  0  0  2  0  0  0  0  0  0
  -19.1410  -28.8690   23.3820 C   0  0  0  0  0  0  0  0  0  0  0  0
  -18.9270  -30.1350   23.9700 C   0  0  0  0  0  3  0  0  0  0  0  0
  -17.6250  -30.6410   24.1370 C   0  0  0  0  0  3  0  0  0  0  0  0
  -16.5180  -29.8790   23.7280 C   0  0  0  0  0  3  0  0  0  0  0  0
  -16.7140  -28.6160   23.1430 C   0  0  0  0  0  3  0  0  0  0  0  0
  -25.8900  -32.5100   23.8540 C   0  0  0  0  0  3  0  0  0  0  0  0
  -26.4130  -31.7330   25.1240 C   0  0  1  0  0  0  0  0  0  0  0  0
  -25.3270  -31.4920   26.1990 C   0  0  0  0  0  1  0  0  0  0  0  0
  -26.9870  -30.3560   24.7190 C   0  0  0  0  0  1  0  0  0  0  0  0
  -27.5740  -32.5200   25.7770 C   0  0  0  0  0  1  0  0  0  0  0  0
  -25.5860  -33.9080   24.1940 N   0  0  0  0  0  0  0  0  0  0  0  0
  -25.9090  -34.9620   23.4320 C   0  0  0  0  0  0  0  0  0  0  0  0
  -26.5670  -34.8610   22.3930 O   0  0  0  0  0  0  0  0  0  0  0  0
  -25.0050  -34.0600   25.0060 H   0  0  0  0  0  0  0  0  0  0  0  0
  -24.1760  -36.7530   23.0990 C   0  0  0  0  0  1  0  0  0  0  0  0
  -25.4260  -36.3510   23.8980 C   0  0  0  0  0  3  0  0  0  0  0  0
  -27.5720  -37.2280   24.7040 C   0  0  0  0  0  1  0  0  0  0  0  0
  -26.4580  -37.4040   23.7760 N   0  0  0  0  0  0  0  0  0  0  0  0
  -26.0540  -38.3240   23.9350 H   0  0  0  0  0  0  0  0  0  0  0  0
  1 44  1  0
  1  3  1  0
  3  2  1  0
  3  5  1  0
  3  4  1  6
  6  5  1  0
  6  7  1  0
  8  7  1  0
  9 14  1  0
 10 11  1  0
 10  9  1  0
 12 11  1  0
 12 19  1  0
 12 13  1  0
 14  8  1  0
 14 13  1  0
 15  8  2  0
 16 17  2  0
 17 36  1  0
 18 17  1  0
 18 21  1  0
 19 16  1  0
 19 20  1  0
 20 18  2  0
 21 22  1  0
 22 23  2  0
 24 27  1  0
 24 23  1  0
 25 24  2  0
 26 25  1  0
 26 21  2  0
 27 28  1  0
 28 29  1  0
 29 30  2  0
 31 30  1  0
 31 35  1  0
 32 31  2  0
 33 28  2  0
 33 32  1  0
 34 33  1  0
 36 37  1  0
 37 40  1  0
 37 39  1  0
 38 36  2  0
 41 42  1  0
 41 16  1  0
 43 41  1  0
 45 47  1  0
 46 47  1  0
 47 44  1  0
 48  1  1  0
 49 48  1  0
 49 50  1  0
 51 52  1  0
 51 50  1  0
 53 64  2  0
 54 52  1  0
 54 59  1  0
 55 63  1  0
 55 65  1  0
 56 62  1  0
 56 58  1  0
 57 63  1  0
 58 57  1  0
 59 58  2  0
 60 61  1  0
 60 54  2  0
 61 56  2  0
 62 55  1  0
 63 53  1  0
 65 67  2  0
 66 65  1  0
 68 66  1  0
 69 78  2  0
 69 74  1  0
 70 66  1  0
 70 74  1  0
 71 70  1  0
 72 73  1  0
 72 71  1  0
 73 69  1  0
 74 75  2  0
 75 76  1  0
 77 76  2  0
 78 77  1  0
 79 53  1  0
 79 84  1  0
 79 80  1  0
 80 83  1  1
 80 81  1  0
 82 80  1  0
 84 87  1  0
 85 89  1  0
 85 84  1  0
 86 85  2  0
 89 88  1  0
 91 89  1  0
 91 92  1  0
 91 90  1  0
M  ISO  4   7 100   8 100  51 101  52 101
M  END
>  <TORSDO>  (33) 
F 26

>  <SCORE>  (33) 
-11.903

>  <name>  (33) 
32

>  <ligand_id>  (33) 
32

>  <original_smiles>  (33) 
[H]c1c([H])c([H])c2c(c1[H])C([H])([H])C([H])([H])C([H])([H])C2([H])N([H])C(=O)C1([H])N(C(=O)C([H])(N([H])C(=O)C([H])(N([H])C([H])([H])[H])C([H])([H])[H])C(C([H])([H])[H])(C([H])([H])[H])C([H])([H])[H])C([H])([H])c2c([H])c(OC([H])([H])C([H])([H])C([H])([H])C([H])([H])C([H])(C([H])([H])C([H])(C([H])([H])[H])C([H])([H])[H])[N+]([H])(C([H])([H])[H])C([H])([H])C([H])([H])C([H])([H])C(=O)N3C([H])([H])C([H])([H])C([H])([H])C([H])(n4nc(-c5c([H])c([H])c(Oc6c([H])c([H])c(F)c([H])c6F)c([H])c5[H])c(C(=O)N([H])[H])c4N([H])[H])C3([H])[H])c([H])c([H])c2C1([H])[H]

>  <smiles>  (33) 
[H]c1c([H])c([H])c2c(c1[H])C([H])([H])C([H])([H])C([H])([H])C2([H])N([H])C(=O)C1([H])N(C(=O)C([H])(N([H])C(=O)C([H])(N([H])C([H])([H])[H])C([H])([H])[H])C(C([H])([H])[H])(C([H])([H])[H])C([H])([H])[H])C([H])([H])c2c([H])c(OC([H])([H])C([H])([H])C([H])([H])C([H])([H])C([H])(C([H])([H])C([H])(C([H])([H])[H])C([H])([H])[H])[N+]([H])(C([H])([H])[H])C([H])([H])C([H])([H])C([H])([H])C(=O)N3C([H])([H])C([H])([H])C([H])([H])C([H])(n4nc(-c5c([H])c([H])c(Oc6c([H])c([H])c(F)c([H])c6F)c([H])c5[H])c(C(=O)N([H])[H])c4N([H])[H])C3([H])[H])c([H])c([H])c2C1([H])[H]

$$$$
33:0:0
     RDKit          3D

 92 99  0  0  1  0  0  0  0  0999 V2000
  -28.8090  -21.2550   22.7890 C   0  0  0  0  0  1  0  0  0  0  0  0
  -29.3270  -21.1220   21.4010 N   0  0  2  0  0  4  0  0  0  0  0  0
  -28.5390  -20.8030   20.8550 H   0  0  0  0  0  0  0  0  0  0  0  0
  -30.3510  -20.0120   21.3060 C   0  0  0  0  0  3  0  0  0  0  0  0
  -31.7500  -20.5170   20.8170 C   0  0  0  0  0  2  0  0  0  0  0  0
  -33.1340  -19.3830   22.6810 C   0  0  0  0  0  1  0  0  0  0  0  0
  -34.2760  -20.4340   20.7020 C   0  0  0  0  0  1  0  0  0  0  0  0
  -33.0120  -19.6950   21.1780 C   0  0  0  0  0  3  0  0  0  0  0  0
  -29.7680  -18.7700   20.5540 C   0  0  0  0  0  2  0  0  0  0  0  0
  -30.6190  -17.4600   20.5820 C   0  0  0  0  0  3  0  0  0  0  0  0
  -29.8370  -16.1430   20.2790 C   0  0  0  0  0  3  0  0  0  0  0  0
  -30.6880  -14.8740   19.9710 C   0  0  0  0  0  0  0  0  0  0  0  0
  -30.4910  -12.6160   18.9930 C   0  0  0  0  0  2  0  0  0  0  0  0
  -29.5150  -12.7120   17.7990 C   0  0  0  0  0  2  0  0  0  0  0  0
  -28.0510  -12.5600   18.2620 C   0  0  0  0  0  2  0  0  0  0  0  0
  -27.7140  -13.4480   19.4880 C   0  0  0  0  0  3  0  0  0  0  0  0
  -28.8020  -13.3150   20.5750 C   0  0  0  0  0  2  0  0  0  0  0  0
  -30.0980  -13.6460   19.9690 N   0  0  0  0  0  0  0  0  0  0  0  0
  -31.8300  -15.0430   19.5330 O   0  0  0  0  0  0  0  0  0  0  0  0
  -25.3320  -14.0270   20.2740 C   0  0  0  0  0  0  0  0  0  0  0  0
  -24.2880  -13.2410   20.6830 C   0  0  0  0  0  0  0  0  0  0  0  0
  -24.7680  -11.8970   20.6450 C   0  0  0  0  0  0  0  0  0  0  0  0
  -26.3810  -13.1590   20.0150 N   0  0  0  0  0  0  0  0  0  0  0  0
  -26.0470  -11.8740   20.2930 N   0  0  0  0  0  0  0  0  0  0  0  0
  -24.0670  -10.6250   20.8670 C   0  0  0  0  0  0  0  0  0  0  0  0
  -24.4590   -9.7350   21.8910 C   0  0  0  0  0  3  0  0  0  0  0  0
  -23.7560   -8.5290   22.0980 C   0  0  0  0  0  3  0  0  0  0  0  0
  -22.6490   -8.2020   21.2810 C   0  0  0  0  0  0  0  0  0  0  0  0
  -22.2790   -9.0810   20.2460 C   0  0  0  0  0  3  0  0  0  0  0  0
  -22.9810  -10.2800   20.0380 C   0  0  0  0  0  3  0  0  0  0  0  0
  -21.9250   -7.0390   21.3910 O   0  0  0  0  0  0  0  0  0  0  0  0
  -21.7150   -6.4350   22.6050 C   0  0  0  0  0  0  0  0  0  0  0  0
  -21.0680   -7.1040   23.6660 C   0  0  0  0  0  3  0  0  0  0  0  0
  -20.8070   -6.4250   24.8730 C   0  0  0  0  0  3  0  0  0  0  0  0
  -21.1820   -5.0750   25.0170 C   0  0  0  0  0  0  0  0  0  0  0  0
  -21.8220   -4.4040   23.9590 C   0  0  0  0  0  3  0  0  0  0  0  0
  -22.0830   -5.0830   22.7550 C   0  0  0  0  0  0  0  0  0  0  0  0
  -22.6790   -4.4240   21.7310 F   0  0  0  0  0  0  0  0  0  0  0  0
  -20.9250   -4.4200   26.1730 F   0  0  0  0  0  0  0  0  0  0  0  0
  -22.8930  -13.6990   20.9980 C   0  0  0  0  0  0  0  0  0  0  0  0
  -22.2080  -13.0010   21.8980 N   0  0  0  0  0  0  0  0  0  0  0  0
  -22.4180  -14.7090   20.4810 O   0  0  0  0  0  0  0  0  0  0  0  0
  -22.6070  -12.1810   22.3330 H   0  0  0  0  0  0  0  0  0  0  0  0
  -21.2740  -13.2860   22.1530 H   0  0  0  0  0  0  0  0  0  0  0  0
  -25.4720  -15.3990   20.0790 N   0  0  0  0  0  0  0  0  0  0  0  0
  -24.7040  -16.0460   20.2070 H   0  0  0  0  0  0  0  0  0  0  0  0
  -26.3100  -15.8440   19.7260 H   0  0  0  0  0  0  0  0  0  0  0  0
  -29.6930  -22.4630   20.8290 C   0  0  0  0  0  2  0  0  0  0  0  0
  -28.4740  -23.3580   20.4680 C   0  0  0  0  0  2  0  0  0  0  0  0
  -28.8210  -24.8230   20.0710 C   0  0  0  0  0  2  0  0  0  0  0  0
  -27.5670  -25.6170   19.6480 C   0  0  0  0  0  2  0  0  0  0  0  0
  -27.7840  -27.0220   19.4080 O   0  0  0  0  0  0  0  0  0  0  0  0
  -24.6440  -31.9990   23.4240 C   0  0  0  0  0  0  0  0  0  0  0  0
  -26.6710  -27.8300   19.5790 C   0  0  0  0  0  0  0  0  0  0  0  0
  -23.1860  -30.8310   21.8070 C   0  0  0  0  0  3  0  0  0  0  0  0
  -24.3780  -29.4270   20.0460 C   0  0  0  0  0  0  0  0  0  0  0  0
  -25.6830  -31.1220   21.3330 C   0  0  0  0  0  2  0  0  0  0  0  0
  -25.6250  -29.8320   20.5390 C   0  0  0  0  0  0  0  0  0  0  0  0
  -26.7750  -29.0440   20.3010 C   0  0  0  0  0  3  0  0  0  0  0  0
  -25.4030  -27.4600   19.0660 C   0  0  0  0  0  3  0  0  0  0  0  0
  -24.2610  -28.2430   19.3040 C   0  0  0  0  0  3  0  0  0  0  0  0
  -23.1920  -30.3150   20.3450 C   0  0  0  0  0  2  0  0  0  0  0  0
  -24.5310  -31.3240   22.2450 N   0  0  0  0  0  0  0  0  0  0  0  0
  -23.6490  -32.2440   24.1200 O   0  0  0  0  0  0  0  0  0  0  0  0
  -22.6090  -29.7260   22.7210 C   0  0  0  0  0  0  0  0  0  0  0  0
  -21.3050  -29.4420   22.5690 N   0  0  0  0  0  0  0  0  0  0  0  0
  -23.3310  -29.1310   23.5270 O   0  0  0  0  0  0  0  0  0  0  0  0
  -20.7820  -29.9800   21.8930 H   0  0  0  0  0  0  0  0  0  0  0  0
  -18.1060  -27.7780   22.7890 C   0  0  0  0  0  0  0  0  0  0  0  0
  -20.5560  -28.4180   23.2970 C   0  0  0  0  0  3  0  0  0  0  0  0
  -20.9240  -27.0020   22.7970 C   0  0  0  0  0  2  0  0  0  0  0  0
  -19.9900  -26.4900   21.6970 C   0  0  0  0  0  2  0  0  0  0  0  0
  -18.5430  -26.4500   22.1960 C   0  0  0  0  0  2  0  0  0  0  0  0
  -19.0520  -28.7090   23.2920 C   0  0  0  0  0  0  0  0  0  0  0  0
  -18.5950  -29.9450   23.7990 C   0  0  0  0  0  3  0  0  0  0  0  0
  -17.2230  -30.2550   23.8110 C   0  0  0  0  0  3  0  0  0  0  0  0
  -16.2870  -29.3220   23.3280 C   0  0  0  0  0  3  0  0  0  0  0  0
  -16.7300  -28.0860   22.8230 C   0  0  0  0  0  3  0  0  0  0  0  0
  -26.0250  -32.5130   23.9400 C   0  0  0  0  0  3  0  0  0  0  0  0
  -26.6270  -31.6230   25.0970 C   0  0  1  0  0  0  0  0  0  0  0  0
  -25.6280  -31.3310   26.2420 C   0  0  0  0  0  1  0  0  0  0  0  0
  -27.1130  -30.2640   24.5400 C   0  0  0  0  0  1  0  0  0  0  0  0
  -27.8650  -32.3190   25.7040 C   0  0  0  0  0  1  0  0  0  0  0  0
  -25.8410  -33.8980   24.3930 N   0  0  0  0  0  0  0  0  0  0  0  0
  -26.2270  -34.9800   23.7030 C   0  0  0  0  0  0  0  0  0  0  0  0
  -26.8510  -34.9100   22.6410 O   0  0  0  0  0  0  0  0  0  0  0  0
  -25.2880  -34.0300   25.2260 H   0  0  0  0  0  0  0  0  0  0  0  0
  -24.6410  -36.9260   23.5430 C   0  0  0  0  0  1  0  0  0  0  0  0
  -25.8620  -36.3600   24.2860 C   0  0  0  0  0  3  0  0  0  0  0  0
  -28.0810  -36.9950   25.1220 C   0  0  0  0  0  1  0  0  0  0  0  0
  -26.9740  -37.3320   24.2300 N   0  0  0  0  0  0  0  0  0  0  0  0
  -26.6490  -38.2660   24.4690 H   0  0  0  0  0  0  0  0  0  0  0  0
  2  1  1  0
  2  3  1  6
  4  9  1  0
  4  2  1  0
  5  8  1  0
  5  4  1  0
  7  8  1  0
  8  6  1  0
  9 10  1  0
 11 10  2  0
 12 11  1  0
 13 18  1  0
 14 15  1  0
 14 13  1  0
 16 15  1  0
 16 23  1  0
 16 17  1  0
 18 12  1  0
 18 17  1  0
 19 12  2  0
 20 21  2  0
 21 40  1  0
 22 21  1  0
 22 25  1  0
 23 20  1  0
 23 24  1  0
 24 22  2  0
 25 26  1  0
 26 27  2  0
 28 31  1  0
 28 27  1  0
 29 28  2  0
 30 29  1  0
 30 25  2  0
 31 32  1  0
 32 37  2  0
 32 33  1  0
 33 34  2  0
 34 35  1  0
 35 39  1  0
 36 35  2  0
 37 36  1  0
 38 37  1  0
 40 41  1  0
 41 44  1  0
 41 43  1  0
 42 40  2  0
 45 46  1  0
 45 20  1  0
 47 45  1  0
 48  2  1  0
 49 48  1  0
 50 49  1  0
 51 50  1  0
 52 54  1  0
 52 51  1  0
 53 64  2  0
 54 59  1  0
 55 63  1  0
 55 65  1  0
 56 62  1  0
 56 58  1  0
 57 63  1  0
 58 57  1  0
 59 58  2  0
 60 61  1  0
 60 54  2  0
 61 56  2  0
 62 55  1  0
 63 53  1  0
 65 67  2  0
 66 65  1  0
 68 66  1  0
 69 78  2  0
 69 74  1  0
 70 66  1  0
 71 70  1  0
 72 73  1  0
 72 71  1  0
 73 69  1  0
 74 70  1  0
 74 75  2  0
 75 76  1  0
 77 76  2  0
 78 77  1  0
 79 53  1  0
 79 84  1  0
 79 80  1  0
 80 83  1  1
 80 81  1  0
 82 80  1  0
 84 87  1  0
 85 89  1  0
 85 84  1  0
 86 85  2  0
 89 88  1  0
 91 89  1  0
 91 92  1  0
 91 90  1  0
M  ISO  4  11 100  12 100  51 101  52 101
M  END
>  <TORSDO>  (34) 
F 26

>  <SCORE>  (34) 
-10.029

>  <name>  (34) 
33

>  <ligand_id>  (34) 
33

>  <original_smiles>  (34) 
[H]c1c([H])c([H])c2c(c1[H])C([H])([H])C([H])([H])C([H])([H])C2([H])N([H])C(=O)C1([H])N(C(=O)C([H])(N([H])C(=O)C([H])(N([H])C([H])([H])[H])C([H])([H])[H])C(C([H])([H])[H])(C([H])([H])[H])C([H])([H])[H])C([H])([H])c2c([H])c(OC([H])([H])C([H])([H])C([H])([H])C([H])([H])[N+]([H])(C([H])([H])[H])C([H])(C([H])([H])C([H])([H])C([H])([H])C(=O)N3C([H])([H])C([H])([H])C([H])([H])C([H])(n4nc(-c5c([H])c([H])c(Oc6c([H])c([H])c(F)c([H])c6F)c([H])c5[H])c(C(=O)N([H])[H])c4N([H])[H])C3([H])[H])C([H])([H])C([H])(C([H])([H])[H])C([H])([H])[H])c([H])c([H])c2C1([H])[H]

>  <smiles>  (34) 
[H]c1c([H])c([H])c2c(c1[H])C([H])([H])C([H])([H])C([H])([H])C2([H])N([H])C(=O)C1([H])N(C(=O)C([H])(N([H])C(=O)C([H])(N([H])C([H])([H])[H])C([H])([H])[H])C(C([H])([H])[H])(C([H])([H])[H])C([H])([H])[H])C([H])([H])c2c([H])c(OC([H])([H])C([H])([H])C([H])([H])C([H])([H])[N+]([H])(C([H])([H])[H])C([H])(C([H])([H])C([H])([H])C([H])([H])C(=O)N3C([H])([H])C([H])([H])C([H])([H])C([H])(n4nc(-c5c([H])c([H])c(Oc6c([H])c([H])c(F)c([H])c6F)c([H])c5[H])c(C(=O)N([H])[H])c4N([H])[H])C3([H])[H])C([H])([H])C([H])(C([H])([H])[H])C([H])([H])[H])c([H])c([H])c2C1([H])[H]

$$$$
34:0:0
     RDKit          3D

 91 99  0  0  1  0  0  0  0  0999 V2000
  -31.9080  -23.8130   22.1190 C   0  0  0  0  0  1  0  0  0  0  0  0
  -30.9280  -22.9090   21.4990 N   0  0  0  0  0  0  0  0  0  0  0  0
  -32.2130  -20.9350   22.3540 C   0  0  0  0  0  2  0  0  0  0  0  0
  -31.8780  -19.4500   22.3450 C   0  0  0  0  0  2  0  0  0  0  0  0
  -29.9030  -20.5740   21.6820 C   0  0  0  0  0  2  0  0  0  0  0  0
  -30.8490  -21.6540   22.2790 C   0  0  0  0  0  3  0  0  0  0  0  0
  -30.7020  -19.3460   21.4650 N   0  0  2  0  0  4  0  0  0  0  0  0
  -31.0430  -19.4210   20.5180 H   0  0  0  0  0  0  0  0  0  0  0  0
  -29.9420  -18.0750   21.5780 C   0  0  0  0  0  2  0  0  0  0  0  0
  -30.6950  -16.8910   20.9400 C   0  0  0  0  0  2  0  0  0  0  0  0
  -29.9590  -15.5370   21.0720 C   0  0  0  0  0  2  0  0  0  0  0  0
  -30.5450  -14.4320   20.1710 C   0  0  0  0  0  0  0  0  0  0  0  0
  -30.1780  -12.3370   18.9170 C   0  0  0  0  0  2  0  0  0  0  0  0
  -29.1720  -12.5830   17.7750 C   0  0  0  0  0  2  0  0  0  0  0  0
  -27.7250  -12.4220   18.2790 C   0  0  0  0  0  2  0  0  0  0  0  0
  -27.4530  -13.2170   19.5840 C   0  0  0  0  0  3  0  0  0  0  0  0
  -28.5650  -12.9590   20.6260 C   0  0  0  0  0  2  0  0  0  0  0  0
  -29.8600  -13.2720   20.0030 N   0  0  0  0  0  0  0  0  0  0  0  0
  -31.5960  -14.6680   19.5650 O   0  0  0  0  0  0  0  0  0  0  0  0
  -25.0720  -13.7850   20.3830 C   0  0  0  0  0  0  0  0  0  0  0  0
  -24.0380  -12.9950   20.8090 C   0  0  0  0  0  0  0  0  0  0  0  0
  -24.5270  -11.6530   20.7760 C   0  0  0  0  0  0  0  0  0  0  0  0
  -26.1260  -12.9230   20.1220 N   0  0  0  0  0  0  0  0  0  0  0  0
  -25.8040  -11.6380   20.4130 N   0  0  0  0  0  0  0  0  0  0  0  0
  -23.8390  -10.3780   21.0150 C   0  0  0  0  0  0  0  0  0  0  0  0
  -24.3220   -9.4440   21.9590 C   0  0  0  0  0  3  0  0  0  0  0  0
  -23.6330   -8.2320   22.1840 C   0  0  0  0  0  3  0  0  0  0  0  0
  -22.4490   -7.9460   21.4640 C   0  0  0  0  0  0  0  0  0  0  0  0
  -21.9850   -8.8680   20.5100 C   0  0  0  0  0  3  0  0  0  0  0  0
  -22.6750  -10.0710   20.2830 C   0  0  0  0  0  3  0  0  0  0  0  0
  -21.7270   -6.7840   21.5980 O   0  0  0  0  0  0  0  0  0  0  0  0
  -21.7130   -6.0760   22.7740 C   0  0  0  0  0  0  0  0  0  0  0  0
  -21.2770   -6.6550   23.9850 C   0  0  0  0  0  3  0  0  0  0  0  0
  -21.2130   -5.8720   25.1550 C   0  0  0  0  0  3  0  0  0  0  0  0
  -21.5750   -4.5130   25.1150 C   0  0  0  0  0  0  0  0  0  0  0  0
  -22.0040   -3.9340   23.9080 C   0  0  0  0  0  3  0  0  0  0  0  0
  -22.0700   -4.7130   22.7390 C   0  0  0  0  0  0  0  0  0  0  0  0
  -22.4640   -4.1460   21.5740 F   0  0  0  0  0  0  0  0  0  0  0  0
  -21.5050   -3.7580   26.2370 F   0  0  0  0  0  0  0  0  0  0  0  0
  -22.6430  -13.4440   21.1370 C   0  0  0  0  0  0  0  0  0  0  0  0
  -21.9700  -12.7440   22.0440 N   0  0  0  0  0  0  0  0  0  0  0  0
  -22.1580  -14.4530   20.6240 O   0  0  0  0  0  0  0  0  0  0  0  0
  -22.3740  -11.9280   22.4790 H   0  0  0  0  0  0  0  0  0  0  0  0
  -21.0370  -13.0280   22.3060 H   0  0  0  0  0  0  0  0  0  0  0  0
  -25.1980  -15.1560   20.1810 N   0  0  0  0  0  0  0  0  0  0  0  0
  -24.4230  -15.7970   20.3080 H   0  0  0  0  0  0  0  0  0  0  0  0
  -26.0270  -15.6060   19.8120 H   0  0  0  0  0  0  0  0  0  0  0  0
  -29.6110  -23.5740   21.4640 C   0  0  0  0  0  2  0  0  0  0  0  0
  -29.6010  -24.9060   20.6810 C   0  0  0  0  0  2  0  0  0  0  0  0
  -28.1850  -25.4330   20.4100 C   0  0  0  0  0  2  0  0  0  0  0  0
  -28.2700  -26.7950   19.9990 O   0  0  0  0  0  0  0  0  0  0  0  0
  -24.5290  -31.9070   23.2010 C   0  0  0  0  0  0  0  0  0  0  0  0
  -27.0900  -27.4960   20.0340 C   0  0  0  0  0  0  0  0  0  0  0  0
  -23.2800  -30.5240   21.5730 C   0  0  0  0  0  3  0  0  0  0  0  0
  -24.6960  -28.9890   20.1110 C   0  0  0  0  0  0  0  0  0  0  0  0
  -25.8000  -30.8800   21.3220 C   0  0  0  0  0  2  0  0  0  0  0  0
  -25.8660  -29.5140   20.6720 C   0  0  0  0  0  0  0  0  0  0  0  0
  -27.0680  -28.7770   20.6260 C   0  0  0  0  0  3  0  0  0  0  0  0
  -25.9030  -26.9740   19.4760 C   0  0  0  0  0  3  0  0  0  0  0  0
  -24.7070  -27.7180   19.5110 C   0  0  0  0  0  3  0  0  0  0  0  0
  -23.4560  -29.8500   20.1860 C   0  0  0  0  0  2  0  0  0  0  0  0
  -24.5550  -31.1170   22.0910 N   0  0  0  0  0  0  0  0  0  0  0  0
  -23.4610  -32.1800   23.7670 O   0  0  0  0  0  0  0  0  0  0  0  0
  -22.6440  -29.4990   22.5390 C   0  0  0  0  0  0  0  0  0  0  0  0
  -21.3190  -29.3130   22.4250 N   0  0  0  0  0  0  0  0  0  0  0  0
  -23.3370  -28.8740   23.3460 O   0  0  0  0  0  0  0  0  0  0  0  0
  -20.8200  -29.8700   21.7450 H   0  0  0  0  0  0  0  0  0  0  0  0
  -17.9560  -28.0950   22.9310 C   0  0  0  0  0  0  0  0  0  0  0  0
  -20.5120  -28.3720   23.2000 C   0  0  0  0  0  3  0  0  0  0  0  0
  -20.6250  -26.9400   22.6290 C   0  0  0  0  0  2  0  0  0  0  0  0
  -19.5250  -26.6050   21.6170 C   0  0  0  0  0  2  0  0  0  0  0  0
  -18.1420  -26.7440   22.2630 C   0  0  0  0  0  2  0  0  0  0  0  0
  -19.0700  -28.8670   23.3570 C   0  0  0  0  0  0  0  0  0  0  0  0
  -18.8440  -30.1330   23.9410 C   0  0  0  0  0  3  0  0  0  0  0  0
  -17.5360  -30.6260   24.1050 C   0  0  0  0  0  3  0  0  0  0  0  0
  -16.4360  -29.8520   23.6970 C   0  0  0  0  0  3  0  0  0  0  0  0
  -16.6480  -28.5880   23.1160 C   0  0  0  0  0  3  0  0  0  0  0  0
  -25.8310  -32.5240   23.8000 C   0  0  0  0  0  3  0  0  0  0  0  0
  -25.5420  -33.9230   24.1420 N   0  0  0  0  0  0  0  0  0  0  0  0
  -25.8720  -34.9740   23.3810 C   0  0  0  0  0  0  0  0  0  0  0  0
  -26.5250  -34.8690   22.3390 O   0  0  0  0  0  0  0  0  0  0  0  0
  -24.9620  -34.0800   24.9530 H   0  0  0  0  0  0  0  0  0  0  0  0
  -24.1550  -36.7820   23.0570 C   0  0  0  0  0  1  0  0  0  0  0  0
  -25.4030  -36.3650   23.8500 C   0  0  0  0  0  3  0  0  0  0  0  0
  -27.5550  -37.2270   24.6580 C   0  0  0  0  0  1  0  0  0  0  0  0
  -26.4430  -37.4090   23.7290 N   0  0  0  0  0  0  0  0  0  0  0  0
  -26.0470  -38.3320   23.8850 H   0  0  0  0  0  0  0  0  0  0  0  0
  -26.3690  -31.7400   25.0600 C   0  0  1  0  0  0  0  0  0  0  0  0
  -25.2970  -31.5020   26.1490 C   0  0  0  0  0  1  0  0  0  0  0  0
  -26.9350  -30.3620   24.6440 C   0  0  0  0  0  1  0  0  0  0  0  0
  -27.5390  -32.5220   25.7040 C   0  0  0  0  0  1  0  0  0  0  0  0
  2  1  1  0
  4  3  1  0
  5  6  1  0
  6  2  1  0
  6  3  1  0
  7  9  1  0
  7  5  1  0
  7  4  1  0
  7  8  1  6
 10 11  1  0
 10  9  1  0
 12 11  1  0
 13 18  1  0
 14 15  1  0
 14 13  1  0
 16 15  1  0
 16 23  1  0
 16 17  1  0
 18 12  1  0
 18 17  1  0
 19 12  2  0
 20 21  2  0
 21 40  1  0
 22 21  1  0
 22 25  1  0
 23 20  1  0
 23 24  1  0
 24 22  2  0
 25 26  1  0
 26 27  2  0
 28 31  1  0
 28 27  1  0
 29 28  2  0
 30 29  1  0
 30 25  2  0
 31 32  1  0
 32 33  1  0
 33 34  2  0
 35 34  1  0
 35 39  1  0
 36 35  2  0
 37 32  2  0
 37 36  1  0
 38 37  1  0
 40 41  1  0
 41 44  1  0
 41 43  1  0
 42 40  2  0
 45 46  1  0
 45 20  1  0
 47 45  1  0
 48  2  1  0
 49 48  1  0
 50 49  1  0
 51 53  1  0
 51 50  1  0
 52 63  2  0
 53 58  1  0
 54 62  1  0
 54 64  1  0
 55 61  1  0
 55 57  1  0
 56 62  1  0
 57 56  1  0
 58 57  2  0
 59 60  1  0
 59 53  2  0
 60 55  2  0
 61 54  1  0
 62 52  1  0
 64 66  2  0
 65 64  1  0
 67 65  1  0
 68 77  2  0
 68 73  1  0
 69 65  1  0
 69 73  1  0
 70 69  1  0
 71 72  1  0
 71 70  1  0
 72 68  1  0
 73 74  2  0
 74 75  1  0
 76 75  2  0
 77 76  1  0
 78 52  1  0
 78 79  1  0
 78 88  1  0
 79 82  1  0
 80 84  1  0
 80 79  1  0
 81 80  2  0
 84 83  1  0
 86 84  1  0
 86 87  1  0
 86 85  1  0
 88 91  1  1
 88 89  1  0
 90 88  1  0
M  ISO  4  11 100  12 100  50 101  51 101
M  END
>  <TORSDO>  (35) 
F 23

>  <SCORE>  (35) 
-10.557

>  <name>  (35) 
34

>  <ligand_id>  (35) 
34

>  <original_smiles>  (35) 
[H]c1c([H])c([H])c2c(c1[H])C([H])([H])C([H])([H])C([H])([H])C2([H])N([H])C(=O)C1([H])N(C(=O)C([H])(N([H])C(=O)C([H])(N([H])C([H])([H])[H])C([H])([H])[H])C(C([H])([H])[H])(C([H])([H])[H])C([H])([H])[H])C([H])([H])c2c([H])c(OC([H])([H])C([H])([H])C([H])([H])N(C([H])([H])[H])C3([H])C([H])([H])C([H])([H])[N+]([H])(C([H])([H])C([H])([H])C([H])([H])C(=O)N4C([H])([H])C([H])([H])C([H])([H])C([H])(n5nc(-c6c([H])c([H])c(Oc7c([H])c([H])c(F)c([H])c7F)c([H])c6[H])c(C(=O)N([H])[H])c5N([H])[H])C4([H])[H])C3([H])[H])c([H])c([H])c2C1([H])[H]

>  <smiles>  (35) 
[H]c1c([H])c([H])c2c(c1[H])C([H])([H])C([H])([H])C([H])([H])C2([H])N([H])C(=O)C1([H])N(C(=O)C([H])(N([H])C(=O)C([H])(N([H])C([H])([H])[H])C([H])([H])[H])C(C([H])([H])[H])(C([H])([H])[H])C([H])([H])[H])C([H])([H])c2c([H])c(OC([H])([H])C([H])([H])C([H])([H])N(C([H])([H])[H])C3([H])C([H])([H])C([H])([H])[N+]([H])(C([H])([H])C([H])([H])C([H])([H])C(=O)N4C([H])([H])C([H])([H])C([H])([H])C([H])(n5nc(-c6c([H])c([H])c(Oc7c([H])c([H])c(F)c([H])c7F)c([H])c6[H])c(C(=O)N([H])[H])c5N([H])[H])C4([H])[H])C3([H])[H])c([H])c([H])c2C1([H])[H]

$$$$
35:0:0
     RDKit          3D

101108  0  0  1  0  0  0  0  0999 V2000
  -27.4960  -20.7120   19.4080 C   0  0  0  0  0  3  0  0  0  0  0  0
  -27.6780  -21.6250   20.5860 N   0  0  0  0  0  4  0  0  0  0  0  0
  -26.7570  -21.9230   20.8730 H   0  0  0  0  0  0  0  0  0  0  0  0
  -28.0780  -21.0920   21.3440 H   0  0  0  0  0  0  0  0  0  0  0  0
  -28.5020  -22.8310   20.3040 C   0  0  0  0  0  2  0  0  0  0  0  0
  -28.8640  -23.8260   21.4660 C   0  0  0  0  0  2  0  0  0  0  0  0
  -29.7260  -24.9770   20.8510 C   0  0  0  0  0  2  0  0  0  0  0  0
  -29.6470  -26.3460   21.3710 O   0  0  0  0  0  0  0  0  0  0  0  0
  -25.1430  -31.6070   23.0740 C   0  0  0  0  0  0  0  0  0  0  0  0
  -28.5270  -27.0810   20.9830 C   0  0  0  0  0  0  0  0  0  0  0  0
  -24.3250  -29.9360   21.4520 C   0  0  0  0  0  3  0  0  0  0  0  0
  -26.0960  -28.4300   20.4190 C   0  0  0  0  0  0  0  0  0  0  0  0
  -26.8230  -30.4950   21.6030 C   0  0  0  0  0  2  0  0  0  0  0  0
  -27.1070  -29.0810   21.1390 C   0  0  0  0  0  0  0  0  0  0  0  0
  -28.3260  -28.4080   21.4230 C   0  0  0  0  0  3  0  0  0  0  0  0
  -27.5330  -26.5120   20.1460 C   0  0  0  0  0  3  0  0  0  0  0  0
  -26.3110  -27.1440   19.9130 C   0  0  0  0  0  3  0  0  0  0  0  0
  -24.7950  -29.1570   20.1980 C   0  0  0  0  0  2  0  0  0  0  0  0
  -25.4410  -30.7040   22.0960 N   0  0  0  0  0  0  0  0  0  0  0  0
  -23.9750  -31.8300   23.4160 O   0  0  0  0  0  0  0  0  0  0  0  0
  -23.6140  -28.9560   22.4160 C   0  0  0  0  0  0  0  0  0  0  0  0
  -22.3110  -28.7240   22.1780 N   0  0  0  0  0  0  0  0  0  0  0  0
  -24.2330  -28.4100   23.3320 O   0  0  0  0  0  0  0  0  0  0  0  0
  -21.8730  -29.2240   21.4180 H   0  0  0  0  0  0  0  0  0  0  0  0
  -18.8770  -27.7420   22.7200 C   0  0  0  0  0  0  0  0  0  0  0  0
  -21.4520  -27.8140   22.9350 C   0  0  0  0  0  3  0  0  0  0  0  0
  -21.4370  -26.4000   22.3080 C   0  0  0  0  0  2  0  0  0  0  0  0
  -20.2890  -26.1920   21.3140 C   0  0  0  0  0  2  0  0  0  0  0  0
  -18.9370  -26.4090   21.9990 C   0  0  0  0  0  2  0  0  0  0  0  0
  -20.0550  -28.4100   23.1480 C   0  0  0  0  0  0  0  0  0  0  0  0
  -19.9350  -29.6650   23.7830 C   0  0  0  0  0  3  0  0  0  0  0  0
  -18.6690  -30.2460   23.9940 C   0  0  0  0  0  3  0  0  0  0  0  0
  -17.5070  -29.5740   23.5770 C   0  0  0  0  0  3  0  0  0  0  0  0
  -17.6140  -28.3250   22.9460 C   0  0  0  0  0  3  0  0  0  0  0  0
  -26.2650  -32.4150   23.8000 C   0  0  0  0  0  3  0  0  0  0  0  0
  -25.7010  -33.7260   24.1470 N   0  0  0  0  0  0  0  0  0  0  0  0
  -25.8540  -34.8360   23.4100 C   0  0  0  0  0  0  0  0  0  0  0  0
  -26.5510  -34.8710   22.3930 O   0  0  0  0  0  0  0  0  0  0  0  0
  -25.0700  -33.7540   24.9340 H   0  0  0  0  0  0  0  0  0  0  0  0
  -23.8320  -36.2900   23.0540 C   0  0  0  0  0  1  0  0  0  0  0  0
  -25.1170  -36.1040   23.8780 C   0  0  0  0  0  3  0  0  0  0  0  0
  -27.0480  -37.3490   24.7480 C   0  0  0  0  0  1  0  0  0  0  0  0
  -25.9430  -37.3280   23.7940 N   0  0  0  0  0  0  0  0  0  0  0  0
  -25.3760  -38.1590   23.9430 H   0  0  0  0  0  0  0  0  0  0  0  0
  -26.8220  -31.6880   25.0850 C   0  0  1  0  0  0  0  0  0  0  0  0
  -25.7190  -31.0660   25.9730 C   0  0  0  0  0  1  0  0  0  0  0  0
  -27.8010  -30.5570   24.6880 C   0  0  0  0  0  1  0  0  0  0  0  0
  -27.6270  -32.6930   25.9410 C   0  0  0  0  0  1  0  0  0  0  0  0
  -27.4270  -19.2320   19.8950 C   0  0  0  0  0  2  0  0  0  0  0  0
  -28.6880  -18.3630   19.6770 C   0  0  0  0  0  2  0  0  0  0  0  0
  -28.5910  -15.1030   17.8520 C   0  0  0  0  0  2  0  0  0  0  0  0
  -29.8960  -15.1120   18.6440 C   0  0  0  0  0  2  0  0  0  0  0  0
  -27.9850  -16.4810   18.1110 C   0  0  0  0  0  2  0  0  0  0  0  0
  -29.6030  -15.9450   19.9050 C   0  0  0  0  0  3  0  0  0  0  0  0
  -28.3940  -16.8540   19.5490 C   0  0  0  0  0  3  0  0  0  0  0  0
  -29.3600  -15.0810   21.1700 C   0  0  0  0  0  0  0  0  0  0  0  0
  -30.3090  -14.1680   21.3720 N   0  0  0  0  0  0  0  0  0  0  0  0
  -28.3840  -15.2240   21.9010 O   0  0  0  0  0  0  0  0  0  0  0  0
  -31.0690  -14.2400   20.7060 H   0  0  0  0  0  0  0  0  0  0  0  0
  -30.4810  -13.0420   22.3010 C   0  0  0  0  0  2  0  0  0  0  0  0
  -30.8180  -11.7320   21.4550 C   0  0  0  0  0  2  0  0  0  0  0  0
  -32.7330  -11.2450   21.9740 C   0  0  0  0  0  2  0  0  0  0  0  0
  -33.7420   -8.9280   22.8220 C   0  0  0  0  0  3  0  0  0  0  0  0
  -33.1630   -7.6850   21.9620 C   0  0  0  0  0  3  0  0  0  0  0  0
  -31.6930   -7.7450   21.4370 C   0  0  0  0  0  2  0  0  0  0  0  0
  -31.6020   -9.1580   21.2320 C   0  0  0  0  0  3  0  0  0  0  0  0
  -31.7010   -9.6970   22.7790 C   0  0  0  0  0  2  0  0  0  0  0  0
  -32.9190  -10.1850   22.8000 N   0  0  0  0  0  0  0  0  0  0  0  0
  -33.9430  -11.4510   21.5690 O   0  0  0  0  0  1  0  0  0  0  0  0
  -30.0160  -11.4030   19.9420 C   0  0  0  0  0  3  0  0  0  0  0  0
  -28.4760  -11.7680   20.5670 C   0  0  0  0  0  3  0  0  0  0  0  0
  -27.9240  -10.4830   21.6690 C   0  0  0  0  0  3  0  0  0  0  0  0
  -30.5120   -9.6990   20.6770 N   0  0  0  0  0  2  0  0  0  0  0  0
  -29.1030   -9.2760   21.7940 N   0  0  0  0  0  2  0  0  0  0  0  0
  -26.5920   -9.7200   21.5320 C   0  0  0  0  0  0  0  0  0  0  0  0
  -26.1230   -9.0450   22.6650 C   0  0  0  0  0  3  0  0  0  0  0  0
  -24.9110   -8.3190   22.6830 C   0  0  0  0  0  3  0  0  0  0  0  0
  -24.0970   -8.2140   21.5350 C   0  0  0  0  0  0  0  0  0  0  0  0
  -24.5870   -8.7850   20.3380 C   0  0  0  0  0  3  0  0  0  0  0  0
  -25.8230   -9.5020   20.3290 C   0  0  0  0  0  3  0  0  0  0  0  0
  -22.8950   -7.5270   21.5470 O   0  0  0  0  0  0  0  0  0  0  0  0
  -22.2620   -7.2050   22.7370 C   0  0  0  0  0  0  0  0  0  0  0  0
  -21.9610   -8.1890   23.7060 C   0  0  0  0  0  3  0  0  0  0  0  0
  -21.2810   -7.8400   24.8920 C   0  0  0  0  0  3  0  0  0  0  0  0
  -20.9050   -6.5060   25.1220 C   0  0  0  0  0  0  0  0  0  0  0  0
  -21.1960   -5.5210   24.1650 C   0  0  0  0  0  3  0  0  0  0  0  0
  -21.8660   -5.8690   22.9760 C   0  0  0  0  0  0  0  0  0  0  0  0
  -22.1270   -4.9120   22.0560 F   0  0  0  0  0  0  0  0  0  0  0  0
  -20.2530   -6.1680   26.2620 F   0  0  0  0  0  0  0  0  0  0  0  0
  -27.4410  -12.3320   19.5930 C   0  0  0  0  0  0  0  0  0  0  0  0
  -26.2110  -12.5860   20.0430 N   0  0  0  0  0  0  0  0  0  0  0  0
  -27.7050  -12.5290   18.4070 O   0  0  0  0  0  0  0  0  0  0  0  0
  -25.9700  -12.4460   21.0140 H   0  0  0  0  0  0  0  0  0  0  0  0
  -25.5150  -12.9710   19.4220 H   0  0  0  0  0  0  0  0  0  0  0  0
  -30.8690  -12.2480   19.3040 N   0  0  0  0  0  0  0  0  0  0  0  0
  -30.5670  -13.1080   18.8640 H   0  0  0  0  0  0  0  0  0  0  0  0
  -31.7860  -11.9330   19.0060 H   0  0  0  0  0  0  0  0  0  0  0  0
  -28.4910  -20.9910   18.2110 C   0  0  0  0  0  2  0  0  0  0  0  0
  -30.6530  -22.1200   17.4160 C   0  0  0  0  0  1  0  0  0  0  0  0
  -28.8540  -23.5650   18.3620 C   0  0  0  0  0  1  0  0  0  0  0  0
  -29.4970  -22.1640   18.4280 C   0  0  0  0  0  3  0  0  0  0  0  0
  1 98  1  0
  1 49  1  0
  1  2  1  0
  2  3  1  0
  2  4  1  0
  5  2  1  0
  5  6  1  0
  7  8  1  0
  7  6  1  0
  9 20  2  0
 10  8  1  0
 10 15  1  0
 11 19  1  0
 11 21  1  0
 12 14  1  0
 13 19  1  0
 14 15  2  0
 14 13  1  0
 16 10  2  0
 17 16  1  0
 17 12  2  0
 18 12  1  0
 18 11  1  0
 19  9  1  0
 21 23  2  0
 22 21  1  0
 24 22  1  0
 25 34  2  0
 25 30  1  0
 26 22  1  0
 26 30  1  0
 27 26  1  0
 28 29  1  0
 28 27  1  0
 29 25  1  0
 30 31  2  0
 31 32  1  0
 33 32  2  0
 34 33  1  0
 35  9  1  0
 35 36  1  0
 35 45  1  0
 36 39  1  0
 37 41  1  0
 37 36  1  0
 38 37  2  0
 41 40  1  0
 43 41  1  0
 43 44  1  0
 43 42  1  0
 45 48  1  1
 45 46  1  0
 47 45  1  0
 50 49  1  0
 51 53  1  0
 51 52  1  0
 52 54  1  0
 53 55  1  0
 54 56  1  0
 55 50  1  0
 55 54  1  0
 56 57  1  0
 56 58  2  0
 57 60  1  0
 59 57  1  0
 61 60  1  0
 62 68  1  0
 64 63  2  0
 65 64  1  0
 66 73  1  0
 66 65  1  0
 66 67  1  0
 67 68  1  0
 68 63  1  0
 69 62  1  0
 70 71  1  0
 70 61  1  0
 71 90  1  0
 71 72  1  0
 72 74  1  0
 73 74  1  0
 75 72  1  0
 75 76  1  0
 76 77  2  0
 78 81  1  0
 78 77  1  0
 79 78  2  0
 80 79  1  0
 80 75  2  0
 81 82  1  0
 82 87  2  0
 82 83  1  0
 83 84  2  0
 84 85  1  0
 85 89  1  0
 86 85  2  0
 87 86  1  0
 88 87  1  0
 90 91  1  0
 91 93  1  0
 92 90  2  0
 94 91  1  0
 95 70  1  0
 96 95  1  0
 97 95  1  0
 98101  1  0
 99101  1  0
100101  1  0
M  ISO  4   7 101   8 101  61 100  62 100
M  END
>  <TORSDO>  (36) 
F 28

>  <SCORE>  (36) 
-4.987

>  <name>  (36) 
35

>  <ligand_id>  (36) 
35

>  <original_smiles>  (36) 
[H]c1c([H])c([H])c2c(c1[H])C([H])([H])C([H])([H])C([H])([H])C2([H])N([H])C(=O)C1([H])N(C(=O)C([H])(N([H])C(=O)C([H])(N([H])C([H])([H])[H])C([H])([H])[H])C(C([H])([H])[H])(C([H])([H])[H])C([H])([H])[H])C([H])([H])c2c([H])c(OC([H])([H])C([H])([H])C([H])([H])[N+]([H])([H])C([H])(C([H])([H])C([H])([H])C3([H])C([H])([H])C([H])([H])C([H])([H])C3([H])C(=O)N([H])C([H])([H])C([H])([H])C(=O)N3C([H])([H])C([H])([H])C([H])([H])C([H])(n4nc(-c5c([H])c([H])c(Oc6c([H])c([H])c(F)c([H])c6F)c([H])c5[H])c(C(=O)N([H])[H])c4N([H])[H])C3([H])[H])C([H])([H])C([H])(C([H])([H])[H])C([H])([H])[H])c([H])c([H])c2C1([H])[H]

>  <smiles>  (36) 
[H]c1c([H])c([H])c2c(c1[H])C([H])([H])C([H])([H])C([H])([H])C2([H])N([H])C(=O)C1([H])N(C(=O)C([H])(N([H])C(=O)C([H])(N([H])C([H])([H])[H])C([H])([H])[H])C(C([H])([H])[H])(C([H])([H])[H])C([H])([H])[H])C([H])([H])c2c([H])c(OC([H])([H])C([H])([H])C([H])([H])[N+]([H])([H])C([H])(C([H])([H])C([H])([H])C3([H])C([H])([H])C([H])([H])C([H])([H])C3([H])C(=O)N([H])C([H])([H])C([H])([H])C(=O)N3C([H])([H])C([H])([H])C([H])([H])C([H])(n4nc(-c5c([H])c([H])c(Oc6c([H])c([H])c(F)c([H])c6F)c([H])c5[H])c(C(=O)N([H])[H])c4N([H])[H])C3([H])[H])C([H])([H])C([H])(C([H])([H])[H])C([H])([H])[H])c([H])c([H])c2C1([H])[H]

$$$$
36:0:0
     RDKit          3D

 91 96  0  0  1  0  0  0  0  0999 V2000
  -18.8810  -24.2470   22.8470 C   0  0  0  0  0  2  0  0  0  0  0  0
  -18.9090  -25.7840   22.6760 C   0  0  0  0  0  2  0  0  0  0  0  0
  -20.2550  -23.6500   22.4820 C   0  0  0  0  0  2  0  0  0  0  0  0
  -20.1380  -26.1360   21.7270 C   0  0  0  0  0  3  0  0  0  0  0  0
  -20.7590  -24.4460   21.3510 N   0  0  1  0  0  4  0  0  0  0  0  0
  -20.0910  -24.2230   20.6270 H   0  0  0  0  0  0  0  0  0  0  0  0
  -20.7170  -28.2040   19.7390 C   0  0  0  0  0  1  0  0  0  0  0  0
  -22.6300  -28.2400   18.9720 C   0  0  0  0  0  1  0  0  0  0  0  0
  -24.4020  -27.8290   19.2730 O   0  0  0  0  0  0  0  0  0  0  0  0
  -25.2720  -31.3500   23.3500 C   0  0  0  0  0  0  0  0  0  0  0  0
  -25.7170  -28.1060   18.6990 C   0  0  0  0  0  3  0  0  0  0  0  0
  -23.7570  -30.9880   21.4770 C   0  0  0  0  0  3  0  0  0  0  0  0
  -24.8160  -30.4480   19.1620 C   0  0  0  0  0  3  0  0  0  0  0  0
  -26.2810  -30.9330   21.1130 C   0  0  0  0  0  2  0  0  0  0  0  0
  -25.9430  -30.0980   19.9040 C   0  0  0  0  0  3  0  0  0  0  0  0
  -26.5700  -28.8950   19.5350 C   0  0  0  0  0  2  0  0  0  0  0  0
  -25.4020  -28.7280   17.5240 C   0  0  0  0  0  2  0  0  0  0  0  0
  -24.6870  -29.8950   17.8480 C   0  0  0  0  0  2  0  0  0  0  0  0
  -23.7460  -31.2170   19.9170 C   0  0  0  0  0  2  0  0  0  0  0  0
  -25.1300  -31.1380   22.0170 N   0  0  0  0  0  0  0  0  0  0  0  0
  -24.2880  -31.5180   24.0870 O   0  0  0  0  0  0  0  0  0  0  0  0
  -23.2350  -29.6210   22.0130 C   0  0  0  0  0  0  0  0  0  0  0  0
  -22.0650  -29.5330   22.5910 N   0  0  0  0  0  0  0  0  0  0  0  0
  -23.9180  -28.6090   22.0100 O   0  0  0  0  0  0  0  0  0  0  0  0
  -21.5240  -30.3760   22.7190 H   0  0  0  0  0  0  0  0  0  0  0  0
  -18.5300  -28.9860   22.1340 C   0  0  0  0  0  0  0  0  0  0  0  0
  -21.3150  -28.2490   22.6450 C   0  0  0  0  0  2  0  0  0  0  0  0
  -21.6760  -26.9630   21.0650 C   0  0  0  0  0  1  0  0  0  0  0  0
  -19.7900  -27.0550   19.6510 C   0  0  0  0  0  1  0  0  0  0  0  0
  -18.3750  -28.1660   20.5590 C   0  0  0  0  0  1  0  0  0  0  0  0
  -19.7860  -29.0260   22.9720 C   0  0  0  0  0  0  0  0  0  0  0  0
  -19.7560  -29.9260   24.1240 C   0  0  0  0  0  3  0  0  0  0  0  0
  -18.6290  -30.6390   24.6120 C   0  0  0  0  0  3  0  0  0  0  0  0
  -17.4060  -30.4410   23.9640 C   0  0  0  0  0  3  0  0  0  0  0  0
  -17.3770  -29.6420   22.7730 C   0  0  0  0  0  3  0  0  0  0  0  0
  -26.6790  -31.4180   23.9900 C   0  0  0  0  0  3  0  0  0  0  0  0
  -26.6740  -32.5990   24.8580 N   0  0  0  0  0  0  0  0  0  0  0  0
  -27.2120  -33.7790   24.5300 C   0  0  0  0  0  0  0  0  0  0  0  0
  -27.8480  -33.9570   23.4870 O   0  0  0  0  0  0  0  0  0  0  0  0
  -26.1180  -32.5380   25.6970 H   0  0  0  0  0  0  0  0  0  0  0  0
  -25.9540  -35.9100   24.9820 C   0  0  0  0  0  1  0  0  0  0  0  0
  -27.0200  -34.9430   25.5180 C   0  0  0  0  0  3  0  0  0  0  0  0
  -29.2480  -34.8980   26.5500 C   0  0  0  0  0  1  0  0  0  0  0  0
  -28.2700  -35.6810   25.8010 N   0  0  0  0  0  0  0  0  0  0  0  0
  -28.0770  -36.5290   26.3260 H   0  0  0  0  0  0  0  0  0  0  0  0
  -27.0550  -30.1190   24.7980 C   0  0  1  0  0  0  0  0  0  0  0  0
  -25.9810  -29.6840   25.8230 C   0  0  0  0  0  1  0  0  0  0  0  0
  -27.3030  -28.9230   23.8500 C   0  0  0  0  0  1  0  0  0  0  0  0
  -28.3820  -30.3570   25.5550 C   0  0  0  0  0  1  0  0  0  0  0  0
  -22.1740  -23.7020   20.5690 C   0  0  0  0  0  3  0  0  0  0  0  0
  -22.7160  -21.9920   19.8560 C   0  0  0  0  0  3  0  0  0  0  0  0
  -24.2700  -21.1290   19.0850 C   0  0  0  0  0  2  0  0  0  0  0  0
  -25.1510  -19.4090   18.9590 C   0  0  0  0  0  2  0  0  0  0  0  0
  -26.8730  -18.5930   18.6070 C   0  0  0  0  0  2  0  0  0  0  0  0
  -27.8610  -16.9960   19.0550 C   0  0  0  0  0  2  0  0  0  0  0  0
  -29.5180  -16.1140   19.2180 C   0  0  0  0  0  0  0  0  0  0  0  0
  -30.6490  -13.6820   19.3490 C   0  0  0  0  0  2  0  0  0  0  0  0
  -29.9940  -12.6970   18.3270 C   0  0  0  0  0  2  0  0  0  0  0  0
  -28.5780  -12.2680   18.7740 C   0  0  0  0  0  2  0  0  0  0  0  0
  -27.8140  -13.4770   19.3600 C   0  0  0  0  0  3  0  0  0  0  0  0
  -28.6190  -14.1630   20.4600 C   0  0  0  0  0  2  0  0  0  0  0  0
  -29.6750  -14.7930   19.7270 N   0  0  0  0  0  0  0  0  0  0  0  0
  -30.6540  -16.4780   18.8030 O   0  0  0  0  0  0  0  0  0  0  0  0
  -25.4870  -14.0750   20.1450 C   0  0  0  0  0  0  0  0  0  0  0  0
  -24.4550  -13.3040   20.5800 C   0  0  0  0  0  0  0  0  0  0  0  0
  -24.9320  -11.9580   20.5580 C   0  0  0  0  0  0  0  0  0  0  0  0
  -26.5050  -13.1860   19.8620 N   0  0  0  0  0  0  0  0  0  0  0  0
  -26.2000  -11.9140   20.1830 N   0  0  0  0  0  0  0  0  0  0  0  0
  -24.2320  -10.7010   20.7960 C   0  0  0  0  0  0  0  0  0  0  0  0
  -24.6860   -9.7770   21.7610 C   0  0  0  0  0  3  0  0  0  0  0  0
  -23.9780   -8.5770   21.9780 C   0  0  0  0  0  3  0  0  0  0  0  0
  -22.8090   -8.2990   21.2300 C   0  0  0  0  0  0  0  0  0  0  0  0
  -22.3830   -9.2130   20.2500 C   0  0  0  0  0  3  0  0  0  0  0  0
  -23.0900  -10.4040   20.0320 C   0  0  0  0  0  3  0  0  0  0  0  0
  -22.0690   -7.1520   21.3580 O   0  0  0  0  0  0  0  0  0  0  0  0
  -21.9330   -6.5180   22.5660 C   0  0  0  0  0  0  0  0  0  0  0  0
  -21.4740   -7.1950   23.7170 C   0  0  0  0  0  3  0  0  0  0  0  0
  -21.2830   -6.4860   24.9190 C   0  0  0  0  0  3  0  0  0  0  0  0
  -21.5410   -5.1020   24.9710 C   0  0  0  0  0  0  0  0  0  0  0  0
  -21.9960   -4.4280   23.8240 C   0  0  0  0  0  3  0  0  0  0  0  0
  -22.1890   -5.1340   22.6250 C   0  0  0  0  0  0  0  0  0  0  0  0
  -22.6060   -4.4750   21.5160 F   0  0  0  0  0  0  0  0  0  0  0  0
  -21.3490   -4.4190   26.1240 F   0  0  0  0  0  0  0  0  0  0  0  0
  -23.0730  -13.7840   20.8990 C   0  0  0  0  0  0  0  0  0  0  0  0
  -22.4020  -13.1280   21.8360 N   0  0  0  0  0  0  0  0  0  0  0  0
  -22.6010  -14.7800   20.3480 O   0  0  0  0  0  0  0  0  0  0  0  0
  -22.8020  -12.3260   22.3010 H   0  0  0  0  0  0  0  0  0  0  0  0
  -21.4730  -13.4320   22.0950 H   0  0  0  0  0  0  0  0  0  0  0  0
  -25.6190  -15.4450   19.9530 N   0  0  0  0  0  0  0  0  0  0  0  0
  -24.8540  -16.0810   20.1470 H   0  0  0  0  0  0  0  0  0  0  0  0
  -26.4400  -15.9150   19.6000 H   0  0  0  0  0  0  0  0  0  0  0  0
  2  1  1  0
  3  1  1  0
  4 28  1  0
  4  2  1  0
  5  4  1  0
  5  3  1  0
  5  6  1  6
  8  9  1  0
 10 21  2  0
 11  9  1  0
 11 16  1  0
 12 22  1  0
 12 20  1  0
 13 18  1  0
 13 15  1  0
 13 19  1  0
 14 20  1  0
 15 16  1  0
 15 14  1  0
 17 18  1  0
 17 11  1  0
 19 12  1  0
 20 10  1  0
 22 23  1  0
 23 27  1  0
 23 25  1  0
 24 22  2  0
 26 35  2  0
 26 31  1  0
 27 31  1  0
 29  7  1  0
 30 26  1  0
 31 32  2  0
 32 33  1  0
 34 33  2  0
 35 34  1  0
 36 10  1  0
 36 46  1  0
 36 37  1  0
 37 40  1  0
 38 37  1  0
 38 42  1  0
 39 38  2  0
 42 41  1  0
 42 44  1  0
 44 45  1  0
 44 43  1  0
 46 49  1  1
 46 47  1  0
 48 46  1  0
 50  5  1  0
 51 50  2  0
 52 51  1  0
 53 52  1  0
 54 53  1  0
 54 55  1  0
 55 56  1  0
 56 62  1  0
 57 62  1  0
 58 59  1  0
 58 57  1  0
 60 59  1  0
 60 67  1  0
 60 61  1  0
 62 61  1  0
 63 56  2  0
 64 65  2  0
 65 84  1  0
 66 65  1  0
 66 69  1  0
 67 64  1  0
 67 68  1  0
 68 66  2  0
 69 70  1  0
 70 71  2  0
 72 75  1  0
 72 71  1  0
 73 72  2  0
 74 73  1  0
 74 69  2  0
 75 76  1  0
 76 81  2  0
 76 77  1  0
 77 78  2  0
 78 79  1  0
 79 83  1  0
 80 79  2  0
 81 80  1  0
 82 81  1  0
 84 85  1  0
 85 88  1  0
 85 87  1  0
 86 84  2  0
 89 64  1  0
 89 90  1  0
 91 89  1  0
M  ISO  4   8 101   9 101  55 100  56 100
M  END
>  <TORSDO>  (37) 
F 24

>  <SCORE>  (37) 
-4.023

>  <name>  (37) 
36

>  <ligand_id>  (37) 
36

>  <original_smiles>  (37) 
[H]c1c([H])c([H])c2c(c1[H])C([H])([H])C([H])([H])C([H])([H])C2([H])N([H])C(=O)C1([H])N(C(=O)C([H])(N([H])C(=O)C([H])(N([H])C([H])([H])[H])C([H])([H])[H])C(C([H])([H])[H])(C([H])([H])[H])C([H])([H])[H])C([H])([H])c2c([H])c(OC([H])([H])C([H])([H])C3([H])C([H])([H])C([H])([H])C([H])([H])[N+]3([H])C([H])([H])C([H])([H])C([H])([H])C([H])([H])C([H])([H])C([H])([H])C(=O)N3C([H])([H])C([H])([H])C([H])([H])C([H])(n4nc(-c5c([H])c([H])c(Oc6c([H])c([H])c(F)c([H])c6F)c([H])c5[H])c(C(=O)N([H])[H])c4N([H])[H])C3([H])[H])c([H])c([H])c2C1([H])[H]

>  <smiles>  (37) 
[H]c1c([H])c([H])c2c(c1[H])C([H])([H])C([H])([H])C([H])([H])C2([H])N([H])C(=O)C1([H])N(C(=O)C([H])(N([H])C(=O)C([H])(N([H])C([H])([H])[H])C([H])([H])[H])C(C([H])([H])[H])(C([H])([H])[H])C([H])([H])[H])C([H])([H])c2c([H])c(OC([H])([H])C([H])([H])C3([H])C([H])([H])C([H])([H])C([H])([H])[N+]3([H])C([H])([H])C([H])([H])C([H])([H])C([H])([H])C([H])([H])C([H])([H])C(=O)N3C([H])([H])C([H])([H])C([H])([H])C([H])(n4nc(-c5c([H])c([H])c(Oc6c([H])c([H])c(F)c([H])c6F)c([H])c5[H])c(C(=O)N([H])[H])c4N([H])[H])C3([H])[H])c([H])c([H])c2C1([H])[H]

$$$$
37:0:0
     RDKit          3D

 91 99  0  0  1  0  0  0  0  0999 V2000
  -29.2620  -19.6810   20.8550 C   0  0  0  0  0  2  0  0  0  0  0  0
  -30.3320  -17.8130   17.1270 C   0  0  0  0  0  2  0  0  0  0  0  0
  -30.4450  -16.8710   18.3130 C   0  0  0  0  0  2  0  0  0  0  0  0
  -30.2900  -19.7300   18.6800 C   0  0  0  0  0  2  0  0  0  0  0  0
  -31.0450  -19.1010   17.5030 C   0  0  0  0  0  3  0  0  0  0  0  0
  -29.8520  -17.3920   19.6560 C   0  0  0  0  0  3  0  0  0  0  0  0
  -31.1340  -20.0570   16.3030 C   0  0  0  0  0  1  0  0  0  0  0  0
  -30.1850  -18.8950   19.9230 N   0  0  2  0  0  4  0  0  0  0  0  0
  -31.1050  -18.9090   20.3380 H   0  0  0  0  0  0  0  0  0  0  0  0
  -30.1170  -16.2620   20.7970 C   0  0  0  0  0  2  0  0  0  0  0  0
  -30.8250  -14.8630   20.4400 C   0  0  0  0  0  0  0  0  0  0  0  0
  -30.5910  -12.6030   19.4110 C   0  0  0  0  0  2  0  0  0  0  0  0
  -29.6770  -12.7040   18.1680 C   0  0  0  0  0  2  0  0  0  0  0  0
  -28.1930  -12.5780   18.5670 C   0  0  0  0  0  2  0  0  0  0  0  0
  -27.8180  -13.4580   19.7890 C   0  0  0  0  0  3  0  0  0  0  0  0
  -28.8550  -13.3290   20.9250 C   0  0  0  0  0  2  0  0  0  0  0  0
  -30.1730  -13.6520   20.3690 N   0  0  0  0  0  0  0  0  0  0  0  0
  -32.0100  -14.9200   20.1020 O   0  0  0  0  0  0  0  0  0  0  0  0
  -25.4180  -14.0710   20.4640 C   0  0  0  0  0  0  0  0  0  0  0  0
  -24.3410  -13.3070   20.8210 C   0  0  0  0  0  0  0  0  0  0  0  0
  -24.7980  -11.9530   20.8160 C   0  0  0  0  0  0  0  0  0  0  0  0
  -26.4620  -13.1850   20.2570 N   0  0  0  0  0  0  0  0  0  0  0  0
  -26.0940  -11.9060   20.5330 N   0  0  0  0  0  0  0  0  0  0  0  0
  -24.0610  -10.6970   21.0080 C   0  0  0  0  0  0  0  0  0  0  0  0
  -24.4660   -9.7400   21.9640 C   0  0  0  0  0  3  0  0  0  0  0  0
  -23.7290   -8.5490   22.1420 C   0  0  0  0  0  3  0  0  0  0  0  0
  -22.5730   -8.3070   21.3630 C   0  0  0  0  0  0  0  0  0  0  0  0
  -22.1880   -9.2520   20.3950 C   0  0  0  0  0  3  0  0  0  0  0  0
  -22.9260  -10.4340   20.2150 C   0  0  0  0  0  3  0  0  0  0  0  0
  -21.8090   -7.1670   21.4480 O   0  0  0  0  0  0  0  0  0  0  0  0
  -21.7250   -6.4430   22.6110 C   0  0  0  0  0  0  0  0  0  0  0  0
  -21.2550   -7.0170   23.8120 C   0  0  0  0  0  3  0  0  0  0  0  0
  -21.1190   -6.2200   24.9670 C   0  0  0  0  0  3  0  0  0  0  0  0
  -21.4400   -4.8490   24.9200 C   0  0  0  0  0  0  0  0  0  0  0  0
  -21.9020   -4.2760   23.7220 C   0  0  0  0  0  3  0  0  0  0  0  0
  -22.0420   -5.0700   22.5700 C   0  0  0  0  0  0  0  0  0  0  0  0
  -22.4660   -4.5080   21.4130 F   0  0  0  0  0  0  0  0  0  0  0  0
  -21.3020   -4.0810   26.0250 F   0  0  0  0  0  0  0  0  0  0  0  0
  -22.9410  -13.7940   21.0590 C   0  0  0  0  0  0  0  0  0  0  0  0
  -22.1950  -13.1160   21.9240 N   0  0  0  0  0  0  0  0  0  0  0  0
  -22.5170  -14.8110   20.5100 O   0  0  0  0  0  0  0  0  0  0  0  0
  -22.5520  -12.2930   22.3860 H   0  0  0  0  0  0  0  0  0  0  0  0
  -21.2550  -13.4250   22.1270 H   0  0  0  0  0  0  0  0  0  0  0  0
  -25.5930  -15.4380   20.2740 N   0  0  0  0  0  0  0  0  0  0  0  0
  -24.8270  -16.0970   20.3600 H   0  0  0  0  0  0  0  0  0  0  0  0
  -26.4520  -15.8690   19.9550 H   0  0  0  0  0  0  0  0  0  0  0  0
  -29.5670  -21.2540   21.1280 C   0  0  0  0  0  3  0  0  0  0  0  0
  -28.6740  -22.4240   20.4870 C   0  0  0  0  0  3  0  0  0  0  0  0
  -29.0200  -23.9670   20.8060 C   0  0  0  0  0  3  0  0  0  0  0  0
  -28.0230  -25.0930   20.2560 C   0  0  0  0  0  3  0  0  0  0  0  0
  -28.2720  -26.5510   20.4580 O   0  0  0  0  0  0  0  0  0  0  0  0
  -24.5490  -32.0390   23.3450 C   0  0  0  0  0  0  0  0  0  0  0  0
  -27.1710  -27.4290   20.3630 C   0  0  0  0  0  0  0  0  0  0  0  0
  -23.3540  -30.6210   21.7160 C   0  0  0  0  0  3  0  0  0  0  0  0
  -24.8140  -29.0590   20.3120 C   0  0  0  0  0  0  0  0  0  0  0  0
  -25.8970  -30.9330   21.5470 C   0  0  0  0  0  2  0  0  0  0  0  0
  -25.9800  -29.5480   20.9130 C   0  0  0  0  0  0  0  0  0  0  0  0
  -27.1630  -28.7440   20.9290 C   0  0  0  0  0  3  0  0  0  0  0  0
  -25.9830  -27.0090   19.7200 C   0  0  0  0  0  3  0  0  0  0  0  0
  -24.8190  -27.7970   19.7040 C   0  0  0  0  0  3  0  0  0  0  0  0
  -23.5760  -29.9330   20.3440 C   0  0  0  0  0  2  0  0  0  0  0  0
  -24.6190  -31.2150   22.2590 N   0  0  0  0  0  0  0  0  0  0  0  0
  -23.4610  -32.3220   23.8690 O   0  0  0  0  0  0  0  0  0  0  0  0
  -22.6880  -29.6140   22.6830 C   0  0  0  0  0  0  0  0  0  0  0  0
  -21.3690  -29.4030   22.5230 N   0  0  0  0  0  0  0  0  0  0  0  0
  -23.3570  -29.0240   23.5360 O   0  0  0  0  0  0  0  0  0  0  0  0
  -20.8900  -29.9300   21.8070 H   0  0  0  0  0  0  0  0  0  0  0  0
  -18.0090  -28.1350   22.9480 C   0  0  0  0  0  0  0  0  0  0  0  0
  -20.5490  -28.4700   23.2960 C   0  0  0  0  0  3  0  0  0  0  0  0
  -20.7060  -27.0240   22.7720 C   0  0  0  0  0  2  0  0  0  0  0  0
  -19.6490  -26.6400   21.7320 C   0  0  0  0  0  2  0  0  0  0  0  0
  -18.2430  -26.7710   22.3230 C   0  0  0  0  0  2  0  0  0  0  0  0
  -19.0920  -28.9390   23.3900 C   0  0  0  0  0  0  0  0  0  0  0  0
  -18.8220  -30.2150   23.9320 C   0  0  0  0  0  3  0  0  0  0  0  0
  -17.5000  -30.6880   24.0360 C   0  0  0  0  0  3  0  0  0  0  0  0
  -16.4300  -29.8800   23.6130 C   0  0  0  0  0  3  0  0  0  0  0  0
  -16.6850  -28.6060   23.0750 C   0  0  0  0  0  3  0  0  0  0  0  0
  -25.8290  -32.6800   23.9660 C   0  0  0  0  0  3  0  0  0  0  0  0
  -25.5220  -34.0870   24.2570 N   0  0  0  0  0  0  0  0  0  0  0  0
  -25.8700  -35.1190   23.4750 C   0  0  0  0  0  0  0  0  0  0  0  0
  -26.5530  -34.9860   22.4560 O   0  0  0  0  0  0  0  0  0  0  0  0
  -24.9200  -34.2650   25.0460 H   0  0  0  0  0  0  0  0  0  0  0  0
  -24.1620  -36.9160   23.0530 C   0  0  0  0  0  1  0  0  0  0  0  0
  -25.3860  -36.5210   23.8920 C   0  0  0  0  0  3  0  0  0  0  0  0
  -27.5120  -37.4130   24.7410 C   0  0  0  0  0  1  0  0  0  0  0  0
  -26.4280  -37.5640   23.7720 N   0  0  0  0  0  0  0  0  0  0  0  0
  -26.0250  -38.4890   23.8910 H   0  0  0  0  0  0  0  0  0  0  0  0
  -26.3240  -31.9380   25.2680 C   0  0  1  0  0  0  0  0  0  0  0  0
  -25.2150  -31.7230   26.3230 C   0  0  0  0  0  1  0  0  0  0  0  0
  -26.9160  -30.5530   24.9210 C   0  0  0  0  0  1  0  0  0  0  0  0
  -27.4650  -32.7500   25.9290 C   0  0  0  0  0  1  0  0  0  0  0  0
  1 47  1  0
  2  5  1  0
  2  3  1  0
  3  6  1  0
  4  8  1  0
  5  7  1  0
  5  4  1  0
  6  8  1  0
  6 10  1  0
  8  9  1  1
  8  1  1  0
 11 10  1  0
 12 17  1  0
 13 14  1  0
 13 12  1  0
 15 14  1  0
 15 22  1  0
 15 16  1  0
 17 11  1  0
 17 16  1  0
 18 11  2  0
 19 20  2  0
 20 39  1  0
 21 20  1  0
 21 24  1  0
 22 19  1  0
 22 23  1  0
 23 21  2  0
 24 25  1  0
 25 26  2  0
 27 30  1  0
 27 26  1  0
 28 27  2  0
 29 28  1  0
 29 24  2  0
 30 31  1  0
 31 32  1  0
 32 33  2  0
 34 33  1  0
 34 38  1  0
 35 34  2  0
 36 31  2  0
 36 35  1  0
 37 36  1  0
 39 40  1  0
 40 43  1  0
 40 42  1  0
 41 39  2  0
 44 45  1  0
 44 19  1  0
 46 44  1  0
 48 49  1  0
 48 47  2  0
 50 51  1  0
 50 49  2  0
 52 63  2  0
 53 51  1  0
 53 58  1  0
 54 62  1  0
 54 64  1  0
 55 61  1  0
 55 57  1  0
 56 62  1  0
 57 58  2  0
 57 56  1  0
 59 53  2  0
 60 59  1  0
 60 55  2  0
 61 54  1  0
 62 52  1  0
 64 66  2  0
 65 64  1  0
 67 65  1  0
 68 77  2  0
 68 73  1  0
 69 65  1  0
 69 73  1  0
 70 69  1  0
 71 72  1  0
 71 70  1  0
 72 68  1  0
 73 74  2  0
 74 75  1  0
 76 75  2  0
 77 76  1  0
 78 52  1  0
 78 79  1  0
 78 88  1  0
 79 82  1  0
 80 84  1  0
 80 79  1  0
 81 80  2  0
 84 83  1  0
 86 87  1  0
 86 84  1  0
 86 85  1  0
 88 91  1  1
 88 89  1  0
 90 88  1  0
M  ISO  4  10 100  11 100  50 101  51 101
M  END
>  <TORSDO>  (38) 
F 22

>  <SCORE>  (38) 
-12.594

>  <name>  (38) 
37

>  <ligand_id>  (38) 
37

>  <original_smiles>  (38) 
[H]c1c([H])c([H])c2c(c1[H])C([H])([H])C([H])([H])C([H])([H])C2([H])N([H])C(=O)C1([H])N(C(=O)C([H])(N([H])C(=O)C([H])(N([H])C([H])([H])[H])C([H])([H])[H])C(C([H])([H])[H])(C([H])([H])[H])C([H])([H])[H])C([H])([H])c2c([H])c(OC([H])([H])C([H])([H])C([H])([H])C([H])([H])C([H])([H])[N+]3([H])C([H])([H])C([H])(C([H])([H])[H])C([H])([H])C([H])([H])C3([H])C([H])([H])C(=O)N3C([H])([H])C([H])([H])C([H])([H])C([H])(n4nc(-c5c([H])c([H])c(Oc6c([H])c([H])c(F)c([H])c6F)c([H])c5[H])c(C(=O)N([H])[H])c4N([H])[H])C3([H])[H])c([H])c([H])c2C1([H])[H]

>  <smiles>  (38) 
[H]c1c([H])c([H])c2c(c1[H])C([H])([H])C([H])([H])C([H])([H])C2([H])N([H])C(=O)C1([H])N(C(=O)C([H])(N([H])C(=O)C([H])(N([H])C([H])([H])[H])C([H])([H])[H])C(C([H])([H])[H])(C([H])([H])[H])C([H])([H])[H])C([H])([H])c2c([H])c(OC([H])([H])C([H])([H])C([H])([H])C([H])([H])C([H])([H])[N+]3([H])C([H])([H])C([H])(C([H])([H])[H])C([H])([H])C([H])([H])C3([H])C([H])([H])C(=O)N3C([H])([H])C([H])([H])C([H])([H])C([H])(n4nc(-c5c([H])c([H])c(Oc6c([H])c([H])c(F)c([H])c6F)c([H])c5[H])c(C(=O)N([H])[H])c4N([H])[H])C3([H])[H])c([H])c([H])c2C1([H])[H]

$$$$
38:0:0
     RDKit          3D

 87 94  0  0  1  0  0  0  0  0999 V2000
  -29.4920  -21.4560   19.6060 C   0  0  0  0  0  2  0  0  0  0  0  0
  -28.7230  -22.9140   20.2310 C   0  0  0  0  0  2  0  0  0  0  0  0
  -28.5630  -24.5370   19.5810 C   0  0  0  0  0  2  0  0  0  0  0  0
  -28.4160  -26.0050   20.2370 O   0  0  0  0  0  0  0  0  0  0  0  0
  -24.5320  -31.6600   23.1760 C   0  0  0  0  0  0  0  0  0  0  0  0
  -27.3420  -27.0040   20.1200 C   0  0  0  0  0  0  0  0  0  0  0  0
  -23.4290  -30.2580   21.4780 C   0  0  0  0  0  3  0  0  0  0  0  0
  -24.9660  -28.7420   20.0610 C   0  0  0  0  0  0  0  0  0  0  0  0
  -25.9820  -30.5760   21.4010 C   0  0  0  0  0  2  0  0  0  0  0  0
  -26.1160  -29.1900   20.7220 C   0  0  0  0  0  0  0  0  0  0  0  0
  -27.2970  -28.3370   20.7350 C   0  0  0  0  0  3  0  0  0  0  0  0
  -26.1610  -26.6860   19.4150 C   0  0  0  0  0  3  0  0  0  0  0  0
  -25.0090  -27.5100   19.3910 C   0  0  0  0  0  3  0  0  0  0  0  0
  -23.7140  -29.6090   20.0950 C   0  0  0  0  0  2  0  0  0  0  0  0
  -24.6660  -30.8570   22.0740 N   0  0  0  0  0  0  0  0  0  0  0  0
  -23.4210  -31.9020   23.6750 O   0  0  0  0  0  0  0  0  0  0  0  0
  -22.7460  -29.2170   22.4030 C   0  0  0  0  0  0  0  0  0  0  0  0
  -21.4250  -29.0190   22.2410 N   0  0  0  0  0  0  0  0  0  0  0  0
  -23.4120  -28.5900   23.2320 O   0  0  0  0  0  0  0  0  0  0  0  0
  -20.9410  -29.5790   21.5520 H   0  0  0  0  0  0  0  0  0  0  0  0
  -18.0590  -27.7360   22.6690 C   0  0  0  0  0  0  0  0  0  0  0  0
  -20.6110  -28.0410   22.9700 C   0  0  0  0  0  3  0  0  0  0  0  0
  -20.7450  -26.6310   22.3490 C   0  0  0  0  0  2  0  0  0  0  0  0
  -19.6600  -26.3220   21.3110 C   0  0  0  0  0  2  0  0  0  0  0  0
  -18.2690  -26.4160   21.9460 C   0  0  0  0  0  2  0  0  0  0  0  0
  -19.1590  -28.5060   23.1350 C   0  0  0  0  0  0  0  0  0  0  0  0
  -18.9080  -29.7400   23.7740 C   0  0  0  0  0  3  0  0  0  0  0  0
  -17.5910  -30.2080   23.9470 C   0  0  0  0  0  3  0  0  0  0  0  0
  -16.5070  -29.4360   23.4950 C   0  0  0  0  0  3  0  0  0  0  0  0
  -16.7420  -28.2010   22.8630 C   0  0  0  0  0  3  0  0  0  0  0  0
  -25.7670  -32.3280   23.8550 C   0  0  0  0  0  3  0  0  0  0  0  0
  -25.4230  -33.7330   24.1370 N   0  0  0  0  0  0  0  0  0  0  0  0
  -25.7790  -34.7750   23.3740 C   0  0  0  0  0  0  0  0  0  0  0  0
  -26.4920  -34.6560   22.3740 O   0  0  0  0  0  0  0  0  0  0  0  0
  -24.7900  -33.8960   24.9050 H   0  0  0  0  0  0  0  0  0  0  0  0
  -24.0420  -36.5400   22.9270 C   0  0  0  0  0  1  0  0  0  0  0  0
  -25.2640  -36.1700   23.7830 C   0  0  0  0  0  3  0  0  0  0  0  0
  -27.3570  -37.1130   24.6570 C   0  0  0  0  0  1  0  0  0  0  0  0
  -26.2890  -37.2320   23.6690 N   0  0  0  0  0  0  0  0  0  0  0  0
  -25.8680  -38.1530   23.7660 H   0  0  0  0  0  0  0  0  0  0  0  0
  -26.2100  -31.5980   25.1840 C   0  0  1  0  0  0  0  0  0  0  0  0
  -25.0540  -31.3770   26.1890 C   0  0  0  0  0  1  0  0  0  0  0  0
  -26.8310  -30.2170   24.8750 C   0  0  0  0  0  1  0  0  0  0  0  0
  -27.3120  -32.4240   25.8900 C   0  0  0  0  0  1  0  0  0  0  0  0
  -29.1220  -19.7340   19.7730 C   0  0  0  0  0  3  0  0  0  0  0  0
  -26.7870  -19.9560   18.8930 C   0  0  0  0  0  1  0  0  0  0  0  0
  -28.6340  -19.4710   17.3350 C   0  0  0  0  0  1  0  0  0  0  0  0
  -28.1310  -19.3600   18.7260 N   0  0  1  0  0  4  0  0  0  0  0  0
  -27.9810  -18.3750   18.8740 H   0  0  0  0  0  0  0  0  0  0  0  0
  -30.1840  -18.3340   19.8840 C   0  0  0  0  0  2  0  0  0  0  0  0
  -29.8050  -16.6470   20.2040 C   0  0  0  0  0  2  0  0  0  0  0  0
  -30.6270  -15.1820   19.8570 C   0  0  0  0  0  0  0  0  0  0  0  0
  -30.5330  -12.7590   18.9870 C   0  0  0  0  0  2  0  0  0  0  0  0
  -29.5300  -12.6470   17.8120 C   0  0  0  0  0  2  0  0  0  0  0  0
  -28.0970  -12.4170   18.3320 C   0  0  0  0  0  2  0  0  0  0  0  0
  -27.7470  -13.3650   19.5060 C   0  0  0  0  0  3  0  0  0  0  0  0
  -28.8650  -13.4330   20.5670 C   0  0  0  0  0  2  0  0  0  0  0  0
  -30.0890  -13.8770   19.8840 N   0  0  0  0  0  0  0  0  0  0  0  0
  -31.8010  -15.2300   19.4630 O   0  0  0  0  0  0  0  0  0  0  0  0
  -25.4410  -13.9570   20.4360 C   0  0  0  0  0  0  0  0  0  0  0  0
  -24.3910  -13.1920   20.8560 C   0  0  0  0  0  0  0  0  0  0  0  0
  -24.8230  -11.8340   20.7490 C   0  0  0  0  0  0  0  0  0  0  0  0
  -26.4440  -13.0680   20.0910 N   0  0  0  0  0  0  0  0  0  0  0  0
  -26.0880  -11.7830   20.3470 N   0  0  0  0  0  0  0  0  0  0  0  0
  -24.0840  -10.5800   20.9480 C   0  0  0  0  0  0  0  0  0  0  0  0
  -24.5240   -9.5990   21.8630 C   0  0  0  0  0  3  0  0  0  0  0  0
  -23.7820   -8.4120   22.0530 C   0  0  0  0  0  3  0  0  0  0  0  0
  -22.5870   -8.1960   21.3260 C   0  0  0  0  0  0  0  0  0  0  0  0
  -22.1660   -9.1660   20.3990 C   0  0  0  0  0  3  0  0  0  0  0  0
  -22.9070  -10.3450   20.2080 C   0  0  0  0  0  3  0  0  0  0  0  0
  -21.8170   -7.0640   21.4240 O   0  0  0  0  0  0  0  0  0  0  0  0
  -21.7380   -6.3470   22.5920 C   0  0  0  0  0  0  0  0  0  0  0  0
  -21.2510   -6.9210   23.7870 C   0  0  0  0  0  3  0  0  0  0  0  0
  -21.1200   -6.1290   24.9460 C   0  0  0  0  0  3  0  0  0  0  0  0
  -21.4660   -4.7660   24.9110 C   0  0  0  0  0  0  0  0  0  0  0  0
  -21.9460   -4.1910   23.7210 C   0  0  0  0  0  3  0  0  0  0  0  0
  -22.0790   -4.9800   22.5640 C   0  0  0  0  0  0  0  0  0  0  0  0
  -22.5210   -4.4150   21.4140 F   0  0  0  0  0  0  0  0  0  0  0  0
  -21.3340   -4.0030   26.0200 F   0  0  0  0  0  0  0  0  0  0  0  0
  -23.0250  -13.6860   21.2350 C   0  0  0  0  0  0  0  0  0  0  0  0
  -22.3470  -12.9860   22.1380 N   0  0  0  0  0  0  0  0  0  0  0  0
  -22.5700  -14.7300   20.7660 O   0  0  0  0  0  0  0  0  0  0  0  0
  -22.7280  -12.1410   22.5380 H   0  0  0  0  0  0  0  0  0  0  0  0
  -21.4350  -13.3000   22.4350 H   0  0  0  0  0  0  0  0  0  0  0  0
  -25.6190  -15.3300   20.2870 N   0  0  0  0  0  0  0  0  0  0  0  0
  -24.8610  -15.9840   20.4470 H   0  0  0  0  0  0  0  0  0  0  0  0
  -26.4220  -15.7460   19.8390 H   0  0  0  0  0  0  0  0  0  0  0  0
  1  2  1  0
  3  2  1  0
  3  4  1  0
  5 16  2  0
  6  4  1  0
  6 11  1  0
  7 15  1  0
  7 17  1  0
  8 14  1  0
  8 10  1  0
  9 15  1  0
 10 11  2  0
 10  9  1  0
 12  6  2  0
 13 12  1  0
 13  8  2  0
 14  7  1  0
 15  5  1  0
 17 19  2  0
 18 17  1  0
 20 18  1  0
 21 30  2  0
 21 26  1  0
 22 18  1  0
 22 26  1  0
 23 22  1  0
 24 25  1  0
 24 23  1  0
 25 21  1  0
 26 27  2  0
 27 28  1  0
 29 28  2  0
 30 29  1  0
 31  5  1  0
 31 32  1  0
 31 41  1  0
 32 35  1  0
 33 37  1  0
 33 32  1  0
 34 33  2  0
 37 36  1  0
 39 40  1  0
 39 37  1  0
 39 38  1  0
 41 44  1  1
 41 42  1  0
 43 41  1  0
 45  1  1  0
 45 50  1  0
 47 48  1  0
 48 49  1  1
 48 46  1  0
 48 45  1  0
 50 51  1  0
 52 58  1  0
 52 51  1  0
 53 58  1  0
 54 55  1  0
 54 53  1  0
 56 55  1  0
 56 63  1  0
 56 57  1  0
 58 57  1  0
 59 52  2  0
 60 61  2  0
 61 80  1  0
 62 61  1  0
 62 65  1  0
 63 64  1  0
 63 60  1  0
 64 62  2  0
 65 66  1  0
 66 67  2  0
 68 71  1  0
 68 67  1  0
 69 68  2  0
 70 69  1  0
 70 65  2  0
 71 72  1  0
 72 73  1  0
 73 74  2  0
 75 74  1  0
 75 79  1  0
 76 75  2  0
 77 72  2  0
 77 76  1  0
 78 77  1  0
 80 81  1  0
 81 84  1  0
 81 83  1  0
 82 80  2  0
 85 60  1  0
 85 86  1  0
 87 85  1  0
M  ISO  4   3 101   4 101  51 100  52 100
M  END
>  <TORSDO>  (39) 
F 22

>  <SCORE>  (39) 
-15.220

>  <name>  (39) 
38

>  <ligand_id>  (39) 
38

>  <original_smiles>  (39) 
[H]c1c([H])c([H])c2c(c1[H])C([H])([H])C([H])([H])C([H])([H])C2([H])N([H])C(=O)C1([H])N(C(=O)C([H])(N([H])C(=O)C([H])(N([H])C([H])([H])[H])C([H])([H])[H])C(C([H])([H])[H])(C([H])([H])[H])C([H])([H])[H])C([H])([H])c2c([H])c(OC([H])([H])C([H])([H])C([H])([H])C([H])(C([H])([H])C([H])([H])C(=O)N3C([H])([H])C([H])([H])C([H])([H])C([H])(n4nc(-c5c([H])c([H])c(Oc6c([H])c([H])c(F)c([H])c6F)c([H])c5[H])c(C(=O)N([H])[H])c4N([H])[H])C3([H])[H])[N+]([H])(C([H])([H])[H])C([H])([H])[H])c([H])c([H])c2C1([H])[H]

>  <smiles>  (39) 
[H]c1c([H])c([H])c2c(c1[H])C([H])([H])C([H])([H])C([H])([H])C2([H])N([H])C(=O)C1([H])N(C(=O)C([H])(N([H])C(=O)C([H])(N([H])C([H])([H])[H])C([H])([H])[H])C(C([H])([H])[H])(C([H])([H])[H])C([H])([H])[H])C([H])([H])c2c([H])c(OC([H])([H])C([H])([H])C([H])([H])C([H])(C([H])([H])C([H])([H])C(=O)N3C([H])([H])C([H])([H])C([H])([H])C([H])(n4nc(-c5c([H])c([H])c(Oc6c([H])c([H])c(F)c([H])c6F)c([H])c5[H])c(C(=O)N([H])[H])c4N([H])[H])C3([H])[H])[N+]([H])(C([H])([H])[H])C([H])([H])[H])c([H])c([H])c2C1([H])[H]

$$$$
39:0:0
     RDKit          3D

 91101  0  0  1  0  0  0  0  0999 V2000
  -27.4030  -17.9290   16.5200 C   0  0  0  0  0  3  0  0  0  0  0  0
  -27.0640  -19.3170   16.4280 C   0  0  0  0  0  3  0  0  0  0  0  0
  -28.4230  -17.4530   17.3860 C   0  0  0  0  0  3  0  0  0  0  0  0
  -27.7110  -20.3170   17.2080 C   0  0  0  0  0  3  0  0  0  0  0  0
  -29.0570  -18.4460   18.1360 C   0  0  0  0  0  0  0  0  0  0  0  0
  -28.7020  -19.8370   18.0700 C   0  0  0  0  0  0  0  0  0  0  0  0
  -29.9760  -18.6840   21.5390 C   0  0  0  0  0  2  0  0  0  0  0  0
  -29.9610  -20.3830   21.3830 C   0  0  0  0  0  2  0  0  0  0  0  0
  -30.1690  -18.6140   19.1360 C   0  0  0  0  0  3  0  0  0  0  0  0
  -29.7500  -20.3110   19.0540 C   0  0  0  0  0  3  0  0  0  0  0  0
  -30.0490  -17.5390   20.3520 C   0  0  0  0  0  3  0  0  0  0  0  0
  -29.2230  -21.3220   20.2320 C   0  0  0  0  0  3  0  0  0  0  0  0
  -30.8960  -15.9630   20.3590 C   0  0  0  0  0  0  0  0  0  0  0  0
  -30.9880  -13.4840   19.5360 C   0  0  0  0  0  2  0  0  0  0  0  0
  -30.1070  -13.2160   18.2860 C   0  0  0  0  0  2  0  0  0  0  0  0
  -28.6570  -12.9060   18.6930 C   0  0  0  0  0  2  0  0  0  0  0  0
  -28.1430  -13.8820   19.7770 C   0  0  0  0  0  3  0  0  0  0  0  0
  -29.1520  -14.0900   20.9240 C   0  0  0  0  0  2  0  0  0  0  0  0
  -30.3910  -14.6230   20.3340 N   0  0  0  0  0  0  0  0  0  0  0  0
  -32.1250  -15.9610   20.1820 O   0  0  0  0  0  0  0  0  0  0  0  0
  -25.7690  -14.3940   20.5460 C   0  0  0  0  0  0  0  0  0  0  0  0
  -24.7050  -13.5970   20.8630 C   0  0  0  0  0  0  0  0  0  0  0  0
  -25.1750  -12.2500   20.7670 C   0  0  0  0  0  0  0  0  0  0  0  0
  -26.8150  -13.5350   20.2630 N   0  0  0  0  0  0  0  0  0  0  0  0
  -26.4710  -12.2360   20.4660 N   0  0  0  0  0  0  0  0  0  0  0  0
  -24.4490  -10.9800   20.8810 C   0  0  0  0  0  0  0  0  0  0  0  0
  -24.8200   -9.9960   21.8240 C   0  0  0  0  0  3  0  0  0  0  0  0
  -24.0890   -8.7920   21.9280 C   0  0  0  0  0  3  0  0  0  0  0  0
  -22.9730   -8.5630   21.0900 C   0  0  0  0  0  0  0  0  0  0  0  0
  -22.6210   -9.5360   20.1380 C   0  0  0  0  0  3  0  0  0  0  0  0
  -23.3530  -10.7320   20.0320 C   0  0  0  0  0  3  0  0  0  0  0  0
  -22.2200   -7.4120   21.1020 O   0  0  0  0  0  0  0  0  0  0  0  0
  -22.0000   -6.7100   22.2600 C   0  0  0  0  0  0  0  0  0  0  0  0
  -21.3790   -7.3010   23.3820 C   0  0  0  0  0  3  0  0  0  0  0  0
  -21.1060   -6.5240   24.5260 C   0  0  0  0  0  3  0  0  0  0  0  0
  -21.4470   -5.1580   24.5480 C   0  0  0  0  0  0  0  0  0  0  0  0
  -22.0590   -4.5670   23.4290 C   0  0  0  0  0  3  0  0  0  0  0  0
  -22.3320   -5.3410   22.2880 C   0  0  0  0  0  0  0  0  0  0  0  0
  -22.9040   -4.7600   21.2050 F   0  0  0  0  0  0  0  0  0  0  0  0
  -21.1780   -4.4110   25.6450 F   0  0  0  0  0  0  0  0  0  0  0  0
  -23.3040  -14.0580   21.1390 C   0  0  0  0  0  0  0  0  0  0  0  0
  -22.5680  -13.3240   21.9640 N   0  0  0  0  0  0  0  0  0  0  0  0
  -22.8720  -15.1060   20.6600 O   0  0  0  0  0  0  0  0  0  0  0  0
  -22.9280  -12.4730   22.3720 H   0  0  0  0  0  0  0  0  0  0  0  0
  -21.6300  -13.6190   22.1940 H   0  0  0  0  0  0  0  0  0  0  0  0
  -25.9310  -15.7730   20.4430 N   0  0  0  0  0  0  0  0  0  0  0  0
  -25.1600  -16.4170   20.5750 H   0  0  0  0  0  0  0  0  0  0  0  0
  -26.7770  -16.2310   20.1270 H   0  0  0  0  0  0  0  0  0  0  0  0
  -29.3830  -23.1660   20.1660 C   0  0  0  0  0  3  0  0  0  0  0  0
  -28.3260  -24.6680   20.0540 C   0  0  0  0  0  3  0  0  0  0  0  0
  -28.5350  -26.3300   20.1960 O   0  0  0  0  0  0  0  0  0  0  0  0
  -24.8400  -32.0770   23.5640 C   0  0  0  0  0  0  0  0  0  0  0  0
  -27.5130  -27.4370   20.2170 C   0  0  0  0  0  0  0  0  0  0  0  0
  -23.6970  -30.7870   21.8080 C   0  0  0  0  0  3  0  0  0  0  0  0
  -25.1900  -29.3120   20.2890 C   0  0  0  0  0  0  0  0  0  0  0  0
  -26.2630  -31.0370   21.7200 C   0  0  0  0  0  2  0  0  0  0  0  0
  -26.3650  -29.6780   20.9560 C   0  0  0  0  0  0  0  0  0  0  0  0
  -27.5210  -28.7650   20.8940 C   0  0  0  0  0  3  0  0  0  0  0  0
  -26.3000  -27.2390   19.5200 C   0  0  0  0  0  3  0  0  0  0  0  0
  -25.1850  -28.1180   19.5520 C   0  0  0  0  0  3  0  0  0  0  0  0
  -23.9570  -30.2140   20.3880 C   0  0  0  0  0  2  0  0  0  0  0  0
  -24.9550  -31.3250   22.4190 N   0  0  0  0  0  0  0  0  0  0  0  0
  -23.7370  -32.3090   24.0860 O   0  0  0  0  0  0  0  0  0  0  0  0
  -23.0010  -29.7130   22.6860 C   0  0  0  0  0  0  0  0  0  0  0  0
  -21.6840  -29.5120   22.4990 N   0  0  0  0  0  0  0  0  0  0  0  0
  -23.6580  -29.0630   23.5020 O   0  0  0  0  0  0  0  0  0  0  0  0
  -21.2070  -30.0920   21.8240 H   0  0  0  0  0  0  0  0  0  0  0  0
  -18.3350  -28.1450   22.8030 C   0  0  0  0  0  0  0  0  0  0  0  0
  -20.8690  -28.4970   23.1800 C   0  0  0  0  0  3  0  0  0  0  0  0
  -21.0520  -27.1080   22.5270 C   0  0  0  0  0  2  0  0  0  0  0  0
  -20.0020  -26.8050   21.4520 C   0  0  0  0  0  2  0  0  0  0  0  0
  -18.5930  -26.8510   22.0490 C   0  0  0  0  0  2  0  0  0  0  0  0
  -19.4040  -28.9250   23.3180 C   0  0  0  0  0  0  0  0  0  0  0  0
  -19.1070  -30.1340   23.9860 C   0  0  0  0  0  3  0  0  0  0  0  0
  -17.7760  -30.5660   24.1380 C   0  0  0  0  0  3  0  0  0  0  0  0
  -16.7210  -29.7840   23.6360 C   0  0  0  0  0  3  0  0  0  0  0  0
  -17.0010  -28.5740   22.9760 C   0  0  0  0  0  3  0  0  0  0  0  0
  -26.0860  -32.6940   24.2670 C   0  0  0  0  0  3  0  0  0  0  0  0
  -25.7560  -34.0800   24.6440 N   0  0  0  0  0  0  0  0  0  0  0  0
  -26.1080  -35.1710   23.9510 C   0  0  0  0  0  0  0  0  0  0  0  0
  -26.8040  -35.1160   22.9340 O   0  0  0  0  0  0  0  0  0  0  0  0
  -25.1350  -34.1950   25.4320 H   0  0  0  0  0  0  0  0  0  0  0  0
  -24.3790  -36.9800   23.6580 C   0  0  0  0  0  1  0  0  0  0  0  0
  -25.6120  -36.5390   24.4630 C   0  0  0  0  0  3  0  0  0  0  0  0
  -27.7300  -37.3950   25.3630 C   0  0  0  0  0  1  0  0  0  0  0  0
  -26.6420  -37.5990   24.4100 N   0  0  0  0  0  0  0  0  0  0  0  0
  -26.2310  -38.5100   24.5940 H   0  0  0  0  0  0  0  0  0  0  0  0
  -26.5420  -31.8830   25.5440 C   0  0  1  0  0  0  0  0  0  0  0  0
  -25.4000  -31.6180   26.5560 C   0  0  0  0  0  1  0  0  0  0  0  0
  -27.1390  -30.5150   25.1470 C   0  0  0  0  0  1  0  0  0  0  0  0
  -27.6630  -32.6540   26.2800 C   0  0  0  0  0  1  0  0  0  0  0  0
  1  3  1  0
  2  1  2  0
  2  4  1  0
  3  5  2  0
  4  6  2  0
  6  5  1  0
  8  7  1  0
  9  5  1  0
  9 11  1  0
 10  6  1  0
 10  9  1  0
 10 12  1  0
 11 13  1  0
 11  7  1  0
 12 49  1  0
 12  8  1  0
 14 19  1  0
 15 16  1  0
 15 14  1  0
 17 16  1  0
 17 24  1  0
 17 18  1  0
 19 13  1  0
 19 18  1  0
 20 13  2  0
 21 22  2  0
 22 41  1  0
 23 22  1  0
 23 26  1  0
 24 25  1  0
 24 21  1  0
 25 23  2  0
 26 27  1  0
 27 28  2  0
 29 32  1  0
 29 28  1  0
 30 29  2  0
 31 30  1  0
 31 26  2  0
 32 33  1  0
 33 38  2  0
 33 34  1  0
 34 35  2  0
 35 36  1  0
 36 40  1  0
 37 36  2  0
 38 37  1  0
 39 38  1  0
 41 42  1  0
 42 45  1  0
 42 44  1  0
 43 41  2  0
 46 21  1  0
 46 47  1  0
 48 46  1  0
 50 49  2  0
 50 51  1  0
 51 53  1  0
 52 63  2  0
 53 58  1  0
 54 62  1  0
 54 64  1  0
 55 61  1  0
 55 57  1  0
 56 62  1  0
 57 56  1  0
 58 57  2  0
 59 60  1  0
 59 53  2  0
 60 55  2  0
 61 54  1  0
 62 52  1  0
 64 66  2  0
 65 64  1  0
 67 65  1  0
 68 77  2  0
 68 73  1  0
 69 65  1  0
 69 73  1  0
 70 69  1  0
 71 72  1  0
 71 70  1  0
 72 68  1  0
 73 74  2  0
 74 75  1  0
 76 75  2  0
 77 76  1  0
 78 52  1  0
 78 79  1  0
 78 88  1  0
 79 82  1  0
 80 84  1  0
 80 79  1  0
 81 80  2  0
 84 83  1  0
 86 84  1  0
 86 87  1  0
 86 85  1  0
 88 91  1  1
 88 89  1  0
 90 88  1  0
M  ISO  4  11 100  13 100  50 101  51 101
M  END
>  <TORSDO>  (40) 
F 18

>  <SCORE>  (40) 
-12.186

>  <name>  (40) 
39

>  <ligand_id>  (40) 
39

>  <original_smiles>  (40) 
[H]c1c([H])c([H])c2c(c1[H])C([H])([H])C([H])([H])C([H])([H])C2([H])N([H])C(=O)C1([H])N(C(=O)C([H])(N([H])C(=O)C([H])(N([H])C([H])([H])[H])C([H])([H])[H])C(C([H])([H])[H])(C([H])([H])[H])C([H])([H])[H])C([H])([H])c2c([H])c(OC([H])([H])C([H])([H])C3([H])C([H])([H])C([H])([H])C([H])(C(=O)N4C([H])([H])C([H])([H])C([H])([H])C([H])(n5nc(-c6c([H])c([H])c(Oc7c([H])c([H])c(F)c([H])c7F)c([H])c6[H])c(C(=O)N([H])[H])c5N([H])[H])C4([H])[H])C4([H])c5c([H])c([H])c([H])c([H])c5C43[H])c([H])c([H])c2C1([H])[H]

>  <smiles>  (40) 
[H]c1c([H])c([H])c2c(c1[H])C([H])([H])C([H])([H])C([H])([H])C2([H])N([H])C(=O)C1([H])N(C(=O)C([H])(N([H])C(=O)C([H])(N([H])C([H])([H])[H])C([H])([H])[H])C(C([H])([H])[H])(C([H])([H])[H])C([H])([H])[H])C([H])([H])c2c([H])c(OC([H])([H])C([H])([H])C3([H])C([H])([H])C([H])([H])C([H])(C(=O)N4C([H])([H])C([H])([H])C([H])([H])C([H])(n5nc(-c6c([H])c([H])c(Oc7c([H])c([H])c(F)c([H])c7F)c([H])c6[H])c(C(=O)N([H])[H])c5N([H])[H])C4([H])[H])C4([H])c5c([H])c([H])c([H])c([H])c5C43[H])c([H])c([H])c2C1([H])[H]

$$$$
40:0:0
     RDKit          3D

 94101  0  0  1  0  0  0  0  0999 V2000
  -28.8190  -22.4850   20.8340 C   0  0  0  0  0  3  0  0  0  0  0  0
  -31.2990  -22.2980   20.3280 C   0  0  0  0  0  1  0  0  0  0  0  0
  -30.4490  -21.6880   22.5620 C   0  0  0  0  0  1  0  0  0  0  0  0
  -30.1370  -21.8240   21.1190 N   0  0  1  0  0  4  0  0  0  0  0  0
  -30.0080  -20.8650   20.8250 H   0  0  0  0  0  0  0  0  0  0  0  0
  -26.5460  -21.3160   20.3880 C   0  0  0  0  0  1  0  0  0  0  0  0
  -27.9260  -21.6800   19.8100 C   0  0  0  0  0  3  0  0  0  0  0  0
  -28.5800  -20.4580   19.1270 C   0  0  0  0  0  0  0  0  0  0  0  0
  -28.5950  -19.2770   19.7780 N   0  0  0  0  0  0  0  0  0  0  0  0
  -29.1020  -20.6010   18.0220 O   0  0  0  0  0  0  0  0  0  0  0  0
  -28.0580  -19.1770   20.6300 H   0  0  0  0  0  0  0  0  0  0  0  0
  -29.2640  -18.0860   19.2540 C   0  0  0  0  0  2  0  0  0  0  0  0
  -29.8160  -17.1310   20.3400 C   0  0  0  0  0  2  0  0  0  0  0  0
  -30.7810  -16.1320   19.6770 C   0  0  0  0  0  2  0  0  0  0  0  0
  -31.4810  -15.0480   20.5250 C   0  0  0  0  0  0  0  0  0  0  0  0
  -31.2970  -12.7080   19.9100 C   0  0  0  0  0  2  0  0  0  0  0  0
  -30.4860  -12.6940   18.5950 C   0  0  0  0  0  2  0  0  0  0  0  0
  -28.9740  -12.6250   18.8940 C   0  0  0  0  0  2  0  0  0  0  0  0
  -28.5050  -13.6680   19.9440 C   0  0  0  0  0  3  0  0  0  0  0  0
  -29.4570  -13.7070   21.1590 C   0  0  0  0  0  2  0  0  0  0  0  0
  -30.8390  -13.8650   20.6870 N   0  0  0  0  0  0  0  0  0  0  0  0
  -32.7070  -15.1460   20.5570 O   0  0  0  0  0  0  0  0  0  0  0  0
  -26.1010  -14.3940   20.4950 C   0  0  0  0  0  0  0  0  0  0  0  0
  -24.9720  -13.6720   20.7770 C   0  0  0  0  0  0  0  0  0  0  0  0
  -25.3720  -12.3020   20.7750 C   0  0  0  0  0  0  0  0  0  0  0  0
  -27.1170  -13.4610   20.3350 N   0  0  0  0  0  0  0  0  0  0  0  0
  -26.6770  -12.1990   20.5660 N   0  0  0  0  0  0  0  0  0  0  0  0
  -24.5780  -11.0750   20.9000 C   0  0  0  0  0  0  0  0  0  0  0  0
  -24.8750  -10.1030   21.8800 C   0  0  0  0  0  3  0  0  0  0  0  0
  -24.0840   -8.9400   21.9960 C   0  0  0  0  0  3  0  0  0  0  0  0
  -22.9850   -8.7420   21.1260 C   0  0  0  0  0  0  0  0  0  0  0  0
  -22.7090   -9.7020   20.1360 C   0  0  0  0  0  3  0  0  0  0  0  0
  -23.5020  -10.8570   20.0210 C   0  0  0  0  0  3  0  0  0  0  0  0
  -22.1750   -7.6320   21.1490 O   0  0  0  0  0  0  0  0  0  0  0  0
  -21.9500   -6.9310   22.3060 C   0  0  0  0  0  0  0  0  0  0  0  0
  -21.3580   -7.5290   23.4400 C   0  0  0  0  0  3  0  0  0  0  0  0
  -21.0800   -6.7530   24.5820 C   0  0  0  0  0  3  0  0  0  0  0  0
  -21.3850   -5.3770   24.5910 C   0  0  0  0  0  0  0  0  0  0  0  0
  -21.9670   -4.7780   23.4590 C   0  0  0  0  0  3  0  0  0  0  0  0
  -22.2460   -5.5520   22.3200 C   0  0  0  0  0  0  0  0  0  0  0  0
  -22.7890   -4.9660   21.2270 F   0  0  0  0  0  0  0  0  0  0  0  0
  -21.1120   -4.6300   25.6840 F   0  0  0  0  0  0  0  0  0  0  0  0
  -23.5830  -14.2140   20.9470 C   0  0  0  0  0  0  0  0  0  0  0  0
  -22.7610  -13.5520   21.7560 N   0  0  0  0  0  0  0  0  0  0  0  0
  -23.2310  -15.2590   20.4030 O   0  0  0  0  0  0  0  0  0  0  0  0
  -23.0530  -12.7010   22.2170 H   0  0  0  0  0  0  0  0  0  0  0  0
  -21.8250  -13.8970   21.9170 H   0  0  0  0  0  0  0  0  0  0  0  0
  -26.3380  -15.7560   20.3340 N   0  0  0  0  0  0  0  0  0  0  0  0
  -25.5900  -16.4370   20.3790 H   0  0  0  0  0  0  0  0  0  0  0  0
  -27.2270  -16.1560   20.0710 H   0  0  0  0  0  0  0  0  0  0  0  0
  -28.9110  -24.0140   20.5130 C   0  0  0  0  0  2  0  0  0  0  0  0
  -29.6240  -24.8840   21.5840 C   0  0  0  0  0  2  0  0  0  0  0  0
  -29.0130  -26.2740   21.8200 C   0  0  0  0  0  2  0  0  0  0  0  0
  -28.9370  -27.0270   20.6120 O   0  0  0  0  0  0  0  0  0  0  0  0
  -24.7570  -32.0260   23.4710 C   0  0  0  0  0  0  0  0  0  0  0  0
  -27.7770  -27.7490   20.5330 C   0  0  0  0  0  0  0  0  0  0  0  0
  -23.7160  -30.5780   21.7570 C   0  0  0  0  0  3  0  0  0  0  0  0
  -25.3240  -29.1220   20.4130 C   0  0  0  0  0  0  0  0  0  0  0  0
  -26.2280  -31.0590   21.7130 C   0  0  0  0  0  2  0  0  0  0  0  0
  -26.4160  -29.7000   21.0750 C   0  0  0  0  0  0  0  0  0  0  0  0
  -27.6480  -29.0170   21.1400 C   0  0  0  0  0  3  0  0  0  0  0  0
  -26.6800  -27.1810   19.8620 C   0  0  0  0  0  3  0  0  0  0  0  0
  -25.4490  -27.8610   19.8020 C   0  0  0  0  0  3  0  0  0  0  0  0
  -24.0400  -29.9210   20.3880 C   0  0  0  0  0  2  0  0  0  0  0  0
  -24.9130  -31.2370   22.3710 N   0  0  0  0  0  0  0  0  0  0  0  0
  -23.6340  -32.2410   23.9450 O   0  0  0  0  0  0  0  0  0  0  0  0
  -23.0590  -29.5210   22.6720 C   0  0  0  0  0  0  0  0  0  0  0  0
  -21.7480  -29.3020   22.4820 N   0  0  0  0  0  0  0  0  0  0  0  0
  -23.7260  -28.9030   23.5050 O   0  0  0  0  0  0  0  0  0  0  0  0
  -21.2760  -29.8550   21.7800 H   0  0  0  0  0  0  0  0  0  0  0  0
  -18.3740  -28.0620   22.8610 C   0  0  0  0  0  0  0  0  0  0  0  0
  -20.9230  -28.3280   23.1990 C   0  0  0  0  0  3  0  0  0  0  0  0
  -21.0510  -26.9220   22.5710 C   0  0  0  0  0  2  0  0  0  0  0  0
  -19.9760  -26.6250   21.5240 C   0  0  0  0  0  2  0  0  0  0  0  0
  -18.5780  -26.7430   22.1350 C   0  0  0  0  0  2  0  0  0  0  0  0
  -19.4760  -28.8130   23.3470 C   0  0  0  0  0  0  0  0  0  0  0  0
  -19.2330  -30.0500   23.9810 C   0  0  0  0  0  3  0  0  0  0  0  0
  -17.9210  -30.5370   24.1350 C   0  0  0  0  0  3  0  0  0  0  0  0
  -16.8320  -29.7800   23.6670 C   0  0  0  0  0  3  0  0  0  0  0  0
  -17.0600  -28.5450   23.0350 C   0  0  0  0  0  3  0  0  0  0  0  0
  -25.9740  -32.7080   24.1680 C   0  0  0  0  0  3  0  0  0  0  0  0
  -26.3940  -32.0040   25.5180 C   0  0  1  0  0  0  0  0  0  0  0  0
  -25.2130  -31.7560   26.4830 C   0  0  0  0  0  1  0  0  0  0  0  0
  -27.0670  -30.6410   25.2320 C   0  0  0  0  0  1  0  0  0  0  0  0
  -27.4430  -32.8690   26.2530 C   0  0  0  0  0  1  0  0  0  0  0  0
  -25.6140  -34.1130   24.4040 N   0  0  0  0  0  0  0  0  0  0  0  0
  -25.9850  -35.1340   23.6200 C   0  0  0  0  0  0  0  0  0  0  0  0
  -26.7340  -34.9950   22.6490 O   0  0  0  0  0  0  0  0  0  0  0  0
  -24.9610  -34.2940   25.1510 H   0  0  0  0  0  0  0  0  0  0  0  0
  -24.2480  -36.8620   23.0530 C   0  0  0  0  0  1  0  0  0  0  0  0
  -25.4400  -36.5320   23.9680 C   0  0  0  0  0  3  0  0  0  0  0  0
  -27.4890  -37.5150   24.8990 C   0  0  0  0  0  1  0  0  0  0  0  0
  -26.4570  -37.6030   23.8680 N   0  0  0  0  0  0  0  0  0  0  0  0
  -26.0220  -38.5190   23.9310 H   0  0  0  0  0  0  0  0  0  0  0  0
  1 51  1  0
  1  4  1  0
  2  4  1  0
  4  3  1  0
  4  5  1  6
  7  6  1  0
  7  1  1  0
  8  9  1  0
  8  7  1  0
  9 11  1  0
 10  8  2  0
 12  9  1  0
 12 13  1  0
 14 13  1  0
 14 15  1  0
 15 22  2  0
 15 21  1  0
 16 21  1  0
 17 18  1  0
 17 16  1  0
 19 18  1  0
 19 26  1  0
 19 20  1  0
 21 20  1  0
 23 24  2  0
 24 43  1  0
 25 24  1  0
 25 28  1  0
 26 23  1  0
 26 27  1  0
 27 25  2  0
 28 29  1  0
 29 30  2  0
 31 34  1  0
 31 30  1  0
 32 31  2  0
 33 32  1  0
 33 28  2  0
 34 35  1  0
 35 40  2  0
 35 36  1  0
 36 37  2  0
 37 38  1  0
 38 42  1  0
 39 38  2  0
 40 39  1  0
 41 40  1  0
 43 44  1  0
 44 47  1  0
 44 46  1  0
 45 43  2  0
 48 49  1  0
 48 23  1  0
 50 48  1  0
 51 52  1  0
 52 53  1  0
 54 53  1  0
 55 66  2  0
 56 54  1  0
 56 61  1  0
 57 65  1  0
 57 67  1  0
 58 60  1  0
 59 65  1  0
 60 61  2  0
 60 59  1  0
 62 56  2  0
 63 62  1  0
 63 58  2  0
 64 58  1  0
 64 57  1  0
 65 55  1  0
 67 69  2  0
 68 67  1  0
 70 68  1  0
 71 80  2  0
 71 76  1  0
 72 68  1  0
 72 76  1  0
 73 72  1  0
 74 75  1  0
 74 73  1  0
 75 71  1  0
 76 77  2  0
 77 78  1  0
 79 78  2  0
 80 79  1  0
 81 55  1  0
 81 86  1  0
 81 82  1  0
 82 85  1  1
 82 83  1  0
 84 82  1  0
 86 89  1  0
 87 91  1  0
 87 86  1  0
 88 87  2  0
 91 90  1  0
 93 94  1  0
 93 91  1  0
 93 92  1  0
M  ISO  4  14 100  15 100  53 101  54 101
M  END
>  <TORSDO>  (41) 
F 25

>  <SCORE>  (41) 
-10.249

>  <name>  (41) 
40

>  <ligand_id>  (41) 
40

>  <original_smiles>  (41) 
[H]c1c([H])c([H])c2c(c1[H])C([H])([H])C([H])([H])C([H])([H])C2([H])N([H])C(=O)C1([H])N(C(=O)C([H])(N([H])C(=O)C([H])(N([H])C([H])([H])[H])C([H])([H])[H])C(C([H])([H])[H])(C([H])([H])[H])C([H])([H])[H])C([H])([H])c2c([H])c(OC([H])([H])C([H])([H])C([H])([H])C([H])(C([H])(C(=O)N([H])C([H])([H])C([H])([H])C([H])([H])C(=O)N3C([H])([H])C([H])([H])C([H])([H])C([H])(n4nc(-c5c([H])c([H])c(Oc6c([H])c([H])c(F)c([H])c6F)c([H])c5[H])c(C(=O)N([H])[H])c4N([H])[H])C3([H])[H])C([H])([H])[H])[N+]([H])(C([H])([H])[H])C([H])([H])[H])c([H])c([H])c2C1([H])[H]

>  <smiles>  (41) 
[H]c1c([H])c([H])c2c(c1[H])C([H])([H])C([H])([H])C([H])([H])C2([H])N([H])C(=O)C1([H])N(C(=O)C([H])(N([H])C(=O)C([H])(N([H])C([H])([H])[H])C([H])([H])[H])C(C([H])([H])[H])(C([H])([H])[H])C([H])([H])[H])C([H])([H])c2c([H])c(OC([H])([H])C([H])([H])C([H])([H])C([H])(C([H])(C(=O)N([H])C([H])([H])C([H])([H])C([H])([H])C(=O)N3C([H])([H])C([H])([H])C([H])([H])C([H])(n4nc(-c5c([H])c([H])c(Oc6c([H])c([H])c(F)c([H])c6F)c([H])c5[H])c(C(=O)N([H])[H])c4N([H])[H])C3([H])[H])C([H])([H])[H])[N+]([H])(C([H])([H])[H])C([H])([H])[H])c([H])c([H])c2C1([H])[H]

$$$$
41:0:0
     RDKit          3D

 98107  0  0  1  0  0  0  0  0999 V2000
  -30.5300  -20.8680   20.6400 C   0  0  0  0  0  2  0  0  0  0  0  0
  -29.3680  -21.8110   20.2920 C   0  0  0  0  0  2  0  0  0  0  0  0
  -30.7600  -23.6140   23.2880 C   0  0  0  0  0  2  0  0  0  0  0  0
  -29.6610  -24.6560   23.5760 C   0  0  0  0  0  2  0  0  0  0  0  0
  -31.1060  -21.3430   21.9980 C   0  0  0  0  0  3  0  0  0  0  0  0
  -30.1740  -22.5000   22.4140 C   0  0  0  0  0  3  0  0  0  0  0  0
  -29.6600  -23.0760   21.1000 C   0  0  0  0  0  3  0  0  0  0  0  0
  -28.9910  -25.2060   22.2910 C   0  0  0  0  0  3  0  0  0  0  0  0
  -28.4950  -24.0530   21.3650 C   0  0  0  0  0  3  0  0  0  0  0  0
  -27.8720  -26.1920   22.6700 C   0  0  0  0  0  1  0  0  0  0  0  0
  -31.1830  -20.1940   23.0170 C   0  0  0  0  0  0  0  0  0  0  0  0
  -32.0330  -19.2030   22.7280 N   0  0  0  0  0  0  0  0  0  0  0  0
  -30.4680  -20.1730   24.0210 O   0  0  0  0  0  0  0  0  0  0  0  0
  -32.6060  -19.3020   21.9000 H   0  0  0  0  0  0  0  0  0  0  0  0
  -32.0920  -17.9240   23.4290 C   0  0  0  0  0  2  0  0  0  0  0  0
  -30.9610  -16.9830   22.9680 C   0  0  0  0  0  2  0  0  0  0  0  0
  -30.9840  -16.6880   21.4560 C   0  0  0  0  0  2  0  0  0  0  0  0
  -29.6780  -16.0340   20.9560 C   0  0  0  0  0  2  0  0  0  0  0  0
  -29.8520  -15.2030   19.6750 C   0  0  0  0  0  0  0  0  0  0  0  0
  -29.6650  -12.9750   18.6270 C   0  0  0  0  0  2  0  0  0  0  0  0
  -28.5660  -12.8680   17.5610 C   0  0  0  0  0  2  0  0  0  0  0  0
  -27.2130  -12.5330   18.2120 C   0  0  0  0  0  2  0  0  0  0  0  0
  -26.8780  -13.4750   19.3960 C   0  0  0  0  0  3  0  0  0  0  0  0
  -28.0700  -13.5820   20.3760 C   0  0  0  0  0  2  0  0  0  0  0  0
  -29.2650  -13.9830   19.6150 N   0  0  0  0  0  0  0  0  0  0  0  0
  -30.6120  -15.6180   18.7910 O   0  0  0  0  0  0  0  0  0  0  0  0
  -24.5890  -13.8240   20.5280 C   0  0  0  0  0  0  0  0  0  0  0  0
  -23.6670  -12.9380   21.0170 C   0  0  0  0  0  0  0  0  0  0  0  0
  -24.2270  -11.6380   20.8230 C   0  0  0  0  0  0  0  0  0  0  0  0
  -25.6520  -13.0560   20.0740 N   0  0  0  0  0  0  0  0  0  0  0  0
  -25.4450  -11.7350   20.3030 N   0  0  0  0  0  0  0  0  0  0  0  0
  -23.6530  -10.3050   21.0480 C   0  0  0  0  0  0  0  0  0  0  0  0
  -24.1520   -9.4470   22.0520 C   0  0  0  0  0  3  0  0  0  0  0  0
  -23.5720   -8.1760   22.2630 C   0  0  0  0  0  3  0  0  0  0  0  0
  -22.4790   -7.7560   21.4680 C   0  0  0  0  0  0  0  0  0  0  0  0
  -22.0010   -8.6050   20.4550 C   0  0  0  0  0  3  0  0  0  0  0  0
  -22.5820   -9.8660   20.2430 C   0  0  0  0  0  3  0  0  0  0  0  0
  -21.8700   -6.5300   21.5820 O   0  0  0  0  0  0  0  0  0  0  0  0
  -21.6920   -5.9260   22.8010 C   0  0  0  0  0  0  0  0  0  0  0  0
  -20.9100   -6.5150   23.8180 C   0  0  0  0  0  3  0  0  0  0  0  0
  -20.6970   -5.8280   25.0310 C   0  0  0  0  0  3  0  0  0  0  0  0
  -21.2550   -4.5500   25.2230 C   0  0  0  0  0  0  0  0  0  0  0  0
  -22.0300   -3.9600   24.2100 C   0  0  0  0  0  3  0  0  0  0  0  0
  -22.2450   -4.6440   23.0000 C   0  0  0  0  0  0  0  0  0  0  0  0
  -22.9740   -4.0620   22.0190 F   0  0  0  0  0  0  0  0  0  0  0  0
  -21.0450   -3.8860   26.3840 F   0  0  0  0  0  0  0  0  0  0  0  0
  -22.3020  -13.2670   21.5500 C   0  0  0  0  0  0  0  0  0  0  0  0
  -21.7840  -12.4470   22.4570 N   0  0  0  0  0  0  0  0  0  0  0  0
  -21.7060  -14.2840   21.1980 O   0  0  0  0  0  0  0  0  0  0  0  0
  -22.2810  -11.6240   22.7620 H   0  0  0  0  0  0  0  0  0  0  0  0
  -20.8780  -12.6470   22.8550 H   0  0  0  0  0  0  0  0  0  0  0  0
  -24.6060  -15.2110   20.4150 N   0  0  0  0  0  0  0  0  0  0  0  0
  -23.8200  -15.7880   20.6950 H   0  0  0  0  0  0  0  0  0  0  0  0
  -25.3610  -15.7430   19.9990 H   0  0  0  0  0  0  0  0  0  0  0  0
  -27.8200  -24.5240   20.0560 C   0  0  0  0  0  2  0  0  0  0  0  0
  -28.5980  -25.5740   19.2370 C   0  0  0  0  0  2  0  0  0  0  0  0
  -27.7510  -26.1510   18.0920 C   0  0  0  0  0  2  0  0  0  0  0  0
  -27.8080  -27.5780   18.1280 O   0  0  0  0  0  0  0  0  0  0  0  0
  -24.6910  -31.4860   23.1710 C   0  0  0  0  0  0  0  0  0  0  0  0
  -26.6620  -28.2270   18.5270 C   0  0  0  0  0  0  0  0  0  0  0  0
  -23.1900  -30.6100   21.4090 C   0  0  0  0  0  3  0  0  0  0  0  0
  -24.3440  -29.5970   19.3770 C   0  0  0  0  0  0  0  0  0  0  0  0
  -25.6580  -31.0660   20.9150 C   0  0  0  0  0  2  0  0  0  0  0  0
  -25.5950  -29.9500   19.8950 C   0  0  0  0  0  0  0  0  0  0  0  0
  -26.7590  -29.2730   19.4690 C   0  0  0  0  0  3  0  0  0  0  0  0
  -25.3940  -27.8930   18.0000 C   0  0  0  0  0  3  0  0  0  0  0  0
  -24.2360  -28.5650   18.4290 C   0  0  0  0  0  3  0  0  0  0  0  0
  -23.1480  -30.3740   19.8760 C   0  0  0  0  0  2  0  0  0  0  0  0
  -24.5410  -31.0500   21.8870 N   0  0  0  0  0  0  0  0  0  0  0  0
  -23.7220  -31.5630   23.9370 O   0  0  0  0  0  0  0  0  0  0  0  0
  -22.6740  -29.3360   22.1170 C   0  0  0  0  0  0  0  0  0  0  0  0
  -21.3530  -29.1110   22.0550 N   0  0  0  0  0  0  0  0  0  0  0  0
  -23.4570  -28.5660   22.6790 O   0  0  0  0  0  0  0  0  0  0  0  0
  -20.7780  -29.7950   21.5830 H   0  0  0  0  0  0  0  0  0  0  0  0
  -18.1160  -27.5290   22.3180 C   0  0  0  0  0  0  0  0  0  0  0  0
  -20.6480  -27.9590   22.6160 C   0  0  0  0  0  3  0  0  0  0  0  0
  -20.8610  -26.6980   21.7470 C   0  0  0  0  0  2  0  0  0  0  0  0
  -19.7630  -26.4950   20.6990 C   0  0  0  0  0  2  0  0  0  0  0  0
  -18.3940  -26.3720   21.3710 C   0  0  0  0  0  2  0  0  0  0  0  0
  -19.1750  -28.2830   22.8900 C   0  0  0  0  0  0  0  0  0  0  0  0
  -18.8620  -29.3690   23.7360 C   0  0  0  0  0  3  0  0  0  0  0  0
  -17.5220  -29.7010   24.0150 C   0  0  0  0  0  3  0  0  0  0  0  0
  -16.4790  -28.9400   23.4600 C   0  0  0  0  0  3  0  0  0  0  0  0
  -16.7770  -27.8560   22.6160 C   0  0  0  0  0  3  0  0  0  0  0  0
  -26.0800  -31.9270   23.7260 C   0  0  0  0  0  3  0  0  0  0  0  0
  -25.8910  -33.2080   24.4200 N   0  0  0  0  0  0  0  0  0  0  0  0
  -26.2050  -34.4040   23.9040 C   0  0  0  0  0  0  0  0  0  0  0  0
  -26.7590  -34.5370   22.8090 O   0  0  0  0  0  0  0  0  0  0  0  0
  -25.3940  -33.1790   25.2980 H   0  0  0  0  0  0  0  0  0  0  0  0
  -24.5570  -36.2810   24.1880 C   0  0  0  0  0  1  0  0  0  0  0  0
  -25.8480  -35.6500   24.7360 C   0  0  0  0  0  3  0  0  0  0  0  0
  -28.0980  -36.2380   25.5220 C   0  0  0  0  0  1  0  0  0  0  0  0
  -26.9240  -36.6650   24.7670 N   0  0  0  0  0  0  0  0  0  0  0  0
  -26.5860  -37.5350   25.1690 H   0  0  0  0  0  0  0  0  0  0  0  0
  -26.7320  -30.8620   24.6910 C   0  0  1  0  0  0  0  0  0  0  0  0
  -25.7990  -30.4050   25.8350 C   0  0  0  0  0  1  0  0  0  0  0  0
  -27.1610  -29.6040   23.9000 C   0  0  0  0  0  1  0  0  0  0  0  0
  -28.0150  -31.4460   25.3260 C   0  0  0  0  0  1  0  0  0  0  0  0
  1  5  1  0
  2  1  1  0
  3  4  1  0
  5  6  1  0
  5 11  1  0
  6  3  1  0
  7  2  1  0
  7  9  1  0
  7  6  1  0
  8 10  1  0
  8  4  1  0
  9 55  1  0
  9  8  1  0
 11 13  2  0
 12 11  1  0
 12 15  1  0
 14 12  1  0
 16 15  1  0
 17 16  1  0
 18 17  1  0
 19 18  1  0
 20 25  1  0
 21 22  1  0
 21 20  1  0
 23 22  1  0
 23 30  1  0
 23 24  1  0
 25 19  1  0
 25 24  1  0
 26 19  2  0
 27 28  2  0
 28 47  1  0
 29 28  1  0
 29 32  1  0
 30 31  1  0
 30 27  1  0
 31 29  2  0
 32 33  1  0
 33 34  2  0
 35 38  1  0
 35 34  1  0
 36 35  2  0
 37 36  1  0
 37 32  2  0
 38 39  1  0
 39 44  2  0
 39 40  1  0
 40 41  2  0
 41 42  1  0
 42 46  1  0
 43 42  2  0
 44 43  1  0
 45 44  1  0
 47 48  1  0
 48 50  1  0
 48 51  1  0
 49 47  2  0
 52 27  1  0
 52 53  1  0
 54 52  1  0
 56 55  1  0
 57 58  1  0
 57 56  1  0
 58 60  1  0
 59 70  2  0
 60 65  1  0
 61 69  1  0
 61 71  1  0
 62 68  1  0
 62 64  1  0
 63 69  1  0
 64 63  1  0
 65 64  2  0
 66 67  1  0
 66 60  2  0
 67 62  2  0
 68 61  1  0
 69 59  1  0
 71 73  2  0
 72 71  1  0
 74 72  1  0
 75 84  2  0
 75 80  1  0
 76 72  1  0
 76 80  1  0
 77 76  1  0
 78 79  1  0
 78 77  1  0
 79 75  1  0
 80 81  2  0
 81 82  1  0
 83 82  2  0
 84 83  1  0
 85 59  1  0
 85 86  1  0
 85 95  1  0
 86 89  1  0
 87 86  1  0
 87 91  1  0
 88 87  2  0
 91 90  1  0
 91 93  1  0
 93 94  1  0
 93 92  1  0
 95 98  1  1
 95 96  1  0
 97 95  1  0
M  ISO  4  18 100  19 100  57 101  58 101
M  END
>  <TORSDO>  (42) 
F 24

>  <SCORE>  (42) 
-5.794

>  <name>  (42) 
41

>  <ligand_id>  (42) 
41

>  <original_smiles>  (42) 
[H]c1c([H])c([H])c2c(c1[H])C([H])([H])C([H])([H])C([H])([H])C2([H])N([H])C(=O)C1([H])N(C(=O)C([H])(N([H])C(=O)C([H])(N([H])C([H])([H])[H])C([H])([H])[H])C(C([H])([H])[H])(C([H])([H])[H])C([H])([H])[H])C([H])([H])c2c([H])c(OC([H])([H])C([H])([H])C([H])([H])C3([H])C([H])(C([H])([H])[H])C([H])([H])C([H])([H])C4([H])C([H])(C(=O)N([H])C([H])([H])C([H])([H])C([H])([H])C([H])([H])C(=O)N5C([H])([H])C([H])([H])C([H])([H])C([H])(n6nc(-c7c([H])c([H])c(Oc8c([H])c([H])c(F)c([H])c8F)c([H])c7[H])c(C(=O)N([H])[H])c6N([H])[H])C5([H])[H])C([H])([H])C([H])([H])C43[H])c([H])c([H])c2C1([H])[H]

>  <smiles>  (42) 
[H]c1c([H])c([H])c2c(c1[H])C([H])([H])C([H])([H])C([H])([H])C2([H])N([H])C(=O)C1([H])N(C(=O)C([H])(N([H])C(=O)C([H])(N([H])C([H])([H])[H])C([H])([H])[H])C(C([H])([H])[H])(C([H])([H])[H])C([H])([H])[H])C([H])([H])c2c([H])c(OC([H])([H])C([H])([H])C([H])([H])C3([H])C([H])(C([H])([H])[H])C([H])([H])C([H])([H])C4([H])C([H])(C(=O)N([H])C([H])([H])C([H])([H])C([H])([H])C([H])([H])C(=O)N5C([H])([H])C([H])([H])C([H])([H])C([H])(n6nc(-c7c([H])c([H])c(Oc8c([H])c([H])c(F)c([H])c8F)c([H])c7[H])c(C(=O)N([H])[H])c6N([H])[H])C5([H])[H])C([H])([H])C([H])([H])C43[H])c([H])c([H])c2C1([H])[H]

$$$$
42:0:0
     RDKit          3D

 90 98  0  0  1  0  0  0  0  0999 V2000
  -29.6250  -21.8030   19.7820 C   0  0  0  0  0  0  0  0  0  0  0  0
  -28.7700  -19.2210   17.8650 C   0  0  0  0  0  2  0  0  0  0  0  0
  -28.2940  -20.6500   18.0310 C   0  0  0  0  0  2  0  0  0  0  0  0
  -29.6660  -19.3760   19.1070 C   0  0  0  0  0  3  0  0  0  0  0  0
  -28.9600  -20.6460   19.3320 N   0  0  0  0  0  0  0  0  0  0  0  0
  -30.5190  -21.7360   20.6270 O   0  0  0  0  0  0  0  0  0  0  0  0
  -29.2830  -23.1380   19.0900 C   0  0  0  0  0  2  0  0  0  0  0  0
  -29.4710  -24.4500   19.8960 C   0  0  0  0  0  2  0  0  0  0  0  0
  -28.2900  -25.3910   19.5930 C   0  0  0  0  0  2  0  0  0  0  0  0
  -28.3840  -26.7340   20.0870 O   0  0  0  0  0  0  0  0  0  0  0  0
  -24.5850  -31.8920   23.2160 C   0  0  0  0  0  0  0  0  0  0  0  0
  -27.2110  -27.4740   20.0690 C   0  0  0  0  0  0  0  0  0  0  0  0
  -23.3700  -30.5070   21.5700 C   0  0  0  0  0  3  0  0  0  0  0  0
  -24.8150  -28.9950   20.1170 C   0  0  0  0  0  0  0  0  0  0  0  0
  -25.8980  -30.8650   21.3640 C   0  0  0  0  0  2  0  0  0  0  0  0
  -25.9790  -29.5020   20.7090 C   0  0  0  0  0  0  0  0  0  0  0  0
  -27.1770  -28.7470   20.6880 C   0  0  0  0  0  3  0  0  0  0  0  0
  -26.0200  -26.9990   19.4600 C   0  0  0  0  0  3  0  0  0  0  0  0
  -24.8310  -27.7400   19.4940 C   0  0  0  0  0  3  0  0  0  0  0  0
  -23.5720  -29.8510   20.1810 C   0  0  0  0  0  2  0  0  0  0  0  0
  -24.6360  -31.1020   22.1080 N   0  0  0  0  0  0  0  0  0  0  0  0
  -23.5070  -32.1590   23.7650 O   0  0  0  0  0  0  0  0  0  0  0  0
  -22.7280  -29.4710   22.5210 C   0  0  0  0  0  0  0  0  0  0  0  0
  -21.4020  -29.2910   22.4060 N   0  0  0  0  0  0  0  0  0  0  0  0
  -23.4190  -28.8320   23.3190 O   0  0  0  0  0  0  0  0  0  0  0  0
  -20.9040  -29.8590   21.7330 H   0  0  0  0  0  0  0  0  0  0  0  0
  -18.0300  -28.0990   22.9210 C   0  0  0  0  0  0  0  0  0  0  0  0
  -20.5910  -28.3460   23.1730 C   0  0  0  0  0  3  0  0  0  0  0  0
  -20.6840  -26.9220   22.5800 C   0  0  0  0  0  2  0  0  0  0  0  0
  -19.5720  -26.6130   21.5720 C   0  0  0  0  0  2  0  0  0  0  0  0
  -18.1970  -26.7560   22.2290 C   0  0  0  0  0  2  0  0  0  0  0  0
  -19.1550  -28.8520   23.3500 C   0  0  0  0  0  0  0  0  0  0  0  0
  -18.9450  -30.1110   23.9550 C   0  0  0  0  0  3  0  0  0  0  0  0
  -17.6430  -30.6150   24.1350 C   0  0  0  0  0  3  0  0  0  0  0  0
  -16.5340  -29.8580   23.7240 C   0  0  0  0  0  3  0  0  0  0  0  0
  -16.7280  -28.6010   23.1230 C   0  0  0  0  0  3  0  0  0  0  0  0
  -25.8750  -32.5190   23.8320 C   0  0  0  0  0  3  0  0  0  0  0  0
  -25.5660  -33.9120   24.1820 N   0  0  0  0  0  0  0  0  0  0  0  0
  -25.8870  -34.9730   23.4310 C   0  0  0  0  0  0  0  0  0  0  0  0
  -26.5500  -34.8830   22.3920 O   0  0  0  0  0  0  0  0  0  0  0  0
  -24.9810  -34.0560   24.9920 H   0  0  0  0  0  0  0  0  0  0  0  0
  -24.1590  -36.7670   23.0950 C   0  0  0  0  0  1  0  0  0  0  0  0
  -25.3980  -36.3550   23.9050 C   0  0  0  0  0  3  0  0  0  0  0  0
  -27.5290  -37.2290   24.7550 C   0  0  0  0  0  1  0  0  0  0  0  0
  -26.4300  -37.4100   23.8100 N   0  0  0  0  0  0  0  0  0  0  0  0
  -26.0230  -38.3270   23.9680 H   0  0  0  0  0  0  0  0  0  0  0  0
  -26.4080  -31.7310   25.0890 C   0  0  1  0  0  0  0  0  0  0  0  0
  -25.3300  -31.4740   26.1670 C   0  0  0  0  0  1  0  0  0  0  0  0
  -26.9900  -30.3610   24.6690 C   0  0  0  0  0  1  0  0  0  0  0  0
  -27.5640  -32.5200   25.7490 C   0  0  0  0  0  1  0  0  0  0  0  0
  -29.5410  -18.3380   20.2470 C   0  0  0  0  0  2  0  0  0  0  0  0
  -30.0890  -16.4450   18.5760 C   0  0  0  0  0  1  0  0  0  0  0  0
  -30.3140  -17.0040   20.0020 C   0  0  0  0  0  3  0  0  0  0  0  0
  -30.0330  -15.9210   21.1010 C   0  0  0  0  0  2  0  0  0  0  0  0
  -30.8090  -14.5990   20.8610 C   0  0  0  0  0  0  0  0  0  0  0  0
  -30.5860  -12.4080   19.7730 C   0  0  0  0  0  2  0  0  0  0  0  0
  -29.7190  -12.5810   18.5070 C   0  0  0  0  0  2  0  0  0  0  0  0
  -28.2210  -12.4540   18.8450 C   0  0  0  0  0  2  0  0  0  0  0  0
  -27.8030  -13.3190   20.0620 C   0  0  0  0  0  3  0  0  0  0  0  0
  -28.7910  -13.1430   21.2380 C   0  0  0  0  0  2  0  0  0  0  0  0
  -30.1490  -13.4160   20.7500 N   0  0  0  0  0  0  0  0  0  0  0  0
  -32.0020  -14.7080   20.5670 O   0  0  0  0  0  0  0  0  0  0  0  0
  -25.3650  -13.9220   20.6220 C   0  0  0  0  0  0  0  0  0  0  0  0
  -24.2790  -13.1490   20.9370 C   0  0  0  0  0  0  0  0  0  0  0  0
  -24.7500  -11.7990   20.9560 C   0  0  0  0  0  0  0  0  0  0  0  0
  -26.4260  -13.0450   20.4670 N   0  0  0  0  0  0  0  0  0  0  0  0
  -26.0570  -11.7650   20.7290 N   0  0  0  0  0  0  0  0  0  0  0  0
  -24.0210  -10.5360   21.1190 C   0  0  0  0  0  0  0  0  0  0  0  0
  -24.4100   -9.5770   22.0810 C   0  0  0  0  0  3  0  0  0  0  0  0
  -23.6840   -8.3750   22.2300 C   0  0  0  0  0  3  0  0  0  0  0  0
  -22.5530   -8.1260   21.4170 C   0  0  0  0  0  0  0  0  0  0  0  0
  -22.1840   -9.0720   20.4440 C   0  0  0  0  0  3  0  0  0  0  0  0
  -22.9120  -10.2640   20.2940 C   0  0  0  0  0  3  0  0  0  0  0  0
  -21.8010   -6.9770   21.4740 O   0  0  0  0  0  0  0  0  0  0  0  0
  -21.7050   -6.2370   22.6250 C   0  0  0  0  0  0  0  0  0  0  0  0
  -21.2170   -6.7930   23.8290 C   0  0  0  0  0  3  0  0  0  0  0  0
  -21.0690   -5.9790   24.9700 C   0  0  0  0  0  3  0  0  0  0  0  0
  -21.3970   -4.6120   24.9080 C   0  0  0  0  0  0  0  0  0  0  0  0
  -21.8770   -4.0560   23.7090 C   0  0  0  0  0  3  0  0  0  0  0  0
  -22.0280   -4.8670   22.5700 C   0  0  0  0  0  0  0  0  0  0  0  0
  -22.4710   -4.3220   21.4120 F   0  0  0  0  0  0  0  0  0  0  0  0
  -21.2480   -3.8270   26.0010 F   0  0  0  0  0  0  0  0  0  0  0  0
  -22.8650  -13.6200   21.1140 C   0  0  0  0  0  0  0  0  0  0  0  0
  -22.0890  -12.9320   21.9450 N   0  0  0  0  0  0  0  0  0  0  0  0
  -22.4530  -14.6330   20.5500 O   0  0  0  0  0  0  0  0  0  0  0  0
  -22.4320  -12.1130   22.4240 H   0  0  0  0  0  0  0  0  0  0  0  0
  -21.1380  -13.2320   22.1070 H   0  0  0  0  0  0  0  0  0  0  0  0
  -25.5330  -15.2910   20.4350 N   0  0  0  0  0  0  0  0  0  0  0  0
  -24.7580  -15.9420   20.4930 H   0  0  0  0  0  0  0  0  0  0  0  0
  -26.4010  -15.7310   20.1560 H   0  0  0  0  0  0  0  0  0  0  0  0
  1  6  2  0
  2  3  1  0
  2  4  1  0
  3  5  1  0
  4  5  1  0
  4 51  1  0
  5  1  1  0
  7  1  1  0
  7  8  1  0
  9  8  1  0
  9 10  1  0
 11 22  2  0
 12 10  1  0
 12 17  1  0
 13 21  1  0
 13 23  1  0
 14 20  1  0
 14 16  1  0
 15 21  1  0
 16 15  1  0
 17 16  2  0
 18 19  1  0
 18 12  2  0
 19 14  2  0
 20 13  1  0
 21 11  1  0
 23 25  2  0
 24 23  1  0
 26 24  1  0
 27 36  2  0
 27 32  1  0
 28 24  1  0
 28 32  1  0
 29 28  1  0
 30 31  1  0
 30 29  1  0
 31 27  1  0
 32 33  2  0
 33 34  1  0
 35 34  2  0
 36 35  1  0
 37 11  1  0
 37 38  1  0
 37 47  1  0
 38 41  1  0
 39 43  1  0
 39 38  1  0
 40 39  2  0
 43 42  1  0
 45 43  1  0
 45 46  1  0
 45 44  1  0
 47 50  1  1
 47 48  1  0
 49 47  1  0
 53 52  1  0
 53 51  1  0
 53 54  1  0
 55 54  1  0
 56 61  1  0
 57 58  1  0
 57 56  1  0
 59 58  1  0
 59 66  1  0
 59 60  1  0
 61 55  1  0
 61 60  1  0
 62 55  2  0
 63 64  2  0
 64 65  1  0
 64 83  1  0
 65 68  1  0
 66 63  1  0
 66 67  1  0
 67 65  2  0
 68 69  1  0
 69 70  2  0
 71 74  1  0
 71 70  1  0
 72 71  2  0
 73 72  1  0
 73 68  2  0
 74 75  1  0
 75 76  1  0
 76 77  2  0
 78 77  1  0
 78 82  1  0
 79 78  2  0
 80 75  2  0
 80 79  1  0
 81 80  1  0
 83 84  1  0
 84 87  1  0
 84 86  1  0
 85 83  2  0
 88 89  1  0
 88 63  1  0
 90 88  1  0
M  ISO  4   9 101  10 101  54 100  55 100
M  END
>  <TORSDO>  (43) 
F 22

>  <SCORE>  (43) 
-12.905

>  <name>  (43) 
42

>  <ligand_id>  (43) 
42

>  <original_smiles>  (43) 
[H]c1c([H])c([H])c2c(c1[H])C([H])([H])C([H])([H])C([H])([H])C2([H])N([H])C(=O)C1([H])N(C(=O)C([H])(N([H])C(=O)C([H])(N([H])C([H])([H])[H])C([H])([H])[H])C(C([H])([H])[H])(C([H])([H])[H])C([H])([H])[H])C([H])([H])c2c([H])c(OC([H])([H])C([H])([H])C([H])([H])C(=O)N3C([H])([H])C([H])([H])C3([H])C([H])([H])C([H])(C([H])([H])[H])C([H])([H])C(=O)N3C([H])([H])C([H])([H])C([H])([H])C([H])(n4nc(-c5c([H])c([H])c(Oc6c([H])c([H])c(F)c([H])c6F)c([H])c5[H])c(C(=O)N([H])[H])c4N([H])[H])C3([H])[H])c([H])c([H])c2C1([H])[H]

>  <smiles>  (43) 
[H]c1c([H])c([H])c2c(c1[H])C([H])([H])C([H])([H])C([H])([H])C2([H])N([H])C(=O)C1([H])N(C(=O)C([H])(N([H])C(=O)C([H])(N([H])C([H])([H])[H])C([H])([H])[H])C(C([H])([H])[H])(C([H])([H])[H])C([H])([H])[H])C([H])([H])c2c([H])c(OC([H])([H])C([H])([H])C([H])([H])C(=O)N3C([H])([H])C([H])([H])C3([H])C([H])([H])C([H])(C([H])([H])[H])C([H])([H])C(=O)N3C([H])([H])C([H])([H])C([H])([H])C([H])(n4nc(-c5c([H])c([H])c(Oc6c([H])c([H])c(F)c([H])c6F)c([H])c5[H])c(C(=O)N([H])[H])c4N([H])[H])C3([H])[H])c([H])c([H])c2C1([H])[H]

$$$$
43:0:0
     RDKit          3D

 99108  0  0  1  0  0  0  0  0999 V2000
  -31.9470  -17.1260   21.8510 C   0  0  0  0  0  2  0  0  0  0  0  0
  -31.7560  -18.5830   22.3370 C   0  0  0  0  0  2  0  0  0  0  0  0
  -31.8970  -19.7330   19.9880 C   0  0  0  0  0  2  0  0  0  0  0  0
  -31.0270  -20.9750   21.4260 C   0  0  0  0  0  2  0  0  0  0  0  0
  -29.6920  -18.7770   21.1170 C   0  0  0  0  0  2  0  0  0  0  0  0
  -30.6720  -16.4340   21.2870 C   0  0  0  0  0  3  0  0  0  0  0  0
  -31.4500  -21.2150   19.9450 C   0  0  2  0  0  0  0  0  0  0  0  0
  -31.0710  -19.4360   21.2630 C   0  0  2  0  0  0  0  0  0  0  0  0
  -28.3770  -16.8950   20.3460 C   0  0  0  0  0  1  0  0  0  0  0  0
  -29.7610  -17.4000   20.5640 N   0  0  1  0  0  4  0  0  0  0  0  0
  -30.1520  -17.5260   19.6420 H   0  0  0  0  0  0  0  0  0  0  0  0
  -30.2550  -21.3920   18.9650 C   0  0  0  0  0  0  0  0  0  0  0  0
  -30.4050  -20.9550   17.7210 N   0  0  0  0  0  0  0  0  0  0  0  0
  -29.1940  -21.8910   19.3330 O   0  0  0  0  0  0  0  0  0  0  0  0
  -31.2920  -20.5740   17.4150 H   0  0  0  0  0  0  0  0  0  0  0  0
  -29.6550  -21.0420   17.0480 H   0  0  0  0  0  0  0  0  0  0  0  0
  -32.5570  -22.2870   19.6830 C   0  0  0  0  0  2  0  0  0  0  0  0
  -32.1400  -23.7620   19.6990 C   0  0  0  0  0  3  0  0  0  0  0  0
  -32.2450  -24.5890   18.6370 C   0  0  0  0  0  3  0  0  0  0  0  0
  -31.8560  -26.0670   18.6030 C   0  0  0  0  0  2  0  0  0  0  0  0
  -31.5910  -26.6100   17.1750 C   0  0  0  0  0  2  0  0  0  0  0  0
  -30.4200  -26.0430   16.5870 O   0  0  0  0  0  0  0  0  0  0  0  0
  -25.3780  -27.7080   21.4330 C   0  0  0  0  0  0  0  0  0  0  0  0
  -29.1520  -26.4900   16.9120 C   0  0  0  0  0  0  0  0  0  0  0  0
  -24.6300  -27.5210   19.0800 C   0  0  0  0  0  3  0  0  0  0  0  0
  -26.4880  -27.3690   17.3390 C   0  0  0  0  0  0  0  0  0  0  0  0
  -27.0310  -28.1930   19.6360 C   0  0  0  0  0  2  0  0  0  0  0  0
  -27.4530  -27.5350   18.3400 C   0  0  0  0  0  0  0  0  0  0  0  0
  -28.7780  -27.0930   18.1400 C   0  0  0  0  0  3  0  0  0  0  0  0
  -28.1640  -26.3240   15.9180 C   0  0  0  0  0  3  0  0  0  0  0  0
  -26.8360  -26.7500   16.1240 C   0  0  0  0  0  3  0  0  0  0  0  0
  -25.0940  -27.8730   17.6400 C   0  0  0  0  0  2  0  0  0  0  0  0
  -25.6890  -27.7850   20.1080 N   0  0  0  0  0  0  0  0  0  0  0  0
  -24.2220  -27.4720   21.8080 O   0  0  0  0  0  0  0  0  0  0  0  0
  -24.1150  -26.0640   19.0880 C   0  0  0  0  0  0  0  0  0  0  0  0
  -22.9060  -25.8570   18.5410 N   0  0  0  0  0  0  0  0  0  0  0  0
  -24.8040  -25.1490   19.5480 O   0  0  0  0  0  0  0  0  0  0  0  0
  -22.3960  -26.6620   18.2050 H   0  0  0  0  0  0  0  0  0  0  0  0
  -19.9390  -24.2430   17.2570 C   0  0  0  0  0  0  0  0  0  0  0  0
  -22.2370  -24.5650   18.3970 C   0  0  0  0  0  3  0  0  0  0  0  0
  -22.8230  -23.7610   17.2130 C   0  0  0  0  0  2  0  0  0  0  0  0
  -22.0620  -23.9770   15.9000 C   0  0  0  0  0  2  0  0  0  0  0  0
  -20.5920  -23.5770   16.0540 C   0  0  0  0  0  2  0  0  0  0  0  0
  -20.7140  -24.7250   18.3430 C   0  0  0  0  0  0  0  0  0  0  0  0
  -20.0610  -25.3810   19.4110 C   0  0  0  0  0  3  0  0  0  0  0  0
  -18.6620  -25.5440   19.4100 C   0  0  0  0  0  3  0  0  0  0  0  0
  -17.9000  -25.0470   18.3370 C   0  0  0  0  0  3  0  0  0  0  0  0
  -18.5390  -24.3980   17.2670 C   0  0  0  0  0  3  0  0  0  0  0  0
  -26.4540  -27.9360   22.5400 C   0  0  0  0  0  3  0  0  0  0  0  0
  -25.8380  -28.7490   23.5970 N   0  0  0  0  0  0  0  0  0  0  0  0
  -26.0710  -30.0560   23.7860 C   0  0  0  0  0  0  0  0  0  0  0  0
  -26.8980  -30.6910   23.1270 O   0  0  0  0  0  0  0  0  0  0  0  0
  -25.1150  -28.3080   24.1440 H   0  0  0  0  0  0  0  0  0  0  0  0
  -24.1300  -31.5940   24.2340 C   0  0  0  0  0  1  0  0  0  0  0  0
  -25.2570  -30.7690   24.8810 C   0  0  0  0  0  3  0  0  0  0  0  0
  -26.9950  -30.8960   26.6110 C   0  0  0  0  0  1  0  0  0  0  0  0
  -26.0770  -31.6410   25.7500 N   0  0  0  0  0  0  0  0  0  0  0  0
  -25.4870  -32.2120   26.3490 H   0  0  0  0  0  0  0  0  0  0  0  0
  -27.0370  -26.5920   23.1300 C   0  0  1  0  0  0  0  0  0  0  0  0
  -25.9510  -25.5960   23.5910 C   0  0  0  0  0  1  0  0  0  0  0  0
  -27.9200  -25.8730   22.0840 C   0  0  0  0  0  1  0  0  0  0  0  0
  -27.9480  -26.9010   24.3420 C   0  0  0  0  0  1  0  0  0  0  0  0
  -31.0400  -15.2540   20.3230 C   0  0  0  0  0  2  0  0  0  0  0  0
  -31.9460  -14.0560   20.7570 C   0  0  0  0  0  0  0  0  0  0  0  0
  -31.9090  -11.5780   20.9830 C   0  0  0  0  0  2  0  0  0  0  0  0
  -31.2080  -10.9880   19.7390 C   0  0  0  0  0  2  0  0  0  0  0  0
  -29.6740  -10.9680   19.9100 C   0  0  0  0  0  2  0  0  0  0  0  0
  -29.1280  -12.3250   20.4200 C   0  0  0  0  0  3  0  0  0  0  0  0
  -29.9460  -12.8120   21.6380 C   0  0  0  0  0  2  0  0  0  0  0  0
  -31.3480  -12.9180   21.2190 N   0  0  0  0  0  0  0  0  0  0  0  0
  -33.1420  -14.0740   20.4470 O   0  0  0  0  0  0  0  0  0  0  0  0
  -26.7840  -13.3010   20.8140 C   0  0  0  0  0  0  0  0  0  0  0  0
  -25.5770  -12.7060   21.0690 C   0  0  0  0  0  0  0  0  0  0  0  0
  -25.8330  -11.3000   21.1180 C   0  0  0  0  0  0  0  0  0  0  0  0
  -27.7040  -12.2690   20.7250 N   0  0  0  0  0  0  0  0  0  0  0  0
  -27.1290  -11.0620   20.9570 N   0  0  0  0  0  0  0  0  0  0  0  0
  -24.9120  -10.1630   21.2400 C   0  0  0  0  0  0  0  0  0  0  0  0
  -25.0870   -9.1700   22.2300 C   0  0  0  0  0  3  0  0  0  0  0  0
  -24.1800   -8.0950   22.3340 C   0  0  0  0  0  3  0  0  0  0  0  0
  -23.0830   -8.0020   21.4490 C   0  0  0  0  0  0  0  0  0  0  0  0
  -22.9270   -8.9790   20.4500 C   0  0  0  0  0  3  0  0  0  0  0  0
  -23.8310  -10.0490   20.3430 C   0  0  0  0  0  3  0  0  0  0  0  0
  -22.1660   -6.9790   21.4620 O   0  0  0  0  0  0  0  0  0  0  0  0
  -21.8100   -6.3450   22.6270 C   0  0  0  0  0  0  0  0  0  0  0  0
  -21.2840   -7.0530   23.7280 C   0  0  0  0  0  3  0  0  0  0  0  0
  -20.8640   -6.3550   24.8800 C   0  0  0  0  0  3  0  0  0  0  0  0
  -20.9640   -4.9510   24.9260 C   0  0  0  0  0  0  0  0  0  0  0  0
  -21.4900   -4.2460   23.8290 C   0  0  0  0  0  3  0  0  0  0  0  0
  -21.9070   -4.9410   22.6810 C   0  0  0  0  0  0  0  0  0  0  0  0
  -22.3880   -4.2520   21.6170 F   0  0  0  0  0  0  0  0  0  0  0  0
  -20.5570   -4.2800   26.0280 F   0  0  0  0  0  0  0  0  0  0  0  0
  -24.2430  -13.3880   21.1670 C   0  0  0  0  0  0  0  0  0  0  0  0
  -23.3450  -12.8490   21.9830 N   0  0  0  0  0  0  0  0  0  0  0  0
  -24.0060  -14.4280   20.5540 O   0  0  0  0  0  0  0  0  0  0  0  0
  -23.5500  -12.0030   22.4900 H   0  0  0  0  0  0  0  0  0  0  0  0
  -22.4460  -13.2900   22.1040 H   0  0  0  0  0  0  0  0  0  0  0  0
  -27.1720  -14.6230   20.6170 N   0  0  0  0  0  0  0  0  0  0  0  0
  -26.4540  -15.3180   20.4420 H   0  0  0  0  0  0  0  0  0  0  0  0
  -28.0180  -14.8120   20.0940 H   0  0  0  0  0  0  0  0  0  0  0  0
  1  2  1  0
  8  5  1  6
  6 63  1  0
  6  1  1  0
  7 17  1  1
  7  3  1  0
  7  4  1  0
  8  3  1  0
  8  4  1  0
  8  2  1  0
  9 10  1  0
 10  5  1  0
 10  6  1  0
 10 11  1  6
 12 14  2  0
 12  7  1  0
 13 12  1  0
 15 13  1  0
 16 13  1  0
 17 18  1  0
 19 18  2  0
 20 19  1  0
 21 20  1  0
 22 24  1  0
 22 21  1  0
 23 34  2  0
 24 29  1  0
 25 35  1  0
 25 33  1  0
 26 32  1  0
 26 28  1  0
 27 33  1  0
 28 27  1  0
 29 28  2  0
 30 31  1  0
 30 24  2  0
 31 26  2  0
 32 25  1  0
 33 23  1  0
 35 37  2  0
 36 35  1  0
 38 36  1  0
 39 48  2  0
 39 44  1  0
 40 36  1  0
 41 40  1  0
 42 43  1  0
 42 41  1  0
 43 39  1  0
 44 40  1  0
 44 45  2  0
 46 45  1  0
 47 46  2  0
 48 47  1  0
 49 23  1  0
 49 59  1  0
 49 50  1  0
 50 51  1  0
 50 53  1  0
 51 55  1  0
 52 51  2  0
 55 54  1  0
 55 57  1  0
 57 58  1  0
 57 56  1  0
 59 60  1  1
 59 62  1  0
 61 59  1  0
 63 64  1  0
 64 70  1  0
 65 70  1  0
 66 67  1  0
 66 65  1  0
 68 67  1  0
 68 75  1  0
 68 69  1  0
 70 69  1  0
 71 64  2  0
 72 73  2  0
 73 74  1  0
 73 92  1  0
 74 77  1  0
 75 72  1  0
 75 76  1  0
 76 74  2  0
 77 78  1  0
 78 79  2  0
 80 83  1  0
 80 79  1  0
 81 80  2  0
 82 81  1  0
 82 77  2  0
 83 84  1  0
 84 89  2  0
 84 85  1  0
 85 86  2  0
 86 87  1  0
 87 91  1  0
 88 87  2  0
 89 88  1  0
 90 89  1  0
 92 93  1  0
 93 96  1  0
 93 95  1  0
 94 92  2  0
 97 72  1  0
 98 97  1  0
 99 97  1  0
M  ISO  4  21 101  22 101  63 100  64 100
M  END
>  <TORSDO>  (44) 
F 22

>  <SCORE>  (44) 
-8.036

>  <name>  (44) 
43

>  <ligand_id>  (44) 
43

>  <original_smiles>  (44) 
[H]C(=C([H])C([H])([H])C1(C(=O)N([H])[H])C([H])([H])C2(C([H])([H])C([H])([H])C([H])(C([H])([H])C(=O)N3C([H])([H])C([H])([H])C([H])([H])C([H])(n4nc(-c5c([H])c([H])c(Oc6c([H])c([H])c(F)c([H])c6F)c([H])c5[H])c(C(=O)N([H])[H])c4N([H])[H])C3([H])[H])[N+]([H])(C([H])([H])[H])C2([H])[H])C1([H])[H])C([H])([H])C([H])([H])Oc1c([H])c([H])c2c(c1[H])C([H])([H])N(C(=O)C([H])(N([H])C(=O)C([H])(N([H])C([H])([H])[H])C([H])([H])[H])C(C([H])([H])[H])(C([H])([H])[H])C([H])([H])[H])C([H])(C(=O)N([H])C1([H])c3c([H])c([H])c([H])c([H])c3C([H])([H])C([H])([H])C1([H])[H])C2([H])[H]

>  <smiles>  (44) 
[H]C(=C([H])C([H])([H])C1(C(=O)N([H])[H])C([H])([H])C2(C([H])([H])C([H])([H])C([H])(C([H])([H])C(=O)N3C([H])([H])C([H])([H])C([H])([H])C([H])(n4nc(-c5c([H])c([H])c(Oc6c([H])c([H])c(F)c([H])c6F)c([H])c5[H])c(C(=O)N([H])[H])c4N([H])[H])C3([H])[H])[N+]([H])(C([H])([H])[H])C2([H])[H])C1([H])[H])C([H])([H])C([H])([H])Oc1c([H])c([H])c2c(c1[H])C([H])([H])N(C(=O)C([H])(N([H])C(=O)C([H])(N([H])C([H])([H])[H])C([H])([H])[H])C(C([H])([H])[H])(C([H])([H])[H])C([H])([H])[H])C([H])(C(=O)N([H])C1([H])c3c([H])c([H])c([H])c([H])c3C([H])([H])C([H])([H])C1([H])[H])C2([H])[H]

$$$$
44:0:0
     RDKit          3D

101109  0  0  1  0  0  0  0  0999 V2000
  -31.0260  -20.8100   23.4060 C   0  0  0  0  0  3  0  0  0  0  0  0
  -31.7600  -21.1760   24.6340 N   0  0  0  0  0  4  0  0  0  0  0  0
  -32.7460  -20.9980   24.5430 H   0  0  0  0  0  0  0  0  0  0  0  0
  -31.4210  -20.6500   25.4220 H   0  0  0  0  0  0  0  0  0  0  0  0
  -31.6360  -22.1480   24.8490 H   0  0  0  0  0  0  0  0  0  0  0  0
  -31.4420  -21.7260   22.2270 C   0  0  0  0  0  2  0  0  0  0  0  0
  -30.7160  -23.0820   22.2240 C   0  0  0  0  0  2  0  0  0  0  0  0
  -30.7420  -23.7810   20.8540 C   0  0  0  0  0  2  0  0  0  0  0  0
  -29.7930  -25.6760   19.9010 C   0  0  0  0  0  3  0  0  0  0  0  0
  -30.0920  -25.0700   20.9800 N   0  0  0  0  0  0  0  0  0  0  0  0
  -28.9140  -26.9080   19.8650 C   0  0  0  0  0  2  0  0  0  0  0  0
  -27.6130  -26.5150   19.4400 O   0  0  0  0  0  0  0  0  0  0  0  0
  -24.2930  -31.7450   23.0420 C   0  0  0  0  0  0  0  0  0  0  0  0
  -26.5400  -27.3560   19.6170 C   0  0  0  0  0  0  0  0  0  0  0  0
  -22.9220  -30.4830   21.4120 C   0  0  0  0  0  3  0  0  0  0  0  0
  -24.2130  -28.9420   19.8440 C   0  0  0  0  0  0  0  0  0  0  0  0
  -25.4440  -30.7330   21.0790 C   0  0  0  0  0  2  0  0  0  0  0  0
  -25.4260  -29.3920   20.3800 C   0  0  0  0  0  0  0  0  0  0  0  0
  -26.5930  -28.6100   20.2700 C   0  0  0  0  0  3  0  0  0  0  0  0
  -25.3100  -26.9110   19.0920 C   0  0  0  0  0  3  0  0  0  0  0  0
  -24.1460  -27.6960   19.1980 C   0  0  0  0  0  3  0  0  0  0  0  0
  -23.0190  -29.8550   19.9970 C   0  0  0  0  0  2  0  0  0  0  0  0
  -24.2420  -30.9970   21.9020 N   0  0  0  0  0  0  0  0  0  0  0  0
  -23.2610  -32.0450   23.6580 O   0  0  0  0  0  0  0  0  0  0  0  0
  -22.2710  -29.4550   22.3620 C   0  0  0  0  0  0  0  0  0  0  0  0
  -20.9350  -29.3380   22.2930 N   0  0  0  0  0  0  0  0  0  0  0  0
  -22.9630  -28.7640   23.1170 O   0  0  0  0  0  0  0  0  0  0  0  0
  -20.4380  -29.9450   21.6550 H   0  0  0  0  0  0  0  0  0  0  0  0
  -17.5390  -28.2560   22.8780 C   0  0  0  0  0  0  0  0  0  0  0  0
  -20.1120  -28.4080   23.0660 C   0  0  0  0  0  3  0  0  0  0  0  0
  -20.1390  -26.9920   22.4450 C   0  0  0  0  0  2  0  0  0  0  0  0
  -18.9910  -26.7410   21.4620 C   0  0  0  0  0  2  0  0  0  0  0  0
  -17.6390  -26.9200   22.1590 C   0  0  0  0  0  2  0  0  0  0  0  0
  -18.7000  -28.9620   23.2900 C   0  0  0  0  0  0  0  0  0  0  0  0
  -18.5500  -30.2150   23.9220 C   0  0  0  0  0  3  0  0  0  0  0  0
  -17.2740  -30.7620   24.1450 C   0  0  0  0  0  3  0  0  0  0  0  0
  -16.1270  -30.0510   23.7490 C   0  0  0  0  0  3  0  0  0  0  0  0
  -16.2620  -28.8010   23.1210 C   0  0  0  0  0  3  0  0  0  0  0  0
  -25.6470  -32.2750   23.6120 C   0  0  0  0  0  3  0  0  0  0  0  0
  -25.4310  -33.6600   24.0500 N   0  0  0  0  0  0  0  0  0  0  0  0
  -25.8060  -34.7420   23.3550 C   0  0  0  0  0  0  0  0  0  0  0  0
  -26.4410  -34.6740   22.2980 O   0  0  0  0  0  0  0  0  0  0  0  0
  -24.8740  -33.7920   24.8820 H   0  0  0  0  0  0  0  0  0  0  0  0
  -24.1810  -36.6490   23.1610 C   0  0  0  0  0  1  0  0  0  0  0  0
  -25.4090  -36.1190   23.9190 C   0  0  0  0  0  3  0  0  0  0  0  0
  -27.6030  -36.8100   24.7710 C   0  0  0  0  0  1  0  0  0  0  0  0
  -26.4990  -37.1150   23.8640 N   0  0  0  0  0  0  0  0  0  0  0  0
  -26.1530  -38.0440   24.0880 H   0  0  0  0  0  0  0  0  0  0  0  0
  -26.2130  -31.3970   24.7940 C   0  0  1  0  0  0  0  0  0  0  0  0
  -25.1870  -31.1350   25.9190 C   0  0  0  0  0  1  0  0  0  0  0  0
  -26.7010  -30.0250   24.2690 C   0  0  0  0  0  1  0  0  0  0  0  0
  -27.4440  -32.0950   25.4200 C   0  0  0  0  0  1  0  0  0  0  0  0
  -31.2010  -19.2960   23.1010 C   0  0  0  0  0  2  0  0  0  0  0  0
  -31.2360  -18.8670   21.6060 C   0  0  0  0  0  3  0  0  0  0  0  0
  -28.5760  -20.2580   18.3570 C   0  0  0  0  0  2  0  0  0  0  0  0
  -30.0880  -20.4360   18.1720 C   0  0  0  0  0  2  0  0  0  0  0  0
  -28.1730  -20.6240   19.7920 C   0  0  0  0  0  2  0  0  0  0  0  0
  -30.8650  -19.5520   19.1610 C   0  0  0  0  0  2  0  0  0  0  0  0
  -28.9160  -19.7450   20.8110 C   0  0  0  0  0  2  0  0  0  0  0  0
  -30.4590  -19.8080   20.6340 C   0  0  0  0  0  3  0  0  0  0  0  0
  -30.7090  -17.4970   21.4430 N   0  0  0  0  0  4  0  0  0  0  0  0
  -30.0960  -17.2810   22.2130 H   0  0  0  0  0  0  0  0  0  0  0  0
  -30.1420  -17.5240   20.6090 H   0  0  0  0  0  0  0  0  0  0  0  0
  -31.6700  -16.3840   21.2680 C   0  0  0  0  0  2  0  0  0  0  0  0
  -30.8680  -15.0740   21.2530 C   0  0  0  0  0  2  0  0  0  0  0  0
  -31.4270  -13.9330   20.3900 C   0  0  0  0  0  0  0  0  0  0  0  0
  -31.0310  -11.7010   19.3950 C   0  0  0  0  0  2  0  0  0  0  0  0
  -30.1100  -11.8250   18.1650 C   0  0  0  0  0  2  0  0  0  0  0  0
  -28.6220  -11.8330   18.5780 C   0  0  0  0  0  2  0  0  0  0  0  0
  -28.3310  -12.8390   19.7220 C   0  0  0  0  0  3  0  0  0  0  0  0
  -29.3400  -12.6180   20.8710 C   0  0  0  0  0  2  0  0  0  0  0  0
  -30.6940  -12.7930   20.3140 N   0  0  0  0  0  0  0  0  0  0  0  0
  -32.4990  -14.0870   19.7910 O   0  0  0  0  0  0  0  0  0  0  0  0
  -26.0090  -13.7450   20.3840 C   0  0  0  0  0  0  0  0  0  0  0  0
  -24.8530  -13.1100   20.7520 C   0  0  0  0  0  0  0  0  0  0  0  0
  -25.1520  -11.7120   20.7450 C   0  0  0  0  0  0  0  0  0  0  0  0
  -26.9470  -12.7420   20.1830 N   0  0  0  0  0  0  0  0  0  0  0  0
  -26.4300  -11.5160   20.4490 N   0  0  0  0  0  0  0  0  0  0  0  0
  -24.2820  -10.5460   20.9420 C   0  0  0  0  0  0  0  0  0  0  0  0
  -24.6290   -9.5140   21.8420 C   0  0  0  0  0  3  0  0  0  0  0  0
  -23.7720   -8.4090   22.0290 C   0  0  0  0  0  3  0  0  0  0  0  0
  -22.5500   -8.3320   21.3170 C   0  0  0  0  0  0  0  0  0  0  0  0
  -22.2200   -9.3510   20.4060 C   0  0  0  0  0  3  0  0  0  0  0  0
  -23.0790  -10.4460   20.2160 C   0  0  0  0  0  3  0  0  0  0  0  0
  -21.6630   -7.2860   21.4170 O   0  0  0  0  0  0  0  0  0  0  0  0
  -21.5730   -6.5270   22.5550 C   0  0  0  0  0  0  0  0  0  0  0  0
  -21.2960   -7.1030   23.8150 C   0  0  0  0  0  3  0  0  0  0  0  0
  -21.1440   -6.2770   24.9470 C   0  0  0  0  0  3  0  0  0  0  0  0
  -21.2570   -4.8800   24.8210 C   0  0  0  0  0  0  0  0  0  0  0  0
  -21.5260   -4.3050   23.5650 C   0  0  0  0  0  3  0  0  0  0  0  0
  -21.6810   -5.1270   22.4360 C   0  0  0  0  0  0  0  0  0  0  0  0
  -21.9180   -4.5680   21.2250 F   0  0  0  0  0  0  0  0  0  0  0  0
  -21.1010   -4.0850   25.9050 F   0  0  0  0  0  0  0  0  0  0  0  0
  -23.5180  -13.7500   21.0060 C   0  0  0  0  0  0  0  0  0  0  0  0
  -22.7200  -13.1700   21.8960 N   0  0  0  0  0  0  0  0  0  0  0  0
  -23.1940  -14.7970   20.4470 O   0  0  0  0  0  0  0  0  0  0  0  0
  -22.9940  -12.3230   22.3700 H   0  0  0  0  0  0  0  0  0  0  0  0
  -21.8190  -13.5790   22.1050 H   0  0  0  0  0  0  0  0  0  0  0  0
  -26.3370  -15.0820   20.1840 N   0  0  0  0  0  0  0  0  0  0  0  0
  -25.6450  -15.8210   20.2520 H   0  0  0  0  0  0  0  0  0  0  0  0
  -27.2150  -15.3950   19.7930 H   0  0  0  0  0  0  0  0  0  0  0  0
  1  6  1  0
  1  2  1  0
  2  5  1  0
  2  4  1  0
  3  2  1  0
  7  6  1  0
  8 10  1  0
  8  7  1  0
  9 10  2  0
 11  9  1  0
 12 14  1  0
 12 11  1  0
 13 24  2  0
 14 19  1  0
 15 23  1  0
 15 25  1  0
 16 22  1  0
 16 18  1  0
 17 23  1  0
 18 17  1  0
 19 18  2  0
 20 21  1  0
 20 14  2  0
 21 16  2  0
 22 15  1  0
 23 13  1  0
 25 27  2  0
 26 25  1  0
 28 26  1  0
 29 38  2  0
 29 34  1  0
 30 26  1  0
 30 34  1  0
 31 30  1  0
 32 33  1  0
 32 31  1  0
 33 29  1  0
 34 35  2  0
 35 36  1  0
 37 36  2  0
 38 37  1  0
 39 13  1  0
 39 40  1  0
 39 49  1  0
 40 43  1  0
 41 45  1  0
 41 40  1  0
 42 41  2  0
 45 44  1  0
 47 45  1  0
 47 48  1  0
 47 46  1  0
 49 52  1  1
 49 50  1  0
 51 49  1  0
 53  1  1  0
 54 53  1  0
 55 57  1  0
 56 55  1  0
 56 58  1  0
 57 59  1  0
 58 60  1  0
 60 59  1  0
 60 54  1  0
 61 54  1  0
 61 62  1  0
 63 61  1  0
 64 61  1  0
 65 64  1  0
 66 65  1  0
 67 72  1  0
 68 69  1  0
 68 67  1  0
 70 69  1  0
 70 77  1  0
 70 71  1  0
 72 66  1  0
 72 71  1  0
 73 66  2  0
 74 75  2  0
 75 94  1  0
 76 75  1  0
 76 79  1  0
 77 74  1  0
 77 78  1  0
 78 76  2  0
 79 80  1  0
 80 81  2  0
 82 85  1  0
 82 81  1  0
 83 82  2  0
 84 83  1  0
 84 79  2  0
 85 86  1  0
 86 87  1  0
 87 88  2  0
 89 88  1  0
 89 93  1  0
 90 89  2  0
 91 86  2  0
 91 90  1  0
 92 91  1  0
 94 95  1  0
 95 98  1  0
 95 97  1  0
 96 94  2  0
 99100  1  0
 99 74  1  0
101 99  1  0
M  ISO  4  11 101  12 101  65 100  66 100
M  END
>  <TORSDO>  (45) 
F 28

>  <SCORE>  (45) 
-10.894

>  <name>  (45) 
44

>  <ligand_id>  (45) 
44

>  <original_smiles>  (45) 
[H]C(=NC([H])([H])C([H])([H])C([H])([H])C([H])(C([H])([H])C([H])(C1([H])C([H])([H])C([H])([H])C([H])([H])C([H])([H])C1([H])[H])[N+]([H])([H])C([H])([H])C([H])([H])C(=O)N1C([H])([H])C([H])([H])C([H])([H])C([H])(n2nc(-c3c([H])c([H])c(Oc4c([H])c([H])c(F)c([H])c4F)c([H])c3[H])c(C(=O)N([H])[H])c2N([H])[H])C1([H])[H])[N+]([H])([H])[H])C([H])([H])Oc1c([H])c([H])c2c(c1[H])C([H])([H])N(C(=O)C([H])(N([H])C(=O)C([H])(N([H])C([H])([H])[H])C([H])([H])[H])C(C([H])([H])[H])(C([H])([H])[H])C([H])([H])[H])C([H])(C(=O)N([H])C1([H])c3c([H])c([H])c([H])c([H])c3C([H])([H])C([H])([H])C1([H])[H])C2([H])[H]

>  <smiles>  (45) 
[H]C(=NC([H])([H])C([H])([H])C([H])([H])C([H])(C([H])([H])C([H])(C1([H])C([H])([H])C([H])([H])C([H])([H])C([H])([H])C1([H])[H])[N+]([H])([H])C([H])([H])C([H])([H])C(=O)N1C([H])([H])C([H])([H])C([H])([H])C([H])(n2nc(-c3c([H])c([H])c(Oc4c([H])c([H])c(F)c([H])c4F)c([H])c3[H])c(C(=O)N([H])[H])c2N([H])[H])C1([H])[H])[N+]([H])([H])[H])C([H])([H])Oc1c([H])c([H])c2c(c1[H])C([H])([H])N(C(=O)C([H])(N([H])C(=O)C([H])(N([H])C([H])([H])[H])C([H])([H])[H])C(C([H])([H])[H])(C([H])([H])[H])C([H])([H])[H])C([H])(C(=O)N([H])C1([H])c3c([H])c([H])c([H])c([H])c3C([H])([H])C([H])([H])C1([H])[H])C2([H])[H]

$$$$
45:0:0
     RDKit          3D

 94102  0  0  1  0  0  0  0  0999 V2000
  -30.7000  -21.2860   20.3450 N   0  0  0  0  0  4  0  0  0  0  0  0
  -30.7290  -20.9840   21.3060 H   0  0  0  0  0  0  0  0  0  0  0  0
  -29.7740  -21.0970   19.9990 H   0  0  0  0  0  0  0  0  0  0  0  0
  -31.6130  -20.4520   19.5530 C   0  0  0  0  0  2  0  0  0  0  0  0
  -29.4820  -17.8900   17.6940 C   0  0  0  0  0  3  0  0  0  0  0  0
  -29.3410  -16.8810   18.6610 C   0  0  0  0  0  3  0  0  0  0  0  0
  -30.2540  -19.0260   17.9810 C   0  0  0  0  0  3  0  0  0  0  0  0
  -29.9960  -16.9820   19.9110 C   0  0  0  0  0  0  0  0  0  0  0  0
  -30.8900  -19.1560   19.2350 C   0  0  0  0  0  0  0  0  0  0  0  0
  -30.7770  -18.1270   20.2000 C   0  0  0  0  0  0  0  0  0  0  0  0
  -32.7110  -17.8390   21.5000 C   0  0  0  0  0  1  0  0  0  0  0  0
  -31.3610  -18.2840   21.4310 O   0  0  0  0  0  0  0  0  0  0  0  0
  -29.8680  -15.8280   20.9040 C   0  0  0  0  0  2  0  0  0  0  0  0
  -30.5920  -14.5980   20.3250 C   0  0  0  0  0  0  0  0  0  0  0  0
  -30.2930  -12.4820   19.1150 C   0  0  0  0  0  2  0  0  0  0  0  0
  -29.3250  -12.7300   17.9380 C   0  0  0  0  0  2  0  0  0  0  0  0
  -27.8580  -12.5680   18.3890 C   0  0  0  0  0  2  0  0  0  0  0  0
  -27.5400  -13.3570   19.6880 C   0  0  0  0  0  3  0  0  0  0  0  0
  -28.6200  -13.0970   20.7630 C   0  0  0  0  0  2  0  0  0  0  0  0
  -29.9310  -13.4210   20.1840 N   0  0  0  0  0  0  0  0  0  0  0  0
  -31.7180  -14.7800   19.8490 O   0  0  0  0  0  0  0  0  0  0  0  0
  -25.1360  -13.9130   20.4260 C   0  0  0  0  0  0  0  0  0  0  0  0
  -24.0920  -13.1160   20.8090 C   0  0  0  0  0  0  0  0  0  0  0  0
  -24.5850  -11.7760   20.7720 C   0  0  0  0  0  0  0  0  0  0  0  0
  -26.1990  -13.0550   20.1830 N   0  0  0  0  0  0  0  0  0  0  0  0
  -25.8700  -11.7650   20.4460 N   0  0  0  0  0  0  0  0  0  0  0  0
  -23.8930  -10.4960   20.9720 C   0  0  0  0  0  0  0  0  0  0  0  0
  -24.3490   -9.5500   21.9160 C   0  0  0  0  0  3  0  0  0  0  0  0
  -23.6560   -8.3350   22.1030 C   0  0  0  0  0  3  0  0  0  0  0  0
  -22.4940   -8.0560   21.3450 C   0  0  0  0  0  0  0  0  0  0  0  0
  -22.0580   -8.9930   20.3900 C   0  0  0  0  0  3  0  0  0  0  0  0
  -22.7510  -10.1990   20.2020 C   0  0  0  0  0  3  0  0  0  0  0  0
  -21.7730   -6.8910   21.4420 O   0  0  0  0  0  0  0  0  0  0  0  0
  -21.7330   -6.1620   22.6030 C   0  0  0  0  0  0  0  0  0  0  0  0
  -21.2680   -6.7160   23.8160 C   0  0  0  0  0  3  0  0  0  0  0  0
  -21.1800   -5.9110   24.9700 C   0  0  0  0  0  3  0  0  0  0  0  0
  -21.5480   -4.5540   24.9120 C   0  0  0  0  0  0  0  0  0  0  0  0
  -22.0070   -4.0000   23.7040 C   0  0  0  0  0  3  0  0  0  0  0  0
  -22.0980   -4.8010   22.5520 C   0  0  0  0  0  0  0  0  0  0  0  0
  -22.5210   -4.2560   21.3870 F   0  0  0  0  0  0  0  0  0  0  0  0
  -21.4560   -3.7790   26.0170 F   0  0  0  0  0  0  0  0  0  0  0  0
  -22.6880  -13.5580   21.1020 C   0  0  0  0  0  0  0  0  0  0  0  0
  -21.9890  -12.8430   21.9750 N   0  0  0  0  0  0  0  0  0  0  0  0
  -22.2180  -14.5760   20.5930 O   0  0  0  0  0  0  0  0  0  0  0  0
  -22.3780  -12.0160   22.4050 H   0  0  0  0  0  0  0  0  0  0  0  0
  -21.0470  -13.1210   22.2160 H   0  0  0  0  0  0  0  0  0  0  0  0
  -25.2670  -15.2870   20.2450 N   0  0  0  0  0  0  0  0  0  0  0  0
  -24.4890  -15.9260   20.3680 H   0  0  0  0  0  0  0  0  0  0  0  0
  -26.1080  -15.7440   19.9140 H   0  0  0  0  0  0  0  0  0  0  0  0
  -30.9150  -22.7410   20.2710 C   0  0  0  0  0  2  0  0  0  0  0  0
  -29.5680  -23.4430   20.0790 C   0  0  0  0  0  2  0  0  0  0  0  0
  -29.6470  -24.9660   20.2100 C   0  0  0  0  0  2  0  0  0  0  0  0
  -28.3130  -25.6020   19.8260 C   0  0  0  0  0  2  0  0  0  0  0  0
  -28.3150  -26.9580   20.2370 O   0  0  0  0  0  0  0  0  0  0  0  0
  -24.5110  -32.0500   23.3610 C   0  0  0  0  0  0  0  0  0  0  0  0
  -27.1150  -27.6280   20.2420 C   0  0  0  0  0  0  0  0  0  0  0  0
  -23.2840  -30.6610   21.7220 C   0  0  0  0  0  3  0  0  0  0  0  0
  -24.7170  -29.1180   20.2870 C   0  0  0  0  0  0  0  0  0  0  0  0
  -25.8080  -31.0090   21.5090 C   0  0  0  0  0  2  0  0  0  0  0  0
  -25.8780  -29.6410   20.8670 C   0  0  0  0  0  0  0  0  0  0  0  0
  -27.0780  -28.9000   20.8450 C   0  0  0  0  0  3  0  0  0  0  0  0
  -25.9300  -27.1090   19.6620 C   0  0  0  0  0  3  0  0  0  0  0  0
  -24.7340  -27.8490   19.6880 C   0  0  0  0  0  3  0  0  0  0  0  0
  -23.4780  -29.9820   20.3410 C   0  0  0  0  0  2  0  0  0  0  0  0
  -24.5530  -31.2530   22.2570 N   0  0  0  0  0  0  0  0  0  0  0  0
  -23.4350  -32.3290   23.9080 O   0  0  0  0  0  0  0  0  0  0  0  0
  -22.6330  -29.6410   22.6820 C   0  0  0  0  0  0  0  0  0  0  0  0
  -21.3130  -29.4400   22.5320 N   0  0  0  0  0  0  0  0  0  0  0  0
  -23.3090  -29.0330   23.5140 O   0  0  0  0  0  0  0  0  0  0  0  0
  -20.8260  -29.9850   21.8330 H   0  0  0  0  0  0  0  0  0  0  0  0
  -17.9520  -28.1880   22.9540 C   0  0  0  0  0  0  0  0  0  0  0  0
  -20.4940  -28.5020   23.2990 C   0  0  0  0  0  3  0  0  0  0  0  0
  -20.6420  -27.0610   22.7580 C   0  0  0  0  0  2  0  0  0  0  0  0
  -19.5780  -26.6950   21.7180 C   0  0  0  0  0  2  0  0  0  0  0  0
  -18.1750  -26.8290   22.3140 C   0  0  0  0  0  2  0  0  0  0  0  0
  -19.0420  -28.9800   23.4020 C   0  0  0  0  0  0  0  0  0  0  0  0
  -18.7820  -30.2540   23.9560 C   0  0  0  0  0  3  0  0  0  0  0  0
  -17.4640  -30.7330   24.0700 C   0  0  0  0  0  3  0  0  0  0  0  0
  -16.3870  -29.9370   23.6400 C   0  0  0  0  0  3  0  0  0  0  0  0
  -16.6320  -28.6670   23.0900 C   0  0  0  0  0  3  0  0  0  0  0  0
  -25.8070  -32.6670   23.9740 C   0  0  0  0  0  3  0  0  0  0  0  0
  -25.5200  -34.0740   24.2840 N   0  0  0  0  0  0  0  0  0  0  0  0
  -25.8680  -35.1090   23.5070 C   0  0  0  0  0  0  0  0  0  0  0  0
  -26.5360  -34.9800   22.4770 O   0  0  0  0  0  0  0  0  0  0  0  0
  -24.9290  -34.2490   25.0820 H   0  0  0  0  0  0  0  0  0  0  0  0
  -24.1660  -36.9190   23.1220 C   0  0  0  0  0  1  0  0  0  0  0  0
  -25.3990  -36.5110   23.9420 C   0  0  0  0  0  3  0  0  0  0  0  0
  -27.5480  -37.3740   24.7610 C   0  0  0  0  0  1  0  0  0  0  0  0
  -26.4470  -37.5490   23.8190 N   0  0  0  0  0  0  0  0  0  0  0  0
  -26.0540  -38.4740   23.9650 H   0  0  0  0  0  0  0  0  0  0  0  0
  -26.3140  -31.9020   25.2580 C   0  0  1  0  0  0  0  0  0  0  0  0
  -25.2170  -31.6840   26.3260 C   0  0  0  0  0  1  0  0  0  0  0  0
  -26.8830  -30.5150   24.8770 C   0  0  0  0  0  1  0  0  0  0  0  0
  -27.4730  -32.6880   25.9130 C   0  0  0  0  0  1  0  0  0  0  0  0
  1  2  1  0
  3  1  1  0
  4  1  1  0
  5  7  2  0
  5  6  1  0
  6  8  2  0
  7  9  1  0
  8 10  1  0
  8 13  1  0
  9  4  1  0
  9 10  2  0
 10 12  1  0
 12 11  1  0
 14 13  1  0
 15 20  1  0
 16 17  1  0
 16 15  1  0
 18 17  1  0
 18 25  1  0
 18 19  1  0
 20 14  1  0
 20 19  1  0
 21 14  2  0
 22 23  2  0
 23 42  1  0
 24 23  1  0
 24 27  1  0
 25 22  1  0
 25 26  1  0
 26 24  2  0
 27 28  1  0
 28 29  2  0
 30 33  1  0
 30 29  1  0
 31 30  2  0
 32 31  1  0
 32 27  2  0
 33 34  1  0
 34 35  1  0
 35 36  2  0
 37 36  1  0
 37 41  1  0
 38 37  2  0
 39 34  2  0
 39 38  1  0
 40 39  1  0
 42 43  1  0
 43 46  1  0
 43 45  1  0
 44 42  2  0
 47 48  1  0
 47 22  1  0
 49 47  1  0
 50  1  1  0
 51 52  1  0
 51 50  1  0
 53 52  1  0
 53 54  1  0
 54 56  1  0
 55 66  2  0
 56 61  1  0
 57 65  1  0
 57 67  1  0
 58 64  1  0
 58 60  1  0
 59 65  1  0
 60 59  1  0
 61 60  2  0
 62 63  1  0
 62 56  2  0
 63 58  2  0
 64 57  1  0
 65 55  1  0
 67 69  2  0
 68 67  1  0
 70 68  1  0
 71 80  2  0
 71 76  1  0
 72 68  1  0
 72 76  1  0
 73 72  1  0
 74 75  1  0
 74 73  1  0
 75 71  1  0
 76 77  2  0
 77 78  1  0
 79 78  2  0
 80 79  1  0
 81 55  1  0
 81 82  1  0
 81 91  1  0
 82 85  1  0
 83 87  1  0
 83 82  1  0
 84 83  2  0
 87 86  1  0
 89 87  1  0
 89 90  1  0
 89 88  1  0
 91 94  1  1
 91 92  1  0
 93 91  1  0
M  ISO  4  13 100  14 100  53 101  54 101
M  END
>  <TORSDO>  (46) 
F 24

>  <SCORE>  (46) 
-11.443

>  <name>  (46) 
45

>  <ligand_id>  (46) 
45

>  <original_smiles>  (46) 
[H]c1c([H])c([H])c2c(c1[H])C([H])([H])C([H])([H])C([H])([H])C2([H])N([H])C(=O)C1([H])N(C(=O)C([H])(N([H])C(=O)C([H])(N([H])C([H])([H])[H])C([H])([H])[H])C(C([H])([H])[H])(C([H])([H])[H])C([H])([H])[H])C([H])([H])c2c([H])c(OC([H])([H])C([H])([H])C([H])([H])C([H])([H])[N+]([H])([H])C([H])([H])c3c([H])c([H])c([H])c(C([H])([H])C(=O)N4C([H])([H])C([H])([H])C([H])([H])C([H])(n5nc(-c6c([H])c([H])c(Oc7c([H])c([H])c(F)c([H])c7F)c([H])c6[H])c(C(=O)N([H])[H])c5N([H])[H])C4([H])[H])c3OC([H])([H])[H])c([H])c([H])c2C1([H])[H]

>  <smiles>  (46) 
[H]c1c([H])c([H])c2c(c1[H])C([H])([H])C([H])([H])C([H])([H])C2([H])N([H])C(=O)C1([H])N(C(=O)C([H])(N([H])C(=O)C([H])(N([H])C([H])([H])[H])C([H])([H])[H])C(C([H])([H])[H])(C([H])([H])[H])C([H])([H])[H])C([H])([H])c2c([H])c(OC([H])([H])C([H])([H])C([H])([H])C([H])([H])[N+]([H])([H])C([H])([H])c3c([H])c([H])c([H])c(C([H])([H])C(=O)N4C([H])([H])C([H])([H])C([H])([H])C([H])(n5nc(-c6c([H])c([H])c(Oc7c([H])c([H])c(F)c([H])c7F)c([H])c6[H])c(C(=O)N([H])[H])c5N([H])[H])C4([H])[H])c3OC([H])([H])[H])c([H])c([H])c2C1([H])[H]

$$$$
46:0:0
     RDKit          3D

 91 99  0  0  1  0  0  0  0  0999 V2000
  -30.3410  -23.2930   20.1730 C   0  0  0  0  0  2  0  0  0  0  0  0
  -30.0930  -24.8230   20.1110 C   0  0  0  0  0  2  0  0  0  0  0  0
  -29.0090  -22.6230   20.5470 C   0  0  0  0  0  3  0  0  0  0  0  0
  -28.6250  -25.1240   20.5090 C   0  0  0  0  0  3  0  0  0  0  0  0
  -27.9610  -23.7420   20.0300 C   0  0  1  0  0  0  0  0  0  0  0  0
  -27.7850  -23.7500   18.4810 C   0  0  0  0  0  1  0  0  0  0  0  0
  -26.5930  -23.4730   20.6870 C   0  0  0  0  0  1  0  0  0  0  0  0
  -28.8980  -21.0500   20.2020 C   0  0  0  0  0  0  0  0  0  0  0  0
  -30.4860  -20.4040   22.0030 C   0  0  0  0  0  1  0  0  0  0  0  0
  -29.5810  -20.0610   20.9020 N   0  0  0  0  0  0  0  0  0  0  0  0
  -28.1110  -20.7070   19.3170 O   0  0  0  0  0  0  0  0  0  0  0  0
  -29.2240  -18.5810   20.9280 C   0  0  0  0  0  3  0  0  0  0  0  0
  -30.2470  -17.4520   20.4340 C   0  0  0  0  0  3  0  0  0  0  0  0
  -29.8610  -15.9500   20.8410 C   0  0  0  0  0  2  0  0  0  0  0  0
  -30.6480  -14.6940   20.2650 C   0  0  0  0  0  0  0  0  0  0  0  0
  -30.4160  -12.4750   19.1410 C   0  0  0  0  0  2  0  0  0  0  0  0
  -29.4420  -12.6220   17.9510 C   0  0  0  0  0  2  0  0  0  0  0  0
  -27.9820  -12.4500   18.4160 C   0  0  0  0  0  2  0  0  0  0  0  0
  -27.6530  -13.3000   19.6700 C   0  0  0  0  0  3  0  0  0  0  0  0
  -28.7360  -13.1260   20.7570 C   0  0  0  0  0  2  0  0  0  0  0  0
  -30.0340  -13.4710   20.1620 N   0  0  0  0  0  0  0  0  0  0  0  0
  -31.7850  -14.8600   19.8140 O   0  0  0  0  0  0  0  0  0  0  0  0
  -25.2810  -13.9060   20.4510 C   0  0  0  0  0  0  0  0  0  0  0  0
  -24.2200  -13.1330   20.8410 C   0  0  0  0  0  0  0  0  0  0  0  0
  -24.6780  -11.7810   20.7890 C   0  0  0  0  0  0  0  0  0  0  0  0
  -26.3150  -13.0220   20.1860 N   0  0  0  0  0  0  0  0  0  0  0  0
  -25.9600  -11.7400   20.4490 N   0  0  0  0  0  0  0  0  0  0  0  0
  -23.9530  -10.5190   20.9840 C   0  0  0  0  0  0  0  0  0  0  0  0
  -24.3920   -9.5530   21.9180 C   0  0  0  0  0  3  0  0  0  0  0  0
  -23.6670   -8.3560   22.1030 C   0  0  0  0  0  3  0  0  0  0  0  0
  -22.4910   -8.1150   21.3520 C   0  0  0  0  0  0  0  0  0  0  0  0
  -22.0730   -9.0690   20.4080 C   0  0  0  0  0  3  0  0  0  0  0  0
  -22.7970  -10.2580   20.2220 C   0  0  0  0  0  3  0  0  0  0  0  0
  -21.7390   -6.9690   21.4440 O   0  0  0  0  0  0  0  0  0  0  0  0
  -21.6760   -6.2410   22.6060 C   0  0  0  0  0  0  0  0  0  0  0  0
  -21.2220   -6.8090   23.8180 C   0  0  0  0  0  3  0  0  0  0  0  0
  -21.1080   -6.0070   24.9710 C   0  0  0  0  0  3  0  0  0  0  0  0
  -21.4360   -4.6380   24.9130 C   0  0  0  0  0  0  0  0  0  0  0  0
  -21.8840   -4.0720   23.7070 C   0  0  0  0  0  3  0  0  0  0  0  0
  -22.0000   -4.8710   22.5560 C   0  0  0  0  0  0  0  0  0  0  0  0
  -22.4110   -4.3140   21.3920 F   0  0  0  0  0  0  0  0  0  0  0  0
  -21.3190   -3.8680   26.0190 F   0  0  0  0  0  0  0  0  0  0  0  0
  -22.8300  -13.6120   21.1470 C   0  0  0  0  0  0  0  0  0  0  0  0
  -22.1190  -12.9090   22.0220 N   0  0  0  0  0  0  0  0  0  0  0  0
  -22.3830  -14.6410   20.6450 O   0  0  0  0  0  0  0  0  0  0  0  0
  -22.4950  -12.0750   22.4480 H   0  0  0  0  0  0  0  0  0  0  0  0
  -21.1870  -13.2090   22.2680 H   0  0  0  0  0  0  0  0  0  0  0  0
  -25.4480  -15.2780   20.2840 N   0  0  0  0  0  0  0  0  0  0  0  0
  -24.6850  -15.9340   20.4170 H   0  0  0  0  0  0  0  0  0  0  0  0
  -26.2930  -15.7140   19.9390 H   0  0  0  0  0  0  0  0  0  0  0  0
  -28.4040  -26.5300   20.0470 O   0  0  0  0  0  0  0  0  0  0  0  0
  -24.6440  -31.8820   23.2520 C   0  0  0  0  0  0  0  0  0  0  0  0
  -27.2400  -27.2980   20.1960 C   0  0  0  0  0  0  0  0  0  0  0  0
  -23.4360  -30.4780   21.6220 C   0  0  0  0  0  3  0  0  0  0  0  0
  -24.8750  -28.9130   20.2040 C   0  0  0  0  0  0  0  0  0  0  0  0
  -25.9740  -30.7950   21.4200 C   0  0  0  0  0  2  0  0  0  0  0  0
  -26.0490  -29.4100   20.7820 C   0  0  0  0  0  0  0  0  0  0  0  0
  -27.2390  -28.6150   20.7620 C   0  0  0  0  0  3  0  0  0  0  0  0
  -26.0370  -26.8460   19.6240 C   0  0  0  0  0  3  0  0  0  0  0  0
  -24.8670  -27.6350   19.6220 C   0  0  0  0  0  3  0  0  0  0  0  0
  -23.6440  -29.7960   20.2420 C   0  0  0  0  0  2  0  0  0  0  0  0
  -24.7060  -31.0680   22.1560 N   0  0  0  0  0  0  0  0  0  0  0  0
  -23.5600  -32.1590   23.7900 O   0  0  0  0  0  0  0  0  0  0  0  0
  -22.7800  -29.4620   22.5880 C   0  0  0  0  0  0  0  0  0  0  0  0
  -21.4540  -29.2800   22.4690 N   0  0  0  0  0  0  0  0  0  0  0  0
  -23.4660  -28.8410   23.4060 O   0  0  0  0  0  0  0  0  0  0  0  0
  -20.9590  -29.8360   21.7860 H   0  0  0  0  0  0  0  0  0  0  0  0
  -18.0890  -28.0640   22.9770 C   0  0  0  0  0  0  0  0  0  0  0  0
  -20.6450  -28.3390   23.2450 C   0  0  0  0  0  3  0  0  0  0  0  0
  -20.7570  -26.9070   22.6720 C   0  0  0  0  0  2  0  0  0  0  0  0
  -19.6560  -26.5750   21.6610 C   0  0  0  0  0  2  0  0  0  0  0  0
  -18.2740  -26.7150   22.3040 C   0  0  0  0  0  2  0  0  0  0  0  0
  -19.2030  -28.8330   23.4050 C   0  0  0  0  0  0  0  0  0  0  0  0
  -18.9770  -30.0990   23.9910 C   0  0  0  0  0  3  0  0  0  0  0  0
  -17.6700  -30.5900   24.1580 C   0  0  0  0  0  3  0  0  0  0  0  0
  -16.5690  -29.8160   23.7500 C   0  0  0  0  0  3  0  0  0  0  0  0
  -16.7780  -28.5550   23.1610 C   0  0  0  0  0  3  0  0  0  0  0  0
  -25.9240  -32.5210   23.8680 C   0  0  0  0  0  3  0  0  0  0  0  0
  -26.4450  -31.7580   25.1470 C   0  0  1  0  0  0  0  0  0  0  0  0
  -25.3570  -31.5280   26.2220 C   0  0  0  0  0  1  0  0  0  0  0  0
  -27.0270  -30.3800   24.7570 C   0  0  0  0  0  1  0  0  0  0  0  0
  -27.5980  -32.5550   25.8020 C   0  0  0  0  0  1  0  0  0  0  0  0
  -25.6100  -33.9210   24.1970 N   0  0  0  0  0  0  0  0  0  0  0  0
  -25.9330  -34.9740   23.4360 C   0  0  0  0  0  0  0  0  0  0  0  0
  -26.5980  -34.8730   22.4000 O   0  0  0  0  0  0  0  0  0  0  0  0
  -25.0280  -34.0770   25.0070 H   0  0  0  0  0  0  0  0  0  0  0  0
  -24.2020  -36.7640   23.0930 C   0  0  0  0  0  1  0  0  0  0  0  0
  -25.4470  -36.3630   23.8970 C   0  0  0  0  0  3  0  0  0  0  0  0
  -27.5860  -37.2580   24.7080 C   0  0  0  0  0  1  0  0  0  0  0  0
  -26.4760  -37.4180   23.7730 N   0  0  0  0  0  0  0  0  0  0  0  0
  -26.0680  -38.3380   23.9220 H   0  0  0  0  0  0  0  0  0  0  0  0
  1  3  1  0
  2  1  1  0
  2  4  1  0
  3  8  1  0
  4 51  1  0
  5  4  1  0
  5  3  1  0
  5  7  1  1
  6  5  1  0
  8 10  1  0
 10 12  1  0
 10  9  1  0
 11  8  2  0
 13 14  1  0
 13 12  2  0
 15 14  1  0
 16 21  1  0
 17 18  1  0
 17 16  1  0
 19 18  1  0
 19 26  1  0
 19 20  1  0
 21 15  1  0
 21 20  1  0
 22 15  2  0
 23 24  2  0
 24 43  1  0
 25 24  1  0
 25 28  1  0
 26 27  1  0
 26 23  1  0
 27 25  2  0
 28 29  1  0
 29 30  2  0
 31 34  1  0
 31 30  1  0
 32 31  2  0
 33 32  1  0
 33 28  2  0
 34 35  1  0
 35 36  1  0
 36 37  2  0
 38 37  1  0
 38 42  1  0
 39 38  2  0
 40 35  2  0
 40 39  1  0
 41 40  1  0
 43 44  1  0
 44 47  1  0
 44 46  1  0
 45 43  2  0
 48 49  1  0
 48 23  1  0
 50 48  1  0
 51 53  1  0
 52 63  2  0
 53 58  1  0
 54 62  1  0
 54 64  1  0
 55 61  1  0
 55 57  1  0
 56 62  1  0
 57 56  1  0
 58 57  2  0
 59 53  2  0
 60 59  1  0
 60 55  2  0
 61 54  1  0
 62 52  1  0
 64 66  2  0
 65 64  1  0
 67 65  1  0
 68 77  2  0
 68 73  1  0
 69 65  1  0
 69 73  1  0
 70 69  1  0
 71 72  1  0
 71 70  1  0
 72 68  1  0
 73 74  2  0
 74 75  1  0
 76 75  2  0
 77 76  1  0
 78 52  1  0
 78 83  1  0
 78 79  1  0
 79 82  1  1
 79 80  1  0
 81 79  1  0
 83 86  1  0
 84 88  1  0
 84 83  1  0
 85 84  2  0
 88 87  1  0
 90 88  1  0
 90 91  1  0
 90 89  1  0
M  ISO  4   4 101  14 100  15 100  51 101
M  END
>  <TORSDO>  (47) 
F 20

>  <SCORE>  (47) 
-13.833

>  <name>  (47) 
46

>  <ligand_id>  (47) 
46

>  <original_smiles>  (47) 
[H]c1c([H])c([H])c2c(c1[H])C([H])([H])C([H])([H])C([H])([H])C2([H])N([H])C(=O)C1([H])N(C(=O)C([H])(N([H])C(=O)C([H])(N([H])C([H])([H])[H])C([H])([H])[H])C(C([H])([H])[H])(C([H])([H])[H])C([H])([H])[H])C([H])([H])c2c([H])c(OC3([H])C([H])([H])C([H])([H])C([H])(C(=O)N(C([H])([H])[H])C([H])([H])C([H])([H])C([H])([H])C(=O)N4C([H])([H])C([H])([H])C([H])([H])C([H])(n5nc(-c6c([H])c([H])c(Oc7c([H])c([H])c(F)c([H])c7F)c([H])c6[H])c(C(=O)N([H])[H])c5N([H])[H])C4([H])[H])C3(C([H])([H])[H])C([H])([H])[H])c([H])c([H])c2C1([H])[H]

>  <smiles>  (47) 
[H]c1c([H])c([H])c2c(c1[H])C([H])([H])C([H])([H])C([H])([H])C2([H])N([H])C(=O)C1([H])N(C(=O)C([H])(N([H])C(=O)C([H])(N([H])C([H])([H])[H])C([H])([H])[H])C(C([H])([H])[H])(C([H])([H])[H])C([H])([H])[H])C([H])([H])c2c([H])c(OC3([H])C([H])([H])C([H])([H])C([H])(C(=O)N(C([H])([H])[H])C([H])([H])C([H])([H])C([H])([H])C(=O)N4C([H])([H])C([H])([H])C([H])([H])C([H])(n5nc(-c6c([H])c([H])c(Oc7c([H])c([H])c(F)c([H])c7F)c([H])c6[H])c(C(=O)N([H])[H])c5N([H])[H])C4([H])[H])C3(C([H])([H])[H])C([H])([H])[H])c([H])c([H])c2C1([H])[H]

$$$$
47:0:0
     RDKit          3D

 92101  0  0  1  0  0  0  0  0999 V2000
  -26.8600  -22.1740   19.6880 C   0  0  0  0  0  2  0  0  0  0  0  0
  -26.5660  -23.6720   19.4660 C   0  0  0  0  0  2  0  0  0  0  0  0
  -28.1730  -22.2060   20.4500 C   0  0  0  0  0  3  0  0  0  0  0  0
  -27.9310  -24.4070   19.6120 C   0  0  0  0  0  3  0  0  0  0  0  0
  -30.2000  -23.6680   20.4040 C   0  0  0  0  0  1  0  0  0  0  0  0
  -28.9320  -23.2820   19.7500 N   0  0  1  0  0  4  0  0  0  0  0  0
  -29.1530  -22.9520   18.8220 H   0  0  0  0  0  0  0  0  0  0  0  0
  -28.6400  -20.4200   22.0940 C   0  0  0  0  0  2  0  0  0  0  0  0
  -28.8030  -20.8290   20.8150 C   0  0  0  0  0  0  0  0  0  0  0  0
  -29.5760  -19.9630   19.7860 C   0  0  0  0  0  2  0  0  0  0  0  0
  -29.4720  -18.4070   20.0240 C   0  0  0  0  0  2  0  0  0  0  0  0
  -31.8050  -17.3790   20.7430 C   0  0  0  0  0  2  0  0  0  0  0  0
  -30.8830  -16.1900   20.5140 C   0  0  0  0  0  3  0  0  0  0  0  0
  -30.6950  -17.5150   19.7270 C   0  0  0  0  0  3  0  0  0  0  0  0
  -31.5120  -14.9490   19.8750 C   0  0  0  0  0  0  0  0  0  0  0  0
  -31.1940  -12.6560   18.9750 C   0  0  0  0  0  2  0  0  0  0  0  0
  -30.2220  -12.7240   17.7780 C   0  0  0  0  0  2  0  0  0  0  0  0
  -28.7550  -12.6390   18.2490 C   0  0  0  0  0  2  0  0  0  0  0  0
  -28.4550  -13.6130   19.4200 C   0  0  0  0  0  3  0  0  0  0  0  0
  -29.5340  -13.4830   20.5150 C   0  0  0  0  0  2  0  0  0  0  0  0
  -30.8430  -13.7540   19.8960 N   0  0  0  0  0  0  0  0  0  0  0  0
  -32.5960  -15.0520   19.2920 O   0  0  0  0  0  0  0  0  0  0  0  0
  -26.1300  -14.3490   20.2380 C   0  0  0  0  0  0  0  0  0  0  0  0
  -25.0320  -13.6350   20.6400 C   0  0  0  0  0  0  0  0  0  0  0  0
  -25.4100  -12.2590   20.5670 C   0  0  0  0  0  0  0  0  0  0  0  0
  -27.1100  -13.4100   19.9530 N   0  0  0  0  0  0  0  0  0  0  0  0
  -26.6810  -12.1460   20.2060 N   0  0  0  0  0  0  0  0  0  0  0  0
  -24.6180  -11.0390   20.7740 C   0  0  0  0  0  0  0  0  0  0  0  0
  -24.9770  -10.0820   21.7490 C   0  0  0  0  0  3  0  0  0  0  0  0
  -24.1890   -8.9250   21.9380 C   0  0  0  0  0  3  0  0  0  0  0  0
  -23.0320   -8.7200   21.1530 C   0  0  0  0  0  0  0  0  0  0  0  0
  -22.6920   -9.6640   20.1700 C   0  0  0  0  0  3  0  0  0  0  0  0
  -23.4770  -10.8120   19.9790 C   0  0  0  0  0  3  0  0  0  0  0  0
  -22.2190   -7.6170   21.2500 O   0  0  0  0  0  0  0  0  0  0  0  0
  -22.0170   -6.9790   22.4460 C   0  0  0  0  0  0  0  0  0  0  0  0
  -21.4930   -7.6530   23.5720 C   0  0  0  0  0  3  0  0  0  0  0  0
  -21.2320   -6.9400   24.7590 C   0  0  0  0  0  3  0  0  0  0  0  0
  -21.4910   -5.5580   24.8230 C   0  0  0  0  0  0  0  0  0  0  0  0
  -22.0120   -4.8870   23.7040 C   0  0  0  0  0  3  0  0  0  0  0  0
  -22.2710   -5.5940   22.5180 C   0  0  0  0  0  0  0  0  0  0  0  0
  -22.7530   -4.9400   21.4340 F   0  0  0  0  0  0  0  0  0  0  0  0
  -21.2350   -4.8720   25.9620 F   0  0  0  0  0  0  0  0  0  0  0  0
  -23.6820  -14.1910   20.9850 C   0  0  0  0  0  0  0  0  0  0  0  0
  -22.9620  -13.5370   21.8920 N   0  0  0  0  0  0  0  0  0  0  0  0
  -23.2760  -15.2360   20.4800 O   0  0  0  0  0  0  0  0  0  0  0  0
  -23.3120  -12.6950   22.3200 H   0  0  0  0  0  0  0  0  0  0  0  0
  -22.0540  -13.8850   22.1630 H   0  0  0  0  0  0  0  0  0  0  0  0
  -26.3670  -15.7080   20.0740 N   0  0  0  0  0  0  0  0  0  0  0  0
  -25.6390  -16.4010   20.2190 H   0  0  0  0  0  0  0  0  0  0  0  0
  -27.2340  -16.1050   19.7330 H   0  0  0  0  0  0  0  0  0  0  0  0
  -28.2170  -25.4810   18.5010 C   0  0  0  0  0  2  0  0  0  0  0  0
  -28.1900  -26.8860   18.8960 O   0  0  0  0  0  0  0  0  0  0  0  0
  -24.6650  -31.6540   22.8930 C   0  0  0  0  0  0  0  0  0  0  0  0
  -27.0120  -27.6060   19.0580 C   0  0  0  0  0  0  0  0  0  0  0  0
  -23.3170  -30.4360   21.2200 C   0  0  0  0  0  3  0  0  0  0  0  0
  -24.6270  -29.0980   19.4850 C   0  0  0  0  0  0  0  0  0  0  0  0
  -25.8100  -30.8410   20.8250 C   0  0  0  0  0  2  0  0  0  0  0  0
  -25.8380  -29.5530   20.0200 C   0  0  0  0  0  0  0  0  0  0  0  0
  -27.0290  -28.8110   19.8080 C   0  0  0  0  0  3  0  0  0  0  0  0
  -25.7840  -27.1910   18.4960 C   0  0  0  0  0  3  0  0  0  0  0  0
  -24.5980  -27.9200   18.7190 C   0  0  0  0  0  3  0  0  0  0  0  0
  -23.3940  -29.9310   19.7520 C   0  0  0  0  0  2  0  0  0  0  0  0
  -24.6240  -30.9810   21.7060 N   0  0  0  0  0  0  0  0  0  0  0  0
  -23.6400  -31.8440   23.5590 O   0  0  0  0  0  0  0  0  0  0  0  0
  -22.7660  -29.2980   22.1090 C   0  0  0  0  0  0  0  0  0  0  0  0
  -21.4420  -29.0740   22.0480 N   0  0  0  0  0  0  0  0  0  0  0  0
  -23.5210  -28.6190   22.8100 O   0  0  0  0  0  0  0  0  0  0  0  0
  -20.8900  -29.6550   21.4380 H   0  0  0  0  0  0  0  0  0  0  0  0
  -18.1670  -27.6440   22.5760 C   0  0  0  0  0  0  0  0  0  0  0  0
  -20.7170  -28.0280   22.7630 C   0  0  0  0  0  3  0  0  0  0  0  0
  -20.8760  -26.6660   22.0480 C   0  0  0  0  0  2  0  0  0  0  0  0
  -19.7500  -26.3690   21.0540 C   0  0  0  0  0  2  0  0  0  0  0  0
  -18.3870  -26.3820   21.7510 C   0  0  0  0  0  2  0  0  0  0  0  0
  -19.2590  -28.4280   23.0290 C   0  0  0  0  0  0  0  0  0  0  0  0
  -18.9940  -29.6120   23.7590 C   0  0  0  0  0  3  0  0  0  0  0  0
  -17.6700  -30.0200   24.0040 C   0  0  0  0  0  3  0  0  0  0  0  0
  -16.5910  -29.2350   23.5610 C   0  0  0  0  0  3  0  0  0  0  0  0
  -16.8440  -28.0410   22.8630 C   0  0  0  0  0  3  0  0  0  0  0  0
  -26.0000  -32.2320   23.4560 C   0  0  0  0  0  3  0  0  0  0  0  0
  -25.7130  -33.5690   23.9960 N   0  0  0  0  0  0  0  0  0  0  0  0
  -25.9850  -34.7160   23.3600 C   0  0  0  0  0  0  0  0  0  0  0  0
  -26.5800  -34.7620   22.2780 O   0  0  0  0  0  0  0  0  0  0  0  0
  -25.1660  -33.6110   24.8460 H   0  0  0  0  0  0  0  0  0  0  0  0
  -24.2340  -36.5240   23.3690 C   0  0  0  0  0  1  0  0  0  0  0  0
  -25.5280  -36.0250   24.0340 C   0  0  0  0  0  3  0  0  0  0  0  0
  -27.7120  -36.8130   24.8330 C   0  0  0  0  0  1  0  0  0  0  0  0
  -26.5490  -37.0950   23.9950 N   0  0  0  0  0  0  0  0  0  0  0  0
  -26.1490  -37.9800   24.2960 H   0  0  0  0  0  0  0  0  0  0  0  0
  -26.6570  -31.3180   24.5620 C   0  0  1  0  0  0  0  0  0  0  0  0
  -25.6820  -30.9280   25.6970 C   0  0  0  0  0  1  0  0  0  0  0  0
  -27.2010  -30.0140   23.9360 C   0  0  0  0  0  1  0  0  0  0  0  0
  -27.8670  -32.0450   25.1980 C   0  0  0  0  0  1  0  0  0  0  0  0
  1  3  1  0
  2  4  1  0
  2  1  1  0
  3  9  1  0
  4 51  1  0
  4  6  1  0
  6  5  1  0
  6  3  1  0
  6  7  1  6
  9  8  2  0
 10 11  1  0
 10  9  1  0
 13 15  1  0
 13 12  1  0
 14 11  1  0
 14 13  1  0
 14 12  1  0
 15 21  1  0
 16 21  1  0
 17 18  1  0
 17 16  1  0
 19 18  1  0
 19 26  1  0
 19 20  1  0
 21 20  1  0
 22 15  2  0
 23 24  2  0
 24 43  1  0
 25 24  1  0
 25 28  1  0
 26 27  1  0
 26 23  1  0
 27 25  2  0
 28 29  1  0
 29 30  2  0
 31 34  1  0
 31 30  1  0
 32 31  2  0
 33 32  1  0
 33 28  2  0
 34 35  1  0
 35 40  2  0
 35 36  1  0
 36 37  2  0
 37 38  1  0
 38 42  1  0
 39 38  2  0
 40 39  1  0
 41 40  1  0
 43 44  1  0
 44 47  1  0
 44 46  1  0
 45 43  2  0
 48 49  1  0
 48 23  1  0
 50 48  1  0
 51 52  1  0
 52 54  1  0
 53 64  2  0
 54 59  1  0
 55 63  1  0
 55 65  1  0
 56 62  1  0
 56 58  1  0
 57 63  1  0
 58 57  1  0
 59 58  2  0
 60 61  1  0
 60 54  2  0
 61 56  2  0
 62 55  1  0
 63 53  1  0
 65 67  2  0
 66 65  1  0
 68 66  1  0
 69 78  2  0
 69 74  1  0
 70 66  1  0
 70 74  1  0
 71 70  1  0
 72 73  1  0
 72 71  1  0
 73 69  1  0
 74 75  2  0
 75 76  1  0
 77 76  2  0
 78 77  1  0
 79 53  1  0
 79 80  1  0
 79 89  1  0
 80 83  1  0
 81 80  1  0
 81 85  1  0
 82 81  2  0
 85 84  1  0
 87 85  1  0
 87 88  1  0
 87 86  1  0
 89 92  1  1
 89 90  1  0
 91 89  1  0
M  ISO  4  13 100  15 100  51 101  52 101
M  END
>  <TORSDO>  (48) 
F 21

>  <SCORE>  (48) 
-10.116

>  <name>  (48) 
47

>  <ligand_id>  (48) 
47

>  <original_smiles>  (48) 
[H]C([H])=C(C([H])([H])C([H])([H])C1([H])C([H])([H])C1([H])C(=O)N1C([H])([H])C([H])([H])C([H])([H])C([H])(n2nc(-c3c([H])c([H])c(Oc4c([H])c([H])c(F)c([H])c4F)c([H])c3[H])c(C(=O)N([H])[H])c2N([H])[H])C1([H])[H])C1([H])C([H])([H])C([H])([H])C([H])(C([H])([H])Oc2c([H])c([H])c3c(c2[H])C([H])([H])N(C(=O)C([H])(N([H])C(=O)C([H])(N([H])C([H])([H])[H])C([H])([H])[H])C(C([H])([H])[H])(C([H])([H])[H])C([H])([H])[H])C([H])(C(=O)N([H])C2([H])c4c([H])c([H])c([H])c([H])c4C([H])([H])C([H])([H])C2([H])[H])C3([H])[H])[N+]1([H])C([H])([H])[H]

>  <smiles>  (48) 
[H]C([H])=C(C([H])([H])C([H])([H])C1([H])C([H])([H])C1([H])C(=O)N1C([H])([H])C([H])([H])C([H])([H])C([H])(n2nc(-c3c([H])c([H])c(Oc4c([H])c([H])c(F)c([H])c4F)c([H])c3[H])c(C(=O)N([H])[H])c2N([H])[H])C1([H])[H])C1([H])C([H])([H])C([H])([H])C([H])(C([H])([H])Oc2c([H])c([H])c3c(c2[H])C([H])([H])N(C(=O)C([H])(N([H])C(=O)C([H])(N([H])C([H])([H])[H])C([H])([H])[H])C(C([H])([H])[H])(C([H])([H])[H])C([H])([H])[H])C([H])(C(=O)N([H])C2([H])c4c([H])c([H])c([H])c([H])c4C([H])([H])C([H])([H])C2([H])[H])C3([H])[H])[N+]1([H])C([H])([H])[H]

$$$$
48:0:0
     RDKit          3D

 86 93  0  0  1  0  0  0  0  0999 V2000
  -28.9580  -22.4270   20.2710 C   0  0  0  0  0  3  0  0  0  0  0  0
  -27.9510  -24.0230   20.2730 C   0  0  0  0  0  3  0  0  0  0  0  0
  -28.1700  -25.7210   20.2840 O   0  0  0  0  0  0  0  0  0  0  0  0
  -24.6450  -31.8760   23.2030 C   0  0  0  0  0  0  0  0  0  0  0  0
  -27.1730  -26.8720   20.2320 C   0  0  0  0  0  0  0  0  0  0  0  0
  -23.4470  -30.4680   21.5790 C   0  0  0  0  0  3  0  0  0  0  0  0
  -24.8880  -28.8290   20.1720 C   0  0  0  0  0  0  0  0  0  0  0  0
  -26.0190  -30.6450   21.4320 C   0  0  0  0  0  2  0  0  0  0  0  0
  -26.0830  -29.2160   20.7890 C   0  0  0  0  0  0  0  0  0  0  0  0
  -27.2150  -28.2630   20.7880 C   0  0  0  0  0  3  0  0  0  0  0  0
  -25.9440  -26.6660   19.5630 C   0  0  0  0  0  3  0  0  0  0  0  0
  -24.8500  -27.5770   19.5350 C   0  0  0  0  0  3  0  0  0  0  0  0
  -23.6760  -29.7670   20.2110 C   0  0  0  0  0  2  0  0  0  0  0  0
  -24.7270  -31.0270   22.1240 N   0  0  0  0  0  0  0  0  0  0  0  0
  -23.5560  -32.1750   23.7230 O   0  0  0  0  0  0  0  0  0  0  0  0
  -22.7440  -29.4900   22.5590 C   0  0  0  0  0  0  0  0  0  0  0  0
  -21.4120  -29.3310   22.4430 N   0  0  0  0  0  0  0  0  0  0  0  0
  -23.4090  -28.8710   23.3950 O   0  0  0  0  0  0  0  0  0  0  0  0
  -20.9270  -29.8830   21.7480 H   0  0  0  0  0  0  0  0  0  0  0  0
  -18.0320  -28.1180   22.9730 C   0  0  0  0  0  0  0  0  0  0  0  0
  -20.5910  -28.4000   23.2260 C   0  0  0  0  0  3  0  0  0  0  0  0
  -20.6950  -26.9610   22.6670 C   0  0  0  0  0  2  0  0  0  0  0  0
  -19.5940  -26.6230   21.6590 C   0  0  0  0  0  2  0  0  0  0  0  0
  -18.2130  -26.7650   22.3040 C   0  0  0  0  0  2  0  0  0  0  0  0
  -19.1470  -28.8920   23.3900 C   0  0  0  0  0  0  0  0  0  0  0  0
  -18.9190  -30.1530   23.9820 C   0  0  0  0  0  3  0  0  0  0  0  0
  -17.6110  -30.6440   24.1540 C   0  0  0  0  0  3  0  0  0  0  0  0
  -16.5110  -29.8690   23.7480 C   0  0  0  0  0  3  0  0  0  0  0  0
  -16.7230  -28.6070   23.1650 C   0  0  0  0  0  3  0  0  0  0  0  0
  -25.9150  -32.5280   23.8320 C   0  0  0  0  0  3  0  0  0  0  0  0
  -25.5910  -33.9240   24.1730 N   0  0  0  0  0  0  0  0  0  0  0  0
  -25.8940  -34.9930   23.4220 C   0  0  0  0  0  0  0  0  0  0  0  0
  -26.5360  -34.9050   22.3730 O   0  0  0  0  0  0  0  0  0  0  0  0
  -25.0150  -34.0650   24.9900 H   0  0  0  0  0  0  0  0  0  0  0  0
  -24.1370  -36.7790   23.1550 C   0  0  0  0  0  1  0  0  0  0  0  0
  -25.4150  -36.3760   23.9100 C   0  0  0  0  0  3  0  0  0  0  0  0
  -27.5690  -37.2850   24.6610 C   0  0  0  0  0  1  0  0  0  0  0  0
  -26.4310  -37.4400   23.7600 N   0  0  0  0  0  0  0  0  0  0  0  0
  -26.0200  -38.3560   23.9240 H   0  0  0  0  0  0  0  0  0  0  0  0
  -26.4300  -31.7650   25.1160 C   0  0  1  0  0  0  0  0  0  0  0  0
  -25.3370  -31.5340   26.1860 C   0  0  0  0  0  1  0  0  0  0  0  0
  -27.0150  -30.3850   24.7420 C   0  0  0  0  0  1  0  0  0  0  0  0
  -27.5790  -32.5650   25.7740 C   0  0  0  0  0  1  0  0  0  0  0  0
  -28.6720  -20.5640   20.3830 C   0  0  0  0  0  3  0  0  0  0  0  0
  -27.4910  -20.3130   19.5430 N   0  0  0  0  0  4  0  0  0  0  0  0
  -27.7220  -20.3880   18.5680 H   0  0  0  0  0  0  0  0  0  0  0  0
  -26.7610  -20.9700   19.7510 H   0  0  0  0  0  0  0  0  0  0  0  0
  -27.1310  -19.3920   19.7160 H   0  0  0  0  0  0  0  0  0  0  0  0
  -29.6890  -18.9780   20.2510 C   0  0  0  0  0  3  0  0  0  0  0  0
  -29.4250  -17.1230   20.4600 C   0  0  0  0  0  3  0  0  0  0  0  0
  -30.2960  -15.5380   20.2060 C   0  0  0  0  0  0  0  0  0  0  0  0
  -30.3680  -13.0440   19.3220 C   0  0  0  0  0  2  0  0  0  0  0  0
  -29.4270  -12.7700   18.1140 C   0  0  0  0  0  2  0  0  0  0  0  0
  -28.0050  -12.4360   18.5900 C   0  0  0  0  0  2  0  0  0  0  0  0
  -27.5470  -13.3970   19.7120 C   0  0  0  0  0  3  0  0  0  0  0  0
  -28.6110  -13.6000   20.8110 C   0  0  0  0  0  2  0  0  0  0  0  0
  -29.8080  -14.1760   20.1690 N   0  0  0  0  0  0  0  0  0  0  0  0
  -31.5070  -15.5360   19.9230 O   0  0  0  0  0  0  0  0  0  0  0  0
  -25.2000  -13.9150   20.5500 C   0  0  0  0  0  0  0  0  0  0  0  0
  -24.1550  -13.1240   20.9320 C   0  0  0  0  0  0  0  0  0  0  0  0
  -24.6290  -11.7770   20.8630 C   0  0  0  0  0  0  0  0  0  0  0  0
  -26.2400  -13.0530   20.2560 N   0  0  0  0  0  0  0  0  0  0  0  0
  -25.9130  -11.7590   20.5130 N   0  0  0  0  0  0  0  0  0  0  0  0
  -23.9130  -10.5070   21.0500 C   0  0  0  0  0  0  0  0  0  0  0  0
  -24.3630   -9.5330   21.9670 C   0  0  0  0  0  3  0  0  0  0  0  0
  -23.6440   -8.3310   22.1460 C   0  0  0  0  0  3  0  0  0  0  0  0
  -22.4610   -8.0950   21.4050 C   0  0  0  0  0  0  0  0  0  0  0  0
  -22.0300   -9.0580   20.4770 C   0  0  0  0  0  3  0  0  0  0  0  0
  -22.7490  -10.2510   20.2980 C   0  0  0  0  0  3  0  0  0  0  0  0
  -21.7140   -6.9450   21.4930 O   0  0  0  0  0  0  0  0  0  0  0  0
  -21.6700   -6.1990   22.6420 C   0  0  0  0  0  0  0  0  0  0  0  0
  -21.2290   -6.7440   23.8670 C   0  0  0  0  0  3  0  0  0  0  0  0
  -21.1370   -5.9240   25.0100 C   0  0  0  0  0  3  0  0  0  0  0  0
  -21.4730   -4.5590   24.9280 C   0  0  0  0  0  0  0  0  0  0  0  0
  -21.9080   -4.0130   23.7080 C   0  0  0  0  0  3  0  0  0  0  0  0
  -22.0030   -4.8300   22.5670 C   0  0  0  0  0  0  0  0  0  0  0  0
  -22.4020   -4.2950   21.3890 F   0  0  0  0  0  0  0  0  0  0  0  0
  -21.3770   -3.7690   26.0240 F   0  0  0  0  0  0  0  0  0  0  0  0
  -22.7620  -13.5870   21.2460 C   0  0  0  0  0  0  0  0  0  0  0  0
  -22.0630  -12.8760   22.1230 N   0  0  0  0  0  0  0  0  0  0  0  0
  -22.3060  -14.6170   20.7500 O   0  0  0  0  0  0  0  0  0  0  0  0
  -22.4500  -12.0430   22.5430 H   0  0  0  0  0  0  0  0  0  0  0  0
  -21.1290  -13.1650   22.3770 H   0  0  0  0  0  0  0  0  0  0  0  0
  -25.3490  -15.2890   20.3970 N   0  0  0  0  0  0  0  0  0  0  0  0
  -24.5810  -15.9340   20.5500 H   0  0  0  0  0  0  0  0  0  0  0  0
  -26.1900  -15.7420   20.0610 H   0  0  0  0  0  0  0  0  0  0  0  0
  1  2  2  0
  1 44  1  0
  2  3  1  0
  4 15  2  0
  5  3  1  0
  5 10  1  0
  6 14  1  0
  6 16  1  0
  7 13  1  0
  7  9  1  0
  8 14  1  0
  9  8  1  0
 10  9  2  0
 11  5  2  0
 12 11  1  0
 12  7  2  0
 13  6  1  0
 14  4  1  0
 16 18  2  0
 17 16  1  0
 19 17  1  0
 20 29  2  0
 20 25  1  0
 21 17  1  0
 21 25  1  0
 22 21  1  0
 23 24  1  0
 23 22  1  0
 24 20  1  0
 25 26  2  0
 26 27  1  0
 28 27  2  0
 29 28  1  0
 30  4  1  0
 30 31  1  0
 30 40  1  0
 31 34  1  0
 32 36  1  0
 32 31  1  0
 33 32  2  0
 36 35  1  0
 38 36  1  0
 38 39  1  0
 38 37  1  0
 40 43  1  1
 40 41  1  0
 42 40  1  0
 44 49  1  0
 45 48  1  0
 45 47  1  0
 45 44  1  0
 46 45  1  0
 49 50  2  0
 51 50  1  0
 52 57  1  0
 53 54  1  0
 53 52  1  0
 55 54  1  0
 55 62  1  0
 55 56  1  0
 57 51  1  0
 57 56  1  0
 58 51  2  0
 59 60  2  0
 60 79  1  0
 61 60  1  0
 61 64  1  0
 62 63  1  0
 62 59  1  0
 63 61  2  0
 64 65  1  0
 65 66  2  0
 67 70  1  0
 67 66  1  0
 68 67  2  0
 69 68  1  0
 69 64  2  0
 70 71  1  0
 71 72  1  0
 72 73  2  0
 74 73  1  0
 74 78  1  0
 75 74  2  0
 76 71  2  0
 76 75  1  0
 77 76  1  0
 79 80  1  0
 80 83  1  0
 80 82  1  0
 81 79  2  0
 84 85  1  0
 84 59  1  0
 86 84  1  0
M  ISO  4   2 101   3 101  50 100  51 100
M  END
>  <TORSDO>  (49) 
F 21

>  <SCORE>  (49) 
-16.568

>  <name>  (49) 
48

>  <ligand_id>  (49) 
48

>  <original_smiles>  (49) 
[H]c1c([H])c([H])c2c(c1[H])C([H])([H])C([H])([H])C([H])([H])C2([H])N([H])C(=O)C1([H])N(C(=O)C([H])(N([H])C(=O)C([H])(N([H])C([H])([H])[H])C([H])([H])[H])C(C([H])([H])[H])(C([H])([H])[H])C([H])([H])[H])C([H])([H])c2c([H])c(OC([H])([H])C([H])([H])C([H])(C([H])([H])C([H])([H])C(=O)N3C([H])([H])C([H])([H])C([H])([H])C([H])(n4nc(-c5c([H])c([H])c(Oc6c([H])c([H])c(F)c([H])c6F)c([H])c5[H])c(C(=O)N([H])[H])c4N([H])[H])C3([H])[H])[N+]([H])([H])[H])c([H])c([H])c2C1([H])[H]

>  <smiles>  (49) 
[H]c1c([H])c([H])c2c(c1[H])C([H])([H])C([H])([H])C([H])([H])C2([H])N([H])C(=O)C1([H])N(C(=O)C([H])(N([H])C(=O)C([H])(N([H])C([H])([H])[H])C([H])([H])[H])C(C([H])([H])[H])(C([H])([H])[H])C([H])([H])[H])C([H])([H])c2c([H])c(OC([H])([H])C([H])([H])C([H])(C([H])([H])C([H])([H])C(=O)N3C([H])([H])C([H])([H])C([H])([H])C([H])(n4nc(-c5c([H])c([H])c(Oc6c([H])c([H])c(F)c([H])c6F)c([H])c5[H])c(C(=O)N([H])[H])c4N([H])[H])C3([H])[H])[N+]([H])([H])[H])c([H])c([H])c2C1([H])[H]

$$$$
49:0:0
     RDKit          3D

 92101  0  0  1  0  0  0  0  0999 V2000
  -31.0600  -18.8120   23.6070 C   0  0  0  0  0  3  0  0  0  0  0  0
  -32.0470  -18.1280   22.8570 C   0  0  0  0  0  3  0  0  0  0  0  0
  -29.8740  -19.2650   22.9890 C   0  0  0  0  0  3  0  0  0  0  0  0
  -31.8630  -17.8870   21.4760 C   0  0  0  0  0  3  0  0  0  0  0  0
  -29.7040  -19.0070   21.6170 C   0  0  0  0  0  0  0  0  0  0  0  0
  -30.6730  -18.3410   20.8790 C   0  0  0  0  0  0  0  0  0  0  0  0
  -28.5720  -19.4410   20.7200 C   0  0  0  0  0  2  0  0  0  0  0  0
  -30.2340  -18.2130   19.4380 C   0  0  0  0  0  3  0  0  0  0  0  0
  -29.2150  -19.4360   19.3740 N   0  0  2  0  0  4  0  0  0  0  0  0
  -28.5180  -19.2210   18.6780 H   0  0  0  0  0  0  0  0  0  0  0  0
  -29.7120  -16.6370   19.2470 C   0  0  0  0  0  2  0  0  0  0  0  0
  -30.6520  -15.2860   19.1570 C   0  0  0  0  0  0  0  0  0  0  0  0
  -30.5630  -12.8460   18.5090 C   0  0  0  0  0  2  0  0  0  0  0  0
  -29.5010  -12.6710   17.3950 C   0  0  0  0  0  2  0  0  0  0  0  0
  -28.0960  -12.4770   17.9970 C   0  0  0  0  0  2  0  0  0  0  0  0
  -27.7850  -13.5070   19.1140 C   0  0  0  0  0  3  0  0  0  0  0  0
  -28.9530  -13.6410   20.1120 C   0  0  0  0  0  2  0  0  0  0  0  0
  -30.1540  -14.0030   19.3490 N   0  0  0  0  0  0  0  0  0  0  0  0
  -31.8030  -15.3840   18.7170 O   0  0  0  0  0  0  0  0  0  0  0  0
  -25.5610  -14.1240   20.2280 C   0  0  0  0  0  0  0  0  0  0  0  0
  -24.5280  -13.3650   20.7050 C   0  0  0  0  0  0  0  0  0  0  0  0
  -24.9230  -12.0030   20.5250 C   0  0  0  0  0  0  0  0  0  0  0  0
  -26.5180  -13.2280   19.7840 N   0  0  0  0  0  0  0  0  0  0  0  0
  -26.1520  -11.9430   20.0250 N   0  0  0  0  0  0  0  0  0  0  0  0
  -24.1760  -10.7580   20.7440 C   0  0  0  0  0  0  0  0  0  0  0  0
  -24.6200   -9.7830   21.6640 C   0  0  0  0  0  3  0  0  0  0  0  0
  -23.8740   -8.6020   21.8720 C   0  0  0  0  0  3  0  0  0  0  0  0
  -22.6700   -8.3880   21.1610 C   0  0  0  0  0  0  0  0  0  0  0  0
  -22.2440   -9.3520   20.2290 C   0  0  0  0  0  3  0  0  0  0  0  0
  -22.9900  -10.5240   20.0190 C   0  0  0  0  0  3  0  0  0  0  0  0
  -21.8930   -7.2610   21.2790 O   0  0  0  0  0  0  0  0  0  0  0  0
  -21.7530   -6.6060   22.4760 C   0  0  0  0  0  0  0  0  0  0  0  0
  -21.2140   -7.2420   23.6150 C   0  0  0  0  0  3  0  0  0  0  0  0
  -21.0220   -6.5120   24.8050 C   0  0  0  0  0  3  0  0  0  0  0  0
  -21.3610   -5.1470   24.8560 C   0  0  0  0  0  0  0  0  0  0  0  0
  -21.8950   -4.5110   23.7210 C   0  0  0  0  0  3  0  0  0  0  0  0
  -22.0870   -5.2380   22.5340 C   0  0  0  0  0  0  0  0  0  0  0  0
  -22.5810   -4.6150   21.4370 F   0  0  0  0  0  0  0  0  0  0  0  0
  -21.1720   -4.4430   25.9960 F   0  0  0  0  0  0  0  0  0  0  0  0
  -23.2070  -13.8720   21.2060 C   0  0  0  0  0  0  0  0  0  0  0  0
  -22.5920  -13.1570   22.1410 N   0  0  0  0  0  0  0  0  0  0  0  0
  -22.7380  -14.9360   20.8050 O   0  0  0  0  0  0  0  0  0  0  0  0
  -22.9890  -12.2940   22.4840 H   0  0  0  0  0  0  0  0  0  0  0  0
  -21.7120  -13.4760   22.5190 H   0  0  0  0  0  0  0  0  0  0  0  0
  -25.7570  -15.4970   20.1120 N   0  0  0  0  0  0  0  0  0  0  0  0
  -25.0360  -16.1640   20.3650 H   0  0  0  0  0  0  0  0  0  0  0  0
  -26.5530  -15.9270   19.6600 H   0  0  0  0  0  0  0  0  0  0  0  0
  -29.7040  -20.9080   19.0670 C   0  0  0  0  0  3  0  0  0  0  0  0
  -28.6470  -22.1930   18.8410 C   0  0  0  0  0  3  0  0  0  0  0  0
  -29.0420  -23.8150   18.9220 C   0  0  0  0  0  3  0  0  0  0  0  0
  -27.9390  -25.0510   18.7470 C   0  0  0  0  0  3  0  0  0  0  0  0
  -28.1540  -26.5540   19.0200 O   0  0  0  0  0  0  0  0  0  0  0  0
  -24.4410  -31.4530   23.0320 C   0  0  0  0  0  0  0  0  0  0  0  0
  -27.0360  -27.4420   19.1660 C   0  0  0  0  0  0  0  0  0  0  0  0
  -23.1980  -30.2480   21.2760 C   0  0  0  0  0  3  0  0  0  0  0  0
  -24.6190  -29.0000   19.5410 C   0  0  0  0  0  0  0  0  0  0  0  0
  -25.7140  -30.7010   20.9930 C   0  0  0  0  0  2  0  0  0  0  0  0
  -25.8120  -29.4310   20.1360 C   0  0  0  0  0  0  0  0  0  0  0  0
  -27.0200  -28.6700   19.9330 C   0  0  0  0  0  3  0  0  0  0  0  0
  -25.8070  -27.1070   18.5530 C   0  0  0  0  0  3  0  0  0  0  0  0
  -24.6260  -27.8520   18.7380 C   0  0  0  0  0  3  0  0  0  0  0  0
  -23.3520  -29.7990   19.8000 C   0  0  0  0  0  2  0  0  0  0  0  0
  -24.4730  -30.8130   21.8240 N   0  0  0  0  0  0  0  0  0  0  0  0
  -23.3830  -31.5880   23.6640 O   0  0  0  0  0  0  0  0  0  0  0  0
  -22.6430  -29.0670   22.1130 C   0  0  0  0  0  0  0  0  0  0  0  0
  -21.3350  -28.7880   21.9830 N   0  0  0  0  0  0  0  0  0  0  0  0
  -23.3920  -28.4100   22.8410 O   0  0  0  0  0  0  0  0  0  0  0  0
  -20.7810  -29.3780   21.3780 H   0  0  0  0  0  0  0  0  0  0  0  0
  -18.0920  -27.2240   22.3750 C   0  0  0  0  0  0  0  0  0  0  0  0
  -20.6220  -27.6890   22.6420 C   0  0  0  0  0  3  0  0  0  0  0  0
  -20.8400  -26.3540   21.8930 C   0  0  0  0  0  2  0  0  0  0  0  0
  -19.7490  -26.0560   20.8590 C   0  0  0  0  0  2  0  0  0  0  0  0
  -18.3740  -25.9910   21.5330 C   0  0  0  0  0  2  0  0  0  0  0  0
  -19.1460  -28.0300   22.8810 C   0  0  0  0  0  0  0  0  0  0  0  0
  -18.8260  -29.1830   23.6290 C   0  0  0  0  0  3  0  0  0  0  0  0
  -17.4850  -29.5340   23.8740 C   0  0  0  0  0  3  0  0  0  0  0  0
  -16.4460  -28.7240   23.3830 C   0  0  0  0  0  3  0  0  0  0  0  0
  -16.7510  -27.5710   22.6390 C   0  0  0  0  0  3  0  0  0  0  0  0
  -25.7280  -32.0630   23.6660 C   0  0  0  0  0  3  0  0  0  0  0  0
  -25.4270  -33.4530   24.0400 N   0  0  0  0  0  0  0  0  0  0  0  0
  -25.7570  -34.5280   23.3120 C   0  0  0  0  0  0  0  0  0  0  0  0
  -26.4140  -34.4530   22.2690 O   0  0  0  0  0  0  0  0  0  0  0  0
  -24.8450  -33.5860   24.8530 H   0  0  0  0  0  0  0  0  0  0  0  0
  -24.0310  -36.3390   23.0410 C   0  0  0  0  0  1  0  0  0  0  0  0
  -25.2840  -35.9050   23.8180 C   0  0  0  0  0  3  0  0  0  0  0  0
  -27.4270  -36.7680   24.6510 C   0  0  0  0  0  1  0  0  0  0  0  0
  -26.3190  -36.9570   23.7180 N   0  0  0  0  0  0  0  0  0  0  0  0
  -25.9170  -37.8750   23.8860 H   0  0  0  0  0  0  0  0  0  0  0  0
  -26.2440  -31.2540   24.9210 C   0  0  1  0  0  0  0  0  0  0  0  0
  -25.1480  -30.9840   25.9800 C   0  0  0  0  0  1  0  0  0  0  0  0
  -26.8310  -29.8900   24.4930 C   0  0  0  0  0  1  0  0  0  0  0  0
  -27.3920  -32.0320   25.6080 C   0  0  0  0  0  1  0  0  0  0  0  0
  2  1  2  0
  3  1  1  0
  4  2  1  0
  5  3  2  0
  6  4  2  0
  6  5  1  0
  7  5  1  0
  8 11  1  0
  8  6  1  0
  9  8  1  0
  9  7  1  0
  9 10  1  6
 12 11  1  0
 12 18  1  0
 13 18  1  0
 14 15  1  0
 14 13  1  0
 16 15  1  0
 16 23  1  0
 16 17  1  0
 18 17  1  0
 19 12  2  0
 20 21  2  0
 21 40  1  0
 22 21  1  0
 22 25  1  0
 23 24  1  0
 23 20  1  0
 24 22  2  0
 25 26  1  0
 26 27  2  0
 28 31  1  0
 28 27  1  0
 29 28  2  0
 30 29  1  0
 30 25  2  0
 31 32  1  0
 32 37  2  0
 32 33  1  0
 33 34  2  0
 34 35  1  0
 35 39  1  0
 36 35  2  0
 37 36  1  0
 38 37  1  0
 40 41  1  0
 41 43  1  0
 41 44  1  0
 42 40  2  0
 45 20  1  0
 45 46  1  0
 47 45  1  0
 48  9  1  0
 49 50  1  0
 49 48  2  0
 51 50  2  0
 51 52  1  0
 52 54  1  0
 53 64  2  0
 54 59  1  0
 55 63  1  0
 55 65  1  0
 56 62  1  0
 56 58  1  0
 57 63  1  0
 58 57  1  0
 59 58  2  0
 60 61  1  0
 60 54  2  0
 61 56  2  0
 62 55  1  0
 63 53  1  0
 65 67  2  0
 66 65  1  0
 68 66  1  0
 69 78  2  0
 69 74  1  0
 70 66  1  0
 70 74  1  0
 71 70  1  0
 72 73  1  0
 72 71  1  0
 73 69  1  0
 74 75  2  0
 75 76  1  0
 77 76  2  0
 78 77  1  0
 79 53  1  0
 79 80  1  0
 79 89  1  0
 80 83  1  0
 81 85  1  0
 81 80  1  0
 82 81  2  0
 85 84  1  0
 87 85  1  0
 87 88  1  0
 87 86  1  0
 89 92  1  1
 89 90  1  0
 91 89  1  0
M  ISO  4  11 100  12 100  51 101  52 101
M  END
>  <TORSDO>  (50) 
F 21

>  <SCORE>  (50) 
-8.207

>  <name>  (50) 
49

>  <ligand_id>  (50) 
49

>  <original_smiles>  (50) 
[H]c1c([H])c([H])c2c(c1[H])C([H])([H])C([H])([H])C([H])([H])C2([H])N([H])C(=O)C1([H])N(C(=O)C([H])(N([H])C(=O)C([H])(N([H])C([H])([H])[H])C([H])([H])[H])C(C([H])([H])[H])(C([H])([H])[H])C([H])([H])[H])C([H])([H])c2c([H])c(OC([H])([H])C([H])([H])C([H])([H])C([H])([H])[N+]3([H])C([H])([H])c4c([H])c([H])c([H])c([H])c4C3([H])C([H])([H])C(=O)N3C([H])([H])C([H])([H])C([H])([H])C([H])(n4nc(-c5c([H])c([H])c(Oc6c([H])c([H])c(F)c([H])c6F)c([H])c5[H])c(C(=O)N([H])[H])c4N([H])[H])C3([H])[H])c([H])c([H])c2C1([H])[H]

>  <smiles>  (50) 
[H]c1c([H])c([H])c2c(c1[H])C([H])([H])C([H])([H])C([H])([H])C2([H])N([H])C(=O)C1([H])N(C(=O)C([H])(N([H])C(=O)C([H])(N([H])C([H])([H])[H])C([H])([H])[H])C(C([H])([H])[H])(C([H])([H])[H])C([H])([H])[H])C([H])([H])c2c([H])c(OC([H])([H])C([H])([H])C([H])([H])C([H])([H])[N+]3([H])C([H])([H])c4c([H])c([H])c([H])c([H])c4C3([H])C([H])([H])C(=O)N3C([H])([H])C([H])([H])C([H])([H])C([H])(n4nc(-c5c([H])c([H])c(Oc6c([H])c([H])c(F)c([H])c6F)c([H])c5[H])c(C(=O)N([H])[H])c4N([H])[H])C3([H])[H])c([H])c([H])c2C1([H])[H]

$$$$
50:0:0
     RDKit          3D

 89 96  0  0  1  0  0  0  0  0999 V2000
  -29.5840  -18.8810   20.4340 C   0  0  0  0  0  3  0  0  0  0  0  0
  -28.9590  -20.5790   19.8500 C   0  0  0  0  0  3  0  0  0  0  0  0
  -28.8260  -22.3710   20.4610 C   0  0  0  0  0  3  0  0  0  0  0  0
  -28.0540  -24.0240   19.9460 C   0  0  0  0  0  3  0  0  0  0  0  0
  -28.1650  -25.6960   20.3170 O   0  0  0  0  0  0  0  0  0  0  0  0
  -24.6280  -31.8740   23.1890 C   0  0  0  0  0  0  0  0  0  0  0  0
  -27.1790  -26.8610   20.2230 C   0  0  0  0  0  0  0  0  0  0  0  0
  -23.4400  -30.4540   21.5720 C   0  0  0  0  0  3  0  0  0  0  0  0
  -24.8880  -28.8200   20.1610 C   0  0  0  0  0  0  0  0  0  0  0  0
  -26.0130  -30.6300   21.4420 C   0  0  0  0  0  2  0  0  0  0  0  0
  -26.0800  -29.2080   20.7880 C   0  0  0  0  0  0  0  0  0  0  0  0
  -27.2130  -28.2510   20.7900 C   0  0  0  0  0  3  0  0  0  0  0  0
  -25.9550  -26.6600   19.5480 C   0  0  0  0  0  3  0  0  0  0  0  0
  -24.8570  -27.5700   19.5240 C   0  0  0  0  0  3  0  0  0  0  0  0
  -23.6680  -29.7480   20.2070 C   0  0  0  0  0  2  0  0  0  0  0  0
  -24.7150  -31.0190   22.1180 N   0  0  0  0  0  0  0  0  0  0  0  0
  -23.5330  -32.1750   23.7000 O   0  0  0  0  0  0  0  0  0  0  0  0
  -22.7360  -29.4790   22.5510 C   0  0  0  0  0  0  0  0  0  0  0  0
  -21.4070  -29.3120   22.4210 N   0  0  0  0  0  0  0  0  0  0  0  0
  -23.3950  -28.8700   23.3960 O   0  0  0  0  0  0  0  0  0  0  0  0
  -20.9280  -29.8220   21.6940 H   0  0  0  0  0  0  0  0  0  0  0  0
  -18.0200  -28.1240   22.9560 C   0  0  0  0  0  0  0  0  0  0  0  0
  -20.5830  -28.3900   23.2100 C   0  0  0  0  0  3  0  0  0  0  0  0
  -20.6840  -26.9550   22.6460 C   0  0  0  0  0  2  0  0  0  0  0  0
  -19.5760  -26.6270   21.6400 C   0  0  0  0  0  2  0  0  0  0  0  0
  -18.1960  -26.7740   22.2840 C   0  0  0  0  0  2  0  0  0  0  0  0
  -19.1410  -28.8900   23.3750 C   0  0  0  0  0  0  0  0  0  0  0  0
  -18.9210  -30.1530   23.9670 C   0  0  0  0  0  3  0  0  0  0  0  0
  -17.6160  -30.6510   24.1440 C   0  0  0  0  0  3  0  0  0  0  0  0
  -16.5100  -29.8800   23.7450 C   0  0  0  0  0  3  0  0  0  0  0  0
  -16.7130  -28.6190   23.1560 C   0  0  0  0  0  3  0  0  0  0  0  0
  -25.8910  -32.5310   23.8200 C   0  0  0  0  0  3  0  0  0  0  0  0
  -26.3930  -31.7870   25.1190 C   0  0  1  0  0  0  0  0  0  0  0  0
  -25.2860  -31.5630   26.1760 C   0  0  0  0  0  1  0  0  0  0  0  0
  -26.9830  -30.4030   24.7720 C   0  0  0  0  0  1  0  0  0  0  0  0
  -27.5350  -32.5950   25.7790 C   0  0  0  0  0  1  0  0  0  0  0  0
  -25.5640  -33.9330   24.1390 N   0  0  0  0  0  0  0  0  0  0  0  0
  -25.9100  -34.9930   23.3980 C   0  0  0  0  0  0  0  0  0  0  0  0
  -26.6010  -34.8980   22.3810 O   0  0  0  0  0  0  0  0  0  0  0  0
  -24.9480  -34.0810   24.9240 H   0  0  0  0  0  0  0  0  0  0  0  0
  -24.1980  -36.8000   23.0220 C   0  0  0  0  0  1  0  0  0  0  0  0
  -25.4170  -36.3810   23.8590 C   0  0  0  0  0  3  0  0  0  0  0  0
  -27.5280  -37.2540   24.7600 C   0  0  0  0  0  1  0  0  0  0  0  0
  -26.4540  -37.4350   23.7860 N   0  0  0  0  0  0  0  0  0  0  0  0
  -26.0470  -38.3540   23.9320 H   0  0  0  0  0  0  0  0  0  0  0  0
  -30.0430  -17.1940   19.6950 C   0  0  0  0  0  3  0  0  0  0  0  0
  -30.6250  -15.5510   20.2570 C   0  0  0  0  0  0  0  0  0  0  0  0
  -30.6390  -13.0340   19.4870 C   0  0  0  0  0  2  0  0  0  0  0  0
  -29.7420  -12.7310   18.2610 C   0  0  0  0  0  2  0  0  0  0  0  0
  -28.3000  -12.4400   18.6940 C   0  0  0  0  0  2  0  0  0  0  0  0
  -27.8060  -13.4360   19.7660 C   0  0  0  0  0  3  0  0  0  0  0  0
  -28.8410  -13.6870   20.8810 C   0  0  0  0  0  2  0  0  0  0  0  0
  -30.0530  -14.2280   20.2200 N   0  0  0  0  0  0  0  0  0  0  0  0
  -31.8530  -15.4390   20.3940 O   0  0  0  0  0  0  0  0  0  0  0  0
  -25.4370  -13.9840   20.5190 C   0  0  0  0  0  0  0  0  0  0  0  0
  -24.3690  -13.2080   20.8660 C   0  0  0  0  0  0  0  0  0  0  0  0
  -24.8310  -11.8530   20.8370 C   0  0  0  0  0  0  0  0  0  0  0  0
  -26.4800  -13.1090   20.2780 N   0  0  0  0  0  0  0  0  0  0  0  0
  -26.1270  -11.8200   20.5390 N   0  0  0  0  0  0  0  0  0  0  0  0
  -24.0910  -10.5920   21.0040 C   0  0  0  0  0  0  0  0  0  0  0  0
  -24.5020   -9.6110   21.9340 C   0  0  0  0  0  3  0  0  0  0  0  0
  -23.7660   -8.4170   22.0930 C   0  0  0  0  0  3  0  0  0  0  0  0
  -22.6010   -8.1930   21.3180 C   0  0  0  0  0  0  0  0  0  0  0  0
  -22.2080   -9.1610   20.3740 C   0  0  0  0  0  3  0  0  0  0  0  0
  -22.9470  -10.3460   20.2160 C   0  0  0  0  0  3  0  0  0  0  0  0
  -21.8370   -7.0520   21.3830 O   0  0  0  0  0  0  0  0  0  0  0  0
  -21.7600   -6.3020   22.5310 C   0  0  0  0  0  0  0  0  0  0  0  0
  -21.3010   -6.8480   23.7500 C   0  0  0  0  0  3  0  0  0  0  0  0
  -21.1780   -6.0280   24.8900 C   0  0  0  0  0  3  0  0  0  0  0  0
  -21.4950   -4.6570   24.8080 C   0  0  0  0  0  0  0  0  0  0  0  0
  -21.9440   -4.1080   23.5940 C   0  0  0  0  0  3  0  0  0  0  0  0
  -22.0740   -4.9290   22.4580 C   0  0  0  0  0  0  0  0  0  0  0  0
  -22.4870   -4.3910   21.2860 F   0  0  0  0  0  0  0  0  0  0  0  0
  -21.3690   -3.8650   25.8990 F   0  0  0  0  0  0  0  0  0  0  0  0
  -22.9650  -13.6770   21.1180 C   0  0  0  0  0  0  0  0  0  0  0  0
  -22.2260  -12.9890   21.9800 N   0  0  0  0  0  0  0  0  0  0  0  0
  -22.5310  -14.7000   20.5840 O   0  0  0  0  0  0  0  0  0  0  0  0
  -22.5870  -12.1640   22.4390 H   0  0  0  0  0  0  0  0  0  0  0  0
  -21.2840  -13.2880   22.1860 H   0  0  0  0  0  0  0  0  0  0  0  0
  -25.6140  -15.3590   20.3490 N   0  0  0  0  0  0  0  0  0  0  0  0
  -24.8650  -16.0350   20.4460 H   0  0  0  0  0  0  0  0  0  0  0  0
  -26.4850  -15.7750   20.0480 H   0  0  0  0  0  0  0  0  0  0  0  0
  -31.1400  -17.5910   18.6110 C   0  0  0  0  0  2  0  0  0  0  0  0
  -32.7870  -15.7830   17.5590 C   0  0  0  0  0  1  0  0  0  0  0  0
  -31.4970  -16.6230   17.4060 C   0  0  0  0  0  3  0  0  0  0  0  0
  -31.7100  -17.3700   16.1510 N   0  0  0  0  0  4  0  0  0  0  0  0
  -31.7540  -16.7380   15.3670 H   0  0  0  0  0  0  0  0  0  0  0  0
  -32.6010  -17.8320   16.1960 H   0  0  0  0  0  0  0  0  0  0  0  0
  -30.9900  -18.0440   15.9730 H   0  0  0  0  0  0  0  0  0  0  0  0
  2  1  2  0
  2  3  1  0
  4  5  1  0
  4  3  2  0
  6 17  2  0
  7  5  1  0
  7 12  1  0
  8 16  1  0
  8 18  1  0
  9 15  1  0
  9 11  1  0
 10 16  1  0
 11 12  2  0
 11 10  1  0
 13  7  2  0
 14 13  1  0
 14  9  2  0
 15  8  1  0
 16  6  1  0
 18 20  2  0
 19 18  1  0
 21 19  1  0
 22 31  2  0
 22 27  1  0
 23 19  1  0
 23 27  1  0
 24 23  1  0
 25 26  1  0
 25 24  1  0
 26 22  1  0
 27 28  2  0
 28 29  1  0
 30 29  2  0
 31 30  1  0
 32  6  1  0
 32 37  1  0
 32 33  1  0
 33 36  1  1
 33 34  1  0
 35 33  1  0
 37 40  1  0
 38 42  1  0
 38 37  1  0
 39 38  2  0
 42 41  1  0
 44 42  1  0
 44 45  1  0
 44 43  1  0
 46 83  1  0
 46 47  1  0
 46  1  1  0
 47 54  2  0
 48 53  1  0
 49 50  1  0
 49 48  1  0
 51 50  1  0
 51 58  1  0
 51 52  1  0
 53 47  1  0
 53 52  1  0
 55 56  2  0
 56 75  1  0
 57 56  1  0
 57 60  1  0
 58 55  1  0
 58 59  1  0
 59 57  2  0
 60 61  1  0
 61 62  2  0
 63 66  1  0
 63 62  1  0
 64 63  2  0
 65 64  1  0
 65 60  2  0
 66 67  1  0
 67 68  1  0
 68 69  2  0
 70 69  1  0
 70 74  1  0
 71 70  2  0
 72 67  2  0
 72 71  1  0
 73 72  1  0
 75 76  1  0
 76 79  1  0
 76 78  1  0
 77 75  2  0
 80 81  1  0
 80 55  1  0
 82 80  1  0
 85 84  1  0
 85 83  1  0
 86 88  1  0
 86 85  1  0
 87 86  1  0
 89 86  1  0
M  ISO  4   4 101   5 101  46 100  47 100
M  END
>  <TORSDO>  (51) 
F 23

>  <SCORE>  (51) 
-15.320

>  <name>  (51) 
50

>  <ligand_id>  (51) 
50

>  <original_smiles>  (51) 
[H]c1c([H])c([H])c2c(c1[H])C([H])([H])C([H])([H])C([H])([H])C2([H])N([H])C(=O)C1([H])N(C(=O)C([H])(N([H])C(=O)C([H])(N([H])C([H])([H])[H])C([H])([H])[H])C(C([H])([H])[H])(C([H])([H])[H])C([H])([H])[H])C([H])([H])c2c([H])c(OC([H])([H])C([H])([H])C([H])([H])C([H])([H])C([H])(C(=O)N3C([H])([H])C([H])([H])C([H])([H])C([H])(n4nc(-c5c([H])c([H])c(Oc6c([H])c([H])c(F)c([H])c6F)c([H])c5[H])c(C(=O)N([H])[H])c4N([H])[H])C3([H])[H])C([H])([H])C([H])(C([H])([H])[H])[N+]([H])([H])[H])c([H])c([H])c2C1([H])[H]

>  <smiles>  (51) 
[H]c1c([H])c([H])c2c(c1[H])C([H])([H])C([H])([H])C([H])([H])C2([H])N([H])C(=O)C1([H])N(C(=O)C([H])(N([H])C(=O)C([H])(N([H])C([H])([H])[H])C([H])([H])[H])C(C([H])([H])[H])(C([H])([H])[H])C([H])([H])[H])C([H])([H])c2c([H])c(OC([H])([H])C([H])([H])C([H])([H])C([H])([H])C([H])(C(=O)N3C([H])([H])C([H])([H])C([H])([H])C([H])(n4nc(-c5c([H])c([H])c(Oc6c([H])c([H])c(F)c([H])c6F)c([H])c5[H])c(C(=O)N([H])[H])c4N([H])[H])C3([H])[H])C([H])([H])C([H])(C([H])([H])[H])[N+]([H])([H])[H])c([H])c([H])c2C1([H])[H]

$$$$
51:0:0
     RDKit          3D

 96105  0  0  1  0  0  0  0  0999 V2000
  -29.9230  -21.3330   19.4640 C   0  0  0  0  0  2  0  0  0  0  0  0
  -27.6500  -22.5850   20.9880 C   0  0  0  0  0  2  0  0  0  0  0  0
  -29.0790  -20.5560   20.5050 C   0  0  0  0  0  3  0  0  0  0  0  0
  -28.1200  -23.2350   19.6680 C   0  0  0  0  0  3  0  0  0  0  0  0
  -29.0780  -22.4310   18.7940 C   0  0  0  0  0  3  0  0  0  0  0  0
  -29.1330  -24.4010   19.5940 C   0  0  0  0  0  3  0  0  0  0  0  0
  -28.5570  -21.5200   21.5080 N   0  0  0  0  0  4  0  0  0  0  0  0
  -29.7990  -23.6730   18.5030 N   0  0  0  0  0  4  0  0  0  0  0  0
  -28.0620  -20.9890   22.2080 H   0  0  0  0  0  0  0  0  0  0  0  0
  -29.3470  -21.9260   21.9840 H   0  0  0  0  0  0  0  0  0  0  0  0
  -29.5460  -24.0410   17.6010 H   0  0  0  0  0  0  0  0  0  0  0  0
  -30.8020  -23.6230   18.5950 H   0  0  0  0  0  0  0  0  0  0  0  0
  -29.9250  -19.4560   21.1950 C   0  0  0  0  0  0  0  0  0  0  0  0
  -29.9080  -18.2020   20.6940 N   0  0  0  0  0  0  0  0  0  0  0  0
  -30.6160  -19.7600   22.1700 O   0  0  0  0  0  0  0  0  0  0  0  0
  -29.3160  -18.0340   19.8900 H   0  0  0  0  0  0  0  0  0  0  0  0
  -30.7820  -17.0870   21.1250 C   0  0  0  0  0  2  0  0  0  0  0  0
  -30.0800  -15.6900   21.1860 C   0  0  0  0  0  2  0  0  0  0  0  0
  -30.7600  -14.5240   20.4110 C   0  0  0  0  0  0  0  0  0  0  0  0
  -30.4370  -12.4070   19.1650 C   0  0  0  0  0  2  0  0  0  0  0  0
  -29.4790  -12.6600   17.9820 C   0  0  0  0  0  2  0  0  0  0  0  0
  -28.0100  -12.5190   18.4260 C   0  0  0  0  0  2  0  0  0  0  0  0
  -27.6980  -13.3160   19.7210 C   0  0  0  0  0  3  0  0  0  0  0  0
  -28.7660  -13.0480   20.8050 C   0  0  0  0  0  2  0  0  0  0  0  0
  -30.0850  -13.3550   20.2330 N   0  0  0  0  0  0  0  0  0  0  0  0
  -31.8650  -14.7140   19.8930 O   0  0  0  0  0  0  0  0  0  0  0  0
  -25.3050  -13.9240   20.4480 C   0  0  0  0  0  0  0  0  0  0  0  0
  -24.2400  -13.1510   20.8260 C   0  0  0  0  0  0  0  0  0  0  0  0
  -24.7030  -11.8000   20.7960 C   0  0  0  0  0  0  0  0  0  0  0  0
  -26.3490  -13.0430   20.2110 N   0  0  0  0  0  0  0  0  0  0  0  0
  -25.9900  -11.7600   20.4770 N   0  0  0  0  0  0  0  0  0  0  0  0
  -23.9800  -10.5370   20.9940 C   0  0  0  0  0  0  0  0  0  0  0  0
  -24.4180   -9.5740   21.9300 C   0  0  0  0  0  3  0  0  0  0  0  0
  -23.6960   -8.3750   22.1150 C   0  0  0  0  0  3  0  0  0  0  0  0
  -22.5220   -8.1310   21.3640 C   0  0  0  0  0  0  0  0  0  0  0  0
  -22.1020   -9.0830   20.4180 C   0  0  0  0  0  3  0  0  0  0  0  0
  -22.8240  -10.2730   20.2310 C   0  0  0  0  0  3  0  0  0  0  0  0
  -21.7700   -6.9840   21.4590 O   0  0  0  0  0  0  0  0  0  0  0  0
  -21.7230   -6.2490   22.6160 C   0  0  0  0  0  0  0  0  0  0  0  0
  -21.2840   -6.8080   23.8360 C   0  0  0  0  0  3  0  0  0  0  0  0
  -21.1850   -6.0000   24.9860 C   0  0  0  0  0  3  0  0  0  0  0  0
  -21.5120   -4.6320   24.9160 C   0  0  0  0  0  0  0  0  0  0  0  0
  -21.9440   -4.0730   23.7000 C   0  0  0  0  0  3  0  0  0  0  0  0
  -22.0460   -4.8790   22.5540 C   0  0  0  0  0  0  0  0  0  0  0  0
  -22.4420   -4.3300   21.3800 F   0  0  0  0  0  0  0  0  0  0  0  0
  -21.4100   -3.8520   26.0170 F   0  0  0  0  0  0  0  0  0  0  0  0
  -22.8440  -13.6270   21.1080 C   0  0  0  0  0  0  0  0  0  0  0  0
  -22.1240  -12.9290   21.9790 N   0  0  0  0  0  0  0  0  0  0  0  0
  -22.4000  -14.6520   20.5930 O   0  0  0  0  0  0  0  0  0  0  0  0
  -22.4950  -12.0990   22.4170 H   0  0  0  0  0  0  0  0  0  0  0  0
  -21.1880  -13.2300   22.2130 H   0  0  0  0  0  0  0  0  0  0  0  0
  -25.4680  -15.2940   20.2660 N   0  0  0  0  0  0  0  0  0  0  0  0
  -24.7030  -15.9500   20.3790 H   0  0  0  0  0  0  0  0  0  0  0  0
  -26.3180  -15.7300   19.9340 H   0  0  0  0  0  0  0  0  0  0  0  0
  -28.7440  -25.8260   19.1180 C   0  0  0  0  0  2  0  0  0  0  0  0
  -28.4180  -26.7330   20.1850 O   0  0  0  0  0  0  0  0  0  0  0  0
  -24.5910  -31.8940   23.2560 C   0  0  0  0  0  0  0  0  0  0  0  0
  -27.2330  -27.4460   20.1560 C   0  0  0  0  0  0  0  0  0  0  0  0
  -23.3830  -30.4950   21.6140 C   0  0  0  0  0  3  0  0  0  0  0  0
  -24.8330  -28.9570   20.1860 C   0  0  0  0  0  0  0  0  0  0  0  0
  -25.9100  -30.8480   21.4160 C   0  0  0  0  0  2  0  0  0  0  0  0
  -25.9920  -29.4770   20.7750 C   0  0  0  0  0  0  0  0  0  0  0  0
  -27.1900  -28.7240   20.7650 C   0  0  0  0  0  3  0  0  0  0  0  0
  -26.0450  -26.9330   19.5840 C   0  0  0  0  0  3  0  0  0  0  0  0
  -24.8540  -27.6830   19.5930 C   0  0  0  0  0  3  0  0  0  0  0  0
  -23.5900  -29.8170   20.2340 C   0  0  0  0  0  2  0  0  0  0  0  0
  -24.6470  -31.0950   22.1530 N   0  0  0  0  0  0  0  0  0  0  0  0
  -23.5110  -32.1680   23.7960 O   0  0  0  0  0  0  0  0  0  0  0  0
  -22.7320  -29.4740   22.5730 C   0  0  0  0  0  0  0  0  0  0  0  0
  -21.4080  -29.2860   22.4390 N   0  0  0  0  0  0  0  0  0  0  0  0
  -23.4120  -28.8530   23.3930 O   0  0  0  0  0  0  0  0  0  0  0  0
  -20.9190  -29.8400   21.7490 H   0  0  0  0  0  0  0  0  0  0  0  0
  -18.0390  -28.0680   22.9090 C   0  0  0  0  0  0  0  0  0  0  0  0
  -20.5910  -28.3470   23.2070 C   0  0  0  0  0  3  0  0  0  0  0  0
  -20.7110  -26.9140   22.6410 C   0  0  0  0  0  2  0  0  0  0  0  0
  -19.6230  -26.5760   21.6170 C   0  0  0  0  0  2  0  0  0  0  0  0
  -18.2320  -26.7160   22.2440 C   0  0  0  0  0  2  0  0  0  0  0  0
  -19.1470  -28.8410   23.3470 C   0  0  0  0  0  0  0  0  0  0  0  0
  -18.9130  -30.1080   23.9260 C   0  0  0  0  0  3  0  0  0  0  0  0
  -17.6030  -30.6010   24.0720 C   0  0  0  0  0  3  0  0  0  0  0  0
  -16.5090  -29.8250   23.6520 C   0  0  0  0  0  3  0  0  0  0  0  0
  -16.7280  -28.5610   23.0770 C   0  0  0  0  0  3  0  0  0  0  0  0
  -25.8780  -32.5240   23.8760 C   0  0  0  0  0  3  0  0  0  0  0  0
  -26.3940  -31.7530   25.1530 C   0  0  1  0  0  0  0  0  0  0  0  0
  -25.3010  -31.5160   26.2200 C   0  0  0  0  0  1  0  0  0  0  0  0
  -26.9750  -30.3750   24.7600 C   0  0  0  0  0  1  0  0  0  0  0  0
  -27.5460  -32.5460   25.8140 C   0  0  0  0  0  1  0  0  0  0  0  0
  -25.5730  -33.9240   24.2020 N   0  0  0  0  0  0  0  0  0  0  0  0
  -25.9030  -34.9710   23.4350 C   0  0  0  0  0  0  0  0  0  0  0  0
  -26.5670  -34.8620   22.4020 O   0  0  0  0  0  0  0  0  0  0  0  0
  -24.9830  -34.0830   25.0050 H   0  0  0  0  0  0  0  0  0  0  0  0
  -24.1730  -36.7620   23.0800 C   0  0  0  0  0  1  0  0  0  0  0  0
  -25.4190  -36.3620   23.8880 C   0  0  0  0  0  3  0  0  0  0  0  0
  -27.5550  -37.2500   24.7080 C   0  0  0  0  0  1  0  0  0  0  0  0
  -26.4510  -37.4130   23.7650 N   0  0  0  0  0  0  0  0  0  0  0  0
  -26.0460  -38.3350   23.9100 H   0  0  0  0  0  0  0  0  0  0  0  0
  1  3  1  0
  2  7  1  0
  3 13  1  0
  3  7  1  0
  4  2  1  0
  5  1  1  0
  5  4  1  0
  6 55  1  0
  6  4  1  0
  7 10  1  0
  7  9  1  0
  8 12  1  0
  8  5  1  0
  8  6  1  0
 11  8  1  0
 13 15  2  0
 14 17  1  0
 14 13  1  0
 16 14  1  0
 17 18  1  0
 19 18  1  0
 20 25  1  0
 21 22  1  0
 21 20  1  0
 23 22  1  0
 23 30  1  0
 23 24  1  0
 25 19  1  0
 25 24  1  0
 26 19  2  0
 27 28  2  0
 28 47  1  0
 29 28  1  0
 29 32  1  0
 30 27  1  0
 30 31  1  0
 31 29  2  0
 32 33  1  0
 33 34  2  0
 35 38  1  0
 35 34  1  0
 36 35  2  0
 37 36  1  0
 37 32  2  0
 38 39  1  0
 39 40  1  0
 40 41  2  0
 42 41  1  0
 42 46  1  0
 43 42  2  0
 44 39  2  0
 44 43  1  0
 45 44  1  0
 47 48  1  0
 48 51  1  0
 48 50  1  0
 49 47  2  0
 52 53  1  0
 52 27  1  0
 54 52  1  0
 55 56  1  0
 57 68  2  0
 58 56  1  0
 58 63  1  0
 59 67  1  0
 59 69  1  0
 60 66  1  0
 60 62  1  0
 61 67  1  0
 62 61  1  0
 63 62  2  0
 64 65  1  0
 64 58  2  0
 65 60  2  0
 66 59  1  0
 67 57  1  0
 69 71  2  0
 70 69  1  0
 72 70  1  0
 73 82  2  0
 73 78  1  0
 74 70  1  0
 74 78  1  0
 75 74  1  0
 76 77  1  0
 76 75  1  0
 77 73  1  0
 78 79  2  0
 79 80  1  0
 81 80  2  0
 82 81  1  0
 83 57  1  0
 83 88  1  0
 83 84  1  0
 84 87  1  1
 84 85  1  0
 86 84  1  0
 88 91  1  0
 89 93  1  0
 89 88  1  0
 90 89  2  0
 93 92  1  0
 95 93  1  0
 95 96  1  0
 95 94  1  0
M  ISO  4  18 100  19 100  55 101  56 101
M  END
>  <TORSDO>  (52) 
F 20

>  <SCORE>  (52) 
-14.026

>  <name>  (52) 
51

>  <ligand_id>  (52) 
51

>  <original_smiles>  (52) 
[H]c1c([H])c([H])c2c(c1[H])C([H])([H])C([H])([H])C([H])([H])C2([H])N([H])C(=O)C1([H])N(C(=O)C([H])(N([H])C(=O)C([H])(N([H])C([H])([H])[H])C([H])([H])[H])C(C([H])([H])[H])(C([H])([H])[H])C([H])([H])[H])C([H])([H])c2c([H])c(OC([H])([H])C3([H])C4([H])C([H])([H])[N+]([H])([H])C([H])(C(=O)N([H])C([H])([H])C([H])([H])C(=O)N5C([H])([H])C([H])([H])C([H])([H])C([H])(n6nc(-c7c([H])c([H])c(Oc8c([H])c([H])c(F)c([H])c8F)c([H])c7[H])c(C(=O)N([H])[H])c6N([H])[H])C5([H])[H])C([H])([H])C4([H])[N+]3([H])[H])c([H])c([H])c2C1([H])[H]

>  <smiles>  (52) 
[H]c1c([H])c([H])c2c(c1[H])C([H])([H])C([H])([H])C([H])([H])C2([H])N([H])C(=O)C1([H])N(C(=O)C([H])(N([H])C(=O)C([H])(N([H])C([H])([H])[H])C([H])([H])[H])C(C([H])([H])[H])(C([H])([H])[H])C([H])([H])[H])C([H])([H])c2c([H])c(OC([H])([H])C3([H])C4([H])C([H])([H])[N+]([H])([H])C([H])(C(=O)N([H])C([H])([H])C([H])([H])C(=O)N5C([H])([H])C([H])([H])C([H])([H])C([H])(n6nc(-c7c([H])c([H])c(Oc8c([H])c([H])c(F)c([H])c8F)c([H])c7[H])c(C(=O)N([H])[H])c6N([H])[H])C5([H])[H])C([H])([H])C4([H])[N+]3([H])[H])c([H])c([H])c2C1([H])[H]

$$$$
52:0:0
     RDKit          3D

 93101  0  0  1  0  0  0  0  0999 V2000
  -29.0530  -18.9150   19.7320 N   0  0  0  0  0  4  0  0  0  0  0  0
  -28.5480  -19.0250   18.8670 H   0  0  0  0  0  0  0  0  0  0  0  0
  -28.3720  -18.6260   20.4150 H   0  0  0  0  0  0  0  0  0  0  0  0
  -29.5160  -20.3580   20.1640 C   0  0  0  0  0  3  0  0  0  0  0  0
  -28.5170  -21.6960   20.0890 C   0  0  0  0  0  3  0  0  0  0  0  0
  -28.9790  -23.2600   20.4570 C   0  0  0  0  0  3  0  0  0  0  0  0
  -28.0260  -24.6050   20.2180 C   0  0  0  0  0  3  0  0  0  0  0  0
  -28.3610  -26.0620   20.5890 O   0  0  0  0  0  0  0  0  0  0  0  0
  -24.9740  -31.5960   24.0150 C   0  0  0  0  0  0  0  0  0  0  0  0
  -27.3510  -27.0830   20.5860 C   0  0  0  0  0  0  0  0  0  0  0  0
  -23.7300  -30.4310   22.2320 C   0  0  0  0  0  3  0  0  0  0  0  0
  -25.1180  -28.9250   20.6850 C   0  0  0  0  0  0  0  0  0  0  0  0
  -26.2950  -30.5750   22.1300 C   0  0  0  0  0  2  0  0  0  0  0  0
  -26.3050  -29.2520   21.3490 C   0  0  0  0  0  0  0  0  0  0  0  0
  -27.4250  -28.3470   21.2860 C   0  0  0  0  0  3  0  0  0  0  0  0
  -26.1430  -26.8530   19.8890 C   0  0  0  0  0  3  0  0  0  0  0  0
  -25.0470  -27.7390   19.9410 C   0  0  0  0  0  3  0  0  0  0  0  0
  -23.9410  -29.8790   20.7980 C   0  0  0  0  0  2  0  0  0  0  0  0
  -25.0200  -30.8810   22.8500 N   0  0  0  0  0  0  0  0  0  0  0  0
  -23.8950  -31.8910   24.5510 O   0  0  0  0  0  0  0  0  0  0  0  0
  -22.9790  -29.3750   23.0820 C   0  0  0  0  0  0  0  0  0  0  0  0
  -21.7020  -29.1170   22.7490 N   0  0  0  0  0  0  0  0  0  0  0  0
  -23.5530  -28.7930   24.0050 O   0  0  0  0  0  0  0  0  0  0  0  0
  -21.2940  -29.6470   21.9910 H   0  0  0  0  0  0  0  0  0  0  0  0
  -18.4360  -27.5600   22.5950 C   0  0  0  0  0  0  0  0  0  0  0  0
  -20.8310  -28.1270   23.3880 C   0  0  0  0  0  3  0  0  0  0  0  0
  -21.2030  -26.6910   22.9500 C   0  0  0  0  0  2  0  0  0  0  0  0
  -20.3930  -26.1980   21.7470 C   0  0  0  0  0  2  0  0  0  0  0  0
  -18.8960  -26.2110   22.0670 C   0  0  0  0  0  2  0  0  0  0  0  0
  -19.3470  -28.4660   23.2000 C   0  0  0  0  0  0  0  0  0  0  0  0
  -18.8730  -29.7190   23.6430 C   0  0  0  0  0  3  0  0  0  0  0  0
  -17.5180  -30.0720   23.4910 C   0  0  0  0  0  3  0  0  0  0  0  0
  -16.6180  -29.1650   22.9040 C   0  0  0  0  0  3  0  0  0  0  0  0
  -17.0770  -27.9120   22.4620 C   0  0  0  0  0  3  0  0  0  0  0  0
  -26.2740  -32.0950   24.7170 C   0  0  0  0  0  3  0  0  0  0  0  0
  -26.1200  -33.5340   24.9740 N   0  0  0  0  0  0  0  0  0  0  0  0
  -26.6620  -34.5050   24.2250 C   0  0  0  0  0  0  0  0  0  0  0  0
  -27.4080  -34.2740   23.2700 O   0  0  0  0  0  0  0  0  0  0  0  0
  -25.4790  -33.7970   25.7080 H   0  0  0  0  0  0  0  0  0  0  0  0
  -25.2560  -36.5060   23.6310 C   0  0  0  0  0  1  0  0  0  0  0  0
  -26.3250  -35.9640   24.5950 C   0  0  0  0  0  3  0  0  0  0  0  0
  -28.4490  -36.5770   25.6630 C   0  0  0  0  0  1  0  0  0  0  0  0
  -27.5010  -36.8600   24.5890 N   0  0  0  0  0  0  0  0  0  0  0  0
  -27.2120  -37.8320   24.6680 H   0  0  0  0  0  0  0  0  0  0  0  0
  -26.5860  -31.3260   26.0600 C   0  0  1  0  0  0  0  0  0  0  0  0
  -25.3850  -31.2580   27.0330 C   0  0  0  0  0  1  0  0  0  0  0  0
  -27.0390  -29.8760   25.7720 C   0  0  0  0  0  1  0  0  0  0  0  0
  -27.7620  -32.0130   26.7940 C   0  0  0  0  0  1  0  0  0  0  0  0
  -30.0420  -17.6960   19.5280 C   0  0  0  0  0  3  0  0  0  0  0  0
  -31.0210  -17.6500   20.7360 C   0  0  0  0  0  2  0  0  0  0  0  0
  -33.3440  -13.9960   21.1080 C   0  0  0  0  0  3  0  0  0  0  0  0
  -32.2080  -14.1940   21.9160 C   0  0  0  0  0  3  0  0  0  0  0  0
  -33.7380  -14.9930   20.1950 C   0  0  0  0  0  3  0  0  0  0  0  0
  -31.4640  -15.3840   21.8070 C   0  0  0  0  0  3  0  0  0  0  0  0
  -32.9940  -16.1830   20.0810 C   0  0  0  0  0  3  0  0  0  0  0  0
  -31.8440  -16.3780   20.8760 C   0  0  0  0  0  0  0  0  0  0  0  0
  -29.4440  -16.1670   19.1970 C   0  0  0  0  0  2  0  0  0  0  0  0
  -30.2940  -14.7710   18.9610 C   0  0  0  0  0  0  0  0  0  0  0  0
  -29.9610  -12.4410   18.0600 C   0  0  0  0  0  2  0  0  0  0  0  0
  -28.8080  -12.4860   17.0270 C   0  0  0  0  0  2  0  0  0  0  0  0
  -27.4400  -12.3290   17.7210 C   0  0  0  0  0  2  0  0  0  0  0  0
  -27.3030  -13.2400   18.9690 C   0  0  0  0  0  3  0  0  0  0  0  0
  -28.5490  -13.1570   19.8750 C   0  0  0  0  0  2  0  0  0  0  0  0
  -29.7160  -13.5130   19.0600 N   0  0  0  0  0  0  0  0  0  0  0  0
  -31.4190  -14.8380   18.4520 O   0  0  0  0  0  0  0  0  0  0  0  0
  -25.1260  -13.8920   20.1520 C   0  0  0  0  0  0  0  0  0  0  0  0
  -24.1230  -13.1470   20.7100 C   0  0  0  0  0  0  0  0  0  0  0  0
  -24.5220  -11.7820   20.5740 C   0  0  0  0  0  0  0  0  0  0  0  0
  -26.0700  -12.9820   19.7060 N   0  0  0  0  0  0  0  0  0  0  0  0
  -25.7270  -11.7070   20.0210 N   0  0  0  0  0  0  0  0  0  0  0  0
  -23.7980  -10.5420   20.8820 C   0  0  0  0  0  0  0  0  0  0  0  0
  -24.3210   -9.5830   21.7770 C   0  0  0  0  0  3  0  0  0  0  0  0
  -23.5950   -8.4070   22.0710 C   0  0  0  0  0  3  0  0  0  0  0  0
  -22.3320   -8.1840   21.4730 C   0  0  0  0  0  0  0  0  0  0  0  0
  -21.8260   -9.1320   20.5650 C   0  0  0  0  0  3  0  0  0  0  0  0
  -22.5520  -10.2970   20.2680 C   0  0  0  0  0  3  0  0  0  0  0  0
  -21.5690   -7.0610   21.6810 O   0  0  0  0  0  0  0  0  0  0  0  0
  -21.6050   -6.3750   22.8690 C   0  0  0  0  0  0  0  0  0  0  0  0
  -21.3020   -6.9980   24.0980 C   0  0  0  0  0  3  0  0  0  0  0  0
  -21.2830   -6.2400   25.2860 C   0  0  0  0  0  3  0  0  0  0  0  0
  -21.5580   -4.8610   25.2460 C   0  0  0  0  0  0  0  0  0  0  0  0
  -21.8550   -4.2370   24.0220 C   0  0  0  0  0  3  0  0  0  0  0  0
  -21.8750   -4.9920   22.8360 C   0  0  0  0  0  0  0  0  0  0  0  0
  -22.1410   -4.3810   21.6560 F   0  0  0  0  0  0  0  0  0  0  0  0
  -21.5330   -4.1300   26.3850 F   0  0  0  0  0  0  0  0  0  0  0  0
  -22.8210  -13.6660   21.2490 C   0  0  0  0  0  0  0  0  0  0  0  0
  -22.2560  -12.9940   22.2440 N   0  0  0  0  0  0  0  0  0  0  0  0
  -22.3210  -14.7050   20.8180 O   0  0  0  0  0  0  0  0  0  0  0  0
  -22.6760  -12.1530   22.6120 H   0  0  0  0  0  0  0  0  0  0  0  0
  -21.3910  -13.3240   22.6470 H   0  0  0  0  0  0  0  0  0  0  0  0
  -25.3040  -15.2600   19.9650 N   0  0  0  0  0  0  0  0  0  0  0  0
  -24.5900  -15.9340   20.2180 H   0  0  0  0  0  0  0  0  0  0  0  0
  -26.0770  -15.6730   19.4600 H   0  0  0  0  0  0  0  0  0  0  0  0
  1  4  1  0
  1  3  1  0
  2  1  1  0
  5  4  2  0
  5  6  1  0
  7  6  2  0
  7  8  1  0
  9 20  2  0
 10  8  1  0
 10 15  1  0
 11 19  1  0
 11 21  1  0
 12 18  1  0
 12 14  1  0
 13 19  1  0
 14 13  1  0
 15 14  2  0
 16 17  1  0
 16 10  2  0
 17 12  2  0
 18 11  1  0
 19  9  1  0
 21 23  2  0
 22 21  1  0
 24 22  1  0
 25 30  1  0
 26 22  1  0
 27 26  1  0
 28 29  1  0
 28 27  1  0
 29 25  1  0
 30 26  1  0
 30 31  2  0
 32 31  1  0
 33 32  2  0
 34 25  2  0
 34 33  1  0
 35  9  1  0
 35 36  1  0
 35 45  1  0
 36 39  1  0
 37 41  1  0
 37 36  1  0
 38 37  2  0
 41 40  1  0
 43 41  1  0
 43 44  1  0
 43 42  1  0
 45 48  1  1
 45 46  1  0
 47 45  1  0
 49 57  1  0
 49  1  1  0
 49 50  1  0
 50 56  1  0
 51 52  1  0
 53 51  2  0
 54 52  2  0
 55 53  1  0
 55 56  2  0
 56 54  1  0
 58 64  1  0
 58 57  1  0
 59 64  1  0
 60 61  1  0
 60 59  1  0
 62 61  1  0
 62 69  1  0
 62 63  1  0
 64 63  1  0
 65 58  2  0
 66 67  2  0
 67 86  1  0
 68 67  1  0
 68 71  1  0
 69 70  1  0
 69 66  1  0
 70 68  2  0
 71 72  1  0
 72 73  2  0
 74 77  1  0
 74 73  1  0
 75 74  2  0
 76 75  1  0
 76 71  2  0
 77 78  1  0
 78 79  1  0
 79 80  2  0
 81 80  1  0
 81 85  1  0
 82 81  2  0
 83 78  2  0
 83 82  1  0
 84 83  1  0
 86 87  1  0
 87 89  1  0
 87 90  1  0
 88 86  2  0
 91 66  1  0
 91 92  1  0
 93 91  1  0
M  ISO  4   7 101   8 101  57 100  58 100
M  END
>  <TORSDO>  (53) 
F 24

>  <SCORE>  (53) 
-6.805

>  <name>  (53) 
52

>  <ligand_id>  (53) 
52

>  <original_smiles>  (53) 
[H]c1c([H])c([H])c(C([H])([H])C([H])(C([H])([H])C(=O)N2C([H])([H])C([H])([H])C([H])([H])C([H])(n3nc(-c4c([H])c([H])c(Oc5c([H])c([H])c(F)c([H])c5F)c([H])c4[H])c(C(=O)N([H])[H])c3N([H])[H])C2([H])[H])[N+]([H])([H])C([H])([H])C([H])([H])C([H])([H])C([H])([H])Oc2c([H])c([H])c3c(c2[H])C([H])([H])N(C(=O)C([H])(N([H])C(=O)C([H])(N([H])C([H])([H])[H])C([H])([H])[H])C(C([H])([H])[H])(C([H])([H])[H])C([H])([H])[H])C([H])(C(=O)N([H])C2([H])c4c([H])c([H])c([H])c([H])c4C([H])([H])C([H])([H])C2([H])[H])C3([H])[H])c([H])c1[H]

>  <smiles>  (53) 
[H]c1c([H])c([H])c(C([H])([H])C([H])(C([H])([H])C(=O)N2C([H])([H])C([H])([H])C([H])([H])C([H])(n3nc(-c4c([H])c([H])c(Oc5c([H])c([H])c(F)c([H])c5F)c([H])c4[H])c(C(=O)N([H])[H])c3N([H])[H])C2([H])[H])[N+]([H])([H])C([H])([H])C([H])([H])C([H])([H])C([H])([H])Oc2c([H])c([H])c3c(c2[H])C([H])([H])N(C(=O)C([H])(N([H])C(=O)C([H])(N([H])C([H])([H])[H])C([H])([H])[H])C(C([H])([H])[H])(C([H])([H])[H])C([H])([H])[H])C([H])(C(=O)N([H])C2([H])c4c([H])c([H])c([H])c([H])c4C([H])([H])C([H])([H])C2([H])[H])C3([H])[H])c([H])c1[H]

$$$$
53:0:0
     RDKit          3D

 93102  0  0  1  0  0  0  0  0999 V2000
  -30.2060  -20.6710   20.1470 C   0  0  0  0  0  0  0  0  0  0  0  0
  -29.4540  -21.7660   20.4260 N   0  0  0  0  0  0  0  0  0  0  0  0
  -30.9580  -20.6410   19.1710 O   0  0  0  0  0  0  0  0  0  0  0  0
  -28.8610  -21.7130   21.2430 H   0  0  0  0  0  0  0  0  0  0  0  0
  -28.3150  -17.7030   20.4690 C   0  0  0  0  0  3  0  0  0  0  0  0
  -28.6900  -18.8330   21.0930 C   0  0  0  0  0  3  0  0  0  0  0  0
  -29.2410  -16.7740   19.7010 C   0  0  0  0  0  2  0  0  0  0  0  0
  -31.9860  -19.1990   22.0640 C   0  0  0  0  0  2  0  0  0  0  0  0
  -30.6250  -19.7530   22.5040 C   0  0  0  0  0  2  0  0  0  0  0  0
  -31.0520  -16.8340   21.4800 C   0  0  0  0  0  2  0  0  0  0  0  0
  -30.0650  -15.9080   20.6830 C   0  0  0  0  0  3  0  0  0  0  0  0
  -31.2390  -18.3310   21.0380 C   0  0  0  0  0  3  0  0  0  0  0  0
  -30.0900  -19.4260   21.0950 C   0  0  2  0  0  0  0  0  0  0  0  0
  -30.7200  -14.6500   20.0010 C   0  0  0  0  0  0  0  0  0  0  0  0
  -30.3900  -12.4700   18.8630 C   0  0  0  0  0  2  0  0  0  0  0  0
  -29.3630  -12.6530   17.7240 C   0  0  0  0  0  2  0  0  0  0  0  0
  -27.9230  -12.4720   18.2460 C   0  0  0  0  0  2  0  0  0  0  0  0
  -27.6550  -13.2910   19.5350 C   0  0  0  0  0  3  0  0  0  0  0  0
  -28.7910  -13.0920   20.5630 C   0  0  0  0  0  2  0  0  0  0  0  0
  -30.0670  -13.4470   19.9200 N   0  0  0  0  0  0  0  0  0  0  0  0
  -31.8100  -14.8110   19.4440 O   0  0  0  0  0  0  0  0  0  0  0  0
  -25.3240  -13.8940   20.4330 C   0  0  0  0  0  0  0  0  0  0  0  0
  -24.2790  -13.1180   20.8550 C   0  0  0  0  0  0  0  0  0  0  0  0
  -24.7280  -11.7670   20.7510 C   0  0  0  0  0  0  0  0  0  0  0  0
  -26.3420  -13.0120   20.1020 N   0  0  0  0  0  0  0  0  0  0  0  0
  -25.9920  -11.7270   20.3500 N   0  0  0  0  0  0  0  0  0  0  0  0
  -24.0110  -10.5040   20.9500 C   0  0  0  0  0  0  0  0  0  0  0  0
  -24.4730   -9.5290   21.8610 C   0  0  0  0  0  3  0  0  0  0  0  0
  -23.7560   -8.3290   22.0480 C   0  0  0  0  0  3  0  0  0  0  0  0
  -22.5630   -8.0950   21.3230 C   0  0  0  0  0  0  0  0  0  0  0  0
  -22.1200   -9.0590   20.4000 C   0  0  0  0  0  3  0  0  0  0  0  0
  -22.8380  -10.2500   20.2110 C   0  0  0  0  0  3  0  0  0  0  0  0
  -21.8150   -6.9470   21.4220 O   0  0  0  0  0  0  0  0  0  0  0  0
  -21.7640   -6.2200   22.5840 C   0  0  0  0  0  0  0  0  0  0  0  0
  -21.3040   -6.7820   23.7950 C   0  0  0  0  0  3  0  0  0  0  0  0
  -21.2030   -5.9800   24.9490 C   0  0  0  0  0  3  0  0  0  0  0  0
  -21.5510   -4.6160   24.8920 C   0  0  0  0  0  0  0  0  0  0  0  0
  -22.0040   -4.0550   23.6850 C   0  0  0  0  0  3  0  0  0  0  0  0
  -22.1070   -4.8540   22.5350 C   0  0  0  0  0  0  0  0  0  0  0  0
  -22.5250   -4.3040   21.3680 F   0  0  0  0  0  0  0  0  0  0  0  0
  -21.4450   -3.8430   25.9980 F   0  0  0  0  0  0  0  0  0  0  0  0
  -22.9090  -13.5950   21.2410 C   0  0  0  0  0  0  0  0  0  0  0  0
  -22.2380  -12.8740   22.1330 N   0  0  0  0  0  0  0  0  0  0  0  0
  -22.4440  -14.6400   20.7880 O   0  0  0  0  0  0  0  0  0  0  0  0
  -22.6290  -12.0280   22.5200 H   0  0  0  0  0  0  0  0  0  0  0  0
  -21.3220  -13.1730   22.4340 H   0  0  0  0  0  0  0  0  0  0  0  0
  -25.4810  -15.2670   20.2800 N   0  0  0  0  0  0  0  0  0  0  0  0
  -24.7210  -15.9180   20.4450 H   0  0  0  0  0  0  0  0  0  0  0  0
  -26.2970  -15.7000   19.8670 H   0  0  0  0  0  0  0  0  0  0  0  0
  -29.3870  -23.0030   19.6130 C   0  0  0  0  0  2  0  0  0  0  0  0
  -28.8060  -24.2600   20.3410 C   0  0  0  0  0  2  0  0  0  0  0  0
  -28.7700  -25.5450   19.4510 C   0  0  0  0  0  2  0  0  0  0  0  0
  -28.5550  -26.7890   20.1600 O   0  0  0  0  0  0  0  0  0  0  0  0
  -24.6720  -31.9200   23.2340 C   0  0  0  0  0  0  0  0  0  0  0  0
  -27.3490  -27.4800   20.1320 C   0  0  0  0  0  0  0  0  0  0  0  0
  -23.4750  -30.5130   21.5910 C   0  0  0  0  0  3  0  0  0  0  0  0
  -24.9360  -28.9870   20.1580 C   0  0  0  0  0  0  0  0  0  0  0  0
  -25.9990  -30.8850   21.3890 C   0  0  0  0  0  2  0  0  0  0  0  0
  -26.0930  -29.5130   20.7440 C   0  0  0  0  0  0  0  0  0  0  0  0
  -27.2950  -28.7670   20.7270 C   0  0  0  0  0  3  0  0  0  0  0  0
  -26.1650  -26.9660   19.5530 C   0  0  0  0  0  3  0  0  0  0  0  0
  -24.9680  -27.7130   19.5610 C   0  0  0  0  0  3  0  0  0  0  0  0
  -23.6860  -29.8370   20.2090 C   0  0  0  0  0  2  0  0  0  0  0  0
  -24.7330  -31.1230   22.1280 N   0  0  0  0  0  0  0  0  0  0  0  0
  -23.5900  -32.1820   23.7780 O   0  0  0  0  0  0  0  0  0  0  0  0
  -22.8330  -29.4850   22.5520 C   0  0  0  0  0  0  0  0  0  0  0  0
  -21.5090  -29.2950   22.4320 N   0  0  0  0  0  0  0  0  0  0  0  0
  -23.5250  -28.8620   23.3610 O   0  0  0  0  0  0  0  0  0  0  0  0
  -21.0100  -29.8510   21.7500 H   0  0  0  0  0  0  0  0  0  0  0  0
  -18.1450  -28.0790   22.9440 C   0  0  0  0  0  0  0  0  0  0  0  0
  -20.7030  -28.3490   23.2020 C   0  0  0  0  0  3  0  0  0  0  0  0
  -20.8100  -26.9210   22.6150 C   0  0  0  0  0  2  0  0  0  0  0  0
  -19.7030  -26.6000   21.6060 C   0  0  0  0  0  2  0  0  0  0  0  0
  -18.3250  -26.7340   22.2580 C   0  0  0  0  0  2  0  0  0  0  0  0
  -19.2620  -28.8440   23.3720 C   0  0  0  0  0  0  0  0  0  0  0  0
  -19.0400  -30.1030   23.9710 C   0  0  0  0  0  3  0  0  0  0  0  0
  -17.7340  -30.5970   24.1470 C   0  0  0  0  0  3  0  0  0  0  0  0
  -16.6320  -29.8280   23.7350 C   0  0  0  0  0  3  0  0  0  0  0  0
  -16.8380  -28.5720   23.1390 C   0  0  0  0  0  3  0  0  0  0  0  0
  -25.9540  -32.5610   23.8520 C   0  0  0  0  0  3  0  0  0  0  0  0
  -26.4800  -31.7950   25.1270 C   0  0  1  0  0  0  0  0  0  0  0  0
  -25.3910  -31.5450   26.1960 C   0  0  0  0  0  1  0  0  0  0  0  0
  -27.0760  -30.4240   24.7310 C   0  0  0  0  0  1  0  0  0  0  0  0
  -27.6240  -32.5990   25.7880 C   0  0  0  0  0  1  0  0  0  0  0  0
  -25.6370  -33.9580   24.1810 N   0  0  0  0  0  0  0  0  0  0  0  0
  -25.9590  -35.0120   23.4190 C   0  0  0  0  0  0  0  0  0  0  0  0
  -26.6240  -34.9110   22.3860 O   0  0  0  0  0  0  0  0  0  0  0  0
  -25.0460  -34.1100   24.9860 H   0  0  0  0  0  0  0  0  0  0  0  0
  -24.2160  -36.7890   23.0680 C   0  0  0  0  0  1  0  0  0  0  0  0
  -25.4620  -36.3970   23.8770 C   0  0  0  0  0  3  0  0  0  0  0  0
  -27.5900  -37.3020   24.7030 C   0  0  0  0  0  1  0  0  0  0  0  0
  -26.4880  -37.4570   23.7580 N   0  0  0  0  0  0  0  0  0  0  0  0
  -26.0750  -38.3740   23.9010 H   0  0  0  0  0  0  0  0  0  0  0  0
  1  2  1  0
  2  4  1  0
  3  1  2  0
  5  6  2  0
  6 13  1  0
  7  5  1  0
  7 11  1  0
  8  9  1  0
 11 14  1  0
 11 10  1  0
 12 13  1  0
 12 10  1  0
 12  8  1  0
 13  1  1  6
 13  9  1  0
 15 20  1  0
 16 17  1  0
 16 15  1  0
 18 17  1  0
 18 25  1  0
 18 19  1  0
 20 14  1  0
 20 19  1  0
 21 14  2  0
 22 23  2  0
 23 42  1  0
 24 23  1  0
 24 27  1  0
 25 26  1  0
 25 22  1  0
 26 24  2  0
 27 28  1  0
 28 29  2  0
 30 33  1  0
 30 29  1  0
 31 30  2  0
 32 31  1  0
 32 27  2  0
 33 34  1  0
 34 35  1  0
 35 36  2  0
 37 36  1  0
 37 41  1  0
 38 37  2  0
 39 34  2  0
 39 38  1  0
 40 39  1  0
 42 43  1  0
 43 46  1  0
 43 45  1  0
 44 42  2  0
 47 22  1  0
 47 48  1  0
 49 47  1  0
 50 51  1  0
 50  2  1  0
 52 53  1  0
 52 51  1  0
 54 65  2  0
 55 53  1  0
 55 60  1  0
 56 64  1  0
 56 66  1  0
 57 63  1  0
 57 59  1  0
 58 64  1  0
 59 58  1  0
 60 59  2  0
 61 62  1  0
 61 55  2  0
 62 57  2  0
 63 56  1  0
 64 54  1  0
 66 68  2  0
 67 66  1  0
 69 67  1  0
 70 79  2  0
 70 75  1  0
 71 67  1  0
 71 75  1  0
 72 71  1  0
 73 74  1  0
 73 72  1  0
 74 70  1  0
 75 76  2  0
 76 77  1  0
 78 77  2  0
 79 78  1  0
 80 54  1  0
 80 85  1  0
 80 81  1  0
 81 84  1  1
 81 82  1  0
 83 81  1  0
 85 88  1  0
 86 90  1  0
 86 85  1  0
 87 86  2  0
 90 89  1  0
 92 90  1  0
 92 93  1  0
 92 91  1  0
M  ISO  4  11 100  14 100  52 101  53 101
M  END
>  <TORSDO>  (54) 
F 20

>  <SCORE>  (54) 
-13.341

>  <name>  (54) 
53

>  <ligand_id>  (54) 
53

>  <original_smiles>  (54) 
[H]C1=C([H])C2(C(=O)N([H])C([H])([H])C([H])([H])C([H])([H])Oc3c([H])c([H])c4c(c3[H])C([H])([H])N(C(=O)C([H])(N([H])C(=O)C([H])(N([H])C([H])([H])[H])C([H])([H])[H])C(C([H])([H])[H])(C([H])([H])[H])C([H])([H])[H])C([H])(C(=O)N([H])C3([H])c5c([H])c([H])c([H])c([H])c5C([H])([H])C([H])([H])C3([H])[H])C4([H])[H])C([H])([H])C([H])([H])C2([H])C([H])([H])C([H])(C(=O)N2C([H])([H])C([H])([H])C([H])([H])C([H])(n3nc(-c4c([H])c([H])c(Oc5c([H])c([H])c(F)c([H])c5F)c([H])c4[H])c(C(=O)N([H])[H])c3N([H])[H])C2([H])[H])C1([H])[H]

>  <smiles>  (54) 
[H]C1=C([H])C2(C(=O)N([H])C([H])([H])C([H])([H])C([H])([H])Oc3c([H])c([H])c4c(c3[H])C([H])([H])N(C(=O)C([H])(N([H])C(=O)C([H])(N([H])C([H])([H])[H])C([H])([H])[H])C(C([H])([H])[H])(C([H])([H])[H])C([H])([H])[H])C([H])(C(=O)N([H])C3([H])c5c([H])c([H])c([H])c([H])c5C([H])([H])C([H])([H])C3([H])[H])C4([H])[H])C([H])([H])C([H])([H])C2([H])C([H])([H])C([H])(C(=O)N2C([H])([H])C([H])([H])C([H])([H])C([H])(n3nc(-c4c([H])c([H])c(Oc5c([H])c([H])c(F)c([H])c5F)c([H])c4[H])c(C(=O)N([H])[H])c3N([H])[H])C2([H])[H])C1([H])[H]

$$$$
54:0:0
     RDKit          3D

 97104  0  0  1  0  0  0  0  0999 V2000
  -29.1060  -20.5720   23.8030 C   0  0  0  0  0  1  0  0  0  0  0  0
  -29.0280  -20.4580   22.2730 C   0  0  0  0  0  3  0  0  0  0  0  0
  -30.3910  -20.3930   21.7420 N   0  0  0  0  0  0  0  0  0  0  0  0
  -31.0430  -20.3040   22.5160 H   0  0  0  0  0  0  0  0  0  0  0  0
  -30.6650  -19.2270   20.9030 C   0  0  0  0  0  3  0  0  0  0  0  0
  -33.0460  -19.1660   21.8910 C   0  0  0  0  0  1  0  0  0  0  0  0
  -31.7450  -18.3700   21.6290 C   0  0  0  0  0  3  0  0  0  0  0  0
  -32.1180  -17.0540   20.9060 C   0  0  0  0  0  2  0  0  0  0  0  0
  -31.0280  -15.9530   20.7950 C   0  0  0  0  0  2  0  0  0  0  0  0
  -31.5400  -14.7090   20.0340 C   0  0  0  0  0  0  0  0  0  0  0  0
  -31.1380  -12.4840   19.0480 C   0  0  0  0  0  2  0  0  0  0  0  0
  -30.2020  -12.6110   17.8310 C   0  0  0  0  0  2  0  0  0  0  0  0
  -28.7290  -12.5420   18.2750 C   0  0  0  0  0  2  0  0  0  0  0  0
  -28.4160  -13.5010   19.4540 C   0  0  0  0  0  3  0  0  0  0  0  0
  -29.4720  -13.3790   20.5780 C   0  0  0  0  0  2  0  0  0  0  0  0
  -30.8040  -13.5680   19.9840 N   0  0  0  0  0  0  0  0  0  0  0  0
  -32.6100  -14.8080   19.4260 O   0  0  0  0  0  0  0  0  0  0  0  0
  -26.0720  -14.2300   20.2240 C   0  0  0  0  0  0  0  0  0  0  0  0
  -24.9700  -13.5130   20.6090 C   0  0  0  0  0  0  0  0  0  0  0  0
  -25.3530  -12.1390   20.5480 C   0  0  0  0  0  0  0  0  0  0  0  0
  -27.0610  -13.2960   19.9600 N   0  0  0  0  0  0  0  0  0  0  0  0
  -26.6320  -12.0310   20.2100 N   0  0  0  0  0  0  0  0  0  0  0  0
  -24.5610  -10.9160   20.7390 C   0  0  0  0  0  0  0  0  0  0  0  0
  -24.9060   -9.9580   21.7170 C   0  0  0  0  0  3  0  0  0  0  0  0
  -24.1190   -8.7990   21.8950 C   0  0  0  0  0  3  0  0  0  0  0  0
  -22.9700   -8.5920   21.0940 C   0  0  0  0  0  0  0  0  0  0  0  0
  -22.6440   -9.5380   20.1070 C   0  0  0  0  0  3  0  0  0  0  0  0
  -23.4310  -10.6870   19.9280 C   0  0  0  0  0  3  0  0  0  0  0  0
  -22.1610   -7.4850   21.1780 O   0  0  0  0  0  0  0  0  0  0  0  0
  -21.8980   -6.8760   22.3790 C   0  0  0  0  0  0  0  0  0  0  0  0
  -21.3070   -7.5740   23.4550 C   0  0  0  0  0  3  0  0  0  0  0  0
  -20.9890   -6.8920   24.6460 C   0  0  0  0  0  3  0  0  0  0  0  0
  -21.2520   -5.5140   24.7610 C   0  0  0  0  0  0  0  0  0  0  0  0
  -21.8340   -4.8160   23.6890 C   0  0  0  0  0  3  0  0  0  0  0  0
  -22.1530   -5.4960   22.5010 C   0  0  0  0  0  0  0  0  0  0  0  0
  -22.6950   -4.8140   21.4620 F   0  0  0  0  0  0  0  0  0  0  0  0
  -20.9390   -4.8570   25.9030 F   0  0  0  0  0  0  0  0  0  0  0  0
  -23.6090  -14.0640   20.9220 C   0  0  0  0  0  0  0  0  0  0  0  0
  -22.8740  -13.4120   21.8180 N   0  0  0  0  0  0  0  0  0  0  0  0
  -23.2060  -15.1070   20.4080 O   0  0  0  0  0  0  0  0  0  0  0  0
  -23.2130  -12.5680   22.2560 H   0  0  0  0  0  0  0  0  0  0  0  0
  -21.9610  -13.7640   22.0700 H   0  0  0  0  0  0  0  0  0  0  0  0
  -26.3080  -15.5920   20.0600 N   0  0  0  0  0  0  0  0  0  0  0  0
  -25.5810  -16.2860   20.1910 H   0  0  0  0  0  0  0  0  0  0  0  0
  -27.1780  -15.9850   19.7280 H   0  0  0  0  0  0  0  0  0  0  0  0
  -31.0720  -19.7470   19.5030 C   0  0  0  0  0  2  0  0  0  0  0  0
  -29.8570  -20.1210   18.6420 C   0  0  0  0  0  2  0  0  0  0  0  0
  -28.9890  -20.8900   16.3800 C   0  0  0  0  0  1  0  0  0  0  0  0
  -30.2300  -20.6350   17.2450 C   0  0  0  0  0  2  0  0  0  0  0  0
  -28.3120  -21.6530   21.6080 C   0  0  0  0  0  2  0  0  0  0  0  0
  -29.2020  -22.8300   21.6320 N   0  0  0  0  0  4  0  0  0  0  0  0
  -29.0300  -23.3660   22.4650 H   0  0  0  0  0  0  0  0  0  0  0  0
  -30.1150  -22.4000   21.6990 H   0  0  0  0  0  0  0  0  0  0  0  0
  -29.2060  -23.6780   20.4200 C   0  0  0  0  0  2  0  0  0  0  0  0
  -29.3150  -25.1820   20.7550 C   0  0  0  0  0  2  0  0  0  0  0  0
  -29.6560  -26.0620   19.5340 C   0  0  0  0  0  2  0  0  0  0  0  0
  -29.3760  -27.4440   19.7860 O   0  0  0  0  0  0  0  0  0  0  0  0
  -24.5260  -31.3720   23.1770 C   0  0  0  0  0  0  0  0  0  0  0  0
  -28.0680  -27.8860   19.7920 C   0  0  0  0  0  0  0  0  0  0  0  0
  -23.6620  -29.9600   21.3410 C   0  0  0  0  0  3  0  0  0  0  0  0
  -25.4250  -28.8940   19.8420 C   0  0  0  0  0  0  0  0  0  0  0  0
  -26.0740  -30.8130   21.3060 C   0  0  0  0  0  2  0  0  0  0  0  0
  -26.4410  -29.5630   20.5350 C   0  0  0  0  0  0  0  0  0  0  0  0
  -27.7630  -29.0660   20.5070 C   0  0  0  0  0  3  0  0  0  0  0  0
  -27.0260  -27.2230   19.1020 C   0  0  0  0  0  3  0  0  0  0  0  0
  -25.7110  -27.7210   19.1260 C   0  0  0  0  0  3  0  0  0  0  0  0
  -24.0370  -29.4900   19.9130 C   0  0  0  0  0  2  0  0  0  0  0  0
  -24.7680  -30.7250   22.0020 N   0  0  0  0  0  0  0  0  0  0  0  0
  -23.3970  -31.3760   23.6870 O   0  0  0  0  0  0  0  0  0  0  0  0
  -23.1910  -28.7330   22.1550 C   0  0  0  0  0  0  0  0  0  0  0  0
  -21.9080  -28.3690   22.0000 N   0  0  0  0  0  0  0  0  0  0  0  0
  -23.9770  -28.1160   22.8790 O   0  0  0  0  0  0  0  0  0  0  0  0
  -21.3290  -28.9280   21.3910 H   0  0  0  0  0  0  0  0  0  0  0  0
  -18.7470  -26.6600   22.3740 C   0  0  0  0  0  0  0  0  0  0  0  0
  -21.2560  -27.2240   22.6380 C   0  0  0  0  0  3  0  0  0  0  0  0
  -21.5290  -25.9210   21.8510 C   0  0  0  0  0  2  0  0  0  0  0  0
  -20.4410  -25.6030   20.8210 C   0  0  0  0  0  2  0  0  0  0  0  0
  -19.0780  -25.4600   21.5020 C   0  0  0  0  0  2  0  0  0  0  0  0
  -19.7690  -27.4960   22.8940 C   0  0  0  0  0  0  0  0  0  0  0  0
  -19.4090  -28.6180   23.6700 C   0  0  0  0  0  3  0  0  0  0  0  0
  -18.0570  -28.9100   23.9300 C   0  0  0  0  0  3  0  0  0  0  0  0
  -17.0500  -28.0680   23.4310 C   0  0  0  0  0  3  0  0  0  0  0  0
  -17.3940  -26.9440   22.6570 C   0  0  0  0  0  3  0  0  0  0  0  0
  -25.6500  -32.1590   23.9210 C   0  0  0  0  0  3  0  0  0  0  0  0
  -26.0750  -31.4930   25.2850 C   0  0  1  0  0  0  0  0  0  0  0  0
  -24.8790  -31.1300   26.1980 C   0  0  0  0  0  1  0  0  0  0  0  0
  -26.8870  -30.2010   25.0320 C   0  0  0  0  0  1  0  0  0  0  0  0
  -27.0010  -32.4520   26.0700 C   0  0  0  0  0  1  0  0  0  0  0  0
  -25.1610  -33.5270   24.1380 N   0  0  0  0  0  0  0  0  0  0  0  0
  -25.4750  -34.5770   23.3700 C   0  0  0  0  0  0  0  0  0  0  0  0
  -26.2770  -34.5060   22.4350 O   0  0  0  0  0  0  0  0  0  0  0  0
  -24.4570  -33.6480   24.8510 H   0  0  0  0  0  0  0  0  0  0  0  0
  -23.6340  -36.1570   22.7100 C   0  0  0  0  0  1  0  0  0  0  0  0
  -24.7940  -35.9210   23.6910 C   0  0  0  0  0  3  0  0  0  0  0  0
  -26.7200  -37.0430   24.7120 C   0  0  0  0  0  1  0  0  0  0  0  0
  -25.7190  -37.0740   23.6500 N   0  0  0  0  0  0  0  0  0  0  0  0
  -25.2070  -37.9500   23.7260 H   0  0  0  0  0  0  0  0  0  0  0  0
  2  1  1  0
  3  2  1  0
  3  4  1  0
  5 46  1  0
  5  7  1  0
  5  3  1  0
  7  6  1  0
  8  7  1  0
  9  8  1  0
 10  9  1  0
 11 16  1  0
 12 13  1  0
 12 11  1  0
 14 13  1  0
 14 21  1  0
 14 15  1  0
 16 10  1  0
 16 15  1  0
 17 10  2  0
 18 19  2  0
 19 38  1  0
 20 19  1  0
 20 23  1  0
 21 22  1  0
 21 18  1  0
 22 20  2  0
 23 24  1  0
 24 25  2  0
 26 29  1  0
 26 25  1  0
 27 26  2  0
 28 27  1  0
 28 23  2  0
 29 30  1  0
 30 35  2  0
 30 31  1  0
 31 32  2  0
 32 33  1  0
 33 37  1  0
 34 33  2  0
 35 34  1  0
 36 35  1  0
 38 39  1  0
 39 42  1  0
 39 41  1  0
 40 38  2  0
 43 44  1  0
 43 18  1  0
 45 43  1  0
 47 46  1  0
 48 49  1  0
 49 47  1  0
 50 51  1  0
 50  2  1  0
 51 53  1  0
 51 52  1  0
 54 55  1  0
 54 51  1  0
 56 57  1  0
 56 55  1  0
 57 59  1  0
 58 69  2  0
 59 64  1  0
 60 68  1  0
 60 70  1  0
 61 67  1  0
 61 63  1  0
 62 68  1  0
 63 62  1  0
 64 63  2  0
 65 66  1  0
 65 59  2  0
 66 61  2  0
 67 60  1  0
 68 58  1  0
 70 72  2  0
 71 70  1  0
 73 71  1  0
 74 83  2  0
 74 79  1  0
 75 71  1  0
 75 79  1  0
 76 75  1  0
 77 78  1  0
 77 76  1  0
 78 74  1  0
 79 80  2  0
 80 81  1  0
 82 81  2  0
 83 82  1  0
 84 58  1  0
 84 89  1  0
 84 85  1  0
 85 88  1  1
 85 86  1  0
 87 85  1  0
 89 92  1  0
 90 94  1  0
 90 89  1  0
 91 90  2  0
 94 93  1  0
 96 94  1  0
 96 97  1  0
 96 95  1  0
M  ISO  4   9 100  10 100  56 101  57 101
M  END
>  <TORSDO>  (55) 
F 29

>  <SCORE>  (55) 
-5.585

>  <name>  (55) 
54

>  <ligand_id>  (55) 
54

>  <original_smiles>  (55) 
[H]c1c([H])c([H])c2c(c1[H])C([H])([H])C([H])([H])C([H])([H])C2([H])N([H])C(=O)C1([H])N(C(=O)C([H])(N([H])C(=O)C([H])(N([H])C([H])([H])[H])C([H])([H])[H])C(C([H])([H])[H])(C([H])([H])[H])C([H])([H])[H])C([H])([H])c2c([H])c(OC([H])([H])C([H])([H])C([H])([H])[N+]([H])([H])C([H])([H])C([H])(N([H])C([H])(C([H])([H])C([H])([H])C([H])([H])C([H])([H])[H])C([H])(C([H])([H])[H])C([H])([H])C([H])([H])C(=O)N3C([H])([H])C([H])([H])C([H])([H])C([H])(n4nc(-c5c([H])c([H])c(Oc6c([H])c([H])c(F)c([H])c6F)c([H])c5[H])c(C(=O)N([H])[H])c4N([H])[H])C3([H])[H])C([H])([H])[H])c([H])c([H])c2C1([H])[H]

>  <smiles>  (55) 
[H]c1c([H])c([H])c2c(c1[H])C([H])([H])C([H])([H])C([H])([H])C2([H])N([H])C(=O)C1([H])N(C(=O)C([H])(N([H])C(=O)C([H])(N([H])C([H])([H])[H])C([H])([H])[H])C(C([H])([H])[H])(C([H])([H])[H])C([H])([H])[H])C([H])([H])c2c([H])c(OC([H])([H])C([H])([H])C([H])([H])[N+]([H])([H])C([H])([H])C([H])(N([H])C([H])(C([H])([H])C([H])([H])C([H])([H])C([H])([H])[H])C([H])(C([H])([H])[H])C([H])([H])C([H])([H])C(=O)N3C([H])([H])C([H])([H])C([H])([H])C([H])(n4nc(-c5c([H])c([H])c(Oc6c([H])c([H])c(F)c([H])c6F)c([H])c5[H])c(C(=O)N([H])[H])c4N([H])[H])C3([H])[H])C([H])([H])[H])c([H])c([H])c2C1([H])[H]

$$$$
55:0:0
     RDKit          3D

 96104  0  0  1  0  0  0  0  0999 V2000
  -28.9290  -21.0310   19.8300 C   0  0  0  0  0  3  0  0  0  0  0  0
  -28.7940  -19.5430   20.2420 N   0  0  0  0  0  4  0  0  0  0  0  0
  -28.7140  -19.0510   19.3680 H   0  0  0  0  0  0  0  0  0  0  0  0
  -27.8910  -19.4510   20.6800 H   0  0  0  0  0  0  0  0  0  0  0  0
  -29.7720  -18.7130   21.0900 C   0  0  0  0  0  3  0  0  0  0  0  0
  -32.2370  -18.3860   21.8620 C   0  0  0  0  0  1  0  0  0  0  0  0
  -31.2750  -18.9410   20.8020 C   0  0  0  0  0  2  0  0  0  0  0  0
  -29.4460  -17.1330   21.2640 C   0  0  0  0  0  2  0  0  0  0  0  0
  -29.6030  -16.0620   20.0830 C   0  0  0  0  0  2  0  0  0  0  0  0
  -30.4780  -14.7170   20.1580 C   0  0  0  0  0  0  0  0  0  0  0  0
  -30.2950  -12.4460   19.1520 C   0  0  0  0  0  2  0  0  0  0  0  0
  -29.3150  -12.5190   17.9600 C   0  0  0  0  0  2  0  0  0  0  0  0
  -27.8600  -12.3250   18.4300 C   0  0  0  0  0  2  0  0  0  0  0  0
  -27.5150  -13.1930   19.6630 C   0  0  0  0  0  3  0  0  0  0  0  0
  -28.6060  -13.1340   20.7510 C   0  0  0  0  0  2  0  0  0  0  0  0
  -29.8900  -13.4770   20.1320 N   0  0  0  0  0  0  0  0  0  0  0  0
  -31.6780  -14.8180   19.8800 O   0  0  0  0  0  0  0  0  0  0  0  0
  -25.1670  -13.7780   20.5120 C   0  0  0  0  0  0  0  0  0  0  0  0
  -24.1170  -12.9950   20.9150 C   0  0  0  0  0  0  0  0  0  0  0  0
  -24.5800  -11.6470   20.8470 C   0  0  0  0  0  0  0  0  0  0  0  0
  -26.1950  -12.8990   20.2060 N   0  0  0  0  0  0  0  0  0  0  0  0
  -25.8520  -11.6120   20.4730 N   0  0  0  0  0  0  0  0  0  0  0  0
  -23.8660  -10.3840   21.0480 C   0  0  0  0  0  0  0  0  0  0  0  0
  -24.3340   -9.4070   21.9530 C   0  0  0  0  0  3  0  0  0  0  0  0
  -23.6170   -8.2040   22.1370 C   0  0  0  0  0  3  0  0  0  0  0  0
  -22.4230   -7.9730   21.4150 C   0  0  0  0  0  0  0  0  0  0  0  0
  -21.9760   -8.9400   20.4970 C   0  0  0  0  0  3  0  0  0  0  0  0
  -22.6930  -10.1330   20.3100 C   0  0  0  0  0  3  0  0  0  0  0  0
  -21.6710   -6.8250   21.5130 O   0  0  0  0  0  0  0  0  0  0  0  0
  -21.6580   -6.0710   22.6590 C   0  0  0  0  0  0  0  0  0  0  0  0
  -21.2550   -6.6100   23.9010 C   0  0  0  0  0  3  0  0  0  0  0  0
  -21.1880   -5.7800   25.0380 C   0  0  0  0  0  3  0  0  0  0  0  0
  -21.5120   -4.4130   24.9360 C   0  0  0  0  0  0  0  0  0  0  0  0
  -21.9110   -3.8770   23.6980 C   0  0  0  0  0  3  0  0  0  0  0  0
  -21.9790   -4.7040   22.5620 C   0  0  0  0  0  0  0  0  0  0  0  0
  -22.3390   -4.1740   21.3690 F   0  0  0  0  0  0  0  0  0  0  0  0
  -21.4440   -3.6170   26.0260 F   0  0  0  0  0  0  0  0  0  0  0  0
  -22.7310  -13.4680   21.2480 C   0  0  0  0  0  0  0  0  0  0  0  0
  -22.0420  -12.7540   22.1320 N   0  0  0  0  0  0  0  0  0  0  0  0
  -22.2720  -14.5010   20.7650 O   0  0  0  0  0  0  0  0  0  0  0  0
  -22.4300  -11.9170   22.5460 H   0  0  0  0  0  0  0  0  0  0  0  0
  -21.1130  -13.0420   22.3980 H   0  0  0  0  0  0  0  0  0  0  0  0
  -25.3220  -15.1490   20.3570 N   0  0  0  0  0  0  0  0  0  0  0  0
  -24.5580  -15.7960   20.5220 H   0  0  0  0  0  0  0  0  0  0  0  0
  -26.1530  -15.6020   19.9930 H   0  0  0  0  0  0  0  0  0  0  0  0
  -29.2400  -22.2320   22.1090 C   0  0  0  0  0  1  0  0  0  0  0  0
  -28.4460  -22.2490   20.7910 C   0  0  0  0  0  3  0  0  0  0  0  0
  -28.4580  -23.7390   20.1460 C   0  0  0  0  0  3  0  0  0  0  0  0
  -27.8760  -25.0140   20.9250 C   0  0  0  0  0  3  0  0  0  0  0  0
  -28.1870  -26.3950   20.4550 O   0  0  0  0  0  0  0  0  0  0  0  0
  -24.5350  -31.9290   23.2820 C   0  0  0  0  0  0  0  0  0  0  0  0
  -27.1180  -27.2930   20.3640 C   0  0  0  0  0  0  0  0  0  0  0  0
  -23.3360  -30.5150   21.6510 C   0  0  0  0  0  3  0  0  0  0  0  0
  -24.7920  -28.9400   20.2580 C   0  0  0  0  0  0  0  0  0  0  0  0
  -25.8770  -30.8130   21.4970 C   0  0  0  0  0  2  0  0  0  0  0  0
  -25.9540  -29.4250   20.8710 C   0  0  0  0  0  0  0  0  0  0  0  0
  -27.1260  -28.6130   20.9140 C   0  0  0  0  0  3  0  0  0  0  0  0
  -25.9490  -26.8690   19.7040 C   0  0  0  0  0  3  0  0  0  0  0  0
  -24.7940  -27.6720   19.6550 C   0  0  0  0  0  3  0  0  0  0  0  0
  -23.5590  -29.8200   20.2810 C   0  0  0  0  0  2  0  0  0  0  0  0
  -24.6000  -31.1030   22.2000 N   0  0  0  0  0  0  0  0  0  0  0  0
  -23.4490  -32.2260   23.8000 O   0  0  0  0  0  0  0  0  0  0  0  0
  -22.6590  -29.5150   22.6170 C   0  0  0  0  0  0  0  0  0  0  0  0
  -21.3340  -29.3440   22.4810 N   0  0  0  0  0  0  0  0  0  0  0  0
  -23.3240  -28.8950   23.4510 O   0  0  0  0  0  0  0  0  0  0  0  0
  -20.8570  -29.8840   21.7730 H   0  0  0  0  0  0  0  0  0  0  0  0
  -17.9380  -28.2080   22.9910 C   0  0  0  0  0  0  0  0  0  0  0  0
  -20.5000  -28.4310   23.2620 C   0  0  0  0  0  3  0  0  0  0  0  0
  -20.5830  -26.9920   22.7020 C   0  0  0  0  0  2  0  0  0  0  0  0
  -19.4780  -26.6750   21.6890 C   0  0  0  0  0  2  0  0  0  0  0  0
  -18.0950  -26.8500   22.3260 C   0  0  0  0  0  2  0  0  0  0  0  0
  -19.0680  -28.9580   23.4140 C   0  0  0  0  0  0  0  0  0  0  0  0
  -18.8690  -30.2300   23.9930 C   0  0  0  0  0  3  0  0  0  0  0  0
  -17.5740  -30.7580   24.1450 C   0  0  0  0  0  3  0  0  0  0  0  0
  -16.4580  -30.0060   23.7370 C   0  0  0  0  0  3  0  0  0  0  0  0
  -16.6410  -28.7310   23.1730 C   0  0  0  0  0  3  0  0  0  0  0  0
  -25.8200  -32.5590   23.9050 C   0  0  0  0  0  3  0  0  0  0  0  0
  -26.3230  -31.7980   25.1950 C   0  0  1  0  0  0  0  0  0  0  0  0
  -25.2150  -31.5760   26.2490 C   0  0  0  0  0  1  0  0  0  0  0  0
  -26.9090  -30.4140   24.8320 C   0  0  0  0  0  1  0  0  0  0  0  0
  -27.4720  -32.5950   25.8600 C   0  0  0  0  0  1  0  0  0  0  0  0
  -25.5220  -33.9640   24.2150 N   0  0  0  0  0  0  0  0  0  0  0  0
  -25.8620  -35.0010   23.4380 C   0  0  0  0  0  0  0  0  0  0  0  0
  -26.5300  -34.8760   22.4080 O   0  0  0  0  0  0  0  0  0  0  0  0
  -24.9360  -34.1370   25.0200 H   0  0  0  0  0  0  0  0  0  0  0  0
  -24.1420  -36.7920   23.0470 C   0  0  0  0  0  1  0  0  0  0  0  0
  -25.3800  -36.3990   23.8690 C   0  0  0  0  0  3  0  0  0  0  0  0
  -27.5160  -37.2870   24.6890 C   0  0  0  0  0  1  0  0  0  0  0  0
  -26.4180  -37.4450   23.7390 N   0  0  0  0  0  0  0  0  0  0  0  0
  -26.0180  -38.3700   23.8710 H   0  0  0  0  0  0  0  0  0  0  0  0
  -30.2340  -21.3270   19.0240 C   0  0  0  0  0  2  0  0  0  0  0  0
  -30.2100  -22.8600   15.5280 C   0  0  0  0  0  2  0  0  0  0  0  0
  -31.2750  -21.7660   15.3710 C   0  0  0  0  0  2  0  0  0  0  0  0
  -29.7100  -22.7920   16.9760 C   0  0  0  0  0  2  0  0  0  0  0  0
  -31.3790  -21.0630   16.7310 C   0  0  0  0  0  2  0  0  0  0  0  0
  -30.0820  -21.4010   17.4920 C   0  0  0  0  0  3  0  0  0  0  0  0
  1 91  1  0
  1  2  1  0
  1 47  1  0
  2  4  1  0
  2  5  1  0
  3  2  1  0
  5  7  1  0
  5  8  1  0
  7  6  1  0
  9 10  1  0
  9  8  1  0
 11 16  1  0
 12 13  1  0
 12 11  1  0
 14 13  1  0
 14 21  1  0
 14 15  1  0
 16 10  1  0
 16 15  1  0
 17 10  2  0
 18 19  2  0
 19 38  1  0
 20 19  1  0
 20 23  1  0
 21 22  1  0
 21 18  1  0
 22 20  2  0
 23 24  1  0
 24 25  2  0
 26 29  1  0
 26 25  1  0
 27 26  2  0
 28 27  1  0
 28 23  2  0
 29 30  1  0
 30 31  1  0
 31 32  2  0
 33 32  1  0
 33 37  1  0
 34 33  2  0
 35 30  2  0
 35 34  1  0
 36 35  1  0
 38 39  1  0
 39 42  1  0
 39 41  1  0
 40 38  2  0
 43 18  1  0
 43 44  1  0
 45 43  1  0
 47 46  1  0
 48 47  1  0
 48 49  2  0
 50 49  1  0
 51 62  2  0
 52 50  1  0
 52 57  1  0
 53 61  1  0
 53 63  1  0
 54 60  1  0
 54 56  1  0
 55 61  1  0
 56 57  2  0
 56 55  1  0
 58 52  2  0
 59 58  1  0
 59 54  2  0
 60 53  1  0
 61 51  1  0
 63 65  2  0
 64 63  1  0
 66 64  1  0
 67 76  2  0
 67 72  1  0
 68 64  1  0
 68 72  1  0
 69 68  1  0
 70 71  1  0
 70 69  1  0
 71 67  1  0
 72 73  2  0
 73 74  1  0
 75 74  2  0
 76 75  1  0
 77 51  1  0
 77 82  1  0
 77 78  1  0
 78 81  1  1
 78 79  1  0
 80 78  1  0
 82 85  1  0
 83 87  1  0
 83 82  1  0
 84 83  2  0
 87 86  1  0
 89 87  1  0
 89 90  1  0
 89 88  1  0
 92 94  1  0
 93 92  1  0
 93 95  1  0
 94 96  1  0
 95 96  1  0
 96 91  1  0
M  ISO  4   9 100  10 100  49 101  50 101
M  END
>  <TORSDO>  (56) 
F 26

>  <SCORE>  (56) 
-11.704

>  <name>  (56) 
55

>  <ligand_id>  (56) 
55

>  <original_smiles>  (56) 
[H]c1c([H])c([H])c2c(c1[H])C([H])([H])C([H])([H])C([H])([H])C2([H])N([H])C(=O)C1([H])N(C(=O)C([H])(N([H])C(=O)C([H])(N([H])C([H])([H])[H])C([H])([H])[H])C(C([H])([H])[H])(C([H])([H])[H])C([H])([H])[H])C([H])([H])c2c([H])c(OC([H])([H])C([H])([H])C([H])(C([H])([H])[H])C([H])(C([H])([H])C3([H])C([H])([H])C([H])([H])C([H])([H])C3([H])[H])[N+]([H])([H])C([H])(C([H])([H])C([H])([H])[H])C([H])([H])C([H])([H])C(=O)N3C([H])([H])C([H])([H])C([H])([H])C([H])(n4nc(-c5c([H])c([H])c(Oc6c([H])c([H])c(F)c([H])c6F)c([H])c5[H])c(C(=O)N([H])[H])c4N([H])[H])C3([H])[H])c([H])c([H])c2C1([H])[H]

>  <smiles>  (56) 
[H]c1c([H])c([H])c2c(c1[H])C([H])([H])C([H])([H])C([H])([H])C2([H])N([H])C(=O)C1([H])N(C(=O)C([H])(N([H])C(=O)C([H])(N([H])C([H])([H])[H])C([H])([H])[H])C(C([H])([H])[H])(C([H])([H])[H])C([H])([H])[H])C([H])([H])c2c([H])c(OC([H])([H])C([H])([H])C([H])(C([H])([H])[H])C([H])(C([H])([H])C3([H])C([H])([H])C([H])([H])C([H])([H])C3([H])[H])[N+]([H])([H])C([H])(C([H])([H])C([H])([H])[H])C([H])([H])C([H])([H])C(=O)N3C([H])([H])C([H])([H])C([H])([H])C([H])(n4nc(-c5c([H])c([H])c(Oc6c([H])c([H])c(F)c([H])c6F)c([H])c5[H])c(C(=O)N([H])[H])c4N([H])[H])C3([H])[H])c([H])c([H])c2C1([H])[H]

$$$$
56:0:0
     RDKit          3D

 92101  0  0  1  0  0  0  0  0999 V2000
  -30.0310  -19.6230   20.2500 C   0  0  0  0  0  0  0  0  0  0  0  0
  -29.7610  -19.8230   18.7650 C   0  0  0  0  0  2  0  0  0  0  0  0
  -30.2730  -17.1480   21.3090 C   0  0  0  0  0  2  0  0  0  0  0  0
  -29.7450  -16.6310   19.0180 C   0  0  0  0  0  2  0  0  0  0  0  0
  -30.8340  -18.2960   20.4060 C   0  0  0  0  0  3  0  0  0  0  0  0
  -29.7810  -15.9620   20.4120 C   0  0  0  0  0  3  0  0  0  0  0  0
  -30.8800  -17.6870   18.9980 C   0  0  0  0  0  3  0  0  0  0  0  0
  -30.7160  -18.8700   18.0160 C   0  0  2  0  0  0  0  0  0  0  0  0
  -32.0780  -19.5710   17.7920 C   0  0  0  0  0  1  0  0  0  0  0  0
  -30.1840  -18.4380   16.6350 C   0  0  0  0  0  1  0  0  0  0  0  0
  -29.7340  -20.4540   21.1880 N   0  0  0  0  0  0  0  0  0  0  0  0
  -30.6310  -14.6330   20.3610 C   0  0  0  0  0  0  0  0  0  0  0  0
  -30.3880  -12.4090   19.3250 C   0  0  0  0  0  2  0  0  0  0  0  0
  -29.4580  -12.5950   18.1040 C   0  0  0  0  0  2  0  0  0  0  0  0
  -27.9790  -12.4470   18.5180 C   0  0  0  0  0  2  0  0  0  0  0  0
  -27.6210  -13.2870   19.7740 C   0  0  0  0  0  3  0  0  0  0  0  0
  -28.6800  -13.1130   20.8880 C   0  0  0  0  0  2  0  0  0  0  0  0
  -30.0030  -13.4180   20.3260 N   0  0  0  0  0  0  0  0  0  0  0  0
  -31.8250  -14.7390   20.0710 O   0  0  0  0  0  0  0  0  0  0  0  0
  -25.2270  -13.8850   20.4980 C   0  0  0  0  0  0  0  0  0  0  0  0
  -24.1610  -13.1090   20.8700 C   0  0  0  0  0  0  0  0  0  0  0  0
  -24.6280  -11.7580   20.8430 C   0  0  0  0  0  0  0  0  0  0  0  0
  -26.2730  -13.0040   20.2610 N   0  0  0  0  0  0  0  0  0  0  0  0
  -25.9170  -11.7220   20.5300 N   0  0  0  0  0  0  0  0  0  0  0  0
  -23.9040  -10.4950   21.0370 C   0  0  0  0  0  0  0  0  0  0  0  0
  -24.3410   -9.5300   21.9700 C   0  0  0  0  0  3  0  0  0  0  0  0
  -23.6180   -8.3310   22.1530 C   0  0  0  0  0  3  0  0  0  0  0  0
  -22.4430   -8.0910   21.3990 C   0  0  0  0  0  0  0  0  0  0  0  0
  -22.0260   -9.0450   20.4540 C   0  0  0  0  0  3  0  0  0  0  0  0
  -22.7510  -10.2340   20.2710 C   0  0  0  0  0  3  0  0  0  0  0  0
  -21.6920   -6.9440   21.4890 O   0  0  0  0  0  0  0  0  0  0  0  0
  -21.6480   -6.2000   22.6420 C   0  0  0  0  0  0  0  0  0  0  0  0
  -21.2220   -6.7520   23.8700 C   0  0  0  0  0  3  0  0  0  0  0  0
  -21.1270   -5.9360   25.0140 C   0  0  0  0  0  3  0  0  0  0  0  0
  -21.4460   -4.5670   24.9320 C   0  0  0  0  0  0  0  0  0  0  0  0
  -21.8640   -4.0140   23.7090 C   0  0  0  0  0  3  0  0  0  0  0  0
  -21.9630   -4.8280   22.5670 C   0  0  0  0  0  0  0  0  0  0  0  0
  -22.3480   -4.2850   21.3870 F   0  0  0  0  0  0  0  0  0  0  0  0
  -21.3460   -3.7800   26.0290 F   0  0  0  0  0  0  0  0  0  0  0  0
  -22.7630  -13.5840   21.1410 C   0  0  0  0  0  0  0  0  0  0  0  0
  -22.0350  -12.8850   22.0040 N   0  0  0  0  0  0  0  0  0  0  0  0
  -22.3240  -14.6100   20.6230 O   0  0  0  0  0  0  0  0  0  0  0  0
  -22.4040  -12.0570   22.4460 H   0  0  0  0  0  0  0  0  0  0  0  0
  -21.0950  -13.1820   22.2240 H   0  0  0  0  0  0  0  0  0  0  0  0
  -25.3880  -15.2550   20.3190 N   0  0  0  0  0  0  0  0  0  0  0  0
  -24.6230  -15.9110   20.4290 H   0  0  0  0  0  0  0  0  0  0  0  0
  -26.2390  -15.6970   19.9940 H   0  0  0  0  0  0  0  0  0  0  0  0
  -28.9480  -21.6930   20.9440 C   0  0  0  0  0  2  0  0  0  0  0  0
  -29.8070  -22.9370   20.5340 C   0  0  0  0  0  2  0  0  0  0  0  0
  -29.3300  -24.3740   20.9740 C   0  0  0  0  0  2  0  0  0  0  0  0
  -28.2900  -25.1580   20.1040 C   0  0  0  0  0  2  0  0  0  0  0  0
  -28.3730  -26.6060   20.3060 O   0  0  0  0  0  0  0  0  0  0  0  0
  -24.5960  -31.9380   23.2460 C   0  0  0  0  0  0  0  0  0  0  0  0
  -27.2210  -27.3890   20.2340 C   0  0  0  0  0  0  0  0  0  0  0  0
  -23.3950  -30.5210   21.6140 C   0  0  0  0  0  3  0  0  0  0  0  0
  -24.8470  -28.9610   20.2040 C   0  0  0  0  0  0  0  0  0  0  0  0
  -25.9290  -30.8490   21.4320 C   0  0  0  0  0  2  0  0  0  0  0  0
  -26.0080  -29.4670   20.8020 C   0  0  0  0  0  0  0  0  0  0  0  0
  -27.1980  -28.6890   20.8080 C   0  0  0  0  0  3  0  0  0  0  0  0
  -26.0410  -26.9240   19.6100 C   0  0  0  0  0  3  0  0  0  0  0  0
  -24.8630  -27.6940   19.6000 C   0  0  0  0  0  3  0  0  0  0  0  0
  -23.6120  -29.8360   20.2380 C   0  0  0  0  0  2  0  0  0  0  0  0
  -24.6580  -31.1200   22.1550 N   0  0  0  0  0  0  0  0  0  0  0  0
  -23.5110  -32.2200   23.7770 O   0  0  0  0  0  0  0  0  0  0  0  0
  -22.7330  -29.5110   22.5820 C   0  0  0  0  0  0  0  0  0  0  0  0
  -21.4060  -29.3400   22.4590 N   0  0  0  0  0  0  0  0  0  0  0  0
  -23.4120  -28.8880   23.4020 O   0  0  0  0  0  0  0  0  0  0  0  0
  -20.9200  -29.9010   21.7730 H   0  0  0  0  0  0  0  0  0  0  0  0
  -18.0230  -28.1740   22.9700 C   0  0  0  0  0  0  0  0  0  0  0  0
  -20.5830  -28.4130   23.2370 C   0  0  0  0  0  3  0  0  0  0  0  0
  -20.6740  -26.9780   22.6690 C   0  0  0  0  0  2  0  0  0  0  0  0
  -19.5670  -26.6570   21.6600 C   0  0  0  0  0  2  0  0  0  0  0  0
  -18.1870  -26.8190   22.3050 C   0  0  0  0  0  2  0  0  0  0  0  0
  -19.1480  -28.9300   23.3950 C   0  0  0  0  0  0  0  0  0  0  0  0
  -18.9410  -30.1980   23.9790 C   0  0  0  0  0  3  0  0  0  0  0  0
  -17.6400  -30.7100   24.1450 C   0  0  0  0  0  3  0  0  0  0  0  0
  -16.5290  -29.9500   23.7410 C   0  0  0  0  0  3  0  0  0  0  0  0
  -16.7220  -28.6860   23.1570 C   0  0  0  0  0  3  0  0  0  0  0  0
  -25.8770  -32.5780   23.8650 C   0  0  0  0  0  3  0  0  0  0  0  0
  -26.3910  -31.8200   25.1510 C   0  0  1  0  0  0  0  0  0  0  0  0
  -25.2990  -31.5910   26.2210 C   0  0  0  0  0  1  0  0  0  0  0  0
  -26.9730  -30.4400   24.7690 C   0  0  0  0  0  1  0  0  0  0  0  0
  -27.5400  -32.6210   25.8070 C   0  0  0  0  0  1  0  0  0  0  0  0
  -25.5680  -33.9800   24.1800 N   0  0  0  0  0  0  0  0  0  0  0  0
  -25.9030  -35.0250   23.4120 C   0  0  0  0  0  0  0  0  0  0  0  0
  -26.5770  -34.9100   22.3840 O   0  0  0  0  0  0  0  0  0  0  0  0
  -24.9790  -34.1460   24.9830 H   0  0  0  0  0  0  0  0  0  0  0  0
  -24.1860  -36.8190   23.0210 C   0  0  0  0  0  1  0  0  0  0  0  0
  -25.4150  -36.4180   23.8520 C   0  0  0  0  0  3  0  0  0  0  0  0
  -27.5420  -37.3000   24.7030 C   0  0  0  0  0  1  0  0  0  0  0  0
  -26.4520  -37.4670   23.7460 N   0  0  0  0  0  0  0  0  0  0  0  0
  -26.0480  -38.3890   23.8860 H   0  0  0  0  0  0  0  0  0  0  0  0
  1  5  1  0
  1 11  2  0
  2  1  1  0
  4  6  1  0
  5  3  1  0
  6 12  1  0
  6  3  1  0
  7  4  1  0
  7  5  1  0
  8  2  1  0
  8  7  1  0
  8  9  1  6
 10  8  1  0
 13 18  1  0
 14 15  1  0
 14 13  1  0
 16 15  1  0
 16 23  1  0
 16 17  1  0
 18 12  1  0
 18 17  1  0
 19 12  2  0
 20 21  2  0
 21 40  1  0
 22 21  1  0
 22 25  1  0
 23 20  1  0
 23 24  1  0
 24 22  2  0
 25 26  1  0
 26 27  2  0
 28 31  1  0
 28 27  1  0
 29 28  2  0
 30 29  1  0
 30 25  2  0
 31 32  1  0
 32 33  1  0
 33 34  2  0
 35 34  1  0
 35 39  1  0
 36 35  2  0
 37 32  2  0
 37 36  1  0
 38 37  1  0
 40 41  1  0
 41 44  1  0
 41 43  1  0
 42 40  2  0
 45 46  1  0
 45 20  1  0
 47 45  1  0
 48 11  1  0
 49 48  1  0
 49 50  1  0
 51 52  1  0
 51 50  1  0
 53 64  2  0
 54 52  1  0
 54 59  1  0
 55 63  1  0
 55 65  1  0
 56 62  1  0
 56 58  1  0
 57 63  1  0
 58 59  2  0
 58 57  1  0
 60 54  2  0
 61 60  1  0
 61 56  2  0
 62 55  1  0
 63 53  1  0
 65 67  2  0
 66 65  1  0
 68 66  1  0
 69 78  2  0
 69 74  1  0
 70 66  1  0
 70 74  1  0
 71 70  1  0
 72 73  1  0
 72 71  1  0
 73 69  1  0
 74 75  2  0
 75 76  1  0
 77 76  2  0
 78 77  1  0
 79 53  1  0
 79 84  1  0
 79 80  1  0
 80 83  1  1
 80 81  1  0
 82 80  1  0
 84 87  1  0
 85 89  1  0
 85 84  1  0
 86 85  2  0
 89 88  1  0
 91 89  1  0
 91 92  1  0
 91 90  1  0
M  ISO  4   6 100  12 100  51 101  52 101
M  END
>  <TORSDO>  (57) 
F 20

>  <SCORE>  (57) 
-14.066

>  <name>  (57) 
56

>  <ligand_id>  (57) 
56

>  <original_smiles>  (57) 
[H]c1c([H])c([H])c2c(c1[H])C([H])([H])C([H])([H])C([H])([H])C2([H])N([H])C(=O)C1([H])N(C(=O)C([H])(N([H])C(=O)C([H])(N([H])C([H])([H])[H])C([H])([H])[H])C(C([H])([H])[H])(C([H])([H])[H])C([H])([H])[H])C([H])([H])c2c([H])c(OC([H])([H])C([H])([H])C([H])([H])C([H])([H])N=C3C([H])([H])C(C([H])([H])[H])(C([H])([H])[H])C4([H])C([H])([H])C([H])(C(=O)N5C([H])([H])C([H])([H])C([H])([H])C([H])(n6nc(-c7c([H])c([H])c(Oc8c([H])c([H])c(F)c([H])c8F)c([H])c7[H])c(C(=O)N([H])[H])c6N([H])[H])C5([H])[H])C([H])([H])C34[H])c([H])c([H])c2C1([H])[H]

>  <smiles>  (57) 
[H]c1c([H])c([H])c2c(c1[H])C([H])([H])C([H])([H])C([H])([H])C2([H])N([H])C(=O)C1([H])N(C(=O)C([H])(N([H])C(=O)C([H])(N([H])C([H])([H])[H])C([H])([H])[H])C(C([H])([H])[H])(C([H])([H])[H])C([H])([H])[H])C([H])([H])c2c([H])c(OC([H])([H])C([H])([H])C([H])([H])C([H])([H])N=C3C([H])([H])C(C([H])([H])[H])(C([H])([H])[H])C4([H])C([H])([H])C([H])(C(=O)N5C([H])([H])C([H])([H])C([H])([H])C([H])(n6nc(-c7c([H])c([H])c(Oc8c([H])c([H])c(F)c([H])c8F)c([H])c7[H])c(C(=O)N([H])[H])c6N([H])[H])C5([H])[H])C([H])([H])C34[H])c([H])c([H])c2C1([H])[H]

$$$$
57:0:0
     RDKit          3D

 95103  0  0  1  0  0  0  0  0999 V2000
  -30.3040  -19.4430   20.9110 C   0  0  0  0  0  3  0  0  0  0  0  0
  -31.9880  -19.9070   16.9130 C   0  0  0  0  0  3  0  0  0  0  0  0
  -32.8100  -19.5340   17.9940 C   0  0  0  0  0  3  0  0  0  0  0  0
  -30.6170  -20.1490   17.1250 C   0  0  0  0  0  3  0  0  0  0  0  0
  -32.2610  -19.3980   19.2820 C   0  0  0  0  0  3  0  0  0  0  0  0
  -30.0660  -20.0040   18.4120 C   0  0  0  0  0  3  0  0  0  0  0  0
  -30.8810  -19.6180   19.5010 C   0  0  0  0  0  0  0  0  0  0  0  0
  -28.3380  -17.9670   20.3740 C   0  0  0  0  0  1  0  0  0  0  0  0
  -29.6320  -18.1090   21.1010 N   0  0  1  0  0  4  0  0  0  0  0  0
  -29.4140  -18.0690   22.0850 H   0  0  0  0  0  0  0  0  0  0  0  0
  -30.5610  -16.9670   20.8300 C   0  0  0  0  0  2  0  0  0  0  0  0
  -30.0930  -15.5740   21.3410 C   0  0  0  0  0  2  0  0  0  0  0  0
  -30.7010  -14.4180   20.5200 C   0  0  0  0  0  0  0  0  0  0  0  0
  -30.3580  -12.3190   19.2650 C   0  0  0  0  0  2  0  0  0  0  0  0
  -29.4050  -12.5740   18.0800 C   0  0  0  0  0  2  0  0  0  0  0  0
  -27.9350  -12.4360   18.5200 C   0  0  0  0  0  2  0  0  0  0  0  0
  -27.6180  -13.2360   19.8110 C   0  0  0  0  0  3  0  0  0  0  0  0
  -28.6810  -12.9590   20.8990 C   0  0  0  0  0  2  0  0  0  0  0  0
  -30.0050  -13.2650   20.3340 N   0  0  0  0  0  0  0  0  0  0  0  0
  -31.7910  -14.6160   19.9760 O   0  0  0  0  0  0  0  0  0  0  0  0
  -25.2150  -13.8420   20.5130 C   0  0  0  0  0  0  0  0  0  0  0  0
  -24.1500  -13.0690   20.8900 C   0  0  0  0  0  0  0  0  0  0  0  0
  -24.6150  -11.7180   20.8610 C   0  0  0  0  0  0  0  0  0  0  0  0
  -26.2640  -12.9630   20.2890 N   0  0  0  0  0  0  0  0  0  0  0  0
  -25.9050  -11.6810   20.5520 N   0  0  0  0  0  0  0  0  0  0  0  0
  -23.8930  -10.4540   21.0530 C   0  0  0  0  0  0  0  0  0  0  0  0
  -24.3340   -9.4860   21.9820 C   0  0  0  0  0  3  0  0  0  0  0  0
  -23.6130   -8.2850   22.1620 C   0  0  0  0  0  3  0  0  0  0  0  0
  -22.4360   -8.0450   21.4140 C   0  0  0  0  0  0  0  0  0  0  0  0
  -22.0140   -9.0030   20.4740 C   0  0  0  0  0  3  0  0  0  0  0  0
  -22.7360  -10.1950   20.2920 C   0  0  0  0  0  3  0  0  0  0  0  0
  -21.6860   -6.8990   21.5040 O   0  0  0  0  0  0  0  0  0  0  0  0
  -21.6520   -6.1490   22.6530 C   0  0  0  0  0  0  0  0  0  0  0  0
  -21.2390   -6.6960   23.8880 C   0  0  0  0  0  3  0  0  0  0  0  0
  -21.1530   -5.8730   25.0280 C   0  0  0  0  0  3  0  0  0  0  0  0
  -21.4710   -4.5040   24.9350 C   0  0  0  0  0  0  0  0  0  0  0  0
  -21.8760   -3.9580   23.7060 C   0  0  0  0  0  3  0  0  0  0  0  0
  -21.9640   -4.7770   22.5670 C   0  0  0  0  0  0  0  0  0  0  0  0
  -22.3360   -4.2400   21.3800 F   0  0  0  0  0  0  0  0  0  0  0  0
  -21.3800   -3.7120   26.0290 F   0  0  0  0  0  0  0  0  0  0  0  0
  -22.7510  -13.5410   21.1630 C   0  0  0  0  0  0  0  0  0  0  0  0
  -22.0240  -12.8430   22.0290 N   0  0  0  0  0  0  0  0  0  0  0  0
  -22.3090  -14.5660   20.6430 O   0  0  0  0  0  0  0  0  0  0  0  0
  -22.3930  -12.0140   22.4700 H   0  0  0  0  0  0  0  0  0  0  0  0
  -21.0870  -13.1430   22.2550 H   0  0  0  0  0  0  0  0  0  0  0  0
  -25.3720  -15.2110   20.3190 N   0  0  0  0  0  0  0  0  0  0  0  0
  -24.5800  -15.8440   20.3670 H   0  0  0  0  0  0  0  0  0  0  0  0
  -26.1790  -15.6200   19.8690 H   0  0  0  0  0  0  0  0  0  0  0  0
  -29.4470  -20.6550   21.3800 C   0  0  0  0  0  2  0  0  0  0  0  0
  -31.2600  -22.3130   22.1330 C   0  0  0  0  0  1  0  0  0  0  0  0
  -30.0690  -22.0660   21.1920 C   0  0  0  0  0  3  0  0  0  0  0  0
  -28.9800  -23.1420   21.3790 C   0  0  0  0  0  2  0  0  0  0  0  0
  -29.3490  -24.5420   20.8540 C   0  0  0  0  0  2  0  0  0  0  0  0
  -28.1270  -25.4600   20.8980 C   0  0  0  0  0  2  0  0  0  0  0  0
  -28.3520  -26.7100   20.2410 O   0  0  0  0  0  0  0  0  0  0  0  0
  -24.5620  -31.8990   23.2490 C   0  0  0  0  0  0  0  0  0  0  0  0
  -27.2100  -27.4710   20.1860 C   0  0  0  0  0  0  0  0  0  0  0  0
  -23.3590  -30.4920   21.6090 C   0  0  0  0  0  3  0  0  0  0  0  0
  -24.8160  -28.9610   20.1850 C   0  0  0  0  0  0  0  0  0  0  0  0
  -25.8830  -30.8600   21.4130 C   0  0  0  0  0  2  0  0  0  0  0  0
  -25.9720  -29.4900   20.7750 C   0  0  0  0  0  0  0  0  0  0  0  0
  -27.1740  -28.7510   20.7750 C   0  0  0  0  0  3  0  0  0  0  0  0
  -26.0440  -26.9620   19.5700 C   0  0  0  0  0  3  0  0  0  0  0  0
  -24.8450  -27.6960   19.5770 C   0  0  0  0  0  3  0  0  0  0  0  0
  -23.5700  -29.8150   20.2290 C   0  0  0  0  0  2  0  0  0  0  0  0
  -24.6190  -31.0960   22.1500 N   0  0  0  0  0  0  0  0  0  0  0  0
  -23.4800  -32.1720   23.7880 O   0  0  0  0  0  0  0  0  0  0  0  0
  -22.7090  -29.4690   22.5690 C   0  0  0  0  0  0  0  0  0  0  0  0
  -21.3830  -29.2930   22.4460 N   0  0  0  0  0  0  0  0  0  0  0  0
  -23.3930  -28.8380   23.3800 O   0  0  0  0  0  0  0  0  0  0  0  0
  -20.8940  -29.8580   21.7650 H   0  0  0  0  0  0  0  0  0  0  0  0
  -18.0000  -28.1270   22.9570 C   0  0  0  0  0  0  0  0  0  0  0  0
  -20.5610  -28.3590   23.2150 C   0  0  0  0  0  3  0  0  0  0  0  0
  -20.6460  -26.9300   22.6320 C   0  0  0  0  0  2  0  0  0  0  0  0
  -19.5360  -26.6220   21.6230 C   0  0  0  0  0  2  0  0  0  0  0  0
  -18.1590  -26.7790   22.2760 C   0  0  0  0  0  2  0  0  0  0  0  0
  -19.1280  -28.8760   23.3850 C   0  0  0  0  0  0  0  0  0  0  0  0
  -18.9270  -30.1390   23.9800 C   0  0  0  0  0  3  0  0  0  0  0  0
  -17.6300  -30.6570   24.1500 C   0  0  0  0  0  3  0  0  0  0  0  0
  -16.5140  -29.9050   23.7410 C   0  0  0  0  0  3  0  0  0  0  0  0
  -16.7000  -28.6420   23.1520 C   0  0  0  0  0  3  0  0  0  0  0  0
  -25.8500  -32.5300   23.8690 C   0  0  0  0  0  3  0  0  0  0  0  0
  -26.3640  -31.7640   25.1490 C   0  0  1  0  0  0  0  0  0  0  0  0
  -25.2680  -31.5290   26.2160 C   0  0  0  0  0  1  0  0  0  0  0  0
  -26.9440  -30.3850   24.7580 C   0  0  0  0  0  1  0  0  0  0  0  0
  -27.5140  -32.5610   25.8080 C   0  0  0  0  0  1  0  0  0  0  0  0
  -25.5420  -33.9290   24.1860 N   0  0  0  0  0  0  0  0  0  0  0  0
  -25.8830  -34.9760   23.4220 C   0  0  0  0  0  0  0  0  0  0  0  0
  -26.5610  -34.8640   22.3960 O   0  0  0  0  0  0  0  0  0  0  0  0
  -24.9400  -34.0890   24.9800 H   0  0  0  0  0  0  0  0  0  0  0  0
  -24.1670  -36.7740   23.0320 C   0  0  0  0  0  1  0  0  0  0  0  0
  -25.3940  -36.3680   23.8640 C   0  0  0  0  0  3  0  0  0  0  0  0
  -27.5220  -37.2480   24.7210 C   0  0  0  0  0  1  0  0  0  0  0  0
  -26.4340  -37.4150   23.7610 N   0  0  0  0  0  0  0  0  0  0  0  0
  -26.0290  -38.3380   23.9000 H   0  0  0  0  0  0  0  0  0  0  0  0
  1  9  1  0
  1 49  1  0
  2  4  2  0
  2  3  1  0
  3  5  2  0
  4  6  1  0
  5  7  1  0
  6  7  2  0
  7  1  1  0
  8  9  1  0
  9 10  1  1
 11  9  1  0
 11 12  1  0
 13 12  1  0
 14 19  1  0
 15 16  1  0
 15 14  1  0
 17 16  1  0
 17 24  1  0
 17 18  1  0
 19 13  1  0
 19 18  1  0
 20 13  2  0
 21 22  2  0
 22 41  1  0
 23 22  1  0
 23 26  1  0
 24 21  1  0
 24 25  1  0
 25 23  2  0
 26 27  1  0
 27 28  2  0
 29 32  1  0
 29 28  1  0
 30 29  2  0
 31 30  1  0
 31 26  2  0
 32 33  1  0
 33 34  1  0
 34 35  2  0
 36 35  1  0
 36 40  1  0
 37 36  2  0
 38 33  2  0
 38 37  1  0
 39 38  1  0
 41 42  1  0
 42 45  1  0
 42 44  1  0
 43 41  2  0
 46 47  1  0
 46 21  1  0
 48 46  1  0
 51 52  1  0
 51 49  1  0
 51 50  1  0
 53 54  1  0
 53 52  1  0
 55 54  1  0
 56 67  2  0
 57 55  1  0
 57 62  1  0
 58 66  1  0
 58 68  1  0
 59 65  1  0
 59 61  1  0
 60 66  1  0
 61 60  1  0
 62 61  2  0
 63 64  1  0
 63 57  2  0
 64 59  2  0
 65 58  1  0
 66 56  1  0
 68 70  2  0
 69 68  1  0
 71 69  1  0
 72 81  2  0
 72 77  1  0
 73 69  1  0
 73 77  1  0
 74 73  1  0
 75 76  1  0
 75 74  1  0
 76 72  1  0
 77 78  2  0
 78 79  1  0
 80 79  2  0
 81 80  1  0
 82 56  1  0
 82 87  1  0
 82 83  1  0
 83 86  1  1
 83 84  1  0
 85 83  1  0
 87 90  1  0
 88 92  1  0
 88 87  1  0
 89 88  2  0
 92 91  1  0
 94 92  1  0
 94 95  1  0
 94 93  1  0
M  ISO  4  12 100  13 100  54 101  55 101
M  END
>  <TORSDO>  (58) 
F 25

>  <SCORE>  (58) 
-12.476

>  <name>  (58) 
57

>  <ligand_id>  (58) 
57

>  <original_smiles>  (58) 
[H]c1c([H])c([H])c(C([H])(C([H])([H])C([H])(C([H])([H])[H])C([H])([H])C([H])([H])C([H])([H])Oc2c([H])c([H])c3c(c2[H])C([H])([H])N(C(=O)C([H])(N([H])C(=O)C([H])(N([H])C([H])([H])[H])C([H])([H])[H])C(C([H])([H])[H])(C([H])([H])[H])C([H])([H])[H])C([H])(C(=O)N([H])C2([H])c4c([H])c([H])c([H])c([H])c4C([H])([H])C([H])([H])C2([H])[H])C3([H])[H])[N+]([H])(C([H])([H])[H])C([H])([H])C([H])([H])C(=O)N2C([H])([H])C([H])([H])C([H])([H])C([H])(n3nc(-c4c([H])c([H])c(Oc5c([H])c([H])c(F)c([H])c5F)c([H])c4[H])c(C(=O)N([H])[H])c3N([H])[H])C2([H])[H])c([H])c1[H]

>  <smiles>  (58) 
[H]c1c([H])c([H])c(C([H])(C([H])([H])C([H])(C([H])([H])[H])C([H])([H])C([H])([H])C([H])([H])Oc2c([H])c([H])c3c(c2[H])C([H])([H])N(C(=O)C([H])(N([H])C(=O)C([H])(N([H])C([H])([H])[H])C([H])([H])[H])C(C([H])([H])[H])(C([H])([H])[H])C([H])([H])[H])C([H])(C(=O)N([H])C2([H])c4c([H])c([H])c([H])c([H])c4C([H])([H])C([H])([H])C2([H])[H])C3([H])[H])[N+]([H])(C([H])([H])[H])C([H])([H])C([H])([H])C(=O)N2C([H])([H])C([H])([H])C([H])([H])C([H])(n3nc(-c4c([H])c([H])c(Oc5c([H])c([H])c(F)c([H])c5F)c([H])c4[H])c(C(=O)N([H])[H])c3N([H])[H])C2([H])[H])c([H])c1[H]

$$$$
58:0:0
     RDKit          3D

 95104  0  0  1  0  0  0  0  0999 V2000
  -28.2670  -21.2690   20.2880 C   0  0  0  0  0  0  0  0  0  0  0  0
  -28.5010  -22.5980   20.2570 N   0  0  0  0  0  0  0  0  0  0  0  0
  -27.3150  -20.7650   19.6900 O   0  0  0  0  0  0  0  0  0  0  0  0
  -29.3410  -22.9000   20.7330 H   0  0  0  0  0  0  0  0  0  0  0  0
  -31.4670  -21.2230   21.4490 C   0  0  0  0  0  2  0  0  0  0  0  0
  -31.4090  -20.2420   20.2640 C   0  0  0  0  0  2  0  0  0  0  0  0
  -30.0890  -21.1930   22.1240 C   0  0  0  0  0  2  0  0  0  0  0  0
  -30.1150  -19.4200   20.4000 C   0  0  0  0  0  3  0  0  0  0  0  0
  -29.1650  -20.3680   21.1920 C   0  0  0  0  0  3  0  0  0  0  0  0
  -30.8060  -16.5900   22.9710 C   0  0  0  0  0  3  0  0  0  0  0  0
  -31.0430  -15.4860   22.1340 C   0  0  0  0  0  3  0  0  0  0  0  0
  -30.4920  -17.8470   22.4220 C   0  0  0  0  0  3  0  0  0  0  0  0
  -30.6150  -16.8980   20.1920 C   0  0  0  0  0  3  0  0  0  0  0  0
  -30.9430  -15.6270   20.7340 C   0  0  0  0  0  0  0  0  0  0  0  0
  -30.3860  -18.0290   21.0220 C   0  0  0  0  0  0  0  0  0  0  0  0
  -31.3310  -14.4900   19.8210 C   0  0  0  0  0  0  0  0  0  0  0  0
  -30.7930  -12.3730   18.6750 C   0  0  0  0  0  2  0  0  0  0  0  0
  -29.8110  -12.6330   17.5190 C   0  0  0  0  0  2  0  0  0  0  0  0
  -28.3570  -12.5800   18.0280 C   0  0  0  0  0  2  0  0  0  0  0  0
  -28.1340  -13.4410   19.3000 C   0  0  0  0  0  3  0  0  0  0  0  0
  -29.2340  -13.1810   20.3500 C   0  0  0  0  0  2  0  0  0  0  0  0
  -30.5500  -13.3810   19.7200 N   0  0  0  0  0  0  0  0  0  0  0  0
  -32.3540  -14.6450   19.1450 O   0  0  0  0  0  0  0  0  0  0  0  0
  -25.8190  -14.1630   20.1650 C   0  0  0  0  0  0  0  0  0  0  0  0
  -24.7360  -13.4430   20.5960 C   0  0  0  0  0  0  0  0  0  0  0  0
  -25.1230  -12.0700   20.5310 C   0  0  0  0  0  0  0  0  0  0  0  0
  -26.7980  -13.2300   19.8630 N   0  0  0  0  0  0  0  0  0  0  0  0
  -26.3880  -11.9670   20.1420 N   0  0  0  0  0  0  0  0  0  0  0  0
  -24.3440  -10.8480   20.7630 C   0  0  0  0  0  0  0  0  0  0  0  0
  -24.7320   -9.8980   21.7350 C   0  0  0  0  0  3  0  0  0  0  0  0
  -23.9590   -8.7380   21.9510 C   0  0  0  0  0  3  0  0  0  0  0  0
  -22.7840   -8.5180   21.1970 C   0  0  0  0  0  0  0  0  0  0  0  0
  -22.4150   -9.4510   20.2130 C   0  0  0  0  0  3  0  0  0  0  0  0
  -23.1870  -10.6040   19.9960 C   0  0  0  0  0  3  0  0  0  0  0  0
  -21.9860   -7.4060   21.3200 O   0  0  0  0  0  0  0  0  0  0  0  0
  -21.8020   -6.7800   22.5260 C   0  0  0  0  0  0  0  0  0  0  0  0
  -21.3210   -7.4700   23.6590 C   0  0  0  0  0  3  0  0  0  0  0  0
  -21.0850   -6.7720   24.8610 C   0  0  0  0  0  3  0  0  0  0  0  0
  -21.3170   -5.3860   24.9300 C   0  0  0  0  0  0  0  0  0  0  0  0
  -21.7940   -4.6960   23.8020 C   0  0  0  0  0  3  0  0  0  0  0  0
  -22.0330   -5.3910   22.6030 C   0  0  0  0  0  0  0  0  0  0  0  0
  -22.4700   -4.7150   21.5130 F   0  0  0  0  0  0  0  0  0  0  0  0
  -21.0820   -4.7160   26.0820 F   0  0  0  0  0  0  0  0  0  0  0  0
  -23.3860  -13.9900   20.9620 C   0  0  0  0  0  0  0  0  0  0  0  0
  -22.7060  -13.3620   21.9160 N   0  0  0  0  0  0  0  0  0  0  0  0
  -22.9460  -15.0100   20.4320 O   0  0  0  0  0  0  0  0  0  0  0  0
  -23.0730  -12.5310   22.3590 H   0  0  0  0  0  0  0  0  0  0  0  0
  -21.8070  -13.7160   22.2090 H   0  0  0  0  0  0  0  0  0  0  0  0
  -26.0450  -15.5240   19.9860 N   0  0  0  0  0  0  0  0  0  0  0  0
  -25.3320  -16.2250   20.1470 H   0  0  0  0  0  0  0  0  0  0  0  0
  -26.9190  -15.9180   19.6580 H   0  0  0  0  0  0  0  0  0  0  0  0
  -27.5260  -23.6560   19.9380 C   0  0  0  0  0  2  0  0  0  0  0  0
  -27.7080  -24.3450   18.5600 C   0  0  0  0  0  2  0  0  0  0  0  0
  -28.3320  -25.7740   18.5330 C   0  0  0  0  0  2  0  0  0  0  0  0
  -28.0430  -26.7140   19.5780 O   0  0  0  0  0  0  0  0  0  0  0  0
  -24.4660  -31.7460   23.0880 C   0  0  0  0  0  0  0  0  0  0  0  0
  -26.8700  -27.4410   19.6110 C   0  0  0  0  0  0  0  0  0  0  0  0
  -23.1450  -30.4240   21.4700 C   0  0  0  0  0  3  0  0  0  0  0  0
  -24.4860  -28.9470   19.8770 C   0  0  0  0  0  0  0  0  0  0  0  0
  -25.6530  -30.7760   21.1210 C   0  0  0  0  0  2  0  0  0  0  0  0
  -25.6840  -29.4360   20.4130 C   0  0  0  0  0  0  0  0  0  0  0  0
  -26.8710  -28.6810   20.2880 C   0  0  0  0  0  3  0  0  0  0  0  0
  -25.6530  -26.9700   19.0730 C   0  0  0  0  0  3  0  0  0  0  0  0
  -24.4650  -27.7130   19.2090 C   0  0  0  0  0  3  0  0  0  0  0  0
  -23.2540  -29.8090   20.0500 C   0  0  0  0  0  2  0  0  0  0  0  0
  -24.4440  -30.9940   21.9510 N   0  0  0  0  0  0  0  0  0  0  0  0
  -23.4250  -31.9900   23.7150 O   0  0  0  0  0  0  0  0  0  0  0  0
  -22.5550  -29.3600   22.4260 C   0  0  0  0  0  0  0  0  0  0  0  0
  -21.2360  -29.1190   22.3220 N   0  0  0  0  0  0  0  0  0  0  0  0
  -23.2780  -28.7500   23.2170 O   0  0  0  0  0  0  0  0  0  0  0  0
  -20.7070  -29.6670   21.6580 H   0  0  0  0  0  0  0  0  0  0  0  0
  -17.9520  -27.6860   22.7770 C   0  0  0  0  0  0  0  0  0  0  0  0
  -20.4770  -28.1330   23.0900 C   0  0  0  0  0  3  0  0  0  0  0  0
  -20.6910  -26.7030   22.5400 C   0  0  0  0  0  2  0  0  0  0  0  0
  -19.6370  -26.2870   21.5090 C   0  0  0  0  0  2  0  0  0  0  0  0
  -18.2380  -26.3420   22.1280 C   0  0  0  0  0  2  0  0  0  0  0  0
  -19.0040  -28.5330   23.2150 C   0  0  0  0  0  0  0  0  0  0  0  0
  -18.6820  -29.7860   23.7790 C   0  0  0  0  0  3  0  0  0  0  0  0
  -17.3400  -30.1930   23.9090 C   0  0  0  0  0  3  0  0  0  0  0  0
  -16.3040  -29.3430   23.4880 C   0  0  0  0  0  3  0  0  0  0  0  0
  -16.6100  -28.0910   22.9260 C   0  0  0  0  0  3  0  0  0  0  0  0
  -25.7910  -32.3530   23.6450 C   0  0  0  0  0  3  0  0  0  0  0  0
  -25.5110  -33.7370   24.0430 N   0  0  0  0  0  0  0  0  0  0  0  0
  -25.7980  -34.8150   23.3000 C   0  0  0  0  0  0  0  0  0  0  0  0
  -26.4010  -34.7450   22.2250 O   0  0  0  0  0  0  0  0  0  0  0  0
  -24.9640  -33.8600   24.8820 H   0  0  0  0  0  0  0  0  0  0  0  0
  -24.0570  -36.6230   23.1250 C   0  0  0  0  0  1  0  0  0  0  0  0
  -25.3500  -36.1900   23.8360 C   0  0  0  0  0  3  0  0  0  0  0  0
  -27.5410  -37.0430   24.5450 C   0  0  0  0  0  1  0  0  0  0  0  0
  -26.3780  -37.2440   23.6820 N   0  0  0  0  0  0  0  0  0  0  0  0
  -25.9920  -38.1620   23.8850 H   0  0  0  0  0  0  0  0  0  0  0  0
  -26.3840  -31.5330   24.8570 C   0  0  1  0  0  0  0  0  0  0  0  0
  -25.3600  -31.2450   25.9810 C   0  0  0  0  0  1  0  0  0  0  0  0
  -26.9380  -30.1750   24.3690 C   0  0  0  0  0  1  0  0  0  0  0  0
  -27.5790  -32.2990   25.4710 C   0  0  0  0  0  1  0  0  0  0  0  0
  2  1  1  0
  2  4  1  0
  3  1  2  0
  5  7  1  0
  6  8  1  0
  6  5  1  0
  8 15  1  0
  8  9  1  0
  9  1  1  0
  9  7  1  0
 11 10  2  0
 12 10  1  0
 13 14  2  0
 13 15  1  0
 14 11  1  0
 15 12  2  0
 16 14  1  0
 17 22  1  0
 18 19  1  0
 18 17  1  0
 20 19  1  0
 20 27  1  0
 20 21  1  0
 22 16  1  0
 22 21  1  0
 23 16  2  0
 24 25  2  0
 25 44  1  0
 26 25  1  0
 26 29  1  0
 27 28  1  0
 27 24  1  0
 28 26  2  0
 29 30  1  0
 30 31  2  0
 32 35  1  0
 32 31  1  0
 33 32  2  0
 34 33  1  0
 34 29  2  0
 35 36  1  0
 36 41  2  0
 36 37  1  0
 37 38  2  0
 38 39  1  0
 39 43  1  0
 40 39  2  0
 41 40  1  0
 42 41  1  0
 44 45  1  0
 45 48  1  0
 45 47  1  0
 46 44  2  0
 49 50  1  0
 49 24  1  0
 51 49  1  0
 52  2  1  0
 53 52  1  0
 54 53  1  0
 54 55  1  0
 55 57  1  0
 56 67  2  0
 57 62  1  0
 58 66  1  0
 58 68  1  0
 59 65  1  0
 59 61  1  0
 60 66  1  0
 61 60  1  0
 62 61  2  0
 63 64  1  0
 63 57  2  0
 64 59  2  0
 65 58  1  0
 66 56  1  0
 68 70  2  0
 69 68  1  0
 71 69  1  0
 72 81  2  0
 72 77  1  0
 73 69  1  0
 73 77  1  0
 74 73  1  0
 75 76  1  0
 75 74  1  0
 76 72  1  0
 77 78  2  0
 78 79  1  0
 80 79  2  0
 81 80  1  0
 82 56  1  0
 82 83  1  0
 82 92  1  0
 83 86  1  0
 84 88  1  0
 84 83  1  0
 85 84  2  0
 88 87  1  0
 90 88  1  0
 90 91  1  0
 90 89  1  0
 92 95  1  1
 92 93  1  0
 94 92  1  0
M  ISO  4  14 100  16 100  54 101  55 101
M  END
>  <TORSDO>  (59) 
F 21

>  <SCORE>  (59) 
-11.682

>  <name>  (59) 
58

>  <ligand_id>  (59) 
58

>  <original_smiles>  (59) 
[H]c1c([H])c([H])c2c(c1[H])C([H])([H])C([H])([H])C([H])([H])C2([H])N([H])C(=O)C1([H])N(C(=O)C([H])(N([H])C(=O)C([H])(N([H])C([H])([H])[H])C([H])([H])[H])C(C([H])([H])[H])(C([H])([H])[H])C([H])([H])[H])C([H])([H])c2c([H])c(OC([H])([H])C([H])([H])C([H])([H])N([H])C(=O)C3([H])C([H])([H])C([H])([H])C([H])([H])C3([H])c3c([H])c([H])c([H])c(C(=O)N4C([H])([H])C([H])([H])C([H])([H])C([H])(n5nc(-c6c([H])c([H])c(Oc7c([H])c([H])c(F)c([H])c7F)c([H])c6[H])c(C(=O)N([H])[H])c5N([H])[H])C4([H])[H])c3[H])c([H])c([H])c2C1([H])[H]

>  <smiles>  (59) 
[H]c1c([H])c([H])c2c(c1[H])C([H])([H])C([H])([H])C([H])([H])C2([H])N([H])C(=O)C1([H])N(C(=O)C([H])(N([H])C(=O)C([H])(N([H])C([H])([H])[H])C([H])([H])[H])C(C([H])([H])[H])(C([H])([H])[H])C([H])([H])[H])C([H])([H])c2c([H])c(OC([H])([H])C([H])([H])C([H])([H])N([H])C(=O)C3([H])C([H])([H])C([H])([H])C([H])([H])C3([H])c3c([H])c([H])c([H])c(C(=O)N4C([H])([H])C([H])([H])C([H])([H])C([H])(n5nc(-c6c([H])c([H])c(Oc7c([H])c([H])c(F)c([H])c7F)c([H])c6[H])c(C(=O)N([H])[H])c5N([H])[H])C4([H])[H])c3[H])c([H])c([H])c2C1([H])[H]

$$$$
59:0:0
     RDKit          3D

 97106  0  0  1  0  0  0  0  0999 V2000
  -31.2460  -18.2370   24.8080 C   0  0  0  0  0  2  0  0  0  0  0  0
  -30.9720  -15.8050   21.4790 C   0  0  0  0  0  2  0  0  0  0  0  0
  -31.3280  -18.4210   23.2930 C   0  0  0  0  0  2  0  0  0  0  0  0
  -30.0800  -16.2780   22.6400 C   0  0  0  0  0  2  0  0  0  0  0  0
  -28.9970  -18.2420   23.8210 C   0  0  0  0  0  2  0  0  0  0  0  0
  -29.6390  -18.4130   21.3540 C   0  0  0  0  0  2  0  0  0  0  0  0
  -29.7580  -18.3990   25.1510 C   0  0  0  0  0  3  0  0  0  0  0  0
  -30.5860  -16.4650   20.1360 C   0  0  0  0  0  3  0  0  0  0  0  0
  -30.0170  -17.8250   22.7400 C   0  0  1  0  0  0  0  0  0  0  0  0
  -29.2890  -17.4260   26.2410 C   0  0  0  0  0  1  0  0  0  0  0  0
  -30.5650  -17.9480   20.2890 N   0  0  1  0  0  4  0  0  0  0  0  0
  -31.4890  -18.1790   20.6210 H   0  0  0  0  0  0  0  0  0  0  0  0
  -29.2850  -15.8650   19.5090 C   0  0  0  0  0  2  0  0  0  0  0  0
  -29.5510  -14.7240   18.5080 C   0  0  0  0  0  0  0  0  0  0  0  0
  -29.3180  -12.3660   17.8150 C   0  0  0  0  0  2  0  0  0  0  0  0
  -28.0880  -12.1420   16.9200 C   0  0  0  0  0  2  0  0  0  0  0  0
  -26.8390  -11.8750   17.7790 C   0  0  0  0  0  2  0  0  0  0  0  0
  -26.6520  -12.9320   18.8980 C   0  0  0  0  0  3  0  0  0  0  0  0
  -27.9660  -13.1550   19.6820 C   0  0  0  0  0  2  0  0  0  0  0  0
  -29.0330  -13.4880   18.7230 N   0  0  0  0  0  0  0  0  0  0  0  0
  -30.2580  -14.9670   17.5260 O   0  0  0  0  0  0  0  0  0  0  0  0
  -24.6530  -13.3940   20.4550 C   0  0  0  0  0  0  0  0  0  0  0  0
  -23.7730  -12.5560   21.0870 C   0  0  0  0  0  0  0  0  0  0  0  0
  -24.1820  -11.2290   20.7540 C   0  0  0  0  0  0  0  0  0  0  0  0
  -25.5460  -12.5720   19.7850 N   0  0  0  0  0  0  0  0  0  0  0  0
  -25.2830  -11.2590   20.0140 N   0  0  0  0  0  0  0  0  0  0  0  0
  -23.5570   -9.9330   21.0490 C   0  0  0  0  0  0  0  0  0  0  0  0
  -24.1490   -9.0140   21.9430 C   0  0  0  0  0  3  0  0  0  0  0  0
  -23.5200   -7.7830   22.2250 C   0  0  0  0  0  3  0  0  0  0  0  0
  -22.2860   -7.4590   21.6130 C   0  0  0  0  0  0  0  0  0  0  0  0
  -21.7120   -8.3670   20.7050 C   0  0  0  0  0  3  0  0  0  0  0  0
  -22.3420   -9.5910   20.4220 C   0  0  0  0  0  3  0  0  0  0  0  0
  -21.6150   -6.2760   21.8060 O   0  0  0  0  0  0  0  0  0  0  0  0
  -21.5310   -5.6900   23.0440 C   0  0  0  0  0  0  0  0  0  0  0  0
  -20.9110   -6.3380   24.1340 C   0  0  0  0  0  3  0  0  0  0  0  0
  -20.7860   -5.6710   25.3700 C   0  0  0  0  0  3  0  0  0  0  0  0
  -21.2690   -4.3560   25.5140 C   0  0  0  0  0  0  0  0  0  0  0  0
  -21.8830   -3.7090   24.4270 C   0  0  0  0  0  3  0  0  0  0  0  0
  -22.0100   -4.3730   23.1950 C   0  0  0  0  0  0  0  0  0  0  0  0
  -22.5820   -3.7360   22.1450 F   0  0  0  0  0  0  0  0  0  0  0  0
  -21.1410   -3.7130   26.6970 F   0  0  0  0  0  0  0  0  0  0  0  0
  -22.5640  -12.9620   21.8800 C   0  0  0  0  0  0  0  0  0  0  0  0
  -22.1930  -12.1710   22.8810 N   0  0  0  0  0  0  0  0  0  0  0  0
  -21.9670  -14.0120   21.6450 O   0  0  0  0  0  0  0  0  0  0  0  0
  -22.6940  -11.3190   23.0860 H   0  0  0  0  0  0  0  0  0  0  0  0
  -21.3970  -12.4200   23.4500 H   0  0  0  0  0  0  0  0  0  0  0  0
  -24.7570  -14.7800   20.3780 N   0  0  0  0  0  0  0  0  0  0  0  0
  -24.0810  -15.3980   20.8120 H   0  0  0  0  0  0  0  0  0  0  0  0
  -25.4480  -15.2740   19.8260 H   0  0  0  0  0  0  0  0  0  0  0  0
  -30.4370  -18.6910   19.0090 C   0  0  0  0  0  2  0  0  0  0  0  0
  -31.3090  -19.9590   18.9770 C   0  0  0  0  0  2  0  0  0  0  0  0
  -30.8580  -20.9260   17.8720 C   0  0  0  0  0  2  0  0  0  0  0  0
  -31.4720  -22.3300   17.9850 C   0  0  0  0  0  2  0  0  0  0  0  0
  -30.6870  -23.3390   17.1350 C   0  0  0  0  0  2  0  0  0  0  0  0
  -30.8250  -24.8030   17.5880 C   0  0  0  0  0  2  0  0  0  0  0  0
  -29.6390  -25.6340   17.0840 C   0  0  0  0  0  2  0  0  0  0  0  0
  -29.4600  -26.8160   17.8640 O   0  0  0  0  0  0  0  0  0  0  0  0
  -25.0610  -29.3240   22.8350 C   0  0  0  0  0  0  0  0  0  0  0  0
  -28.1610  -27.1780   18.1540 C   0  0  0  0  0  0  0  0  0  0  0  0
  -23.9750  -28.4140   20.8090 C   0  0  0  0  0  3  0  0  0  0  0  0
  -25.5240  -27.9370   18.8430 C   0  0  0  0  0  0  0  0  0  0  0  0
  -26.3270  -29.4130   20.6930 C   0  0  0  0  0  2  0  0  0  0  0  0
  -26.6120  -28.4560   19.5560 C   0  0  0  0  0  0  0  0  0  0  0  0
  -27.9300  -28.0830   19.2130 C   0  0  0  0  0  3  0  0  0  0  0  0
  -27.0480  -26.6780   17.4330 C   0  0  0  0  0  3  0  0  0  0  0  0
  -25.7360  -27.0450   17.7800 C   0  0  0  0  0  3  0  0  0  0  0  0
  -24.1450  -28.3870   19.2660 C   0  0  0  0  0  2  0  0  0  0  0  0
  -25.1430  -29.0460   21.5040 N   0  0  0  0  0  0  0  0  0  0  0  0
  -24.0220  -29.1030   23.4730 O   0  0  0  0  0  0  0  0  0  0  0  0
  -23.6720  -26.9790   21.2970 C   0  0  0  0  0  0  0  0  0  0  0  0
  -22.4640  -26.4850   20.9860 N   0  0  0  0  0  0  0  0  0  0  0  0
  -24.5210  -26.3300   21.9150 O   0  0  0  0  0  0  0  0  0  0  0  0
  -21.8230  -27.0830   20.4830 H   0  0  0  0  0  0  0  0  0  0  0  0
  -19.6490  -24.2510   20.6190 C   0  0  0  0  0  0  0  0  0  0  0  0
  -21.9730  -25.1460   21.3090 C   0  0  0  0  0  3  0  0  0  0  0  0
  -22.5550  -24.0900   20.3410 C   0  0  0  0  0  2  0  0  0  0  0  0
  -21.6520  -23.8170   19.1340 C   0  0  0  0  0  2  0  0  0  0  0  0
  -20.2760  -23.3230   19.5930 C   0  0  0  0  0  2  0  0  0  0  0  0
  -20.4450  -25.1180   21.4140 C   0  0  0  0  0  0  0  0  0  0  0  0
  -19.8080  -25.9870   22.3270 C   0  0  0  0  0  3  0  0  0  0  0  0
  -18.4060  -25.9950   22.4550 C   0  0  0  0  0  3  0  0  0  0  0  0
  -17.6240  -25.1230   21.6780 C   0  0  0  0  0  3  0  0  0  0  0  0
  -18.2460  -24.2510   20.7660 C   0  0  0  0  0  3  0  0  0  0  0  0
  -26.2570  -29.9550   23.6140 C   0  0  0  0  0  3  0  0  0  0  0  0
  -25.8130  -31.2600   24.1230 N   0  0  0  0  0  0  0  0  0  0  0  0
  -26.1040  -32.4370   23.5510 C   0  0  0  0  0  0  0  0  0  0  0  0
  -26.8440  -32.5400   22.5670 O   0  0  0  0  0  0  0  0  0  0  0  0
  -25.1610  -31.2480   24.8920 H   0  0  0  0  0  0  0  0  0  0  0  0
  -24.2810  -34.1520   23.3080 C   0  0  0  0  0  1  0  0  0  0  0  0
  -25.4720  -33.7000   24.1670 C   0  0  0  0  0  3  0  0  0  0  0  0
  -27.4390  -34.5750   25.3480 C   0  0  0  0  0  1  0  0  0  0  0  0
  -26.4280  -34.8180   24.3230 N   0  0  0  0  0  0  0  0  0  0  0  0
  -25.9390  -35.6790   24.5570 H   0  0  0  0  0  0  0  0  0  0  0  0
  -26.7820  -29.0460   24.7920 C   0  0  1  0  0  0  0  0  0  0  0  0
  -25.6640  -28.5360   25.7300 C   0  0  0  0  0  1  0  0  0  0  0  0
  -27.5300  -27.8120   24.2350 C   0  0  0  0  0  1  0  0  0  0  0  0
  -27.8020  -29.8320   25.6480 C   0  0  0  0  0  1  0  0  0  0  0  0
  1  7  1  0
  2  4  1  0
  3  1  1  0
  9  4  1  6
  5  7  1  0
  7 10  1  0
  8 13  1  0
  8 11  1  0
  8  2  1  0
  9  6  1  0
  9  3  1  0
  9  5  1  0
 11 12  1  1
 11  6  1  0
 14 20  1  0
 14 13  1  0
 15 20  1  0
 16 17  1  0
 16 15  1  0
 18 17  1  0
 18 19  1  0
 18 25  1  0
 20 19  1  0
 21 14  2  0
 22 23  2  0
 23 42  1  0
 24 27  1  0
 24 23  1  0
 25 26  1  0
 25 22  1  0
 26 24  2  0
 27 28  1  0
 28 29  2  0
 30 33  1  0
 30 29  1  0
 31 30  2  0
 32 31  1  0
 32 27  2  0
 33 34  1  0
 34 39  2  0
 34 35  1  0
 35 36  2  0
 36 37  1  0
 37 41  1  0
 38 37  2  0
 39 38  1  0
 40 39  1  0
 42 43  1  0
 43 45  1  0
 43 46  1  0
 44 42  2  0
 47 22  1  0
 47 48  1  0
 49 47  1  0
 50 11  1  0
 51 50  1  0
 52 53  1  0
 52 51  1  0
 54 55  1  0
 54 53  1  0
 56 55  1  0
 56 57  1  0
 57 59  1  0
 58 69  2  0
 59 64  1  0
 60 70  1  0
 60 68  1  0
 61 67  1  0
 61 63  1  0
 62 68  1  0
 63 62  1  0
 64 63  2  0
 65 66  1  0
 65 59  2  0
 66 61  2  0
 67 60  1  0
 68 58  1  0
 70 72  2  0
 71 70  1  0
 73 71  1  0
 74 83  2  0
 74 79  1  0
 75 71  1  0
 75 79  1  0
 76 75  1  0
 77 78  1  0
 77 76  1  0
 78 74  1  0
 79 80  2  0
 80 81  1  0
 82 81  2  0
 83 82  1  0
 84 58  1  0
 84 85  1  0
 84 94  1  0
 85 88  1  0
 86 85  1  0
 86 90  1  0
 87 86  2  0
 90 89  1  0
 90 92  1  0
 92 93  1  0
 92 91  1  0
 94 97  1  1
 94 95  1  0
 96 94  1  0
M  ISO  4  13 100  14 100  56 101  57 101
M  END
>  <TORSDO>  (60) 
F 24

>  <SCORE>  (60) 
9.537

>  <name>  (60) 
59

>  <ligand_id>  (60) 
59

>  <original_smiles>  (60) 
[H]c1c([H])c([H])c2c(c1[H])C([H])([H])C([H])([H])C([H])([H])C2([H])N([H])C(=O)C1([H])N(C(=O)C([H])(N([H])C(=O)C([H])(N([H])C([H])([H])[H])C([H])([H])[H])C(C([H])([H])[H])(C([H])([H])[H])C([H])([H])[H])C([H])([H])c2c([H])c(OC([H])([H])C([H])([H])C([H])([H])C([H])([H])C([H])([H])C([H])([H])C([H])([H])[N+]3([H])C([H])([H])C4(C([H])([H])C([H])([H])C([H])(C([H])([H])[H])C4([H])[H])C([H])([H])C([H])([H])C3([H])C([H])([H])C(=O)N3C([H])([H])C([H])([H])C([H])([H])C([H])(n4nc(-c5c([H])c([H])c(Oc6c([H])c([H])c(F)c([H])c6F)c([H])c5[H])c(C(=O)N([H])[H])c4N([H])[H])C3([H])[H])c([H])c([H])c2C1([H])[H]

>  <smiles>  (60) 
[H]c1c([H])c([H])c2c(c1[H])C([H])([H])C([H])([H])C([H])([H])C2([H])N([H])C(=O)C1([H])N(C(=O)C([H])(N([H])C(=O)C([H])(N([H])C([H])([H])[H])C([H])([H])[H])C(C([H])([H])[H])(C([H])([H])[H])C([H])([H])[H])C([H])([H])c2c([H])c(OC([H])([H])C([H])([H])C([H])([H])C([H])([H])C([H])([H])C([H])([H])C([H])([H])[N+]3([H])C([H])([H])C4(C([H])([H])C([H])([H])C([H])(C([H])([H])[H])C4([H])[H])C([H])([H])C([H])([H])C3([H])C([H])([H])C(=O)N3C([H])([H])C([H])([H])C([H])([H])C([H])(n4nc(-c5c([H])c([H])c(Oc6c([H])c([H])c(F)c([H])c6F)c([H])c5[H])c(C(=O)N([H])[H])c4N([H])[H])C3([H])[H])c([H])c([H])c2C1([H])[H]

$$$$
60:0:0
     RDKit          3D

 97105  0  0  1  0  0  0  0  0999 V2000
  -34.6000  -24.8770   19.0480 C   0  0  0  0  0  1  0  0  0  0  0  0
  -33.2660  -24.1180   18.9680 C   0  0  0  0  0  3  0  0  0  0  0  0
  -32.1940  -25.0080   18.4660 N   0  0  0  0  0  4  0  0  0  0  0  0
  -32.6140  -25.7060   17.8750 H   0  0  0  0  0  0  0  0  0  0  0  0
  -31.5710  -24.4670   17.8880 H   0  0  0  0  0  0  0  0  0  0  0  0
  -31.3770  -25.6700   19.5060 C   0  0  0  0  0  2  0  0  0  0  0  0
  -30.5600  -26.8280   18.9100 C   0  0  0  0  0  2  0  0  0  0  0  0
  -29.6340  -27.5260   19.9120 C   0  0  0  0  0  2  0  0  0  0  0  0
  -28.4410  -26.7590   20.0800 O   0  0  0  0  0  0  0  0  0  0  0  0
  -24.5890  -31.8820   23.2380 C   0  0  0  0  0  0  0  0  0  0  0  0
  -27.2710  -27.4770   20.1740 C   0  0  0  0  0  0  0  0  0  0  0  0
  -23.3820  -30.4630   21.6050 C   0  0  0  0  0  3  0  0  0  0  0  0
  -24.8420  -28.9190   20.1950 C   0  0  0  0  0  0  0  0  0  0  0  0
  -25.8960  -30.8470   21.3930 C   0  0  0  0  0  2  0  0  0  0  0  0
  -25.9890  -29.4700   20.7760 C   0  0  0  0  0  0  0  0  0  0  0  0
  -27.2000  -28.7530   20.7790 C   0  0  0  0  0  3  0  0  0  0  0  0
  -26.1010  -26.9170   19.6200 C   0  0  0  0  0  3  0  0  0  0  0  0
  -24.8870  -27.6340   19.6220 C   0  0  0  0  0  3  0  0  0  0  0  0
  -23.5910  -29.7670   20.2310 C   0  0  0  0  0  2  0  0  0  0  0  0
  -24.6400  -31.0790   22.1380 N   0  0  0  0  0  0  0  0  0  0  0  0
  -23.5100  -32.1530   23.7810 O   0  0  0  0  0  0  0  0  0  0  0  0
  -22.7410  -29.4470   22.5750 C   0  0  0  0  0  0  0  0  0  0  0  0
  -21.4160  -29.2630   22.4540 N   0  0  0  0  0  0  0  0  0  0  0  0
  -23.4300  -28.8250   23.3880 O   0  0  0  0  0  0  0  0  0  0  0  0
  -20.9220  -29.8180   21.7690 H   0  0  0  0  0  0  0  0  0  0  0  0
  -18.0450  -28.0790   22.9700 C   0  0  0  0  0  0  0  0  0  0  0  0
  -20.6030  -28.3300   23.2320 C   0  0  0  0  0  3  0  0  0  0  0  0
  -20.7010  -26.8970   22.6600 C   0  0  0  0  0  2  0  0  0  0  0  0
  -19.5930  -26.5750   21.6510 C   0  0  0  0  0  2  0  0  0  0  0  0
  -18.2150  -26.7260   22.3000 C   0  0  0  0  0  2  0  0  0  0  0  0
  -19.1680  -28.8390   23.3940 C   0  0  0  0  0  0  0  0  0  0  0  0
  -18.9560  -30.1070   23.9790 C   0  0  0  0  0  3  0  0  0  0  0  0
  -17.6530  -30.6130   24.1470 C   0  0  0  0  0  3  0  0  0  0  0  0
  -16.5460  -29.8500   23.7410 C   0  0  0  0  0  3  0  0  0  0  0  0
  -16.7420  -28.5850   23.1580 C   0  0  0  0  0  3  0  0  0  0  0  0
  -25.8790  -32.5180   23.8500 C   0  0  0  0  0  3  0  0  0  0  0  0
  -26.4160  -31.7430   25.1150 C   0  0  1  0  0  0  0  0  0  0  0  0
  -25.3380  -31.4890   26.1920 C   0  0  0  0  0  1  0  0  0  0  0  0
  -27.0050  -30.3730   24.7050 C   0  0  0  0  0  1  0  0  0  0  0  0
  -27.5680  -32.5420   25.7690 C   0  0  0  0  0  1  0  0  0  0  0  0
  -25.5650  -33.9130   24.1860 N   0  0  0  0  0  0  0  0  0  0  0  0
  -25.8900  -34.9680   23.4280 C   0  0  0  0  0  0  0  0  0  0  0  0
  -26.5570  -34.8700   22.3940 O   0  0  0  0  0  0  0  0  0  0  0  0
  -24.9720  -34.0630   24.9890 H   0  0  0  0  0  0  0  0  0  0  0  0
  -24.1490  -36.7480   23.0830 C   0  0  0  0  0  1  0  0  0  0  0  0
  -25.3950  -36.3510   23.8890 C   0  0  0  0  0  3  0  0  0  0  0  0
  -27.5310  -37.2430   24.7090 C   0  0  0  0  0  1  0  0  0  0  0  0
  -26.4210  -37.4110   23.7750 N   0  0  0  0  0  0  0  0  0  0  0  0
  -26.0110  -38.3280   23.9330 H   0  0  0  0  0  0  0  0  0  0  0  0
  -33.3810  -22.8640   18.0760 C   0  0  0  0  0  2  0  0  0  0  0  0
  -32.1520  -20.7230   17.3080 C   0  0  0  0  0  2  0  0  0  0  0  0
  -31.4600  -19.5870   18.0620 C   0  0  0  0  0  2  0  0  0  0  0  0
  -32.4180  -21.1060   19.7070 C   0  0  0  0  0  2  0  0  0  0  0  0
  -32.2650  -21.8360   18.3550 C   0  0  0  0  0  3  0  0  0  0  0  0
  -32.1440  -19.6160   19.4360 C   0  0  0  0  0  3  0  0  0  0  0  0
  -31.3860  -18.9710   20.5330 N   0  0  0  0  0  4  0  0  0  0  0  0
  -30.5770  -19.5280   20.7620 H   0  0  0  0  0  0  0  0  0  0  0  0
  -31.9830  -18.9630   21.3440 H   0  0  0  0  0  0  0  0  0  0  0  0
  -30.9500  -17.5840   20.2730 C   0  0  0  0  0  2  0  0  0  0  0  0
  -30.8370  -16.7730   21.5810 C   0  0  0  0  0  2  0  0  0  0  0  0
  -30.0730  -15.4350   21.4650 C   0  0  0  0  0  2  0  0  0  0  0  0
  -30.6650  -14.3870   20.5040 C   0  0  0  0  0  0  0  0  0  0  0  0
  -30.3180  -12.3100   19.2070 C   0  0  0  0  0  2  0  0  0  0  0  0
  -29.3530  -12.5670   18.0340 C   0  0  0  0  0  2  0  0  0  0  0  0
  -27.8840  -12.4310   18.4850 C   0  0  0  0  0  2  0  0  0  0  0  0
  -27.5810  -13.2300   19.7800 C   0  0  0  0  0  3  0  0  0  0  0  0
  -28.6490  -12.9380   20.8580 C   0  0  0  0  0  2  0  0  0  0  0  0
  -29.9700  -13.2430   20.2860 N   0  0  0  0  0  0  0  0  0  0  0  0
  -31.7260  -14.6340   19.9220 O   0  0  0  0  0  0  0  0  0  0  0  0
  -25.1860  -13.8450   20.5020 C   0  0  0  0  0  0  0  0  0  0  0  0
  -24.1190  -13.0750   20.8820 C   0  0  0  0  0  0  0  0  0  0  0  0
  -24.5800  -11.7230   20.8540 C   0  0  0  0  0  0  0  0  0  0  0  0
  -26.2300  -12.9630   20.2690 N   0  0  0  0  0  0  0  0  0  0  0  0
  -25.8660  -11.6810   20.5320 N   0  0  0  0  0  0  0  0  0  0  0  0
  -23.8560  -10.4620   21.0550 C   0  0  0  0  0  0  0  0  0  0  0  0
  -24.3150   -9.4840   21.9660 C   0  0  0  0  0  3  0  0  0  0  0  0
  -23.5920   -8.2880   22.1560 C   0  0  0  0  0  3  0  0  0  0  0  0
  -22.3960   -8.0590   21.4350 C   0  0  0  0  0  0  0  0  0  0  0  0
  -21.9570   -9.0240   20.5120 C   0  0  0  0  0  3  0  0  0  0  0  0
  -22.6810  -10.2130   20.3200 C   0  0  0  0  0  3  0  0  0  0  0  0
  -21.6410   -6.9150   21.5350 O   0  0  0  0  0  0  0  0  0  0  0  0
  -21.6460   -6.1480   22.6720 C   0  0  0  0  0  0  0  0  0  0  0  0
  -21.3040   -6.6830   23.9320 C   0  0  0  0  0  3  0  0  0  0  0  0
  -21.2540   -5.8430   25.0640 C   0  0  0  0  0  3  0  0  0  0  0  0
  -21.5350   -4.4700   24.9350 C   0  0  0  0  0  0  0  0  0  0  0  0
  -21.8700   -3.9350   23.6790 C   0  0  0  0  0  3  0  0  0  0  0  0
  -21.9220   -4.7710   22.5500 C   0  0  0  0  0  0  0  0  0  0  0  0
  -22.2250   -4.2450   21.3380 F   0  0  0  0  0  0  0  0  0  0  0  0
  -21.4810   -3.6620   26.0190 F   0  0  0  0  0  0  0  0  0  0  0  0
  -22.7250  -13.5520   21.1680 C   0  0  0  0  0  0  0  0  0  0  0  0
  -22.0090  -12.8580   22.0460 N   0  0  0  0  0  0  0  0  0  0  0  0
  -22.2790  -14.5760   20.6500 O   0  0  0  0  0  0  0  0  0  0  0  0
  -22.3870  -12.0310   22.4850 H   0  0  0  0  0  0  0  0  0  0  0  0
  -21.0730  -13.1560   22.2840 H   0  0  0  0  0  0  0  0  0  0  0  0
  -25.3500  -15.2140   20.3190 N   0  0  0  0  0  0  0  0  0  0  0  0
  -24.5860  -15.8730   20.4240 H   0  0  0  0  0  0  0  0  0  0  0  0
  -26.2030  -15.6490   19.9890 H   0  0  0  0  0  0  0  0  0  0  0  0
  2  1  1  0
  3  2  1  0
  3  6  1  0
  4  3  1  0
  5  3  1  0
  7  6  1  0
  7  8  1  0
  8  9  1  0
  9 11  1  0
 10 21  2  0
 11 16  1  0
 12 20  1  0
 12 22  1  0
 13 19  1  0
 13 15  1  0
 14 20  1  0
 15 16  2  0
 15 14  1  0
 17 18  1  0
 17 11  2  0
 18 13  2  0
 19 12  1  0
 20 10  1  0
 22 24  2  0
 23 22  1  0
 25 23  1  0
 26 35  2  0
 26 31  1  0
 27 23  1  0
 27 31  1  0
 28 27  1  0
 29 30  1  0
 29 28  1  0
 30 26  1  0
 31 32  2  0
 32 33  1  0
 34 33  2  0
 35 34  1  0
 36 10  1  0
 36 41  1  0
 36 37  1  0
 37 40  1  1
 37 38  1  0
 39 37  1  0
 41 44  1  0
 42 46  1  0
 42 41  1  0
 43 42  2  0
 46 45  1  0
 48 46  1  0
 48 49  1  0
 48 47  1  0
 50  2  1  0
 51 52  1  0
 51 54  1  0
 52 55  1  0
 54 50  1  0
 54 53  1  0
 55 53  1  0
 55 56  1  0
 56 57  1  0
 56 58  1  0
 59 56  1  0
 59 60  1  0
 61 60  1  0
 62 61  1  0
 63 68  1  0
 64 65  1  0
 64 63  1  0
 66 65  1  0
 66 73  1  0
 66 67  1  0
 68 62  1  0
 68 67  1  0
 69 62  2  0
 70 71  2  0
 71 90  1  0
 72 71  1  0
 72 75  1  0
 73 70  1  0
 73 74  1  0
 74 72  2  0
 75 76  1  0
 76 77  2  0
 78 81  1  0
 78 77  1  0
 79 78  2  0
 80 79  1  0
 80 75  2  0
 81 82  1  0
 82 83  1  0
 83 84  2  0
 85 84  1  0
 85 89  1  0
 86 85  2  0
 87 82  2  0
 87 86  1  0
 88 87  1  0
 90 91  1  0
 91 94  1  0
 91 93  1  0
 92 90  2  0
 95 96  1  0
 95 70  1  0
 97 95  1  0
M  ISO  4   8 101   9 101  61 100  62 100
M  END
>  <TORSDO>  (61) 
F 26

>  <SCORE>  (61) 
-11.742

>  <name>  (61) 
60

>  <ligand_id>  (61) 
60

>  <original_smiles>  (61) 
[H]c1c([H])c([H])c2c(c1[H])C([H])([H])C([H])([H])C([H])([H])C2([H])N([H])C(=O)C1([H])N(C(=O)C([H])(N([H])C(=O)C([H])(N([H])C([H])([H])[H])C([H])([H])[H])C(C([H])([H])[H])(C([H])([H])[H])C([H])([H])[H])C([H])([H])c2c([H])c(OC([H])([H])C([H])([H])C([H])([H])[N+]([H])([H])C([H])(C([H])([H])[H])C([H])([H])C3([H])C([H])([H])C([H])([H])C([H])([N+]([H])([H])C([H])([H])C([H])([H])C([H])([H])C(=O)N4C([H])([H])C([H])([H])C([H])([H])C([H])(n5nc(-c6c([H])c([H])c(Oc7c([H])c([H])c(F)c([H])c7F)c([H])c6[H])c(C(=O)N([H])[H])c5N([H])[H])C4([H])[H])C3([H])[H])c([H])c([H])c2C1([H])[H]

>  <smiles>  (61) 
[H]c1c([H])c([H])c2c(c1[H])C([H])([H])C([H])([H])C([H])([H])C2([H])N([H])C(=O)C1([H])N(C(=O)C([H])(N([H])C(=O)C([H])(N([H])C([H])([H])[H])C([H])([H])[H])C(C([H])([H])[H])(C([H])([H])[H])C([H])([H])[H])C([H])([H])c2c([H])c(OC([H])([H])C([H])([H])C([H])([H])[N+]([H])([H])C([H])(C([H])([H])[H])C([H])([H])C3([H])C([H])([H])C([H])([H])C([H])([N+]([H])([H])C([H])([H])C([H])([H])C([H])([H])C(=O)N4C([H])([H])C([H])([H])C([H])([H])C([H])(n5nc(-c6c([H])c([H])c(Oc7c([H])c([H])c(F)c([H])c7F)c([H])c6[H])c(C(=O)N([H])[H])c5N([H])[H])C4([H])[H])C3([H])[H])c([H])c([H])c2C1([H])[H]

$$$$
61:0:0
     RDKit          3D

 95 89  0  0  1  0  0  0  0  0999 V2000
  -21.0310  -29.3350   24.4110 C   0  0  0  0  0 15  0  0  0  0  0  0
  -20.4860  -29.6150   22.2200 C   0  0  0  0  0 15  0  0  0  0  0  0
  -22.0660  -24.9640   20.4200 C   0  0  0  0  0  1  0  0  0  0  0  0
  -20.5090  -25.8290   23.5270 C   0  0  0  0  0 15  0  0  0  0  0  0
  -20.8020  -27.2640   25.0600 C   0  0  0  0  0  1  0  0  0  0  0  0
  -21.9990  -24.1540   22.2480 C   0  0  0  0  0 15  0  0  0  0  0  0
  -20.3270  -27.6440   21.2420 C   0  0  0  0  0 15  0  0  0  0  0  0
  -19.7540  -27.1090   26.1820 C   0  0  0  0  0  1  0  0  0  0  0  0
  -21.4780  -26.6680   19.9880 N   0  0  0  0  0  0  0  0  0  0  0  0
  -22.2610  -27.0380   20.5010 H   0  0  0  0  0  0  0  0  0  0  0  0
  -23.1110  -22.1890   22.0100 C   0  0  0  0  0 15  0  0  0  0  0  0
  -24.9090  -20.8110   21.9640 C   0  0  0  0  0 15  0  0  0  0  0  0
  -26.1690  -19.0980   21.1810 C   0  0  0  0  0 15  0  0  0  0  0  0
  -27.6940  -17.4410   21.3980 C   0  0  0  0  0 15  0  0  0  0  0  0
  -29.1110  -15.9750   20.7410 C   0  0  0  0  0  2  0  0  0  0  0  0
  -30.1880  -13.5120   19.7700 C   0  0  0  0  0  2  0  0  0  0  0  0
  -29.5300  -12.8450   18.5010 C   0  0  0  0  0  2  0  0  0  0  0  0
  -28.1350  -12.2830   18.8200 C   0  0  0  0  0  2  0  0  0  0  0  0
  -27.4720  -13.2340   19.8260 C   0  0  0  0  0  3  0  0  0  0  0  0
  -28.2970  -13.5030   21.0760 C   0  0  0  0  0  2  0  0  0  0  0  0
  -29.2280  -14.4770   20.5810 N   0  0  0  0  0  0  0  0  0  0  0  0
  -30.3370  -16.1950   20.4240 O   0  0  0  0  0  1  0  0  0  0  0  0
  -25.1640  -13.7850   20.5440 C   0  0  0  0  0  0  0  0  0  0  0  0
  -24.1160  -13.0150   20.9240 C   0  0  0  0  0  0  0  0  0  0  0  0
  -24.5860  -11.6660   20.8760 C   0  0  0  0  0  0  0  0  0  0  0  0
  -26.1700  -12.8950   20.2560 N   0  0  0  0  0  0  0  0  0  0  0  0
  -25.8640  -11.6170   20.5400 N   0  0  0  0  0  0  0  0  0  0  0  0
  -23.8700  -10.4140   21.0500 C   0  0  0  0  0  0  0  0  0  0  0  0
  -24.3420   -9.4140   21.9250 C   0  0  0  0  0  3  0  0  0  0  0  0
  -23.6210   -8.2120   22.0750 C   0  0  0  0  0  3  0  0  0  0  0  0
  -22.4210   -8.0130   21.3490 C   0  0  0  0  0  0  0  0  0  0  0  0
  -21.9730   -9.0070   20.4610 C   0  0  0  0  0  3  0  0  0  0  0  0
  -22.6940  -10.2000   20.3090 C   0  0  0  0  0  3  0  0  0  0  0  0
  -21.6570   -6.8750   21.4230 O   0  0  0  0  0  0  0  0  0  0  0  0
  -21.6830   -6.0660   22.5290 C   0  0  0  0  0  0  0  0  0  0  0  0
  -21.4010   -6.5600   23.8200 C   0  0  0  0  0  3  0  0  0  0  0  0
  -21.3670   -5.6760   24.9160 C   0  0  0  0  0  3  0  0  0  0  0  0
  -21.6050   -4.3020   24.7240 C   0  0  0  0  0  0  0  0  0  0  0  0
  -21.8820   -3.8110   23.4370 C   0  0  0  0  0  3  0  0  0  0  0  0
  -21.9190   -4.6900   22.3420 C   0  0  0  0  0  0  0  0  0  0  0  0
  -22.1660   -4.2090   21.1000 F   0  0  0  0  0  0  0  0  0  0  0  0
  -21.5660   -3.4520   25.7770 F   0  0  0  0  0  0  0  0  0  0  0  0
  -22.7340  -13.5080   21.2040 C   0  0  0  0  0  0  0  0  0  0  0  0
  -22.0030  -12.8150   22.0640 N   0  0  0  0  0  0  0  0  0  0  0  0
  -22.3190  -14.5470   20.6930 O   0  0  0  0  0  0  0  0  0  0  0  0
  -22.3690  -11.9830   22.5030 H   0  0  0  0  0  0  0  0  0  0  0  0
  -21.0680  -13.1260   22.2870 H   0  0  0  0  0  0  0  0  0  0  0  0
  -25.3510  -15.1570   20.3960 N   0  0  0  0  0  0  0  0  0  0  0  0
  -24.5650  -15.7950   20.4390 H   0  0  0  0  0  0  0  0  0  0  0  0
  -26.1230  -15.5360   19.8690 H   0  0  0  0  0  0  0  0  0  0  0  0
  -22.0830  -27.0710   18.5880 C   0  0  0  0  0  2  0  0  0  0  0  0
  -23.5090  -26.3390   17.9670 C   0  0  0  0  0  2  0  0  0  0  0  0
  -25.0400  -26.9490   17.5690 C   0  0  0  0  0  2  0  0  0  0  0  0
  -26.5630  -26.3080   17.9690 C   0  0  0  0  0  2  0  0  0  0  0  0
  -27.6110  -26.7800   19.0250 O   0  0  0  0  0  0  0  0  0  0  0  0
  -24.7500  -31.9930   23.2010 C   0  0  0  0  0  0  0  0  0  0  0  0
  -27.0310  -27.4280   20.0670 C   0  0  0  0  0  3  0  0  0  0  0  0
  -23.6400  -30.6180   21.6080 C   0  0  0  0  0  3  0  0  0  0  0  0
  -24.9300  -29.1350   20.1970 C   0  0  0  0  0  0  0  0  0  0  0  0
  -26.1360  -30.9800   21.3080 C   0  0  0  0  0  2  0  0  0  0  0  0
  -26.1550  -29.6040   20.6500 C   0  0  0  0  0  0  0  0  0  0  0  0
  -27.2900  -28.7680   20.4750 C   0  0  0  0  0  3  0  0  0  0  0  0
  -25.7870  -26.8880   20.3080 C   0  0  0  0  0  2  0  0  0  0  0  0
  -24.7430  -27.7750   20.1700 C   0  0  0  0  0  3  0  0  0  0  0  0
  -23.7680  -30.0760   20.1820 C   0  0  0  0  0  2  0  0  0  0  0  0
  -24.8670  -31.2610   22.0620 N   0  0  0  0  0  0  0  0  0  0  0  0
  -23.6510  -32.2160   23.7420 O   0  0  0  0  0  0  0  0  0  0  0  0
  -23.4370  -29.4380   22.5620 C   0  0  0  0  0  0  0  0  0  0  0  0
  -22.5860  -28.5850   22.1520 N   0  0  0  0  0  0  0  0  0  0  0  0
  -24.0760  -29.1740   23.5600 O   0  0  0  0  0  0  0  0  0  0  0  0
  -22.1100  -28.9740   21.3550 H   0  0  0  0  0  0  0  0  0  0  0  0
  -18.1590  -27.4260   22.7300 C   0  0  0  0  0  0  0  0  0  0  0  0
  -21.7100  -27.7320   22.9810 C   0  0  0  0  0  2  0  0  0  0  0  0
  -22.0850  -26.5350   22.2080 C   0  0  0  0  0  1  0  0  0  0  0  0
  -19.9150  -25.4290   21.4180 C   0  0  0  0  0  1  0  0  0  0  0  0
  -18.3750  -26.0660   21.9270 C   0  0  0  0  0  2  0  0  0  0  0  0
  -19.2970  -28.0380   23.3850 C   0  0  0  0  0  3  0  0  0  0  0  0
  -18.6160  -29.2760   24.0600 C   0  0  0  0  0  3  0  0  0  0  0  0
  -17.4160  -29.9770   23.9100 C   0  0  0  0  0  3  0  0  0  0  0  0
  -16.4530  -29.2900   23.2410 C   0  0  0  0  0  3  0  0  0  0  0  0
  -16.8250  -28.0270   22.7190 C   0  0  0  0  0  3  0  0  0  0  0  0
  -26.0110  -32.5500   23.8760 C   0  0  0  0  0  3  0  0  0  0  0  0
  -25.6690  -33.9120   24.2790 N   0  0  0  0  0  0  0  0  0  0  0  0
  -25.9210  -34.9840   23.5240 C   0  0  0  0  0  0  0  0  0  0  0  0
  -26.5440  -34.9230   22.4600 O   0  0  0  0  0  0  0  0  0  0  0  0
  -25.1010  -34.0210   25.1070 H   0  0  0  0  0  0  0  0  0  0  0  0
  -24.1500  -36.7480   23.2590 C   0  0  0  0  0  1  0  0  0  0  0  0
  -25.4130  -36.3420   24.0360 C   0  0  0  0  0  3  0  0  0  0  0  0
  -27.5620  -37.1980   24.8470 C   0  0  0  0  0  1  0  0  0  0  0  0
  -26.4300  -37.4100   23.9460 N   0  0  0  0  0  0  0  0  0  0  0  0
  -26.0230  -38.3180   24.1540 H   0  0  0  0  0  0  0  0  0  0  0  0
  -26.4900  -31.6840   25.0960 C   0  0  1  0  0  0  0  0  0  0  0  0
  -25.3840  -31.3750   26.1310 C   0  0  0  0  0  1  0  0  0  0  0  0
  -27.0920  -30.3440   24.6160 C   0  0  0  0  0  1  0  0  0  0  0  0
  -27.6360  -32.4310   25.8090 C   0  0  0  0  0  1  0  0  0  0  0  0
  5  8  1  0
  9  3  1  0
  9 10  1  0
 16 21  1  0
 17 18  1  0
 17 16  1  0
 19 18  1  0
 19 26  1  0
 19 20  1  0
 21 15  1  0
 21 20  1  0
 22 15  1  0
 23 24  2  0
 24 43  1  0
 25 24  1  0
 25 28  1  0
 26 27  1  0
 26 23  1  0
 27 25  2  0
 28 29  1  0
 29 30  2  0
 31 34  1  0
 31 30  1  0
 32 31  2  0
 33 32  1  0
 33 28  2  0
 34 35  1  0
 35 36  1  0
 36 37  2  0
 38 37  1  0
 38 42  1  0
 39 38  2  0
 40 35  2  0
 40 39  1  0
 41 40  1  0
 43 44  1  0
 44 47  1  0
 44 46  1  0
 45 43  2  0
 48 49  1  0
 48 23  1  0
 50 48  1  0
 51  9  1  0
 52 51  1  0
 53 52  1  0
 53 54  1  0
 54 55  1  0
 56 67  2  0
 57 55  1  0
 57 63  1  0
 57 62  1  0
 58 66  1  0
 58 68  1  0
 59 61  1  0
 60 66  1  0
 61 60  1  0
 62 61  2  0
 64 59  2  0
 64 63  1  0
 65 59  1  0
 65 58  1  0
 66 56  1  0
 68 70  2  0
 69 68  1  0
 69 73  1  0
 71 69  1  0
 72 77  1  0
 74 73  1  0
 75 76  1  0
 76 72  1  0
 77 78  2  0
 79 78  1  0
 80 79  2  0
 81 72  2  0
 81 80  1  0
 82 56  1  0
 82 83  1  0
 82 92  1  0
 83 86  1  0
 84 88  1  0
 84 83  1  0
 85 84  2  0
 88 87  1  0
 90 88  1  0
 90 91  1  0
 90 89  1  0
 92 95  1  1
 92 93  1  0
 94 92  1  0
M  ISO  4  14 100  15 100  54 101  55 101
M  END
>  <TORSDO>  (62) 
F 24

>  <SCORE>  (62) 
23.802

>  <name>  (62) 
61

>  <ligand_id>  (62) 
61

>  <original_smiles>  (62) 
[H]c1c([H])c([H])c2c(c1[H])C([H])([H])C([H])([H])C([H])([H])C2([H])N([H])C(=O)C1([H])N(C(=O)C([H])(N([H])C(=O)C([H])(N([H])C([H])([H])[H])C([H])([H])[H])C(C([H])([H])[H])(C([H])([H])[H])C([H])([H])[H])C([H])([H])c2c([H])c(OC([H])([H])C([H])([H])C([H])([H])C([H])([H])[N+]3([H])C([H])([H])C([H])(C([H])([H])C([H])([H])C([H])([H])C([H])([H])C(=O)N4C([H])([H])C([H])([H])C([H])([H])C([H])(n5nc(-c6c([H])c([H])c(Oc7c([H])c([H])c(F)c([H])c7F)c([H])c6[H])c(C(=O)N([H])[H])c5N([H])[H])C4([H])[H])C4([H])C([H])(C([H])([H])[H])C([H])([H])C([H])([H])C43[H])c([H])c([H])c2C1([H])[H]

>  <smiles>  (62) 
[H]c1c([H])c([H])c2c(c1[H])C([H])([H])C([H])([H])C([H])([H])C2([H])N([H])C(=O)C1([H])N(C(=O)C([H])(N([H])C(=O)C([H])(N([H])C([H])([H])[H])C([H])([H])[H])C(C([H])([H])[H])(C([H])([H])[H])C([H])([H])[H])C([H])([H])c2c([H])c(OC([H])([H])C([H])([H])C([H])([H])C([H])([H])[N+]3([H])C([H])([H])C([H])(C([H])([H])C([H])([H])C([H])([H])C([H])([H])C(=O)N4C([H])([H])C([H])([H])C([H])([H])C([H])(n5nc(-c6c([H])c([H])c(Oc7c([H])c([H])c(F)c([H])c7F)c([H])c6[H])c(C(=O)N([H])[H])c5N([H])[H])C4([H])[H])C4([H])C([H])(C([H])([H])[H])C([H])([H])C([H])([H])C43[H])c([H])c([H])c2C1([H])[H]

$$$$
62:0:0
     RDKit          3D

 92100  0  0  1  0  0  0  0  0999 V2000
  -32.1090  -20.9360   18.5850 N   0  0  0  0  0  4  0  0  0  0  0  0
  -31.1160  -21.0550   18.4530 H   0  0  0  0  0  0  0  0  0  0  0  0
  -32.3350  -21.5000   19.3860 H   0  0  0  0  0  0  0  0  0  0  0  0
  -32.8060  -21.7330   17.3160 C   0  0  0  0  0  2  0  0  0  0  0  0
  -32.3970  -23.2870   16.5600 C   0  0  0  0  0  3  0  0  0  0  0  0
  -32.7750  -23.9570   14.9600 C   0  0  0  0  0  3  0  0  0  0  0  0
  -32.4180  -25.3390   14.1750 O   0  0  0  0  0  0  0  0  0  0  0  0
  -30.5500  -27.2270    7.1410 C   0  0  0  0  0  0  0  0  0  0  0  0
  -32.7440  -25.6650   12.7710 C   0  0  0  0  0  0  0  0  0  0  0  0
  -32.6800  -26.0510    7.5140 C   0  0  0  0  0  3  0  0  0  0  0  0
  -33.5380  -25.9800    9.9470 C   0  0  0  0  0  0  0  0  0  0  0  0
  -31.7320  -27.5820    9.3580 C   0  0  0  0  0  2  0  0  0  0  0  0
  -32.4460  -26.7130   10.4280 C   0  0  0  0  0  0  0  0  0  0  0  0
  -32.0710  -26.5810   11.8340 C   0  0  0  0  0  3  0  0  0  0  0  0
  -33.8740  -25.0420   12.1990 C   0  0  0  0  0  3  0  0  0  0  0  0
  -34.2600  -25.1770   10.8430 C   0  0  0  0  0  3  0  0  0  0  0  0
  -33.9050  -26.0750    8.4690 C   0  0  0  0  0  2  0  0  0  0  0  0
  -31.5940  -26.9670    7.9910 N   0  0  0  0  0  0  0  0  0  0  0  0
  -30.4950  -26.7310    6.0050 O   0  0  0  0  0  0  0  0  0  0  0  0
  -32.2040  -24.5880    7.3230 C   0  0  0  0  0  0  0  0  0  0  0  0
  -32.7480  -23.8850    6.3120 N   0  0  0  0  0  0  0  0  0  0  0  0
  -31.3740  -24.0980    8.0940 O   0  0  0  0  0  0  0  0  0  0  0  0
  -33.4100  -24.3540    5.7110 H   0  0  0  0  0  0  0  0  0  0  0  0
  -32.8050  -21.3880    3.6820 C   0  0  0  0  0  0  0  0  0  0  0  0
  -32.4770  -22.4760    6.0070 C   0  0  0  0  0  3  0  0  0  0  0  0
  -33.6370  -21.5670    6.4770 C   0  0  0  0  0  2  0  0  0  0  0  0
  -34.6770  -21.3010    5.3840 C   0  0  0  0  0  2  0  0  0  0  0  0
  -34.0230  -20.6240    4.1760 C   0  0  0  0  0  2  0  0  0  0  0  0
  -32.0890  -22.2680    4.5380 C   0  0  0  0  0  0  0  0  0  0  0  0
  -30.9820  -22.9750    4.0180 C   0  0  0  0  0  3  0  0  0  0  0  0
  -30.5900  -22.8150    2.6760 C   0  0  0  0  0  3  0  0  0  0  0  0
  -31.2950  -21.9330    1.8380 C   0  0  0  0  0  3  0  0  0  0  0  0
  -32.3970  -21.2190    2.3430 C   0  0  0  0  0  3  0  0  0  0  0  0
  -29.3810  -28.1750    7.5490 C   0  0  0  0  0  3  0  0  0  0  0  0
  -29.1630  -29.1240    6.4430 N   0  0  0  0  0  0  0  0  0  0  0  0
  -29.7660  -30.3140    6.3250 C   0  0  0  0  0  0  0  0  0  0  0  0
  -30.5330  -30.7610    7.1810 O   0  0  0  0  0  0  0  0  0  0  0  0
  -28.5940  -28.7980    5.6760 H   0  0  0  0  0  0  0  0  0  0  0  0
  -30.6310  -30.9970    4.0580 C   0  0  0  0  0  1  0  0  0  0  0  0
  -29.4710  -31.1430    5.0560 C   0  0  0  0  0  3  0  0  0  0  0  0
  -27.8500  -32.8830    5.6750 C   0  0  0  0  0  1  0  0  0  0  0  0
  -29.2360  -32.5780    5.3310 N   0  0  0  0  0  0  0  0  0  0  0  0
  -29.4950  -33.1450    4.5280 H   0  0  0  0  0  0  0  0  0  0  0  0
  -28.0420  -27.4040    7.8740 C   0  0  1  0  0  0  0  0  0  0  0  0
  -27.4560  -26.6320    6.6670 C   0  0  0  0  0  1  0  0  0  0  0  0
  -28.2540  -26.3870    9.0190 C   0  0  0  0  0  1  0  0  0  0  0  0
  -26.9680  -28.4030    8.3670 C   0  0  0  0  0  1  0  0  0  0  0  0
  -32.2750  -19.3630   19.0920 C   0  0  0  0  0  3  0  0  0  0  0  0
  -31.0700  -18.5060   18.6270 C   0  0  0  0  0  2  0  0  0  0  0  0
  -29.8230  -15.2110   21.1700 C   0  0  0  0  0  3  0  0  0  0  0  0
  -29.8080  -15.0610   19.7680 C   0  0  0  0  0  3  0  0  0  0  0  0
  -30.2450  -16.4250   21.7400 C   0  0  0  0  0  3  0  0  0  0  0  0
  -30.2190  -16.1220   18.9390 C   0  0  0  0  0  3  0  0  0  0  0  0
  -30.6530  -17.4880   20.9120 C   0  0  0  0  0  3  0  0  0  0  0  0
  -30.6530  -17.3390   19.5080 C   0  0  0  0  0  0  0  0  0  0  0  0
  -33.6500  -18.2840   18.8060 C   0  0  0  0  0  2  0  0  0  0  0  0
  -33.9010  -16.5990   18.4500 C   0  0  0  0  0  0  0  0  0  0  0  0
  -35.1170  -15.1170   16.7270 C   0  0  0  0  0  2  0  0  0  0  0  0
  -35.9550  -15.9600   15.7340 C   0  0  0  0  0  2  0  0  0  0  0  0
  -35.0930  -16.4280   14.5470 C   0  0  0  0  0  2  0  0  0  0  0  0
  -33.7170  -16.9750   15.0060 C   0  0  0  0  0  3  0  0  0  0  0  0
  -33.0340  -16.0740   16.0520 C   0  0  0  0  0  2  0  0  0  0  0  0
  -33.9570  -15.9540   17.1900 N   0  0  0  0  0  0  0  0  0  0  0  0
  -34.4360  -15.9270   19.3430 O   0  0  0  0  0  0  0  0  0  0  0  0
  -31.9330  -18.3300   13.7860 C   0  0  0  0  0  0  0  0  0  0  0  0
  -31.4340  -18.2720   12.5150 C   0  0  0  0  0  0  0  0  0  0  0  0
  -32.0750  -17.1580   11.8880 C   0  0  0  0  0  0  0  0  0  0  0  0
  -32.8410  -17.2920   13.8850 N   0  0  0  0  0  0  0  0  0  0  0  0
  -32.8720  -16.5390   12.7530 N   0  0  0  0  0  0  0  0  0  0  0  0
  -32.0200  -16.6870   10.4980 C   0  0  0  0  0  0  0  0  0  0  0  0
  -31.2810  -15.5400   10.1340 C   0  0  0  0  0  3  0  0  0  0  0  0
  -31.2260  -15.1200    8.7880 C   0  0  0  0  0  3  0  0  0  0  0  0
  -31.9090  -15.8530    7.7870 C   0  0  0  0  0  0  0  0  0  0  0  0
  -32.6600  -16.9810    8.1570 C   0  0  0  0  0  3  0  0  0  0  0  0
  -32.7190  -17.3950    9.4990 C   0  0  0  0  0  3  0  0  0  0  0  0
  -31.9330  -15.5060    6.4580 O   0  0  0  0  0  0  0  0  0  0  0  0
  -30.7780  -15.3660    5.7310 C   0  0  0  0  0  0  0  0  0  0  0  0
  -29.8860  -16.4430    5.5330 C   0  0  0  0  0  3  0  0  0  0  0  0
  -28.7470  -16.2750    4.7210 C   0  0  0  0  0  3  0  0  0  0  0  0
  -28.5010  -15.0360    4.0990 C   0  0  0  0  0  0  0  0  0  0  0  0
  -29.3910  -13.9640    4.2900 C   0  0  0  0  0  3  0  0  0  0  0  0
  -30.5270  -14.1300    5.1010 C   0  0  0  0  0  0  0  0  0  0  0  0
  -31.3930  -13.1010    5.2650 F   0  0  0  0  0  0  0  0  0  0  0  0
  -27.4120  -14.8760    3.3130 F   0  0  0  0  0  0  0  0  0  0  0  0
  -30.4950  -19.2580   11.8850 C   0  0  0  0  0  0  0  0  0  0  0  0
  -29.4760  -18.7720   11.1850 N   0  0  0  0  0  0  0  0  0  0  0  0
  -30.6330  -20.4690   12.0530 O   0  0  0  0  0  0  0  0  0  0  0  0
  -29.3530  -17.7780   11.0650 H   0  0  0  0  0  0  0  0  0  0  0  0
  -28.8110  -19.4020   10.7600 H   0  0  0  0  0  0  0  0  0  0  0  0
  -31.7190  -19.1950   14.8560 N   0  0  0  0  0  0  0  0  0  0  0  0
  -31.1040  -19.9980   14.7820 H   0  0  0  0  0  0  0  0  0  0  0  0
  -32.2340  -19.1660   15.7260 H   0  0  0  0  0  0  0  0  0  0  0  0
  1 48  1  0
  1  3  1  0
  2  1  1  0
  4  1  1  0
  5  4  1  0
  6  5  2  0
  7  6  1  0
  8 18  1  0
  9  7  1  0
 10 20  1  0
 10 18  1  0
 10 17  1  0
 11 13  2  0
 11 16  1  0
 12 13  1  0
 13 14  1  0
 14  9  2  0
 15  9  1  0
 16 15  2  0
 17 11  1  0
 18 12  1  0
 19  8  2  0
 20 22  2  0
 21 20  1  0
 23 21  1  0
 24 28  1  0
 24 29  1  0
 25 21  1  0
 25 26  1  0
 27 26  1  0
 28 27  1  0
 29 25  1  0
 30 29  2  0
 31 30  1  0
 32 33  1  0
 32 31  2  0
 33 24  2  0
 34  8  1  0
 34 44  1  0
 35 34  1  0
 36 35  1  0
 36 37  2  0
 38 35  1  0
 40 39  1  0
 40 42  1  0
 40 36  1  0
 42 41  1  0
 43 42  1  0
 44 47  1  1
 44 46  1  0
 45 44  1  0
 48 49  1  0
 49 55  1  0
 50 52  1  0
 51 50  2  0
 53 55  2  0
 53 51  1  0
 54 52  2  0
 55 54  1  0
 56 48  1  0
 57 56  1  0
 57 64  2  0
 58 63  1  0
 59 58  1  0
 60 61  1  0
 60 59  1  0
 61 68  1  0
 61 62  1  0
 62 63  1  0
 63 57  1  0
 65 68  1  0
 65 90  1  0
 66 65  2  0
 67 66  1  0
 67 69  2  0
 69 68  1  0
 70 67  1  0
 71 70  1  0
 72 71  2  0
 73 74  2  0
 73 72  1  0
 74 75  1  0
 75 70  2  0
 76 73  1  0
 77 76  1  0
 78 77  1  0
 79 78  2  0
 80 81  2  0
 80 79  1  0
 81 82  1  0
 82 83  1  0
 82 77  2  0
 84 80  1  0
 85 87  2  0
 85 66  1  0
 86 85  1  0
 88 86  1  0
 89 86  1  0
 90 92  1  0
 91 90  1  0
M  ISO  4   6 101   7 101  56 100  57 100
M  END
>  <TORSDO>  (63) 
F 23

>  <SCORE>  (63) 
-3.063

>  <name>  (63) 
62

>  <ligand_id>  (63) 
62

>  <original_smiles>  (63) 
[H]c1c([H])c([H])c(C([H])([H])C([H])(C([H])([H])C(=O)N2C([H])([H])C([H])([H])C([H])([H])C([H])(n3nc(-c4c([H])c([H])c(Oc5c([H])c([H])c(F)c([H])c5F)c([H])c4[H])c(C(=O)N([H])[H])c3N([H])[H])C2([H])[H])[N+]([H])([H])C([H])([H])C([H])([H])C([H])([H])Oc2c([H])c([H])c3c(c2[H])C([H])([H])N(C(=O)C([H])(N([H])C(=O)C([H])(N([H])C([H])([H])[H])C([H])([H])[H])C(C([H])([H])[H])(C([H])([H])[H])C([H])([H])[H])C([H])(C(=O)N([H])C2([H])c4c([H])c([H])c([H])c([H])c4C([H])([H])C([H])([H])C2([H])[H])C3([H])[H])c([H])c1[H]

>  <smiles>  (63) 
[H]c1c([H])c([H])c(C([H])([H])C([H])(C([H])([H])C(=O)N2C([H])([H])C([H])([H])C([H])([H])C([H])(n3nc(-c4c([H])c([H])c(Oc5c([H])c([H])c(F)c([H])c5F)c([H])c4[H])c(C(=O)N([H])[H])c3N([H])[H])C2([H])[H])[N+]([H])([H])C([H])([H])C([H])([H])C([H])([H])Oc2c([H])c([H])c3c(c2[H])C([H])([H])N(C(=O)C([H])(N([H])C(=O)C([H])(N([H])C([H])([H])[H])C([H])([H])[H])C(C([H])([H])[H])(C([H])([H])[H])C([H])([H])[H])C([H])(C(=O)N([H])C2([H])c4c([H])c([H])c([H])c([H])c4C([H])([H])C([H])([H])C2([H])[H])C3([H])[H])c([H])c1[H]

$$$$
63:0:0
     RDKit          3D

 99107  0  0  1  0  0  0  0  0999 V2000
  -31.6980  -22.0780   21.6690 C   0  0  0  0  0  3  0  0  0  0  0  0
  -28.1760  -20.4810   20.9270 C   0  0  0  0  0  2  0  0  0  0  0  0
  -28.5590  -19.0110   20.7620 C   0  0  0  0  0  2  0  0  0  0  0  0
  -29.2700  -21.2400   21.6810 C   0  0  0  0  0  2  0  0  0  0  0  0
  -29.9230  -18.8480   20.0620 C   0  0  0  0  0  3  0  0  0  0  0  0
  -30.6450  -21.1380   20.9740 C   0  0  0  0  0  3  0  0  0  0  0  0
  -31.0560  -19.6250   20.8120 C   0  0  0  0  0  3  0  0  0  0  0  0
  -30.1930  -17.3410   19.8810 C   0  0  0  0  0  1  0  0  0  0  0  0
  -32.4400  -19.4320   20.1020 C   0  0  0  0  0  2  0  0  0  0  0  0
  -34.6440  -19.1390   21.2160 C   0  0  0  0  0  1  0  0  0  0  0  0
  -33.3750  -18.4930   20.7910 N   0  0  2  0  0  4  0  0  0  0  0  0
  -32.9190  -18.1950   21.6420 H   0  0  0  0  0  0  0  0  0  0  0  0
  -33.6370  -17.2610   19.9890 C   0  0  0  0  0  2  0  0  0  0  0  0
  -32.7690  -16.0670   20.4330 C   0  0  0  0  0  2  0  0  0  0  0  0
  -33.3830  -14.6870   20.1270 C   0  0  0  0  0  0  0  0  0  0  0  0
  -33.1650  -12.2210   20.1660 C   0  0  0  0  0  2  0  0  0  0  0  0
  -32.3300  -11.7110   18.9770 C   0  0  0  0  0  2  0  0  0  0  0  0
  -30.8250  -11.7550   19.3020 C   0  0  0  0  0  2  0  0  0  0  0  0
  -30.3830  -13.1270   19.8770 C   0  0  0  0  0  3  0  0  0  0  0  0
  -31.3230  -13.5590   21.0200 C   0  0  0  0  0  2  0  0  0  0  0  0
  -32.7020  -13.5740   20.5020 N   0  0  0  0  0  0  0  0  0  0  0  0
  -34.4670  -14.6300   19.5350 O   0  0  0  0  0  0  0  0  0  0  0  0
  -28.1290  -14.1620   20.5690 C   0  0  0  0  0  0  0  0  0  0  0  0
  -26.9210  -13.5940   20.8810 C   0  0  0  0  0  0  0  0  0  0  0  0
  -27.1140  -12.1830   20.7890 C   0  0  0  0  0  0  0  0  0  0  0  0
  -28.9880  -13.1050   20.3120 N   0  0  0  0  0  0  0  0  0  0  0  0
  -28.3790  -11.9070   20.4990 N   0  0  0  0  0  0  0  0  0  0  0  0
  -26.1550  -11.0770   20.9030 C   0  0  0  0  0  0  0  0  0  0  0  0
  -26.2620  -10.1080   21.9260 C   0  0  0  0  0  3  0  0  0  0  0  0
  -25.3170   -9.0640   22.0240 C   0  0  0  0  0  3  0  0  0  0  0  0
  -24.2510   -8.9820   21.0980 C   0  0  0  0  0  0  0  0  0  0  0  0
  -24.1610   -9.9360   20.0690 C   0  0  0  0  0  3  0  0  0  0  0  0
  -25.1040  -10.9720   19.9690 C   0  0  0  0  0  3  0  0  0  0  0  0
  -23.3020   -7.9890   21.1010 O   0  0  0  0  0  0  0  0  0  0  0  0
  -22.8130   -7.4630   22.2700 C   0  0  0  0  0  0  0  0  0  0  0  0
  -22.1730   -8.2670   23.2380 C   0  0  0  0  0  3  0  0  0  0  0  0
  -21.6240   -7.6750   24.3930 C   0  0  0  0  0  3  0  0  0  0  0  0
  -21.7060   -6.2830   24.5780 C   0  0  0  0  0  0  0  0  0  0  0  0
  -22.3380   -5.4790   23.6130 C   0  0  0  0  0  3  0  0  0  0  0  0
  -22.8880   -6.0680   22.4600 C   0  0  0  0  0  0  0  0  0  0  0  0
  -23.4780   -5.2890   21.5220 F   0  0  0  0  0  0  0  0  0  0  0  0
  -21.1720   -5.7120   25.6830 F   0  0  0  0  0  0  0  0  0  0  0  0
  -25.6350  -14.3200   21.1530 C   0  0  0  0  0  0  0  0  0  0  0  0
  -24.7680  -13.7440   21.9790 N   0  0  0  0  0  0  0  0  0  0  0  0
  -25.4100  -15.4290   20.6690 O   0  0  0  0  0  0  0  0  0  0  0  0
  -24.9580  -12.8420   22.3890 H   0  0  0  0  0  0  0  0  0  0  0  0
  -23.9000  -14.2100   22.2010 H   0  0  0  0  0  0  0  0  0  0  0  0
  -28.5610  -15.4810   20.4660 N   0  0  0  0  0  0  0  0  0  0  0  0
  -27.9360  -16.2680   20.5970 H   0  0  0  0  0  0  0  0  0  0  0  0
  -29.4900  -15.7560   20.1750 H   0  0  0  0  0  0  0  0  0  0  0  0
  -31.3470  -23.5260   21.6110 N   0  0  0  0  0  4  0  0  0  0  0  0
  -30.5930  -23.7120   22.2540 H   0  0  0  0  0  0  0  0  0  0  0  0
  -32.1500  -24.0340   21.9460 H   0  0  0  0  0  0  0  0  0  0  0  0
  -31.0060  -24.0790   20.2760 C   0  0  0  0  0  2  0  0  0  0  0  0
  -31.1580  -25.6140   20.1970 C   0  0  0  0  0  2  0  0  0  0  0  0
  -30.1280  -26.3950   21.0270 C   0  0  0  0  0  2  0  0  0  0  0  0
  -30.1310  -27.7590   20.6130 O   0  0  0  0  0  0  0  0  0  0  0  0
  -25.6290  -31.7010   24.4310 C   0  0  0  0  0  0  0  0  0  0  0  0
  -28.9050  -28.3690   20.6740 C   0  0  0  0  0  0  0  0  0  0  0  0
  -24.6950  -30.6930   22.3710 C   0  0  0  0  0  3  0  0  0  0  0  0
  -26.3990  -29.6490   20.7840 C   0  0  0  0  0  0  0  0  0  0  0  0
  -27.1830  -31.2470   22.5390 C   0  0  0  0  0  2  0  0  0  0  0  0
  -27.4440  -30.0860   21.6060 C   0  0  0  0  0  0  0  0  0  0  0  0
  -28.7040  -29.4540   21.5510 C   0  0  0  0  0  3  0  0  0  0  0  0
  -27.8470  -27.9320   19.8500 C   0  0  0  0  0  3  0  0  0  0  0  0
  -26.5920  -28.5690   19.9030 C   0  0  0  0  0  3  0  0  0  0  0  0
  -25.0850  -30.3910   20.9000 C   0  0  0  0  0  2  0  0  0  0  0  0
  -25.8470  -31.2120   23.1770 N   0  0  0  0  0  0  0  0  0  0  0  0
  -24.4850  -31.7680   24.8990 O   0  0  0  0  0  0  0  0  0  0  0  0
  -24.0450  -29.4290   22.9750 C   0  0  0  0  0  0  0  0  0  0  0  0
  -22.7810  -29.1730   22.6030 N   0  0  0  0  0  0  0  0  0  0  0  0
  -24.6830  -28.6930   23.7320 O   0  0  0  0  0  0  0  0  0  0  0  0
  -22.3280  -29.8280   21.9810 H   0  0  0  0  0  0  0  0  0  0  0  0
  -19.5440  -27.6050   22.2640 C   0  0  0  0  0  0  0  0  0  0  0  0
  -21.9820  -28.0200   23.0150 C   0  0  0  0  0  3  0  0  0  0  0  0
  -22.3420  -26.7680   22.1830 C   0  0  0  0  0  2  0  0  0  0  0  0
  -21.4500  -26.5820   20.9520 C   0  0  0  0  0  2  0  0  0  0  0  0
  -19.9810  -26.4600   21.3650 C   0  0  0  0  0  2  0  0  0  0  0  0
  -20.4860  -28.3480   23.0240 C   0  0  0  0  0  0  0  0  0  0  0  0
  -20.0300  -29.4250   23.8160 C   0  0  0  0  0  3  0  0  0  0  0  0
  -18.6650  -29.7640   23.8540 C   0  0  0  0  0  3  0  0  0  0  0  0
  -17.7350  -29.0160   23.1110 C   0  0  0  0  0  3  0  0  0  0  0  0
  -18.1740  -27.9360   22.3230 C   0  0  0  0  0  3  0  0  0  0  0  0
  -26.7990  -32.2240   25.3200 C   0  0  0  0  0  3  0  0  0  0  0  0
  -27.0890  -31.3060   26.5710 C   0  0  1  0  0  0  0  0  0  0  0  0
  -25.8260  -30.9560   27.3910 C   0  0  0  0  0  1  0  0  0  0  0  0
  -27.7470  -29.9770   26.1290 C   0  0  0  0  0  1  0  0  0  0  0  0
  -28.1000  -32.0030   27.5130 C   0  0  0  0  0  1  0  0  0  0  0  0
  -26.4580  -33.5890   25.7420 N   0  0  0  0  0  0  0  0  0  0  0  0
  -26.9480  -34.7020   25.1810 C   0  0  0  0  0  0  0  0  0  0  0  0
  -27.8030  -34.6840   24.2920 O   0  0  0  0  0  0  0  0  0  0  0  0
  -25.7260  -33.6800   26.4340 H   0  0  0  0  0  0  0  0  0  0  0  0
  -25.3520  -36.5830   24.6980 C   0  0  0  0  0  1  0  0  0  0  0  0
  -26.4010  -36.0510   25.6860 C   0  0  0  0  0  3  0  0  0  0  0  0
  -28.3480  -36.7550   27.0070 C   0  0  0  0  0  1  0  0  0  0  0  0
  -27.4500  -37.0720   25.8990 N   0  0  0  0  0  0  0  0  0  0  0  0
  -27.0310  -37.9790   26.0840 H   0  0  0  0  0  0  0  0  0  0  0  0
  -33.4950  -21.6660   23.4880 C   0  0  0  0  0  1  0  0  0  0  0  0
  -31.9990  -21.6800   23.1370 C   0  0  0  0  0  2  0  0  0  0  0  0
  1 99  1  0
  2  4  1  0
  3  2  1  0
  5  8  1  0
  5  3  1  0
  5  7  1  0
  6  1  1  0
  6  4  1  0
  7  9  1  0
  7  6  1  0
  9 11  1  0
 11 10  1  0
 11 12  1  1
 13 14  1  0
 13 11  1  0
 15 14  1  0
 15 21  1  0
 16 21  1  0
 17 18  1  0
 17 16  1  0
 19 18  1  0
 19 26  1  0
 19 20  1  0
 21 20  1  0
 22 15  2  0
 23 24  2  0
 24 43  1  0
 25 24  1  0
 25 28  1  0
 26 27  1  0
 26 23  1  0
 27 25  2  0
 28 29  1  0
 29 30  2  0
 31 34  1  0
 31 30  1  0
 32 31  2  0
 33 32  1  0
 33 28  2  0
 34 35  1  0
 35 40  2  0
 35 36  1  0
 36 37  2  0
 37 38  1  0
 38 42  1  0
 39 38  2  0
 40 39  1  0
 41 40  1  0
 43 44  1  0
 44 47  1  0
 44 46  1  0
 45 43  2  0
 48 23  1  0
 48 49  1  0
 50 48  1  0
 51  1  1  0
 51 53  1  0
 51 52  1  0
 54 51  1  0
 55 54  1  0
 55 56  1  0
 57 59  1  0
 57 56  1  0
 58 69  2  0
 59 64  1  0
 60 70  1  0
 60 68  1  0
 61 67  1  0
 61 63  1  0
 62 68  1  0
 63 62  1  0
 64 63  2  0
 65 66  1  0
 65 59  2  0
 66 61  2  0
 67 60  1  0
 68 58  1  0
 70 72  2  0
 71 70  1  0
 73 71  1  0
 74 83  2  0
 74 79  1  0
 75 71  1  0
 75 79  1  0
 76 75  1  0
 77 78  1  0
 77 76  1  0
 78 74  1  0
 79 80  2  0
 80 81  1  0
 82 81  2  0
 83 82  1  0
 84 58  1  0
 84 89  1  0
 84 85  1  0
 85 86  1  1
 85 88  1  0
 87 85  1  0
 89 92  1  0
 90 94  1  0
 90 89  1  0
 91 90  2  0
 94 93  1  0
 94 96  1  0
 96 97  1  0
 96 95  1  0
 99 98  1  0
M  ISO  4  14 100  15 100  56 101  57 101
M  END
>  <TORSDO>  (64) 
F 26

>  <SCORE>  (64) 
-4.620

>  <name>  (64) 
63

>  <ligand_id>  (64) 
63

>  <original_smiles>  (64) 
[H]c1c([H])c([H])c2c(c1[H])C([H])([H])C([H])([H])C([H])([H])C2([H])N([H])C(=O)C1([H])N(C(=O)C([H])(N([H])C(=O)C([H])(N([H])C([H])([H])[H])C([H])([H])[H])C(C([H])([H])[H])(C([H])([H])[H])C([H])([H])[H])C([H])([H])c2c([H])c(OC([H])([H])C([H])([H])C([H])([H])[N+]([H])([H])C([H])(C([H])([H])C([H])([H])[H])C3([H])C([H])([H])C([H])([H])C([H])([H])C([H])(C([H])([H])[H])C3([H])C([H])([H])[N+]([H])(C([H])([H])[H])C([H])([H])C([H])([H])C(=O)N3C([H])([H])C([H])([H])C([H])([H])C([H])(n4nc(-c5c([H])c([H])c(Oc6c([H])c([H])c(F)c([H])c6F)c([H])c5[H])c(C(=O)N([H])[H])c4N([H])[H])C3([H])[H])c([H])c([H])c2C1([H])[H]

>  <smiles>  (64) 
[H]c1c([H])c([H])c2c(c1[H])C([H])([H])C([H])([H])C([H])([H])C2([H])N([H])C(=O)C1([H])N(C(=O)C([H])(N([H])C(=O)C([H])(N([H])C([H])([H])[H])C([H])([H])[H])C(C([H])([H])[H])(C([H])([H])[H])C([H])([H])[H])C([H])([H])c2c([H])c(OC([H])([H])C([H])([H])C([H])([H])[N+]([H])([H])C([H])(C([H])([H])C([H])([H])[H])C3([H])C([H])([H])C([H])([H])C([H])([H])C([H])(C([H])([H])[H])C3([H])C([H])([H])[N+]([H])(C([H])([H])[H])C([H])([H])C([H])([H])C(=O)N3C([H])([H])C([H])([H])C([H])([H])C([H])(n4nc(-c5c([H])c([H])c(Oc6c([H])c([H])c(F)c([H])c6F)c([H])c5[H])c(C(=O)N([H])[H])c4N([H])[H])C3([H])[H])c([H])c([H])c2C1([H])[H]

$$$$
64:0:0
     RDKit          3D

 93102  0  0  1  0  0  0  0  0999 V2000
  -29.9670  -21.3450   19.4990 N   0  0  0  0  0  4  0  0  0  0  0  0
  -29.0400  -20.9530   19.4910 H   0  0  0  0  0  0  0  0  0  0  0  0
  -30.2180  -21.4800   18.5320 H   0  0  0  0  0  0  0  0  0  0  0  0
  -29.6000  -16.1710   21.0700 C   0  0  0  0  0  3  0  0  0  0  0  0
  -29.1080  -17.3190   21.7120 C   0  0  0  0  0  3  0  0  0  0  0  0
  -30.8890  -17.5620   19.5800 C   0  0  0  0  0  3  0  0  0  0  0  0
  -30.5330  -16.2100   20.0000 C   0  0  0  0  0  0  0  0  0  0  0  0
  -29.5370  -18.5970   21.3340 C   0  0  0  0  0  0  0  0  0  0  0  0
  -30.3910  -18.7720   20.2240 C   0  0  0  0  0  0  0  0  0  0  0  0
  -29.2180  -19.7830   22.2300 C   0  0  0  0  0  2  0  0  0  0  0  0
  -30.4980  -20.5830   22.5650 C   0  0  0  0  0  2  0  0  0  0  0  0
  -31.5290  -20.6340   21.4070 C   0  0  0  0  0  2  0  0  0  0  0  0
  -30.9240  -20.2570   20.0260 C   0  0  0  0  0  3  0  0  0  0  0  0
  -31.1790  -14.9020   19.3940 C   0  0  0  0  0  0  0  0  0  0  0  0
  -30.7950  -12.7450   18.1740 C   0  0  0  0  0  2  0  0  0  0  0  0
  -29.6520  -12.9480   17.1470 C   0  0  0  0  0  2  0  0  0  0  0  0
  -28.2520  -12.8020   17.7900 C   0  0  0  0  0  2  0  0  0  0  0  0
  -28.1420  -13.5420   19.1510 C   0  0  0  0  0  3  0  0  0  0  0  0
  -29.3630  -13.1630   20.0160 C   0  0  0  0  0  2  0  0  0  0  0  0
  -30.5490  -13.6680   19.3110 N   0  0  0  0  0  0  0  0  0  0  0  0
  -32.2660  -15.0320   18.8150 O   0  0  0  0  0  0  0  0  0  0  0  0
  -25.9390  -14.1810   20.3070 C   0  0  0  0  0  0  0  0  0  0  0  0
  -24.8950  -13.4260   20.7700 C   0  0  0  0  0  0  0  0  0  0  0  0
  -25.2550  -12.0640   20.5260 C   0  0  0  0  0  0  0  0  0  0  0  0
  -26.8730  -13.2790   19.8210 N   0  0  0  0  0  0  0  0  0  0  0  0
  -26.4740  -11.9950   20.0030 N   0  0  0  0  0  0  0  0  0  0  0  0
  -24.4890  -10.8270   20.7090 C   0  0  0  0  0  0  0  0  0  0  0  0
  -24.9230   -9.8150   21.5920 C   0  0  0  0  0  3  0  0  0  0  0  0
  -24.1600   -8.6400   21.7640 C   0  0  0  0  0  3  0  0  0  0  0  0
  -22.9480   -8.4710   21.0540 C   0  0  0  0  0  0  0  0  0  0  0  0
  -22.5310   -9.4730   20.1600 C   0  0  0  0  0  3  0  0  0  0  0  0
  -23.2950  -10.6380   19.9850 C   0  0  0  0  0  3  0  0  0  0  0  0
  -22.1520   -7.3560   21.1410 O   0  0  0  0  0  0  0  0  0  0  0  0
  -21.9890   -6.6780   22.3220 C   0  0  0  0  0  0  0  0  0  0  0  0
  -21.4910   -7.3110   23.4820 C   0  0  0  0  0  3  0  0  0  0  0  0
  -21.2750   -6.5600   24.6550 C   0  0  0  0  0  3  0  0  0  0  0  0
  -21.5440   -5.1780   24.6680 C   0  0  0  0  0  0  0  0  0  0  0  0
  -22.0320   -4.5450   23.5110 C   0  0  0  0  0  3  0  0  0  0  0  0
  -22.2530   -5.2920   22.3410 C   0  0  0  0  0  0  0  0  0  0  0  0
  -22.7040   -4.6750   21.2240 F   0  0  0  0  0  0  0  0  0  0  0  0
  -21.3270   -4.4550   25.7910 F   0  0  0  0  0  0  0  0  0  0  0  0
  -23.5960  -13.9380   21.3220 C   0  0  0  0  0  0  0  0  0  0  0  0
  -22.9960  -13.2100   22.2580 N   0  0  0  0  0  0  0  0  0  0  0  0
  -23.1280  -15.0170   20.9600 O   0  0  0  0  0  0  0  0  0  0  0  0
  -23.3890  -12.3360   22.5730 H   0  0  0  0  0  0  0  0  0  0  0  0
  -22.1290  -13.5330   22.6640 H   0  0  0  0  0  0  0  0  0  0  0  0
  -26.1590  -15.5530   20.2450 N   0  0  0  0  0  0  0  0  0  0  0  0
  -25.4750  -16.2240   20.5760 H   0  0  0  0  0  0  0  0  0  0  0  0
  -27.0020  -15.9870   19.8900 H   0  0  0  0  0  0  0  0  0  0  0  0
  -29.9100  -22.7260   20.1750 C   0  0  0  0  0  3  0  0  0  0  0  0
  -29.3000  -24.0100   19.4270 C   0  0  0  0  0  3  0  0  0  0  0  0
  -28.8650  -25.2420   20.3630 C   0  0  0  0  0  2  0  0  0  0  0  0
  -28.8440  -26.6420   19.8760 O   0  0  0  0  0  0  0  0  0  0  0  0
  -24.5520  -31.5790   22.9950 C   0  0  0  0  0  0  0  0  0  0  0  0
  -27.6380  -27.3560   19.9020 C   0  0  0  0  0  0  0  0  0  0  0  0
  -23.5160  -30.1220   21.2910 C   0  0  0  0  0  3  0  0  0  0  0  0
  -25.1320  -28.7320   19.8760 C   0  0  0  0  0  0  0  0  0  0  0  0
  -26.0190  -30.6710   21.1770 C   0  0  0  0  0  2  0  0  0  0  0  0
  -26.2380  -29.3190   20.5060 C   0  0  0  0  0  0  0  0  0  0  0  0
  -27.4950  -28.6440   20.5040 C   0  0  0  0  0  3  0  0  0  0  0  0
  -26.5050  -26.8070   19.2660 C   0  0  0  0  0  3  0  0  0  0  0  0
  -25.2660  -27.4810   19.2480 C   0  0  0  0  0  3  0  0  0  0  0  0
  -23.8220  -29.4940   19.9050 C   0  0  0  0  0  2  0  0  0  0  0  0
  -24.7120  -30.8090   21.8800 N   0  0  0  0  0  0  0  0  0  0  0  0
  -23.4360  -31.7480   23.5090 O   0  0  0  0  0  0  0  0  0  0  0  0
  -22.9190  -29.0310   22.2130 C   0  0  0  0  0  0  0  0  0  0  0  0
  -21.6200  -28.7350   22.0350 N   0  0  0  0  0  0  0  0  0  0  0  0
  -23.6250  -28.4550   23.0430 O   0  0  0  0  0  0  0  0  0  0  0  0
  -21.1070  -29.2580   21.3410 H   0  0  0  0  0  0  0  0  0  0  0  0
  -18.3600  -27.2080   22.3820 C   0  0  0  0  0  0  0  0  0  0  0  0
  -20.8680  -27.7090   22.7590 C   0  0  0  0  0  3  0  0  0  0  0  0
  -21.1320  -26.3050   22.1690 C   0  0  0  0  0  2  0  0  0  0  0  0
  -20.1060  -25.8950   21.1060 C   0  0  0  0  0  2  0  0  0  0  0  0
  -18.6930  -25.8930   21.6950 C   0  0  0  0  0  2  0  0  0  0  0  0
  -19.3810  -28.0670   22.8670 C   0  0  0  0  0  0  0  0  0  0  0  0
  -19.0160  -29.2920   23.4670 C   0  0  0  0  0  3  0  0  0  0  0  0
  -17.6650  -29.6610   23.5870 C   0  0  0  0  0  3  0  0  0  0  0  0
  -16.6570  -28.8000   23.1170 C   0  0  0  0  0  3  0  0  0  0  0  0
  -17.0040  -27.5750   22.5200 C   0  0  0  0  0  3  0  0  0  0  0  0
  -25.7600  -32.3030   23.6680 C   0  0  0  0  0  3  0  0  0  0  0  0
  -26.2730  -31.5730   24.9700 C   0  0  1  0  0  0  0  0  0  0  0  0
  -25.1530  -31.2550   25.9880 C   0  0  0  0  0  1  0  0  0  0  0  0
  -26.9740  -30.2430   24.6110 C   0  0  0  0  0  1  0  0  0  0  0  0
  -27.3280  -32.4540   25.6820 C   0  0  0  0  0  1  0  0  0  0  0  0
  -25.3390  -33.6770   23.9770 N   0  0  0  0  0  0  0  0  0  0  0  0
  -25.6330  -34.7500   23.2310 C   0  0  0  0  0  0  0  0  0  0  0  0
  -26.3560  -34.6910   22.2310 O   0  0  0  0  0  0  0  0  0  0  0  0
  -24.6950  -33.7900   24.7460 H   0  0  0  0  0  0  0  0  0  0  0  0
  -23.8070  -36.4230   22.7860 C   0  0  0  0  0  1  0  0  0  0  0  0
  -25.0310  -36.1020   23.6590 C   0  0  0  0  0  3  0  0  0  0  0  0
  -27.0580  -37.1280   24.5910 C   0  0  0  0  0  1  0  0  0  0  0  0
  -25.9950  -37.2230   23.5940 N   0  0  0  0  0  0  0  0  0  0  0  0
  -25.5210  -38.1140   23.7190 H   0  0  0  0  0  0  0  0  0  0  0  0
  1 50  1  0
  2  1  1  0
  3  1  1  0
  4  5  1  0
  6  7  1  0
  6  9  2  0
  7  4  2  0
  8  5  2  0
  8 10  1  0
  9  8  1  0
 10 11  1  0
 12 11  1  0
 13  1  1  0
 13  9  1  0
 13 12  1  0
 14  7  1  0
 15 20  1  0
 16 17  1  0
 16 15  1  0
 18 17  1  0
 18 25  1  0
 18 19  1  0
 20 14  1  0
 20 19  1  0
 21 14  2  0
 22 23  2  0
 23 42  1  0
 24 27  1  0
 24 23  1  0
 25 26  1  0
 25 22  1  0
 26 24  2  0
 27 28  1  0
 28 29  2  0
 30 33  1  0
 30 29  1  0
 31 30  2  0
 32 31  1  0
 32 27  2  0
 33 34  1  0
 34 39  2  0
 34 35  1  0
 35 36  2  0
 36 37  1  0
 37 41  1  0
 38 37  2  0
 39 38  1  0
 40 39  1  0
 42 43  1  0
 43 45  1  0
 43 46  1  0
 44 42  2  0
 47 22  1  0
 47 48  1  0
 49 47  1  0
 51 50  2  0
 51 52  1  0
 53 55  1  0
 53 52  1  0
 54 65  2  0
 55 60  1  0
 56 64  1  0
 56 66  1  0
 57 63  1  0
 57 59  1  0
 58 64  1  0
 59 58  1  0
 60 59  2  0
 61 55  2  0
 62 61  1  0
 62 57  2  0
 63 56  1  0
 64 54  1  0
 66 68  2  0
 67 66  1  0
 69 67  1  0
 70 79  2  0
 70 75  1  0
 71 67  1  0
 71 75  1  0
 72 71  1  0
 73 74  1  0
 73 72  1  0
 74 70  1  0
 75 76  2  0
 76 77  1  0
 78 77  2  0
 79 78  1  0
 80 54  1  0
 80 85  1  0
 80 81  1  0
 81 84  1  1
 81 82  1  0
 83 81  1  0
 85 88  1  0
 86 90  1  0
 86 85  1  0
 87 86  2  0
 90 89  1  0
 92 90  1  0
 92 93  1  0
 92 91  1  0
M  ISO  4   7 100  14 100  52 101  53 101
M  END
>  <TORSDO>  (65) 
F 20

>  <SCORE>  (65) 
-8.555

>  <name>  (65) 
64

>  <ligand_id>  (65) 
64

>  <original_smiles>  (65) 
[H]c1c([H])c([H])c2c(c1[H])C([H])([H])C([H])([H])C([H])([H])C2([H])N([H])C(=O)C1([H])N(C(=O)C([H])(N([H])C(=O)C([H])(N([H])C([H])([H])[H])C([H])([H])[H])C(C([H])([H])[H])(C([H])([H])[H])C([H])([H])[H])C([H])([H])c2c([H])c(OC([H])([H])C([H])([H])C([H])([H])[N+]([H])([H])C3([H])c4c([H])c(C(=O)N5C([H])([H])C([H])([H])C([H])([H])C([H])(n6nc(-c7c([H])c([H])c(Oc8c([H])c([H])c(F)c([H])c8F)c([H])c7[H])c(C(=O)N([H])[H])c6N([H])[H])C5([H])[H])c([H])c([H])c4C([H])([H])C([H])([H])C3([H])[H])c([H])c([H])c2C1([H])[H]

>  <smiles>  (65) 
[H]c1c([H])c([H])c2c(c1[H])C([H])([H])C([H])([H])C([H])([H])C2([H])N([H])C(=O)C1([H])N(C(=O)C([H])(N([H])C(=O)C([H])(N([H])C([H])([H])[H])C([H])([H])[H])C(C([H])([H])[H])(C([H])([H])[H])C([H])([H])[H])C([H])([H])c2c([H])c(OC([H])([H])C([H])([H])C([H])([H])[N+]([H])([H])C3([H])c4c([H])c(C(=O)N5C([H])([H])C([H])([H])C([H])([H])C([H])(n6nc(-c7c([H])c([H])c(Oc8c([H])c([H])c(F)c([H])c8F)c([H])c7[H])c(C(=O)N([H])[H])c6N([H])[H])C5([H])[H])c([H])c([H])c4C([H])([H])C([H])([H])C3([H])[H])c([H])c([H])c2C1([H])[H]

$$$$
66:0:0
     RDKit          3D

 88 93  0  0  1  0  0  0  0  0999 V2000
  -30.2210  -16.2270   20.1310 C   0  0  0  0  0  0  0  0  0  0  0  0
  -30.4330  -13.5320   19.4850 C   0  0  0  0  0  2  0  0  0  0  0  0
  -29.6290  -12.8010   18.3580 C   0  0  0  0  0  2  0  0  0  0  0  0
  -28.2510  -12.3550   18.8510 C   0  0  0  0  0  2  0  0  0  0  0  0
  -27.6430  -13.4410   19.7570 C   0  0  0  0  0  3  0  0  0  0  0  0
  -28.6170  -14.0540   20.8090 C   0  0  0  0  0  2  0  0  0  0  0  0
  -29.6980  -14.7950   20.0690 N   0  0  0  0  0  0  0  0  0  0  0  0
  -31.4590  -15.9960   20.0590 O   0  0  0  0  0  0  0  0  0  0  0  0
  -29.7960  -20.3890   18.7610 C   0  0  0  0  0  2  0  0  0  0  0  0
  -30.4480  -18.8630   19.0940 C   0  0  0  0  0  2  0  0  0  0  0  0
  -28.7760  -19.3040   20.3270 C   0  0  0  0  0  1  0  0  0  0  0  0
  -29.0540  -21.2310   19.9290 C   0  0  0  0  0  2  0  0  0  0  0  0
  -29.6690  -17.7990   19.8820 N   0  0  0  0  0  0  0  0  0  0  0  0
  -25.3040  -13.9590   20.5600 C   0  0  0  0  0  0  0  0  0  0  0  0
  -24.2360  -13.1840   20.9120 C   0  0  0  0  0  0  0  0  0  0  0  0
  -24.6900  -11.8290   20.8520 C   0  0  0  0  0  0  0  0  0  0  0  0
  -26.3370  -13.0830   20.2960 N   0  0  0  0  0  0  0  0  0  0  0  0
  -25.9830  -11.7900   20.5340 N   0  0  0  0  0  0  0  0  0  0  0  0
  -23.9400  -10.5750   21.0200 C   0  0  0  0  0  0  0  0  0  0  0  0
  -24.3230   -9.6040   21.9710 C   0  0  0  0  0  3  0  0  0  0  0  0
  -23.5670   -8.4220   22.1330 C   0  0  0  0  0  3  0  0  0  0  0  0
  -22.4130   -8.2010   21.3430 C   0  0  0  0  0  0  0  0  0  0  0  0
  -22.0470   -9.1610   20.3840 C   0  0  0  0  0  3  0  0  0  0  0  0
  -22.8040  -10.3340   20.2200 C   0  0  0  0  0  3  0  0  0  0  0  0
  -21.6350   -7.0700   21.4130 O   0  0  0  0  0  0  0  0  0  0  0  0
  -21.5010   -6.3570   22.5770 C   0  0  0  0  0  0  0  0  0  0  0  0
  -20.9860   -6.9430   23.7540 C   0  0  0  0  0  3  0  0  0  0  0  0
  -20.8000   -6.1580   24.9090 C   0  0  0  0  0  3  0  0  0  0  0  0
  -21.1180   -4.7860   24.8870 C   0  0  0  0  0  0  0  0  0  0  0  0
  -21.6250   -4.2000   23.7140 C   0  0  0  0  0  3  0  0  0  0  0  0
  -21.8120   -4.9830   22.5620 C   0  0  0  0  0  0  0  0  0  0  0  0
  -22.2800   -4.4060   21.4270 F   0  0  0  0  0  0  0  0  0  0  0  0
  -20.9320   -4.0300   25.9930 F   0  0  0  0  0  0  0  0  0  0  0  0
  -22.8470  -13.6780   21.1860 C   0  0  0  0  0  0  0  0  0  0  0  0
  -22.1090  -12.9890   22.0490 N   0  0  0  0  0  0  0  0  0  0  0  0
  -22.4260  -14.7140   20.6730 O   0  0  0  0  0  0  0  0  0  0  0  0
  -22.4640  -12.1530   22.4900 H   0  0  0  0  0  0  0  0  0  0  0  0
  -21.1770  -13.3040   22.2740 H   0  0  0  0  0  0  0  0  0  0  0  0
  -25.4800  -15.3310   20.4030 N   0  0  0  0  0  0  0  0  0  0  0  0
  -24.7210  -15.9920   20.5290 H   0  0  0  0  0  0  0  0  0  0  0  0
  -26.3360  -15.7650   20.0830 H   0  0  0  0  0  0  0  0  0  0  0  0
  -30.0960  -21.6340   20.9940 C   0  0  0  0  0  0  0  0  0  0  0  0
  -30.6520  -22.4490   23.2320 C   0  0  0  0  0  1  0  0  0  0  0  0
  -28.2770  -22.1400   22.6400 C   0  0  0  0  0  1  0  0  0  0  0  0
  -29.6780  -22.0340   22.2190 N   0  0  0  0  0  0  0  0  0  0  0  0
  -31.2980  -21.5950   20.7110 O   0  0  0  0  0  0  0  0  0  0  0  0
  -28.1170  -23.1630   19.6750 C   0  0  0  0  0 15  0  0  0  0  0  0
  -28.1630  -25.0990   19.7360 O   0  0  0  0  0  1  0  0  0  0  0  0
  -24.6340  -31.6540   22.9120 C   0  0  0  0  0  0  0  0  0  0  0  0
  -27.2020  -26.4420   19.7560 C   0  0  0  0  0  0  0  0  0  0  0  0
  -23.4670  -30.2860   21.2420 C   0  0  0  0  0  3  0  0  0  0  0  0
  -24.9300  -28.6440   19.7820 C   0  0  0  0  0  0  0  0  0  0  0  0
  -26.0570  -30.3790   21.1390 C   0  0  0  0  0  2  0  0  0  0  0  0
  -26.1340  -28.9350   20.4340 C   0  0  0  0  0  0  0  0  0  0  0  0
  -27.2360  -27.8750   20.3790 C   0  0  0  0  0  3  0  0  0  0  0  0
  -25.9530  -26.4460   19.0550 C   0  0  0  0  0  3  0  0  0  0  0  0
  -24.8970  -27.4300   19.0680 C   0  0  0  0  0  3  0  0  0  0  0  0
  -23.7230  -29.6140   19.8570 C   0  0  0  0  0  2  0  0  0  0  0  0
  -24.7480  -30.8120   21.8170 N   0  0  0  0  0  0  0  0  0  0  0  0
  -23.5340  -31.9330   23.4250 O   0  0  0  0  0  0  0  0  0  0  0  0
  -22.7430  -29.2930   22.1950 C   0  0  0  0  0  0  0  0  0  0  0  0
  -21.4040  -29.1670   22.1030 N   0  0  0  0  0  0  0  0  0  0  0  0
  -23.4060  -28.6300   22.9960 O   0  0  0  0  0  0  0  0  0  0  0  0
  -20.9150  -29.7520   21.4410 H   0  0  0  0  0  0  0  0  0  0  0  0
  -18.0080  -28.0090   22.7340 C   0  0  0  0  0  0  0  0  0  0  0  0
  -20.5880  -28.2010   22.8550 C   0  0  0  0  0  3  0  0  0  0  0  0
  -20.6120  -26.8110   22.1770 C   0  0  0  0  0  2  0  0  0  0  0  0
  -19.4450  -26.5910   21.2090 C   0  0  0  0  0  2  0  0  0  0  0  0
  -18.1080  -26.7150   21.9440 C   0  0  0  0  0  2  0  0  0  0  0  0
  -19.1700  -28.7150   23.1480 C   0  0  0  0  0  0  0  0  0  0  0  0
  -19.0160  -29.9250   23.8590 C   0  0  0  0  0  3  0  0  0  0  0  0
  -17.7360  -30.4310   24.1520 C   0  0  0  0  0  3  0  0  0  0  0  0
  -16.5910  -29.7230   23.7490 C   0  0  0  0  0  3  0  0  0  0  0  0
  -16.7270  -28.5130   23.0460 C   0  0  0  0  0  3  0  0  0  0  0  0
  -25.8780  -32.3190   23.5780 C   0  0  0  0  0  3  0  0  0  0  0  0
  -25.5070  -33.6840   24.0140 N   0  0  0  0  0  0  0  0  0  0  0  0
  -25.7760  -34.8160   23.3470 C   0  0  0  0  0  0  0  0  0  0  0  0
  -26.4100  -34.8220   22.2900 O   0  0  0  0  0  0  0  0  0  0  0  0
  -24.9330  -33.7470   24.8430 H   0  0  0  0  0  0  0  0  0  0  0  0
  -23.9640  -36.5690   23.2420 C   0  0  0  0  0  1  0  0  0  0  0  0
  -25.2680  -36.1490   23.9410 C   0  0  0  0  0  3  0  0  0  0  0  0
  -27.4090  -37.0760   24.7150 C   0  0  0  0  0  1  0  0  0  0  0  0
  -26.2490  -37.2540   23.8450 N   0  0  0  0  0  0  0  0  0  0  0  0
  -25.8150  -38.1430   24.0740 H   0  0  0  0  0  0  0  0  0  0  0  0
  -26.4210  -31.5040   24.8190 C   0  0  1  0  0  0  0  0  0  0  0  0
  -25.3420  -31.1920   25.8840 C   0  0  0  0  0  1  0  0  0  0  0  0
  -27.0360  -30.1590   24.3780 C   0  0  0  0  0  1  0  0  0  0  0  0
  -27.5570  -32.2960   25.5110 C   0  0  0  0  0  1  0  0  0  0  0  0
  2  7  1  0
  3  4  1  0
  3  2  1  0
  5  4  1  0
  5 17  1  0
  5  6  1  0
  7  1  1  0
  7  6  1  0
  8  1  2  0
  9 10  1  0
  9 12  1  0
 10 13  1  0
 12 42  1  0
 13  1  1  0
 13 11  1  0
 14 15  2  0
 15 34  1  0
 16 15  1  0
 16 19  1  0
 17 18  1  0
 17 14  1  0
 18 16  2  0
 19 20  1  0
 20 21  2  0
 22 25  1  0
 22 21  1  0
 23 22  2  0
 24 23  1  0
 24 19  2  0
 25 26  1  0
 26 27  1  0
 27 28  2  0
 29 28  1  0
 29 33  1  0
 30 29  2  0
 31 26  2  0
 31 30  1  0
 32 31  1  0
 34 35  1  0
 35 38  1  0
 35 37  1  0
 36 34  2  0
 39 40  1  0
 39 14  1  0
 41 39  1  0
 42 45  1  0
 45 44  1  0
 45 43  1  0
 46 42  2  0
 48 50  1  0
 49 60  2  0
 50 55  1  0
 51 59  1  0
 51 61  1  0
 52 58  1  0
 52 54  1  0
 53 59  1  0
 54 53  1  0
 55 54  2  0
 56 57  1  0
 56 50  2  0
 57 52  2  0
 58 51  1  0
 59 49  1  0
 61 63  2  0
 62 61  1  0
 64 62  1  0
 65 74  2  0
 65 70  1  0
 66 62  1  0
 66 70  1  0
 67 66  1  0
 68 69  1  0
 68 67  1  0
 69 65  1  0
 70 71  2  0
 71 72  1  0
 73 72  2  0
 74 73  1  0
 75 49  1  0
 75 76  1  0
 75 85  1  0
 76 79  1  0
 77 81  1  0
 77 76  1  0
 78 77  2  0
 81 80  1  0
 83 81  1  0
 83 84  1  0
 83 82  1  0
 85 88  1  1
 85 86  1  0
 87 85  1  0
M  ISO  4   1 100  13 100  47 101  48 101
M  END
>  <TORSDO>  (66) 
F 17

>  <SCORE>  (66) 
-15.216

>  <name>  (66) 
66

>  <ligand_id>  (66) 
66

>  <original_smiles>  (66) 
[H]c1c([H])c([H])c2c(c1[H])C([H])([H])C([H])([H])C([H])([H])C2([H])N([H])C(=O)C1([H])N(C(=O)C([H])(N([H])C(=O)C([H])(N([H])C([H])([H])[H])C([H])([H])[H])C(C([H])([H])[H])(C([H])([H])[H])C([H])([H])[H])C([H])([H])c2c([H])c(OC([H])([H])C3(C(=O)N(C([H])([H])[H])C([H])([H])[H])C([H])([H])N(C(=O)N4C([H])([H])C([H])([H])C([H])([H])C([H])(n5nc(-c6c([H])c([H])c(Oc7c([H])c([H])c(F)c([H])c7F)c([H])c6[H])c(C(=O)N([H])[H])c5N([H])[H])C4([H])[H])C([H])([H])C3([H])[H])c([H])c([H])c2C1([H])[H]

>  <smiles>  (66) 
[H]c1c([H])c([H])c2c(c1[H])C([H])([H])C([H])([H])C([H])([H])C2([H])N([H])C(=O)C1([H])N(C(=O)C([H])(N([H])C(=O)C([H])(N([H])C([H])([H])[H])C([H])([H])[H])C(C([H])([H])[H])(C([H])([H])[H])C([H])([H])[H])C([H])([H])c2c([H])c(OC([H])([H])C3(C(=O)N(C([H])([H])[H])C([H])([H])[H])C([H])([H])N(C(=O)N4C([H])([H])C([H])([H])C([H])([H])C([H])(n5nc(-c6c([H])c([H])c(Oc7c([H])c([H])c(F)c([H])c7F)c([H])c6[H])c(C(=O)N([H])[H])c5N([H])[H])C4([H])[H])C([H])([H])C3([H])[H])c([H])c([H])c2C1([H])[H]

$$$$
67:0:0
     RDKit          3D

 94102  0  0  1  0  0  0  0  0999 V2000
  -27.8860  -20.5770   17.5970 C   0  0  0  0  0  2  0  0  0  0  0  0
  -27.3190  -22.7310   18.4260 C   0  0  0  0  0  2  0  0  0  0  0  0
  -29.0230  -21.0500   18.5270 C   0  0  0  0  0  3  0  0  0  0  0  0
  -26.6780  -21.3980   18.0360 C   0  0  0  0  0  3  0  0  0  0  0  0
  -25.5740  -21.5200   16.9740 C   0  0  0  0  0  1  0  0  0  0  0  0
  -28.6700  -22.4180   18.9670 N   0  0  1  0  0  4  0  0  0  0  0  0
  -28.5900  -22.2570   19.9670 H   0  0  0  0  0  0  0  0  0  0  0  0
  -29.1510  -20.1750   19.7800 C   0  0  0  0  0  0  0  0  0  0  0  0
  -29.5670  -18.9210   19.5990 N   0  0  0  0  0  0  0  0  0  0  0  0
  -28.8740  -20.6370   20.8920 O   0  0  0  0  0  0  0  0  0  0  0  0
  -29.7680  -18.6340   18.6500 H   0  0  0  0  0  0  0  0  0  0  0  0
  -29.7430  -17.9260   20.6420 C   0  0  0  0  0  2  0  0  0  0  0  0
  -30.2630  -16.6460   19.9890 C   0  0  0  0  0  2  0  0  0  0  0  0
  -30.3780  -15.4430   20.9410 C   0  0  0  0  0  2  0  0  0  0  0  0
  -30.9450  -14.2410   20.1680 C   0  0  0  0  0  0  0  0  0  0  0  0
  -30.4680  -12.2350   18.8310 C   0  0  0  0  0  2  0  0  0  0  0  0
  -29.4870  -12.6210   17.7040 C   0  0  0  0  0  2  0  0  0  0  0  0
  -28.0240  -12.5310   18.1910 C   0  0  0  0  0  2  0  0  0  0  0  0
  -27.7980  -13.2540   19.5470 C   0  0  0  0  0  3  0  0  0  0  0  0
  -28.8860  -12.8390   20.5650 C   0  0  0  0  0  2  0  0  0  0  0  0
  -30.2000  -13.1230   19.9700 N   0  0  0  0  0  0  0  0  0  0  0  0
  -32.0420  -14.4030   19.6270 O   0  0  0  0  0  0  0  0  0  0  0  0
  -25.4270  -13.9150   20.3090 C   0  0  0  0  0  0  0  0  0  0  0  0
  -24.3560  -13.1650   20.7140 C   0  0  0  0  0  0  0  0  0  0  0  0
  -24.7900  -11.8050   20.6800 C   0  0  0  0  0  0  0  0  0  0  0  0
  -26.4520  -13.0130   20.0610 N   0  0  0  0  0  0  0  0  0  0  0  0
  -26.0710  -11.7390   20.3380 N   0  0  0  0  0  0  0  0  0  0  0  0
  -24.0480  -10.5580   20.9010 C   0  0  0  0  0  0  0  0  0  0  0  0
  -24.4530   -9.6190   21.8760 C   0  0  0  0  0  3  0  0  0  0  0  0
  -23.7110   -8.4360   22.0820 C   0  0  0  0  0  3  0  0  0  0  0  0
  -22.5500   -8.1830   21.3150 C   0  0  0  0  0  0  0  0  0  0  0  0
  -22.1640   -9.1100   20.3290 C   0  0  0  0  0  3  0  0  0  0  0  0
  -22.9060  -10.2830   20.1200 C   0  0  0  0  0  3  0  0  0  0  0  0
  -21.7810   -7.0500   21.4300 O   0  0  0  0  0  0  0  0  0  0  0  0
  -21.6520   -6.3860   22.6240 C   0  0  0  0  0  0  0  0  0  0  0  0
  -21.1410   -7.0190   23.7770 C   0  0  0  0  0  3  0  0  0  0  0  0
  -20.9600   -6.2800   24.9640 C   0  0  0  0  0  3  0  0  0  0  0  0
  -21.2780   -4.9100   24.9970 C   0  0  0  0  0  0  0  0  0  0  0  0
  -21.7810   -4.2760   23.8470 C   0  0  0  0  0  3  0  0  0  0  0  0
  -21.9650   -5.0120   22.6630 C   0  0  0  0  0  0  0  0  0  0  0  0
  -22.4290   -4.3920   21.5510 F   0  0  0  0  0  0  0  0  0  0  0  0
  -21.0970   -4.1980   26.1320 F   0  0  0  0  0  0  0  0  0  0  0  0
  -22.9750  -13.6690   21.0220 C   0  0  0  0  0  0  0  0  0  0  0  0
  -22.2630  -12.9970   21.9220 N   0  0  0  0  0  0  0  0  0  0  0  0
  -22.5360  -14.6950   20.5020 O   0  0  0  0  0  0  0  0  0  0  0  0
  -22.6290  -12.1670   22.3640 H   0  0  0  0  0  0  0  0  0  0  0  0
  -21.3390  -13.3190   22.1720 H   0  0  0  0  0  0  0  0  0  0  0  0
  -25.6100  -15.2800   20.1110 N   0  0  0  0  0  0  0  0  0  0  0  0
  -24.8570  -15.9470   20.2380 H   0  0  0  0  0  0  0  0  0  0  0  0
  -26.4630  -15.7030   19.7680 H   0  0  0  0  0  0  0  0  0  0  0  0
  -29.7310  -23.4430   18.7280 C   0  0  0  0  0  2  0  0  0  0  0  0
  -29.6730  -24.6680   19.6720 C   0  0  0  0  0  2  0  0  0  0  0  0
  -28.3600  -25.4430   19.5720 C   0  0  0  0  0  2  0  0  0  0  0  0
  -28.3900  -26.7180   20.1960 O   0  0  0  0  0  0  0  0  0  0  0  0
  -24.5850  -31.8730   23.2660 C   0  0  0  0  0  0  0  0  0  0  0  0
  -27.2020  -27.4230   20.1880 C   0  0  0  0  0  0  0  0  0  0  0  0
  -23.3720  -30.4850   21.6190 C   0  0  0  0  0  3  0  0  0  0  0  0
  -24.8140  -28.9430   20.2020 C   0  0  0  0  0  0  0  0  0  0  0  0
  -25.9020  -30.8210   21.4350 C   0  0  0  0  0  2  0  0  0  0  0  0
  -25.9740  -29.4500   20.7980 C   0  0  0  0  0  0  0  0  0  0  0  0
  -27.1670  -28.6960   20.7960 C   0  0  0  0  0  3  0  0  0  0  0  0
  -26.0130  -26.9270   19.5910 C   0  0  0  0  0  3  0  0  0  0  0  0
  -24.8250  -27.6750   19.6020 C   0  0  0  0  0  3  0  0  0  0  0  0
  -23.5810  -29.8120   20.2390 C   0  0  0  0  0  2  0  0  0  0  0  0
  -24.6390  -31.0740   22.1650 N   0  0  0  0  0  0  0  0  0  0  0  0
  -23.5040  -32.1570   23.8000 O   0  0  0  0  0  0  0  0  0  0  0  0
  -22.7080  -29.4660   22.5730 C   0  0  0  0  0  0  0  0  0  0  0  0
  -21.3890  -29.2750   22.4180 N   0  0  0  0  0  0  0  0  0  0  0  0
  -23.3790  -28.8510   23.4060 O   0  0  0  0  0  0  0  0  0  0  0  0
  -20.9100  -29.8250   21.7180 H   0  0  0  0  0  0  0  0  0  0  0  0
  -18.0120  -28.0640   22.8420 C   0  0  0  0  0  0  0  0  0  0  0  0
  -20.5600  -28.3410   23.1790 C   0  0  0  0  0  3  0  0  0  0  0  0
  -20.6870  -26.9040   22.6270 C   0  0  0  0  0  2  0  0  0  0  0  0
  -19.6150  -26.5590   21.5880 C   0  0  0  0  0  2  0  0  0  0  0  0
  -18.2160  -26.7060   22.1920 C   0  0  0  0  0  2  0  0  0  0  0  0
  -19.1150  -28.8400   23.2920 C   0  0  0  0  0  0  0  0  0  0  0  0
  -18.8730  -30.1100   23.8560 C   0  0  0  0  0  3  0  0  0  0  0  0
  -17.5620  -30.6070   23.9780 C   0  0  0  0  0  3  0  0  0  0  0  0
  -16.4740  -29.8300   23.5460 C   0  0  0  0  0  3  0  0  0  0  0  0
  -16.6990  -28.5610   22.9850 C   0  0  0  0  0  3  0  0  0  0  0  0
  -25.8750  -32.4890   23.8910 C   0  0  0  0  0  3  0  0  0  0  0  0
  -25.5830  -33.8920   24.2120 N   0  0  0  0  0  0  0  0  0  0  0  0
  -25.9280  -34.9350   23.4460 C   0  0  0  0  0  0  0  0  0  0  0  0
  -26.6000  -34.8170   22.4170 O   0  0  0  0  0  0  0  0  0  0  0  0
  -24.9890  -34.0590   25.0110 H   0  0  0  0  0  0  0  0  0  0  0  0
  -24.2240  -36.7440   23.0670 C   0  0  0  0  0  1  0  0  0  0  0  0
  -25.4540  -36.3310   23.8910 C   0  0  0  0  0  3  0  0  0  0  0  0
  -27.5880  -37.1980   24.7390 C   0  0  0  0  0  1  0  0  0  0  0  0
  -26.4990  -37.3700   23.7810 N   0  0  0  0  0  0  0  0  0  0  0  0
  -26.1030  -38.2960   23.9170 H   0  0  0  0  0  0  0  0  0  0  0  0
  -26.3780  -31.7140   25.1710 C   0  0  1  0  0  0  0  0  0  0  0  0
  -25.2770  -31.4900   26.2320 C   0  0  0  0  0  1  0  0  0  0  0  0
  -26.9500  -30.3310   24.7810 C   0  0  0  0  0  1  0  0  0  0  0  0
  -27.5320  -32.4980   25.8390 C   0  0  0  0  0  1  0  0  0  0  0  0
  1  4  1  0
  1  3  1  0
  2  6  1  0
  3  6  1  0
  3  8  1  0
  4  5  1  0
  4  2  1  0
  6  7  1  1
  8 10  2  0
  9  8  1  0
  9 12  1  0
 11  9  1  0
 13 12  1  0
 13 14  1  0
 15 14  1  0
 16 21  1  0
 17 18  1  0
 17 16  1  0
 19 18  1  0
 19 26  1  0
 19 20  1  0
 21 15  1  0
 21 20  1  0
 22 15  2  0
 23 24  2  0
 24 43  1  0
 25 24  1  0
 25 28  1  0
 26 23  1  0
 26 27  1  0
 27 25  2  0
 28 29  1  0
 29 30  2  0
 31 34  1  0
 31 30  1  0
 32 31  2  0
 33 32  1  0
 33 28  2  0
 34 35  1  0
 35 40  2  0
 35 36  1  0
 36 37  2  0
 37 38  1  0
 38 42  1  0
 39 38  2  0
 40 39  1  0
 41 40  1  0
 43 44  1  0
 44 47  1  0
 44 46  1  0
 45 43  2  0
 48 49  1  0
 48 23  1  0
 50 48  1  0
 51  6  1  0
 51 52  1  0
 53 52  1  0
 53 54  1  0
 55 66  2  0
 56 54  1  0
 56 61  1  0
 57 65  1  0
 57 67  1  0
 58 64  1  0
 58 60  1  0
 59 65  1  0
 60 59  1  0
 61 60  2  0
 62 63  1  0
 62 56  2  0
 63 58  2  0
 64 57  1  0
 65 55  1  0
 67 69  2  0
 68 67  1  0
 70 68  1  0
 71 80  2  0
 71 76  1  0
 72 68  1  0
 72 76  1  0
 73 72  1  0
 74 75  1  0
 74 73  1  0
 75 71  1  0
 76 77  2  0
 77 78  1  0
 79 78  2  0
 80 79  1  0
 81 55  1  0
 81 82  1  0
 81 91  1  0
 82 85  1  0
 83 87  1  0
 83 82  1  0
 84 83  2  0
 87 86  1  0
 89 87  1  0
 89 90  1  0
 89 88  1  0
 91 94  1  1
 91 92  1  0
 93 91  1  0
M  ISO  4  14 100  15 100  53 101  54 101
M  END
>  <TORSDO>  (67) 
F 23

>  <SCORE>  (67) 
-12.471

>  <name>  (67) 
67

>  <ligand_id>  (67) 
67

>  <original_smiles>  (67) 
[H]c1c([H])c([H])c2c(c1[H])C([H])([H])C([H])([H])C([H])([H])C2([H])N([H])C(=O)C1([H])N(C(=O)C([H])(N([H])C(=O)C([H])(N([H])C([H])([H])[H])C([H])([H])[H])C(C([H])([H])[H])(C([H])([H])[H])C([H])([H])[H])C([H])([H])c2c([H])c(OC([H])([H])C([H])([H])C([H])([H])[N+]3([H])C([H])([H])C([H])(C([H])([H])[H])C([H])([H])C3([H])C(=O)N([H])C([H])([H])C([H])([H])C([H])([H])C(=O)N3C([H])([H])C([H])([H])C([H])([H])C([H])(n4nc(-c5c([H])c([H])c(Oc6c([H])c([H])c(F)c([H])c6F)c([H])c5[H])c(C(=O)N([H])[H])c4N([H])[H])C3([H])[H])c([H])c([H])c2C1([H])[H]

>  <smiles>  (67) 
[H]c1c([H])c([H])c2c(c1[H])C([H])([H])C([H])([H])C([H])([H])C2([H])N([H])C(=O)C1([H])N(C(=O)C([H])(N([H])C(=O)C([H])(N([H])C([H])([H])[H])C([H])([H])[H])C(C([H])([H])[H])(C([H])([H])[H])C([H])([H])[H])C([H])([H])c2c([H])c(OC([H])([H])C([H])([H])C([H])([H])[N+]3([H])C([H])([H])C([H])(C([H])([H])[H])C([H])([H])C3([H])C(=O)N([H])C([H])([H])C([H])([H])C([H])([H])C(=O)N3C([H])([H])C([H])([H])C([H])([H])C([H])(n4nc(-c5c([H])c([H])c(Oc6c([H])c([H])c(F)c([H])c6F)c([H])c5[H])c(C(=O)N([H])[H])c4N([H])[H])C3([H])[H])c([H])c([H])c2C1([H])[H]

$$$$
68:0:0
     RDKit          3D

 94103  0  0  1  0  0  0  0  0999 V2000
  -26.9660  -20.6030   19.3910 N   0  0  0  0  0  4  0  0  0  0  0  0
  -27.1130  -20.4940   20.3810 H   0  0  0  0  0  0  0  0  0  0  0  0
  -26.0250  -20.3000   19.2000 H   0  0  0  0  0  0  0  0  0  0  0  0
  -30.4690  -19.1970   18.3890 C   0  0  0  0  0  2  0  0  0  0  0  0
  -27.5940  -18.2350   18.9850 C   0  0  0  0  0  2  0  0  0  0  0  0
  -30.4260  -17.6900   18.2430 C   0  0  0  0  0  3  0  0  0  0  0  0
  -29.2540  -19.5490   19.2380 C   0  0  0  0  0  3  0  0  0  0  0  0
  -27.8520  -19.6990   18.6310 C   0  0  0  0  0  3  0  0  0  0  0  0
  -29.7340  -17.2350   19.5470 C   0  0  0  0  0  3  0  0  0  0  0  0
  -31.7550  -17.0290   17.8490 C   0  0  0  0  0  1  0  0  0  0  0  0
  -28.7710  -18.2990   19.8510 N   0  0  0  0  0  0  0  0  0  0  0  0
  -30.6220  -17.0710   20.8100 C   0  0  0  0  0  2  0  0  0  0  0  0
  -30.3770  -15.7180   21.5140 C   0  0  0  0  0  2  0  0  0  0  0  0
  -30.9430  -14.5410   20.7030 C   0  0  0  0  0  0  0  0  0  0  0  0
  -30.6160  -12.4290   19.4800 C   0  0  0  0  0  2  0  0  0  0  0  0
  -29.7190  -12.6650   18.2520 C   0  0  0  0  0  2  0  0  0  0  0  0
  -28.2300  -12.5430   18.6300 C   0  0  0  0  0  2  0  0  0  0  0  0
  -27.8630  -13.3760   19.8890 C   0  0  0  0  0  3  0  0  0  0  0  0
  -28.8790  -13.1230   21.0260 C   0  0  0  0  0  2  0  0  0  0  0  0
  -30.2270  -13.4030   20.5090 N   0  0  0  0  0  0  0  0  0  0  0  0
  -32.0520  -14.7060   20.1880 O   0  0  0  0  0  0  0  0  0  0  0  0
  -25.4360  -13.9980   20.4860 C   0  0  0  0  0  0  0  0  0  0  0  0
  -24.3520  -13.2330   20.8240 C   0  0  0  0  0  0  0  0  0  0  0  0
  -24.8120  -11.8810   20.8360 C   0  0  0  0  0  0  0  0  0  0  0  0
  -26.4900  -13.1120   20.3170 N   0  0  0  0  0  0  0  0  0  0  0  0
  -26.1140  -11.8350   20.5810 N   0  0  0  0  0  0  0  0  0  0  0  0
  -24.0780  -10.6220   21.0210 C   0  0  0  0  0  0  0  0  0  0  0  0
  -24.4900   -9.6610   21.9710 C   0  0  0  0  0  3  0  0  0  0  0  0
  -23.7570   -8.4660   22.1440 C   0  0  0  0  0  3  0  0  0  0  0  0
  -22.5980   -8.2250   21.3680 C   0  0  0  0  0  0  0  0  0  0  0  0
  -22.2040   -9.1770   20.4110 C   0  0  0  0  0  3  0  0  0  0  0  0
  -22.9370  -10.3620   20.2360 C   0  0  0  0  0  3  0  0  0  0  0  0
  -21.8390   -7.0830   21.4490 O   0  0  0  0  0  0  0  0  0  0  0  0
  -21.7780   -6.3390   22.6010 C   0  0  0  0  0  0  0  0  0  0  0  0
  -21.3670   -6.9000   23.8290 C   0  0  0  0  0  3  0  0  0  0  0  0
  -21.2510   -6.0850   24.9720 C   0  0  0  0  0  3  0  0  0  0  0  0
  -21.5360   -4.7100   24.8890 C   0  0  0  0  0  0  0  0  0  0  0  0
  -21.9410   -4.1470   23.6660 C   0  0  0  0  0  3  0  0  0  0  0  0
  -22.0590   -4.9600   22.5240 C   0  0  0  0  0  0  0  0  0  0  0  0
  -22.4280   -4.4090   21.3430 F   0  0  0  0  0  0  0  0  0  0  0  0
  -21.4180   -3.9240   25.9850 F   0  0  0  0  0  0  0  0  0  0  0  0
  -22.9460  -13.7160   21.0350 C   0  0  0  0  0  0  0  0  0  0  0  0
  -22.1890  -13.0380   21.8910 N   0  0  0  0  0  0  0  0  0  0  0  0
  -22.5270  -14.7290   20.4760 O   0  0  0  0  0  0  0  0  0  0  0  0
  -22.5400  -12.2200   22.3640 H   0  0  0  0  0  0  0  0  0  0  0  0
  -21.2430  -13.3440   22.0760 H   0  0  0  0  0  0  0  0  0  0  0  0
  -25.6100  -15.3660   20.2920 N   0  0  0  0  0  0  0  0  0  0  0  0
  -24.8440  -16.0240   20.3830 H   0  0  0  0  0  0  0  0  0  0  0  0
  -26.4890  -15.8040   20.0550 H   0  0  0  0  0  0  0  0  0  0  0  0
  -27.0230  -22.0200   18.9900 C   0  0  0  0  0  2  0  0  0  0  0  0
  -27.9530  -22.8900   19.8670 C   0  0  0  0  0  2  0  0  0  0  0  0
  -27.7220  -24.3750   19.5470 C   0  0  0  0  0  3  0  0  0  0  0  0
  -28.3370  -25.4030   20.5200 C   0  0  0  0  0  3  0  0  0  0  0  0
  -28.3390  -26.7630   20.0530 O   0  0  0  0  0  0  0  0  0  0  0  0
  -24.5840  -31.9330   23.2420 C   0  0  0  0  0  0  0  0  0  0  0  0
  -27.1600  -27.4780   20.1130 C   0  0  0  0  0  0  0  0  0  0  0  0
  -23.3510  -30.5390   21.6180 C   0  0  0  0  0  3  0  0  0  0  0  0
  -24.7750  -29.0010   20.1770 C   0  0  0  0  0  0  0  0  0  0  0  0
  -25.8780  -30.8770   21.3960 C   0  0  0  0  0  2  0  0  0  0  0  0
  -25.9450  -29.5050   20.7590 C   0  0  0  0  0  0  0  0  0  0  0  0
  -27.1380  -28.7460   20.7360 C   0  0  0  0  0  3  0  0  0  0  0  0
  -25.9810  -27.0210   19.4810 C   0  0  0  0  0  3  0  0  0  0  0  0
  -24.7870  -27.7540   19.5400 C   0  0  0  0  0  3  0  0  0  0  0  0
  -23.5360  -29.8620   20.2360 C   0  0  0  0  0  2  0  0  0  0  0  0
  -24.6240  -31.1310   22.1410 N   0  0  0  0  0  0  0  0  0  0  0  0
  -23.5110  -32.2120   23.7930 O   0  0  0  0  0  0  0  0  0  0  0  0
  -22.7080  -29.5170   22.5810 C   0  0  0  0  0  0  0  0  0  0  0  0
  -21.3810  -29.3380   22.4640 N   0  0  0  0  0  0  0  0  0  0  0  0
  -23.3970  -28.8880   23.3890 O   0  0  0  0  0  0  0  0  0  0  0  0
  -20.8890  -29.8980   21.7810 H   0  0  0  0  0  0  0  0  0  0  0  0
  -18.0090  -28.1490   22.9750 C   0  0  0  0  0  0  0  0  0  0  0  0
  -20.5660  -28.4050   23.2400 C   0  0  0  0  0  3  0  0  0  0  0  0
  -20.6670  -26.9710   22.6700 C   0  0  0  0  0  2  0  0  0  0  0  0
  -19.5610  -26.6440   21.6610 C   0  0  0  0  0  2  0  0  0  0  0  0
  -18.1810  -26.7950   22.3070 C   0  0  0  0  0  2  0  0  0  0  0  0
  -19.1290  -28.9130   23.3970 C   0  0  0  0  0  0  0  0  0  0  0  0
  -18.9150  -30.1820   23.9790 C   0  0  0  0  0  3  0  0  0  0  0  0
  -17.6110  -30.6870   24.1420 C   0  0  0  0  0  3  0  0  0  0  0  0
  -16.5050  -29.9190   23.7400 C   0  0  0  0  0  3  0  0  0  0  0  0
  -16.7030  -28.6530   23.1620 C   0  0  0  0  0  3  0  0  0  0  0  0
  -25.8820  -32.5560   23.8450 C   0  0  0  0  0  3  0  0  0  0  0  0
  -25.5830  -33.9530   24.1820 N   0  0  0  0  0  0  0  0  0  0  0  0
  -25.9100  -35.0050   23.4210 C   0  0  0  0  0  0  0  0  0  0  0  0
  -26.5680  -34.9020   22.3810 O   0  0  0  0  0  0  0  0  0  0  0  0
  -25.0000  -34.1080   24.9920 H   0  0  0  0  0  0  0  0  0  0  0  0
  -24.1820  -36.8040   23.0860 C   0  0  0  0  0  1  0  0  0  0  0  0
  -25.4300  -36.3940   23.8860 C   0  0  0  0  0  3  0  0  0  0  0  0
  -27.5780  -37.2630   24.6930 C   0  0  0  0  0  1  0  0  0  0  0  0
  -26.4630  -37.4450   23.7700 N   0  0  0  0  0  0  0  0  0  0  0  0
  -26.0600  -38.3640   23.9380 H   0  0  0  0  0  0  0  0  0  0  0  0
  -26.4160  -31.7770   25.1090 C   0  0  1  0  0  0  0  0  0  0  0  0
  -25.3410  -31.5350   26.1930 C   0  0  0  0  0  1  0  0  0  0  0  0
  -26.9900  -30.4000   24.7000 C   0  0  0  0  0  1  0  0  0  0  0  0
  -27.5800  -32.5650   25.7560 C   0  0  0  0  0  1  0  0  0  0  0  0
  1  2  1  0
  3  1  1  0
  6 10  1  0
  6  4  1  0
  6  9  1  0
  7  4  1  0
  7 11  1  0
  8  5  1  0
  8  7  1  0
  8  1  1  0
  9 11  1  0
  9 12  1  0
 11  5  1  0
 12 13  1  0
 14 13  1  0
 15 20  1  0
 16 17  1  0
 16 15  1  0
 18 17  1  0
 18 25  1  0
 18 19  1  0
 20 14  1  0
 20 19  1  0
 21 14  2  0
 22 23  2  0
 23 24  1  0
 23 42  1  0
 24 27  1  0
 25 22  1  0
 25 26  1  0
 26 24  2  0
 27 28  1  0
 28 29  2  0
 30 33  1  0
 30 29  1  0
 31 30  2  0
 32 31  1  0
 32 27  2  0
 33 34  1  0
 34 35  1  0
 35 36  2  0
 37 36  1  0
 37 41  1  0
 38 37  2  0
 39 34  2  0
 39 38  1  0
 40 39  1  0
 42 43  1  0
 43 46  1  0
 43 45  1  0
 44 42  2  0
 47 48  1  0
 47 22  1  0
 49 47  1  0
 50  1  1  0
 50 51  1  0
 52 51  1  0
 52 53  2  0
 54 56  1  0
 54 53  1  0
 55 66  2  0
 56 61  1  0
 57 65  1  0
 57 67  1  0
 58 64  1  0
 58 60  1  0
 59 65  1  0
 60 59  1  0
 61 60  2  0
 62 63  1  0
 62 56  2  0
 63 58  2  0
 64 57  1  0
 65 55  1  0
 67 69  2  0
 68 67  1  0
 70 68  1  0
 71 80  2  0
 71 76  1  0
 72 68  1  0
 72 76  1  0
 73 72  1  0
 74 75  1  0
 74 73  1  0
 75 71  1  0
 76 77  2  0
 77 78  1  0
 79 78  2  0
 80 79  1  0
 81 55  1  0
 81 82  1  0
 81 91  1  0
 82 85  1  0
 83 87  1  0
 83 82  1  0
 84 83  2  0
 87 86  1  0
 89 87  1  0
 89 90  1  0
 89 88  1  0
 91 94  1  1
 91 92  1  0
 93 91  1  0
M  ISO  4  13 100  14 100  53 101  54 101
M  END
>  <TORSDO>  (68) 
F 23

>  <SCORE>  (68) 
-13.013

>  <name>  (68) 
68

>  <ligand_id>  (68) 
68

>  <original_smiles>  (68) 
[H]c1c([H])c([H])c2c(c1[H])C([H])([H])C([H])([H])C([H])([H])C2([H])N([H])C(=O)C1([H])N(C(=O)C([H])(N([H])C(=O)C([H])(N([H])C([H])([H])[H])C([H])([H])[H])C(C([H])([H])[H])(C([H])([H])[H])C([H])([H])[H])C([H])([H])c2c([H])c(OC([H])([H])C([H])([H])C([H])([H])C([H])([H])[N+]([H])([H])C3([H])C([H])([H])N4C([H])(C([H])([H])C([H])([H])C(=O)N5C([H])([H])C([H])([H])C([H])([H])C([H])(n6nc(-c7c([H])c([H])c(Oc8c([H])c([H])c(F)c([H])c8F)c([H])c7[H])c(C(=O)N([H])[H])c6N([H])[H])C5([H])[H])C([H])(C([H])([H])[H])C([H])([H])C43[H])c([H])c([H])c2C1([H])[H]

>  <smiles>  (68) 
[H]c1c([H])c([H])c2c(c1[H])C([H])([H])C([H])([H])C([H])([H])C2([H])N([H])C(=O)C1([H])N(C(=O)C([H])(N([H])C(=O)C([H])(N([H])C([H])([H])[H])C([H])([H])[H])C(C([H])([H])[H])(C([H])([H])[H])C([H])([H])[H])C([H])([H])c2c([H])c(OC([H])([H])C([H])([H])C([H])([H])C([H])([H])[N+]([H])([H])C3([H])C([H])([H])N4C([H])(C([H])([H])C([H])([H])C(=O)N5C([H])([H])C([H])([H])C([H])([H])C([H])(n6nc(-c7c([H])c([H])c(Oc8c([H])c([H])c(F)c([H])c8F)c([H])c7[H])c(C(=O)N([H])[H])c6N([H])[H])C5([H])[H])C([H])(C([H])([H])[H])C([H])([H])C43[H])c([H])c([H])c2C1([H])[H]

$$$$
69:0:0
     RDKit          3D

 97106  0  0  1  0  0  0  0  0999 V2000
  -29.2790  -22.4340   18.9450 C   0  0  0  0  0  2  0  0  0  0  0  0
  -28.6850  -19.0030   17.1920 C   0  0  0  0  0  2  0  0  0  0  0  0
  -28.5490  -20.5060   17.4830 C   0  0  0  0  0  2  0  0  0  0  0  0
  -28.3100  -18.1890   18.4350 C   0  0  0  0  0  2  0  0  0  0  0  0
  -29.0920  -20.0500   19.9290 C   0  0  0  0  0  2  0  0  0  0  0  0
  -29.4250  -20.9190   18.6890 C   0  0  0  0  0  3  0  0  0  0  0  0
  -29.1120  -18.6320   19.5760 N   0  0  0  0  0  0  0  0  0  0  0  0
  -30.5000  -16.8610   22.5720 C   0  0  0  0  0  3  0  0  0  0  0  0
  -30.9730  -15.6740   21.9780 C   0  0  0  0  0  3  0  0  0  0  0  0
  -29.8900  -17.8590   21.7840 C   0  0  0  0  0  3  0  0  0  0  0  0
  -30.2280  -16.4910   19.8070 C   0  0  0  0  0  3  0  0  0  0  0  0
  -30.8380  -15.4890   20.5870 C   0  0  0  0  0  0  0  0  0  0  0  0
  -29.7370  -17.6730   20.3910 C   0  0  0  0  0  0  0  0  0  0  0  0
  -31.3820  -14.2900   19.8750 C   0  0  0  0  0  0  0  0  0  0  0  0
  -30.7730  -12.2800   18.6090 C   0  0  0  0  0  2  0  0  0  0  0  0
  -29.7730  -12.6790   17.5060 C   0  0  0  0  0  2  0  0  0  0  0  0
  -28.3280  -12.6470   18.0450 C   0  0  0  0  0  2  0  0  0  0  0  0
  -28.1730  -13.4100   19.3870 C   0  0  0  0  0  3  0  0  0  0  0  0
  -29.2790  -13.0070   20.3840 C   0  0  0  0  0  2  0  0  0  0  0  0
  -30.5850  -13.2020   19.7370 N   0  0  0  0  0  0  0  0  0  0  0  0
  -32.4530  -14.4300   19.2770 O   0  0  0  0  0  0  0  0  0  0  0  0
  -25.8900  -14.1610   20.3150 C   0  0  0  0  0  0  0  0  0  0  0  0
  -24.7940  -13.4530   20.7310 C   0  0  0  0  0  0  0  0  0  0  0  0
  -25.1420  -12.0740   20.5990 C   0  0  0  0  0  0  0  0  0  0  0  0
  -26.8410  -13.2160   19.9590 N   0  0  0  0  0  0  0  0  0  0  0  0
  -26.3950  -11.9530   20.1840 N   0  0  0  0  0  0  0  0  0  0  0  0
  -24.3340  -10.8630   20.7910 C   0  0  0  0  0  0  0  0  0  0  0  0
  -24.7450   -9.8310   21.6640 C   0  0  0  0  0  3  0  0  0  0  0  0
  -23.9420   -8.6840   21.8450 C   0  0  0  0  0  3  0  0  0  0  0  0
  -22.7140   -8.5610   21.1550 C   0  0  0  0  0  0  0  0  0  0  0  0
  -22.3190   -9.5810   20.2700 C   0  0  0  0  0  3  0  0  0  0  0  0
  -23.1220  -10.7190   20.0870 C   0  0  0  0  0  3  0  0  0  0  0  0
  -21.8820   -7.4700   21.2480 O   0  0  0  0  0  0  0  0  0  0  0  0
  -21.8160   -6.7110   22.3880 C   0  0  0  0  0  0  0  0  0  0  0  0
  -21.5060   -7.2760   23.6450 C   0  0  0  0  0  3  0  0  0  0  0  0
  -21.3800   -6.4480   24.7780 C   0  0  0  0  0  3  0  0  0  0  0  0
  -21.5550   -5.0560   24.6560 C   0  0  0  0  0  0  0  0  0  0  0  0
  -21.8580   -4.4910   23.4050 C   0  0  0  0  0  3  0  0  0  0  0  0
  -21.9860   -5.3160   22.2750 C   0  0  0  0  0  0  0  0  0  0  0  0
  -22.2570   -4.7630   21.0680 F   0  0  0  0  0  0  0  0  0  0  0  0
  -21.4270   -4.2590   25.7430 F   0  0  0  0  0  0  0  0  0  0  0  0
  -23.4660  -14.0200   21.1430 C   0  0  0  0  0  0  0  0  0  0  0  0
  -22.7700  -13.3510   22.0550 N   0  0  0  0  0  0  0  0  0  0  0  0
  -23.0590  -15.0890   20.6890 O   0  0  0  0  0  0  0  0  0  0  0  0
  -23.1120  -12.4830   22.4420 H   0  0  0  0  0  0  0  0  0  0  0  0
  -21.8820  -13.7110   22.3730 H   0  0  0  0  0  0  0  0  0  0  0  0
  -26.1520  -15.5220   20.1930 N   0  0  0  0  0  0  0  0  0  0  0  0
  -25.4590  -16.2280   20.4120 H   0  0  0  0  0  0  0  0  0  0  0  0
  -27.0340  -15.9120   19.8850 H   0  0  0  0  0  0  0  0  0  0  0  0
  -31.5910  -22.6290   20.0700 C   0  0  0  0  0  1  0  0  0  0  0  0
  -30.1060  -23.0300   20.1080 C   0  0  0  0  0  3  0  0  0  0  0  0
  -29.9830  -24.5050   20.0740 N   0  0  0  0  0  4  0  0  0  0  0  0
  -30.8180  -24.9090   19.6780 H   0  0  0  0  0  0  0  0  0  0  0  0
  -29.2260  -24.7380   19.4480 H   0  0  0  0  0  0  0  0  0  0  0  0
  -29.6480  -25.1620   21.3570 C   0  0  0  0  0  2  0  0  0  0  0  0
  -29.2560  -26.6290   21.1260 C   0  0  0  0  0  2  0  0  0  0  0  0
  -28.3360  -26.6280   20.0370 O   0  0  0  0  0  0  0  0  0  0  0  0
  -24.5980  -31.8520   23.1950 C   0  0  0  0  0  0  0  0  0  0  0  0
  -27.2090  -27.4080   20.1200 C   0  0  0  0  0  0  0  0  0  0  0  0
  -23.3700  -30.4450   21.5700 C   0  0  0  0  0  3  0  0  0  0  0  0
  -24.8100  -28.8950   20.1460 C   0  0  0  0  0  0  0  0  0  0  0  0
  -25.8910  -30.8050   21.3420 C   0  0  0  0  0  2  0  0  0  0  0  0
  -25.9700  -29.4270   20.7210 C   0  0  0  0  0  0  0  0  0  0  0  0
  -27.1750  -28.6910   20.7130 C   0  0  0  0  0  3  0  0  0  0  0  0
  -26.0360  -26.8890   19.5360 C   0  0  0  0  0  3  0  0  0  0  0  0
  -24.8350  -27.6210   19.5530 C   0  0  0  0  0  3  0  0  0  0  0  0
  -23.5660  -29.7530   20.1940 C   0  0  0  0  0  2  0  0  0  0  0  0
  -24.6370  -31.0490   22.0950 N   0  0  0  0  0  0  0  0  0  0  0  0
  -23.5240  -32.1310   23.7440 O   0  0  0  0  0  0  0  0  0  0  0  0
  -22.7250  -29.4310   22.5420 C   0  0  0  0  0  0  0  0  0  0  0  0
  -21.3990  -29.2560   22.4280 N   0  0  0  0  0  0  0  0  0  0  0  0
  -23.4140  -28.8040   23.3510 O   0  0  0  0  0  0  0  0  0  0  0  0
  -20.9070  -29.8150   21.7440 H   0  0  0  0  0  0  0  0  0  0  0  0
  -18.0210  -28.0900   22.9590 C   0  0  0  0  0  0  0  0  0  0  0  0
  -20.5830  -28.3270   23.2090 C   0  0  0  0  0  3  0  0  0  0  0  0
  -20.6700  -26.8940   22.6370 C   0  0  0  0  0  2  0  0  0  0  0  0
  -19.5570  -26.5760   21.6330 C   0  0  0  0  0  2  0  0  0  0  0  0
  -18.1820  -26.7360   22.2880 C   0  0  0  0  0  2  0  0  0  0  0  0
  -19.1500  -28.8440   23.3760 C   0  0  0  0  0  0  0  0  0  0  0  0
  -18.9470  -30.1130   23.9620 C   0  0  0  0  0  3  0  0  0  0  0  0
  -17.6480  -30.6270   24.1350 C   0  0  0  0  0  3  0  0  0  0  0  0
  -16.5340  -29.8700   23.7340 C   0  0  0  0  0  3  0  0  0  0  0  0
  -16.7210  -28.6030   23.1540 C   0  0  0  0  0  3  0  0  0  0  0  0
  -25.8930  -32.4770   23.8000 C   0  0  0  0  0  3  0  0  0  0  0  0
  -25.5860  -33.8680   24.1610 N   0  0  0  0  0  0  0  0  0  0  0  0
  -25.8970  -34.9330   23.4090 C   0  0  0  0  0  0  0  0  0  0  0  0
  -26.5450  -34.8490   22.3620 O   0  0  0  0  0  0  0  0  0  0  0  0
  -25.0090  -34.0080   24.9770 H   0  0  0  0  0  0  0  0  0  0  0  0
  -24.1480  -36.7160   23.1180 C   0  0  0  0  0  1  0  0  0  0  0  0
  -25.4090  -36.3110   23.8970 C   0  0  0  0  0  3  0  0  0  0  0  0
  -27.5590  -37.1910   24.6900 C   0  0  0  0  0  1  0  0  0  0  0  0
  -26.4310  -37.3730   23.7800 N   0  0  0  0  0  0  0  0  0  0  0  0
  -26.0220  -38.2860   23.9640 H   0  0  0  0  0  0  0  0  0  0  0  0
  -26.4450  -31.6830   25.0460 C   0  0  1  0  0  0  0  0  0  0  0  0
  -25.3780  -31.4170   26.1330 C   0  0  0  0  0  1  0  0  0  0  0  0
  -27.0250  -30.3180   24.6090 C   0  0  0  0  0  1  0  0  0  0  0  0
  -27.6080  -32.4700   25.6970 C   0  0  0  0  0  1  0  0  0  0  0  0
  1 51  1  0
  2  3  1  0
  2  4  1  0
  3  6  1  0
  4  7  1  0
  6  1  1  0
  6  5  1  0
  7  5  1  0
  7 13  1  0
  9  8  1  0
 10  8  2  0
 11 13  2  0
 11 12  1  0
 12  9  2  0
 13 10  1  0
 14 12  1  0
 15 20  1  0
 16 17  1  0
 16 15  1  0
 18 17  1  0
 18 25  1  0
 18 19  1  0
 20 14  1  0
 20 19  1  0
 21 14  2  0
 22 23  2  0
 23 42  1  0
 24 23  1  0
 24 27  1  0
 25 26  1  0
 25 22  1  0
 26 24  2  0
 27 28  1  0
 28 29  2  0
 30 33  1  0
 30 29  1  0
 31 30  2  0
 32 31  1  0
 32 27  2  0
 33 34  1  0
 34 35  1  0
 35 36  2  0
 37 36  1  0
 37 41  1  0
 38 37  2  0
 39 34  2  0
 39 38  1  0
 40 39  1  0
 42 43  1  0
 43 46  1  0
 43 45  1  0
 44 42  2  0
 47 22  1  0
 47 48  1  0
 49 47  1  0
 51 50  1  0
 52 51  1  0
 52 55  1  0
 53 52  1  0
 54 52  1  0
 56 55  1  0
 57 59  1  0
 57 56  1  0
 58 69  2  0
 59 64  1  0
 60 68  1  0
 60 70  1  0
 61 67  1  0
 61 63  1  0
 62 68  1  0
 63 62  1  0
 64 63  2  0
 65 66  1  0
 65 59  2  0
 66 61  2  0
 67 60  1  0
 68 58  1  0
 70 72  2  0
 71 70  1  0
 73 71  1  0
 74 83  2  0
 74 79  1  0
 75 71  1  0
 75 79  1  0
 76 75  1  0
 77 78  1  0
 77 76  1  0
 78 74  1  0
 79 80  2  0
 80 81  1  0
 82 81  2  0
 83 82  1  0
 84 58  1  0
 84 85  1  0
 84 94  1  0
 85 88  1  0
 86 90  1  0
 86 85  1  0
 87 86  2  0
 90 89  1  0
 92 90  1  0
 92 93  1  0
 92 91  1  0
 94 97  1  1
 94 95  1  0
 96 94  1  0
M  ISO  4  12 100  14 100  56 101  57 101
M  END
>  <TORSDO>  (69) 
F 22

>  <SCORE>  (69) 
-12.514

>  <name>  (69) 
69

>  <ligand_id>  (69) 
69

>  <original_smiles>  (69) 
[H]c1c([H])c(C(=O)N2C([H])([H])C([H])([H])C([H])([H])C([H])(n3nc(-c4c([H])c([H])c(Oc5c([H])c([H])c(F)c([H])c5F)c([H])c4[H])c(C(=O)N([H])[H])c3N([H])[H])C2([H])[H])c([H])c(N2C([H])([H])C([H])([H])C([H])([H])C([H])(C([H])([H])C([H])(C([H])([H])[H])[N+]([H])([H])C([H])([H])C([H])([H])Oc3c([H])c([H])c4c(c3[H])C([H])([H])N(C(=O)C([H])(N([H])C(=O)C([H])(N([H])C([H])([H])[H])C([H])([H])[H])C(C([H])([H])[H])(C([H])([H])[H])C([H])([H])[H])C([H])(C(=O)N([H])C3([H])c5c([H])c([H])c([H])c([H])c5C([H])([H])C([H])([H])C3([H])[H])C4([H])[H])C2([H])[H])c1[H]

>  <smiles>  (69) 
[H]c1c([H])c(C(=O)N2C([H])([H])C([H])([H])C([H])([H])C([H])(n3nc(-c4c([H])c([H])c(Oc5c([H])c([H])c(F)c([H])c5F)c([H])c4[H])c(C(=O)N([H])[H])c3N([H])[H])C2([H])[H])c([H])c(N2C([H])([H])C([H])([H])C([H])([H])C([H])(C([H])([H])C([H])(C([H])([H])[H])[N+]([H])([H])C([H])([H])C([H])([H])Oc3c([H])c([H])c4c(c3[H])C([H])([H])N(C(=O)C([H])(N([H])C(=O)C([H])(N([H])C([H])([H])[H])C([H])([H])[H])C(C([H])([H])[H])(C([H])([H])[H])C([H])([H])[H])C([H])(C(=O)N([H])C3([H])c5c([H])c([H])c([H])c([H])c5C([H])([H])C([H])([H])C3([H])[H])C4([H])[H])C2([H])[H])c1[H]

$$$$
70:0:0
     RDKit          3D

 91 98  0  0  1  0  0  0  0  0999 V2000
  -28.6580  -21.8710   19.9920 C   0  0  0  0  0  3  0  0  0  0  0  0
  -28.5800  -21.7920   18.5230 N   0  0  0  0  0  4  0  0  0  0  0  0
  -28.1860  -20.9120   18.2470 H   0  0  0  0  0  0  0  0  0  0  0  0
  -29.4930  -21.8740   18.1120 H   0  0  0  0  0  0  0  0  0  0  0  0
  -27.9960  -22.5160   18.1510 H   0  0  0  0  0  0  0  0  0  0  0  0
  -28.9930  -23.4630   20.4120 C   0  0  0  0  0  3  0  0  0  0  0  0
  -28.0140  -24.7670   20.0350 C   0  0  0  0  0  3  0  0  0  0  0  0
  -28.2560  -26.2710   20.2980 O   0  0  0  0  0  0  0  0  0  0  0  0
  -24.5940  -31.8990   23.2620 C   0  0  0  0  0  0  0  0  0  0  0  0
  -27.1860  -27.2280   20.2170 C   0  0  0  0  0  0  0  0  0  0  0  0
  -23.3930  -30.5100   21.6170 C   0  0  0  0  0  3  0  0  0  0  0  0
  -24.8430  -28.9440   20.1870 C   0  0  0  0  0  0  0  0  0  0  0  0
  -25.9430  -30.7850   21.4500 C   0  0  0  0  0  2  0  0  0  0  0  0
  -26.0190  -29.3980   20.7970 C   0  0  0  0  0  0  0  0  0  0  0  0
  -27.1890  -28.5550   20.8000 C   0  0  0  0  0  3  0  0  0  0  0  0
  -25.9870  -26.8710   19.5620 C   0  0  0  0  0  3  0  0  0  0  0  0
  -24.8390  -27.6930   19.5520 C   0  0  0  0  0  3  0  0  0  0  0  0
  -23.6120  -29.8330   20.2370 C   0  0  0  0  0  2  0  0  0  0  0  0
  -24.6630  -31.0850   22.1650 N   0  0  0  0  0  0  0  0  0  0  0  0
  -23.5090  -32.1800   23.7930 O   0  0  0  0  0  0  0  0  0  0  0  0
  -22.7160  -29.5010   22.5760 C   0  0  0  0  0  0  0  0  0  0  0  0
  -21.3910  -29.3150   22.4330 N   0  0  0  0  0  0  0  0  0  0  0  0
  -23.3830  -28.8850   23.4100 O   0  0  0  0  0  0  0  0  0  0  0  0
  -20.9070  -29.8620   21.7350 H   0  0  0  0  0  0  0  0  0  0  0  0
  -18.0230  -28.0670   22.8870 C   0  0  0  0  0  0  0  0  0  0  0  0
  -20.5720  -28.3720   23.1990 C   0  0  0  0  0  3  0  0  0  0  0  0
  -20.7070  -26.9360   22.6440 C   0  0  0  0  0  2  0  0  0  0  0  0
  -19.6300  -26.5840   21.6120 C   0  0  0  0  0  2  0  0  0  0  0  0
  -18.2340  -26.7140   22.2280 C   0  0  0  0  0  2  0  0  0  0  0  0
  -19.1210  -28.8510   23.3290 C   0  0  0  0  0  0  0  0  0  0  0  0
  -18.8690  -30.1150   23.9070 C   0  0  0  0  0  3  0  0  0  0  0  0
  -17.5540  -30.5950   24.0450 C   0  0  0  0  0  3  0  0  0  0  0  0
  -16.4700  -29.8090   23.6180 C   0  0  0  0  0  3  0  0  0  0  0  0
  -16.7060  -28.5460   23.0460 C   0  0  0  0  0  3  0  0  0  0  0  0
  -25.8740  -32.5300   23.8920 C   0  0  0  0  0  3  0  0  0  0  0  0
  -25.5690  -33.9340   24.2080 N   0  0  0  0  0  0  0  0  0  0  0  0
  -25.9000  -34.9810   23.4380 C   0  0  0  0  0  0  0  0  0  0  0  0
  -26.5600  -34.8640   22.4030 O   0  0  0  0  0  0  0  0  0  0  0  0
  -24.9820  -34.0970   25.0130 H   0  0  0  0  0  0  0  0  0  0  0  0
  -24.1720  -36.7790   23.0930 C   0  0  0  0  0  1  0  0  0  0  0  0
  -25.4240  -36.3760   23.8900 C   0  0  0  0  0  3  0  0  0  0  0  0
  -27.5720  -37.2690   24.6780 C   0  0  0  0  0  1  0  0  0  0  0  0
  -26.4580  -37.4260   23.7470 N   0  0  0  0  0  0  0  0  0  0  0  0
  -26.0560  -38.3490   23.8840 H   0  0  0  0  0  0  0  0  0  0  0  0
  -26.3690  -31.7710   25.1830 C   0  0  1  0  0  0  0  0  0  0  0  0
  -25.2640  -31.5560   26.2430 C   0  0  0  0  0  1  0  0  0  0  0  0
  -26.9450  -30.3830   24.8170 C   0  0  0  0  0  1  0  0  0  0  0  0
  -27.5200  -32.5630   25.8480 C   0  0  0  0  0  1  0  0  0  0  0  0
  -29.5400  -20.5330   20.5040 C   0  0  0  0  0  3  0  0  0  0  0  0
  -29.5440  -20.5690   21.9170 O   0  0  0  0  0  0  0  0  0  0  0  0
  -30.0640  -19.8320   22.2210 H   0  0  0  0  0  0  0  0  0  0  0  0
  -29.1750  -18.9420   20.1060 C   0  0  0  0  0  2  0  0  0  0  0  0
  -29.7240  -16.2560   20.3120 C   0  0  0  0  0  3  0  0  0  0  0  0
  -30.1130  -17.6210   20.3690 C   0  0  0  0  0  0  0  0  0  0  0  0
  -31.5560  -18.0290   20.6230 C   0  0  0  0  0  1  0  0  0  0  0  0
  -30.5620  -14.9510   20.3080 C   0  0  0  0  0  0  0  0  0  0  0  0
  -30.4010  -12.6070   19.3930 C   0  0  0  0  0  2  0  0  0  0  0  0
  -29.4840  -12.6040   18.1480 C   0  0  0  0  0  2  0  0  0  0  0  0
  -28.0130  -12.4050   18.5610 C   0  0  0  0  0  2  0  0  0  0  0  0
  -27.6000  -13.3290   19.7370 C   0  0  0  0  0  3  0  0  0  0  0  0
  -28.6470  -13.3340   20.8720 C   0  0  0  0  0  2  0  0  0  0  0  0
  -29.9410  -13.7060   20.2860 N   0  0  0  0  0  0  0  0  0  0  0  0
  -31.7750  -14.9530   20.0710 O   0  0  0  0  0  0  0  0  0  0  0  0
  -25.2110  -13.9000   20.4570 C   0  0  0  0  0  0  0  0  0  0  0  0
  -24.1480  -13.1240   20.8230 C   0  0  0  0  0  0  0  0  0  0  0  0
  -24.6200  -11.7750   20.8070 C   0  0  0  0  0  0  0  0  0  0  0  0
  -26.2600  -13.0270   20.2290 N   0  0  0  0  0  0  0  0  0  0  0  0
  -25.9140  -11.7430   20.5090 N   0  0  0  0  0  0  0  0  0  0  0  0
  -23.8970  -10.5100   21.0010 C   0  0  0  0  0  0  0  0  0  0  0  0
  -24.3230   -9.5500   21.9450 C   0  0  0  0  0  3  0  0  0  0  0  0
  -23.5990   -8.3510   22.1250 C   0  0  0  0  0  3  0  0  0  0  0  0
  -22.4340   -8.1030   21.3600 C   0  0  0  0  0  0  0  0  0  0  0  0
  -22.0260   -9.0520   20.4070 C   0  0  0  0  0  3  0  0  0  0  0  0
  -22.7510  -10.2410   20.2240 C   0  0  0  0  0  3  0  0  0  0  0  0
  -21.6830   -6.9570   21.4480 O   0  0  0  0  0  0  0  0  0  0  0  0
  -21.6260   -6.2220   22.6040 C   0  0  0  0  0  0  0  0  0  0  0  0
  -21.1720   -6.7800   23.8200 C   0  0  0  0  0  3  0  0  0  0  0  0
  -21.0620   -5.9710   24.9690 C   0  0  0  0  0  3  0  0  0  0  0  0
  -21.3980   -4.6050   24.9030 C   0  0  0  0  0  0  0  0  0  0  0  0
  -21.8460   -4.0470   23.6930 C   0  0  0  0  0  3  0  0  0  0  0  0
  -21.9570   -4.8540   22.5470 C   0  0  0  0  0  0  0  0  0  0  0  0
  -22.3680   -4.3060   21.3770 F   0  0  0  0  0  0  0  0  0  0  0  0
  -21.2860   -3.8250   26.0040 F   0  0  0  0  0  0  0  0  0  0  0  0
  -22.7450  -13.5940   21.0770 C   0  0  0  0  0  0  0  0  0  0  0  0
  -22.0120  -12.9050   21.9420 N   0  0  0  0  0  0  0  0  0  0  0  0
  -22.3080  -14.6130   20.5430 O   0  0  0  0  0  0  0  0  0  0  0  0
  -22.3760  -12.0810   22.3940 H   0  0  0  0  0  0  0  0  0  0  0  0
  -21.0730  -13.2100   22.1600 H   0  0  0  0  0  0  0  0  0  0  0  0
  -25.3680  -15.2720   20.2760 N   0  0  0  0  0  0  0  0  0  0  0  0
  -24.5970  -15.9200   20.3990 H   0  0  0  0  0  0  0  0  0  0  0  0
  -26.2150  -15.7260   19.9610 H   0  0  0  0  0  0  0  0  0  0  0  0
  1  6  1  0
  1 49  1  0
  2  1  1  0
  3  2  1  0
  4  2  1  0
  5  2  1  0
  7  8  1  0
  7  6  2  0
  9 20  2  0
 10  8  1  0
 10 15  1  0
 11 19  1  0
 11 21  1  0
 12 18  1  0
 12 14  1  0
 13 19  1  0
 14 15  2  0
 14 13  1  0
 16 10  2  0
 17 16  1  0
 17 12  2  0
 18 11  1  0
 19  9  1  0
 21 23  2  0
 22 21  1  0
 24 22  1  0
 25 34  2  0
 25 30  1  0
 26 22  1  0
 26 30  1  0
 27 26  1  0
 28 29  1  0
 28 27  1  0
 29 25  1  0
 30 31  2  0
 31 32  1  0
 33 32  2  0
 34 33  1  0
 35  9  1  0
 35 36  1  0
 35 45  1  0
 36 39  1  0
 37 41  1  0
 37 36  1  0
 38 37  2  0
 41 40  1  0
 43 44  1  0
 43 41  1  0
 43 42  1  0
 45 48  1  1
 45 46  1  0
 47 45  1  0
 49 52  1  0
 49 50  1  0
 50 51  1  0
 52 54  1  0
 53 54  2  0
 54 55  1  0
 56 53  1  0
 57 62  1  0
 58 59  1  0
 58 57  1  0
 60 59  1  0
 60 67  1  0
 60 61  1  0
 62 56  1  0
 62 61  1  0
 63 56  2  0
 64 65  2  0
 65 84  1  0
 66 65  1  0
 66 69  1  0
 67 64  1  0
 67 68  1  0
 68 66  2  0
 69 70  1  0
 70 71  2  0
 72 75  1  0
 72 71  1  0
 73 72  2  0
 74 73  1  0
 74 69  2  0
 75 76  1  0
 76 77  1  0
 77 78  2  0
 79 78  1  0
 79 83  1  0
 80 79  2  0
 81 76  2  0
 81 80  1  0
 82 81  1  0
 84 85  1  0
 85 88  1  0
 85 87  1  0
 86 84  2  0
 89 90  1  0
 89 64  1  0
 91 89  1  0
M  ISO  4   7 101   8 101  53 100  56 100
M  END
>  <TORSDO>  (70) 
F 23

>  <SCORE>  (70) 
-13.199

>  <name>  (70) 
70

>  <ligand_id>  (70) 
70

>  <original_smiles>  (70) 
[H]OC([H])(C([H])([H])C(=C([H])C(=O)N1C([H])([H])C([H])([H])C([H])([H])C([H])(n2nc(-c3c([H])c([H])c(Oc4c([H])c([H])c(F)c([H])c4F)c([H])c3[H])c(C(=O)N([H])[H])c2N([H])[H])C1([H])[H])C([H])([H])[H])C([H])(C([H])([H])C([H])([H])Oc1c([H])c([H])c2c(c1[H])C([H])([H])N(C(=O)C([H])(N([H])C(=O)C([H])(N([H])C([H])([H])[H])C([H])([H])[H])C(C([H])([H])[H])(C([H])([H])[H])C([H])([H])[H])C([H])(C(=O)N([H])C1([H])c3c([H])c([H])c([H])c([H])c3C([H])([H])C([H])([H])C1([H])[H])C2([H])[H])[N+]([H])([H])[H]

>  <smiles>  (70) 
[H]OC([H])(C([H])([H])C(=C([H])C(=O)N1C([H])([H])C([H])([H])C([H])([H])C([H])(n2nc(-c3c([H])c([H])c(Oc4c([H])c([H])c(F)c([H])c4F)c([H])c3[H])c(C(=O)N([H])[H])c2N([H])[H])C1([H])[H])C([H])([H])[H])C([H])(C([H])([H])C([H])([H])Oc1c([H])c([H])c2c(c1[H])C([H])([H])N(C(=O)C([H])(N([H])C(=O)C([H])(N([H])C([H])([H])[H])C([H])([H])[H])C(C([H])([H])[H])(C([H])([H])[H])C([H])([H])[H])C([H])(C(=O)N([H])C1([H])c3c([H])c([H])c([H])c([H])c3C([H])([H])C([H])([H])C1([H])[H])C2([H])[H])[N+]([H])([H])[H]

$$$$
71:0:0
     RDKit          3D

 94102  0  0  1  0  0  0  0  0999 V2000
  -29.9640  -19.8240   20.2650 C   0  0  0  0  0  3  0  0  0  0  0  0
  -31.2830  -17.2100   23.6930 C   0  0  0  0  0  3  0  0  0  0  0  0
  -31.1970  -18.5920   23.7850 C   0  0  0  0  0  3  0  0  0  0  0  0
  -30.9120  -16.5910   22.5040 C   0  0  0  0  0  3  0  0  0  0  0  0
  -30.7410  -19.3720   22.7070 C   0  0  0  0  0  0  0  0  0  0  0  0
  -30.4660  -17.2980   21.3600 C   0  0  0  0  0  0  0  0  0  0  0  0
  -30.3540  -18.7900   21.4420 C   0  0  0  0  0  0  0  0  0  0  0  0
  -30.7420  -20.8560   23.0390 C   0  0  0  0  0  1  0  0  0  0  0  0
  -30.1040  -16.2780   20.1960 C   0  0  0  0  0  2  0  0  0  0  0  0
  -30.8300  -14.8270   20.0600 C   0  0  0  0  0  0  0  0  0  0  0  0
  -30.4830  -12.6010   18.9620 C   0  0  0  0  0  2  0  0  0  0  0  0
  -29.5050  -12.7860   17.7810 C   0  0  0  0  0  2  0  0  0  0  0  0
  -28.0390  -12.6610   18.2490 C   0  0  0  0  0  2  0  0  0  0  0  0
  -27.7540  -13.4840   19.5360 C   0  0  0  0  0  3  0  0  0  0  0  0
  -28.8550  -13.3200   20.6070 C   0  0  0  0  0  2  0  0  0  0  0  0
  -30.1510  -13.6260   19.9860 N   0  0  0  0  0  0  0  0  0  0  0  0
  -32.0320  -14.8380   19.7770 O   0  0  0  0  0  0  0  0  0  0  0  0
  -25.3990  -14.1140   20.3340 C   0  0  0  0  0  0  0  0  0  0  0  0
  -24.3250  -13.3650   20.7200 C   0  0  0  0  0  0  0  0  0  0  0  0
  -24.7630  -12.0030   20.6830 C   0  0  0  0  0  0  0  0  0  0  0  0
  -26.4190  -13.2190   20.0650 N   0  0  0  0  0  0  0  0  0  0  0  0
  -26.0450  -11.9440   20.3430 N   0  0  0  0  0  0  0  0  0  0  0  0
  -24.0200  -10.7550   20.8890 C   0  0  0  0  0  0  0  0  0  0  0  0
  -24.4410   -9.7870   21.8280 C   0  0  0  0  0  3  0  0  0  0  0  0
  -23.6900   -8.6090   22.0210 C   0  0  0  0  0  3  0  0  0  0  0  0
  -22.5080   -8.3850   21.2750 C   0  0  0  0  0  0  0  0  0  0  0  0
  -22.1110   -9.3390   20.3220 C   0  0  0  0  0  3  0  0  0  0  0  0
  -22.8620  -10.5110   20.1260 C   0  0  0  0  0  3  0  0  0  0  0  0
  -21.7340   -7.2560   21.3690 O   0  0  0  0  0  0  0  0  0  0  0  0
  -21.6500   -6.5390   22.5370 C   0  0  0  0  0  0  0  0  0  0  0  0
  -21.2240   -7.1310   23.7450 C   0  0  0  0  0  3  0  0  0  0  0  0
  -21.0930   -6.3430   24.9060 C   0  0  0  0  0  3  0  0  0  0  0  0
  -21.3740   -4.9640   24.8570 C   0  0  0  0  0  0  0  0  0  0  0  0
  -21.7900   -4.3720   23.6510 C   0  0  0  0  0  3  0  0  0  0  0  0
  -21.9260   -5.1580   22.4940 C   0  0  0  0  0  0  0  0  0  0  0  0
  -22.3060   -4.5790   21.3300 F   0  0  0  0  0  0  0  0  0  0  0  0
  -21.2390   -4.2040   25.9710 F   0  0  0  0  0  0  0  0  0  0  0  0
  -22.9410  -13.8630   21.0200 C   0  0  0  0  0  0  0  0  0  0  0  0
  -22.2280  -13.1910   21.9170 N   0  0  0  0  0  0  0  0  0  0  0  0
  -22.5030  -14.8890   20.4930 O   0  0  0  0  0  0  0  0  0  0  0  0
  -22.5920  -12.3580   22.3590 H   0  0  0  0  0  0  0  0  0  0  0  0
  -21.3030  -13.5120   22.1640 H   0  0  0  0  0  0  0  0  0  0  0  0
  -25.5940  -15.4830   20.1670 N   0  0  0  0  0  0  0  0  0  0  0  0
  -24.8680  -16.1700   20.3290 H   0  0  0  0  0  0  0  0  0  0  0  0
  -26.4770  -15.8940   19.9000 H   0  0  0  0  0  0  0  0  0  0  0  0
  -28.9490  -20.9800   20.5070 N   0  0  0  0  0  4  0  0  0  0  0  0
  -28.3210  -20.9070   19.7180 H   0  0  0  0  0  0  0  0  0  0  0  0
  -28.4120  -20.6930   21.3100 H   0  0  0  0  0  0  0  0  0  0  0  0
  -29.2960  -22.4990   20.6300 C   0  0  0  0  0  2  0  0  0  0  0  0
  -28.2200  -23.6510   20.2120 C   0  0  0  0  0  2  0  0  0  0  0  0
  -28.2950  -25.1420   20.8680 C   0  0  0  0  0  2  0  0  0  0  0  0
  -28.2670  -26.4370   20.1100 O   0  0  0  0  0  0  0  0  0  0  0  0
  -24.6190  -31.9120   23.1850 C   0  0  0  0  0  0  0  0  0  0  0  0
  -27.1470  -27.2890   20.1550 C   0  0  0  0  0  0  0  0  0  0  0  0
  -23.3720  -30.5040   21.5840 C   0  0  0  0  0  3  0  0  0  0  0  0
  -24.7910  -28.9280   20.1450 C   0  0  0  0  0  0  0  0  0  0  0  0
  -25.9090  -30.8150   21.3310 C   0  0  0  0  0  2  0  0  0  0  0  0
  -25.9760  -29.4240   20.7040 C   0  0  0  0  0  0  0  0  0  0  0  0
  -27.1620  -28.6250   20.6780 C   0  0  0  0  0  3  0  0  0  0  0  0
  -25.9430  -26.8440   19.5760 C   0  0  0  0  0  3  0  0  0  0  0  0
  -24.7830  -27.6510   19.5560 C   0  0  0  0  0  3  0  0  0  0  0  0
  -23.5510  -29.8030   20.2090 C   0  0  0  0  0  2  0  0  0  0  0  0
  -24.6540  -31.0920   22.0920 N   0  0  0  0  0  0  0  0  0  0  0  0
  -23.5470  -32.1950   23.7420 O   0  0  0  0  0  0  0  0  0  0  0  0
  -22.7280  -29.4990   22.5720 C   0  0  0  0  0  0  0  0  0  0  0  0
  -21.4030  -29.3040   22.4640 N   0  0  0  0  0  0  0  0  0  0  0  0
  -23.4210  -28.8940   23.3930 O   0  0  0  0  0  0  0  0  0  0  0  0
  -20.8960  -29.8510   21.7830 H   0  0  0  0  0  0  0  0  0  0  0  0
  -18.0540  -28.0430   22.9800 C   0  0  0  0  0  0  0  0  0  0  0  0
  -20.6020  -28.3680   23.2580 C   0  0  0  0  0  3  0  0  0  0  0  0
  -20.7420  -26.9210   22.7310 C   0  0  0  0  0  2  0  0  0  0  0  0
  -19.6550  -26.5420   21.7190 C   0  0  0  0  0  2  0  0  0  0  0  0
  -18.2660  -26.6770   22.3480 C   0  0  0  0  0  2  0  0  0  0  0  0
  -19.1520  -28.8420   23.3950 C   0  0  0  0  0  0  0  0  0  0  0  0
  -18.9020  -30.1180   23.9440 C   0  0  0  0  0  3  0  0  0  0  0  0
  -17.5860  -30.5960   24.0830 C   0  0  0  0  0  3  0  0  0  0  0  0
  -16.5010  -29.7950   23.6840 C   0  0  0  0  0  3  0  0  0  0  0  0
  -16.7370  -28.5210   23.1390 C   0  0  0  0  0  3  0  0  0  0  0  0
  -25.9140  -32.5500   23.7720 C   0  0  0  0  0  3  0  0  0  0  0  0
  -25.6100  -33.9510   24.1080 N   0  0  0  0  0  0  0  0  0  0  0  0
  -25.9340  -35.0040   23.3460 C   0  0  0  0  0  0  0  0  0  0  0  0
  -26.5900  -34.9000   22.3060 O   0  0  0  0  0  0  0  0  0  0  0  0
  -25.0240  -34.1040   24.9150 H   0  0  0  0  0  0  0  0  0  0  0  0
  -24.2090  -36.8060   23.0120 C   0  0  0  0  0  1  0  0  0  0  0  0
  -25.4560  -36.3950   23.8110 C   0  0  0  0  0  3  0  0  0  0  0  0
  -27.6070  -37.2710   24.6140 C   0  0  0  0  0  1  0  0  0  0  0  0
  -26.4920  -37.4440   23.6860 N   0  0  0  0  0  0  0  0  0  0  0  0
  -26.0900  -38.3670   23.8360 H   0  0  0  0  0  0  0  0  0  0  0  0
  -26.4610  -31.7840   25.0390 C   0  0  1  0  0  0  0  0  0  0  0  0
  -25.3910  -31.5600   26.1320 C   0  0  0  0  0  1  0  0  0  0  0  0
  -27.0320  -30.4050   24.6360 C   0  0  0  0  0  1  0  0  0  0  0  0
  -27.6280  -32.5760   25.6730 C   0  0  0  0  0  1  0  0  0  0  0  0
  -31.9870  -19.0870   18.8180 C   0  0  0  0  0  1  0  0  0  0  0  0
  -31.2220  -20.2690   19.4610 C   0  0  0  0  0  2  0  0  0  0  0  0
  1 94  1  0
  1 46  1  0
  1  7  1  0
  2  3  1  0
  4  2  2  0
  5  8  1  0
  5  3  2  0
  6  7  2  0
  6  4  1  0
  7  5  1  0
  9  6  1  0
 10  9  1  0
 11 16  1  0
 12 13  1  0
 12 11  1  0
 14 13  1  0
 14 21  1  0
 14 15  1  0
 16 10  1  0
 16 15  1  0
 17 10  2  0
 18 19  2  0
 19 38  1  0
 20 19  1  0
 20 23  1  0
 21 18  1  0
 21 22  1  0
 22 20  2  0
 23 24  1  0
 24 25  2  0
 26 29  1  0
 26 25  1  0
 27 26  2  0
 28 27  1  0
 28 23  2  0
 29 30  1  0
 30 31  1  0
 31 32  2  0
 33 32  1  0
 33 37  1  0
 34 33  2  0
 35 30  2  0
 35 34  1  0
 36 35  1  0
 38 39  1  0
 39 42  1  0
 39 41  1  0
 40 38  2  0
 43 44  1  0
 43 18  1  0
 45 43  1  0
 46 49  1  0
 46 48  1  0
 47 46  1  0
 50 49  1  0
 50 51  1  0
 52 54  1  0
 52 51  1  0
 53 64  2  0
 54 59  1  0
 55 63  1  0
 55 65  1  0
 56 62  1  0
 56 58  1  0
 57 63  1  0
 58 57  1  0
 59 58  2  0
 60 54  2  0
 61 60  1  0
 61 56  2  0
 62 55  1  0
 63 53  1  0
 65 67  2  0
 66 65  1  0
 68 66  1  0
 69 78  2  0
 69 74  1  0
 70 66  1  0
 70 74  1  0
 71 70  1  0
 72 73  1  0
 72 71  1  0
 73 69  1  0
 74 75  2  0
 75 76  1  0
 77 76  2  0
 78 77  1  0
 79 53  1  0
 79 80  1  0
 79 89  1  0
 80 83  1  0
 81 85  1  0
 81 80  1  0
 82 81  2  0
 85 84  1  0
 87 85  1  0
 87 88  1  0
 87 86  1  0
 89 92  1  1
 89 90  1  0
 91 89  1  0
 93 94  1  0
M  ISO  4   9 100  10 100  51 101  52 101
M  END
>  <TORSDO>  (71) 
F 23

>  <SCORE>  (71) 
-10.921

>  <name>  (71) 
71

>  <ligand_id>  (71) 
71

>  <original_smiles>  (71) 
[H]c1c([H])c(C([H])([H])[H])c(C([H])(C([H])([H])C([H])([H])[H])[N+]([H])([H])C([H])([H])C([H])([H])C([H])([H])Oc2c([H])c([H])c3c(c2[H])C([H])([H])N(C(=O)C([H])(N([H])C(=O)C([H])(N([H])C([H])([H])[H])C([H])([H])[H])C(C([H])([H])[H])(C([H])([H])[H])C([H])([H])[H])C([H])(C(=O)N([H])C2([H])c4c([H])c([H])c([H])c([H])c4C([H])([H])C([H])([H])C2([H])[H])C3([H])[H])c(C([H])([H])C(=O)N2C([H])([H])C([H])([H])C([H])([H])C([H])(n3nc(-c4c([H])c([H])c(Oc5c([H])c([H])c(F)c([H])c5F)c([H])c4[H])c(C(=O)N([H])[H])c3N([H])[H])C2([H])[H])c1[H]

>  <smiles>  (71) 
[H]c1c([H])c(C([H])([H])[H])c(C([H])(C([H])([H])C([H])([H])[H])[N+]([H])([H])C([H])([H])C([H])([H])C([H])([H])Oc2c([H])c([H])c3c(c2[H])C([H])([H])N(C(=O)C([H])(N([H])C(=O)C([H])(N([H])C([H])([H])[H])C([H])([H])[H])C(C([H])([H])[H])(C([H])([H])[H])C([H])([H])[H])C([H])(C(=O)N([H])C2([H])c4c([H])c([H])c([H])c([H])c4C([H])([H])C([H])([H])C2([H])[H])C3([H])[H])c(C([H])([H])C(=O)N2C([H])([H])C([H])([H])C([H])([H])C([H])(n3nc(-c4c([H])c([H])c(Oc5c([H])c([H])c(F)c([H])c5F)c([H])c4[H])c(C(=O)N([H])[H])c3N([H])[H])C2([H])[H])c1[H]

$$$$
72:0:0
     RDKit          3D

 93101  0  0  1  0  0  0  0  0999 V2000
  -29.3250  -22.4860   20.0220 C   0  0  0  0  0  3  0  0  0  0  0  0
  -32.5380  -21.1510   21.6210 C   0  0  0  0  0  2  0  0  0  0  0  0
  -31.8950  -19.8020   21.3710 C   0  0  0  0  0  2  0  0  0  0  0  0
  -31.4330  -22.1860   21.4590 C   0  0  0  0  0  2  0  0  0  0  0  0
  -30.6220  -20.0110   20.5270 C   0  0  0  0  0  3  0  0  0  0  0  0
  -30.1390  -21.4840   20.9740 C   0  0  0  0  0  3  0  0  0  0  0  0
  -29.7310  -18.7010   20.7190 C   0  0  0  0  0  2  0  0  0  0  0  0
  -30.4340  -17.3110   20.3450 C   0  0  0  0  0  3  0  0  0  0  0  0
  -29.8100  -15.9230   20.8060 C   0  0  0  0  0  3  0  0  0  0  0  0
  -30.5780  -14.6120   20.3540 C   0  0  0  0  0  0  0  0  0  0  0  0
  -30.3370  -12.4090   19.2360 C   0  0  0  0  0  2  0  0  0  0  0  0
  -29.3870  -12.5870   18.0300 C   0  0  0  0  0  2  0  0  0  0  0  0
  -27.9180  -12.4220   18.4640 C   0  0  0  0  0  2  0  0  0  0  0  0
  -27.5730  -13.2510   19.7290 C   0  0  0  0  0  3  0  0  0  0  0  0
  -28.6380  -13.0750   20.8320 C   0  0  0  0  0  2  0  0  0  0  0  0
  -29.9470  -13.4010   20.2550 N   0  0  0  0  0  0  0  0  0  0  0  0
  -31.7380  -14.7370   19.9520 O   0  0  0  0  0  0  0  0  0  0  0  0
  -25.1770  -13.8370   20.4440 C   0  0  0  0  0  0  0  0  0  0  0  0
  -24.1140  -13.0590   20.8160 C   0  0  0  0  0  0  0  0  0  0  0  0
  -24.5860  -11.7110   20.7970 C   0  0  0  0  0  0  0  0  0  0  0  0
  -26.2280  -12.9620   20.2180 N   0  0  0  0  0  0  0  0  0  0  0  0
  -25.8770  -11.6800   20.4910 N   0  0  0  0  0  0  0  0  0  0  0  0
  -23.8670  -10.4450   20.9960 C   0  0  0  0  0  0  0  0  0  0  0  0
  -24.3040   -9.4880   21.9380 C   0  0  0  0  0  3  0  0  0  0  0  0
  -23.5850   -8.2860   22.1250 C   0  0  0  0  0  3  0  0  0  0  0  0
  -22.4160   -8.0340   21.3680 C   0  0  0  0  0  0  0  0  0  0  0  0
  -22.0000   -8.9790   20.4130 C   0  0  0  0  0  3  0  0  0  0  0  0
  -22.7180  -10.1730   20.2260 C   0  0  0  0  0  3  0  0  0  0  0  0
  -21.6700   -6.8840   21.4610 O   0  0  0  0  0  0  0  0  0  0  0  0
  -21.6230   -6.1500   22.6180 C   0  0  0  0  0  0  0  0  0  0  0  0
  -21.1800   -6.7090   23.8370 C   0  0  0  0  0  3  0  0  0  0  0  0
  -21.0840   -5.9030   24.9890 C   0  0  0  0  0  3  0  0  0  0  0  0
  -21.4160   -4.5360   24.9190 C   0  0  0  0  0  0  0  0  0  0  0  0
  -21.8520   -3.9750   23.7060 C   0  0  0  0  0  3  0  0  0  0  0  0
  -21.9520   -4.7810   22.5580 C   0  0  0  0  0  0  0  0  0  0  0  0
  -22.3540   -4.2330   21.3850 F   0  0  0  0  0  0  0  0  0  0  0  0
  -21.3150   -3.7580   26.0220 F   0  0  0  0  0  0  0  0  0  0  0  0
  -22.7140  -13.5290   21.0820 C   0  0  0  0  0  0  0  0  0  0  0  0
  -21.9880  -12.8300   21.9490 N   0  0  0  0  0  0  0  0  0  0  0  0
  -22.2710  -14.5500   20.5590 O   0  0  0  0  0  0  0  0  0  0  0  0
  -22.3590  -12.0030   22.3940 H   0  0  0  0  0  0  0  0  0  0  0  0
  -21.0480  -13.1250   22.1710 H   0  0  0  0  0  0  0  0  0  0  0  0
  -25.3340  -15.2070   20.2590 N   0  0  0  0  0  0  0  0  0  0  0  0
  -24.5670  -15.8630   20.3620 H   0  0  0  0  0  0  0  0  0  0  0  0
  -26.1900  -15.6460   19.9420 H   0  0  0  0  0  0  0  0  0  0  0  0
  -29.8350  -22.3380   18.6390 N   0  0  0  0  0  4  0  0  0  0  0  0
  -30.4370  -23.1110   18.4060 H   0  0  0  0  0  0  0  0  0  0  0  0
  -30.4080  -21.5090   18.6370 H   0  0  0  0  0  0  0  0  0  0  0  0
  -29.4470  -21.7030   16.2580 C   0  0  0  0  0  1  0  0  0  0  0  0
  -28.8130  -22.1480   17.5850 C   0  0  0  0  0  2  0  0  0  0  0  0
  -29.3280  -24.0380   20.4680 C   0  0  0  0  0  3  0  0  0  0  0  0
  -28.2460  -25.0520   19.9060 C   0  0  0  0  0  3  0  0  0  0  0  0
  -28.3890  -26.4850   20.2440 O   0  0  0  0  0  0  0  0  0  0  0  0
  -24.6270  -31.8580   23.2340 C   0  0  0  0  0  0  0  0  0  0  0  0
  -27.2580  -27.3140   20.1820 C   0  0  0  0  0  0  0  0  0  0  0  0
  -23.4300  -30.4600   21.5880 C   0  0  0  0  0  3  0  0  0  0  0  0
  -24.8860  -28.9130   20.1660 C   0  0  0  0  0  0  0  0  0  0  0  0
  -25.9680  -30.7800   21.4180 C   0  0  0  0  0  2  0  0  0  0  0  0
  -26.0490  -29.4020   20.7730 C   0  0  0  0  0  0  0  0  0  0  0  0
  -27.2350  -28.6120   20.7780 C   0  0  0  0  0  3  0  0  0  0  0  0
  -26.0720  -26.8800   19.5420 C   0  0  0  0  0  3  0  0  0  0  0  0
  -24.8990  -27.6560   19.5430 C   0  0  0  0  0  3  0  0  0  0  0  0
  -23.6480  -29.7850   20.2080 C   0  0  0  0  0  2  0  0  0  0  0  0
  -24.6930  -31.0500   22.1370 N   0  0  0  0  0  0  0  0  0  0  0  0
  -23.5420  -32.1390   23.7630 O   0  0  0  0  0  0  0  0  0  0  0  0
  -22.7630  -29.4450   22.5450 C   0  0  0  0  0  0  0  0  0  0  0  0
  -21.4350  -29.2790   22.4190 N   0  0  0  0  0  0  0  0  0  0  0  0
  -23.4370  -28.8100   23.3600 O   0  0  0  0  0  0  0  0  0  0  0  0
  -20.9520  -29.8420   21.7330 H   0  0  0  0  0  0  0  0  0  0  0  0
  -18.0460  -28.1240   22.9280 C   0  0  0  0  0  0  0  0  0  0  0  0
  -20.6080  -28.3470   23.1860 C   0  0  0  0  0  3  0  0  0  0  0  0
  -20.6880  -26.9190   22.5980 C   0  0  0  0  0  2  0  0  0  0  0  0
  -19.5770  -26.6200   21.5880 C   0  0  0  0  0  2  0  0  0  0  0  0
  -18.2010  -26.7780   22.2400 C   0  0  0  0  0  2  0  0  0  0  0  0
  -19.1770  -28.8690   23.3570 C   0  0  0  0  0  0  0  0  0  0  0  0
  -18.9790  -30.1290   23.9610 C   0  0  0  0  0  3  0  0  0  0  0  0
  -17.6820  -30.6460   24.1380 C   0  0  0  0  0  3  0  0  0  0  0  0
  -16.5650  -29.9000   23.7240 C   0  0  0  0  0  3  0  0  0  0  0  0
  -16.7480  -28.6410   23.1250 C   0  0  0  0  0  3  0  0  0  0  0  0
  -25.9090  -32.4860   23.8650 C   0  0  0  0  0  3  0  0  0  0  0  0
  -25.6000  -33.8840   24.1950 N   0  0  0  0  0  0  0  0  0  0  0  0
  -25.9390  -34.9390   23.4430 C   0  0  0  0  0  0  0  0  0  0  0  0
  -26.6160  -34.8390   22.4160 O   0  0  0  0  0  0  0  0  0  0  0  0
  -24.9960  -34.0370   24.9910 H   0  0  0  0  0  0  0  0  0  0  0  0
  -24.2200  -36.7410   23.0820 C   0  0  0  0  0  1  0  0  0  0  0  0
  -25.4500  -36.3270   23.9040 C   0  0  0  0  0  3  0  0  0  0  0  0
  -27.5750  -37.2040   24.7660 C   0  0  0  0  0  1  0  0  0  0  0  0
  -26.4870  -37.3770   23.8070 N   0  0  0  0  0  0  0  0  0  0  0  0
  -26.0800  -38.2970   23.9520 H   0  0  0  0  0  0  0  0  0  0  0  0
  -26.4190  -31.7110   25.1410 C   0  0  1  0  0  0  0  0  0  0  0  0
  -25.3200  -31.4660   26.2010 C   0  0  0  0  0  1  0  0  0  0  0  0
  -27.0050  -30.3360   24.7460 C   0  0  0  0  0  1  0  0  0  0  0  0
  -27.5660  -32.5020   25.8120 C   0  0  0  0  0  1  0  0  0  0  0  0
  1 51  1  0
  3  2  1  0
  4  2  1  0
  5  7  1  0
  5  6  1  0
  5  3  1  0
  6  1  1  0
  6  4  1  0
  8  7  1  0
  8  9  2  0
 10  9  1  0
 11 16  1  0
 12 13  1  0
 12 11  1  0
 14 13  1  0
 14 21  1  0
 14 15  1  0
 16 10  1  0
 16 15  1  0
 17 10  2  0
 18 19  2  0
 19 38  1  0
 20 19  1  0
 20 23  1  0
 21 18  1  0
 21 22  1  0
 22 20  2  0
 23 24  1  0
 24 25  2  0
 26 29  1  0
 26 25  1  0
 27 26  2  0
 28 27  1  0
 28 23  2  0
 29 30  1  0
 30 31  1  0
 31 32  2  0
 33 32  1  0
 33 37  1  0
 34 33  2  0
 35 30  2  0
 35 34  1  0
 36 35  1  0
 38 39  1  0
 39 42  1  0
 39 41  1  0
 40 38  2  0
 43 44  1  0
 43 18  1  0
 45 43  1  0
 46  1  1  0
 47 46  1  0
 48 46  1  0
 49 50  1  0
 50 46  1  0
 52 53  1  0
 52 51  2  0
 54 65  2  0
 55 53  1  0
 55 60  1  0
 56 64  1  0
 56 66  1  0
 57 63  1  0
 57 59  1  0
 58 64  1  0
 59 60  2  0
 59 58  1  0
 61 62  1  0
 61 55  2  0
 62 57  2  0
 63 56  1  0
 64 54  1  0
 66 68  2  0
 67 66  1  0
 69 67  1  0
 70 79  2  0
 70 75  1  0
 71 67  1  0
 71 75  1  0
 72 71  1  0
 73 74  1  0
 73 72  1  0
 74 70  1  0
 75 76  2  0
 76 77  1  0
 78 77  2  0
 79 78  1  0
 80 54  1  0
 80 81  1  0
 80 90  1  0
 81 84  1  0
 82 86  1  0
 82 81  1  0
 83 82  2  0
 86 85  1  0
 88 86  1  0
 88 89  1  0
 88 87  1  0
 90 93  1  1
 90 91  1  0
 92 90  1  0
M  ISO  4   9 100  10 100  52 101  53 101
M  END
>  <TORSDO>  (72) 
F 24

>  <SCORE>  (72) 
-12.391

>  <name>  (72) 
72

>  <ligand_id>  (72) 
72

>  <original_smiles>  (72) 
[H]c1c([H])c([H])c2c(c1[H])C([H])([H])C([H])([H])C([H])([H])C2([H])N([H])C(=O)C1([H])N(C(=O)C([H])(N([H])C(=O)C([H])(N([H])C([H])([H])[H])C([H])([H])[H])C(C([H])([H])[H])(C([H])([H])[H])C([H])([H])[H])C([H])([H])c2c([H])c(OC([H])([H])C([H])([H])C([H])(C3([H])C([H])([H])C([H])([H])C([H])([H])C3([H])C([H])([H])C([H])([H])C([H])([H])C(=O)N3C([H])([H])C([H])([H])C([H])([H])C([H])(n4nc(-c5c([H])c([H])c(Oc6c([H])c([H])c(F)c([H])c6F)c([H])c5[H])c(C(=O)N([H])[H])c4N([H])[H])C3([H])[H])[N+]([H])([H])C([H])([H])C([H])([H])[H])c([H])c([H])c2C1([H])[H]

>  <smiles>  (72) 
[H]c1c([H])c([H])c2c(c1[H])C([H])([H])C([H])([H])C([H])([H])C2([H])N([H])C(=O)C1([H])N(C(=O)C([H])(N([H])C(=O)C([H])(N([H])C([H])([H])[H])C([H])([H])[H])C(C([H])([H])[H])(C([H])([H])[H])C([H])([H])[H])C([H])([H])c2c([H])c(OC([H])([H])C([H])([H])C([H])(C3([H])C([H])([H])C([H])([H])C([H])([H])C3([H])C([H])([H])C([H])([H])C([H])([H])C(=O)N3C([H])([H])C([H])([H])C([H])([H])C([H])(n4nc(-c5c([H])c([H])c(Oc6c([H])c([H])c(F)c([H])c6F)c([H])c5[H])c(C(=O)N([H])[H])c4N([H])[H])C3([H])[H])[N+]([H])([H])C([H])([H])C([H])([H])[H])c([H])c([H])c2C1([H])[H]

$$$$
73:0:0
     RDKit          3D

 93101  0  0  1  0  0  0  0  0999 V2000
  -27.6870  -23.3890   20.8000 C   0  0  0  0  0  3  0  0  0  0  0  0
  -25.6550  -24.1700   19.5570 C   0  0  0  0  0  1  0  0  0  0  0  0
  -25.4240  -22.1530   20.9110 C   0  0  0  0  0  1  0  0  0  0  0  0
  -26.1760  -23.4220   20.7340 N   0  0  1  0  0  4  0  0  0  0  0  0
  -25.8900  -23.9650   21.5340 H   0  0  0  0  0  0  0  0  0  0  0  0
  -28.3230  -22.2430   21.7010 C   0  0  0  0  0  2  0  0  0  0  0  0
  -28.6750  -20.9130   20.9340 C   0  0  0  0  0  2  0  0  0  0  0  0
  -29.7460  -19.9230   21.5170 C   0  0  0  0  0  2  0  0  0  0  0  0
  -30.6310  -17.9320   18.3290 C   0  0  0  0  0  3  0  0  0  0  0  0
  -30.7420  -16.6210   18.8190 C   0  0  0  0  0  3  0  0  0  0  0  0
  -30.3150  -18.9710   19.2170 C   0  0  0  0  0  3  0  0  0  0  0  0
  -30.1780  -17.3770   21.0730 C   0  0  0  0  0  3  0  0  0  0  0  0
  -30.5660  -16.3200   20.1900 C   0  0  0  0  0  0  0  0  0  0  0  0
  -30.0520  -18.7210   20.5890 C   0  0  0  0  0  0  0  0  0  0  0  0
  -31.1740  -15.0090   20.6550 C   0  0  0  0  0  0  0  0  0  0  0  0
  -30.8870  -12.7520   19.7220 C   0  0  0  0  0  2  0  0  0  0  0  0
  -30.0510  -12.8440   18.4300 C   0  0  0  0  0  2  0  0  0  0  0  0
  -28.5590  -12.7260   18.7680 C   0  0  0  0  0  2  0  0  0  0  0  0
  -28.1220  -13.6720   19.9130 C   0  0  0  0  0  3  0  0  0  0  0  0
  -29.0990  -13.6580   21.1050 C   0  0  0  0  0  2  0  0  0  0  0  0
  -30.4560  -13.8560   20.5960 N   0  0  0  0  0  0  0  0  0  0  0  0
  -32.4020  -15.0120   20.5770 O   0  0  0  0  0  0  0  0  0  0  0  0
  -25.7250  -14.2840   20.5650 C   0  0  0  0  0  0  0  0  0  0  0  0
  -24.6260  -13.5150   20.8570 C   0  0  0  0  0  0  0  0  0  0  0  0
  -25.0620  -12.1570   20.7850 C   0  0  0  0  0  0  0  0  0  0  0  0
  -26.7550  -13.3910   20.3340 N   0  0  0  0  0  0  0  0  0  0  0  0
  -26.3640  -12.1060   20.5340 N   0  0  0  0  0  0  0  0  0  0  0  0
  -24.3050  -10.9020   20.8870 C   0  0  0  0  0  0  0  0  0  0  0  0
  -24.6510   -9.8960   21.8150 C   0  0  0  0  0  3  0  0  0  0  0  0
  -23.8940   -8.7080   21.8960 C   0  0  0  0  0  3  0  0  0  0  0  0
  -22.7790   -8.5150   21.0480 C   0  0  0  0  0  0  0  0  0  0  0  0
  -22.4500   -9.5110   20.1110 C   0  0  0  0  0  3  0  0  0  0  0  0
  -23.2090  -10.6900   20.0290 C   0  0  0  0  0  3  0  0  0  0  0  0
  -21.9990   -7.3860   21.0460 O   0  0  0  0  0  0  0  0  0  0  0  0
  -21.8070   -6.6430   22.1820 C   0  0  0  0  0  0  0  0  0  0  0  0
  -21.2250   -7.1990   23.3420 C   0  0  0  0  0  3  0  0  0  0  0  0
  -20.9740   -6.3830   24.4640 C   0  0  0  0  0  3  0  0  0  0  0  0
  -21.2950   -5.0110   24.4260 C   0  0  0  0  0  0  0  0  0  0  0  0
  -21.8650   -4.4550   23.2680 C   0  0  0  0  0  3  0  0  0  0  0  0
  -22.1160   -5.2690   22.1480 C   0  0  0  0  0  0  0  0  0  0  0  0
  -22.6490   -4.7220   21.0310 F   0  0  0  0  0  0  0  0  0  0  0  0
  -21.0480   -4.2260   25.5020 F   0  0  0  0  0  0  0  0  0  0  0  0
  -23.2320  -14.0140   21.0880 C   0  0  0  0  0  0  0  0  0  0  0  0
  -22.4500  -13.2970   21.8910 N   0  0  0  0  0  0  0  0  0  0  0  0
  -22.8330  -15.0710   20.6010 O   0  0  0  0  0  0  0  0  0  0  0  0
  -22.7670  -12.4340   22.3050 H   0  0  0  0  0  0  0  0  0  0  0  0
  -21.5140  -13.6220   22.0850 H   0  0  0  0  0  0  0  0  0  0  0  0
  -25.9330  -15.6530   20.4550 N   0  0  0  0  0  0  0  0  0  0  0  0
  -25.2010  -16.3330   20.6360 H   0  0  0  0  0  0  0  0  0  0  0  0
  -26.8320  -16.0700   20.2290 H   0  0  0  0  0  0  0  0  0  0  0  0
  -28.2080  -24.8410   21.1450 C   0  0  0  0  0  2  0  0  0  0  0  0
  -28.8250  -25.6430   19.9500 C   0  0  0  0  0  2  0  0  0  0  0  0
  -28.8420  -27.0880   20.1070 O   0  0  0  0  0  0  0  0  0  0  0  0
  -24.8180  -31.9800   23.3940 C   0  0  0  0  0  0  0  0  0  0  0  0
  -27.6540  -27.8000   20.0850 C   0  0  0  0  0  0  0  0  0  0  0  0
  -23.6870  -30.6480   21.6440 C   0  0  0  0  0  3  0  0  0  0  0  0
  -25.2140  -29.2650   20.1350 C   0  0  0  0  0  0  0  0  0  0  0  0
  -26.2090  -31.0910   21.5180 C   0  0  0  0  0  2  0  0  0  0  0  0
  -26.3470  -29.7710   20.7820 C   0  0  0  0  0  0  0  0  0  0  0  0
  -27.5700  -29.0540   20.7460 C   0  0  0  0  0  3  0  0  0  0  0  0
  -26.5040  -27.3330   19.4100 C   0  0  0  0  0  3  0  0  0  0  0  0
  -25.2930  -28.0470   19.4390 C   0  0  0  0  0  3  0  0  0  0  0  0
  -23.9400  -30.0730   20.2240 C   0  0  0  0  0  2  0  0  0  0  0  0
  -24.9220  -31.2510   22.2420 N   0  0  0  0  0  0  0  0  0  0  0  0
  -23.7200  -32.1800   23.9280 O   0  0  0  0  0  0  0  0  0  0  0  0
  -23.0570  -29.5410   22.5220 C   0  0  0  0  0  0  0  0  0  0  0  0
  -21.7400  -29.3270   22.3640 N   0  0  0  0  0  0  0  0  0  0  0  0
  -23.7490  -28.8830   23.3010 O   0  0  0  0  0  0  0  0  0  0  0  0
  -21.2370  -29.9210   21.7160 H   0  0  0  0  0  0  0  0  0  0  0  0
  -18.3980  -28.0180   22.7450 C   0  0  0  0  0  0  0  0  0  0  0  0
  -20.9470  -28.3070   23.0480 C   0  0  0  0  0  3  0  0  0  0  0  0
  -21.0830  -26.9300   22.3540 C   0  0  0  0  0  2  0  0  0  0  0  0
  -19.9880  -26.6620   21.3180 C   0  0  0  0  0  2  0  0  0  0  0  0
  -18.6020  -26.7290   21.9670 C   0  0  0  0  0  2  0  0  0  0  0  0
  -19.4990  -28.7660   23.2390 C   0  0  0  0  0  0  0  0  0  0  0  0
  -19.2480  -29.9730   23.9300 C   0  0  0  0  0  3  0  0  0  0  0  0
  -17.9300  -30.4300   24.1290 C   0  0  0  0  0  3  0  0  0  0  0  0
  -16.8440  -29.6790   23.6480 C   0  0  0  0  0  3  0  0  0  0  0  0
  -17.0800  -28.4740   22.9630 C   0  0  0  0  0  3  0  0  0  0  0  0
  -26.0730  -32.6080   24.0780 C   0  0  0  0  0  3  0  0  0  0  0  0
  -25.7520  -34.0080   24.3800 N   0  0  0  0  0  0  0  0  0  0  0  0
  -26.1150  -35.0510   23.6240 C   0  0  0  0  0  0  0  0  0  0  0  0
  -26.8260  -34.9370   22.6220 O   0  0  0  0  0  0  0  0  0  0  0  0
  -25.1250  -34.1720   25.1520 H   0  0  0  0  0  0  0  0  0  0  0  0
  -24.3900  -36.8280   23.2020 C   0  0  0  0  0  1  0  0  0  0  0  0
  -25.6110  -36.4410   24.0490 C   0  0  0  0  0  3  0  0  0  0  0  0
  -27.7190  -37.3540   24.9210 C   0  0  0  0  0  1  0  0  0  0  0  0
  -26.6420  -37.4970   23.9450 N   0  0  0  0  0  0  0  0  0  0  0  0
  -26.2300  -38.4190   24.0560 H   0  0  0  0  0  0  0  0  0  0  0  0
  -26.5220  -31.8380   25.3800 C   0  0  1  0  0  0  0  0  0  0  0  0
  -25.3750  -31.5910   26.3850 C   0  0  0  0  0  1  0  0  0  0  0  0
  -27.1380  -30.4680   25.0210 C   0  0  0  0  0  1  0  0  0  0  0  0
  -27.6250  -32.6450   26.1060 C   0  0  0  0  0  1  0  0  0  0  0  0
  1 51  1  0
  1  6  1  0
  2  4  1  0
  4  1  1  0
  4  3  1  0
  4  5  1  1
  7  8  1  0
  7  6  1  0
  9 10  2  0
  9 11  1  0
 10 13  1  0
 11 14  2  0
 13 15  1  0
 13 12  2  0
 14 12  1  0
 14  8  1  0
 16 21  1  0
 17 18  1  0
 17 16  1  0
 19 18  1  0
 19 26  1  0
 19 20  1  0
 21 15  1  0
 21 20  1  0
 22 15  2  0
 23 24  2  0
 24 43  1  0
 25 24  1  0
 25 28  1  0
 26 27  1  0
 26 23  1  0
 27 25  2  0
 28 29  1  0
 29 30  2  0
 31 30  1  0
 32 31  2  0
 33 32  1  0
 33 28  2  0
 34 31  1  0
 34 35  1  0
 35 36  1  0
 36 37  2  0
 38 37  1  0
 38 42  1  0
 39 38  2  0
 40 35  2  0
 40 39  1  0
 41 40  1  0
 43 44  1  0
 44 47  1  0
 44 46  1  0
 45 43  2  0
 48 23  1  0
 48 49  1  0
 50 48  1  0
 52 53  1  0
 52 51  1  0
 54 65  2  0
 55 53  1  0
 55 60  1  0
 56 64  1  0
 56 66  1  0
 57 63  1  0
 57 59  1  0
 58 64  1  0
 59 58  1  0
 60 59  2  0
 61 62  1  0
 61 55  2  0
 62 57  2  0
 63 56  1  0
 64 54  1  0
 66 68  2  0
 67 66  1  0
 69 67  1  0
 70 79  2  0
 70 75  1  0
 71 67  1  0
 71 75  1  0
 72 71  1  0
 73 74  1  0
 73 72  1  0
 74 70  1  0
 75 76  2  0
 76 77  1  0
 78 77  2  0
 79 78  1  0
 80 54  1  0
 80 81  1  0
 80 90  1  0
 81 84  1  0
 82 86  1  0
 82 81  1  0
 83 82  2  0
 86 85  1  0
 88 86  1  0
 88 89  1  0
 88 87  1  0
 90 93  1  1
 90 91  1  0
 92 90  1  0
M  ISO  4  13 100  15 100  52 101  53 101
M  END
>  <TORSDO>  (73) 
F 23

>  <SCORE>  (73) 
-10.685

>  <name>  (73) 
73

>  <ligand_id>  (73) 
73

>  <original_smiles>  (73) 
[H]c1c([H])c([H])c2c(c1[H])C([H])([H])C([H])([H])C([H])([H])C2([H])N([H])C(=O)C1([H])N(C(=O)C([H])(N([H])C(=O)C([H])(N([H])C([H])([H])[H])C([H])([H])[H])C(C([H])([H])[H])(C([H])([H])[H])C([H])([H])[H])C([H])([H])c2c([H])c(OC([H])([H])C([H])([H])C([H])(C([H])([H])C([H])([H])C([H])([H])c3c([H])c([H])c([H])c(C(=O)N4C([H])([H])C([H])([H])C([H])([H])C([H])(n5nc(-c6c([H])c([H])c(Oc7c([H])c([H])c(F)c([H])c7F)c([H])c6[H])c(C(=O)N([H])[H])c5N([H])[H])C4([H])[H])c3[H])[N+]([H])(C([H])([H])[H])C([H])([H])[H])c([H])c([H])c2C1([H])[H]

>  <smiles>  (73) 
[H]c1c([H])c([H])c2c(c1[H])C([H])([H])C([H])([H])C([H])([H])C2([H])N([H])C(=O)C1([H])N(C(=O)C([H])(N([H])C(=O)C([H])(N([H])C([H])([H])[H])C([H])([H])[H])C(C([H])([H])[H])(C([H])([H])[H])C([H])([H])[H])C([H])([H])c2c([H])c(OC([H])([H])C([H])([H])C([H])(C([H])([H])C([H])([H])C([H])([H])c3c([H])c([H])c([H])c(C(=O)N4C([H])([H])C([H])([H])C([H])([H])C([H])(n5nc(-c6c([H])c([H])c(Oc7c([H])c([H])c(F)c([H])c7F)c([H])c6[H])c(C(=O)N([H])[H])c5N([H])[H])C4([H])[H])c3[H])[N+]([H])(C([H])([H])[H])C([H])([H])[H])c([H])c([H])c2C1([H])[H]

$$$$
74:0:0
     RDKit          3D

 96104  0  0  1  0  0  0  0  0999 V2000
  -32.7510  -23.9060   20.2680 C   0  0  0  0  0  3  0  0  0  0  0  0
  -32.3600  -25.2440   20.3760 C   0  0  0  0  0  3  0  0  0  0  0  0
  -31.7830  -22.9150   20.0460 C   0  0  0  0  0  3  0  0  0  0  0  0
  -31.0050  -25.5830   20.2470 C   0  0  0  0  0  3  0  0  0  0  0  0
  -30.4010  -23.2180   19.9440 C   0  0  0  0  0  0  0  0  0  0  0  0
  -29.9990  -24.6060   20.0200 C   0  0  0  0  0  0  0  0  0  0  0  0
  -29.4590  -22.0160   19.6820 C   0  0  0  0  0  3  0  0  0  0  0  0
  -29.8170  -20.6680   20.4380 C   0  0  0  0  0  3  0  0  0  0  0  0
  -27.6970  -19.6490   19.9070 C   0  0  0  0  0  1  0  0  0  0  0  0
  -29.1460  -19.4220   19.9660 N   0  0  0  0  0  0  0  0  0  0  0  0
  -29.8860  -18.4120   22.1760 C   0  0  0  0  0  1  0  0  0  0  0  0
  -29.3990  -18.1540   20.7350 C   0  0  0  0  0  3  0  0  0  0  0  0
  -30.2670  -17.0710   19.9860 C   0  0  0  0  0  3  0  0  0  0  0  0
  -29.9000  -17.1280   18.5590 N   0  0  0  0  0  4  0  0  0  0  0  0
  -28.9830  -16.7600   18.3830 H   0  0  0  0  0  0  0  0  0  0  0  0
  -30.5810  -16.6730   17.9770 H   0  0  0  0  0  0  0  0  0  0  0  0
  -29.8680  -18.1100   18.3310 H   0  0  0  0  0  0  0  0  0  0  0  0
  -30.1000  -15.6220   20.6120 C   0  0  0  0  0  2  0  0  0  0  0  0
  -30.7800  -14.3900   19.9240 C   0  0  0  0  0  0  0  0  0  0  0  0
  -30.4300  -12.2170   18.7740 C   0  0  0  0  0  2  0  0  0  0  0  0
  -29.4190  -12.4290   17.6260 C   0  0  0  0  0  2  0  0  0  0  0  0
  -27.9680  -12.3130   18.1340 C   0  0  0  0  0  2  0  0  0  0  0  0
  -27.7160  -13.1490   19.4180 C   0  0  0  0  0  3  0  0  0  0  0  0
  -28.8280  -12.8860   20.4600 C   0  0  0  0  0  2  0  0  0  0  0  0
  -30.1180  -13.1980   19.8280 N   0  0  0  0  0  0  0  0  0  0  0  0
  -31.8770  -14.5580   19.3820 O   0  0  0  0  0  0  0  0  0  0  0  0
  -25.3700  -13.8210   20.2370 C   0  0  0  0  0  0  0  0  0  0  0  0
  -24.3040  -13.0780   20.6680 C   0  0  0  0  0  0  0  0  0  0  0  0
  -24.7330  -11.7160   20.6300 C   0  0  0  0  0  0  0  0  0  0  0  0
  -26.3830  -12.9130   19.9660 N   0  0  0  0  0  0  0  0  0  0  0  0
  -26.0050  -11.6430   20.2600 N   0  0  0  0  0  0  0  0  0  0  0  0
  -23.9890  -10.4730   20.8710 C   0  0  0  0  0  0  0  0  0  0  0  0
  -24.4320   -9.5190   21.8130 C   0  0  0  0  0  3  0  0  0  0  0  0
  -23.6900   -8.3400   22.0400 C   0  0  0  0  0  3  0  0  0  0  0  0
  -22.4920   -8.1080   21.3250 C   0  0  0  0  0  0  0  0  0  0  0  0
  -22.0670   -9.0500   20.3710 C   0  0  0  0  0  3  0  0  0  0  0  0
  -22.8100  -10.2210   20.1430 C   0  0  0  0  0  3  0  0  0  0  0  0
  -21.7190   -6.9800   21.4610 O   0  0  0  0  0  0  0  0  0  0  0  0
  -21.6760   -6.2740   22.6360 C   0  0  0  0  0  0  0  0  0  0  0  0
  -21.2910   -6.8790   23.8520 C   0  0  0  0  0  3  0  0  0  0  0  0
  -21.1920   -6.1010   25.0250 C   0  0  0  0  0  3  0  0  0  0  0  0
  -21.4690   -4.7220   24.9800 C   0  0  0  0  0  0  0  0  0  0  0  0
  -21.8470   -4.1170   23.7690 C   0  0  0  0  0  3  0  0  0  0  0  0
  -21.9470   -4.8910   22.5990 C   0  0  0  0  0  0  0  0  0  0  0  0
  -22.2910   -4.3010   21.4290 F   0  0  0  0  0  0  0  0  0  0  0  0
  -21.3660   -3.9730   26.1030 F   0  0  0  0  0  0  0  0  0  0  0  0
  -22.9330  -13.5910   21.0020 C   0  0  0  0  0  0  0  0  0  0  0  0
  -22.2370  -12.9300   21.9210 N   0  0  0  0  0  0  0  0  0  0  0  0
  -22.4890  -14.6140   20.4820 O   0  0  0  0  0  0  0  0  0  0  0  0
  -22.6100  -12.1040   22.3650 H   0  0  0  0  0  0  0  0  0  0  0  0
  -21.3190  -13.2580   22.1850 H   0  0  0  0  0  0  0  0  0  0  0  0
  -25.5540  -15.1860   20.0360 N   0  0  0  0  0  0  0  0  0  0  0  0
  -24.8000  -15.8510   20.1660 H   0  0  0  0  0  0  0  0  0  0  0  0
  -26.3820  -15.6030   19.6340 H   0  0  0  0  0  0  0  0  0  0  0  0
  -28.5570  -25.1470   19.8380 C   0  0  0  0  0  2  0  0  0  0  0  0
  -28.4860  -26.5960   19.9630 O   0  0  0  0  0  0  0  0  0  0  0  0
  -24.5400  -31.6850   23.0430 C   0  0  0  0  0  0  0  0  0  0  0  0
  -27.2810  -27.2800   19.9510 C   0  0  0  0  0  0  0  0  0  0  0  0
  -23.3680  -30.2760   21.3830 C   0  0  0  0  0  3  0  0  0  0  0  0
  -24.8560  -28.7640   19.9570 C   0  0  0  0  0  0  0  0  0  0  0  0
  -25.8900  -30.6720   21.2020 C   0  0  0  0  0  2  0  0  0  0  0  0
  -26.0020  -29.3030   20.5520 C   0  0  0  0  0  0  0  0  0  0  0  0
  -27.2150  -28.5710   20.5380 C   0  0  0  0  0  3  0  0  0  0  0  0
  -26.1120  -26.7570   19.3560 C   0  0  0  0  0  3  0  0  0  0  0  0
  -24.9070  -27.4930   19.3550 C   0  0  0  0  0  3  0  0  0  0  0  0
  -23.5980  -29.6040   20.0010 C   0  0  0  0  0  2  0  0  0  0  0  0
  -24.6170  -30.8940   21.9340 N   0  0  0  0  0  0  0  0  0  0  0  0
  -23.4510  -31.9360   23.5790 O   0  0  0  0  0  0  0  0  0  0  0  0
  -22.7250  -29.2410   22.3330 C   0  0  0  0  0  0  0  0  0  0  0  0
  -21.4000  -29.0610   22.2160 N   0  0  0  0  0  0  0  0  0  0  0  0
  -23.4160  -28.6020   23.1310 O   0  0  0  0  0  0  0  0  0  0  0  0
  -20.9020  -29.6280   21.5440 H   0  0  0  0  0  0  0  0  0  0  0  0
  -18.0310  -27.8510   22.7230 C   0  0  0  0  0  0  0  0  0  0  0  0
  -20.5910  -28.1060   22.9760 C   0  0  0  0  0  3  0  0  0  0  0  0
  -20.6890  -26.6880   22.3690 C   0  0  0  0  0  2  0  0  0  0  0  0
  -19.5790  -26.3840   21.3600 C   0  0  0  0  0  2  0  0  0  0  0  0
  -18.2030  -26.5160   22.0190 C   0  0  0  0  0  2  0  0  0  0  0  0
  -19.1540  -28.6060   23.1580 C   0  0  0  0  0  0  0  0  0  0  0  0
  -18.9400  -29.8570   23.7750 C   0  0  0  0  0  3  0  0  0  0  0  0
  -17.6370  -30.3550   23.9620 C   0  0  0  0  0  3  0  0  0  0  0  0
  -16.5290  -29.5970   23.5450 C   0  0  0  0  0  3  0  0  0  0  0  0
  -16.7270  -28.3460   22.9310 C   0  0  0  0  0  3  0  0  0  0  0  0
  -25.8110  -32.3340   23.6770 C   0  0  0  0  0  3  0  0  0  0  0  0
  -26.3620  -31.5330   24.9210 C   0  0  1  0  0  0  0  0  0  0  0  0
  -25.2880  -31.2290   25.9910 C   0  0  0  0  0  1  0  0  0  0  0  0
  -26.9750  -30.1850   24.4730 C   0  0  0  0  0  1  0  0  0  0  0  0
  -27.5000  -32.3330   25.5980 C   0  0  0  0  0  1  0  0  0  0  0  0
  -25.4630  -33.7080   24.0600 N   0  0  0  0  0  0  0  0  0  0  0  0
  -25.7810  -34.7990   23.3500 C   0  0  0  0  0  0  0  0  0  0  0  0
  -26.4690  -34.7540   22.3260 O   0  0  0  0  0  0  0  0  0  0  0  0
  -24.8540  -33.8170   24.8570 H   0  0  0  0  0  0  0  0  0  0  0  0
  -24.0130  -36.5610   23.0440 C   0  0  0  0  0  1  0  0  0  0  0  0
  -25.2540  -36.1560   23.8550 C   0  0  0  0  0  3  0  0  0  0  0  0
  -27.3570  -37.0580   24.7460 C   0  0  0  0  0  1  0  0  0  0  0  0
  -26.2620  -37.2380   23.7980 N   0  0  0  0  0  0  0  0  0  0  0  0
  -25.8300  -38.1400   23.9780 H   0  0  0  0  0  0  0  0  0  0  0  0
  1  2  1  0
  3  1  2  0
  4  2  2  0
  5  6  2  0
  5  3  1  0
  6  4  1  0
  7  5  1  0
  7  8  2  0
  9 10  1  0
 10  8  1  0
 10 12  1  0
 12 11  1  0
 13 18  1  0
 13 12  1  0
 14 13  1  0
 15 14  1  0
 16 14  1  0
 17 14  1  0
 19 18  1  0
 20 25  1  0
 21 22  1  0
 21 20  1  0
 23 22  1  0
 23 30  1  0
 23 24  1  0
 25 19  1  0
 25 24  1  0
 26 19  2  0
 27 28  2  0
 28 47  1  0
 29 28  1  0
 29 32  1  0
 30 27  1  0
 30 31  1  0
 31 29  2  0
 32 33  1  0
 33 34  2  0
 35 38  1  0
 35 34  1  0
 36 35  2  0
 37 36  1  0
 37 32  2  0
 38 39  1  0
 39 40  1  0
 40 41  2  0
 42 41  1  0
 42 46  1  0
 43 42  2  0
 44 39  2  0
 44 43  1  0
 45 44  1  0
 47 48  1  0
 48 51  1  0
 48 50  1  0
 49 47  2  0
 52 53  1  0
 52 27  1  0
 54 52  1  0
 55 56  1  0
 55  6  1  0
 57 68  2  0
 58 56  1  0
 58 63  1  0
 59 67  1  0
 59 69  1  0
 60 66  1  0
 60 62  1  0
 61 67  1  0
 62 61  1  0
 63 62  2  0
 64 58  2  0
 65 64  1  0
 65 60  2  0
 66 59  1  0
 67 57  1  0
 69 71  2  0
 70 69  1  0
 72 70  1  0
 73 82  2  0
 73 78  1  0
 74 70  1  0
 74 78  1  0
 75 74  1  0
 76 77  1  0
 76 75  1  0
 77 73  1  0
 78 79  2  0
 79 80  1  0
 81 80  2  0
 82 81  1  0
 83 57  1  0
 83 88  1  0
 83 84  1  0
 84 87  1  1
 84 85  1  0
 86 84  1  0
 88 91  1  0
 89 93  1  0
 89 88  1  0
 90 89  2  0
 93 92  1  0
 95 93  1  0
 95 96  1  0
 95 94  1  0
M  ISO  4  18 100  19 100  55 101  56 101
M  END
>  <TORSDO>  (74) 
F 24

>  <SCORE>  (74) 
-11.456

>  <name>  (74) 
74

>  <ligand_id>  (74) 
74

>  <original_smiles>  (74) 
[H]c1c([H])c([H])c(C([H])([H])C([H])([H])N(C([H])([H])[H])C([H])(C([H])([H])[H])C([H])(C([H])([H])C(=O)N2C([H])([H])C([H])([H])C([H])([H])C([H])(n3nc(-c4c([H])c([H])c(Oc5c([H])c([H])c(F)c([H])c5F)c([H])c4[H])c(C(=O)N([H])[H])c3N([H])[H])C2([H])[H])[N+]([H])([H])[H])c(C([H])([H])Oc2c([H])c([H])c3c(c2[H])C([H])([H])N(C(=O)C([H])(N([H])C(=O)C([H])(N([H])C([H])([H])[H])C([H])([H])[H])C(C([H])([H])[H])(C([H])([H])[H])C([H])([H])[H])C([H])(C(=O)N([H])C2([H])c4c([H])c([H])c([H])c([H])c4C([H])([H])C([H])([H])C2([H])[H])C3([H])[H])c1[H]

>  <smiles>  (74) 
[H]c1c([H])c([H])c(C([H])([H])C([H])([H])N(C([H])([H])[H])C([H])(C([H])([H])[H])C([H])(C([H])([H])C(=O)N2C([H])([H])C([H])([H])C([H])([H])C([H])(n3nc(-c4c([H])c([H])c(Oc5c([H])c([H])c(F)c([H])c5F)c([H])c4[H])c(C(=O)N([H])[H])c3N([H])[H])C2([H])[H])[N+]([H])([H])[H])c(C([H])([H])Oc2c([H])c([H])c3c(c2[H])C([H])([H])N(C(=O)C([H])(N([H])C(=O)C([H])(N([H])C([H])([H])[H])C([H])([H])[H])C(C([H])([H])[H])(C([H])([H])[H])C([H])([H])[H])C([H])(C(=O)N([H])C2([H])c4c([H])c([H])c([H])c([H])c4C([H])([H])C([H])([H])C2([H])[H])C3([H])[H])c1[H]

$$$$
75:0:0
     RDKit          3D

 87 92  0  0  1  0  0  0  0  0999 V2000
  -29.8080  -19.0450   21.2290 C   0  0  0  0  0  0  0  0  0  0  0  0
  -29.3210  -20.6210   21.3420 C   0  0  0  0  0  2  0  0  0  0  0  0
  -29.2110  -21.4500   19.9680 C   0  0  0  0  0  2  0  0  0  0  0  0
  -29.4190  -18.1810   19.9440 C   0  0  0  0  0  3  0  0  0  0  0  0
  -27.9450  -17.7650   20.1070 C   0  0  0  0  0  1  0  0  0  0  0  0
  -29.2710  -19.8150   19.2510 N   0  0  0  0  0  4  0  0  0  0  0  0
  -30.4590  -18.5510   22.1510 O   0  0  0  0  0  0  0  0  0  0  0  0
  -30.2320  -19.8430   19.5540 H   0  0  0  0  0  0  0  0  0  0  0  0
  -28.4370  -19.7340   19.8080 H   0  0  0  0  0  0  0  0  0  0  0  0
  -30.2630  -16.3340   19.6590 C   0  0  0  0  0  2  0  0  0  0  0  0
  -30.5090  -13.6580   18.8950 C   0  0  0  0  0  2  0  0  0  0  0  0
  -29.5880  -13.0460   17.7800 C   0  0  0  0  0  2  0  0  0  0  0  0
  -28.2400  -12.5800   18.3430 C   0  0  0  0  0  2  0  0  0  0  0  0
  -27.7290  -13.5930   19.3830 C   0  0  0  0  0  3  0  0  0  0  0  0
  -28.8030  -14.0790   20.3980 C   0  0  0  0  0  2  0  0  0  0  0  0
  -29.8570  -14.8600   19.6640 N   0  0  0  0  0  0  0  0  0  0  0  0
  -31.4780  -16.2130   19.3470 O   0  0  0  0  0  1  0  0  0  0  0  0
  -25.4530  -14.0510   20.3870 C   0  0  0  0  0  0  0  0  0  0  0  0
  -24.4300  -13.2550   20.8110 C   0  0  0  0  0  0  0  0  0  0  0  0
  -24.8930  -11.9090   20.6710 C   0  0  0  0  0  0  0  0  0  0  0  0
  -26.4710  -13.2020   20.0080 N   0  0  0  0  0  0  0  0  0  0  0  0
  -26.1550  -11.8970   20.2400 N   0  0  0  0  0  0  0  0  0  0  0  0
  -24.1750  -10.6410   20.8650 C   0  0  0  0  0  0  0  0  0  0  0  0
  -24.6070   -9.6780   21.8030 C   0  0  0  0  0  3  0  0  0  0  0  0
  -23.8810   -8.4810   21.9880 C   0  0  0  0  0  3  0  0  0  0  0  0
  -22.7080   -8.2380   21.2360 C   0  0  0  0  0  0  0  0  0  0  0  0
  -22.2930   -9.1880   20.2870 C   0  0  0  0  0  3  0  0  0  0  0  0
  -23.0190  -10.3760   20.1000 C   0  0  0  0  0  3  0  0  0  0  0  0
  -21.9540   -7.0920   21.3290 O   0  0  0  0  0  0  0  0  0  0  0  0
  -21.8160   -6.4150   22.5160 C   0  0  0  0  0  0  0  0  0  0  0  0
  -21.2110   -7.0080   23.6450 C   0  0  0  0  0  3  0  0  0  0  0  0
  -21.0270   -6.2550   24.8220 C   0  0  0  0  0  3  0  0  0  0  0  0
  -21.4370   -4.9090   24.8690 C   0  0  0  0  0  0  0  0  0  0  0  0
  -22.0330   -4.3150   23.7430 C   0  0  0  0  0  3  0  0  0  0  0  0
  -22.2200   -5.0660   22.5690 C   0  0  0  0  0  0  0  0  0  0  0  0
  -22.7760   -4.4820   21.4800 F   0  0  0  0  0  0  0  0  0  0  0  0
  -21.2530   -4.1820   25.9960 F   0  0  0  0  0  0  0  0  0  0  0  0
  -23.0650  -13.7210   21.2200 C   0  0  0  0  0  0  0  0  0  0  0  0
  -22.4170  -13.0000   22.1270 N   0  0  0  0  0  0  0  0  0  0  0  0
  -22.5870  -14.7630   20.7720 O   0  0  0  0  0  0  0  0  0  0  0  0
  -22.8220  -12.1580   22.5090 H   0  0  0  0  0  0  0  0  0  0  0  0
  -21.5050  -13.2930   22.4430 H   0  0  0  0  0  0  0  0  0  0  0  0
  -25.5910  -15.4290   20.2560 N   0  0  0  0  0  0  0  0  0  0  0  0
  -24.8230  -16.0640   20.4500 H   0  0  0  0  0  0  0  0  0  0  0  0
  -26.3770  -15.8790   19.8100 H   0  0  0  0  0  0  0  0  0  0  0  0
  -28.3050  -23.3800   19.7790 C   0  0  0  0  0 15  0  0  0  0  0  0
  -28.3130  -25.2750   20.1160 O   0  0  0  0  0  1  0  0  0  0  0  0
  -24.7670  -31.7910   23.2650 C   0  0  0  0  0  0  0  0  0  0  0  0
  -27.3640  -26.6170   20.1000 C   0  0  0  0  0  0  0  0  0  0  0  0
  -23.6230  -30.4530   21.5520 C   0  0  0  0  0  3  0  0  0  0  0  0
  -25.1050  -28.8210   20.1020 C   0  0  0  0  0  0  0  0  0  0  0  0
  -26.2140  -30.5320   21.5040 C   0  0  0  0  0  2  0  0  0  0  0  0
  -26.2950  -29.0990   20.7830 C   0  0  0  0  0  0  0  0  0  0  0  0
  -27.3910  -28.0380   20.7430 C   0  0  0  0  0  3  0  0  0  0  0  0
  -26.1340  -26.6300   19.3660 C   0  0  0  0  0  3  0  0  0  0  0  0
  -25.0820  -27.6180   19.3700 C   0  0  0  0  0  3  0  0  0  0  0  0
  -23.9020  -29.7960   20.1650 C   0  0  0  0  0  2  0  0  0  0  0  0
  -24.8950  -30.9640   22.1610 N   0  0  0  0  0  0  0  0  0  0  0  0
  -23.6580  -32.0730   23.7570 O   0  0  0  0  0  0  0  0  0  0  0  0
  -22.8720  -29.4540   22.4780 C   0  0  0  0  0  0  0  0  0  0  0  0
  -21.5460  -29.2830   22.3030 N   0  0  0  0  0  0  0  0  0  0  0  0
  -23.5030  -28.8260   23.3310 O   0  0  0  0  0  0  0  0  0  0  0  0
  -21.0810  -29.8420   21.6010 H   0  0  0  0  0  0  0  0  0  0  0  0
  -18.1710  -27.9650   22.6690 C   0  0  0  0  0  0  0  0  0  0  0  0
  -20.7140  -28.3050   23.0210 C   0  0  0  0  0  3  0  0  0  0  0  0
  -20.8750  -26.8920   22.4160 C   0  0  0  0  0  2  0  0  0  0  0  0
  -19.8190  -26.5650   21.3550 C   0  0  0  0  0  2  0  0  0  0  0  0
  -18.4120  -26.6460   21.9550 C   0  0  0  0  0  2  0  0  0  0  0  0
  -19.2500  -28.7520   23.1550 C   0  0  0  0  0  0  0  0  0  0  0  0
  -18.9660  -29.9810   23.7890 C   0  0  0  0  0  3  0  0  0  0  0  0
  -17.6390  -30.4260   23.9360 C   0  0  0  0  0  3  0  0  0  0  0  0
  -16.5760  -29.6390   23.4620 C   0  0  0  0  0  3  0  0  0  0  0  0
  -16.8420  -28.4090   22.8360 C   0  0  0  0  0  3  0  0  0  0  0  0
  -26.0020  -32.4340   23.9650 C   0  0  0  0  0  3  0  0  0  0  0  0
  -25.6870  -33.8470   24.2750 N   0  0  0  0  0  0  0  0  0  0  0  0
  -26.0170  -34.9030   23.5190 C   0  0  0  0  0  0  0  0  0  0  0  0
  -26.6690  -34.7920   22.4790 O   0  0  0  0  0  0  0  0  0  0  0  0
  -25.1010  -34.0060   25.0820 H   0  0  0  0  0  0  0  0  0  0  0  0
  -24.2710  -36.7040   23.2440 C   0  0  0  0  0  1  0  0  0  0  0  0
  -25.5580  -36.3030   23.9850 C   0  0  0  0  0  3  0  0  0  0  0  0
  -27.7240  -37.2280   24.6910 C   0  0  0  0  0  1  0  0  0  0  0  0
  -26.5800  -37.3580   23.7920 N   0  0  0  0  0  0  0  0  0  0  0  0
  -26.1750  -38.2810   23.9260 H   0  0  0  0  0  0  0  0  0  0  0  0
  -26.4150  -31.6870   25.2950 C   0  0  1  0  0  0  0  0  0  0  0  0
  -25.2480  -31.4950   26.2940 C   0  0  0  0  0  1  0  0  0  0  0  0
  -26.9950  -30.2890   24.9920 C   0  0  0  0  0  1  0  0  0  0  0  0
  -27.5360  -32.4750   26.0130 C   0  0  0  0  0  1  0  0  0  0  0  0
  1  2  1  0
  1  7  2  0
  3  2  1  0
  4  5  1  0
  4  1  1  0
  6  8  1  0
  6  9  1  0
  6  4  1  0
  6  3  1  0
 10 16  1  0
 11 16  1  0
 12 13  1  0
 12 11  1  0
 14 13  1  0
 14 21  1  0
 14 15  1  0
 16 15  1  0
 17 10  1  0
 18 19  2  0
 19 38  1  0
 20 19  1  0
 20 23  1  0
 21 22  1  0
 21 18  1  0
 22 20  2  0
 23 24  1  0
 24 25  2  0
 26 29  1  0
 26 25  1  0
 27 26  2  0
 28 27  1  0
 28 23  2  0
 29 30  1  0
 30 35  2  0
 30 31  1  0
 31 32  2  0
 32 33  1  0
 33 37  1  0
 34 33  2  0
 35 34  1  0
 36 35  1  0
 38 39  1  0
 39 42  1  0
 39 41  1  0
 40 38  2  0
 43 18  1  0
 43 44  1  0
 45 43  1  0
 48 59  2  0
 49 47  1  0
 49 54  1  0
 50 58  1  0
 50 60  1  0
 51 57  1  0
 51 53  1  0
 52 58  1  0
 53 52  1  0
 54 53  2  0
 55 56  1  0
 55 49  2  0
 56 51  2  0
 57 50  1  0
 58 48  1  0
 60 62  2  0
 61 60  1  0
 63 61  1  0
 64 73  2  0
 64 69  1  0
 65 61  1  0
 65 69  1  0
 66 65  1  0
 67 68  1  0
 67 66  1  0
 68 64  1  0
 69 70  2  0
 70 71  1  0
 72 71  2  0
 73 72  1  0
 74 48  1  0
 74 75  1  0
 74 84  1  0
 75 78  1  0
 76 80  1  0
 76 75  1  0
 77 76  2  0
 80 79  1  0
 82 83  1  0
 82 80  1  0
 82 81  1  0
 84 87  1  1
 84 85  1  0
 86 84  1  0
M  ISO  4   4 100  10 100  46 101  47 101
M  END
>  <TORSDO>  (75) 
F 17

>  <SCORE>  (75) 
-15.711

>  <name>  (75) 
75

>  <ligand_id>  (75) 
75

>  <original_smiles>  (75) 
[H]c1c([H])c([H])c2c(c1[H])C([H])([H])C([H])([H])C([H])([H])C2([H])N([H])C(=O)C1([H])N(C(=O)C([H])(N([H])C(=O)C([H])(N([H])C([H])([H])[H])C([H])([H])[H])C(C([H])([H])[H])(C([H])([H])[H])C([H])([H])[H])C([H])([H])c2c([H])c(OC([H])([H])C3([H])C([H])([H])C(=O)C(C(=O)N4C([H])([H])C([H])([H])C([H])([H])C([H])(n5nc(-c6c([H])c([H])c(Oc7c([H])c([H])c(F)c([H])c7F)c([H])c6[H])c(C(=O)N([H])[H])c5N([H])[H])C4([H])[H])(C([H])([H])[H])[N+]3([H])[H])c([H])c([H])c2C1([H])[H]

>  <smiles>  (75) 
[H]c1c([H])c([H])c2c(c1[H])C([H])([H])C([H])([H])C([H])([H])C2([H])N([H])C(=O)C1([H])N(C(=O)C([H])(N([H])C(=O)C([H])(N([H])C([H])([H])[H])C([H])([H])[H])C(C([H])([H])[H])(C([H])([H])[H])C([H])([H])[H])C([H])([H])c2c([H])c(OC([H])([H])C3([H])C([H])([H])C(=O)C(C(=O)N4C([H])([H])C([H])([H])C([H])([H])C([H])(n5nc(-c6c([H])c([H])c(Oc7c([H])c([H])c(F)c([H])c7F)c([H])c6[H])c(C(=O)N([H])[H])c5N([H])[H])C4([H])[H])(C([H])([H])[H])[N+]3([H])[H])c([H])c([H])c2C1([H])[H]

$$$$
76:0:0
     RDKit          3D

 98104  0  0  1  0  0  0  0  0999 V2000
  -22.4280  -23.8400   24.6110 C   0  0  0  0  0  3  0  0  0  0  0  0
  -23.5630  -23.1590   24.0880 C   0  0  0  0  0  3  0  0  0  0  0  0
  -22.3240  -25.2380   24.8690 C   0  0  0  0  0  3  0  0  0  0  0  0
  -24.5660  -25.3580   24.0470 C   0  0  0  0  0  3  0  0  0  0  0  0
  -24.7800  -23.7930   23.7650 C   0  0  0  0  0  0  0  0  0  0  0  0
  -23.3220  -26.2080   24.5930 C   0  0  0  0  0  0  0  0  0  0  0  0
  -26.1340  -22.6330   23.3030 C   0  0  0  0  0  3  0  0  0  0  0  0
  -26.3720  -20.8640   22.6010 C   0  0  0  0  0  3  0  0  0  0  0  0
  -27.7060  -19.7350   22.4590 N   0  0  2  0  0  4  0  0  0  0  0  0
  -27.7160  -19.3550   23.3940 H   0  0  0  0  0  0  0  0  0  0  0  0
  -29.4460  -20.9530   23.7870 C   0  0  0  0  0  1  0  0  0  0  0  0
  -28.9550  -20.5290   22.3970 C   0  0  0  0  0  2  0  0  0  0  0  0
  -27.9860  -18.2680   21.5410 C   0  0  0  0  0  2  0  0  0  0  0  0
  -29.1100  -16.7310   21.7220 C   0  0  0  0  0  2  0  0  0  0  0  0
  -30.0110  -15.3800   20.8160 C   0  0  0  0  0  0  0  0  0  0  0  0
  -30.3910  -12.9700   19.6820 C   0  0  0  0  0  2  0  0  0  0  0  0
  -29.5530  -12.6880   18.3930 C   0  0  0  0  0  2  0  0  0  0  0  0
  -28.1000  -12.3280   18.7450 C   0  0  0  0  0  2  0  0  0  0  0  0
  -27.5770  -13.2550   19.8660 C   0  0  0  0  0  3  0  0  0  0  0  0
  -28.5140  -13.3260   21.0790 C   0  0  0  0  0  2  0  0  0  0  0  0
  -29.7050  -13.9920   20.6000 N   0  0  0  0  0  0  0  0  0  0  0  0
  -31.1690  -15.5590   20.3620 O   0  0  0  0  0  0  0  0  0  0  0  0
  -25.2150  -13.8180   20.5660 C   0  0  0  0  0  0  0  0  0  0  0  0
  -24.1540  -13.0390   20.9220 C   0  0  0  0  0  0  0  0  0  0  0  0
  -24.6180  -11.6880   20.8720 C   0  0  0  0  0  0  0  0  0  0  0  0
  -26.2430  -12.9360   20.3040 N   0  0  0  0  0  0  0  0  0  0  0  0
  -25.9050  -11.6500   20.5580 N   0  0  0  0  0  0  0  0  0  0  0  0
  -23.8950  -10.4260   21.0420 C   0  0  0  0  0  0  0  0  0  0  0  0
  -24.3560   -9.4190   21.9190 C   0  0  0  0  0  3  0  0  0  0  0  0
  -23.6270   -8.2220   22.0750 C   0  0  0  0  0  3  0  0  0  0  0  0
  -22.4250   -8.0240   21.3540 C   0  0  0  0  0  0  0  0  0  0  0  0
  -21.9850   -9.0200   20.4640 C   0  0  0  0  0  3  0  0  0  0  0  0
  -22.7140  -10.2090   20.3050 C   0  0  0  0  0  3  0  0  0  0  0  0
  -21.6620   -6.8840   21.4240 O   0  0  0  0  0  0  0  0  0  0  0  0
  -21.6840   -6.0720   22.5290 C   0  0  0  0  0  0  0  0  0  0  0  0
  -21.4010   -6.5630   23.8210 C   0  0  0  0  0  3  0  0  0  0  0  0
  -21.3660   -5.6790   24.9180 C   0  0  0  0  0  3  0  0  0  0  0  0
  -21.6040   -4.3050   24.7230 C   0  0  0  0  0  0  0  0  0  0  0  0
  -21.8820   -3.8130   23.4360 C   0  0  0  0  0  3  0  0  0  0  0  0
  -21.9190   -4.6950   22.3410 C   0  0  0  0  0  0  0  0  0  0  0  0
  -22.1660   -4.2130   21.0990 F   0  0  0  0  0  0  0  0  0  0  0  0
  -21.5630   -3.4540   25.7750 F   0  0  0  0  0  0  0  0  0  0  0  0
  -22.7610  -13.5180   21.1930 C   0  0  0  0  0  0  0  0  0  0  0  0
  -22.0300  -12.8170   22.0500 N   0  0  0  0  0  0  0  0  0  0  0  0
  -22.3320  -14.5510   20.6790 O   0  0  0  0  0  0  0  0  0  0  0  0
  -22.3930  -11.9820   22.4860 H   0  0  0  0  0  0  0  0  0  0  0  0
  -21.0930  -13.1190   22.2760 H   0  0  0  0  0  0  0  0  0  0  0  0
  -25.3920  -15.1920   20.4190 N   0  0  0  0  0  0  0  0  0  0  0  0
  -24.6180  -15.8410   20.5110 H   0  0  0  0  0  0  0  0  0  0  0  0
  -26.2230  -15.6170   20.0290 H   0  0  0  0  0  0  0  0  0  0  0  0
  -22.7990  -27.9700   25.0550 C   0  0  0  0  0  2  0  0  0  0  0  0
  -21.9390  -29.4100   24.3100 N   0  0  0  0  0  4  0  0  0  0  0  0
  -22.4060  -30.2080   24.7180 H   0  0  0  0  0  0  0  0  0  0  0  0
  -21.0500  -29.3890   24.7860 H   0  0  0  0  0  0  0  0  0  0  0  0
  -21.4600  -29.9840   22.6010 C   0  0  0  0  0  1  0  0  0  0  0  0
  -21.7570  -29.0830   20.7760 C   0  0  0  0  0 15  0  0  0  0  0  0
  -23.1940  -27.7420   20.1520 C   0  0  0  0  0  1  0  0  0  0  0  0
  -24.8660  -27.1640   20.6560 O   0  0  0  0  0  0  0  0  0  0  0  0
  -24.7580  -31.8290   23.2390 C   0  0  0  0  0  0  0  0  0  0  0  0
  -26.2500  -27.2900   20.2580 C   0  0  0  0  0  3  0  0  0  0  0  0
  -23.8890  -30.2240   21.6060 C   0  0  0  0  0  3  0  0  0  0  0  0
  -25.2810  -29.5270   19.6280 C   0  0  0  0  0  3  0  0  0  0  0  0
  -26.2650  -30.7990   21.5240 C   0  0  0  0  0  2  0  0  0  0  0  0
  -26.2580  -29.5910   20.6090 C   0  0  0  0  0  3  0  0  0  0  0  0
  -26.9340  -28.3960   20.8450 C   0  0  0  0  0  2  0  0  0  0  0  0
  -26.0920  -27.3520   18.9090 C   0  0  0  0  0  2  0  0  0  0  0  0
  -25.3160  -28.4910   18.6430 C   0  0  0  0  0  2  0  0  0  0  0  0
  -24.0970  -30.3070   20.0090 C   0  0  0  0  0  2  0  0  0  0  0  0
  -24.9660  -30.9980   22.1880 N   0  0  0  0  0  0  0  0  0  0  0  0
  -23.6350  -32.0440   23.7250 O   0  0  0  0  0  0  0  0  0  0  0  0
  -23.6800  -28.7520   22.4930 C   0  0  0  0  0  0  0  0  0  0  0  0
  -22.4930  -27.7630   22.6080 N   0  0  0  0  0  0  0  0  0  0  0  0
  -24.5610  -28.5440   23.2660 O   0  0  0  0  0  0  0  0  0  0  0  0
  -22.9280  -26.8950   22.9060 H   0  0  0  0  0  0  0  0  0  0  0  0
  -18.0960  -27.9780   22.7620 C   0  0  0  0  0  0  0  0  0  0  0  0
  -20.8000  -27.5680   22.9530 C   0  0  0  0  0  3  0  0  0  0  0  0
  -20.5000  -26.2920   22.2670 C   0  0  0  0  0  2  0  0  0  0  0  0
  -19.3510  -26.3690   21.3000 C   0  0  0  0  0  2  0  0  0  0  0  0
  -18.0630  -26.6610   22.0410 C   0  0  0  0  0  2  0  0  0  0  0  0
  -19.3430  -28.4890   23.2500 C   0  0  0  0  0  0  0  0  0  0  0  0
  -19.0690  -29.7030   24.0410 C   0  0  0  0  0  3  0  0  0  0  0  0
  -17.8290  -30.3940   24.1260 C   0  0  0  0  0  3  0  0  0  0  0  0
  -16.6790  -29.8300   23.5780 C   0  0  0  0  0  3  0  0  0  0  0  0
  -16.8250  -28.5990   22.9340 C   0  0  0  0  0  3  0  0  0  0  0  0
  -25.9830  -32.4990   23.8900 C   0  0  0  0  0  3  0  0  0  0  0  0
  -25.6110  -33.8700   24.2540 N   0  0  0  0  0  0  0  0  0  0  0  0
  -25.9040  -34.9510   23.5180 C   0  0  0  0  0  0  0  0  0  0  0  0
  -26.5550  -34.8900   22.4710 O   0  0  0  0  0  0  0  0  0  0  0  0
  -25.0320  -33.9860   25.0730 H   0  0  0  0  0  0  0  0  0  0  0  0
  -24.1480  -36.7330   23.2590 C   0  0  0  0  0  1  0  0  0  0  0  0
  -25.4080  -36.3150   24.0320 C   0  0  0  0  0  3  0  0  0  0  0  0
  -27.5570  -37.1830   24.8460 C   0  0  0  0  0  1  0  0  0  0  0  0
  -26.4290  -37.3820   23.9400 N   0  0  0  0  0  0  0  0  0  0  0  0
  -26.0190  -38.2910   24.1390 H   0  0  0  0  0  0  0  0  0  0  0  0
  -26.4910  -31.6860   25.1380 C   0  0  1  0  0  0  0  0  0  0  0  0
  -25.3860  -31.3880   26.1790 C   0  0  0  0  0  1  0  0  0  0  0  0
  -27.1250  -30.3340   24.7330 C   0  0  0  0  0  1  0  0  0  0  0  0
  -27.6180  -32.4800   25.8270 C   0  0  0  0  0  1  0  0  0  0  0  0
  1  3  1  0
  2  1  2  0
  4  6  1  0
  5  4  2  0
  5  2  1  0
  6  3  2  0
  6 51  1  0
  7  5  1  0
  8  7  2  0
  9  8  1  0
  9 10  1  1
 12  9  1  0
 12 11  1  0
 13 14  1  0
 13  9  1  0
 15 14  1  0
 16 21  1  0
 17 18  1  0
 17 16  1  0
 19 18  1  0
 19 26  1  0
 19 20  1  0
 21 15  1  0
 21 20  1  0
 22 15  2  0
 23 24  2  0
 24 43  1  0
 25 24  1  0
 25 28  1  0
 26 27  1  0
 26 23  1  0
 27 25  2  0
 28 29  1  0
 29 30  2  0
 31 34  1  0
 31 30  1  0
 32 31  2  0
 33 32  1  0
 33 28  2  0
 34 35  1  0
 35 36  1  0
 36 37  2  0
 38 37  1  0
 38 42  1  0
 39 38  2  0
 40 35  2  0
 40 39  1  0
 41 40  1  0
 43 44  1  0
 44 47  1  0
 44 46  1  0
 45 43  2  0
 48 49  1  0
 48 23  1  0
 50 48  1  0
 52 53  1  0
 52 54  1  0
 52 51  1  0
 55 52  1  0
 57 58  1  0
 59 70  2  0
 60 58  1  0
 60 65  1  0
 61 69  1  0
 61 71  1  0
 62 67  1  0
 62 68  1  0
 62 64  1  0
 63 69  1  0
 64 65  1  0
 64 63  1  0
 66 60  1  0
 67 66  1  0
 68 61  1  0
 69 59  1  0
 71 72  1  0
 71 73  2  0
 72 74  1  0
 75 84  2  0
 75 80  1  0
 76 72  1  0
 76 80  1  0
 77 76  1  0
 78 79  1  0
 78 77  1  0
 79 75  1  0
 80 81  2  0
 81 82  1  0
 83 82  2  0
 84 83  1  0
 85 59  1  0
 85 86  1  0
 85 95  1  0
 86 89  1  0
 87 91  1  0
 87 86  1  0
 88 87  2  0
 91 90  1  0
 93 91  1  0
 93 94  1  0
 93 92  1  0
 95 98  1  1
 95 96  1  0
 97 95  1  0
M  ISO  4  14 100  15 100  57 101  58 101
M  END
>  <TORSDO>  (76) 
F 27

>  <SCORE>  (76) 
20.375

>  <name>  (76) 
76

>  <ligand_id>  (76) 
76

>  <original_smiles>  (76) 
[H]c1c([H])c([H])c2c(c1[H])C([H])([H])C([H])([H])C([H])([H])C2([H])N([H])C(=O)C1([H])N(C(=O)C([H])(N([H])C(=O)C([H])(N([H])C([H])([H])[H])C([H])([H])[H])C(C([H])([H])[H])(C([H])([H])[H])C([H])([H])[H])C([H])([H])c2c([H])c(OC([H])([H])C([H])([H])C([H])([H])[N+]([H])([H])C([H])([H])c3c([H])c([H])c([H])c(C([H])([H])C([H])([H])[N+]([H])(C([H])([H])C([H])([H])[H])C([H])([H])C([H])([H])C(=O)N4C([H])([H])C([H])([H])C([H])([H])C([H])(n5nc(-c6c([H])c([H])c(Oc7c([H])c([H])c(F)c([H])c7F)c([H])c6[H])c(C(=O)N([H])[H])c5N([H])[H])C4([H])[H])c3[H])c([H])c([H])c2C1([H])[H]

>  <smiles>  (76) 
[H]c1c([H])c([H])c2c(c1[H])C([H])([H])C([H])([H])C([H])([H])C2([H])N([H])C(=O)C1([H])N(C(=O)C([H])(N([H])C(=O)C([H])(N([H])C([H])([H])[H])C([H])([H])[H])C(C([H])([H])[H])(C([H])([H])[H])C([H])([H])[H])C([H])([H])c2c([H])c(OC([H])([H])C([H])([H])C([H])([H])[N+]([H])([H])C([H])([H])c3c([H])c([H])c([H])c(C([H])([H])C([H])([H])[N+]([H])(C([H])([H])C([H])([H])[H])C([H])([H])C([H])([H])C(=O)N4C([H])([H])C([H])([H])C([H])([H])C([H])(n5nc(-c6c([H])c([H])c(Oc7c([H])c([H])c(F)c([H])c7F)c([H])c6[H])c(C(=O)N([H])[H])c5N([H])[H])C4([H])[H])c3[H])c([H])c([H])c2C1([H])[H]

$$$$
77:0:0
     RDKit          3D

 89 97  0  0  1  0  0  0  0  0999 V2000
  -32.6720  -21.1610   21.1580 C   0  0  0  0  0  2  0  0  0  0  0  0
  -31.8870  -20.0050   21.7660 C   0  0  0  0  0  2  0  0  0  0  0  0
  -31.6010  -22.2300   21.0760 C   0  0  0  0  0  2  0  0  0  0  0  0
  -30.4370  -20.1350   21.2100 C   0  0  0  0  0  3  0  0  0  0  0  0
  -30.3960  -21.5370   20.5560 N   0  0  1  0  0  4  0  0  0  0  0  0
  -30.5970  -21.3990   19.5750 H   0  0  0  0  0  0  0  0  0  0  0  0
  -30.0270  -18.8160   20.3770 C   0  0  0  0  0  2  0  0  0  0  0  0
  -30.4930  -17.3760   20.9430 C   0  0  0  0  0  2  0  0  0  0  0  0
  -29.7490  -16.0150   20.5390 C   0  0  0  0  0  2  0  0  0  0  0  0
  -30.5780  -14.6620   20.3870 C   0  0  0  0  0  0  0  0  0  0  0  0
  -30.3530  -12.4070   19.3710 C   0  0  0  0  0  2  0  0  0  0  0  0
  -29.4080  -12.5370   18.1540 C   0  0  0  0  0  2  0  0  0  0  0  0
  -27.9350  -12.3830   18.5860 C   0  0  0  0  0  2  0  0  0  0  0  0
  -27.5810  -13.2540   19.8200 C   0  0  0  0  0  3  0  0  0  0  0  0
  -28.6460  -13.1200   20.9320 C   0  0  0  0  0  2  0  0  0  0  0  0
  -29.9560  -13.4390   20.3520 N   0  0  0  0  0  0  0  0  0  0  0  0
  -31.7650  -14.7590   20.0660 O   0  0  0  0  0  0  0  0  0  0  0  0
  -25.1950  -13.8570   20.5540 C   0  0  0  0  0  0  0  0  0  0  0  0
  -24.1260  -13.0840   20.9260 C   0  0  0  0  0  0  0  0  0  0  0  0
  -24.5860  -11.7320   20.8950 C   0  0  0  0  0  0  0  0  0  0  0  0
  -26.2350  -12.9740   20.3150 N   0  0  0  0  0  0  0  0  0  0  0  0
  -25.8760  -11.6910   20.5820 N   0  0  0  0  0  0  0  0  0  0  0  0
  -23.8560  -10.4720   21.0880 C   0  0  0  0  0  0  0  0  0  0  0  0
  -24.3050   -9.4900   21.9980 C   0  0  0  0  0  3  0  0  0  0  0  0
  -23.5750   -8.2960   22.1800 C   0  0  0  0  0  3  0  0  0  0  0  0
  -22.3840   -8.0740   21.4510 C   0  0  0  0  0  0  0  0  0  0  0  0
  -21.9530   -9.0440   20.5300 C   0  0  0  0  0  3  0  0  0  0  0  0
  -22.6830  -10.2300   20.3460 C   0  0  0  0  0  3  0  0  0  0  0  0
  -21.6240   -6.9330   21.5420 O   0  0  0  0  0  0  0  0  0  0  0  0
  -21.6160   -6.1620   22.6770 C   0  0  0  0  0  0  0  0  0  0  0  0
  -21.2630   -6.6950   23.9370 C   0  0  0  0  0  3  0  0  0  0  0  0
  -21.1990   -5.8520   25.0640 C   0  0  0  0  0  3  0  0  0  0  0  0
  -21.4810   -4.4780   24.9350 C   0  0  0  0  0  0  0  0  0  0  0  0
  -21.8280   -3.9460   23.6810 C   0  0  0  0  0  3  0  0  0  0  0  0
  -21.8920   -4.7850   22.5550 C   0  0  0  0  0  0  0  0  0  0  0  0
  -22.2060   -4.2630   21.3450 F   0  0  0  0  0  0  0  0  0  0  0  0
  -21.4130   -3.6680   26.0160 F   0  0  0  0  0  0  0  0  0  0  0  0
  -22.7310  -13.5660   21.2000 C   0  0  0  0  0  0  0  0  0  0  0  0
  -22.0060  -12.8740   22.0720 N   0  0  0  0  0  0  0  0  0  0  0  0
  -22.2930  -14.5900   20.6780 O   0  0  0  0  0  0  0  0  0  0  0  0
  -22.3740  -12.0440   22.5130 H   0  0  0  0  0  0  0  0  0  0  0  0
  -21.0710  -13.1770   22.3010 H   0  0  0  0  0  0  0  0  0  0  0  0
  -25.3610  -15.2260   20.3760 N   0  0  0  0  0  0  0  0  0  0  0  0
  -24.5970  -15.8830   20.4920 H   0  0  0  0  0  0  0  0  0  0  0  0
  -26.2150  -15.6660   20.0560 H   0  0  0  0  0  0  0  0  0  0  0  0
  -29.1570  -22.4350   20.6220 C   0  0  0  0  0  2  0  0  0  0  0  0
  -29.3760  -24.0300   20.4630 C   0  0  0  0  0  3  0  0  0  0  0  0
  -28.1330  -24.9920   20.1960 C   0  0  0  0  0  3  0  0  0  0  0  0
  -28.3250  -26.4660   20.2560 O   0  0  0  0  0  0  0  0  0  0  0  0
  -24.5870  -31.8800   23.2410 C   0  0  0  0  0  0  0  0  0  0  0  0
  -27.1930  -27.3010   20.2060 C   0  0  0  0  0  0  0  0  0  0  0  0
  -23.3760  -30.4730   21.6110 C   0  0  0  0  0  3  0  0  0  0  0  0
  -24.8240  -28.9120   20.1890 C   0  0  0  0  0  0  0  0  0  0  0  0
  -25.9130  -30.7900   21.4160 C   0  0  0  0  0  2  0  0  0  0  0  0
  -25.9930  -29.4070   20.7790 C   0  0  0  0  0  0  0  0  0  0  0  0
  -27.1800  -28.6130   20.7760 C   0  0  0  0  0  3  0  0  0  0  0  0
  -25.9940  -26.8560   19.6000 C   0  0  0  0  0  3  0  0  0  0  0  0
  -24.8270  -27.6430   19.5890 C   0  0  0  0  0  3  0  0  0  0  0  0
  -23.5890  -29.7880   20.2340 C   0  0  0  0  0  2  0  0  0  0  0  0
  -24.6450  -31.0670   22.1470 N   0  0  0  0  0  0  0  0  0  0  0  0
  -23.5060  -32.1630   23.7780 O   0  0  0  0  0  0  0  0  0  0  0  0
  -22.7140  -29.4640   22.5790 C   0  0  0  0  0  0  0  0  0  0  0  0
  -21.3870  -29.2890   22.4570 N   0  0  0  0  0  0  0  0  0  0  0  0
  -23.3940  -28.8410   23.3990 O   0  0  0  0  0  0  0  0  0  0  0  0
  -20.8990  -29.8450   21.7690 H   0  0  0  0  0  0  0  0  0  0  0  0
  -18.0090  -28.0950   22.9530 C   0  0  0  0  0  0  0  0  0  0  0  0
  -20.5650  -28.3570   23.2330 C   0  0  0  0  0  3  0  0  0  0  0  0
  -20.6720  -26.9210   22.6720 C   0  0  0  0  0  2  0  0  0  0  0  0
  -19.5740  -26.5880   21.6560 C   0  0  0  0  0  2  0  0  0  0  0  0
  -18.1900  -26.7380   22.2920 C   0  0  0  0  0  2  0  0  0  0  0  0
  -19.1250  -28.8630   23.3800 C   0  0  0  0  0  0  0  0  0  0  0  0
  -18.9030  -30.1310   23.9560 C   0  0  0  0  0  3  0  0  0  0  0  0
  -17.5970  -30.6320   24.1140 C   0  0  0  0  0  3  0  0  0  0  0  0
  -16.4950  -29.8600   23.7050 C   0  0  0  0  0  3  0  0  0  0  0  0
  -16.7020  -28.5940   23.1290 C   0  0  0  0  0  3  0  0  0  0  0  0
  -25.8740  -32.5120   23.8580 C   0  0  0  0  0  3  0  0  0  0  0  0
  -25.5660  -33.9090   24.1930 N   0  0  0  0  0  0  0  0  0  0  0  0
  -25.8870  -34.9630   23.4320 C   0  0  0  0  0  0  0  0  0  0  0  0
  -26.5430  -34.8630   22.3930 O   0  0  0  0  0  0  0  0  0  0  0  0
  -24.9820  -34.0600   25.0020 H   0  0  0  0  0  0  0  0  0  0  0  0
  -24.1480  -36.7520   23.1130 C   0  0  0  0  0  1  0  0  0  0  0  0
  -25.4060  -36.3500   23.9000 C   0  0  0  0  0  3  0  0  0  0  0  0
  -27.5560  -37.2400   24.6840 C   0  0  0  0  0  1  0  0  0  0  0  0
  -26.4320  -37.4060   23.7660 N   0  0  0  0  0  0  0  0  0  0  0  0
  -26.0270  -38.3230   23.9300 H   0  0  0  0  0  0  0  0  0  0  0  0
  -26.4010  -31.7360   25.1260 C   0  0  1  0  0  0  0  0  0  0  0  0
  -25.3150  -31.5000   26.2030 C   0  0  0  0  0  1  0  0  0  0  0  0
  -26.9790  -30.3580   24.7260 C   0  0  0  0  0  1  0  0  0  0  0  0
  -27.5580  -32.5270   25.7820 C   0  0  0  0  0  1  0  0  0  0  0  0
  1  2  1  0
  3  1  1  0
  4  7  1  0
  4  2  1  0
  5 46  1  0
  5  3  1  0
  5  4  1  0
  5  6  1  6
  7  8  1  0
  9  8  1  0
 10  9  1  0
 11 16  1  0
 12 13  1  0
 12 11  1  0
 14 13  1  0
 14 21  1  0
 14 15  1  0
 16 10  1  0
 16 15  1  0
 17 10  2  0
 18 19  2  0
 19 38  1  0
 20 19  1  0
 20 23  1  0
 21 18  1  0
 21 22  1  0
 22 20  2  0
 23 24  1  0
 24 25  2  0
 26 29  1  0
 26 25  1  0
 27 26  2  0
 28 27  1  0
 28 23  2  0
 29 30  1  0
 30 31  1  0
 31 32  2  0
 33 32  1  0
 33 37  1  0
 34 33  2  0
 35 30  2  0
 35 34  1  0
 36 35  1  0
 38 39  1  0
 39 42  1  0
 39 41  1  0
 40 38  2  0
 43 44  1  0
 43 18  1  0
 45 43  1  0
 47 46  1  0
 48 49  1  0
 48 47  2  0
 50 61  2  0
 51 49  1  0
 51 56  1  0
 52 60  1  0
 52 62  1  0
 53 59  1  0
 53 55  1  0
 54 60  1  0
 55 54  1  0
 56 55  2  0
 57 51  2  0
 58 57  1  0
 58 53  2  0
 59 52  1  0
 60 50  1  0
 62 64  2  0
 63 62  1  0
 65 63  1  0
 66 75  2  0
 66 71  1  0
 67 63  1  0
 67 71  1  0
 68 67  1  0
 69 70  1  0
 69 68  1  0
 70 66  1  0
 71 72  2  0
 72 73  1  0
 74 73  2  0
 75 74  1  0
 76 50  1  0
 76 77  1  0
 76 86  1  0
 77 80  1  0
 78 82  1  0
 78 77  1  0
 79 78  2  0
 82 81  1  0
 84 82  1  0
 84 85  1  0
 84 83  1  0
 86 89  1  1
 86 87  1  0
 88 86  1  0
M  ISO  4   9 100  10 100  48 101  49 101
M  END
>  <TORSDO>  (77) 
F 22

>  <SCORE>  (77) 
-13.071

>  <name>  (77) 
77

>  <ligand_id>  (77) 
77

>  <original_smiles>  (77) 
[H]c1c([H])c([H])c2c(c1[H])C([H])([H])C([H])([H])C([H])([H])C2([H])N([H])C(=O)C1([H])N(C(=O)C([H])(N([H])C(=O)C([H])(N([H])C([H])([H])[H])C([H])([H])[H])C(C([H])([H])[H])(C([H])([H])[H])C([H])([H])[H])C([H])([H])c2c([H])c(OC([H])([H])C([H])([H])C([H])([H])[N+]3([H])C([H])([H])C([H])([H])C([H])([H])C3([H])C([H])([H])C([H])([H])C([H])([H])C(=O)N3C([H])([H])C([H])([H])C([H])([H])C([H])(n4nc(-c5c([H])c([H])c(Oc6c([H])c([H])c(F)c([H])c6F)c([H])c5[H])c(C(=O)N([H])[H])c4N([H])[H])C3([H])[H])c([H])c([H])c2C1([H])[H]

>  <smiles>  (77) 
[H]c1c([H])c([H])c2c(c1[H])C([H])([H])C([H])([H])C([H])([H])C2([H])N([H])C(=O)C1([H])N(C(=O)C([H])(N([H])C(=O)C([H])(N([H])C([H])([H])[H])C([H])([H])[H])C(C([H])([H])[H])(C([H])([H])[H])C([H])([H])[H])C([H])([H])c2c([H])c(OC([H])([H])C([H])([H])C([H])([H])[N+]3([H])C([H])([H])C([H])([H])C([H])([H])C3([H])C([H])([H])C([H])([H])C([H])([H])C(=O)N3C([H])([H])C([H])([H])C([H])([H])C([H])(n4nc(-c5c([H])c([H])c(Oc6c([H])c([H])c(F)c([H])c6F)c([H])c5[H])c(C(=O)N([H])[H])c4N([H])[H])C3([H])[H])c([H])c([H])c2C1([H])[H]

$$$$
78:0:0
     RDKit          3D

 90 98  0  0  1  0  0  0  0  0999 V2000
  -29.9230  -20.8290   20.8190 C   0  0  0  0  0  0  0  0  0  0  0  0
  -29.3390  -21.5940   19.8720 N   0  0  0  0  0  0  0  0  0  0  0  0
  -30.2000  -21.2760   21.9310 O   0  0  0  0  0  0  0  0  0  0  0  0
  -29.0720  -21.0890   19.0350 H   0  0  0  0  0  0  0  0  0  0  0  0
  -30.3950  -19.4030   20.4130 C   0  0  0  0  0  2  0  0  0  0  0  0
  -28.8420  -16.3490   20.6560 C   0  0  0  0  0  2  0  0  0  0  0  0
  -28.7640  -17.6770   21.4160 C   0  0  0  0  0  2  0  0  0  0  0  0
  -31.0780  -16.9710   21.1600 C   0  0  0  0  0  2  0  0  0  0  0  0
  -30.1690  -15.7000   21.0820 C   0  0  0  0  0  3  0  0  0  0  0  0
  -30.1900  -18.2320   21.4310 C   0  0  0  0  0  3  0  0  0  0  0  0
  -30.6980  -14.5400   20.1620 C   0  0  0  0  0  0  0  0  0  0  0  0
  -30.3340  -12.4160   18.9210 C   0  0  0  0  0  2  0  0  0  0  0  0
  -29.3330  -12.6460   17.7700 C   0  0  0  0  0  2  0  0  0  0  0  0
  -27.8830  -12.4730   18.2640 C   0  0  0  0  0  2  0  0  0  0  0  0
  -27.6100  -13.2670   19.5660 C   0  0  0  0  0  3  0  0  0  0  0  0
  -28.7230  -13.0290   20.6170 C   0  0  0  0  0  2  0  0  0  0  0  0
  -30.0110  -13.3670   20.0000 N   0  0  0  0  0  0  0  0  0  0  0  0
  -31.7590  -14.7240   19.5580 O   0  0  0  0  0  0  0  0  0  0  0  0
  -25.2540  -13.8680   20.4110 C   0  0  0  0  0  0  0  0  0  0  0  0
  -24.2080  -13.0900   20.8230 C   0  0  0  0  0  0  0  0  0  0  0  0
  -24.6630  -11.7400   20.7350 C   0  0  0  0  0  0  0  0  0  0  0  0
  -26.2840  -12.9900   20.1100 N   0  0  0  0  0  0  0  0  0  0  0  0
  -25.9340  -11.7040   20.3620 N   0  0  0  0  0  0  0  0  0  0  0  0
  -23.9420  -10.4770   20.9370 C   0  0  0  0  0  0  0  0  0  0  0  0
  -24.3790   -9.5200   21.8800 C   0  0  0  0  0  3  0  0  0  0  0  0
  -23.6640   -8.3180   22.0650 C   0  0  0  0  0  3  0  0  0  0  0  0
  -22.4940   -8.0660   21.3080 C   0  0  0  0  0  0  0  0  0  0  0  0
  -22.0750   -9.0120   20.3550 C   0  0  0  0  0  3  0  0  0  0  0  0
  -22.7930  -10.2050   20.1690 C   0  0  0  0  0  3  0  0  0  0  0  0
  -21.7470   -6.9160   21.4050 O   0  0  0  0  0  0  0  0  0  0  0  0
  -21.6430   -6.2230   22.5820 C   0  0  0  0  0  0  0  0  0  0  0  0
  -21.1440   -6.8210   23.7610 C   0  0  0  0  0  3  0  0  0  0  0  0
  -20.9880   -6.0490   24.9300 C   0  0  0  0  0  3  0  0  0  0  0  0
  -21.3230   -4.6820   24.9220 C   0  0  0  0  0  0  0  0  0  0  0  0
  -21.8160   -4.0840   23.7490 C   0  0  0  0  0  3  0  0  0  0  0  0
  -21.9730   -4.8520   22.5820 C   0  0  0  0  0  0  0  0  0  0  0  0
  -22.4270   -4.2670   21.4470 F   0  0  0  0  0  0  0  0  0  0  0  0
  -21.1680   -3.9380   26.0420 F   0  0  0  0  0  0  0  0  0  0  0  0
  -22.8300  -13.5650   21.1820 C   0  0  0  0  0  0  0  0  0  0  0  0
  -22.1470  -12.8510   22.0690 N   0  0  0  0  0  0  0  0  0  0  0  0
  -22.3690  -14.6030   20.7100 O   0  0  0  0  0  0  0  0  0  0  0  0
  -22.5330  -12.0110   22.4720 H   0  0  0  0  0  0  0  0  0  0  0  0
  -21.2200  -13.1510   22.3440 H   0  0  0  0  0  0  0  0  0  0  0  0
  -25.4020  -15.2420   20.2450 N   0  0  0  0  0  0  0  0  0  0  0  0
  -24.6410  -15.8910   20.4170 H   0  0  0  0  0  0  0  0  0  0  0  0
  -26.2300  -15.6930   19.8740 H   0  0  0  0  0  0  0  0  0  0  0  0
  -29.5650  -23.0430   19.6590 C   0  0  0  0  0  2  0  0  0  0  0  0
  -28.5020  -24.0790   20.1610 C   0  0  0  0  0  2  0  0  0  0  0  0
  -28.6930  -25.4750   19.4640 C   0  0  0  0  0  2  0  0  0  0  0  0
  -28.4390  -26.6780   20.2250 O   0  0  0  0  0  0  0  0  0  0  0  0
  -24.5180  -31.8230   23.1740 C   0  0  0  0  0  0  0  0  0  0  0  0
  -27.2520  -27.3890   20.1320 C   0  0  0  0  0  0  0  0  0  0  0  0
  -23.3550  -30.4240   21.4970 C   0  0  0  0  0  3  0  0  0  0  0  0
  -24.8490  -28.9040   20.0860 C   0  0  0  0  0  0  0  0  0  0  0  0
  -25.8820  -30.7960   21.3550 C   0  0  0  0  0  2  0  0  0  0  0  0
  -25.9880  -29.4270   20.7070 C   0  0  0  0  0  0  0  0  0  0  0  0
  -27.1870  -28.6750   20.7280 C   0  0  0  0  0  3  0  0  0  0  0  0
  -26.0920  -26.8860   19.5020 C   0  0  0  0  0  3  0  0  0  0  0  0
  -24.8970  -27.6370   19.4770 C   0  0  0  0  0  3  0  0  0  0  0  0
  -23.5950  -29.7540   20.1160 C   0  0  0  0  0  2  0  0  0  0  0  0
  -24.6020  -31.0300   22.0670 N   0  0  0  0  0  0  0  0  0  0  0  0
  -23.4240  -32.0830   23.6940 O   0  0  0  0  0  0  0  0  0  0  0  0
  -22.6930  -29.3930   22.4390 C   0  0  0  0  0  0  0  0  0  0  0  0
  -21.3730  -29.2050   22.2860 N   0  0  0  0  0  0  0  0  0  0  0  0
  -23.3660  -28.7640   23.2620 O   0  0  0  0  0  0  0  0  0  0  0  0
  -20.8930  -29.7660   21.5960 H   0  0  0  0  0  0  0  0  0  0  0  0
  -17.9940  -28.0010   22.7230 C   0  0  0  0  0  0  0  0  0  0  0  0
  -20.5470  -28.2550   23.0320 C   0  0  0  0  0  3  0  0  0  0  0  0
  -20.6570  -26.8320   22.4350 C   0  0  0  0  0  2  0  0  0  0  0  0
  -19.5690  -26.5250   21.4020 C   0  0  0  0  0  2  0  0  0  0  0  0
  -18.1790  -26.6610   22.0290 C   0  0  0  0  0  2  0  0  0  0  0  0
  -19.1050  -28.7560   23.1790 C   0  0  0  0  0  0  0  0  0  0  0  0
  -18.8800  -30.0110   23.7860 C   0  0  0  0  0  3  0  0  0  0  0  0
  -17.5740  -30.5110   23.9420 C   0  0  0  0  0  3  0  0  0  0  0  0
  -16.4760  -29.7520   23.5030 C   0  0  0  0  0  3  0  0  0  0  0  0
  -16.6850  -28.4980   22.9010 C   0  0  0  0  0  3  0  0  0  0  0  0
  -25.7850  -32.4600   23.8270 C   0  0  0  0  0  3  0  0  0  0  0  0
  -25.4580  -33.8530   24.1570 N   0  0  0  0  0  0  0  0  0  0  0  0
  -25.8120  -34.9140   23.4190 C   0  0  0  0  0  0  0  0  0  0  0  0
  -26.5140  -34.8220   22.4100 O   0  0  0  0  0  0  0  0  0  0  0  0
  -24.8330  -33.9980   24.9360 H   0  0  0  0  0  0  0  0  0  0  0  0
  -24.0900  -36.7050   23.0190 C   0  0  0  0  0  1  0  0  0  0  0  0
  -25.3020  -36.2970   23.8710 C   0  0  0  0  0  3  0  0  0  0  0  0
  -27.4020  -37.1780   24.7900 C   0  0  0  0  0  1  0  0  0  0  0  0
  -26.3360  -37.3530   23.8090 N   0  0  0  0  0  0  0  0  0  0  0  0
  -25.9220  -38.2710   23.9510 H   0  0  0  0  0  0  0  0  0  0  0  0
  -26.2820  -31.6850   25.1080 C   0  0  1  0  0  0  0  0  0  0  0  0
  -25.1690  -31.4300   26.1530 C   0  0  0  0  0  1  0  0  0  0  0  0
  -26.8830  -30.3160   24.7170 C   0  0  0  0  0  1  0  0  0  0  0  0
  -27.4110  -32.4860   25.8000 C   0  0  0  0  0  1  0  0  0  0  0  0
  1  3  2  0
  2  1  1  0
  4  2  1  0
  5  1  1  0
  6  9  1  0
  6  7  1  0
  7 10  1  0
  8 10  1  0
  9 11  1  0
  9  8  1  0
 10  5  1  0
 12 17  1  0
 13 14  1  0
 13 12  1  0
 15 14  1  0
 15 22  1  0
 15 16  1  0
 17 11  1  0
 17 16  1  0
 18 11  2  0
 19 20  2  0
 20 39  1  0
 21 20  1  0
 21 24  1  0
 22 23  1  0
 22 19  1  0
 23 21  2  0
 24 25  1  0
 25 26  2  0
 27 30  1  0
 27 26  1  0
 28 27  2  0
 29 28  1  0
 29 24  2  0
 30 31  1  0
 31 36  2  0
 31 32  1  0
 32 33  2  0
 34 33  1  0
 34 38  1  0
 35 34  2  0
 36 35  1  0
 37 36  1  0
 39 40  1  0
 40 43  1  0
 40 42  1  0
 41 39  2  0
 44 19  1  0
 44 45  1  0
 46 44  1  0
 47  2  1  0
 47 48  1  0
 49 48  1  0
 49 50  1  0
 51 62  2  0
 52 50  1  0
 52 57  1  0
 53 61  1  0
 53 63  1  0
 54 60  1  0
 54 56  1  0
 55 61  1  0
 56 57  2  0
 56 55  1  0
 58 52  2  0
 59 58  1  0
 59 54  2  0
 60 53  1  0
 61 51  1  0
 63 65  2  0
 64 63  1  0
 66 64  1  0
 67 76  2  0
 67 72  1  0
 68 64  1  0
 68 72  1  0
 69 68  1  0
 70 71  1  0
 70 69  1  0
 71 67  1  0
 72 73  2  0
 73 74  1  0
 75 74  2  0
 76 75  1  0
 77 51  1  0
 77 78  1  0
 77 87  1  0
 78 81  1  0
 79 83  1  0
 79 78  1  0
 80 79  2  0
 83 82  1  0
 85 83  1  0
 85 86  1  0
 85 84  1  0
 87 90  1  1
 87 88  1  0
 89 87  1  0
M  ISO  4   9 100  11 100  49 101  50 101
M  END
>  <TORSDO>  (78) 
F 21

>  <SCORE>  (78) 
-12.680

>  <name>  (78) 
78

>  <ligand_id>  (78) 
78

>  <original_smiles>  (78) 
[H]c1c([H])c([H])c2c(c1[H])C([H])([H])C([H])([H])C([H])([H])C2([H])N([H])C(=O)C1([H])N(C(=O)C([H])(N([H])C(=O)C([H])(N([H])C([H])([H])[H])C([H])([H])[H])C(C([H])([H])[H])(C([H])([H])[H])C([H])([H])[H])C([H])([H])c2c([H])c(OC([H])([H])C([H])([H])C([H])([H])N([H])C(=O)C([H])([H])C3([H])C([H])([H])C([H])([H])C([H])(C(=O)N4C([H])([H])C([H])([H])C([H])([H])C([H])(n5nc(-c6c([H])c([H])c(Oc7c([H])c([H])c(F)c([H])c7F)c([H])c6[H])c(C(=O)N([H])[H])c5N([H])[H])C4([H])[H])C3([H])[H])c([H])c([H])c2C1([H])[H]

>  <smiles>  (78) 
[H]c1c([H])c([H])c2c(c1[H])C([H])([H])C([H])([H])C([H])([H])C2([H])N([H])C(=O)C1([H])N(C(=O)C([H])(N([H])C(=O)C([H])(N([H])C([H])([H])[H])C([H])([H])[H])C(C([H])([H])[H])(C([H])([H])[H])C([H])([H])[H])C([H])([H])c2c([H])c(OC([H])([H])C([H])([H])C([H])([H])N([H])C(=O)C([H])([H])C3([H])C([H])([H])C([H])([H])C([H])(C(=O)N4C([H])([H])C([H])([H])C([H])([H])C([H])(n5nc(-c6c([H])c([H])c(Oc7c([H])c([H])c(F)c([H])c7F)c([H])c6[H])c(C(=O)N([H])[H])c5N([H])[H])C4([H])[H])C3([H])[H])c([H])c([H])c2C1([H])[H]

$$$$
79:0:0
     RDKit          3D

 97105  0  0  1  0  0  0  0  0999 V2000
  -30.5110  -22.8250   19.0180 C   0  0  0  0  0  3  0  0  0  0  0  0
  -29.7700  -23.8910   19.7380 N   0  0  0  0  0  4  0  0  0  0  0  0
  -28.7850  -23.7370   19.5950 H   0  0  0  0  0  0  0  0  0  0  0  0
  -29.9350  -23.8150   20.7300 H   0  0  0  0  0  0  0  0  0  0  0  0
  -30.0780  -25.2760   19.2880 C   0  0  0  0  0  2  0  0  0  0  0  0
  -28.8050  -26.0930   19.0180 C   0  0  0  0  0  2  0  0  0  0  0  0
  -28.3820  -26.7030   20.2330 O   0  0  0  0  0  0  0  0  0  0  0  0
  -24.6120  -31.8940   23.2630 C   0  0  0  0  0  0  0  0  0  0  0  0
  -27.2060  -27.4150   20.2040 C   0  0  0  0  0  0  0  0  0  0  0  0
  -23.3860  -30.4950   21.6300 C   0  0  0  0  0  3  0  0  0  0  0  0
  -24.8200  -28.9300   20.2170 C   0  0  0  0  0  0  0  0  0  0  0  0
  -25.9130  -30.8240   21.4290 C   0  0  0  0  0  2  0  0  0  0  0  0
  -25.9800  -29.4460   20.8060 C   0  0  0  0  0  0  0  0  0  0  0  0
  -27.1710  -28.6910   20.8100 C   0  0  0  0  0  3  0  0  0  0  0  0
  -26.0230  -26.9020   19.6240 C   0  0  0  0  0  3  0  0  0  0  0  0
  -24.8340  -27.6540   19.6290 C   0  0  0  0  0  3  0  0  0  0  0  0
  -23.5860  -29.8000   20.2560 C   0  0  0  0  0  2  0  0  0  0  0  0
  -24.6550  -31.0860   22.1650 N   0  0  0  0  0  0  0  0  0  0  0  0
  -23.5350  -32.1850   23.8010 O   0  0  0  0  0  0  0  0  0  0  0  0
  -22.7240  -29.4890   22.5990 C   0  0  0  0  0  0  0  0  0  0  0  0
  -21.3980  -29.3200   22.4700 N   0  0  0  0  0  0  0  0  0  0  0  0
  -23.4000  -28.8630   23.4200 O   0  0  0  0  0  0  0  0  0  0  0  0
  -20.9170  -29.8760   21.7780 H   0  0  0  0  0  0  0  0  0  0  0  0
  -18.0110  -28.1650   22.9590 C   0  0  0  0  0  0  0  0  0  0  0  0
  -20.5690  -28.3990   23.2460 C   0  0  0  0  0  3  0  0  0  0  0  0
  -20.6620  -26.9610   22.6850 C   0  0  0  0  0  2  0  0  0  0  0  0
  -19.5640  -26.6390   21.6680 C   0  0  0  0  0  2  0  0  0  0  0  0
  -18.1790  -26.8060   22.3010 C   0  0  0  0  0  2  0  0  0  0  0  0
  -19.1340  -28.9200   23.3880 C   0  0  0  0  0  0  0  0  0  0  0  0
  -18.9270  -30.1930   23.9630 C   0  0  0  0  0  3  0  0  0  0  0  0
  -17.6260  -30.7110   24.1120 C   0  0  0  0  0  3  0  0  0  0  0  0
  -16.5170  -29.9520   23.6990 C   0  0  0  0  0  3  0  0  0  0  0  0
  -16.7090  -28.6820   23.1300 C   0  0  0  0  0  3  0  0  0  0  0  0
  -25.9080  -32.5100   23.8770 C   0  0  0  0  0  3  0  0  0  0  0  0
  -26.4270  -31.7310   25.1460 C   0  0  1  0  0  0  0  0  0  0  0  0
  -25.3390  -31.4990   26.2200 C   0  0  0  0  0  1  0  0  0  0  0  0
  -26.9950  -30.3510   24.7430 C   0  0  0  0  0  1  0  0  0  0  0  0
  -27.5880  -32.5140   25.8040 C   0  0  0  0  0  1  0  0  0  0  0  0
  -25.6150  -33.9120   24.2080 N   0  0  0  0  0  0  0  0  0  0  0  0
  -25.9510  -34.9600   23.4430 C   0  0  0  0  0  0  0  0  0  0  0  0
  -26.6110  -34.8480   22.4060 O   0  0  0  0  0  0  0  0  0  0  0  0
  -25.0280  -34.0730   25.0130 H   0  0  0  0  0  0  0  0  0  0  0  0
  -24.2320  -36.7630   23.0990 C   0  0  0  0  0  1  0  0  0  0  0  0
  -25.4770  -36.3530   23.9010 C   0  0  0  0  0  3  0  0  0  0  0  0
  -27.6260  -37.2200   24.7110 C   0  0  0  0  0  1  0  0  0  0  0  0
  -26.5170  -37.3970   23.7780 N   0  0  0  0  0  0  0  0  0  0  0  0
  -26.1180  -38.3200   23.9300 H   0  0  0  0  0  0  0  0  0  0  0  0
  -32.8690  -21.8550   18.5640 C   0  0  0  0  0  1  0  0  0  0  0  0
  -32.0080  -22.8080   19.4080 C   0  0  0  0  0  2  0  0  0  0  0  0
  -29.7990  -21.4490   19.1080 C   0  0  0  0  0  2  0  0  0  0  0  0
  -29.9670  -20.6010   20.3950 C   0  0  0  0  0  2  0  0  0  0  0  0
  -30.3610  -18.0140   20.7680 C   0  0  0  0  0  0  0  0  0  0  0  0
  -27.6250  -17.4780   19.8550 C   0  0  0  0  0  2  0  0  0  0  0  0
  -28.0200  -18.8590   20.4140 C   0  0  0  0  0  2  0  0  0  0  0  0
  -28.5500  -16.3560   20.3830 C   0  0  0  0  0  2  0  0  0  0  0  0
  -29.5050  -19.1380   20.1350 C   0  0  0  0  0  3  0  0  0  0  0  0
  -30.0850  -16.5850   20.2120 C   0  0  1  0  0  0  0  0  0  0  0  0
  -31.1980  -18.2470   21.6430 O   0  0  0  0  0  0  0  0  0  0  0  0
  -31.8020  -17.2860   18.2960 C   0  0  0  0  0  1  0  0  0  0  0  0
  -30.4800  -16.5870   18.6860 C   0  0  0  0  0  2  0  0  0  0  0  0
  -30.7920  -15.4370   21.0540 C   0  0  0  0  0  2  0  0  0  0  0  0
  -31.2280  -14.1490   20.3220 C   0  0  0  0  0  0  0  0  0  0  0  0
  -30.8250  -11.8700   19.4520 C   0  0  0  0  0  2  0  0  0  0  0  0
  -29.9300  -11.9140   18.2010 C   0  0  0  0  0  2  0  0  0  0  0  0
  -28.4430  -11.8600   18.6010 C   0  0  0  0  0  2  0  0  0  0  0  0
  -28.0850  -12.8840   19.7100 C   0  0  0  0  0  3  0  0  0  0  0  0
  -29.1160  -12.8560   20.8660 C   0  0  0  0  0  2  0  0  0  0  0  0
  -30.4690  -13.0160   20.3070 N   0  0  0  0  0  0  0  0  0  0  0  0
  -32.3110  -14.2050   19.7330 O   0  0  0  0  0  0  0  0  0  0  0  0
  -25.7260  -13.6620   20.3830 C   0  0  0  0  0  0  0  0  0  0  0  0
  -24.6160  -12.9690   20.7800 C   0  0  0  0  0  0  0  0  0  0  0  0
  -24.9910  -11.5920   20.7820 C   0  0  0  0  0  0  0  0  0  0  0  0
  -26.7180  -12.7100   20.1880 N   0  0  0  0  0  0  0  0  0  0  0  0
  -26.2750  -11.4610   20.4770 N   0  0  0  0  0  0  0  0  0  0  0  0
  -24.1840  -10.3850   20.9960 C   0  0  0  0  0  0  0  0  0  0  0  0
  -24.5600   -9.4050   21.9400 C   0  0  0  0  0  3  0  0  0  0  0  0
  -23.7560   -8.2610   22.1380 C   0  0  0  0  0  3  0  0  0  0  0  0
  -22.5640   -8.0960   21.3950 C   0  0  0  0  0  0  0  0  0  0  0  0
  -22.2090   -9.0630   20.4400 C   0  0  0  0  0  3  0  0  0  0  0  0
  -23.0110  -10.1980   20.2370 C   0  0  0  0  0  3  0  0  0  0  0  0
  -21.7320   -7.0090   21.5030 O   0  0  0  0  0  0  0  0  0  0  0  0
  -21.6490   -6.2800   22.6620 C   0  0  0  0  0  0  0  0  0  0  0  0
  -21.2850   -6.8720   23.8910 C   0  0  0  0  0  3  0  0  0  0  0  0
  -21.1470   -6.0720   25.0440 C   0  0  0  0  0  3  0  0  0  0  0  0
  -21.3600   -4.6830   24.9680 C   0  0  0  0  0  0  0  0  0  0  0  0
  -21.7150   -4.0910   23.7420 C   0  0  0  0  0  3  0  0  0  0  0  0
  -21.8550   -4.8870   22.5920 C   0  0  0  0  0  0  0  0  0  0  0  0
  -22.1750   -4.3100   21.4090 F   0  0  0  0  0  0  0  0  0  0  0  0
  -21.2190   -3.9130   26.0720 F   0  0  0  0  0  0  0  0  0  0  0  0
  -23.2540  -13.5440   21.0410 C   0  0  0  0  0  0  0  0  0  0  0  0
  -22.4900  -12.9240   21.9340 N   0  0  0  0  0  0  0  0  0  0  0  0
  -22.8790  -14.5780   20.4930 O   0  0  0  0  0  0  0  0  0  0  0  0
  -22.8090  -12.0890   22.4030 H   0  0  0  0  0  0  0  0  0  0  0  0
  -21.5750  -13.2910   22.1520 H   0  0  0  0  0  0  0  0  0  0  0  0
  -25.9530  -15.0130   20.1500 N   0  0  0  0  0  0  0  0  0  0  0  0
  -25.2120  -15.7000   20.2440 H   0  0  0  0  0  0  0  0  0  0  0  0
  -26.8160  -15.4090   19.8010 H   0  0  0  0  0  0  0  0  0  0  0  0
  1 50  1  0
  1 49  1  0
  1  2  1  0
  2  4  1  0
  3  2  1  0
  5  2  1  0
  6  5  1  0
  6  7  1  0
  8 19  2  0
  9  7  1  0
  9 14  1  0
 10 18  1  0
 10 20  1  0
 11 17  1  0
 11 13  1  0
 12 18  1  0
 13 14  2  0
 13 12  1  0
 15 16  1  0
 15  9  2  0
 16 11  2  0
 17 10  1  0
 18  8  1  0
 20 22  2  0
 21 20  1  0
 23 21  1  0
 24 33  2  0
 24 29  1  0
 25 21  1  0
 25 29  1  0
 26 25  1  0
 27 28  1  0
 27 26  1  0
 28 24  1  0
 29 30  2  0
 30 31  1  0
 32 31  2  0
 33 32  1  0
 34  8  1  0
 34 39  1  0
 34 35  1  0
 35 38  1  1
 35 36  1  0
 37 35  1  0
 39 42  1  0
 40 44  1  0
 40 39  1  0
 41 40  2  0
 44 43  1  0
 46 44  1  0
 46 47  1  0
 46 45  1  0
 48 49  1  0
 50 51  1  0
 52 58  2  0
 53 55  1  0
 53 54  1  0
 56 51  1  0
 56 54  1  0
 56 52  1  0
 57 60  1  6
 57 55  1  0
 57 52  1  0
 57 61  1  0
 59 60  1  0
 62 61  1  0
 63 68  1  0
 64 65  1  0
 64 63  1  0
 66 65  1  0
 66 73  1  0
 66 67  1  0
 68 62  1  0
 68 67  1  0
 69 62  2  0
 70 71  2  0
 71 72  1  0
 71 90  1  0
 72 75  1  0
 73 70  1  0
 73 74  1  0
 74 72  2  0
 75 76  1  0
 76 77  2  0
 78 81  1  0
 78 77  1  0
 79 78  2  0
 80 79  1  0
 80 75  2  0
 81 82  1  0
 82 83  1  0
 83 84  2  0
 85 84  1  0
 85 89  1  0
 86 85  2  0
 87 82  2  0
 87 86  1  0
 88 87  1  0
 90 91  1  0
 91 94  1  0
 91 93  1  0
 92 90  2  0
 95 96  1  0
 95 70  1  0
 97 95  1  0
M  ISO  4   6 101   7 101  61 100  62 100
M  END
>  <TORSDO>  (79) 
F 25

>  <SCORE>  (79) 
-12.299

>  <name>  (79) 
79

>  <ligand_id>  (79) 
79

>  <original_smiles>  (79) 
[H]c1c([H])c([H])c2c(c1[H])C([H])([H])C([H])([H])C([H])([H])C2([H])N([H])C(=O)C1([H])N(C(=O)C([H])(N([H])C(=O)C([H])(N([H])C([H])([H])[H])C([H])([H])[H])C(C([H])([H])[H])(C([H])([H])[H])C([H])([H])[H])C([H])([H])c2c([H])c(OC([H])([H])C([H])([H])[N+]([H])([H])C([H])(C([H])([H])C([H])([H])[H])C([H])([H])C([H])([H])C3([H])C(=O)C(C([H])([H])C(=O)N4C([H])([H])C([H])([H])C([H])([H])C([H])(n5nc(-c6c([H])c([H])c(Oc7c([H])c([H])c(F)c([H])c7F)c([H])c6[H])c(C(=O)N([H])[H])c5N([H])[H])C4([H])[H])(C([H])([H])C([H])([H])[H])C([H])([H])C([H])([H])C3([H])[H])c([H])c([H])c2C1([H])[H]

>  <smiles>  (79) 
[H]c1c([H])c([H])c2c(c1[H])C([H])([H])C([H])([H])C([H])([H])C2([H])N([H])C(=O)C1([H])N(C(=O)C([H])(N([H])C(=O)C([H])(N([H])C([H])([H])[H])C([H])([H])[H])C(C([H])([H])[H])(C([H])([H])[H])C([H])([H])[H])C([H])([H])c2c([H])c(OC([H])([H])C([H])([H])[N+]([H])([H])C([H])(C([H])([H])C([H])([H])[H])C([H])([H])C([H])([H])C3([H])C(=O)C(C([H])([H])C(=O)N4C([H])([H])C([H])([H])C([H])([H])C([H])(n5nc(-c6c([H])c([H])c(Oc7c([H])c([H])c(F)c([H])c7F)c([H])c6[H])c(C(=O)N([H])[H])c5N([H])[H])C4([H])[H])(C([H])([H])C([H])([H])[H])C([H])([H])C([H])([H])C3([H])[H])c([H])c([H])c2C1([H])[H]

$$$$
80:0:0
     RDKit          3D

 95104  0  0  1  0  0  0  0  0999 V2000
  -30.1000  -21.6820   22.1700 C   0  0  0  0  0  0  0  0  0  0  0  0
  -30.2040  -22.7660   21.3870 N   0  0  0  0  0  0  0  0  0  0  0  0
  -29.6690  -21.7370   23.3240 O   0  0  0  0  0  0  0  0  0  0  0  0
  -30.5890  -22.6290   20.4600 H   0  0  0  0  0  0  0  0  0  0  0  0
  -30.5240  -18.9780   19.3340 C   0  0  0  0  0  2  0  0  0  0  0  0
  -30.2790  -17.4920   19.5920 C   0  0  0  0  0  2  0  0  0  0  0  0
  -30.5740  -20.3980   21.5670 C   0  0  0  0  0  3  0  0  0  0  0  0
  -29.8190  -19.8030   20.3850 C   0  0  0  0  0  3  0  0  0  0  0  0
  -29.6320  -19.2220   21.7720 C   0  0  0  0  0  3  0  0  0  0  0  0
  -30.8110  -17.0570   20.9810 C   0  0  0  0  0  3  0  0  0  0  0  0
  -31.1620  -17.9760   23.2800 C   0  0  0  0  0  1  0  0  0  0  0  0
  -30.2720  -17.9060   22.0960 N   0  0  1  0  0  4  0  0  0  0  0  0
  -29.4790  -17.3740   22.4260 H   0  0  0  0  0  0  0  0  0  0  0  0
  -30.4770  -15.5630   21.2640 C   0  0  0  0  0  2  0  0  0  0  0  0
  -31.0700  -14.5230   20.2870 C   0  0  0  0  0  0  0  0  0  0  0  0
  -30.7070  -12.4850   18.9290 C   0  0  0  0  0  2  0  0  0  0  0  0
  -29.7210  -12.7890   17.7830 C   0  0  0  0  0  2  0  0  0  0  0  0
  -28.2590  -12.6440   18.2540 C   0  0  0  0  0  2  0  0  0  0  0  0
  -27.9850  -13.3920   19.5850 C   0  0  0  0  0  3  0  0  0  0  0  0
  -29.0690  -13.0380   20.6290 C   0  0  0  0  0  2  0  0  0  0  0  0
  -30.3800  -13.3750   20.0510 N   0  0  0  0  0  0  0  0  0  0  0  0
  -32.1330  -14.7810   19.7140 O   0  0  0  0  0  0  0  0  0  0  0  0
  -25.5980  -14.0030   20.3390 C   0  0  0  0  0  0  0  0  0  0  0  0
  -24.5360  -13.2300   20.7250 C   0  0  0  0  0  0  0  0  0  0  0  0
  -24.9940  -11.8780   20.6750 C   0  0  0  0  0  0  0  0  0  0  0  0
  -26.6380  -13.1220   20.0850 N   0  0  0  0  0  0  0  0  0  0  0  0
  -26.2780  -11.8390   20.3400 N   0  0  0  0  0  0  0  0  0  0  0  0
  -24.2720  -10.6160   20.8720 C   0  0  0  0  0  0  0  0  0  0  0  0
  -24.6690   -9.6840   21.8560 C   0  0  0  0  0  3  0  0  0  0  0  0
  -23.9490   -8.4840   22.0380 C   0  0  0  0  0  3  0  0  0  0  0  0
  -22.8180   -8.2070   21.2350 C   0  0  0  0  0  0  0  0  0  0  0  0
  -22.4400   -9.1270   20.2410 C   0  0  0  0  0  3  0  0  0  0  0  0
  -23.1610  -10.3190   20.0580 C   0  0  0  0  0  3  0  0  0  0  0  0
  -22.0720   -7.0570   21.3240 O   0  0  0  0  0  0  0  0  0  0  0  0
  -21.8850   -6.4100   22.5200 C   0  0  0  0  0  0  0  0  0  0  0  0
  -21.2820   -7.0490   23.6250 C   0  0  0  0  0  3  0  0  0  0  0  0
  -21.0460   -6.3270   24.8130 C   0  0  0  0  0  3  0  0  0  0  0  0
  -21.4020   -4.9670   24.8930 C   0  0  0  0  0  0  0  0  0  0  0  0
  -21.9970   -4.3290   23.7920 C   0  0  0  0  0  3  0  0  0  0  0  0
  -22.2350   -5.0480   22.6070 C   0  0  0  0  0  0  0  0  0  0  0  0
  -22.7900   -4.4220   21.5410 F   0  0  0  0  0  0  0  0  0  0  0  0
  -21.1680   -4.2720   26.0310 F   0  0  0  0  0  0  0  0  0  0  0  0
  -23.1440  -13.7060   21.0300 C   0  0  0  0  0  0  0  0  0  0  0  0
  -22.4410  -13.0140   21.9200 N   0  0  0  0  0  0  0  0  0  0  0  0
  -22.6900  -14.7270   20.5150 O   0  0  0  0  0  0  0  0  0  0  0  0
  -22.8210  -12.1880   22.3580 H   0  0  0  0  0  0  0  0  0  0  0  0
  -21.5080  -13.3140   22.1660 H   0  0  0  0  0  0  0  0  0  0  0  0
  -25.7610  -15.3750   20.1650 N   0  0  0  0  0  0  0  0  0  0  0  0
  -24.9920  -16.0260   20.2810 H   0  0  0  0  0  0  0  0  0  0  0  0
  -26.5950  -15.8100   19.7930 H   0  0  0  0  0  0  0  0  0  0  0  0
  -30.9990  -24.9580   22.1650 C   0  0  0  0  0  1  0  0  0  0  0  0
  -29.7760  -24.1270   21.7400 C   0  0  0  0  0  3  0  0  0  0  0  0
  -29.0060  -24.7560   20.5590 C   0  0  0  0  0  2  0  0  0  0  0  0
  -28.3870  -26.1370   20.8460 C   0  0  0  0  0  2  0  0  0  0  0  0
  -27.7440  -26.5700   19.6520 O   0  0  0  0  0  0  0  0  0  0  0  0
  -24.4420  -31.8700   23.1230 C   0  0  0  0  0  0  0  0  0  0  0  0
  -26.6380  -27.3610   19.8210 C   0  0  0  0  0  0  0  0  0  0  0  0
  -23.0540  -30.5600   21.5480 C   0  0  0  0  0  3  0  0  0  0  0  0
  -24.3290  -28.9660   20.0160 C   0  0  0  0  0  0  0  0  0  0  0  0
  -25.5750  -30.7890   21.1880 C   0  0  0  0  0  2  0  0  0  0  0  0
  -25.5460  -29.4220   20.5400 C   0  0  0  0  0  0  0  0  0  0  0  0
  -26.7040  -28.6220   20.4530 C   0  0  0  0  0  3  0  0  0  0  0  0
  -25.4120  -26.9130   19.2940 C   0  0  0  0  0  3  0  0  0  0  0  0
  -24.2530  -27.7050   19.3970 C   0  0  0  0  0  3  0  0  0  0  0  0
  -23.1370  -29.8880   20.1500 C   0  0  0  0  0  2  0  0  0  0  0  0
  -24.3800  -31.0860   22.0100 N   0  0  0  0  0  0  0  0  0  0  0  0
  -23.4160  -32.1920   23.7370 O   0  0  0  0  0  0  0  0  0  0  0  0
  -22.4130  -29.5620   22.5380 C   0  0  0  0  0  0  0  0  0  0  0  0
  -21.0830  -29.4070   22.4520 N   0  0  0  0  0  0  0  0  0  0  0  0
  -23.1100  -28.9290   23.3360 O   0  0  0  0  0  0  0  0  0  0  0  0
  -20.5840  -29.9690   21.7770 H   0  0  0  0  0  0  0  0  0  0  0  0
  -17.7070  -28.2460   23.0120 C   0  0  0  0  0  0  0  0  0  0  0  0
  -20.2690  -28.4930   23.2540 C   0  0  0  0  0  3  0  0  0  0  0  0
  -20.3570  -27.0470   22.7130 C   0  0  0  0  0  2  0  0  0  0  0  0
  -19.2430  -26.7060   21.7180 C   0  0  0  0  0  2  0  0  0  0  0  0
  -17.8690  -26.8780   22.3710 C   0  0  0  0  0  2  0  0  0  0  0  0
  -18.8350  -29.0120   23.4120 C   0  0  0  0  0  0  0  0  0  0  0  0
  -18.6310  -30.2920   23.9700 C   0  0  0  0  0  3  0  0  0  0  0  0
  -17.3320  -30.8080   24.1330 C   0  0  0  0  0  3  0  0  0  0  0  0
  -16.2190  -30.0390   23.7520 C   0  0  0  0  0  3  0  0  0  0  0  0
  -16.4070  -28.7610   23.1960 C   0  0  0  0  0  3  0  0  0  0  0  0
  -25.8010  -32.4190   23.6630 C   0  0  0  0  0  3  0  0  0  0  0  0
  -25.5840  -33.8100   24.0750 N   0  0  0  0  0  0  0  0  0  0  0  0
  -25.9300  -34.8810   23.3480 C   0  0  0  0  0  0  0  0  0  0  0  0
  -26.5390  -34.7960   22.2780 O   0  0  0  0  0  0  0  0  0  0  0  0
  -25.0420  -33.9550   24.9140 H   0  0  0  0  0  0  0  0  0  0  0  0
  -24.2930  -36.7790   23.1530 C   0  0  0  0  0  1  0  0  0  0  0  0
  -25.5370  -36.2660   23.8950 C   0  0  0  0  0  3  0  0  0  0  0  0
  -27.7430  -36.9920   24.6920 C   0  0  0  0  0  1  0  0  0  0  0  0
  -26.6220  -37.2660   23.7970 N   0  0  0  0  0  0  0  0  0  0  0  0
  -26.2730  -38.1990   24.0030 H   0  0  0  0  0  0  0  0  0  0  0  0
  -26.3860  -31.5660   24.8550 C   0  0  1  0  0  0  0  0  0  0  0  0
  -25.3750  -31.3210   25.9980 C   0  0  0  0  0  1  0  0  0  0  0  0
  -26.8750  -30.1890   24.3510 C   0  0  0  0  0  1  0  0  0  0  0  0
  -27.6200  -32.2810   25.4550 C   0  0  0  0  0  1  0  0  0  0  0  0
  1  3  2  0
  2 52  1  0
  2  1  1  0
  4  2  1  0
  5  6  1  0
  6 10  1  0
  7  9  1  0
  7  1  1  0
  8  5  1  0
  8  7  1  0
  8  9  1  0
  9 12  1  0
 10 14  1  0
 10 12  1  0
 12 13  1  1
 12 11  1  0
 15 14  1  0
 16 21  1  0
 17 18  1  0
 17 16  1  0
 19 18  1  0
 19 26  1  0
 19 20  1  0
 21 15  1  0
 21 20  1  0
 22 15  2  0
 23 24  2  0
 24 43  1  0
 25 24  1  0
 25 28  1  0
 26 23  1  0
 26 27  1  0
 27 25  2  0
 28 29  1  0
 29 30  2  0
 31 34  1  0
 31 30  1  0
 32 31  2  0
 33 32  1  0
 33 28  2  0
 34 35  1  0
 35 40  2  0
 35 36  1  0
 36 37  2  0
 37 38  1  0
 38 42  1  0
 39 38  2  0
 40 39  1  0
 41 40  1  0
 43 44  1  0
 44 47  1  0
 44 46  1  0
 45 43  2  0
 48 49  1  0
 48 23  1  0
 50 48  1  0
 52 51  1  0
 53 54  1  0
 53 52  1  0
 55 57  1  0
 55 54  1  0
 56 67  2  0
 57 62  1  0
 58 66  1  0
 58 68  1  0
 59 65  1  0
 59 61  1  0
 60 66  1  0
 61 60  1  0
 62 61  2  0
 63 64  1  0
 63 57  2  0
 64 59  2  0
 65 58  1  0
 66 56  1  0
 68 70  2  0
 69 68  1  0
 71 69  1  0
 72 81  2  0
 72 77  1  0
 73 69  1  0
 73 77  1  0
 74 73  1  0
 75 76  1  0
 75 74  1  0
 76 72  1  0
 77 78  2  0
 78 79  1  0
 80 79  2  0
 81 80  1  0
 82 56  1  0
 82 83  1  0
 82 92  1  0
 83 86  1  0
 84 88  1  0
 84 83  1  0
 85 84  2  0
 88 87  1  0
 90 88  1  0
 90 91  1  0
 90 89  1  0
 92 95  1  1
 92 93  1  0
 94 92  1  0
M  ISO  4  14 100  15 100  54 101  55 101
M  END
>  <TORSDO>  (80) 
F 21

>  <SCORE>  (80) 
-11.592

>  <name>  (80) 
80

>  <ligand_id>  (80) 
80

>  <original_smiles>  (80) 
[H]c1c([H])c([H])c2c(c1[H])C([H])([H])C([H])([H])C([H])([H])C2([H])N([H])C(=O)C1([H])N(C(=O)C([H])(N([H])C(=O)C([H])(N([H])C([H])([H])[H])C([H])([H])[H])C(C([H])([H])[H])(C([H])([H])[H])C([H])([H])[H])C([H])([H])c2c([H])c(OC([H])([H])C([H])([H])C([H])(N([H])C(=O)C3([H])C4([H])C([H])([H])C([H])([H])C([H])(C([H])([H])C(=O)N5C([H])([H])C([H])([H])C([H])([H])C([H])(n6nc(-c7c([H])c([H])c(Oc8c([H])c([H])c(F)c([H])c8F)c([H])c7[H])c(C(=O)N([H])[H])c6N([H])[H])C5([H])[H])[N+]([H])(C([H])([H])[H])C34[H])C([H])([H])[H])c([H])c([H])c2C1([H])[H]

>  <smiles>  (80) 
[H]c1c([H])c([H])c2c(c1[H])C([H])([H])C([H])([H])C([H])([H])C2([H])N([H])C(=O)C1([H])N(C(=O)C([H])(N([H])C(=O)C([H])(N([H])C([H])([H])[H])C([H])([H])[H])C(C([H])([H])[H])(C([H])([H])[H])C([H])([H])[H])C([H])([H])c2c([H])c(OC([H])([H])C([H])([H])C([H])(N([H])C(=O)C3([H])C4([H])C([H])([H])C([H])([H])C([H])(C([H])([H])C(=O)N5C([H])([H])C([H])([H])C([H])([H])C([H])(n6nc(-c7c([H])c([H])c(Oc8c([H])c([H])c(F)c([H])c8F)c([H])c7[H])c(C(=O)N([H])[H])c6N([H])[H])C5([H])[H])[N+]([H])(C([H])([H])[H])C34[H])C([H])([H])[H])c([H])c([H])c2C1([H])[H]

$$$$
81:0:0
     RDKit          3D

 95103  0  0  1  0  0  0  0  0999 V2000
  -30.6570  -22.2630   18.0820 C   0  0  0  0  0  2  0  0  0  0  0  0
  -30.1200  -20.8280   18.2830 C   0  0  0  0  0  2  0  0  0  0  0  0
  -29.5570  -23.3390   18.2120 C   0  0  0  0  0  2  0  0  0  0  0  0
  -29.4920  -20.6430   19.6780 C   0  0  0  0  0  3  0  0  0  0  0  0
  -28.8270  -23.3360   19.5750 C   0  0  0  0  0  3  0  0  0  0  0  0
  -28.4760  -21.8270   19.8700 N   0  0  0  0  0  0  0  0  0  0  0  0
  -29.5050  -19.0330   20.2900 C   0  0  0  0  0  2  0  0  0  0  0  0
  -29.5740  -16.2450   19.4390 C   0  0  0  0  0  3  0  0  0  0  0  0
  -29.1540  -17.6210   19.5240 C   0  0  0  0  0  0  0  0  0  0  0  0
  -27.9310  -17.9240   18.6690 C   0  0  0  0  0  1  0  0  0  0  0  0
  -30.5880  -15.1440   19.8650 C   0  0  0  0  0  0  0  0  0  0  0  0
  -30.5820  -12.6950   19.1850 C   0  0  0  0  0  2  0  0  0  0  0  0
  -29.6120  -12.4930   17.9940 C   0  0  0  0  0  2  0  0  0  0  0  0
  -28.1710  -12.2490   18.4850 C   0  0  0  0  0  2  0  0  0  0  0  0
  -27.7450  -13.2570   19.5780 C   0  0  0  0  0  3  0  0  0  0  0  0
  -28.8350  -13.4450   20.6560 C   0  0  0  0  0  2  0  0  0  0  0  0
  -30.0840  -13.8440   19.9890 N   0  0  0  0  0  0  0  0  0  0  0  0
  -31.8110  -15.2500   19.7200 O   0  0  0  0  0  0  0  0  0  0  0  0
  -25.4220  -13.8610   20.4590 C   0  0  0  0  0  0  0  0  0  0  0  0
  -24.3640  -13.0940   20.8550 C   0  0  0  0  0  0  0  0  0  0  0  0
  -24.8070  -11.7380   20.7730 C   0  0  0  0  0  0  0  0  0  0  0  0
  -26.4380  -12.9700   20.1470 N   0  0  0  0  0  0  0  0  0  0  0  0
  -26.0820  -11.6870   20.4030 N   0  0  0  0  0  0  0  0  0  0  0  0
  -24.0740  -10.4830   20.9660 C   0  0  0  0  0  0  0  0  0  0  0  0
  -24.4950   -9.5220   21.9100 C   0  0  0  0  0  3  0  0  0  0  0  0
  -23.7630   -8.3290   22.0900 C   0  0  0  0  0  3  0  0  0  0  0  0
  -22.5960   -8.0910   21.3260 C   0  0  0  0  0  0  0  0  0  0  0  0
  -22.1960   -9.0400   20.3700 C   0  0  0  0  0  3  0  0  0  0  0  0
  -22.9280  -10.2240   20.1880 C   0  0  0  0  0  3  0  0  0  0  0  0
  -21.8370   -6.9490   21.4150 O   0  0  0  0  0  0  0  0  0  0  0  0
  -21.7400   -6.2400   22.5860 C   0  0  0  0  0  0  0  0  0  0  0  0
  -21.2350   -6.8210   23.7690 C   0  0  0  0  0  3  0  0  0  0  0  0
  -21.0880   -6.0360   24.9300 C   0  0  0  0  0  3  0  0  0  0  0  0
  -21.4350   -4.6710   24.9080 C   0  0  0  0  0  0  0  0  0  0  0  0
  -21.9320   -4.0910   23.7280 C   0  0  0  0  0  3  0  0  0  0  0  0
  -22.0810   -4.8720   22.5700 C   0  0  0  0  0  0  0  0  0  0  0  0
  -22.5420   -4.3030   21.4300 F   0  0  0  0  0  0  0  0  0  0  0  0
  -21.2850   -3.9160   26.0200 F   0  0  0  0  0  0  0  0  0  0  0  0
  -22.9870  -13.5840   21.1980 C   0  0  0  0  0  0  0  0  0  0  0  0
  -22.2880  -12.8750   22.0770 N   0  0  0  0  0  0  0  0  0  0  0  0
  -22.5440  -14.6270   20.7210 O   0  0  0  0  0  0  0  0  0  0  0  0
  -22.6630  -12.0290   22.4790 H   0  0  0  0  0  0  0  0  0  0  0  0
  -21.3670  -13.1830   22.3500 H   0  0  0  0  0  0  0  0  0  0  0  0
  -25.5990  -15.2340   20.3110 N   0  0  0  0  0  0  0  0  0  0  0  0
  -24.8470  -15.8910   20.4820 H   0  0  0  0  0  0  0  0  0  0  0  0
  -26.4580  -15.6750   20.0120 H   0  0  0  0  0  0  0  0  0  0  0  0
  -27.7570  -24.6540   19.6840 C   0  0  0  0  0  2  0  0  0  0  0  0
  -28.0360  -26.1880   19.5670 O   0  0  0  0  0  0  0  0  0  0  0  0
  -24.5780  -31.7170   23.0500 C   0  0  0  0  0  0  0  0  0  0  0  0
  -26.9820  -27.1740   19.6380 C   0  0  0  0  0  0  0  0  0  0  0  0
  -23.3010  -30.4430   21.3710 C   0  0  0  0  0  3  0  0  0  0  0  0
  -24.6760  -28.9450   19.8010 C   0  0  0  0  0  0  0  0  0  0  0  0
  -25.8520  -30.6870   21.1320 C   0  0  0  0  0  2  0  0  0  0  0  0
  -25.8830  -29.3370   20.3940 C   0  0  0  0  0  0  0  0  0  0  0  0
  -27.0360  -28.4700   20.2950 C   0  0  0  0  0  3  0  0  0  0  0  0
  -25.7490  -26.8910   19.0090 C   0  0  0  0  0  3  0  0  0  0  0  0
  -24.6210  -27.7350   19.0940 C   0  0  0  0  0  3  0  0  0  0  0  0
  -23.4650  -29.8540   19.9460 C   0  0  0  0  0  2  0  0  0  0  0  0
  -24.5990  -30.9670   21.9070 N   0  0  0  0  0  0  0  0  0  0  0  0
  -23.5150  -31.9810   23.6340 O   0  0  0  0  0  0  0  0  0  0  0  0
  -22.6400  -29.3850   22.2910 C   0  0  0  0  0  0  0  0  0  0  0  0
  -21.3050  -29.2450   22.2050 N   0  0  0  0  0  0  0  0  0  0  0  0
  -23.3310  -28.6950   23.0460 O   0  0  0  0  0  0  0  0  0  0  0  0
  -20.8050  -29.8550   21.5750 H   0  0  0  0  0  0  0  0  0  0  0  0
  -17.9230  -28.0770   22.7690 C   0  0  0  0  0  0  0  0  0  0  0  0
  -20.4960  -28.2730   22.9450 C   0  0  0  0  0  3  0  0  0  0  0  0
  -20.5420  -26.8810   22.2720 C   0  0  0  0  0  2  0  0  0  0  0  0
  -19.3930  -26.6480   21.2860 C   0  0  0  0  0  2  0  0  0  0  0  0
  -18.0420  -26.7750   21.9950 C   0  0  0  0  0  2  0  0  0  0  0  0
  -19.0740  -28.7880   23.2010 C   0  0  0  0  0  0  0  0  0  0  0  0
  -18.9060  -30.0100   23.8890 C   0  0  0  0  0  3  0  0  0  0  0  0
  -17.6190  -30.5210   24.1470 C   0  0  0  0  0  3  0  0  0  0  0  0
  -16.4830  -29.8060   23.7290 C   0  0  0  0  0  3  0  0  0  0  0  0
  -16.6360  -28.5860   23.0460 C   0  0  0  0  0  3  0  0  0  0  0  0
  -25.8870  -32.2930   23.6710 C   0  0  0  0  0  3  0  0  0  0  0  0
  -25.6090  -33.6730   24.1010 N   0  0  0  0  0  0  0  0  0  0  0  0
  -25.9640  -34.7720   23.4220 C   0  0  0  0  0  0  0  0  0  0  0  0
  -26.6260  -34.7280   22.3810 O   0  0  0  0  0  0  0  0  0  0  0  0
  -25.0250  -33.7830   24.9170 H   0  0  0  0  0  0  0  0  0  0  0  0
  -24.2840  -36.6350   23.2090 C   0  0  0  0  0  1  0  0  0  0  0  0
  -25.5140  -36.1360   23.9830 C   0  0  0  0  0  3  0  0  0  0  0  0
  -27.6680  -36.9050   24.8790 C   0  0  0  0  0  1  0  0  0  0  0  0
  -26.5740  -37.1670   23.9470 N   0  0  0  0  0  0  0  0  0  0  0  0
  -26.1910  -38.0850   24.1590 H   0  0  0  0  0  0  0  0  0  0  0  0
  -26.4280  -31.4390   24.8830 C   0  0  1  0  0  0  0  0  0  0  0  0
  -25.3660  -31.1590   25.9720 C   0  0  0  0  0  1  0  0  0  0  0  0
  -26.9710  -30.0760   24.3950 C   0  0  0  0  0  1  0  0  0  0  0  0
  -27.6160  -32.1710   25.5510 C   0  0  0  0  0  1  0  0  0  0  0  0
  -27.0430  -21.4990   19.8460 C   0  0  0  0  0  2  0  0  0  0  0  0
  -25.7880  -22.5850   17.8370 C   0  0  0  0  0  1  0  0  0  0  0  0
  -26.3790  -21.3020   18.4490 C   0  0  0  0  0  3  0  0  0  0  0  0
  -25.3200  -20.2770   18.5290 N   0  0  0  0  0  4  0  0  0  0  0  0
  -24.5710  -20.5820   19.1260 H   0  0  0  0  0  0  0  0  0  0  0  0
  -25.6790  -19.4120   18.8930 H   0  0  0  0  0  0  0  0  0  0  0  0
  -24.9410  -20.0970   17.6150 H   0  0  0  0  0  0  0  0  0  0  0  0
  1  3  1  0
  1  2  1  0
  2  4  1  0
  3  5  1  0
  4  6  1  0
  4  7  1  0
  5 47  1  0
  5  6  1  0
  8  9  2  0
  8 11  1  0
  9  7  1  0
 10  9  1  0
 11 17  1  0
 12 17  1  0
 13 14  1  0
 13 12  1  0
 15 14  1  0
 15 22  1  0
 15 16  1  0
 17 16  1  0
 18 11  2  0
 19 20  2  0
 20 39  1  0
 21 20  1  0
 21 24  1  0
 22 23  1  0
 22 19  1  0
 23 21  2  0
 24 25  1  0
 25 26  2  0
 27 30  1  0
 27 26  1  0
 28 27  2  0
 29 28  1  0
 29 24  2  0
 30 31  1  0
 31 32  1  0
 32 33  2  0
 34 33  1  0
 34 38  1  0
 35 34  2  0
 36 31  2  0
 36 35  1  0
 37 36  1  0
 39 40  1  0
 40 43  1  0
 40 42  1  0
 41 39  2  0
 44 19  1  0
 44 45  1  0
 46 44  1  0
 48 50  1  0
 48 47  1  0
 49 60  2  0
 50 55  1  0
 51 59  1  0
 51 61  1  0
 52 58  1  0
 52 54  1  0
 53 59  1  0
 54 53  1  0
 55 54  2  0
 56 57  1  0
 56 50  2  0
 57 52  2  0
 58 51  1  0
 59 49  1  0
 61 63  2  0
 62 61  1  0
 64 62  1  0
 65 74  2  0
 65 70  1  0
 66 62  1  0
 66 70  1  0
 67 66  1  0
 68 69  1  0
 68 67  1  0
 69 65  1  0
 70 71  2  0
 71 72  1  0
 73 72  2  0
 74 73  1  0
 75 49  1  0
 75 76  1  0
 75 85  1  0
 76 79  1  0
 77 81  1  0
 77 76  1  0
 78 77  2  0
 81 80  1  0
 83 81  1  0
 83 84  1  0
 83 82  1  0
 85 88  1  1
 85 86  1  0
 87 85  1  0
 89  6  1  0
 91 90  1  0
 91 92  1  0
 91 89  1  0
 92 94  1  0
 92 93  1  0
 95 92  1  0
M  ISO  4   8 100  11 100  47 101  48 101
M  END
>  <TORSDO>  (81) 
F 22

>  <SCORE>  (81) 
-14.115

>  <name>  (81) 
81

>  <ligand_id>  (81) 
81

>  <original_smiles>  (81) 
[H]C(C(=O)N1C([H])([H])C([H])([H])C([H])([H])C([H])(n2nc(-c3c([H])c([H])c(Oc4c([H])c([H])c(F)c([H])c4F)c([H])c3[H])c(C(=O)N([H])[H])c2N([H])[H])C1([H])[H])=C(C([H])([H])[H])C([H])([H])C1([H])N(C([H])([H])C([H])(C([H])([H])[H])[N+]([H])([H])[H])C([H])(C([H])([H])Oc2c([H])c([H])c3c(c2[H])C([H])([H])N(C(=O)C([H])(N([H])C(=O)C([H])(N([H])C([H])([H])[H])C([H])([H])[H])C(C([H])([H])[H])(C([H])([H])[H])C([H])([H])[H])C([H])(C(=O)N([H])C2([H])c4c([H])c([H])c([H])c([H])c4C([H])([H])C([H])([H])C2([H])[H])C3([H])[H])C([H])([H])C([H])([H])C1([H])[H]

>  <smiles>  (81) 
[H]C(C(=O)N1C([H])([H])C([H])([H])C([H])([H])C([H])(n2nc(-c3c([H])c([H])c(Oc4c([H])c([H])c(F)c([H])c4F)c([H])c3[H])c(C(=O)N([H])[H])c2N([H])[H])C1([H])[H])=C(C([H])([H])[H])C([H])([H])C1([H])N(C([H])([H])C([H])(C([H])([H])[H])[N+]([H])([H])[H])C([H])(C([H])([H])Oc2c([H])c([H])c3c(c2[H])C([H])([H])N(C(=O)C([H])(N([H])C(=O)C([H])(N([H])C([H])([H])[H])C([H])([H])[H])C(C([H])([H])[H])(C([H])([H])[H])C([H])([H])[H])C([H])(C(=O)N([H])C2([H])c4c([H])c([H])c([H])c([H])c4C([H])([H])C([H])([H])C2([H])[H])C3([H])[H])C([H])([H])C([H])([H])C1([H])[H]

$$$$
82:0:0
     RDKit          3D

 93101  0  0  1  0  0  0  0  0999 V2000
  -30.1280  -22.8940   21.0560 C   0  0  0  0  0  3  0  0  0  0  0  0
  -28.0060  -22.1210   20.1440 C   0  0  0  0  0  3  0  0  0  0  0  0
  -29.9410  -24.1400   20.4310 C   0  0  0  0  0  3  0  0  0  0  0  0
  -27.8070  -23.3790   19.5380 C   0  0  0  0  0  3  0  0  0  0  0  0
  -29.1670  -21.8710   20.9100 C   0  0  0  0  0  0  0  0  0  0  0  0
  -28.7730  -24.3960   19.6880 C   0  0  0  0  0  0  0  0  0  0  0  0
  -29.3480  -20.5110   21.5790 C   0  0  0  0  0  2  0  0  0  0  0  0
  -30.2260  -19.5100   20.7830 C   0  0  0  0  0  3  0  0  0  0  0  0
  -30.1580  -18.1630   21.4130 N   0  0  0  0  0  4  0  0  0  0  0  0
  -30.6960  -18.1490   22.2660 H   0  0  0  0  0  0  0  0  0  0  0  0
  -29.1950  -18.0190   21.6680 H   0  0  0  0  0  0  0  0  0  0  0  0
  -30.5440  -17.0160   20.5500 C   0  0  0  0  0  2  0  0  0  0  0  0
  -30.1260  -15.6390   21.1370 C   0  0  0  0  0  2  0  0  0  0  0  0
  -30.7130  -14.4550   20.3400 C   0  0  0  0  0  0  0  0  0  0  0  0
  -30.3440  -12.3460   19.1170 C   0  0  0  0  0  2  0  0  0  0  0  0
  -29.3750  -12.5970   17.9450 C   0  0  0  0  0  2  0  0  0  0  0  0
  -27.9110  -12.4630   18.4090 C   0  0  0  0  0  2  0  0  0  0  0  0
  -27.6170  -13.2720   19.7010 C   0  0  0  0  0  3  0  0  0  0  0  0
  -28.6960  -13.0070   20.7760 C   0  0  0  0  0  2  0  0  0  0  0  0
  -30.0110  -13.3010   20.1850 N   0  0  0  0  0  0  0  0  0  0  0  0
  -31.8020  -14.6320   19.7860 O   0  0  0  0  0  0  0  0  0  0  0  0
  -25.2300  -13.8790   20.4510 C   0  0  0  0  0  0  0  0  0  0  0  0
  -24.1700  -13.1080   20.8380 C   0  0  0  0  0  0  0  0  0  0  0  0
  -24.6310  -11.7550   20.8010 C   0  0  0  0  0  0  0  0  0  0  0  0
  -26.2730  -13.0000   20.2030 N   0  0  0  0  0  0  0  0  0  0  0  0
  -25.9140  -11.7170   20.4690 N   0  0  0  0  0  0  0  0  0  0  0  0
  -23.9100  -10.4920   21.0050 C   0  0  0  0  0  0  0  0  0  0  0  0
  -24.3690   -9.5160   21.9180 C   0  0  0  0  0  3  0  0  0  0  0  0
  -23.6460   -8.3190   22.1090 C   0  0  0  0  0  3  0  0  0  0  0  0
  -22.4510   -8.0880   21.3880 C   0  0  0  0  0  0  0  0  0  0  0  0
  -22.0130   -9.0510   20.4620 C   0  0  0  0  0  3  0  0  0  0  0  0
  -22.7350  -10.2400   20.2690 C   0  0  0  0  0  3  0  0  0  0  0  0
  -21.7000   -6.9430   21.4880 O   0  0  0  0  0  0  0  0  0  0  0  0
  -21.6940   -6.1840   22.6300 C   0  0  0  0  0  0  0  0  0  0  0  0
  -21.3310   -6.7240   23.8830 C   0  0  0  0  0  3  0  0  0  0  0  0
  -21.2700   -5.8940   25.0190 C   0  0  0  0  0  3  0  0  0  0  0  0
  -21.5650   -4.5220   24.9050 C   0  0  0  0  0  0  0  0  0  0  0  0
  -21.9220   -3.9800   23.6570 C   0  0  0  0  0  3  0  0  0  0  0  0
  -21.9830   -4.8080   22.5230 C   0  0  0  0  0  0  0  0  0  0  0  0
  -22.3070   -4.2760   21.3200 F   0  0  0  0  0  0  0  0  0  0  0  0
  -21.5000   -3.7210   25.9940 F   0  0  0  0  0  0  0  0  0  0  0  0
  -22.7760  -13.5820   21.1380 C   0  0  0  0  0  0  0  0  0  0  0  0
  -22.0670  -12.8850   22.0180 N   0  0  0  0  0  0  0  0  0  0  0  0
  -22.3260  -14.6080   20.6270 O   0  0  0  0  0  0  0  0  0  0  0  0
  -22.4470  -12.0550   22.4510 H   0  0  0  0  0  0  0  0  0  0  0  0
  -21.1340  -13.1850   22.2620 H   0  0  0  0  0  0  0  0  0  0  0  0
  -25.3930  -15.2510   20.2700 N   0  0  0  0  0  0  0  0  0  0  0  0
  -24.6260  -15.9050   20.3850 H   0  0  0  0  0  0  0  0  0  0  0  0
  -26.2340  -15.6890   19.9180 H   0  0  0  0  0  0  0  0  0  0  0  0
  -32.5460  -20.2760   21.7680 C   0  0  0  0  0  1  0  0  0  0  0  0
  -31.6830  -19.9990   20.5230 C   0  0  0  0  0  2  0  0  0  0  0  0
  -28.5950  -25.7650   19.0560 C   0  0  0  0  0  2  0  0  0  0  0  0
  -28.4160  -26.7900   20.0410 O   0  0  0  0  0  0  0  0  0  0  0  0
  -24.5930  -31.8940   23.2270 C   0  0  0  0  0  0  0  0  0  0  0  0
  -27.2140  -27.4590   20.0950 C   0  0  0  0  0  0  0  0  0  0  0  0
  -23.3800  -30.4890   21.5930 C   0  0  0  0  0  3  0  0  0  0  0  0
  -24.8180  -28.9550   20.1660 C   0  0  0  0  0  0  0  0  0  0  0  0
  -25.9090  -30.8450   21.3870 C   0  0  0  0  0  2  0  0  0  0  0  0
  -25.9830  -29.4800   20.7350 C   0  0  0  0  0  0  0  0  0  0  0  0
  -27.1840  -28.7380   20.6940 C   0  0  0  0  0  3  0  0  0  0  0  0
  -26.0080  -26.9220   19.5850 C   0  0  0  0  0  3  0  0  0  0  0  0
  -24.8220  -27.6700   19.6000 C   0  0  0  0  0  3  0  0  0  0  0  0
  -23.5790  -29.8130   20.2130 C   0  0  0  0  0  2  0  0  0  0  0  0
  -24.6450  -31.0930   22.1250 N   0  0  0  0  0  0  0  0  0  0  0  0
  -23.5150  -32.1670   23.7680 O   0  0  0  0  0  0  0  0  0  0  0  0
  -22.7400  -29.4640   22.5560 C   0  0  0  0  0  0  0  0  0  0  0  0
  -21.4170  -29.2750   22.4290 N   0  0  0  0  0  0  0  0  0  0  0  0
  -23.4290  -28.8400   23.3680 O   0  0  0  0  0  0  0  0  0  0  0  0
  -20.9280  -29.8260   21.7380 H   0  0  0  0  0  0  0  0  0  0  0  0
  -18.0470  -28.0680   22.9150 C   0  0  0  0  0  0  0  0  0  0  0  0
  -20.6010  -28.3350   23.1980 C   0  0  0  0  0  3  0  0  0  0  0  0
  -20.7130  -26.9050   22.6210 C   0  0  0  0  0  2  0  0  0  0  0  0
  -19.6140  -26.5750   21.6060 C   0  0  0  0  0  2  0  0  0  0  0  0
  -18.2300  -26.7180   22.2450 C   0  0  0  0  0  2  0  0  0  0  0  0
  -19.1600  -28.8370   23.3470 C   0  0  0  0  0  0  0  0  0  0  0  0
  -18.9340  -30.1030   23.9290 C   0  0  0  0  0  3  0  0  0  0  0  0
  -17.6270  -30.5950   24.0950 C   0  0  0  0  0  3  0  0  0  0  0  0
  -16.5270  -29.8220   23.6830 C   0  0  0  0  0  3  0  0  0  0  0  0
  -16.7380  -28.5620   23.0970 C   0  0  0  0  0  3  0  0  0  0  0  0
  -25.8820  -32.5250   23.8410 C   0  0  0  0  0  3  0  0  0  0  0  0
  -25.5740  -33.9220   24.1710 N   0  0  0  0  0  0  0  0  0  0  0  0
  -25.9040  -34.9740   23.4100 C   0  0  0  0  0  0  0  0  0  0  0  0
  -26.5720  -34.8710   22.3790 O   0  0  0  0  0  0  0  0  0  0  0  0
  -24.9850  -34.0780   24.9770 H   0  0  0  0  0  0  0  0  0  0  0  0
  -24.1700  -36.7620   23.0550 C   0  0  0  0  0  1  0  0  0  0  0  0
  -25.4120  -36.3610   23.8680 C   0  0  0  0  0  3  0  0  0  0  0  0
  -27.5470  -37.2420   24.6990 C   0  0  0  0  0  1  0  0  0  0  0  0
  -26.4420  -37.4170   23.7600 N   0  0  0  0  0  0  0  0  0  0  0  0
  -26.0350  -38.3340   23.9220 H   0  0  0  0  0  0  0  0  0  0  0  0
  -26.4100  -31.7560   25.1160 C   0  0  1  0  0  0  0  0  0  0  0  0
  -25.3250  -31.5130   26.1910 C   0  0  0  0  0  1  0  0  0  0  0  0
  -26.9950  -30.3820   24.7180 C   0  0  0  0  0  1  0  0  0  0  0  0
  -27.5660  -32.5540   25.7670 C   0  0  0  0  0  1  0  0  0  0  0  0
  2  5  2  0
  3  1  2  0
  4  6  2  0
  4  2  1  0
  5  1  1  0
  5  7  1  0
  6  3  1  0
  8 51  1  0
  8  9  1  0
  8  7  1  0
  9 11  1  0
  9 10  1  0
 12 13  1  0
 12  9  1  0
 14 13  1  0
 15 20  1  0
 16 17  1  0
 16 15  1  0
 18 17  1  0
 18 25  1  0
 18 19  1  0
 20 14  1  0
 20 19  1  0
 21 14  2  0
 22 23  2  0
 23 42  1  0
 24 23  1  0
 24 27  1  0
 25 22  1  0
 25 26  1  0
 26 24  2  0
 27 28  1  0
 28 29  2  0
 30 33  1  0
 30 29  1  0
 31 30  2  0
 32 31  1  0
 32 27  2  0
 33 34  1  0
 34 35  1  0
 35 36  2  0
 37 36  1  0
 37 41  1  0
 38 37  2  0
 39 34  2  0
 39 38  1  0
 40 39  1  0
 42 43  1  0
 43 46  1  0
 43 45  1  0
 44 42  2  0
 47 48  1  0
 47 22  1  0
 49 47  1  0
 51 50  1  0
 52  6  1  0
 52 53  1  0
 53 55  1  0
 54 65  2  0
 55 60  1  0
 56 64  1  0
 56 66  1  0
 57 63  1  0
 57 59  1  0
 58 64  1  0
 59 58  1  0
 60 59  2  0
 61 62  1  0
 61 55  2  0
 62 57  2  0
 63 56  1  0
 64 54  1  0
 66 68  2  0
 67 66  1  0
 69 67  1  0
 70 79  2  0
 70 75  1  0
 71 67  1  0
 71 75  1  0
 72 71  1  0
 73 74  1  0
 73 72  1  0
 74 70  1  0
 75 76  2  0
 76 77  1  0
 78 77  2  0
 79 78  1  0
 80 54  1  0
 80 81  1  0
 80 90  1  0
 81 84  1  0
 82 86  1  0
 82 81  1  0
 83 82  2  0
 86 85  1  0
 88 86  1  0
 88 89  1  0
 88 87  1  0
 90 93  1  1
 90 91  1  0
 92 90  1  0
M  ISO  4  13 100  14 100  52 101  53 101
M  END
>  <TORSDO>  (82) 
F 23

>  <SCORE>  (82) 
-12.934

>  <name>  (82) 
82

>  <ligand_id>  (82) 
82

>  <original_smiles>  (82) 
[H]c1c([H])c([H])c2c(c1[H])C([H])([H])C([H])([H])C([H])([H])C2([H])N([H])C(=O)C1([H])N(C(=O)C([H])(N([H])C(=O)C([H])(N([H])C([H])([H])[H])C([H])([H])[H])C(C([H])([H])[H])(C([H])([H])[H])C([H])([H])[H])C([H])([H])c2c([H])c(OC([H])([H])c3c([H])c([H])c(C([H])([H])C([H])(C([H])([H])C([H])([H])[H])[N+]([H])([H])C([H])([H])C([H])([H])C(=O)N4C([H])([H])C([H])([H])C([H])([H])C([H])(n5nc(-c6c([H])c([H])c(Oc7c([H])c([H])c(F)c([H])c7F)c([H])c6[H])c(C(=O)N([H])[H])c5N([H])[H])C4([H])[H])c([H])c3[H])c([H])c([H])c2C1([H])[H]

>  <smiles>  (82) 
[H]c1c([H])c([H])c2c(c1[H])C([H])([H])C([H])([H])C([H])([H])C2([H])N([H])C(=O)C1([H])N(C(=O)C([H])(N([H])C(=O)C([H])(N([H])C([H])([H])[H])C([H])([H])[H])C(C([H])([H])[H])(C([H])([H])[H])C([H])([H])[H])C([H])([H])c2c([H])c(OC([H])([H])c3c([H])c([H])c(C([H])([H])C([H])(C([H])([H])C([H])([H])[H])[N+]([H])([H])C([H])([H])C([H])([H])C(=O)N4C([H])([H])C([H])([H])C([H])([H])C([H])(n5nc(-c6c([H])c([H])c(Oc7c([H])c([H])c(F)c([H])c7F)c([H])c6[H])c(C(=O)N([H])[H])c5N([H])[H])C4([H])[H])c([H])c3[H])c([H])c([H])c2C1([H])[H]

$$$$
83:0:0
     RDKit          3D

 99108  0  0  1  0  0  0  0  0999 V2000
  -29.8680  -19.3100   19.7800 C   0  0  0  0  0  3  0  0  0  0  0  0
  -31.3090  -17.9440   13.1620 C   0  0  0  0  0  3  0  0  0  0  0  0
  -32.5560  -18.5220   13.4600 C   0  0  0  0  0  3  0  0  0  0  0  0
  -30.1880  -18.2440   13.9580 C   0  0  0  0  0  3  0  0  0  0  0  0
  -32.6800  -19.4010   14.5520 C   0  0  0  0  0  3  0  0  0  0  0  0
  -30.3050  -19.1260   15.0550 C   0  0  0  0  0  0  0  0  0  0  0  0
  -31.5590  -19.7080   15.3530 C   0  0  0  0  0  0  0  0  0  0  0  0
  -29.0810  -19.4240   15.9060 C   0  0  0  0  0  2  0  0  0  0  0  0
  -31.7240  -20.6480   16.5370 C   0  0  0  0  0  2  0  0  0  0  0  0
  -29.2080  -18.8810   17.3390 C   0  0  0  0  0  2  0  0  0  0  0  0
  -31.5090  -19.9420   17.8870 C   0  0  0  0  0  2  0  0  0  0  0  0
  -30.0220  -19.7810   18.3030 C   0  0  0  0  0  3  0  0  0  0  0  0
  -30.3790  -17.8930   19.8860 N   0  0  0  0  0  4  0  0  0  0  0  0
  -29.7940  -17.3410   19.2820 H   0  0  0  0  0  0  0  0  0  0  0  0
  -31.3060  -17.8590   19.4930 H   0  0  0  0  0  0  0  0  0  0  0  0
  -30.4380  -17.1960   21.2080 C   0  0  0  0  0  2  0  0  0  0  0  0
  -29.8680  -15.7280   21.2450 C   0  0  0  0  0  2  0  0  0  0  0  0
  -30.6200  -14.5640   20.5230 C   0  0  0  0  0  0  0  0  0  0  0  0
  -30.3800  -12.3990   19.3220 C   0  0  0  0  0  2  0  0  0  0  0  0
  -29.4260  -12.5890   18.1230 C   0  0  0  0  0  2  0  0  0  0  0  0
  -27.9530  -12.4290   18.5540 C   0  0  0  0  0  2  0  0  0  0  0  0
  -27.6110  -13.2540   19.8220 C   0  0  0  0  0  3  0  0  0  0  0  0
  -28.6710  -13.0250   20.9220 C   0  0  0  0  0  2  0  0  0  0  0  0
  -29.9900  -13.3620   20.3630 N   0  0  0  0  0  0  0  0  0  0  0  0
  -31.7260  -14.7860   20.0220 O   0  0  0  0  0  0  0  0  0  0  0  0
  -25.2110  -13.8580   20.5320 C   0  0  0  0  0  0  0  0  0  0  0  0
  -24.1440  -13.0840   20.9000 C   0  0  0  0  0  0  0  0  0  0  0  0
  -24.6080  -11.7330   20.8710 C   0  0  0  0  0  0  0  0  0  0  0  0
  -26.2580  -12.9780   20.3010 N   0  0  0  0  0  0  0  0  0  0  0  0
  -25.8990  -11.6960   20.5630 N   0  0  0  0  0  0  0  0  0  0  0  0
  -23.8840  -10.4700   21.0600 C   0  0  0  0  0  0  0  0  0  0  0  0
  -24.3250   -9.4980   21.9850 C   0  0  0  0  0  3  0  0  0  0  0  0
  -23.6040   -8.2980   22.1620 C   0  0  0  0  0  3  0  0  0  0  0  0
  -22.4260   -8.0630   21.4150 C   0  0  0  0  0  0  0  0  0  0  0  0
  -22.0020   -9.0230   20.4790 C   0  0  0  0  0  3  0  0  0  0  0  0
  -22.7250  -10.2150   20.3000 C   0  0  0  0  0  3  0  0  0  0  0  0
  -21.6730   -6.9170   21.5030 O   0  0  0  0  0  0  0  0  0  0  0  0
  -21.6430   -6.1600   22.6470 C   0  0  0  0  0  0  0  0  0  0  0  0
  -21.2590   -6.7070   23.8900 C   0  0  0  0  0  3  0  0  0  0  0  0
  -21.1750   -5.8790   25.0280 C   0  0  0  0  0  3  0  0  0  0  0  0
  -21.4650   -4.5050   24.9210 C   0  0  0  0  0  0  0  0  0  0  0  0
  -21.8410   -3.9590   23.6820 C   0  0  0  0  0  3  0  0  0  0  0  0
  -21.9270   -4.7840   22.5480 C   0  0  0  0  0  0  0  0  0  0  0  0
  -22.2700   -4.2470   21.3520 F   0  0  0  0  0  0  0  0  0  0  0  0
  -21.3760   -3.7070   26.0110 F   0  0  0  0  0  0  0  0  0  0  0  0
  -22.7450  -13.5580   21.1710 C   0  0  0  0  0  0  0  0  0  0  0  0
  -22.0180  -12.8610   22.0380 N   0  0  0  0  0  0  0  0  0  0  0  0
  -22.3050  -14.5820   20.6490 O   0  0  0  0  0  0  0  0  0  0  0  0
  -22.3890  -12.0350   22.4830 H   0  0  0  0  0  0  0  0  0  0  0  0
  -21.0790  -13.1590   22.2610 H   0  0  0  0  0  0  0  0  0  0  0  0
  -25.3690  -15.2290   20.3520 N   0  0  0  0  0  0  0  0  0  0  0  0
  -24.5930  -15.8750   20.4460 H   0  0  0  0  0  0  0  0  0  0  0  0
  -26.2080  -15.6690   19.9990 H   0  0  0  0  0  0  0  0  0  0  0  0
  -30.4650  -20.3250   20.8260 C   0  0  0  0  0  2  0  0  0  0  0  0
  -30.4900  -21.8810   20.5460 C   0  0  0  0  0  2  0  0  0  0  0  0
  -29.1720  -22.7250   20.5030 C   0  0  0  0  0  2  0  0  0  0  0  0
  -29.4000  -24.2830   20.4990 C   0  0  0  0  0  3  0  0  0  0  0  0
  -28.1630  -25.1580   20.1210 C   0  0  0  0  0  3  0  0  0  0  0  0
  -28.3350  -26.6010   20.2390 O   0  0  0  0  0  0  0  0  0  0  0  0
  -24.5850  -31.9320   23.2240 C   0  0  0  0  0  0  0  0  0  0  0  0
  -27.1850  -27.3880   20.1960 C   0  0  0  0  0  0  0  0  0  0  0  0
  -23.3680  -30.5240   21.5990 C   0  0  0  0  0  3  0  0  0  0  0  0
  -24.8080  -28.9600   20.1880 C   0  0  0  0  0  0  0  0  0  0  0  0
  -25.9020  -30.8470   21.3990 C   0  0  0  0  0  2  0  0  0  0  0  0
  -25.9780  -29.4660   20.7690 C   0  0  0  0  0  0  0  0  0  0  0  0
  -27.1680  -28.6920   20.7640 C   0  0  0  0  0  3  0  0  0  0  0  0
  -25.9890  -26.9160   19.6010 C   0  0  0  0  0  3  0  0  0  0  0  0
  -24.8130  -27.6860   19.5990 C   0  0  0  0  0  3  0  0  0  0  0  0
  -23.5720  -29.8310   20.2270 C   0  0  0  0  0  2  0  0  0  0  0  0
  -24.6370  -31.1160   22.1310 N   0  0  0  0  0  0  0  0  0  0  0  0
  -23.5050  -32.2210   23.7580 O   0  0  0  0  0  0  0  0  0  0  0  0
  -22.7060  -29.5190   22.5700 C   0  0  0  0  0  0  0  0  0  0  0  0
  -21.3790  -29.3510   22.4470 N   0  0  0  0  0  0  0  0  0  0  0  0
  -23.3840  -28.8940   23.3900 O   0  0  0  0  0  0  0  0  0  0  0  0
  -20.8930  -29.9050   21.7560 H   0  0  0  0  0  0  0  0  0  0  0  0
  -17.9910  -28.2060   22.9750 C   0  0  0  0  0  0  0  0  0  0  0  0
  -20.5540  -28.4290   23.2280 C   0  0  0  0  0  3  0  0  0  0  0  0
  -20.6320  -26.9940   22.6600 C   0  0  0  0  0  2  0  0  0  0  0  0
  -19.5180  -26.6820   21.6540 C   0  0  0  0  0  2  0  0  0  0  0  0
  -18.1430  -26.8510   22.3060 C   0  0  0  0  0  2  0  0  0  0  0  0
  -19.1230  -28.9540   23.3940 C   0  0  0  0  0  0  0  0  0  0  0  0
  -18.9260  -30.2240   23.9770 C   0  0  0  0  0  3  0  0  0  0  0  0
  -17.6290  -30.7450   24.1490 C   0  0  0  0  0  3  0  0  0  0  0  0
  -16.5120  -29.9920   23.7470 C   0  0  0  0  0  3  0  0  0  0  0  0
  -16.6940  -28.7260   23.1650 C   0  0  0  0  0  3  0  0  0  0  0  0
  -25.8740  -32.5610   23.8370 C   0  0  0  0  0  3  0  0  0  0  0  0
  -26.4030  -31.7830   25.1040 C   0  0  1  0  0  0  0  0  0  0  0  0
  -25.3190  -31.5350   26.1790 C   0  0  0  0  0  1  0  0  0  0  0  0
  -26.9850  -30.4090   24.6970 C   0  0  0  0  0  1  0  0  0  0  0  0
  -27.5580  -32.5740   25.7610 C   0  0  0  0  0  1  0  0  0  0  0  0
  -25.5680  -33.9570   24.1750 N   0  0  0  0  0  0  0  0  0  0  0  0
  -25.9020  -35.0130   23.4210 C   0  0  0  0  0  0  0  0  0  0  0  0
  -26.5710  -34.9140   22.3890 O   0  0  0  0  0  0  0  0  0  0  0  0
  -24.9740  -34.1080   24.9770 H   0  0  0  0  0  0  0  0  0  0  0  0
  -24.1780  -36.8120   23.0770 C   0  0  0  0  0  1  0  0  0  0  0  0
  -25.4180  -36.4000   23.8870 C   0  0  0  0  0  3  0  0  0  0  0  0
  -27.5550  -37.2710   24.7220 C   0  0  0  0  0  1  0  0  0  0  0  0
  -26.4540  -37.4520   23.7830 N   0  0  0  0  0  0  0  0  0  0  0  0
  -26.0490  -38.3710   23.9390 H   0  0  0  0  0  0  0  0  0  0  0  0
  1 13  1  0
  1 54  1  0
  2  3  2  0
  2  4  1  0
  3  5  1  0
  4  6  2  0
  5  7  2  0
  6  7  1  0
  6  8  1  0
  7  9  1  0
  8 10  1  0
  9 11  1  0
 10 12  1  0
 11 12  1  0
 12  1  1  0
 13 16  1  0
 14 13  1  0
 15 13  1  0
 16 17  1  0
 18 17  1  0
 19 24  1  0
 20 21  1  0
 20 19  1  0
 22 21  1  0
 22 29  1  0
 22 23  1  0
 24 18  1  0
 24 23  1  0
 25 18  2  0
 26 27  2  0
 27 46  1  0
 28 27  1  0
 28 31  1  0
 29 26  1  0
 29 30  1  0
 30 28  2  0
 31 32  1  0
 32 33  2  0
 34 37  1  0
 34 33  1  0
 35 34  2  0
 36 35  1  0
 36 31  2  0
 37 38  1  0
 38 39  1  0
 39 40  2  0
 41 40  1  0
 41 45  1  0
 42 41  2  0
 43 38  2  0
 43 42  1  0
 44 43  1  0
 46 47  1  0
 47 50  1  0
 47 49  1  0
 48 46  2  0
 51 52  1  0
 51 26  1  0
 53 51  1  0
 55 54  1  0
 56 55  1  0
 57 56  1  0
 58 59  1  0
 58 57  2  0
 60 71  2  0
 61 59  1  0
 61 66  1  0
 62 70  1  0
 62 72  1  0
 63 69  1  0
 63 65  1  0
 64 70  1  0
 65 64  1  0
 66 65  2  0
 67 61  2  0
 68 67  1  0
 68 63  2  0
 69 62  1  0
 70 60  1  0
 72 74  2  0
 73 72  1  0
 75 73  1  0
 76 85  2  0
 76 81  1  0
 77 73  1  0
 77 81  1  0
 78 77  1  0
 79 80  1  0
 79 78  1  0
 80 76  1  0
 81 82  2  0
 82 83  1  0
 84 83  2  0
 85 84  1  0
 86 60  1  0
 86 91  1  0
 86 87  1  0
 87 90  1  1
 87 88  1  0
 89 87  1  0
 91 94  1  0
 92 96  1  0
 92 91  1  0
 93 92  2  0
 96 95  1  0
 98 96  1  0
 98 99  1  0
 98 97  1  0
M  ISO  4  17 100  18 100  58 101  59 101
M  END
>  <TORSDO>  (83) 
F 25

>  <SCORE>  (83) 
-12.591

>  <name>  (83) 
83

>  <ligand_id>  (83) 
83

>  <original_smiles>  (83) 
[H]c1c([H])c([H])c2c(c1[H])C([H])([H])C([H])([H])C([H])([H])C2([H])N([H])C(=O)C1([H])N(C(=O)C([H])(N([H])C(=O)C([H])(N([H])C([H])([H])[H])C([H])([H])[H])C(C([H])([H])[H])(C([H])([H])[H])C([H])([H])[H])C([H])([H])c2c([H])c(OC([H])([H])C([H])([H])C([H])([H])C([H])([H])C([H])([H])C([H])(C3([H])C([H])([H])C([H])([H])c4c([H])c([H])c([H])c([H])c4C([H])([H])C3([H])[H])[N+]([H])([H])C([H])([H])C([H])([H])C(=O)N3C([H])([H])C([H])([H])C([H])([H])C([H])(n4nc(-c5c([H])c([H])c(Oc6c([H])c([H])c(F)c([H])c6F)c([H])c5[H])c(C(=O)N([H])[H])c4N([H])[H])C3([H])[H])c([H])c([H])c2C1([H])[H]

>  <smiles>  (83) 
[H]c1c([H])c([H])c2c(c1[H])C([H])([H])C([H])([H])C([H])([H])C2([H])N([H])C(=O)C1([H])N(C(=O)C([H])(N([H])C(=O)C([H])(N([H])C([H])([H])[H])C([H])([H])[H])C(C([H])([H])[H])(C([H])([H])[H])C([H])([H])[H])C([H])([H])c2c([H])c(OC([H])([H])C([H])([H])C([H])([H])C([H])([H])C([H])([H])C([H])(C3([H])C([H])([H])C([H])([H])c4c([H])c([H])c([H])c([H])c4C([H])([H])C3([H])[H])[N+]([H])([H])C([H])([H])C([H])([H])C(=O)N3C([H])([H])C([H])([H])C([H])([H])C([H])(n4nc(-c5c([H])c([H])c(Oc6c([H])c([H])c(F)c([H])c6F)c([H])c5[H])c(C(=O)N([H])[H])c4N([H])[H])C3([H])[H])c([H])c([H])c2C1([H])[H]

$$$$
84:0:0
     RDKit          3D

 94103  0  0  1  0  0  0  0  0999 V2000
  -29.5540  -20.9800   22.9710 C   0  0  0  0  0  2  0  0  0  0  0  0
  -29.7570  -19.4770   22.6860 C   0  0  0  0  0  2  0  0  0  0  0  0
  -31.8780  -17.4950   20.1660 C   0  0  0  0  0  2  0  0  0  0  0  0
  -31.4440  -17.7960   21.6140 C   0  0  0  0  0  2  0  0  0  0  0  0
  -31.0330  -18.3930   19.2740 C   0  0  0  0  0  3  0  0  0  0  0  0
  -30.3750  -19.4420   20.1630 C   0  0  0  0  0  3  0  0  0  0  0  0
  -30.8370  -19.2170   21.6040 C   0  0  0  0  0  3  0  0  0  0  0  0
  -29.6450  -17.9620   18.7540 C   0  0  0  0  0  3  0  0  0  0  0  0
  -28.9860  -18.9990   19.6760 C   0  0  0  0  0  3  0  0  0  0  0  0
  -28.0570  -20.0510   19.0820 C   0  0  0  0  0  1  0  0  0  0  0  0
  -29.1630  -16.5160   18.8960 C   0  0  0  0  0  2  0  0  0  0  0  0
  -30.2610  -15.4480   19.1040 C   0  0  0  0  0  0  0  0  0  0  0  0
  -30.5910  -13.0130   19.1780 C   0  0  0  0  0  2  0  0  0  0  0  0
  -29.6910  -12.3860   18.0890 C   0  0  0  0  0  2  0  0  0  0  0  0
  -28.2680  -12.1250   18.6320 C   0  0  0  0  0  2  0  0  0  0  0  0
  -27.6690  -13.3600   19.3580 C   0  0  0  0  0  3  0  0  0  0  0  0
  -28.6900  -13.9360   20.3640 C   0  0  0  0  0  2  0  0  0  0  0  0
  -29.9300  -14.2420   19.6380 N   0  0  0  0  0  0  0  0  0  0  0  0
  -31.3560  -15.6580   18.5730 O   0  0  0  0  0  0  0  0  0  0  0  0
  -25.4070  -13.9020   20.4700 C   0  0  0  0  0  0  0  0  0  0  0  0
  -24.3960  -13.0990   20.9210 C   0  0  0  0  0  0  0  0  0  0  0  0
  -24.8310  -11.7550   20.7000 C   0  0  0  0  0  0  0  0  0  0  0  0
  -26.3970  -13.0480   20.0050 N   0  0  0  0  0  0  0  0  0  0  0  0
  -26.0590  -11.7470   20.2010 N   0  0  0  0  0  0  0  0  0  0  0  0
  -24.1250  -10.4810   20.8810 C   0  0  0  0  0  0  0  0  0  0  0  0
  -24.5720   -9.5180   21.8140 C   0  0  0  0  0  3  0  0  0  0  0  0
  -23.8700   -8.3060   21.9830 C   0  0  0  0  0  3  0  0  0  0  0  0
  -22.7090   -8.0460   21.2190 C   0  0  0  0  0  0  0  0  0  0  0  0
  -22.2790   -8.9990   20.2780 C   0  0  0  0  0  3  0  0  0  0  0  0
  -22.9800  -10.2020   20.1070 C   0  0  0  0  0  3  0  0  0  0  0  0
  -21.9790   -6.8860   21.2970 O   0  0  0  0  0  0  0  0  0  0  0  0
  -21.7310   -6.2690   22.4980 C   0  0  0  0  0  0  0  0  0  0  0  0
  -21.1090   -6.9470   23.5660 C   0  0  0  0  0  3  0  0  0  0  0  0
  -20.8100   -6.2570   24.7590 C   0  0  0  0  0  3  0  0  0  0  0  0
  -21.1240   -4.8890   24.8780 C   0  0  0  0  0  0  0  0  0  0  0  0
  -21.7420   -4.2120   23.8130 C   0  0  0  0  0  3  0  0  0  0  0  0
  -22.0420   -4.8990   22.6230 C   0  0  0  0  0  0  0  0  0  0  0  0
  -22.6160   -4.2380   21.5900 F   0  0  0  0  0  0  0  0  0  0  0  0
  -20.8310   -4.2230   26.0200 F   0  0  0  0  0  0  0  0  0  0  0  0
  -23.0570  -13.5470   21.4370 C   0  0  0  0  0  0  0  0  0  0  0  0
  -22.4680  -12.7930   22.3550 N   0  0  0  0  0  0  0  0  0  0  0  0
  -22.5490  -14.6040   21.0620 O   0  0  0  0  0  0  0  0  0  0  0  0
  -22.8960  -11.9400   22.6870 H   0  0  0  0  0  0  0  0  0  0  0  0
  -21.5750  -13.0720   22.7340 H   0  0  0  0  0  0  0  0  0  0  0  0
  -25.5580  -15.2840   20.3960 N   0  0  0  0  0  0  0  0  0  0  0  0
  -24.8180  -15.9130   20.6870 H   0  0  0  0  0  0  0  0  0  0  0  0
  -26.3570  -15.7650   20.0060 H   0  0  0  0  0  0  0  0  0  0  0  0
  -28.3230  -21.5950   22.2780 C   0  0  0  0  0  2  0  0  0  0  0  0
  -28.5090  -23.1090   22.0250 C   0  0  0  0  0  2  0  0  0  0  0  0
  -27.5300  -23.7100   20.9950 C   0  0  0  0  0  2  0  0  0  0  0  0
  -27.9510  -25.0900   20.4460 C   0  0  0  0  0  2  0  0  0  0  0  0
  -29.2080  -25.0420   19.5450 C   0  0  0  0  0  2  0  0  0  0  0  0
  -29.6350  -26.3970   18.9470 C   0  0  0  0  0  2  0  0  0  0  0  0
  -28.7480  -26.7680   17.8880 O   0  0  0  0  0  0  0  0  0  0  0  0
  -25.2600  -30.4040   22.8980 C   0  0  0  0  0  0  0  0  0  0  0  0
  -27.5900  -27.3800   18.2840 C   0  0  0  0  0  0  0  0  0  0  0  0
  -23.8760  -29.5130   21.0470 C   0  0  0  0  0  3  0  0  0  0  0  0
  -25.1640  -28.5880   19.0490 C   0  0  0  0  0  0  0  0  0  0  0  0
  -26.3370  -30.0980   20.6740 C   0  0  0  0  0  2  0  0  0  0  0  0
  -26.3680  -29.0040   19.6300 C   0  0  0  0  0  0  0  0  0  0  0  0
  -27.5820  -28.4040   19.2550 C   0  0  0  0  0  3  0  0  0  0  0  0
  -26.3780  -26.9820   17.6870 C   0  0  0  0  0  3  0  0  0  0  0  0
  -25.1580  -27.5680   18.0800 C   0  0  0  0  0  3  0  0  0  0  0  0
  -23.9150  -29.3040   19.5080 C   0  0  0  0  0  2  0  0  0  0  0  0
  -25.1830  -30.0030   21.5980 N   0  0  0  0  0  0  0  0  0  0  0  0
  -24.2600  -30.4140   23.6280 O   0  0  0  0  0  0  0  0  0  0  0  0
  -23.3920  -28.2000   21.7010 C   0  0  0  0  0  0  0  0  0  0  0  0
  -22.0890  -27.9040   21.5670 N   0  0  0  0  0  0  0  0  0  0  0  0
  -24.1860  -27.4600   22.2890 O   0  0  0  0  0  0  0  0  0  0  0  0
  -21.4930  -28.5770   21.1030 H   0  0  0  0  0  0  0  0  0  0  0  0
  -18.9310  -26.1590   21.6880 C   0  0  0  0  0  0  0  0  0  0  0  0
  -21.4300  -26.6960   22.0610 C   0  0  0  0  0  3  0  0  0  0  0  0
  -21.7270  -25.4830   21.1470 C   0  0  0  0  0  2  0  0  0  0  0  0
  -20.6580  -25.2580   20.0710 C   0  0  0  0  0  2  0  0  0  0  0  0
  -19.2840  -25.0470   20.7150 C   0  0  0  0  0  2  0  0  0  0  0  0
  -19.9380  -26.9400   22.3120 C   0  0  0  0  0  0  0  0  0  0  0  0
  -19.5520  -27.9880   23.1770 C   0  0  0  0  0  3  0  0  0  0  0  0
  -18.1930  -28.2500   23.4300 C   0  0  0  0  0  3  0  0  0  0  0  0
  -17.2020  -27.4600   22.8240 C   0  0  0  0  0  3  0  0  0  0  0  0
  -17.5700  -26.4190   21.9510 C   0  0  0  0  0  3  0  0  0  0  0  0
  -26.6080  -30.8970   23.5180 C   0  0  0  0  0  3  0  0  0  0  0  0
  -27.2850  -29.8280   24.4610 C   0  0  1  0  0  0  0  0  0  0  0  0
  -26.3370  -29.2620   25.5410 C   0  0  0  0  0  1  0  0  0  0  0  0
  -27.8280  -28.6370   23.6380 C   0  0  0  0  0  1  0  0  0  0  0  0
  -28.4980  -30.4610   25.1860 C   0  0  0  0  0  1  0  0  0  0  0  0
  -26.3270  -32.1380   24.2520 N   0  0  0  0  0  0  0  0  0  0  0  0
  -26.6110  -33.3680   23.8040 C   0  0  0  0  0  0  0  0  0  0  0  0
  -27.2150  -33.5750   22.7470 O   0  0  0  0  0  0  0  0  0  0  0  0
  -25.7990  -32.0440   25.1060 H   0  0  0  0  0  0  0  0  0  0  0  0
  -24.8790  -35.1740   24.0620 C   0  0  0  0  0  1  0  0  0  0  0  0
  -26.1540  -34.5600   24.6650 C   0  0  0  0  0  3  0  0  0  0  0  0
  -28.3350  -35.1750   25.6070 C   0  0  0  0  0  1  0  0  0  0  0  0
  -27.1870  -35.6080   24.8170 N   0  0  0  0  0  0  0  0  0  0  0  0
  -26.7940  -36.4330   25.2590 H   0  0  0  0  0  0  0  0  0  0  0  0
  2  1  1  0
  3  4  1  0
  5  6  1  0
  5  3  1  0
  6  7  1  0
  7  4  1  0
  7  2  1  0
  8 11  1  0
  8  5  1  0
  8  9  1  0
  9  6  1  0
 10  9  1  0
 11 12  1  0
 12 18  1  0
 13 18  1  0
 14 15  1  0
 14 13  1  0
 15 16  1  0
 16 23  1  0
 16 17  1  0
 18 17  1  0
 19 12  2  0
 20 21  2  0
 21 40  1  0
 22 25  1  0
 22 21  1  0
 23 24  1  0
 23 20  1  0
 24 22  2  0
 25 26  1  0
 26 27  2  0
 28 31  1  0
 28 27  1  0
 29 28  2  0
 30 29  1  0
 30 25  2  0
 31 32  1  0
 32 37  2  0
 32 33  1  0
 33 34  2  0
 34 35  1  0
 35 39  1  0
 36 35  2  0
 37 36  1  0
 38 37  1  0
 40 41  1  0
 41 43  1  0
 41 44  1  0
 42 40  2  0
 45 20  1  0
 45 46  1  0
 47 45  1  0
 48  1  1  0
 49 48  1  0
 50 49  1  0
 51 50  1  0
 52 51  1  0
 53 52  1  0
 54 56  1  0
 54 53  1  0
 55 81  1  0
 55 66  2  0
 56 61  1  0
 57 65  1  0
 57 67  1  0
 58 64  1  0
 58 60  1  0
 59 65  1  0
 60 59  1  0
 61 60  2  0
 62 63  1  0
 62 56  2  0
 63 58  2  0
 64 57  1  0
 65 55  1  0
 67 69  2  0
 68 67  1  0
 68 72  1  0
 70 68  1  0
 71 80  2  0
 71 76  1  0
 72 76  1  0
 73 72  1  0
 74 75  1  0
 74 73  1  0
 75 71  1  0
 76 77  2  0
 77 78  1  0
 79 78  2  0
 80 79  1  0
 81 86  1  0
 81 82  1  0
 82 85  1  1
 82 83  1  0
 84 82  1  0
 86 89  1  0
 87 86  1  0
 87 91  1  0
 88 87  2  0
 90 91  1  0
 91 93  1  0
 93 94  1  0
 93 92  1  0
M  ISO  4  11 100  12 100  53 101  54 101
M  END
>  <TORSDO>  (84) 
F 25

>  <SCORE>  (84) 
-6.854

>  <name>  (84) 
84

>  <ligand_id>  (84) 
84

>  <original_smiles>  (84) 
[H]c1c([H])c([H])c2c(c1[H])C([H])([H])C([H])([H])C([H])([H])C2([H])N([H])C(=O)C1([H])N(C(=O)C([H])(N([H])C(=O)C([H])(N([H])C([H])([H])[H])C([H])([H])[H])C(C([H])([H])[H])(C([H])([H])[H])C([H])([H])[H])C([H])([H])c2c([H])c(OC([H])([H])C([H])([H])C([H])([H])C([H])([H])C([H])([H])C([H])([H])C([H])([H])C([H])([H])C3([H])C([H])([H])C([H])([H])C4([H])C([H])(C([H])([H])C(=O)N5C([H])([H])C([H])([H])C([H])([H])C([H])(n6nc(-c7c([H])c([H])c(Oc8c([H])c([H])c(F)c([H])c8F)c([H])c7[H])c(C(=O)N([H])[H])c6N([H])[H])C5([H])[H])C([H])(C([H])([H])[H])C34[H])c([H])c([H])c2C1([H])[H]

>  <smiles>  (84) 
[H]c1c([H])c([H])c2c(c1[H])C([H])([H])C([H])([H])C([H])([H])C2([H])N([H])C(=O)C1([H])N(C(=O)C([H])(N([H])C(=O)C([H])(N([H])C([H])([H])[H])C([H])([H])[H])C(C([H])([H])[H])(C([H])([H])[H])C([H])([H])[H])C([H])([H])c2c([H])c(OC([H])([H])C([H])([H])C([H])([H])C([H])([H])C([H])([H])C([H])([H])C([H])([H])C([H])([H])C3([H])C([H])([H])C([H])([H])C4([H])C([H])(C([H])([H])C(=O)N5C([H])([H])C([H])([H])C([H])([H])C([H])(n6nc(-c7c([H])c([H])c(Oc8c([H])c([H])c(F)c([H])c8F)c([H])c7[H])c(C(=O)N([H])[H])c6N([H])[H])C5([H])[H])C([H])(C([H])([H])[H])C34[H])c([H])c([H])c2C1([H])[H]

$$$$
85:0:0
     RDKit          3D

 94103  0  0  1  0  0  0  0  0999 V2000
  -26.2840  -19.9510   19.3410 C   0  0  0  0  0  3  0  0  0  0  0  0
  -26.1610  -18.6840   19.9290 C   0  0  0  0  0  3  0  0  0  0  0  0
  -27.5520  -20.5390   19.1920 C   0  0  0  0  0  3  0  0  0  0  0  0
  -27.3060  -18.0070   20.3790 C   0  0  0  0  0  3  0  0  0  0  0  0
  -28.7230  -19.8860   19.6410 C   0  0  0  0  0  0  0  0  0  0  0  0
  -28.5970  -18.5740   20.2540 C   0  0  0  0  0  0  0  0  0  0  0  0
  -29.9870  -16.5070   20.6060 C   0  0  0  0  0  0  0  0  0  0  0  0
  -30.7580  -19.2340   18.3840 C   0  0  0  0  0  2  0  0  0  0  0  0
  -31.2970  -17.6140   18.7400 C   0  0  0  0  0  2  0  0  0  0  0  0
  -30.0790  -20.5300   19.2750 C   0  0  0  0  0  3  0  0  0  0  0  0
  -30.5260  -16.1470   19.1840 C   0  0  0  0  0  3  0  0  0  0  0  0
  -29.6660  -17.8240   20.8930 N   0  0  0  0  0  0  0  0  0  0  0  0
  -29.9350  -15.6360   21.4810 O   0  0  0  0  0  0  0  0  0  0  0  0
  -31.2540  -14.5520   19.1500 C   0  0  0  0  0  0  0  0  0  0  0  0
  -31.0410  -12.0420   18.5550 C   0  0  0  0  0  2  0  0  0  0  0  0
  -29.9610  -11.7950   17.4700 C   0  0  0  0  0  2  0  0  0  0  0  0
  -28.5670  -11.6450   18.1080 C   0  0  0  0  0  2  0  0  0  0  0  0
  -28.3060  -12.7260   19.1830 C   0  0  0  0  0  3  0  0  0  0  0  0
  -29.4930  -12.9070   20.1480 C   0  0  0  0  0  2  0  0  0  0  0  0
  -30.6670  -13.2720   19.3410 N   0  0  0  0  0  0  0  0  0  0  0  0
  -32.4220  -14.4650   18.7380 O   0  0  0  0  0  0  0  0  0  0  0  0
  -26.1760  -13.4800   20.3690 C   0  0  0  0  0  0  0  0  0  0  0  0
  -25.1010  -12.7970   20.8650 C   0  0  0  0  0  0  0  0  0  0  0  0
  -25.3870  -11.4110   20.6670 C   0  0  0  0  0  0  0  0  0  0  0  0
  -27.0480  -12.5180   19.8900 N   0  0  0  0  0  0  0  0  0  0  0  0
  -26.5960  -11.2600   20.1360 N   0  0  0  0  0  0  0  0  0  0  0  0
  -24.5500  -10.2250   20.8960 C   0  0  0  0  0  0  0  0  0  0  0  0
  -24.8340   -9.3050   21.9280 C   0  0  0  0  0  3  0  0  0  0  0  0
  -24.0010   -8.1860   22.1400 C   0  0  0  0  0  3  0  0  0  0  0  0
  -22.8680   -7.9780   21.3190 C   0  0  0  0  0  0  0  0  0  0  0  0
  -22.6020   -8.8840   20.2770 C   0  0  0  0  0  3  0  0  0  0  0  0
  -23.4350   -9.9940   20.0630 C   0  0  0  0  0  3  0  0  0  0  0  0
  -22.0170   -6.9050   21.4350 O   0  0  0  0  0  0  0  0  0  0  0  0
  -21.5870   -6.4560   22.6580 C   0  0  0  0  0  0  0  0  0  0  0  0
  -20.8300   -7.2730   23.5270 C   0  0  0  0  0  3  0  0  0  0  0  0
  -20.3480   -6.7500   24.7430 C   0  0  0  0  0  3  0  0  0  0  0  0
  -20.6120   -5.4110   25.0890 C   0  0  0  0  0  0  0  0  0  0  0  0
  -21.3610   -4.5940   24.2230 C   0  0  0  0  0  3  0  0  0  0  0  0
  -21.8430   -5.1150   23.0080 C   0  0  0  0  0  0  0  0  0  0  0  0
  -22.5460   -4.3190   22.1670 F   0  0  0  0  0  0  0  0  0  0  0  0
  -20.1430   -4.9050   26.2530 F   0  0  0  0  0  0  0  0  0  0  0  0
  -23.8340  -13.4010   21.3960 C   0  0  0  0  0  0  0  0  0  0  0  0
  -23.1680  -12.7160   22.3180 N   0  0  0  0  0  0  0  0  0  0  0  0
  -23.4550  -14.5130   21.0300 O   0  0  0  0  0  0  0  0  0  0  0  0
  -23.4920  -11.8140   22.6330 H   0  0  0  0  0  0  0  0  0  0  0  0
  -22.3220  -13.0990   22.7150 H   0  0  0  0  0  0  0  0  0  0  0  0
  -26.4750  -14.8350   20.2560 N   0  0  0  0  0  0  0  0  0  0  0  0
  -25.8110  -15.5520   20.5270 H   0  0  0  0  0  0  0  0  0  0  0  0
  -27.2840  -15.2060   19.7800 H   0  0  0  0  0  0  0  0  0  0  0  0
  -31.6070  -18.5750   22.2990 C   0  0  0  0  0  1  0  0  0  0  0  0
  -30.0850  -18.3600   22.1980 C   0  0  0  0  0  2  0  0  0  0  0  0
  -30.0890  -22.2520   18.7500 C   0  0  0  0  0  3  0  0  0  0  0  0
  -29.2170  -23.7530   19.1600 C   0  0  0  0  0  3  0  0  0  0  0  0
  -29.4570  -25.3420   18.8650 O   0  0  0  0  0  0  0  0  0  0  0  0
  -26.2450  -30.5180   23.2970 C   0  0  0  0  0  0  0  0  0  0  0  0
  -28.5230  -26.4600   19.1270 C   0  0  0  0  0  0  0  0  0  0  0  0
  -25.0270  -29.7670   21.2940 C   0  0  0  0  0  3  0  0  0  0  0  0
  -26.4040  -28.4790   19.5280 C   0  0  0  0  0  0  0  0  0  0  0  0
  -27.6050  -29.7540   21.2930 C   0  0  0  0  0  2  0  0  0  0  0  0
  -27.5850  -28.5840   20.2740 C   0  0  0  0  0  0  0  0  0  0  0  0
  -28.6480  -27.6040   20.0510 C   0  0  0  0  0  3  0  0  0  0  0  0
  -27.3260  -26.5020   18.3800 C   0  0  0  0  0  3  0  0  0  0  0  0
  -26.2980  -27.4590   18.5690 C   0  0  0  0  0  3  0  0  0  0  0  0
  -25.2730  -29.4730   19.7890 C   0  0  0  0  0  2  0  0  0  0  0  0
  -26.3120  -30.0210   22.0210 N   0  0  0  0  0  0  0  0  0  0  0  0
  -25.1590  -30.7640   23.8460 O   0  0  0  0  0  0  0  0  0  0  0  0
  -24.1900  -28.6200   21.9150 C   0  0  0  0  0  0  0  0  0  0  0  0
  -22.8520  -28.6870   21.7860 N   0  0  0  0  0  0  0  0  0  0  0  0
  -24.7500  -27.6790   22.4820 O   0  0  0  0  0  0  0  0  0  0  0  0
  -22.4590  -29.4930   21.3210 H   0  0  0  0  0  0  0  0  0  0  0  0
  -19.3240  -27.9070   22.0900 C   0  0  0  0  0  0  0  0  0  0  0  0
  -21.8960  -27.6760   22.2480 C   0  0  0  0  0  3  0  0  0  0  0  0
  -21.7500  -26.5340   21.2140 C   0  0  0  0  0  2  0  0  0  0  0  0
  -20.5960  -26.7560   20.2320 C   0  0  0  0  0  2  0  0  0  0  0  0
  -19.2660  -26.8710   20.9810 C   0  0  0  0  0  2  0  0  0  0  0  0
  -20.5590  -28.2960   22.6750 C   0  0  0  0  0  0  0  0  0  0  0  0
  -20.5560  -29.2860   23.6810 C   0  0  0  0  0  3  0  0  0  0  0  0
  -19.3530  -29.8820   24.1030 C   0  0  0  0  0  3  0  0  0  0  0  0
  -18.1330  -29.4830   23.5310 C   0  0  0  0  0  3  0  0  0  0  0  0
  -18.1190  -28.4950   22.5310 C   0  0  0  0  0  3  0  0  0  0  0  0
  -27.5310  -30.8200   24.1250 C   0  0  0  0  0  3  0  0  0  0  0  0
  -27.9560  -29.6270   25.0670 C   0  0  1  0  0  0  0  0  0  0  0  0
  -26.8170  -29.1240   25.9860 C   0  0  0  0  0  1  0  0  0  0  0  0
  -28.4580  -28.4220   24.2410 C   0  0  0  0  0  1  0  0  0  0  0  0
  -29.1360  -30.0640   25.9660 C   0  0  0  0  0  1  0  0  0  0  0  0
  -27.2810  -32.0330   24.9230 N   0  0  0  0  0  0  0  0  0  0  0  0
  -27.7320  -33.2580   24.6200 C   0  0  0  0  0  0  0  0  0  0  0  0
  -28.4640  -33.4770   23.6520 O   0  0  0  0  0  0  0  0  0  0  0  0
  -26.6430  -31.9370   25.6990 H   0  0  0  0  0  0  0  0  0  0  0  0
  -26.1640  -35.2120   24.8720 C   0  0  0  0  0  1  0  0  0  0  0  0
  -27.3060  -34.4240   25.5340 C   0  0  0  0  0  3  0  0  0  0  0  0
  -29.4140  -34.7520   26.7520 C   0  0  0  0  0  1  0  0  0  0  0  0
  -28.4130  -35.3470   25.8700 N   0  0  0  0  0  0  0  0  0  0  0  0
  -28.0580  -36.1880   26.3170 H   0  0  0  0  0  0  0  0  0  0  0  0
  1  2  1  0
  2  4  2  0
  3  1  2  0
  3  5  1  0
  5  6  2  0
  6  4  1  0
  6 12  1  0
  7 12  1  0
  7 13  2  0
  8  9  1  0
  8 10  1  0
  9 11  1  0
 10 52  1  0
 10  5  1  0
 11 14  1  0
 11  7  1  0
 12 51  1  0
 14 20  1  0
 15 20  1  0
 16 17  1  0
 16 15  1  0
 18 17  1  0
 18 25  1  0
 18 19  1  0
 20 19  1  0
 21 14  2  0
 22 23  2  0
 23 42  1  0
 24 23  1  0
 24 27  1  0
 25 26  1  0
 25 22  1  0
 26 24  2  0
 27 28  1  0
 28 29  2  0
 30 33  1  0
 30 29  1  0
 31 30  2  0
 32 31  1  0
 32 27  2  0
 33 34  1  0
 34 39  2  0
 34 35  1  0
 35 36  2  0
 36 37  1  0
 37 41  1  0
 38 37  2  0
 39 38  1  0
 40 39  1  0
 42 43  1  0
 43 45  1  0
 43 46  1  0
 44 42  2  0
 47 22  1  0
 47 48  1  0
 49 47  1  0
 51 50  1  0
 52 53  2  0
 54 56  1  0
 54 53  1  0
 55 66  2  0
 56 61  1  0
 57 67  1  0
 57 65  1  0
 58 64  1  0
 58 60  1  0
 59 65  1  0
 60 59  1  0
 61 60  2  0
 62 63  1  0
 62 56  2  0
 63 58  2  0
 64 57  1  0
 65 55  1  0
 67 69  2  0
 68 67  1  0
 70 68  1  0
 71 80  2  0
 71 76  1  0
 72 68  1  0
 72 76  1  0
 73 72  1  0
 74 75  1  0
 74 73  1  0
 75 71  1  0
 76 77  2  0
 77 78  1  0
 79 78  2  0
 80 79  1  0
 81 55  1  0
 81 86  1  0
 81 82  1  0
 82 85  1  1
 82 83  1  0
 84 82  1  0
 86 89  1  0
 87 86  1  0
 87 91  1  0
 88 87  2  0
 91 90  1  0
 91 93  1  0
 93 94  1  0
 93 92  1  0
M  ISO  4  11 100  14 100  53 101  54 101
M  END
>  <TORSDO>  (85) 
F 19

>  <SCORE>  (85) 
-8.084

>  <name>  (85) 
85

>  <ligand_id>  (85) 
85

>  <original_smiles>  (85) 
[H]c1c([H])c([H])c2c(c1[H])N(C([H])([H])C([H])([H])[H])C(=O)C([H])(C(=O)N1C([H])([H])C([H])([H])C([H])([H])C([H])(n3nc(-c4c([H])c([H])c(Oc5c([H])c([H])c(F)c([H])c5F)c([H])c4[H])c(C(=O)N([H])[H])c3N([H])[H])C1([H])[H])C([H])([H])C([H])([H])C2([H])C([H])([H])C([H])([H])Oc1c([H])c([H])c2c(c1[H])C([H])([H])N(C(=O)C([H])(N([H])C(=O)C([H])(N([H])C([H])([H])[H])C([H])([H])[H])C(C([H])([H])[H])(C([H])([H])[H])C([H])([H])[H])C([H])(C(=O)N([H])C1([H])c3c([H])c([H])c([H])c([H])c3C([H])([H])C([H])([H])C1([H])[H])C2([H])[H]

>  <smiles>  (85) 
[H]c1c([H])c([H])c2c(c1[H])N(C([H])([H])C([H])([H])[H])C(=O)C([H])(C(=O)N1C([H])([H])C([H])([H])C([H])([H])C([H])(n3nc(-c4c([H])c([H])c(Oc5c([H])c([H])c(F)c([H])c5F)c([H])c4[H])c(C(=O)N([H])[H])c3N([H])[H])C1([H])[H])C([H])([H])C([H])([H])C2([H])C([H])([H])C([H])([H])Oc1c([H])c([H])c2c(c1[H])C([H])([H])N(C(=O)C([H])(N([H])C(=O)C([H])(N([H])C([H])([H])[H])C([H])([H])[H])C(C([H])([H])[H])(C([H])([H])[H])C([H])([H])[H])C([H])(C(=O)N([H])C1([H])c3c([H])c([H])c([H])c([H])c3C([H])([H])C([H])([H])C1([H])[H])C2([H])[H]

$$$$
86:0:0
     RDKit          3D

 90 99  0  0  1  0  0  0  0  0999 V2000
  -31.3850  -19.4080   19.0770 C   0  0  0  0  0  2  0  0  0  0  0  0
  -28.9610  -22.9130   21.5460 C   0  0  0  0  0  3  0  0  0  0  0  0
  -28.3890  -22.3780   19.1400 C   0  0  0  0  0  2  0  0  0  0  0  0
  -31.3290  -18.0250   19.7450 C   0  0  0  0  0  2  0  0  0  0  0  0
  -30.9760  -20.5170   20.0630 C   0  0  0  0  0  2  0  0  0  0  0  0
  -29.1840  -21.3380   21.7590 C   0  0  0  0  0  3  0  0  0  0  0  0
  -28.4850  -20.8260   19.4990 C   0  0  0  0  0  2  0  0  0  0  0  0
  -28.8760  -23.5300   20.1080 C   0  0  0  0  0  3  0  0  0  0  0  0
  -29.9170  -17.6870   20.2610 C   0  0  0  0  0  3  0  0  0  0  0  0
  -29.5240  -20.3500   20.5640 C   0  0  1  0  0  0  0  0  0  0  0  0
  -29.4010  -18.9000   21.0060 O   0  0  0  0  0  0  0  0  0  0  0  0
  -29.8130  -16.1930   20.9710 C   0  0  0  0  0  2  0  0  0  0  0  0
  -30.5590  -14.8310   20.4590 C   0  0  0  0  0  0  0  0  0  0  0  0
  -30.3940  -12.5510   19.4120 C   0  0  0  0  0  2  0  0  0  0  0  0
  -29.4750  -12.6470   18.1750 C   0  0  0  0  0  2  0  0  0  0  0  0
  -27.9940  -12.4650   18.5690 C   0  0  0  0  0  2  0  0  0  0  0  0
  -27.6080  -13.3290   19.8000 C   0  0  0  0  0  3  0  0  0  0  0  0
  -28.6490  -13.2170   20.9330 C   0  0  0  0  0  2  0  0  0  0  0  0
  -29.9530  -13.5920   20.3760 N   0  0  0  0  0  0  0  0  0  0  0  0
  -31.7290  -14.9150   20.0710 O   0  0  0  0  0  0  0  0  0  0  0  0
  -25.2130  -13.9310   20.4730 C   0  0  0  0  0  0  0  0  0  0  0  0
  -24.1360  -13.1650   20.8330 C   0  0  0  0  0  0  0  0  0  0  0  0
  -24.5940  -11.8120   20.8250 C   0  0  0  0  0  0  0  0  0  0  0  0
  -26.2560  -13.0450   20.2670 N   0  0  0  0  0  0  0  0  0  0  0  0
  -25.8920  -11.7650   20.5390 N   0  0  0  0  0  0  0  0  0  0  0  0
  -23.8590  -10.5550   21.0200 C   0  0  0  0  0  0  0  0  0  0  0  0
  -24.2800   -9.5890   21.9620 C   0  0  0  0  0  3  0  0  0  0  0  0
  -23.5420   -8.4000   22.1440 C   0  0  0  0  0  3  0  0  0  0  0  0
  -22.3700   -8.1670   21.3870 C   0  0  0  0  0  0  0  0  0  0  0  0
  -21.9680   -9.1200   20.4340 C   0  0  0  0  0  3  0  0  0  0  0  0
  -22.7060  -10.3010   20.2500 C   0  0  0  0  0  3  0  0  0  0  0  0
  -21.6060   -7.0270   21.4750 O   0  0  0  0  0  0  0  0  0  0  0  0
  -21.5550   -6.2830   22.6270 C   0  0  0  0  0  0  0  0  0  0  0  0
  -21.1460   -6.8410   23.8570 C   0  0  0  0  0  3  0  0  0  0  0  0
  -21.0420   -6.0260   25.0020 C   0  0  0  0  0  3  0  0  0  0  0  0
  -21.3370   -4.6530   24.9170 C   0  0  0  0  0  0  0  0  0  0  0  0
  -21.7350   -4.0910   23.6910 C   0  0  0  0  0  3  0  0  0  0  0  0
  -21.8420   -4.9060   22.5490 C   0  0  0  0  0  0  0  0  0  0  0  0
  -22.2070   -4.3560   21.3650 F   0  0  0  0  0  0  0  0  0  0  0  0
  -21.2280   -3.8670   26.0150 F   0  0  0  0  0  0  0  0  0  0  0  0
  -22.7370  -13.6520   21.0750 C   0  0  0  0  0  0  0  0  0  0  0  0
  -21.9930  -12.9680   21.9380 N   0  0  0  0  0  0  0  0  0  0  0  0
  -22.3100  -14.6700   20.5320 O   0  0  0  0  0  0  0  0  0  0  0  0
  -22.3510  -12.1470   22.4050 H   0  0  0  0  0  0  0  0  0  0  0  0
  -21.0510  -13.2710   22.1390 H   0  0  0  0  0  0  0  0  0  0  0  0
  -25.3900  -15.2980   20.2830 N   0  0  0  0  0  0  0  0  0  0  0  0
  -24.6360  -15.9710   20.3830 H   0  0  0  0  0  0  0  0  0  0  0  0
  -26.2600  -15.7240   19.9860 H   0  0  0  0  0  0  0  0  0  0  0  0
  -27.9880  -24.8930   19.8850 C   0  0  0  0  0  2  0  0  0  0  0  0
  -28.2760  -26.3420   20.2130 O   0  0  0  0  0  0  0  0  0  0  0  0
  -24.6330  -31.8810   23.2260 C   0  0  0  0  0  0  0  0  0  0  0  0
  -27.1970  -27.2690   20.1440 C   0  0  0  0  0  0  0  0  0  0  0  0
  -23.4110  -30.4870   21.5970 C   0  0  0  0  0  3  0  0  0  0  0  0
  -24.8460  -28.9390   20.1490 C   0  0  0  0  0  0  0  0  0  0  0  0
  -25.9550  -30.7880   21.3940 C   0  0  0  0  0  2  0  0  0  0  0  0
  -26.0240  -29.4060   20.7410 C   0  0  0  0  0  0  0  0  0  0  0  0
  -27.2010  -28.5830   20.7330 C   0  0  0  0  0  3  0  0  0  0  0  0
  -25.9920  -26.8920   19.4980 C   0  0  0  0  0  3  0  0  0  0  0  0
  -24.8360  -27.6900   19.5170 C   0  0  0  0  0  3  0  0  0  0  0  0
  -23.6090  -29.8140   20.2140 C   0  0  0  0  0  2  0  0  0  0  0  0
  -24.6860  -31.0720   22.1280 N   0  0  0  0  0  0  0  0  0  0  0  0
  -23.5540  -32.1600   23.7710 O   0  0  0  0  0  0  0  0  0  0  0  0
  -22.7530  -29.4720   22.5630 C   0  0  0  0  0  0  0  0  0  0  0  0
  -21.4250  -29.2950   22.4520 N   0  0  0  0  0  0  0  0  0  0  0  0
  -23.4400  -28.8440   23.3740 O   0  0  0  0  0  0  0  0  0  0  0  0
  -20.9280  -29.8550   21.7740 H   0  0  0  0  0  0  0  0  0  0  0  0
  -18.0550  -28.0860   22.9730 C   0  0  0  0  0  0  0  0  0  0  0  0
  -20.6140  -28.3560   23.2290 C   0  0  0  0  0  3  0  0  0  0  0  0
  -20.7190  -26.9210   22.6570 C   0  0  0  0  0  2  0  0  0  0  0  0
  -19.6130  -26.5920   21.6510 C   0  0  0  0  0  2  0  0  0  0  0  0
  -18.2340  -26.7340   22.3010 C   0  0  0  0  0  2  0  0  0  0  0  0
  -19.1730  -28.8540   23.3940 C   0  0  0  0  0  0  0  0  0  0  0  0
  -18.9520  -30.1180   23.9830 C   0  0  0  0  0  3  0  0  0  0  0  0
  -17.6470  -30.6150   24.1530 C   0  0  0  0  0  3  0  0  0  0  0  0
  -16.5430  -29.8420   23.7510 C   0  0  0  0  0  3  0  0  0  0  0  0
  -16.7480  -28.5800   23.1660 C   0  0  0  0  0  3  0  0  0  0  0  0
  -25.9230  -32.5110   23.8350 C   0  0  0  0  0  3  0  0  0  0  0  0
  -25.6180  -33.9080   24.1790 N   0  0  0  0  0  0  0  0  0  0  0  0
  -25.9280  -34.9650   23.4170 C   0  0  0  0  0  0  0  0  0  0  0  0
  -26.5720  -34.8690   22.3690 O   0  0  0  0  0  0  0  0  0  0  0  0
  -25.0480  -34.0580   24.9990 H   0  0  0  0  0  0  0  0  0  0  0  0
  -24.1860  -36.7550   23.1170 C   0  0  0  0  0  1  0  0  0  0  0  0
  -25.4490  -36.3520   23.8930 C   0  0  0  0  0  3  0  0  0  0  0  0
  -27.6040  -37.2420   24.6660 C   0  0  0  0  0  1  0  0  0  0  0  0
  -26.4740  -37.4090   23.7550 N   0  0  0  0  0  0  0  0  0  0  0  0
  -26.0690  -38.3260   23.9180 H   0  0  0  0  0  0  0  0  0  0  0  0
  -26.4540  -31.7330   25.1010 C   0  0  1  0  0  0  0  0  0  0  0  0
  -25.3760  -31.4920   26.1840 C   0  0  0  0  0  1  0  0  0  0  0  0
  -27.0300  -30.3560   24.6980 C   0  0  0  0  0  1  0  0  0  0  0  0
  -27.6170  -32.5200   25.7530 C   0  0  0  0  0  1  0  0  0  0  0  0
  1  4  1  0
  1  5  1  0
  2  6  2  0
  3  7  1  0
  3  8  1  0
  4  9  1  0
 10  5  1  6
  8 49  1  0
  8  2  1  0
  9 12  1  0
  9 11  1  0
 10  7  1  0
 10 11  1  0
 10  6  1  0
 13 12  1  0
 14 19  1  0
 15 16  1  0
 15 14  1  0
 17 16  1  0
 17 24  1  0
 17 18  1  0
 19 13  1  0
 19 18  1  0
 20 13  2  0
 21 22  2  0
 22 41  1  0
 23 22  1  0
 23 26  1  0
 24 21  1  0
 24 25  1  0
 25 23  2  0
 26 27  1  0
 27 28  2  0
 29 32  1  0
 29 28  1  0
 30 29  2  0
 31 30  1  0
 31 26  2  0
 32 33  1  0
 33 34  1  0
 34 35  2  0
 36 35  1  0
 36 40  1  0
 37 36  2  0
 38 33  2  0
 38 37  1  0
 39 38  1  0
 41 42  1  0
 42 45  1  0
 42 44  1  0
 43 41  2  0
 46 47  1  0
 46 21  1  0
 48 46  1  0
 49 50  1  0
 51 62  2  0
 52 50  1  0
 52 57  1  0
 53 61  1  0
 53 63  1  0
 54 60  1  0
 54 56  1  0
 55 61  1  0
 56 55  1  0
 57 56  2  0
 58 59  1  0
 58 52  2  0
 59 54  2  0
 60 53  1  0
 61 51  1  0
 63 65  2  0
 64 63  1  0
 66 64  1  0
 67 76  2  0
 67 72  1  0
 68 64  1  0
 68 72  1  0
 69 68  1  0
 70 71  1  0
 70 69  1  0
 71 67  1  0
 72 73  2  0
 73 74  1  0
 75 74  2  0
 76 75  1  0
 77 51  1  0
 77 78  1  0
 77 87  1  0
 78 81  1  0
 79 83  1  0
 79 78  1  0
 80 79  2  0
 83 82  1  0
 85 83  1  0
 85 86  1  0
 85 84  1  0
 87 90  1  1
 87 88  1  0
 89 87  1  0
M  ISO  4  12 100  13 100  49 101  50 101
M  END
>  <TORSDO>  (86) 
F 18

>  <SCORE>  (86) 
-14.738

>  <name>  (86) 
86

>  <ligand_id>  (86) 
86

>  <original_smiles>  (86) 
[H]c1c([H])c([H])c2c(c1[H])C([H])([H])C([H])([H])C([H])([H])C2([H])N([H])C(=O)C1([H])N(C(=O)C([H])(N([H])C(=O)C([H])(N([H])C([H])([H])[H])C([H])([H])[H])C(C([H])([H])[H])(C([H])([H])[H])C([H])([H])[H])C([H])([H])c2c([H])c(OC([H])([H])C3([H])C([H])([H])C([H])([H])C4(OC([H])(C([H])([H])C(=O)N5C([H])([H])C([H])([H])C([H])([H])C([H])(n6nc(-c7c([H])c([H])c(Oc8c([H])c([H])c(F)c([H])c8F)c([H])c7[H])c(C(=O)N([H])[H])c6N([H])[H])C5([H])[H])C([H])([H])C([H])([H])C4([H])[H])C([H])([H])C3([H])[H])c([H])c([H])c2C1([H])[H]

>  <smiles>  (86) 
[H]c1c([H])c([H])c2c(c1[H])C([H])([H])C([H])([H])C([H])([H])C2([H])N([H])C(=O)C1([H])N(C(=O)C([H])(N([H])C(=O)C([H])(N([H])C([H])([H])[H])C([H])([H])[H])C(C([H])([H])[H])(C([H])([H])[H])C([H])([H])[H])C([H])([H])c2c([H])c(OC([H])([H])C3([H])C([H])([H])C([H])([H])C4(OC([H])(C([H])([H])C(=O)N5C([H])([H])C([H])([H])C([H])([H])C([H])(n6nc(-c7c([H])c([H])c(Oc8c([H])c([H])c(F)c([H])c8F)c([H])c7[H])c(C(=O)N([H])[H])c6N([H])[H])C5([H])[H])C([H])([H])C([H])([H])C4([H])[H])C([H])([H])C3([H])[H])c([H])c([H])c2C1([H])[H]

$$$$
87:0:0
     RDKit          3D

 90 98  0  0  1  0  0  0  0  0999 V2000
  -29.6360  -21.4660   19.0300 C   0  0  0  0  0  3  0  0  0  0  0  0
  -26.4510  -20.0710   17.3240 C   0  0  0  0  0  2  0  0  0  0  0  0
  -25.8610  -20.8030   18.5380 C   0  0  0  0  0  2  0  0  0  0  0  0
  -27.9580  -20.0170   17.5750 C   0  0  0  0  0  2  0  0  0  0  0  0
  -27.0370  -21.4760   19.2640 C   0  0  0  0  0  2  0  0  0  0  0  0
  -28.2540  -21.3180   18.3330 C   0  0  0  0  0  3  0  0  0  0  0  0
  -29.9810  -20.0440   19.8020 N   0  0  0  0  0  4  0  0  0  0  0  0
  -30.7960  -20.2570   20.3550 H   0  0  0  0  0  0  0  0  0  0  0  0
  -29.2450  -19.9170   20.4740 H   0  0  0  0  0  0  0  0  0  0  0  0
  -30.3230  -18.5390   19.2030 C   0  0  0  0  0  3  0  0  0  0  0  0
  -30.2570  -16.9520   19.9950 C   0  0  0  0  0  3  0  0  0  0  0  0
  -30.9260  -15.3870   19.6470 C   0  0  0  0  0  0  0  0  0  0  0  0
  -30.8360  -12.8830   18.9980 C   0  0  0  0  0  2  0  0  0  0  0  0
  -29.8750  -12.6340   17.8070 C   0  0  0  0  0  2  0  0  0  0  0  0
  -28.4350  -12.4330   18.3080 C   0  0  0  0  0  2  0  0  0  0  0  0
  -28.0400  -13.4860   19.3730 C   0  0  0  0  0  3  0  0  0  0  0  0
  -29.1250  -13.6870   20.4540 C   0  0  0  0  0  2  0  0  0  0  0  0
  -30.3610  -14.0900   19.7660 N   0  0  0  0  0  0  0  0  0  0  0  0
  -32.0960  -15.3510   19.2400 O   0  0  0  0  0  0  0  0  0  0  0  0
  -25.7470  -14.1490   20.2770 C   0  0  0  0  0  0  0  0  0  0  0  0
  -24.6670  -13.4170   20.6840 C   0  0  0  0  0  0  0  0  0  0  0  0
  -25.0560  -12.0460   20.5880 C   0  0  0  0  0  0  0  0  0  0  0  0
  -26.7250  -13.2280   19.9460 N   0  0  0  0  0  0  0  0  0  0  0  0
  -26.3240  -11.9540   20.2000 N   0  0  0  0  0  0  0  0  0  0  0  0
  -24.2720  -10.8190   20.7830 C   0  0  0  0  0  0  0  0  0  0  0  0
  -24.6770   -9.8200   21.6960 C   0  0  0  0  0  3  0  0  0  0  0  0
  -23.8960   -8.6600   21.8820 C   0  0  0  0  0  3  0  0  0  0  0  0
  -22.6940   -8.4910   21.1550 C   0  0  0  0  0  0  0  0  0  0  0  0
  -22.3070   -9.4750   20.2300 C   0  0  0  0  0  3  0  0  0  0  0  0
  -23.0890  -10.6270   20.0430 C   0  0  0  0  0  3  0  0  0  0  0  0
  -21.8830   -7.3840   21.2520 O   0  0  0  0  0  0  0  0  0  0  0  0
  -21.7840   -6.6630   22.4150 C   0  0  0  0  0  0  0  0  0  0  0  0
  -21.3510   -7.2520   23.6220 C   0  0  0  0  0  3  0  0  0  0  0  0
  -21.1970   -6.4590   24.7770 C   0  0  0  0  0  3  0  0  0  0  0  0
  -21.4680   -5.0790   24.7250 C   0  0  0  0  0  0  0  0  0  0  0  0
  -21.8940   -4.4890   23.5220 C   0  0  0  0  0  3  0  0  0  0  0  0
  -22.0500   -5.2800   22.3700 C   0  0  0  0  0  0  0  0  0  0  0  0
  -22.4400   -4.7030   21.2070 F   0  0  0  0  0  0  0  0  0  0  0  0
  -21.3140   -4.3150   25.8320 F   0  0  0  0  0  0  0  0  0  0  0  0
  -23.3150  -13.9590   21.0490 C   0  0  0  0  0  0  0  0  0  0  0  0
  -22.6090  -13.2880   21.9520 N   0  0  0  0  0  0  0  0  0  0  0  0
  -22.8990  -15.0120   20.5670 O   0  0  0  0  0  0  0  0  0  0  0  0
  -22.9630  -12.4360   22.3610 H   0  0  0  0  0  0  0  0  0  0  0  0
  -21.7050  -13.6310   22.2390 H   0  0  0  0  0  0  0  0  0  0  0  0
  -25.9750  -15.5140   20.1320 N   0  0  0  0  0  0  0  0  0  0  0  0
  -25.2520  -16.2020   20.3050 H   0  0  0  0  0  0  0  0  0  0  0  0
  -26.8280  -15.9150   19.7630 H   0  0  0  0  0  0  0  0  0  0  0  0
  -29.6010  -23.1130   19.7140 C   0  0  0  0  0  3  0  0  0  0  0  0
  -28.7190  -24.5850   19.2280 C   0  0  0  0  0  3  0  0  0  0  0  0
  -28.8060  -26.1650   19.6220 O   0  0  0  0  0  0  0  0  0  0  0  0
  -24.6510  -31.4590   22.9570 C   0  0  0  0  0  0  0  0  0  0  0  0
  -27.6930  -27.1410   19.6150 C   0  0  0  0  0  0  0  0  0  0  0  0
  -23.6160  -30.1060   21.1800 C   0  0  0  0  0  3  0  0  0  0  0  0
  -25.2280  -28.7710   19.6630 C   0  0  0  0  0  0  0  0  0  0  0  0
  -26.1510  -30.5690   21.1120 C   0  0  0  0  0  2  0  0  0  0  0  0
  -26.3610  -29.2370   20.3430 C   0  0  0  0  0  0  0  0  0  0  0  0
  -27.5870  -28.4440   20.2960 C   0  0  0  0  0  3  0  0  0  0  0  0
  -26.5190  -26.8130   18.9000 C   0  0  0  0  0  3  0  0  0  0  0  0
  -25.3280  -27.5800   18.9250 C   0  0  0  0  0  3  0  0  0  0  0  0
  -23.9290  -29.5650   19.7570 C   0  0  0  0  0  2  0  0  0  0  0  0
  -24.8240  -30.7350   21.8060 N   0  0  0  0  0  0  0  0  0  0  0  0
  -23.5310  -31.6030   23.4750 O   0  0  0  0  0  0  0  0  0  0  0  0
  -23.0050  -28.9720   22.0400 C   0  0  0  0  0  0  0  0  0  0  0  0
  -21.6990  -28.6980   21.8670 N   0  0  0  0  0  0  0  0  0  0  0  0
  -23.7100  -28.3410   22.8330 O   0  0  0  0  0  0  0  0  0  0  0  0
  -21.1840  -29.2540   21.1990 H   0  0  0  0  0  0  0  0  0  0  0  0
  -18.4230  -27.1840   22.2290 C   0  0  0  0  0  0  0  0  0  0  0  0
  -20.9540  -27.6280   22.5380 C   0  0  0  0  0  3  0  0  0  0  0  0
  -21.1710  -26.2710   21.8310 C   0  0  0  0  0  2  0  0  0  0  0  0
  -20.0990  -25.9580   20.7800 C   0  0  0  0  0  2  0  0  0  0  0  0
  -18.7120  -25.9270   21.4250 C   0  0  0  0  0  2  0  0  0  0  0  0
  -19.4750  -27.9910   22.7390 C   0  0  0  0  0  0  0  0  0  0  0  0
  -19.1510  -29.1630   23.4550 C   0  0  0  0  0  3  0  0  0  0  0  0
  -17.8080  -29.5320   23.6640 C   0  0  0  0  0  3  0  0  0  0  0  0
  -16.7720  -28.7240   23.1670 C   0  0  0  0  0  3  0  0  0  0  0  0
  -17.0800  -27.5510   22.4560 C   0  0  0  0  0  3  0  0  0  0  0  0
  -25.8490  -32.1550   23.6720 C   0  0  0  0  0  3  0  0  0  0  0  0
  -25.4340  -33.5250   24.0200 N   0  0  0  0  0  0  0  0  0  0  0  0
  -25.7960  -34.6290   23.3520 C   0  0  0  0  0  0  0  0  0  0  0  0
  -26.5750  -34.6020   22.3960 O   0  0  0  0  0  0  0  0  0  0  0  0
  -24.7470  -33.6150   24.7540 H   0  0  0  0  0  0  0  0  0  0  0  0
  -24.0370  -36.3720   22.8940 C   0  0  0  0  0  1  0  0  0  0  0  0
  -25.2010  -35.9740   23.8160 C   0  0  0  0  0  3  0  0  0  0  0  0
  -27.1880  -36.9060   24.9170 C   0  0  0  0  0  1  0  0  0  0  0  0
  -26.1910  -37.0720   23.8630 N   0  0  0  0  0  0  0  0  0  0  0  0
  -25.7310  -37.9680   23.9990 H   0  0  0  0  0  0  0  0  0  0  0  0
  -26.3280  -31.3880   24.9660 C   0  0  1  0  0  0  0  0  0  0  0  0
  -25.1870  -31.0730   25.9630 C   0  0  0  0  0  1  0  0  0  0  0  0
  -27.0050  -30.0490   24.5960 C   0  0  0  0  0  1  0  0  0  0  0  0
  -27.3930  -32.2290   25.7080 C   0  0  0  0  0  1  0  0  0  0  0  0
  1 48  1  0
  1  7  1  0
  2  4  1  0
  2  3  1  0
  3  5  1  0
  4  6  1  0
  6  1  1  0
  6  5  1  0
  7  8  1  0
  7  9  1  0
 10  7  1  0
 10 11  2  0
 12 18  1  0
 12 11  1  0
 13 18  1  0
 14 15  1  0
 14 13  1  0
 16 15  1  0
 16 23  1  0
 16 17  1  0
 18 17  1  0
 19 12  2  0
 20 21  2  0
 21 40  1  0
 22 21  1  0
 22 25  1  0
 23 24  1  0
 23 20  1  0
 24 22  2  0
 25 26  1  0
 26 27  2  0
 28 31  1  0
 28 27  1  0
 29 28  2  0
 30 29  1  0
 30 25  2  0
 31 32  1  0
 32 33  1  0
 33 34  2  0
 35 34  1  0
 35 39  1  0
 36 35  2  0
 37 32  2  0
 37 36  1  0
 38 37  1  0
 40 41  1  0
 41 44  1  0
 41 43  1  0
 42 40  2  0
 45 20  1  0
 45 46  1  0
 47 45  1  0
 49 50  1  0
 49 48  2  0
 51 62  2  0
 52 50  1  0
 52 57  1  0
 53 61  1  0
 53 63  1  0
 54 60  1  0
 54 56  1  0
 55 61  1  0
 56 55  1  0
 57 56  2  0
 58 59  1  0
 58 52  2  0
 59 54  2  0
 60 53  1  0
 61 51  1  0
 63 65  2  0
 64 63  1  0
 66 64  1  0
 67 76  2  0
 67 72  1  0
 68 64  1  0
 68 72  1  0
 69 68  1  0
 70 71  1  0
 70 69  1  0
 71 67  1  0
 72 73  2  0
 73 74  1  0
 75 74  2  0
 76 75  1  0
 77 51  1  0
 77 78  1  0
 77 87  1  0
 78 81  1  0
 79 83  1  0
 79 78  1  0
 80 79  2  0
 83 82  1  0
 83 85  1  0
 85 86  1  0
 85 84  1  0
 87 90  1  1
 87 88  1  0
 89 87  1  0
M  ISO  4  11 100  12 100  49 101  50 101
M  END
>  <TORSDO>  (87) 
F 22

>  <SCORE>  (87) 
-13.169

>  <name>  (87) 
87

>  <ligand_id>  (87) 
87

>  <original_smiles>  (87) 
[H]c1c([H])c([H])c2c(c1[H])C([H])([H])C([H])([H])C([H])([H])C2([H])N([H])C(=O)C1([H])N(C(=O)C([H])(N([H])C(=O)C([H])(N([H])C([H])([H])[H])C([H])([H])[H])C(C([H])([H])[H])(C([H])([H])[H])C([H])([H])[H])C([H])([H])c2c([H])c(OC([H])([H])C([H])([H])C([H])(C3([H])C([H])([H])C([H])([H])C([H])([H])C3([H])[H])[N+]([H])([H])C([H])([H])C([H])([H])C(=O)N3C([H])([H])C([H])([H])C([H])([H])C([H])(n4nc(-c5c([H])c([H])c(Oc6c([H])c([H])c(F)c([H])c6F)c([H])c5[H])c(C(=O)N([H])[H])c4N([H])[H])C3([H])[H])c([H])c([H])c2C1([H])[H]

>  <smiles>  (87) 
[H]c1c([H])c([H])c2c(c1[H])C([H])([H])C([H])([H])C([H])([H])C2([H])N([H])C(=O)C1([H])N(C(=O)C([H])(N([H])C(=O)C([H])(N([H])C([H])([H])[H])C([H])([H])[H])C(C([H])([H])[H])(C([H])([H])[H])C([H])([H])[H])C([H])([H])c2c([H])c(OC([H])([H])C([H])([H])C([H])(C3([H])C([H])([H])C([H])([H])C([H])([H])C3([H])[H])[N+]([H])([H])C([H])([H])C([H])([H])C(=O)N3C([H])([H])C([H])([H])C([H])([H])C([H])(n4nc(-c5c([H])c([H])c(Oc6c([H])c([H])c(F)c([H])c6F)c([H])c5[H])c(C(=O)N([H])[H])c4N([H])[H])C3([H])[H])c([H])c([H])c2C1([H])[H]

$$$$
88:0:0
     RDKit          3D

 90 99  0  0  1  0  0  0  0  0999 V2000
  -29.5630  -20.1840   19.9250 C   0  0  0  0  0  0  0  0  0  0  0  0
  -29.6220  -21.1790   18.7240 C   0  0  0  0  0  2  0  0  0  0  0  0
  -27.2410  -22.0470   18.8150 C   0  0  0  0  0  2  0  0  0  0  0  0
  -26.9890  -21.8730   20.3190 C   0  0  0  0  0  2  0  0  0  0  0  0
  -29.2410  -21.0170   21.2150 C   0  0  0  0  0  3  0  0  0  0  0  0
  -28.7110  -22.4890   18.7560 C   0  0  0  0  0  3  0  0  0  0  0  0
  -28.3110  -22.3260   20.9900 C   0  0  0  0  0  3  0  0  0  0  0  0
  -28.8490  -23.4490   19.9990 C   0  0  0  0  0  3  0  0  0  0  0  0
  -30.5380  -21.3970   21.9540 C   0  0  0  0  0  1  0  0  0  0  0  0
  -29.8230  -18.8880   19.7370 N   0  0  0  0  0  0  0  0  0  0  0  0
  -27.9770  -24.8560   19.8230 C   0  0  0  0  0  2  0  0  0  0  0  0
  -28.2700  -26.3040   20.2070 O   0  0  0  0  0  0  0  0  0  0  0  0
  -24.6200  -31.8890   23.2450 C   0  0  0  0  0  0  0  0  0  0  0  0
  -27.2060  -27.2600   20.1490 C   0  0  0  0  0  0  0  0  0  0  0  0
  -23.4120  -30.4980   21.6080 C   0  0  0  0  0  3  0  0  0  0  0  0
  -24.8570  -28.9490   20.1610 C   0  0  0  0  0  0  0  0  0  0  0  0
  -25.9640  -30.7800   21.4370 C   0  0  0  0  0  2  0  0  0  0  0  0
  -26.0360  -29.4020   20.7710 C   0  0  0  0  0  0  0  0  0  0  0  0
  -27.2090  -28.5680   20.7620 C   0  0  0  0  0  3  0  0  0  0  0  0
  -26.0050  -26.9110   19.4840 C   0  0  0  0  0  3  0  0  0  0  0  0
  -24.8530  -27.7140   19.5010 C   0  0  0  0  0  3  0  0  0  0  0  0
  -23.6180  -29.8210   20.2260 C   0  0  0  0  0  2  0  0  0  0  0  0
  -24.6840  -31.0760   22.1490 N   0  0  0  0  0  0  0  0  0  0  0  0
  -23.5380  -32.1700   23.7820 O   0  0  0  0  0  0  0  0  0  0  0  0
  -22.7430  -29.4840   22.5680 C   0  0  0  0  0  0  0  0  0  0  0  0
  -21.4160  -29.3110   22.4440 N   0  0  0  0  0  0  0  0  0  0  0  0
  -23.4200  -28.8580   23.3860 O   0  0  0  0  0  0  0  0  0  0  0  0
  -20.9250  -29.8640   21.7550 H   0  0  0  0  0  0  0  0  0  0  0  0
  -18.0390  -28.1060   22.9500 C   0  0  0  0  0  0  0  0  0  0  0  0
  -20.5990  -28.3700   23.2140 C   0  0  0  0  0  3  0  0  0  0  0  0
  -20.7010  -26.9390   22.6380 C   0  0  0  0  0  2  0  0  0  0  0  0
  -19.5980  -26.6150   21.6240 C   0  0  0  0  0  2  0  0  0  0  0  0
  -18.2160  -26.7600   22.2680 C   0  0  0  0  0  2  0  0  0  0  0  0
  -19.1580  -28.8710   23.3770 C   0  0  0  0  0  0  0  0  0  0  0  0
  -18.9360  -30.1320   23.9710 C   0  0  0  0  0  3  0  0  0  0  0  0
  -17.6320  -30.6320   24.1370 C   0  0  0  0  0  3  0  0  0  0  0  0
  -16.5270  -29.8630   23.7300 C   0  0  0  0  0  3  0  0  0  0  0  0
  -16.7320  -28.6010   23.1450 C   0  0  0  0  0  3  0  0  0  0  0  0
  -25.9040  -32.5220   23.8650 C   0  0  0  0  0  3  0  0  0  0  0  0
  -26.4230  -31.7480   25.1390 C   0  0  1  0  0  0  0  0  0  0  0  0
  -25.3300  -31.5040   26.2070 C   0  0  0  0  0  1  0  0  0  0  0  0
  -27.0070  -30.3690   24.7540 C   0  0  0  0  0  1  0  0  0  0  0  0
  -27.5760  -32.5390   25.7990 C   0  0  0  0  0  1  0  0  0  0  0  0
  -25.5950  -33.9180   24.2020 N   0  0  0  0  0  0  0  0  0  0  0  0
  -25.9120  -34.9750   23.4420 C   0  0  0  0  0  0  0  0  0  0  0  0
  -26.5630  -34.8770   22.3980 O   0  0  0  0  0  0  0  0  0  0  0  0
  -25.0120  -34.0700   25.0120 H   0  0  0  0  0  0  0  0  0  0  0  0
  -24.1690  -36.7620   23.1330 C   0  0  0  0  0  1  0  0  0  0  0  0
  -25.4320  -36.3630   23.9130 C   0  0  0  0  0  3  0  0  0  0  0  0
  -27.5840  -37.2560   24.6880 C   0  0  0  0  0  1  0  0  0  0  0  0
  -26.4570  -37.4210   23.7730 N   0  0  0  0  0  0  0  0  0  0  0  0
  -26.0510  -38.3390   23.9340 H   0  0  0  0  0  0  0  0  0  0  0  0
  -30.1090  -17.7300   20.7050 C   0  0  0  0  0  2  0  0  0  0  0  0
  -29.6470  -16.2180   20.2590 C   0  0  0  0  0  2  0  0  0  0  0  0
  -30.5410  -14.8580   20.3380 C   0  0  0  0  0  0  0  0  0  0  0  0
  -30.4120  -12.5500   19.3830 C   0  0  0  0  0  2  0  0  0  0  0  0
  -29.4770  -12.5870   18.1520 C   0  0  0  0  0  2  0  0  0  0  0  0
  -28.0050  -12.4060   18.5710 C   0  0  0  0  0  2  0  0  0  0  0  0
  -27.6100  -13.3120   19.7650 C   0  0  0  0  0  3  0  0  0  0  0  0
  -28.6580  -13.2410   20.8950 C   0  0  0  0  0  2  0  0  0  0  0  0
  -29.9620  -13.6040   20.3240 N   0  0  0  0  0  0  0  0  0  0  0  0
  -31.7520  -14.9450   20.1180 O   0  0  0  0  0  0  0  0  0  0  0  0
  -25.2120  -13.9090   20.4640 C   0  0  0  0  0  0  0  0  0  0  0  0
  -24.1420  -13.1360   20.8300 C   0  0  0  0  0  0  0  0  0  0  0  0
  -24.6080  -11.7870   20.8200 C   0  0  0  0  0  0  0  0  0  0  0  0
  -26.2610  -13.0270   20.2480 N   0  0  0  0  0  0  0  0  0  0  0  0
  -25.9030  -11.7480   20.5280 N   0  0  0  0  0  0  0  0  0  0  0  0
  -23.8810  -10.5250   21.0160 C   0  0  0  0  0  0  0  0  0  0  0  0
  -24.3040   -9.5600   21.9580 C   0  0  0  0  0  3  0  0  0  0  0  0
  -23.5750   -8.3660   22.1380 C   0  0  0  0  0  3  0  0  0  0  0  0
  -22.4070   -8.1260   21.3760 C   0  0  0  0  0  0  0  0  0  0  0  0
  -22.0070   -9.0760   20.4170 C   0  0  0  0  0  3  0  0  0  0  0  0
  -22.7370  -10.2630   20.2350 C   0  0  0  0  0  3  0  0  0  0  0  0
  -21.6510   -6.9830   21.4630 O   0  0  0  0  0  0  0  0  0  0  0  0
  -21.5950   -6.2450   22.6200 C   0  0  0  0  0  0  0  0  0  0  0  0
  -21.1600   -6.8080   23.8390 C   0  0  0  0  0  3  0  0  0  0  0  0
  -21.0490   -5.9990   24.9890 C   0  0  0  0  0  3  0  0  0  0  0  0
  -21.3630   -4.6290   24.9150 C   0  0  0  0  0  0  0  0  0  0  0  0
  -21.7920   -4.0640   23.7010 C   0  0  0  0  0  3  0  0  0  0  0  0
  -21.9020   -4.8710   22.5540 C   0  0  0  0  0  0  0  0  0  0  0  0
  -22.2940   -4.3180   21.3790 F   0  0  0  0  0  0  0  0  0  0  0  0
  -21.2520   -3.8480   26.0160 F   0  0  0  0  0  0  0  0  0  0  0  0
  -22.7400  -13.6150   21.0750 C   0  0  0  0  0  0  0  0  0  0  0  0
  -21.9980  -12.9240   21.9340 N   0  0  0  0  0  0  0  0  0  0  0  0
  -22.3040  -14.6330   20.5380 O   0  0  0  0  0  0  0  0  0  0  0  0
  -22.3650  -12.1070   22.3980 H   0  0  0  0  0  0  0  0  0  0  0  0
  -21.0520  -13.2230   22.1340 H   0  0  0  0  0  0  0  0  0  0  0  0
  -25.3770  -15.2780   20.2730 N   0  0  0  0  0  0  0  0  0  0  0  0
  -24.6120  -15.9370   20.3610 H   0  0  0  0  0  0  0  0  0  0  0  0
  -26.2280  -15.7080   19.9320 H   0  0  0  0  0  0  0  0  0  0  0  0
  1  5  1  0
  2  1  1  0
  3  4  1  0
  5  9  1  0
  6  2  1  0
  6  3  1  0
  6  8  1  0
  7  4  1  0
  7  5  1  0
  8 11  1  0
  8  7  1  0
 10  1  2  0
 10 53  1  0
 11 12  1  0
 13 24  2  0
 14 12  1  0
 14 19  1  0
 15 23  1  0
 15 25  1  0
 16 22  1  0
 16 18  1  0
 17 23  1  0
 18 17  1  0
 19 18  2  0
 20 21  1  0
 20 14  2  0
 21 16  2  0
 22 15  1  0
 23 13  1  0
 25 27  2  0
 26 25  1  0
 28 26  1  0
 29 38  2  0
 29 34  1  0
 30 26  1  0
 30 34  1  0
 31 30  1  0
 32 33  1  0
 32 31  1  0
 33 29  1  0
 34 35  2  0
 35 36  1  0
 37 36  2  0
 38 37  1  0
 39 13  1  0
 39 44  1  0
 39 40  1  0
 40 43  1  1
 40 41  1  0
 42 40  1  0
 44 47  1  0
 45 49  1  0
 45 44  1  0
 46 45  2  0
 49 48  1  0
 51 49  1  0
 51 52  1  0
 51 50  1  0
 54 55  1  0
 54 53  1  0
 56 61  1  0
 57 58  1  0
 57 56  1  0
 59 58  1  0
 59 66  1  0
 59 60  1  0
 61 55  1  0
 61 60  1  0
 62 55  2  0
 63 64  2  0
 64 83  1  0
 65 64  1  0
 65 68  1  0
 66 63  1  0
 66 67  1  0
 67 65  2  0
 68 69  1  0
 69 70  2  0
 71 74  1  0
 71 70  1  0
 72 71  2  0
 73 72  1  0
 73 68  2  0
 74 75  1  0
 75 76  1  0
 76 77  2  0
 78 77  1  0
 78 82  1  0
 79 78  2  0
 80 75  2  0
 80 79  1  0
 81 80  1  0
 83 84  1  0
 84 87  1  0
 84 86  1  0
 85 83  2  0
 88 89  1  0
 88 63  1  0
 90 88  1  0
M  ISO  4  11 101  12 101  54 100  55 100
M  END
>  <TORSDO>  (88) 
F 19

>  <SCORE>  (88) 
-14.113

>  <name>  (88) 
88

>  <ligand_id>  (88) 
88

>  <original_smiles>  (88) 
[H]c1c([H])c([H])c2c(c1[H])C([H])([H])C([H])([H])C([H])([H])C2([H])N([H])C(=O)C1([H])N(C(=O)C([H])(N([H])C(=O)C([H])(N([H])C([H])([H])[H])C([H])([H])[H])C(C([H])([H])[H])(C([H])([H])[H])C([H])([H])[H])C([H])([H])c2c([H])c(OC([H])([H])C3([H])C4([H])C([H])([H])C(=NC([H])([H])C([H])([H])C(=O)N5C([H])([H])C([H])([H])C([H])([H])C([H])(n6nc(-c7c([H])c([H])c(Oc8c([H])c([H])c(F)c([H])c8F)c([H])c7[H])c(C(=O)N([H])[H])c6N([H])[H])C5([H])[H])C([H])(C([H])([H])[H])C3([H])C([H])([H])C4([H])[H])c([H])c([H])c2C1([H])[H]

>  <smiles>  (88) 
[H]c1c([H])c([H])c2c(c1[H])C([H])([H])C([H])([H])C([H])([H])C2([H])N([H])C(=O)C1([H])N(C(=O)C([H])(N([H])C(=O)C([H])(N([H])C([H])([H])[H])C([H])([H])[H])C(C([H])([H])[H])(C([H])([H])[H])C([H])([H])[H])C([H])([H])c2c([H])c(OC([H])([H])C3([H])C4([H])C([H])([H])C(=NC([H])([H])C([H])([H])C(=O)N5C([H])([H])C([H])([H])C([H])([H])C([H])(n6nc(-c7c([H])c([H])c(Oc8c([H])c([H])c(F)c([H])c8F)c([H])c7[H])c(C(=O)N([H])[H])c6N([H])[H])C5([H])[H])C([H])(C([H])([H])[H])C3([H])C([H])([H])C4([H])[H])c([H])c([H])c2C1([H])[H]

$$$$
89:0:0
     RDKit          3D

 91 99  0  0  1  0  0  0  0  0999 V2000
  -29.8290  -17.0910   21.2270 C   0  0  0  0  0  0  0  0  0  0  0  0
  -29.5480  -19.6690   21.2250 C   0  0  0  0  0  2  0  0  0  0  0  0
  -30.0390  -16.8760   19.7060 C   0  0  0  0  0  3  0  0  0  0  0  0
  -29.5510  -19.9050   19.6990 C   0  0  0  0  0  3  0  0  0  0  0  0
  -30.3380  -18.4800   19.0900 C   0  0  0  0  0  3  0  0  0  0  0  0
  -29.4050  -18.2790   21.7130 N   0  0  0  0  0  0  0  0  0  0  0  0
  -29.9710  -16.1690   22.0300 O   0  0  0  0  0  0  0  0  0  0  0  0
  -29.1450  -18.2320   22.6890 H   0  0  0  0  0  0  0  0  0  0  0  0
  -30.8340  -15.3360   19.4690 C   0  0  0  0  0  0  0  0  0  0  0  0
  -30.6890  -12.8950   18.6300 C   0  0  0  0  0  2  0  0  0  0  0  0
  -29.6460  -12.7450   17.4890 C   0  0  0  0  0  2  0  0  0  0  0  0
  -28.2310  -12.5190   18.0500 C   0  0  0  0  0  2  0  0  0  0  0  0
  -27.9180  -13.4920   19.2130 C   0  0  0  0  0  3  0  0  0  0  0  0
  -29.0660  -13.5790   20.2340 C   0  0  0  0  0  2  0  0  0  0  0  0
  -30.2710  -14.0340   19.5170 N   0  0  0  0  0  0  0  0  0  0  0  0
  -32.0150  -15.3260   19.0820 O   0  0  0  0  0  0  0  0  0  0  0  0
  -25.6790  -14.1240   20.2560 C   0  0  0  0  0  0  0  0  0  0  0  0
  -24.6270  -13.3800   20.7120 C   0  0  0  0  0  0  0  0  0  0  0  0
  -25.0180  -12.0140   20.5640 C   0  0  0  0  0  0  0  0  0  0  0  0
  -26.6400  -13.2150   19.8520 N   0  0  0  0  0  0  0  0  0  0  0  0
  -26.2620  -11.9350   20.1030 N   0  0  0  0  0  0  0  0  0  0  0  0
  -24.2500  -10.7790   20.7700 C   0  0  0  0  0  0  0  0  0  0  0  0
  -24.6990   -9.7670   21.6480 C   0  0  0  0  0  3  0  0  0  0  0  0
  -23.9340   -8.5970   21.8410 C   0  0  0  0  0  3  0  0  0  0  0  0
  -22.7050   -8.4320   21.1590 C   0  0  0  0  0  0  0  0  0  0  0  0
  -22.2740   -9.4320   20.2690 C   0  0  0  0  0  3  0  0  0  0  0  0
  -23.0390  -10.5940   20.0750 C   0  0  0  0  0  3  0  0  0  0  0  0
  -21.9060   -7.3200   21.2670 O   0  0  0  0  0  0  0  0  0  0  0  0
  -21.8600   -6.5780   22.4190 C   0  0  0  0  0  0  0  0  0  0  0  0
  -21.4690   -7.1400   23.6540 C   0  0  0  0  0  3  0  0  0  0  0  0
  -21.3700   -6.3240   24.8000 C   0  0  0  0  0  3  0  0  0  0  0  0
  -21.6520   -4.9480   24.7110 C   0  0  0  0  0  0  0  0  0  0  0  0
  -22.0390   -4.3860   23.4810 C   0  0  0  0  0  3  0  0  0  0  0  0
  -22.1410   -5.1980   22.3390 C   0  0  0  0  0  0  0  0  0  0  0  0
  -22.4930   -4.6480   21.1520 F   0  0  0  0  0  0  0  0  0  0  0  0
  -21.5510   -4.1630   25.8090 F   0  0  0  0  0  0  0  0  0  0  0  0
  -23.2940  -13.9060   21.1550 C   0  0  0  0  0  0  0  0  0  0  0  0
  -22.6310  -13.2060   22.0690 N   0  0  0  0  0  0  0  0  0  0  0  0
  -22.8550  -14.9730   20.7270 O   0  0  0  0  0  0  0  0  0  0  0  0
  -23.0050  -12.3420   22.4350 H   0  0  0  0  0  0  0  0  0  0  0  0
  -21.7400  -13.5400   22.4090 H   0  0  0  0  0  0  0  0  0  0  0  0
  -25.8910  -15.4950   20.1190 N   0  0  0  0  0  0  0  0  0  0  0  0
  -25.1490  -16.1640   20.2940 H   0  0  0  0  0  0  0  0  0  0  0  0
  -26.6770  -15.8970   19.6290 H   0  0  0  0  0  0  0  0  0  0  0  0
  -31.1650  -17.5840   16.7810 C   0  0  0  0  0  1  0  0  0  0  0  0
  -28.7840  -18.3940   17.0210 C   0  0  0  0  0  1  0  0  0  0  0  0
  -30.2290  -18.5450   17.5370 C   0  0  0  0  0  3  0  0  0  0  0  0
  -29.9160  -21.6090   19.4210 C   0  0  0  0  0  2  0  0  0  0  0  0
  -28.9660  -23.0760   19.1630 C   0  0  0  0  0  2  0  0  0  0  0  0
  -28.8220  -24.6190   19.9990 C   0  0  0  0  0  2  0  0  0  0  0  0
  -28.7260  -26.1790   19.5910 O   0  0  0  0  0  0  0  0  0  0  0  0
  -24.6400  -31.4970   22.9830 C   0  0  0  0  0  0  0  0  0  0  0  0
  -27.5860  -27.1000   19.6900 C   0  0  0  0  0  0  0  0  0  0  0  0
  -23.5650  -30.1270   21.2370 C   0  0  0  0  0  3  0  0  0  0  0  0
  -25.1460  -28.7390   19.7380 C   0  0  0  0  0  0  0  0  0  0  0  0
  -26.1040  -30.5580   21.1350 C   0  0  0  0  0  2  0  0  0  0  0  0
  -26.2900  -29.2100   20.3920 C   0  0  0  0  0  0  0  0  0  0  0  0
  -27.5090  -28.4140   20.3420 C   0  0  0  0  0  3  0  0  0  0  0  0
  -26.4020  -26.7470   19.0130 C   0  0  0  0  0  3  0  0  0  0  0  0
  -25.2180  -27.5250   19.0320 C   0  0  0  0  0  3  0  0  0  0  0  0
  -23.8590  -29.5550   19.8220 C   0  0  0  0  0  2  0  0  0  0  0  0
  -24.7900  -30.7480   21.8420 N   0  0  0  0  0  0  0  0  0  0  0  0
  -23.5290  -31.6710   23.5040 O   0  0  0  0  0  0  0  0  0  0  0  0
  -22.9430  -29.0180   22.1210 C   0  0  0  0  0  0  0  0  0  0  0  0
  -21.6370  -28.7470   21.9440 N   0  0  0  0  0  0  0  0  0  0  0  0
  -23.6390  -28.4010   22.9320 O   0  0  0  0  0  0  0  0  0  0  0  0
  -21.1270  -29.3020   21.2730 H   0  0  0  0  0  0  0  0  0  0  0  0
  -18.3600  -27.2220   22.2540 C   0  0  0  0  0  0  0  0  0  0  0  0
  -20.8760  -27.6990   22.6300 C   0  0  0  0  0  3  0  0  0  0  0  0
  -21.1270  -26.3130   21.9880 C   0  0  0  0  0  2  0  0  0  0  0  0
  -20.0920  -25.9500   20.9180 C   0  0  0  0  0  2  0  0  0  0  0  0
  -18.6820  -25.9340   21.5160 C   0  0  0  0  0  2  0  0  0  0  0  0
  -19.3900  -28.0580   22.7620 C   0  0  0  0  0  0  0  0  0  0  0  0
  -19.0350  -29.2620   23.4120 C   0  0  0  0  0  3  0  0  0  0  0  0
  -17.6830  -29.6260   23.5640 C   0  0  0  0  0  3  0  0  0  0  0  0
  -16.6690  -28.7860   23.0750 C   0  0  0  0  0  3  0  0  0  0  0  0
  -17.0070  -27.5870   22.4220 C   0  0  0  0  0  3  0  0  0  0  0  0
  -25.8600  -32.1800   23.6740 C   0  0  0  0  0  3  0  0  0  0  0  0
  -26.3630  -31.4090   24.9550 C   0  0  1  0  0  0  0  0  0  0  0  0
  -25.2420  -31.1060   25.9770 C   0  0  0  0  0  1  0  0  0  0  0  0
  -27.0270  -30.0670   24.5690 C   0  0  0  0  0  1  0  0  0  0  0  0
  -27.4540  -32.2420   25.6710 C   0  0  0  0  0  1  0  0  0  0  0  0
  -25.4650  -33.5540   24.0320 N   0  0  0  0  0  0  0  0  0  0  0  0
  -25.7590  -34.6480   23.3180 C   0  0  0  0  0  0  0  0  0  0  0  0
  -26.4580  -34.6130   22.3010 O   0  0  0  0  0  0  0  0  0  0  0  0
  -24.8510  -33.6520   24.8270 H   0  0  0  0  0  0  0  0  0  0  0  0
  -23.9410  -36.3590   22.9900 C   0  0  0  0  0  1  0  0  0  0  0  0
  -25.1920  -35.9980   23.8080 C   0  0  0  0  0  3  0  0  0  0  0  0
  -27.2630  -36.9810   24.6900 C   0  0  0  0  0  1  0  0  0  0  0  0
  -26.1680  -37.1080   23.7320 N   0  0  0  0  0  0  0  0  0  0  0  0
  -25.7090  -38.0010   23.8950 H   0  0  0  0  0  0  0  0  0  0  0  0
  1  6  1  0
  1  7  2  0
  2  6  1  0
  3  9  1  0
  3  1  1  0
  4 48  1  0
  4  2  1  0
  5 47  1  0
  5  4  1  0
  5  3  1  0
  6  8  1  0
  9 15  1  0
 10 15  1  0
 11 12  1  0
 11 10  1  0
 13 12  1  0
 13 20  1  0
 13 14  1  0
 15 14  1  0
 16  9  2  0
 17 18  2  0
 18 37  1  0
 19 18  1  0
 19 22  1  0
 20 21  1  0
 20 17  1  0
 21 19  2  0
 22 23  1  0
 23 24  2  0
 25 28  1  0
 25 24  1  0
 26 25  2  0
 27 26  1  0
 27 22  2  0
 28 29  1  0
 29 30  1  0
 30 31  2  0
 32 31  1  0
 32 36  1  0
 33 32  2  0
 34 29  2  0
 34 33  1  0
 35 34  1  0
 37 38  1  0
 38 41  1  0
 38 40  1  0
 39 37  2  0
 42 17  1  0
 42 43  1  0
 44 42  1  0
 45 47  1  0
 46 47  1  0
 49 48  1  0
 49 50  1  0
 51 53  1  0
 51 50  1  0
 52 63  2  0
 53 58  1  0
 54 62  1  0
 54 64  1  0
 55 61  1  0
 55 57  1  0
 56 62  1  0
 57 56  1  0
 58 57  2  0
 59 60  1  0
 59 53  2  0
 60 55  2  0
 61 54  1  0
 62 52  1  0
 64 66  2  0
 65 64  1  0
 67 65  1  0
 68 77  2  0
 68 73  1  0
 69 65  1  0
 69 73  1  0
 70 69  1  0
 71 72  1  0
 71 70  1  0
 72 68  1  0
 73 74  2  0
 74 75  1  0
 76 75  2  0
 77 76  1  0
 78 52  1  0
 78 83  1  0
 78 79  1  0
 79 82  1  1
 79 80  1  0
 81 79  1  0
 83 86  1  0
 84 88  1  0
 84 83  1  0
 85 84  2  0
 88 87  1  0
 90 88  1  0
 90 91  1  0
 90 89  1  0
M  ISO  4   3 100   9 100  50 101  51 101
M  END
>  <TORSDO>  (89) 
F 20

>  <SCORE>  (89) 
-13.785

>  <name>  (89) 
89

>  <ligand_id>  (89) 
89

>  <original_smiles>  (89) 
[H]c1c([H])c([H])c2c(c1[H])C([H])([H])C([H])([H])C([H])([H])C2([H])N([H])C(=O)C1([H])N(C(=O)C([H])(N([H])C(=O)C([H])(N([H])C([H])([H])[H])C([H])([H])[H])C(C([H])([H])[H])(C([H])([H])[H])C([H])([H])[H])C([H])([H])c2c([H])c(OC([H])([H])C([H])([H])C([H])([H])C3([H])C([H])([H])N([H])C(=O)C([H])(C(=O)N4C([H])([H])C([H])([H])C([H])([H])C([H])(n5nc(-c6c([H])c([H])c(Oc7c([H])c([H])c(F)c([H])c7F)c([H])c6[H])c(C(=O)N([H])[H])c5N([H])[H])C4([H])[H])C3([H])C([H])(C([H])([H])[H])C([H])([H])[H])c([H])c([H])c2C1([H])[H]

>  <smiles>  (89) 
[H]c1c([H])c([H])c2c(c1[H])C([H])([H])C([H])([H])C([H])([H])C2([H])N([H])C(=O)C1([H])N(C(=O)C([H])(N([H])C(=O)C([H])(N([H])C([H])([H])[H])C([H])([H])[H])C(C([H])([H])[H])(C([H])([H])[H])C([H])([H])[H])C([H])([H])c2c([H])c(OC([H])([H])C([H])([H])C([H])([H])C3([H])C([H])([H])N([H])C(=O)C([H])(C(=O)N4C([H])([H])C([H])([H])C([H])([H])C([H])(n5nc(-c6c([H])c([H])c(Oc7c([H])c([H])c(F)c([H])c7F)c([H])c6[H])c(C(=O)N([H])[H])c5N([H])[H])C4([H])[H])C3([H])C([H])(C([H])([H])[H])C([H])([H])[H])c([H])c([H])c2C1([H])[H]

$$$$
90:0:0
     RDKit          3D

 92100  0  0  1  0  0  0  0  0999 V2000
  -29.5590  -20.0330   20.2430 C   0  0  0  0  0  0  0  0  0  0  0  0
  -30.7200  -20.1490   20.7530 N   0  0  0  0  0  0  0  0  0  0  0  0
  -31.2330  -21.4150   21.2220 C   0  0  0  0  0  2  0  0  0  0  0  0
  -34.9940  -22.3870   19.2550 C   0  0  0  0  0  3  0  0  0  0  0  0
  -33.8310  -23.1290   18.9820 C   0  0  0  0  0  3  0  0  0  0  0  0
  -34.9440  -21.3120   20.1630 C   0  0  0  0  0  3  0  0  0  0  0  0
  -32.6210  -22.7970   19.6190 C   0  0  0  0  0  3  0  0  0  0  0  0
  -33.7350  -20.9750   20.8080 C   0  0  0  0  0  0  0  0  0  0  0  0
  -32.5600  -21.7250   20.5380 C   0  0  0  0  0  0  0  0  0  0  0  0
  -33.7260  -19.8050   21.7780 C   0  0  0  0  0  1  0  0  0  0  0  0
  -29.2690  -18.3670   19.8700 C   0  0  0  0  0  2  0  0  0  0  0  0
  -29.7460  -16.9420   20.7840 C   0  0  0  0  0  2  0  0  0  0  0  0
  -30.5090  -15.4650   20.3440 C   0  0  0  0  0  0  0  0  0  0  0  0
  -30.5100  -13.0440   19.4560 C   0  0  0  0  0  2  0  0  0  0  0  0
  -29.6030  -12.9090   18.2080 C   0  0  0  0  0  2  0  0  0  0  0  0
  -28.1450  -12.6400   18.6220 C   0  0  0  0  0  2  0  0  0  0  0  0
  -27.6860  -13.5770   19.7690 C   0  0  0  0  0  3  0  0  0  0  0  0
  -28.7220  -13.6750   20.9090 C   0  0  0  0  0  2  0  0  0  0  0  0
  -29.9790  -14.1540   20.3200 N   0  0  0  0  0  0  0  0  0  0  0  0
  -31.6930  -15.5180   19.9830 O   0  0  0  0  0  0  0  0  0  0  0  0
  -25.2900  -14.0950   20.4850 C   0  0  0  0  0  0  0  0  0  0  0  0
  -24.2390  -13.2980   20.8440 C   0  0  0  0  0  0  0  0  0  0  0  0
  -24.7320  -11.9580   20.8250 C   0  0  0  0  0  0  0  0  0  0  0  0
  -26.3530  -13.2400   20.2580 N   0  0  0  0  0  0  0  0  0  0  0  0
  -26.0280  -11.9490   20.5310 N   0  0  0  0  0  0  0  0  0  0  0  0
  -24.0280  -10.6820   21.0140 C   0  0  0  0  0  0  0  0  0  0  0  0
  -24.4780   -9.7180   21.9440 C   0  0  0  0  0  3  0  0  0  0  0  0
  -23.7690   -8.5090   22.1210 C   0  0  0  0  0  3  0  0  0  0  0  0
  -22.5960   -8.2570   21.3670 C   0  0  0  0  0  0  0  0  0  0  0  0
  -22.1660   -9.2100   20.4290 C   0  0  0  0  0  3  0  0  0  0  0  0
  -22.8750  -10.4100   20.2490 C   0  0  0  0  0  3  0  0  0  0  0  0
  -21.8590   -7.0990   21.4550 O   0  0  0  0  0  0  0  0  0  0  0  0
  -21.8260   -6.3520   22.6040 C   0  0  0  0  0  0  0  0  0  0  0  0
  -21.3740   -6.8900   23.8300 C   0  0  0  0  0  3  0  0  0  0  0  0
  -21.2890   -6.0680   24.9710 C   0  0  0  0  0  3  0  0  0  0  0  0
  -21.6450   -4.7090   24.8890 C   0  0  0  0  0  0  0  0  0  0  0  0
  -22.0900   -4.1700   23.6680 C   0  0  0  0  0  3  0  0  0  0  0  0
  -22.1760   -4.9890   22.5290 C   0  0  0  0  0  0  0  0  0  0  0  0
  -22.5850   -4.4600   21.3500 F   0  0  0  0  0  0  0  0  0  0  0  0
  -21.5560   -3.9160   25.9820 F   0  0  0  0  0  0  0  0  0  0  0  0
  -22.8280  -13.7490   21.0920 C   0  0  0  0  0  0  0  0  0  0  0  0
  -22.1070  -13.0550   21.9660 N   0  0  0  0  0  0  0  0  0  0  0  0
  -22.3750  -14.7540   20.5470 O   0  0  0  0  0  0  0  0  0  0  0  0
  -22.4870  -12.2440   22.4290 H   0  0  0  0  0  0  0  0  0  0  0  0
  -21.1630  -13.3440   22.1760 H   0  0  0  0  0  0  0  0  0  0  0  0
  -25.4240  -15.4690   20.3040 N   0  0  0  0  0  0  0  0  0  0  0  0
  -24.6390  -16.1020   20.4100 H   0  0  0  0  0  0  0  0  0  0  0  0
  -26.2680  -15.9310   19.9900 H   0  0  0  0  0  0  0  0  0  0  0  0
  -28.5170  -21.4280   20.0080 C   0  0  0  0  0  2  0  0  0  0  0  0
  -28.8410  -23.1700   19.9380 C   0  0  0  0  0  3  0  0  0  0  0  0
  -27.7930  -24.5530   19.6330 C   0  0  0  0  0  3  0  0  0  0  0  0
  -28.0530  -26.1460   19.5480 O   0  0  0  0  0  0  0  0  0  0  0  0
  -24.7870  -31.8660   23.0710 C   0  0  0  0  0  0  0  0  0  0  0  0
  -27.0440  -27.2180   19.5850 C   0  0  0  0  0  0  0  0  0  0  0  0
  -23.4550  -30.6000   21.4300 C   0  0  0  0  0  3  0  0  0  0  0  0
  -24.7720  -29.0800   19.8100 C   0  0  0  0  0  0  0  0  0  0  0  0
  -26.0020  -30.8000   21.1190 C   0  0  0  0  0  2  0  0  0  0  0  0
  -26.0020  -29.4420   20.3730 C   0  0  0  0  0  0  0  0  0  0  0  0
  -27.1320  -28.5290   20.2430 C   0  0  0  0  0  3  0  0  0  0  0  0
  -25.7890  -26.9950   18.9770 C   0  0  0  0  0  3  0  0  0  0  0  0
  -24.6850  -27.8760   19.0930 C   0  0  0  0  0  3  0  0  0  0  0  0
  -23.5750  -30.0060   20.0000 C   0  0  0  0  0  2  0  0  0  0  0  0
  -24.7740  -31.1100   21.9270 N   0  0  0  0  0  0  0  0  0  0  0  0
  -23.7430  -32.1370   23.6850 O   0  0  0  0  0  0  0  0  0  0  0  0
  -22.8110  -29.5510   22.3730 C   0  0  0  0  0  0  0  0  0  0  0  0
  -21.4810  -29.3720   22.2830 N   0  0  0  0  0  0  0  0  0  0  0  0
  -23.5130  -28.9020   23.1540 O   0  0  0  0  0  0  0  0  0  0  0  0
  -20.9670  -29.9480   21.6320 H   0  0  0  0  0  0  0  0  0  0  0  0
  -18.1550  -28.0040   22.7510 C   0  0  0  0  0  0  0  0  0  0  0  0
  -20.6950  -28.3920   23.0410 C   0  0  0  0  0  3  0  0  0  0  0  0
  -20.8720  -26.9690   22.4600 C   0  0  0  0  0  2  0  0  0  0  0  0
  -19.7960  -26.6000   21.4330 C   0  0  0  0  0  2  0  0  0  0  0  0
  -18.4030  -26.6720   22.0650 C   0  0  0  0  0  2  0  0  0  0  0  0
  -19.2300  -28.8190   23.1950 C   0  0  0  0  0  0  0  0  0  0  0  0
  -18.9430  -30.0620   23.7990 C   0  0  0  0  0  3  0  0  0  0  0  0
  -17.6130  -30.4950   23.9610 C   0  0  0  0  0  3  0  0  0  0  0  0
  -16.5510  -29.6790   23.5310 C   0  0  0  0  0  3  0  0  0  0  0  0
  -16.8230  -28.4360   22.9330 C   0  0  0  0  0  3  0  0  0  0  0  0
  -26.1150  -32.4420   23.6520 C   0  0  0  0  0  3  0  0  0  0  0  0
  -25.8330  -33.7930   24.1650 N   0  0  0  0  0  0  0  0  0  0  0  0
  -26.1880  -34.9340   23.5570 C   0  0  0  0  0  0  0  0  0  0  0  0
  -26.8510  -34.9550   22.5180 O   0  0  0  0  0  0  0  0  0  0  0  0
  -25.2400  -33.8490   24.9810 H   0  0  0  0  0  0  0  0  0  0  0  0
  -24.5250  -36.8220   23.4480 C   0  0  0  0  0  1  0  0  0  0  0  0
  -25.7410  -36.2600   24.2040 C   0  0  0  0  0  3  0  0  0  0  0  0
  -27.8880  -36.9490   25.1790 C   0  0  0  0  0  1  0  0  0  0  0  0
  -26.8090  -37.2830   24.2530 N   0  0  0  0  0  0  0  0  0  0  0  0
  -26.4300  -38.1870   24.5230 H   0  0  0  0  0  0  0  0  0  0  0  0
  -26.7300  -31.5430   24.7950 C   0  0  1  0  0  0  0  0  0  0  0  0
  -25.7260  -31.1830   25.9170 C   0  0  0  0  0  1  0  0  0  0  0  0
  -27.2830  -30.2190   24.2210 C   0  0  0  0  0  1  0  0  0  0  0  0
  -27.9300  -32.2720   25.4450 C   0  0  0  0  0  1  0  0  0  0  0  0
  1  2  2  0
  2  3  1  0
  4  6  1  0
  5  4  2  0
  5  7  1  0
  6  8  2  0
  7  9  2  0
  8 10  1  0
  9  8  1  0
  9  3  1  0
 11  1  1  0
 11 12  1  0
 13 12  1  0
 14 19  1  0
 15 16  1  0
 15 14  1  0
 17 16  1  0
 17 24  1  0
 17 18  1  0
 19 13  1  0
 19 18  1  0
 20 13  2  0
 21 22  2  0
 22 41  1  0
 23 22  1  0
 23 26  1  0
 24 21  1  0
 24 25  1  0
 25 23  2  0
 26 27  1  0
 27 28  2  0
 29 32  1  0
 29 28  1  0
 30 29  2  0
 31 30  1  0
 31 26  2  0
 32 33  1  0
 33 34  1  0
 34 35  2  0
 36 35  1  0
 36 40  1  0
 37 36  2  0
 38 33  2  0
 38 37  1  0
 39 38  1  0
 41 42  1  0
 42 45  1  0
 42 44  1  0
 43 41  2  0
 46 47  1  0
 46 21  1  0
 48 46  1  0
 49  1  1  0
 50 49  1  0
 51 50  2  0
 52 54  1  0
 52 51  1  0
 53 64  2  0
 54 59  1  0
 55 63  1  0
 55 65  1  0
 56 62  1  0
 56 58  1  0
 57 63  1  0
 58 57  1  0
 59 58  2  0
 60 61  1  0
 60 54  2  0
 61 56  2  0
 62 55  1  0
 63 53  1  0
 65 67  2  0
 66 65  1  0
 68 66  1  0
 69 78  2  0
 69 74  1  0
 70 66  1  0
 70 74  1  0
 71 70  1  0
 72 73  1  0
 72 71  1  0
 73 69  1  0
 74 75  2  0
 75 76  1  0
 77 76  2  0
 78 77  1  0
 79 53  1  0
 79 80  1  0
 79 89  1  0
 80 83  1  0
 81 80  1  0
 81 85  1  0
 82 81  2  0
 85 84  1  0
 85 87  1  0
 87 88  1  0
 87 86  1  0
 89 92  1  1
 89 90  1  0
 91 89  1  0
M  ISO  4  12 100  13 100  51 101  52 101
M  END
>  <TORSDO>  (90) 
F 23

>  <SCORE>  (90) 
-14.888

>  <name>  (90) 
90

>  <ligand_id>  (90) 
90

>  <original_smiles>  (90) 
[H]c1c([H])c([H])c(C([H])([H])N=C(C([H])([H])C([H])([H])C(=O)N2C([H])([H])C([H])([H])C([H])([H])C([H])(n3nc(-c4c([H])c([H])c(Oc5c([H])c([H])c(F)c([H])c5F)c([H])c4[H])c(C(=O)N([H])[H])c3N([H])[H])C2([H])[H])C([H])([H])C([H])([H])C([H])([H])Oc2c([H])c([H])c3c(c2[H])C([H])([H])N(C(=O)C([H])(N([H])C(=O)C([H])(N([H])C([H])([H])[H])C([H])([H])[H])C(C([H])([H])[H])(C([H])([H])[H])C([H])([H])[H])C([H])(C(=O)N([H])C2([H])c4c([H])c([H])c([H])c([H])c4C([H])([H])C([H])([H])C2([H])[H])C3([H])[H])c(C([H])([H])[H])c1[H]

>  <smiles>  (90) 
[H]c1c([H])c([H])c(C([H])([H])N=C(C([H])([H])C([H])([H])C(=O)N2C([H])([H])C([H])([H])C([H])([H])C([H])(n3nc(-c4c([H])c([H])c(Oc5c([H])c([H])c(F)c([H])c5F)c([H])c4[H])c(C(=O)N([H])[H])c3N([H])[H])C2([H])[H])C([H])([H])C([H])([H])C([H])([H])Oc2c([H])c([H])c3c(c2[H])C([H])([H])N(C(=O)C([H])(N([H])C(=O)C([H])(N([H])C([H])([H])[H])C([H])([H])[H])C(C([H])([H])[H])(C([H])([H])[H])C([H])([H])[H])C([H])(C(=O)N([H])C2([H])c4c([H])c([H])c([H])c([H])c4C([H])([H])C([H])([H])C2([H])[H])C3([H])[H])c(C([H])([H])[H])c1[H]

$$$$
91:0:0
     RDKit          3D

 95103  0  0  1  0  0  0  0  0999 V2000
  -32.8620  -20.8850   19.0410 C   0  0  0  0  0  2  0  0  0  0  0  0
  -32.3120  -19.7270   19.8950 C   0  0  0  0  0  2  0  0  0  0  0  0
  -31.6740  -21.4160   18.2180 C   0  0  0  0  0  2  0  0  0  0  0  0
  -30.9000  -19.4640   19.3470 C   0  0  0  0  0  3  0  0  0  0  0  0
  -30.4160  -20.8880   18.9270 C   0  0  0  0  0  3  0  0  0  0  0  0
  -30.0570  -21.8470   20.0160 N   0  0  0  0  0  4  0  0  0  0  0  0
  -30.9080  -22.2650   20.3590 H   0  0  0  0  0  0  0  0  0  0  0  0
  -29.6260  -21.3750   20.7940 H   0  0  0  0  0  0  0  0  0  0  0  0
  -29.1300  -22.9230   19.5640 C   0  0  0  0  0  2  0  0  0  0  0  0
  -29.3970  -24.3450   20.1320 C   0  0  0  0  0  2  0  0  0  0  0  0
  -28.2490  -25.2880   19.7040 C   0  0  0  0  0  2  0  0  0  0  0  0
  -28.3770  -26.6740   20.0690 O   0  0  0  0  0  0  0  0  0  0  0  0
  -24.6190  -31.8610   23.2030 C   0  0  0  0  0  0  0  0  0  0  0  0
  -27.2090  -27.4270   20.0470 C   0  0  0  0  0  0  0  0  0  0  0  0
  -23.3870  -30.4760   21.5670 C   0  0  0  0  0  3  0  0  0  0  0  0
  -24.8180  -28.9560   20.1060 C   0  0  0  0  0  0  0  0  0  0  0  0
  -25.9130  -30.8280   21.3400 C   0  0  0  0  0  2  0  0  0  0  0  0
  -25.9880  -29.4630   20.6840 C   0  0  0  0  0  0  0  0  0  0  0  0
  -27.1840  -28.7060   20.6540 C   0  0  0  0  0  3  0  0  0  0  0  0
  -26.0150  -26.9510   19.4490 C   0  0  0  0  0  3  0  0  0  0  0  0
  -24.8280  -27.6990   19.4840 C   0  0  0  0  0  3  0  0  0  0  0  0
  -23.5760  -29.8130   20.1790 C   0  0  0  0  0  2  0  0  0  0  0  0
  -24.6590  -31.0680   22.0950 N   0  0  0  0  0  0  0  0  0  0  0  0
  -23.5450  -32.1320   23.7580 O   0  0  0  0  0  0  0  0  0  0  0  0
  -22.7470  -29.4460   22.5260 C   0  0  0  0  0  0  0  0  0  0  0  0
  -21.4200  -29.2670   22.4160 N   0  0  0  0  0  0  0  0  0  0  0  0
  -23.4390  -28.8120   23.3270 O   0  0  0  0  0  0  0  0  0  0  0  0
  -20.9230  -29.8300   21.7400 H   0  0  0  0  0  0  0  0  0  0  0  0
  -18.0510  -28.0730   22.9400 C   0  0  0  0  0  0  0  0  0  0  0  0
  -20.6120  -28.3260   23.1890 C   0  0  0  0  0  3  0  0  0  0  0  0
  -20.7070  -26.8980   22.6040 C   0  0  0  0  0  2  0  0  0  0  0  0
  -19.5940  -26.5830   21.5990 C   0  0  0  0  0  2  0  0  0  0  0  0
  -18.2190  -26.7270   22.2570 C   0  0  0  0  0  2  0  0  0  0  0  0
  -19.1740  -28.8310   23.3640 C   0  0  0  0  0  0  0  0  0  0  0  0
  -18.9630  -30.0930   23.9610 C   0  0  0  0  0  3  0  0  0  0  0  0
  -17.6610  -30.5960   24.1410 C   0  0  0  0  0  3  0  0  0  0  0  0
  -16.5520  -29.8340   23.7340 C   0  0  0  0  0  3  0  0  0  0  0  0
  -16.7470  -28.5750   23.1400 C   0  0  0  0  0  3  0  0  0  0  0  0
  -25.9150  -32.4830   23.8090 C   0  0  0  0  0  3  0  0  0  0  0  0
  -25.6110  -33.8760   24.1620 N   0  0  0  0  0  0  0  0  0  0  0  0
  -25.9330  -34.9380   23.4110 C   0  0  0  0  0  0  0  0  0  0  0  0
  -26.5870  -34.8470   22.3670 O   0  0  0  0  0  0  0  0  0  0  0  0
  -25.0270  -34.0210   24.9730 H   0  0  0  0  0  0  0  0  0  0  0  0
  -24.1950  -36.7300   23.1080 C   0  0  0  0  0  1  0  0  0  0  0  0
  -25.4510  -36.3190   23.8930 C   0  0  0  0  0  3  0  0  0  0  0  0
  -27.6000  -37.1940   24.6960 C   0  0  0  0  0  1  0  0  0  0  0  0
  -26.4800  -37.3750   23.7760 N   0  0  0  0  0  0  0  0  0  0  0  0
  -26.0760  -38.2910   23.9450 H   0  0  0  0  0  0  0  0  0  0  0  0
  -26.4550  -31.6940   25.0630 C   0  0  1  0  0  0  0  0  0  0  0  0
  -25.3820  -31.4410   26.1480 C   0  0  0  0  0  1  0  0  0  0  0  0
  -27.0300  -30.3220   24.6390 C   0  0  0  0  0  1  0  0  0  0  0  0
  -27.6170  -32.4800   25.7150 C   0  0  0  0  0  1  0  0  0  0  0  0
  -29.9980  -18.4460   20.1420 C   0  0  0  0  0  3  0  0  0  0  0  0
  -27.5180  -18.2660   20.3920 C   0  0  0  0  0  1  0  0  0  0  0  0
  -28.6790  -18.2870   19.4770 N   0  0  0  0  0  4  0  0  0  0  0  0
  -28.5190  -19.0380   18.8260 H   0  0  0  0  0  0  0  0  0  0  0  0
  -28.6850  -17.4420   18.9280 H   0  0  0  0  0  0  0  0  0  0  0  0
  -30.7240  -17.0610   20.2080 C   0  0  0  0  0  2  0  0  0  0  0  0
  -30.0450  -15.8140   20.8770 C   0  0  0  0  0  2  0  0  0  0  0  0
  -30.7000  -14.4890   20.3980 C   0  0  0  0  0  0  0  0  0  0  0  0
  -30.3500  -12.3070   19.3100 C   0  0  0  0  0  2  0  0  0  0  0  0
  -29.4110  -12.4900   18.1000 C   0  0  0  0  0  2  0  0  0  0  0  0
  -27.9390  -12.3660   18.5360 C   0  0  0  0  0  2  0  0  0  0  0  0
  -27.6040  -13.2340   19.7760 C   0  0  0  0  0  3  0  0  0  0  0  0
  -28.6680  -13.0730   20.8870 C   0  0  0  0  0  2  0  0  0  0  0  0
  -29.9940  -13.3290   20.3070 N   0  0  0  0  0  0  0  0  0  0  0  0
  -31.8440  -14.5760   19.9490 O   0  0  0  0  0  0  0  0  0  0  0  0
  -25.2150  -13.8450   20.5100 C   0  0  0  0  0  0  0  0  0  0  0  0
  -24.1470  -13.0780   20.8890 C   0  0  0  0  0  0  0  0  0  0  0  0
  -24.6030  -11.7240   20.8550 C   0  0  0  0  0  0  0  0  0  0  0  0
  -26.2560  -12.9620   20.2720 N   0  0  0  0  0  0  0  0  0  0  0  0
  -25.8910  -11.6810   20.5370 N   0  0  0  0  0  0  0  0  0  0  0  0
  -23.8720  -10.4650   21.0480 C   0  0  0  0  0  0  0  0  0  0  0  0
  -24.3140   -9.4880   21.9660 C   0  0  0  0  0  3  0  0  0  0  0  0
  -23.5830   -8.2940   22.1490 C   0  0  0  0  0  3  0  0  0  0  0  0
  -22.3960   -8.0700   21.4140 C   0  0  0  0  0  0  0  0  0  0  0  0
  -21.9740   -9.0350   20.4830 C   0  0  0  0  0  3  0  0  0  0  0  0
  -22.7050  -10.2200   20.2990 C   0  0  0  0  0  3  0  0  0  0  0  0
  -21.6360   -6.9280   21.5060 O   0  0  0  0  0  0  0  0  0  0  0  0
  -21.6130   -6.1700   22.6490 C   0  0  0  0  0  0  0  0  0  0  0  0
  -21.2340   -6.7140   23.8960 C   0  0  0  0  0  3  0  0  0  0  0  0
  -21.1560   -5.8840   25.0310 C   0  0  0  0  0  3  0  0  0  0  0  0
  -21.4470   -4.5100   24.9220 C   0  0  0  0  0  0  0  0  0  0  0  0
  -21.8180   -3.9670   23.6800 C   0  0  0  0  0  3  0  0  0  0  0  0
  -21.8970   -4.7940   22.5460 C   0  0  0  0  0  0  0  0  0  0  0  0
  -22.2340   -4.2600   21.3470 F   0  0  0  0  0  0  0  0  0  0  0  0
  -21.3650   -3.7110   26.0110 F   0  0  0  0  0  0  0  0  0  0  0  0
  -22.7540  -13.5590   21.1700 C   0  0  0  0  0  0  0  0  0  0  0  0
  -22.0290  -12.8660   22.0410 N   0  0  0  0  0  0  0  0  0  0  0  0
  -22.3160  -14.5860   20.6510 O   0  0  0  0  0  0  0  0  0  0  0  0
  -22.3990  -12.0350   22.4800 H   0  0  0  0  0  0  0  0  0  0  0  0
  -21.0930  -13.1680   22.2720 H   0  0  0  0  0  0  0  0  0  0  0  0
  -25.3830  -15.2130   20.3260 N   0  0  0  0  0  0  0  0  0  0  0  0
  -24.6050  -15.8590   20.4030 H   0  0  0  0  0  0  0  0  0  0  0  0
  -26.2020  -15.6190   19.8980 H   0  0  0  0  0  0  0  0  0  0  0  0
  1  2  1  0
  3  5  1  0
  3  1  1  0
  4  2  1  0
  4 53  1  0
  5  4  1  0
  5  6  1  0
  6  7  1  0
  6  8  1  0
  9  6  1  0
  9 10  1  0
 11 12  1  0
 11 10  1  0
 13 24  2  0
 14 12  1  0
 14 19  1  0
 15 23  1  0
 15 25  1  0
 16 22  1  0
 16 18  1  0
 17 23  1  0
 18 17  1  0
 19 18  2  0
 20 21  1  0
 20 14  2  0
 21 16  2  0
 22 15  1  0
 23 13  1  0
 25 27  2  0
 26 25  1  0
 28 26  1  0
 29 38  2  0
 29 34  1  0
 30 26  1  0
 30 34  1  0
 31 30  1  0
 32 33  1  0
 32 31  1  0
 33 29  1  0
 34 35  2  0
 35 36  1  0
 37 36  2  0
 38 37  1  0
 39 13  1  0
 39 40  1  0
 39 49  1  0
 40 43  1  0
 41 45  1  0
 41 40  1  0
 42 41  2  0
 45 44  1  0
 47 45  1  0
 47 48  1  0
 47 46  1  0
 49 52  1  1
 49 50  1  0
 51 49  1  0
 53 58  1  0
 55 53  1  0
 55 54  1  0
 56 55  1  0
 57 55  1  0
 58 59  1  0
 60 59  1  0
 61 66  1  0
 62 63  1  0
 62 61  1  0
 64 63  1  0
 64 71  1  0
 64 65  1  0
 66 60  1  0
 66 65  1  0
 67 60  2  0
 68 69  2  0
 69 88  1  0
 70 69  1  0
 70 73  1  0
 71 68  1  0
 71 72  1  0
 72 70  2  0
 73 74  1  0
 74 75  2  0
 76 79  1  0
 76 75  1  0
 77 76  2  0
 78 77  1  0
 78 73  2  0
 79 80  1  0
 80 81  1  0
 81 82  2  0
 83 82  1  0
 83 87  1  0
 84 83  2  0
 85 80  2  0
 85 84  1  0
 86 85  1  0
 88 89  1  0
 89 92  1  0
 89 91  1  0
 90 88  2  0
 93 94  1  0
 93 68  1  0
 95 93  1  0
M  ISO  4  11 101  12 101  59 100  60 100
M  END
>  <TORSDO>  (91) 
F 24

>  <SCORE>  (91) 
-12.392

>  <name>  (91) 
91

>  <ligand_id>  (91) 
91

>  <original_smiles>  (91) 
[H]c1c([H])c([H])c2c(c1[H])C([H])([H])C([H])([H])C([H])([H])C2([H])N([H])C(=O)C1([H])N(C(=O)C([H])(N([H])C(=O)C([H])(N([H])C([H])([H])[H])C([H])([H])[H])C(C([H])([H])[H])(C([H])([H])[H])C([H])([H])[H])C([H])([H])c2c([H])c(OC([H])([H])C([H])([H])C([H])([H])[N+]([H])([H])C3([H])C([H])([H])C([H])([H])C([H])([H])C3([H])C([H])(C([H])([H])C([H])([H])C(=O)N3C([H])([H])C([H])([H])C([H])([H])C([H])(n4nc(-c5c([H])c([H])c(Oc6c([H])c([H])c(F)c([H])c6F)c([H])c5[H])c(C(=O)N([H])[H])c4N([H])[H])C3([H])[H])[N+]([H])([H])C([H])([H])[H])c([H])c([H])c2C1([H])[H]

>  <smiles>  (91) 
[H]c1c([H])c([H])c2c(c1[H])C([H])([H])C([H])([H])C([H])([H])C2([H])N([H])C(=O)C1([H])N(C(=O)C([H])(N([H])C(=O)C([H])(N([H])C([H])([H])[H])C([H])([H])[H])C(C([H])([H])[H])(C([H])([H])[H])C([H])([H])[H])C([H])([H])c2c([H])c(OC([H])([H])C([H])([H])C([H])([H])[N+]([H])([H])C3([H])C([H])([H])C([H])([H])C([H])([H])C3([H])C([H])(C([H])([H])C([H])([H])C(=O)N3C([H])([H])C([H])([H])C([H])([H])C([H])(n4nc(-c5c([H])c([H])c(Oc6c([H])c([H])c(F)c([H])c6F)c([H])c5[H])c(C(=O)N([H])[H])c4N([H])[H])C3([H])[H])[N+]([H])([H])C([H])([H])[H])c([H])c([H])c2C1([H])[H]

$$$$
92:0:0
     RDKit          3D

 91 99  0  0  1  0  0  0  0  0999 V2000
  -28.8630  -21.2630   20.6040 N   0  0  0  0  0  4  0  0  0  0  0  0
  -28.9750  -21.4600   21.5860 H   0  0  0  0  0  0  0  0  0  0  0  0
  -27.9090  -20.9650   20.4780 H   0  0  0  0  0  0  0  0  0  0  0  0
  -32.1280  -19.1470   20.6660 C   0  0  0  0  0  2  0  0  0  0  0  0
  -31.5870  -17.8050   21.1730 C   0  0  0  0  0  2  0  0  0  0  0  0
  -31.1460  -20.2970   20.9360 C   0  0  0  0  0  2  0  0  0  0  0  0
  -30.2710  -17.4110   20.4720 C   0  0  0  0  0  3  0  0  0  0  0  0
  -29.2260  -18.6240   20.6510 C   0  0  0  0  0  3  0  0  0  0  0  0
  -29.7720  -20.0860   20.2640 C   0  0  0  0  0  3  0  0  0  0  0  0
  -27.9340  -18.3390   19.8630 C   0  0  0  0  0  1  0  0  0  0  0  0
  -29.8170  -15.9390   20.9280 C   0  0  0  0  0  2  0  0  0  0  0  0
  -30.5930  -14.6520   20.4070 C   0  0  0  0  0  0  0  0  0  0  0  0
  -30.3530  -12.4330   19.2990 C   0  0  0  0  0  2  0  0  0  0  0  0
  -29.4050  -12.5920   18.0900 C   0  0  0  0  0  2  0  0  0  0  0  0
  -27.9350  -12.4330   18.5260 C   0  0  0  0  0  2  0  0  0  0  0  0
  -27.5920  -13.2880   19.7750 C   0  0  0  0  0  3  0  0  0  0  0  0
  -28.6540  -13.1150   20.8840 C   0  0  0  0  0  2  0  0  0  0  0  0
  -29.9650  -13.4390   20.3090 N   0  0  0  0  0  0  0  0  0  0  0  0
  -31.7400  -14.7870   19.9740 O   0  0  0  0  0  0  0  0  0  0  0  0
  -25.2080  -13.9030   20.5060 C   0  0  0  0  0  0  0  0  0  0  0  0
  -24.1370  -13.1360   20.8780 C   0  0  0  0  0  0  0  0  0  0  0  0
  -24.5920  -11.7830   20.8450 C   0  0  0  0  0  0  0  0  0  0  0  0
  -26.2450  -13.0160   20.2660 N   0  0  0  0  0  0  0  0  0  0  0  0
  -25.8810  -11.7360   20.5310 N   0  0  0  0  0  0  0  0  0  0  0  0
  -23.8600  -10.5240   21.0350 C   0  0  0  0  0  0  0  0  0  0  0  0
  -24.2880   -9.5550   21.9680 C   0  0  0  0  0  3  0  0  0  0  0  0
  -23.5560   -8.3600   22.1450 C   0  0  0  0  0  3  0  0  0  0  0  0
  -22.3820   -8.1290   21.3900 C   0  0  0  0  0  0  0  0  0  0  0  0
  -21.9740   -9.0870   20.4460 C   0  0  0  0  0  3  0  0  0  0  0  0
  -22.7060  -10.2720   20.2660 C   0  0  0  0  0  3  0  0  0  0  0  0
  -21.6220   -6.9870   21.4760 O   0  0  0  0  0  0  0  0  0  0  0  0
  -21.5680   -6.2460   22.6290 C   0  0  0  0  0  0  0  0  0  0  0  0
  -21.1360   -6.8010   23.8530 C   0  0  0  0  0  3  0  0  0  0  0  0
  -21.0280   -5.9860   24.9970 C   0  0  0  0  0  3  0  0  0  0  0  0
  -21.3430   -4.6160   24.9190 C   0  0  0  0  0  0  0  0  0  0  0  0
  -21.7680   -4.0610   23.6990 C   0  0  0  0  0  3  0  0  0  0  0  0
  -21.8770   -4.8730   22.5580 C   0  0  0  0  0  0  0  0  0  0  0  0
  -22.2670   -4.3280   21.3800 F   0  0  0  0  0  0  0  0  0  0  0  0
  -21.2330   -3.8310   26.0150 F   0  0  0  0  0  0  0  0  0  0  0  0
  -22.7440  -13.6220   21.1530 C   0  0  0  0  0  0  0  0  0  0  0  0
  -22.0110  -12.9230   22.0140 N   0  0  0  0  0  0  0  0  0  0  0  0
  -22.3120  -14.6540   20.6410 O   0  0  0  0  0  0  0  0  0  0  0  0
  -22.3710  -12.0860   22.4460 H   0  0  0  0  0  0  0  0  0  0  0  0
  -21.0760  -13.2290   22.2410 H   0  0  0  0  0  0  0  0  0  0  0  0
  -25.3800  -15.2720   20.3300 N   0  0  0  0  0  0  0  0  0  0  0  0
  -24.6170  -15.9290   20.4420 H   0  0  0  0  0  0  0  0  0  0  0  0
  -26.2280  -15.7040   19.9890 H   0  0  0  0  0  0  0  0  0  0  0  0
  -29.0250  -22.5650   19.8280 C   0  0  0  0  0  2  0  0  0  0  0  0
  -28.4100  -23.9020   20.4590 C   0  0  0  0  0  3  0  0  0  0  0  0
  -28.5280  -25.2390   19.5960 C   0  0  0  0  0  3  0  0  0  0  0  0
  -28.3780  -26.5650   20.2290 O   0  0  0  0  0  0  0  0  0  0  0  0
  -24.5870  -31.8920   23.2160 C   0  0  0  0  0  0  0  0  0  0  0  0
  -27.2160  -27.3430   20.1670 C   0  0  0  0  0  0  0  0  0  0  0  0
  -23.3860  -30.4870   21.5780 C   0  0  0  0  0  3  0  0  0  0  0  0
  -24.8390  -28.9320   20.1560 C   0  0  0  0  0  0  0  0  0  0  0  0
  -25.9220  -30.8130   21.3920 C   0  0  0  0  0  2  0  0  0  0  0  0
  -26.0020  -29.4340   20.7510 C   0  0  0  0  0  0  0  0  0  0  0  0
  -27.1880  -28.6480   20.7490 C   0  0  0  0  0  3  0  0  0  0  0  0
  -26.0240  -26.8780   19.5680 C   0  0  0  0  0  3  0  0  0  0  0  0
  -24.8510  -27.6610   19.5570 C   0  0  0  0  0  3  0  0  0  0  0  0
  -23.5990  -29.8030   20.2010 C   0  0  0  0  0  2  0  0  0  0  0  0
  -24.6500  -31.0820   22.1190 N   0  0  0  0  0  0  0  0  0  0  0  0
  -23.5040  -32.1700   23.7490 O   0  0  0  0  0  0  0  0  0  0  0  0
  -22.7250  -29.4730   22.5420 C   0  0  0  0  0  0  0  0  0  0  0  0
  -21.3980  -29.2990   22.4190 N   0  0  0  0  0  0  0  0  0  0  0  0
  -23.4050  -28.8440   23.3570 O   0  0  0  0  0  0  0  0  0  0  0  0
  -20.9090  -29.8620   21.7380 H   0  0  0  0  0  0  0  0  0  0  0  0
  -18.0150  -28.1240   22.9300 C   0  0  0  0  0  0  0  0  0  0  0  0
  -20.5770  -28.3650   23.1910 C   0  0  0  0  0  3  0  0  0  0  0  0
  -20.6660  -26.9350   22.6120 C   0  0  0  0  0  2  0  0  0  0  0  0
  -19.5580  -26.6220   21.6010 C   0  0  0  0  0  2  0  0  0  0  0  0
  -18.1800  -26.7740   22.2510 C   0  0  0  0  0  2  0  0  0  0  0  0
  -19.1400  -28.8780   23.3560 C   0  0  0  0  0  0  0  0  0  0  0  0
  -18.9340  -30.1420   23.9510 C   0  0  0  0  0  3  0  0  0  0  0  0
  -17.6330  -30.6510   24.1240 C   0  0  0  0  0  3  0  0  0  0  0  0
  -16.5220  -29.8950   23.7130 C   0  0  0  0  0  3  0  0  0  0  0  0
  -16.7140  -28.6320   23.1220 C   0  0  0  0  0  3  0  0  0  0  0  0
  -25.8700  -32.5270   23.8390 C   0  0  0  0  0  3  0  0  0  0  0  0
  -25.5580  -33.9250   24.1690 N   0  0  0  0  0  0  0  0  0  0  0  0
  -25.8960  -34.9780   23.4150 C   0  0  0  0  0  0  0  0  0  0  0  0
  -26.5700  -34.8770   22.3860 O   0  0  0  0  0  0  0  0  0  0  0  0
  -24.9590  -34.0770   24.9680 H   0  0  0  0  0  0  0  0  0  0  0  0
  -24.1730  -36.7750   23.0500 C   0  0  0  0  0  1  0  0  0  0  0  0
  -25.4060  -36.3670   23.8720 C   0  0  0  0  0  3  0  0  0  0  0  0
  -27.5370  -37.2430   24.7230 C   0  0  0  0  0  1  0  0  0  0  0  0
  -26.4410  -37.4190   23.7730 N   0  0  0  0  0  0  0  0  0  0  0  0
  -26.0350  -38.3390   23.9250 H   0  0  0  0  0  0  0  0  0  0  0  0
  -26.3860  -31.7560   25.1160 C   0  0  1  0  0  0  0  0  0  0  0  0
  -25.2920  -31.5160   26.1830 C   0  0  0  0  0  1  0  0  0  0  0  0
  -26.9720  -30.3810   24.7220 C   0  0  0  0  0  1  0  0  0  0  0  0
  -27.5360  -32.5520   25.7790 C   0  0  0  0  0  1  0  0  0  0  0  0
  1  2  1  0
  3  1  1  0
  4  6  1  0
  4  5  1  0
  7  8  1  0
  7 11  1  0
  7  5  1  0
  8 10  1  0
  9  1  1  0
  9  8  1  0
  9  6  1  0
 12 11  1  0
 13 18  1  0
 14 15  1  0
 14 13  1  0
 16 15  1  0
 16 23  1  0
 16 17  1  0
 18 12  1  0
 18 17  1  0
 19 12  2  0
 20 21  2  0
 21 40  1  0
 22 21  1  0
 22 25  1  0
 23 20  1  0
 23 24  1  0
 24 22  2  0
 25 26  1  0
 26 27  2  0
 28 31  1  0
 28 27  1  0
 29 28  2  0
 30 29  1  0
 30 25  2  0
 31 32  1  0
 32 33  1  0
 33 34  2  0
 35 34  1  0
 35 39  1  0
 36 35  2  0
 37 32  2  0
 37 36  1  0
 38 37  1  0
 40 41  1  0
 41 44  1  0
 41 43  1  0
 42 40  2  0
 45 46  1  0
 45 20  1  0
 47 45  1  0
 48 49  1  0
 48  1  1  0
 50 51  1  0
 50 49  2  0
 52 63  2  0
 53 51  1  0
 53 58  1  0
 54 62  1  0
 54 64  1  0
 55 61  1  0
 55 57  1  0
 56 62  1  0
 57 56  1  0
 58 57  2  0
 59 53  2  0
 60 59  1  0
 60 55  2  0
 61 54  1  0
 62 52  1  0
 64 66  2  0
 65 64  1  0
 67 65  1  0
 68 77  2  0
 68 73  1  0
 69 65  1  0
 69 73  1  0
 70 69  1  0
 71 72  1  0
 71 70  1  0
 72 68  1  0
 73 74  2  0
 74 75  1  0
 76 75  2  0
 77 76  1  0
 78 52  1  0
 78 79  1  0
 78 88  1  0
 79 82  1  0
 80 84  1  0
 80 79  1  0
 81 80  2  0
 84 83  1  0
 86 84  1  0
 86 87  1  0
 86 85  1  0
 88 91  1  1
 88 89  1  0
 90 88  1  0
M  ISO  4  11 100  12 100  50 101  51 101
M  END
>  <TORSDO>  (92) 
F 21

>  <SCORE>  (92) 
-13.732

>  <name>  (92) 
92

>  <ligand_id>  (92) 
92

>  <original_smiles>  (92) 
[H]c1c([H])c([H])c2c(c1[H])C([H])([H])C([H])([H])C([H])([H])C2([H])N([H])C(=O)C1([H])N(C(=O)C([H])(N([H])C(=O)C([H])(N([H])C([H])([H])[H])C([H])([H])[H])C(C([H])([H])[H])(C([H])([H])[H])C([H])([H])[H])C([H])([H])c2c([H])c(OC([H])([H])C([H])([H])C([H])([H])[N+]([H])([H])C3([H])C([H])([H])C([H])([H])C([H])([H])C([H])(C([H])([H])C(=O)N4C([H])([H])C([H])([H])C([H])([H])C([H])(n5nc(-c6c([H])c([H])c(Oc7c([H])c([H])c(F)c([H])c7F)c([H])c6[H])c(C(=O)N([H])[H])c5N([H])[H])C4([H])[H])C3([H])C([H])([H])[H])c([H])c([H])c2C1([H])[H]

>  <smiles>  (92) 
[H]c1c([H])c([H])c2c(c1[H])C([H])([H])C([H])([H])C([H])([H])C2([H])N([H])C(=O)C1([H])N(C(=O)C([H])(N([H])C(=O)C([H])(N([H])C([H])([H])[H])C([H])([H])[H])C(C([H])([H])[H])(C([H])([H])[H])C([H])([H])[H])C([H])([H])c2c([H])c(OC([H])([H])C([H])([H])C([H])([H])[N+]([H])([H])C3([H])C([H])([H])C([H])([H])C([H])([H])C([H])(C([H])([H])C(=O)N4C([H])([H])C([H])([H])C([H])([H])C([H])(n5nc(-c6c([H])c([H])c(Oc7c([H])c([H])c(F)c([H])c7F)c([H])c6[H])c(C(=O)N([H])[H])c5N([H])[H])C4([H])[H])C3([H])C([H])([H])[H])c([H])c([H])c2C1([H])[H]

$$$$
93:0:0
     RDKit          3D

 97104  0  0  1  0  0  0  0  0999 V2000
  -29.0050  -22.5340   19.9680 N   0  0  0  0  0  4  0  0  0  0  0  0
  -28.2900  -22.2820   20.6330 H   0  0  0  0  0  0  0  0  0  0  0  0
  -28.5470  -22.5140   19.0720 H   0  0  0  0  0  0  0  0  0  0  0  0
  -29.9910  -21.3550   19.9660 C   0  0  0  0  0  3  0  0  0  0  0  0
  -29.6240  -20.1300   20.9400 C   0  0  0  0  0  2  0  0  0  0  0  0
  -29.2840  -18.6420   20.4440 C   0  0  0  0  0  2  0  0  0  0  0  0
  -30.3500  -17.4500   20.4900 C   0  0  0  0  0  3  0  0  0  0  0  0
  -29.7720  -15.9840   20.7790 C   0  0  0  0  0  3  0  0  0  0  0  0
  -30.5980  -14.6800   20.4000 C   0  0  0  0  0  0  0  0  0  0  0  0
  -30.3760  -12.4360   19.3330 C   0  0  0  0  0  2  0  0  0  0  0  0
  -29.4380  -12.5910   18.1130 C   0  0  0  0  0  2  0  0  0  0  0  0
  -27.9590  -12.4430   18.5250 C   0  0  0  0  0  2  0  0  0  0  0  0
  -27.6010  -13.2890   19.7730 C   0  0  0  0  0  3  0  0  0  0  0  0
  -28.6590  -13.1400   20.8910 C   0  0  0  0  0  2  0  0  0  0  0  0
  -29.9780  -13.4560   20.3240 N   0  0  0  0  0  0  0  0  0  0  0  0
  -31.7670  -14.8090   20.0260 O   0  0  0  0  0  0  0  0  0  0  0  0
  -25.2080  -13.8940   20.4810 C   0  0  0  0  0  0  0  0  0  0  0  0
  -24.1370  -13.1270   20.8480 C   0  0  0  0  0  0  0  0  0  0  0  0
  -24.5990  -11.7740   20.8340 C   0  0  0  0  0  0  0  0  0  0  0  0
  -26.2530  -13.0110   20.2580 N   0  0  0  0  0  0  0  0  0  0  0  0
  -25.8900  -11.7310   20.5300 N   0  0  0  0  0  0  0  0  0  0  0  0
  -23.8670  -10.5160   21.0310 C   0  0  0  0  0  0  0  0  0  0  0  0
  -24.2990   -9.5510   21.9670 C   0  0  0  0  0  3  0  0  0  0  0  0
  -23.5670   -8.3580   22.1530 C   0  0  0  0  0  3  0  0  0  0  0  0
  -22.3920   -8.1210   21.4010 C   0  0  0  0  0  0  0  0  0  0  0  0
  -21.9810   -9.0750   20.4540 C   0  0  0  0  0  3  0  0  0  0  0  0
  -22.7120  -10.2600   20.2670 C   0  0  0  0  0  3  0  0  0  0  0  0
  -21.6340   -6.9800   21.4930 O   0  0  0  0  0  0  0  0  0  0  0  0
  -21.5940   -6.2340   22.6440 C   0  0  0  0  0  0  0  0  0  0  0  0
  -21.1890   -6.7920   23.8770 C   0  0  0  0  0  3  0  0  0  0  0  0
  -21.0930   -5.9750   25.0200 C   0  0  0  0  0  3  0  0  0  0  0  0
  -21.3920   -4.6020   24.9320 C   0  0  0  0  0  0  0  0  0  0  0  0
  -21.7920   -4.0440   23.7040 C   0  0  0  0  0  3  0  0  0  0  0  0
  -21.8890   -4.8590   22.5620 C   0  0  0  0  0  0  0  0  0  0  0  0
  -22.2530   -4.3140   21.3770 F   0  0  0  0  0  0  0  0  0  0  0  0
  -21.2940   -3.8160   26.0280 F   0  0  0  0  0  0  0  0  0  0  0  0
  -22.7390  -13.6100   21.1070 C   0  0  0  0  0  0  0  0  0  0  0  0
  -22.0080  -12.9190   21.9740 N   0  0  0  0  0  0  0  0  0  0  0  0
  -22.3030  -14.6310   20.5770 O   0  0  0  0  0  0  0  0  0  0  0  0
  -22.3770  -12.0920   22.4210 H   0  0  0  0  0  0  0  0  0  0  0  0
  -21.0700  -13.2180   22.1940 H   0  0  0  0  0  0  0  0  0  0  0  0
  -25.3750  -15.2640   20.2970 N   0  0  0  0  0  0  0  0  0  0  0  0
  -24.6060  -15.9180   20.3910 H   0  0  0  0  0  0  0  0  0  0  0  0
  -26.2340  -15.7080   19.9960 H   0  0  0  0  0  0  0  0  0  0  0  0
  -30.2340  -20.8200   18.5260 C   0  0  0  0  0  2  0  0  0  0  0  0
  -30.8950  -21.7970   17.5410 C   0  0  0  0  0  2  0  0  0  0  0  0
  -31.0210  -21.2560   16.1040 C   0  0  0  0  0  2  0  0  0  0  0  0
  -31.6360  -22.2400   15.1940 N   0  0  0  0  0  4  0  0  0  0  0  0
  -31.0940  -23.0860   15.1500 H   0  0  0  0  0  0  0  0  0  0  0  0
  -31.6900  -21.8610   14.2660 H   0  0  0  0  0  0  0  0  0  0  0  0
  -32.5690  -22.4680   15.4890 H   0  0  0  0  0  0  0  0  0  0  0  0
  -29.3700  -24.0020   20.2860 C   0  0  0  0  0  3  0  0  0  0  0  0
  -30.7030  -25.2420   18.3870 C   0  0  0  0  0  1  0  0  0  0  0  0
  -31.4900  -25.3880   20.7590 C   0  0  0  0  0  1  0  0  0  0  0  0
  -30.7580  -24.4940   19.7360 C   0  0  0  0  0  3  0  0  0  0  0  0
  -28.1830  -25.0390   19.9600 C   0  0  0  0  0  2  0  0  0  0  0  0
  -28.3360  -26.4950   20.2060 O   0  0  0  0  0  0  0  0  0  0  0  0
  -24.6050  -31.8720   23.2310 C   0  0  0  0  0  0  0  0  0  0  0  0
  -27.1980  -27.3220   20.1500 C   0  0  0  0  0  0  0  0  0  0  0  0
  -23.3860  -30.4760   21.6010 C   0  0  0  0  0  3  0  0  0  0  0  0
  -24.8230  -28.9230   20.1640 C   0  0  0  0  0  0  0  0  0  0  0  0
  -25.9230  -30.7950   21.3930 C   0  0  0  0  0  2  0  0  0  0  0  0
  -25.9970  -29.4180   20.7460 C   0  0  0  0  0  0  0  0  0  0  0  0
  -27.1840  -28.6280   20.7280 C   0  0  0  0  0  3  0  0  0  0  0  0
  -25.9980  -26.8780   19.5470 C   0  0  0  0  0  3  0  0  0  0  0  0
  -24.8230  -27.6570   19.5600 C   0  0  0  0  0  3  0  0  0  0  0  0
  -23.5880  -29.7980   20.2210 C   0  0  0  0  0  2  0  0  0  0  0  0
  -24.6580  -31.0650   22.1320 N   0  0  0  0  0  0  0  0  0  0  0  0
  -23.5270  -32.1500   23.7760 O   0  0  0  0  0  0  0  0  0  0  0  0
  -22.7300  -29.4600   22.5650 C   0  0  0  0  0  0  0  0  0  0  0  0
  -21.4030  -29.2830   22.4450 N   0  0  0  0  0  0  0  0  0  0  0  0
  -23.4140  -28.8340   23.3800 O   0  0  0  0  0  0  0  0  0  0  0  0
  -20.9120  -29.8390   21.7590 H   0  0  0  0  0  0  0  0  0  0  0  0
  -18.0320  -28.0780   22.9540 C   0  0  0  0  0  0  0  0  0  0  0  0
  -20.5890  -28.3450   23.2200 C   0  0  0  0  0  3  0  0  0  0  0  0
  -20.6950  -26.9130   22.6470 C   0  0  0  0  0  2  0  0  0  0  0  0
  -19.5930  -26.5840   21.6360 C   0  0  0  0  0  2  0  0  0  0  0  0
  -18.2110  -26.7270   22.2810 C   0  0  0  0  0  2  0  0  0  0  0  0
  -19.1490  -28.8450   23.3790 C   0  0  0  0  0  0  0  0  0  0  0  0
  -18.9280  -30.1100   23.9680 C   0  0  0  0  0  3  0  0  0  0  0  0
  -17.6220  -30.6070   24.1350 C   0  0  0  0  0  3  0  0  0  0  0  0
  -16.5190  -29.8380   23.7270 C   0  0  0  0  0  3  0  0  0  0  0  0
  -16.7250  -28.5750   23.1420 C   0  0  0  0  0  3  0  0  0  0  0  0
  -25.8930  -32.5030   23.8440 C   0  0  0  0  0  3  0  0  0  0  0  0
  -25.5860  -33.9000   24.1840 N   0  0  0  0  0  0  0  0  0  0  0  0
  -25.9110  -34.9580   23.4290 C   0  0  0  0  0  0  0  0  0  0  0  0
  -26.5700  -34.8600   22.3890 O   0  0  0  0  0  0  0  0  0  0  0  0
  -24.9980  -34.0490   24.9900 H   0  0  0  0  0  0  0  0  0  0  0  0
  -24.1790  -36.7530   23.1010 C   0  0  0  0  0  1  0  0  0  0  0  0
  -25.4280  -36.3430   23.8980 C   0  0  0  0  0  3  0  0  0  0  0  0
  -27.5710  -37.2230   24.7110 C   0  0  0  0  0  1  0  0  0  0  0  0
  -26.4590  -37.3980   23.7810 N   0  0  0  0  0  0  0  0  0  0  0  0
  -26.0540  -38.3160   23.9400 H   0  0  0  0  0  0  0  0  0  0  0  0
  -26.4210  -31.7270   25.1140 C   0  0  1  0  0  0  0  0  0  0  0  0
  -25.3380  -31.4850   26.1910 C   0  0  0  0  0  1  0  0  0  0  0  0
  -27.0020  -30.3510   24.7120 C   0  0  0  0  0  1  0  0  0  0  0  0
  -27.5790  -32.5170   25.7690 C   0  0  0  0  0  1  0  0  0  0  0  0
  1 52  1  0
  1  2  1  0
  3  1  1  0
  4 45  1  0
  4  1  1  0
  4  5  1  0
  6  7  1  0
  6  5  1  0
  7  8  2  0
  9  8  1  0
 10 15  1  0
 11 12  1  0
 11 10  1  0
 13 12  1  0
 13 20  1  0
 13 14  1  0
 15  9  1  0
 15 14  1  0
 16  9  2  0
 17 18  2  0
 18 37  1  0
 19 18  1  0
 19 22  1  0
 20 17  1  0
 20 21  1  0
 21 19  2  0
 22 23  1  0
 23 24  2  0
 25 28  1  0
 25 24  1  0
 26 25  2  0
 27 26  1  0
 27 22  2  0
 28 29  1  0
 29 30  1  0
 30 31  2  0
 32 31  1  0
 32 36  1  0
 33 32  2  0
 34 29  2  0
 34 33  1  0
 35 34  1  0
 37 38  1  0
 38 41  1  0
 38 40  1  0
 39 37  2  0
 42 43  1  0
 42 17  1  0
 44 42  1  0
 46 45  1  0
 47 46  1  0
 48 51  1  0
 48 47  1  0
 49 48  1  0
 50 48  1  0
 52 56  1  0
 53 55  1  0
 55 52  1  0
 55 54  1  0
 56 57  1  0
 58 69  2  0
 59 57  1  0
 59 64  1  0
 60 68  1  0
 60 70  1  0
 61 67  1  0
 61 63  1  0
 62 68  1  0
 63 62  1  0
 64 63  2  0
 65 66  1  0
 65 59  2  0
 66 61  2  0
 67 60  1  0
 68 58  1  0
 70 72  2  0
 71 70  1  0
 73 71  1  0
 74 83  2  0
 74 79  1  0
 75 71  1  0
 75 79  1  0
 76 75  1  0
 77 78  1  0
 77 76  1  0
 78 74  1  0
 79 80  2  0
 80 81  1  0
 82 81  2  0
 83 82  1  0
 84 58  1  0
 84 85  1  0
 84 94  1  0
 85 88  1  0
 86 90  1  0
 86 85  1  0
 87 86  2  0
 90 89  1  0
 92 90  1  0
 92 93  1  0
 92 91  1  0
 94 97  1  1
 94 95  1  0
 96 94  1  0
M  ISO  4   8 100   9 100  56 101  57 101
M  END
>  <TORSDO>  (93) 
F 28

>  <SCORE>  (93) 
-11.466

>  <name>  (93) 
93

>  <ligand_id>  (93) 
93

>  <original_smiles>  (93) 
[H]c1c([H])c([H])c2c(c1[H])C([H])([H])C([H])([H])C([H])([H])C2([H])N([H])C(=O)C1([H])N(C(=O)C([H])(N([H])C(=O)C([H])(N([H])C([H])([H])[H])C([H])([H])[H])C(C([H])([H])[H])(C([H])([H])[H])C([H])([H])[H])C([H])([H])c2c([H])c(OC([H])([H])C([H])(C([H])(C([H])([H])[H])C([H])([H])[H])[N+]([H])([H])C([H])(C([H])([H])C([H])([H])C([H])([H])C([H])([H])C(=O)N3C([H])([H])C([H])([H])C([H])([H])C([H])(n4nc(-c5c([H])c([H])c(Oc6c([H])c([H])c(F)c([H])c6F)c([H])c5[H])c(C(=O)N([H])[H])c4N([H])[H])C3([H])[H])C([H])([H])C([H])([H])C([H])([H])[N+]([H])([H])[H])c([H])c([H])c2C1([H])[H]

>  <smiles>  (93) 
[H]c1c([H])c([H])c2c(c1[H])C([H])([H])C([H])([H])C([H])([H])C2([H])N([H])C(=O)C1([H])N(C(=O)C([H])(N([H])C(=O)C([H])(N([H])C([H])([H])[H])C([H])([H])[H])C(C([H])([H])[H])(C([H])([H])[H])C([H])([H])[H])C([H])([H])c2c([H])c(OC([H])([H])C([H])(C([H])(C([H])([H])[H])C([H])([H])[H])[N+]([H])([H])C([H])(C([H])([H])C([H])([H])C([H])([H])C([H])([H])C(=O)N3C([H])([H])C([H])([H])C([H])([H])C([H])(n4nc(-c5c([H])c([H])c(Oc6c([H])c([H])c(F)c([H])c6F)c([H])c5[H])c(C(=O)N([H])[H])c4N([H])[H])C3([H])[H])C([H])([H])C([H])([H])C([H])([H])[N+]([H])([H])[H])c([H])c([H])c2C1([H])[H]

$$$$
94:0:0
     RDKit          3D

 86 94  0  0  1  0  0  0  0  0999 V2000
  -29.0020  -22.2730   20.4370 C   0  0  0  0  0  3  0  0  0  0  0  0
  -29.7060  -19.8490   17.9770 C   0  0  0  0  0  2  0  0  0  0  0  0
  -30.6370  -19.3220   19.0810 C   0  0  0  0  0  2  0  0  0  0  0  0
  -28.4630  -20.4600   18.6590 C   0  0  0  0  0  2  0  0  0  0  0  0
  -29.7290  -19.1300   20.2930 C   0  0  0  0  0  3  0  0  0  0  0  0
  -28.7570  -20.5680   20.1030 N   0  0  1  0  0  4  0  0  0  0  0  0
  -27.9020  -20.3570   20.5990 H   0  0  0  0  0  0  0  0  0  0  0  0
  -29.3830  -17.2490   20.3310 C   0  0  0  0  0  2  0  0  0  0  0  0
  -30.2560  -15.6210   20.1930 C   0  0  0  0  0  0  0  0  0  0  0  0
  -30.3580  -13.0930   19.3630 C   0  0  0  0  0  2  0  0  0  0  0  0
  -29.4450  -12.7800   18.1410 C   0  0  0  0  0  2  0  0  0  0  0  0
  -28.0130  -12.4380   18.5890 C   0  0  0  0  0  2  0  0  0  0  0  0
  -27.5290  -13.4040   19.6950 C   0  0  0  0  0  3  0  0  0  0  0  0
  -28.5750  -13.6520   20.8040 C   0  0  0  0  0  2  0  0  0  0  0  0
  -29.7710  -14.2470   20.1710 N   0  0  0  0  0  0  0  0  0  0  0  0
  -31.4780  -15.5910   19.9580 O   0  0  0  0  0  0  0  0  0  0  0  0
  -25.1720  -13.9150   20.5010 C   0  0  0  0  0  0  0  0  0  0  0  0
  -24.1230  -13.1240   20.8770 C   0  0  0  0  0  0  0  0  0  0  0  0
  -24.6040  -11.7780   20.8280 C   0  0  0  0  0  0  0  0  0  0  0  0
  -26.2180  -13.0540   20.2290 N   0  0  0  0  0  0  0  0  0  0  0  0
  -25.8920  -11.7600   20.4960 N   0  0  0  0  0  0  0  0  0  0  0  0
  -23.8900  -10.5060   21.0160 C   0  0  0  0  0  0  0  0  0  0  0  0
  -24.3350   -9.5370   21.9420 C   0  0  0  0  0  3  0  0  0  0  0  0
  -23.6140   -8.3360   22.1210 C   0  0  0  0  0  3  0  0  0  0  0  0
  -22.4360   -8.0950   21.3740 C   0  0  0  0  0  0  0  0  0  0  0  0
  -22.0110   -9.0530   20.4380 C   0  0  0  0  0  3  0  0  0  0  0  0
  -22.7330  -10.2450   20.2560 C   0  0  0  0  0  3  0  0  0  0  0  0
  -21.6900   -6.9440   21.4610 O   0  0  0  0  0  0  0  0  0  0  0  0
  -21.6450   -6.1990   22.6130 C   0  0  0  0  0  0  0  0  0  0  0  0
  -21.1930   -6.7430   23.8350 C   0  0  0  0  0  3  0  0  0  0  0  0
  -21.0980   -5.9230   24.9780 C   0  0  0  0  0  3  0  0  0  0  0  0
  -21.4460   -4.5610   24.8990 C   0  0  0  0  0  0  0  0  0  0  0  0
  -21.8900   -4.0170   23.6810 C   0  0  0  0  0  3  0  0  0  0  0  0
  -21.9860   -4.8340   22.5410 C   0  0  0  0  0  0  0  0  0  0  0  0
  -22.3950   -4.3000   21.3650 F   0  0  0  0  0  0  0  0  0  0  0  0
  -21.3470   -3.7720   25.9940 F   0  0  0  0  0  0  0  0  0  0  0  0
  -22.7260  -13.5850   21.1640 C   0  0  0  0  0  0  0  0  0  0  0  0
  -22.0120  -12.8820   22.0350 N   0  0  0  0  0  0  0  0  0  0  0  0
  -22.2740  -14.6080   20.6480 O   0  0  0  0  0  0  0  0  0  0  0  0
  -22.3920  -12.0590   22.4790 H   0  0  0  0  0  0  0  0  0  0  0  0
  -21.0730  -13.1720   22.2660 H   0  0  0  0  0  0  0  0  0  0  0  0
  -25.3190  -15.2900   20.3360 N   0  0  0  0  0  0  0  0  0  0  0  0
  -24.5480  -15.9350   20.4670 H   0  0  0  0  0  0  0  0  0  0  0  0
  -26.1610  -15.7380   20.0010 H   0  0  0  0  0  0  0  0  0  0  0  0
  -28.0270  -23.9040   20.1480 C   0  0  0  0  0  3  0  0  0  0  0  0
  -28.1760  -25.6340   20.3570 O   0  0  0  0  0  0  0  0  0  0  0  0
  -24.6630  -31.8780   23.2570 C   0  0  0  0  0  0  0  0  0  0  0  0
  -27.1940  -26.8240   20.2830 C   0  0  0  0  0  0  0  0  0  0  0  0
  -23.4720  -30.4850   21.6170 C   0  0  0  0  0  3  0  0  0  0  0  0
  -24.9200  -28.8330   20.2130 C   0  0  0  0  0  0  0  0  0  0  0  0
  -26.0490  -30.6320   21.4980 C   0  0  0  0  0  2  0  0  0  0  0  0
  -26.1130  -29.2000   20.8460 C   0  0  0  0  0  0  0  0  0  0  0  0
  -27.2340  -28.2220   20.8500 C   0  0  0  0  0  3  0  0  0  0  0  0
  -25.9670  -26.6560   19.5930 C   0  0  0  0  0  3  0  0  0  0  0  0
  -24.8840  -27.5850   19.5630 C   0  0  0  0  0  3  0  0  0  0  0  0
  -23.7130  -29.7830   20.2490 C   0  0  0  0  0  2  0  0  0  0  0  0
  -24.7520  -31.0300   22.1770 N   0  0  0  0  0  0  0  0  0  0  0  0
  -23.5700  -32.1820   23.7650 O   0  0  0  0  0  0  0  0  0  0  0  0
  -22.7500  -29.5120   22.5890 C   0  0  0  0  0  0  0  0  0  0  0  0
  -21.4180  -29.3600   22.4580 N   0  0  0  0  0  0  0  0  0  0  0  0
  -23.4000  -28.8900   23.4320 O   0  0  0  0  0  0  0  0  0  0  0  0
  -20.9410  -29.9130   21.7600 H   0  0  0  0  0  0  0  0  0  0  0  0
  -18.0270  -28.1550   22.9500 C   0  0  0  0  0  0  0  0  0  0  0  0
  -20.5850  -28.4270   23.2300 C   0  0  0  0  0  3  0  0  0  0  0  0
  -20.6920  -26.9910   22.6640 C   0  0  0  0  0  2  0  0  0  0  0  0
  -19.5990  -26.6610   21.6440 C   0  0  0  0  0  2  0  0  0  0  0  0
  -18.2120  -26.8050   22.2770 C   0  0  0  0  0  2  0  0  0  0  0  0
  -19.1400  -28.9230   23.3830 C   0  0  0  0  0  0  0  0  0  0  0  0
  -18.9110  -30.1830   23.9770 C   0  0  0  0  0  3  0  0  0  0  0  0
  -17.6020  -30.6780   24.1360 C   0  0  0  0  0  3  0  0  0  0  0  0
  -16.5040  -29.9070   23.7180 C   0  0  0  0  0  3  0  0  0  0  0  0
  -16.7160  -28.6470   23.1310 C   0  0  0  0  0  3  0  0  0  0  0  0
  -25.9290  -32.5220   23.9010 C   0  0  0  0  0  3  0  0  0  0  0  0
  -26.4140  -31.7640   25.1990 C   0  0  1  0  0  0  0  0  0  0  0  0
  -25.3010  -31.5540   26.2530 C   0  0  0  0  0  1  0  0  0  0  0  0
  -26.9890  -30.3730   24.8480 C   0  0  0  0  0  1  0  0  0  0  0  0
  -27.5620  -32.5550   25.8700 C   0  0  0  0  0  1  0  0  0  0  0  0
  -25.6140  -33.9260   24.2290 N   0  0  0  0  0  0  0  0  0  0  0  0
  -25.9410  -34.9860   23.4780 C   0  0  0  0  0  0  0  0  0  0  0  0
  -26.5980  -34.8860   22.4390 O   0  0  0  0  0  0  0  0  0  0  0  0
  -25.0260  -34.0740   25.0350 H   0  0  0  0  0  0  0  0  0  0  0  0
  -24.2080  -36.7920   23.1790 C   0  0  0  0  0  1  0  0  0  0  0  0
  -25.4710  -36.3770   23.9520 C   0  0  0  0  0  3  0  0  0  0  0  0
  -27.6260  -37.2700   24.7260 C   0  0  0  0  0  1  0  0  0  0  0  0
  -26.5000  -37.4310   23.8090 N   0  0  0  0  0  0  0  0  0  0  0  0
  -26.0980  -38.3520   23.9610 H   0  0  0  0  0  0  0  0  0  0  0  0
  2  4  1  0
  2  3  1  0
  3  5  1  0
  4  6  1  0
  5  8  1  0
  6  5  1  0
  6  1  1  0
  6  7  1  1
  9  8  1  0
 10 15  1  0
 11 12  1  0
 11 10  1  0
 13 12  1  0
 13 20  1  0
 13 14  1  0
 15  9  1  0
 15 14  1  0
 16  9  2  0
 17 18  2  0
 18 37  1  0
 19 18  1  0
 19 22  1  0
 20 21  1  0
 20 17  1  0
 21 19  2  0
 22 23  1  0
 23 24  2  0
 25 28  1  0
 25 24  1  0
 26 25  2  0
 27 26  1  0
 27 22  2  0
 28 29  1  0
 29 30  1  0
 30 31  2  0
 32 31  1  0
 32 36  1  0
 33 32  2  0
 34 29  2  0
 34 33  1  0
 35 34  1  0
 37 38  1  0
 38 41  1  0
 38 40  1  0
 39 37  2  0
 42 43  1  0
 42 17  1  0
 44 42  1  0
 45 46  1  0
 45  1  2  0
 47 58  2  0
 48 46  1  0
 48 53  1  0
 49 57  1  0
 49 59  1  0
 50 56  1  0
 50 52  1  0
 51 57  1  0
 52 53  2  0
 52 51  1  0
 54 48  2  0
 55 54  1  0
 55 50  2  0
 56 49  1  0
 57 47  1  0
 59 61  2  0
 60 59  1  0
 62 60  1  0
 63 72  2  0
 63 68  1  0
 64 60  1  0
 64 68  1  0
 65 64  1  0
 66 67  1  0
 66 65  1  0
 67 63  1  0
 68 69  2  0
 69 70  1  0
 71 70  2  0
 72 71  1  0
 73 47  1  0
 73 78  1  0
 73 74  1  0
 74 77  1  1
 74 75  1  0
 76 74  1  0
 78 81  1  0
 79 83  1  0
 79 78  1  0
 80 79  2  0
 83 82  1  0
 85 83  1  0
 85 86  1  0
 85 84  1  0
M  ISO  4   8 100   9 100  45 101  46 101
M  END
>  <TORSDO>  (94) 
F 19

>  <SCORE>  (94) 
-16.526

>  <name>  (94) 
94

>  <ligand_id>  (94) 
94

>  <original_smiles>  (94) 
[H]c1c([H])c([H])c2c(c1[H])C([H])([H])C([H])([H])C([H])([H])C2([H])N([H])C(=O)C1([H])N(C(=O)C([H])(N([H])C(=O)C([H])(N([H])C([H])([H])[H])C([H])([H])[H])C(C([H])([H])[H])(C([H])([H])[H])C([H])([H])[H])C([H])([H])c2c([H])c(OC([H])([H])C([H])([H])[N+]3([H])C([H])([H])C([H])([H])C([H])([H])C3([H])C([H])([H])C(=O)N3C([H])([H])C([H])([H])C([H])([H])C([H])(n4nc(-c5c([H])c([H])c(Oc6c([H])c([H])c(F)c([H])c6F)c([H])c5[H])c(C(=O)N([H])[H])c4N([H])[H])C3([H])[H])c([H])c([H])c2C1([H])[H]

>  <smiles>  (94) 
[H]c1c([H])c([H])c2c(c1[H])C([H])([H])C([H])([H])C([H])([H])C2([H])N([H])C(=O)C1([H])N(C(=O)C([H])(N([H])C(=O)C([H])(N([H])C([H])([H])[H])C([H])([H])[H])C(C([H])([H])[H])(C([H])([H])[H])C([H])([H])[H])C([H])([H])c2c([H])c(OC([H])([H])C([H])([H])[N+]3([H])C([H])([H])C([H])([H])C([H])([H])C3([H])C([H])([H])C(=O)N3C([H])([H])C([H])([H])C([H])([H])C([H])(n4nc(-c5c([H])c([H])c(Oc6c([H])c([H])c(F)c([H])c6F)c([H])c5[H])c(C(=O)N([H])[H])c4N([H])[H])C3([H])[H])c([H])c([H])c2C1([H])[H]

$$$$
95:0:0
     RDKit          3D

 94102  0  0  1  0  0  0  0  0999 V2000
  -30.0720  -19.8120   20.5230 C   0  0  0  0  0  3  0  0  0  0  0  0
  -29.4300  -18.4300   20.4940 N   0  0  0  0  0  4  0  0  0  0  0  0
  -28.9520  -18.2990   21.3710 H   0  0  0  0  0  0  0  0  0  0  0  0
  -28.7210  -18.4380   19.7780 H   0  0  0  0  0  0  0  0  0  0  0  0
  -30.3180  -17.2160   20.2260 C   0  0  0  0  0  3  0  0  0  0  0  0
  -29.7580  -15.7790   20.6480 C   0  0  0  0  0  3  0  0  0  0  0  0
  -30.5510  -14.4850   20.1860 C   0  0  0  0  0  0  0  0  0  0  0  0
  -30.3060  -12.2340   19.1460 C   0  0  0  0  0  2  0  0  0  0  0  0
  -29.3110  -12.3590   17.9710 C   0  0  0  0  0  2  0  0  0  0  0  0
  -27.8590  -12.1850   18.4640 C   0  0  0  0  0  2  0  0  0  0  0  0
  -27.5500  -13.0570   19.7100 C   0  0  0  0  0  3  0  0  0  0  0  0
  -28.6580  -12.9280   20.7790 C   0  0  0  0  0  2  0  0  0  0  0  0
  -29.9420  -13.2580   20.1470 N   0  0  0  0  0  0  0  0  0  0  0  0
  -31.6900  -14.6290   19.7320 O   0  0  0  0  0  0  0  0  0  0  0  0
  -25.2040  -13.6580   20.5630 C   0  0  0  0  0  0  0  0  0  0  0  0
  -24.1520  -12.8820   20.9720 C   0  0  0  0  0  0  0  0  0  0  0  0
  -24.6040  -11.5310   20.8910 C   0  0  0  0  0  0  0  0  0  0  0  0
  -26.2280  -12.7750   20.2590 N   0  0  0  0  0  0  0  0  0  0  0  0
  -25.8770  -11.4910   20.5160 N   0  0  0  0  0  0  0  0  0  0  0  0
  -23.8800  -10.2690   21.0930 C   0  0  0  0  0  0  0  0  0  0  0  0
  -24.3450   -9.2890   21.9970 C   0  0  0  0  0  3  0  0  0  0  0  0
  -23.6240   -8.0910   22.1890 C   0  0  0  0  0  3  0  0  0  0  0  0
  -22.4250   -7.8630   21.4720 C   0  0  0  0  0  0  0  0  0  0  0  0
  -21.9780   -8.8330   20.5560 C   0  0  0  0  0  3  0  0  0  0  0  0
  -22.7010  -10.0210   20.3640 C   0  0  0  0  0  3  0  0  0  0  0  0
  -21.6720   -6.7190   21.5730 O   0  0  0  0  0  0  0  0  0  0  0  0
  -21.6590   -5.9630   22.7180 C   0  0  0  0  0  0  0  0  0  0  0  0
  -21.2720   -6.5050   23.9630 C   0  0  0  0  0  3  0  0  0  0  0  0
  -21.2080   -5.6750   25.1010 C   0  0  0  0  0  3  0  0  0  0  0  0
  -21.5210   -4.3060   24.9940 C   0  0  0  0  0  0  0  0  0  0  0  0
  -21.9020   -3.7660   23.7530 C   0  0  0  0  0  3  0  0  0  0  0  0
  -21.9690   -4.5920   22.6190 C   0  0  0  0  0  0  0  0  0  0  0  0
  -22.3160   -4.0620   21.4200 F   0  0  0  0  0  0  0  0  0  0  0  0
  -21.4520   -3.5070   26.0840 F   0  0  0  0  0  0  0  0  0  0  0  0
  -22.7730  -13.3610   21.3230 C   0  0  0  0  0  0  0  0  0  0  0  0
  -22.0920  -12.6570   22.2190 N   0  0  0  0  0  0  0  0  0  0  0  0
  -22.3110  -14.3940   20.8390 O   0  0  0  0  0  0  0  0  0  0  0  0
  -22.4820  -11.8190   22.6280 H   0  0  0  0  0  0  0  0  0  0  0  0
  -21.1700  -12.9570   22.5010 H   0  0  0  0  0  0  0  0  0  0  0  0
  -25.3680  -15.0300   20.4050 N   0  0  0  0  0  0  0  0  0  0  0  0
  -24.6050  -15.6810   20.5600 H   0  0  0  0  0  0  0  0  0  0  0  0
  -26.1940  -15.4700   20.0240 H   0  0  0  0  0  0  0  0  0  0  0  0
  -30.8340  -20.0250   21.8620 C   0  0  0  0  0  2  0  0  0  0  0  0
  -35.2360  -19.9730   22.3360 C   0  0  0  0  0  2  0  0  0  0  0  0
  -34.4340  -21.0960   23.0110 C   0  0  0  0  0  2  0  0  0  0  0  0
  -34.6510  -19.6280   20.9590 C   0  0  0  0  0  2  0  0  0  0  0  0
  -32.9450  -20.7310   23.1070 C   0  0  0  0  0  2  0  0  0  0  0  0
  -33.1630  -19.2520   21.0680 C   0  0  0  0  0  2  0  0  0  0  0  0
  -32.3390  -20.3800   21.7290 C   0  0  0  0  0  3  0  0  0  0  0  0
  -29.1120  -21.0480   20.1190 C   0  0  0  0  0  2  0  0  0  0  0  0
  -29.1250  -22.4500   20.8940 C   0  0  0  0  0  2  0  0  0  0  0  0
  -28.8050  -23.8070   20.1180 C   0  0  0  0  0  3  0  0  0  0  0  0
  -28.5290  -25.0910   21.0140 C   0  0  0  0  0  3  0  0  0  0  0  0
  -28.6480  -26.4420   20.4420 O   0  0  0  0  0  0  0  0  0  0  0  0
  -24.6790  -31.7870   23.2150 C   0  0  0  0  0  0  0  0  0  0  0  0
  -27.4990  -27.2320   20.3870 C   0  0  0  0  0  0  0  0  0  0  0  0
  -23.5690  -30.3310   21.5570 C   0  0  0  0  0  3  0  0  0  0  0  0
  -25.1040  -28.7700   20.2350 C   0  0  0  0  0  0  0  0  0  0  0  0
  -26.1050  -30.6980   21.4720 C   0  0  0  0  0  2  0  0  0  0  0  0
  -26.2350  -29.3080   20.8650 C   0  0  0  0  0  0  0  0  0  0  0  0
  -27.4400  -28.5500   20.9280 C   0  0  0  0  0  3  0  0  0  0  0  0
  -26.3480  -26.7290   19.7480 C   0  0  0  0  0  3  0  0  0  0  0  0
  -25.1610  -27.4860   19.6690 C   0  0  0  0  0  3  0  0  0  0  0  0
  -23.8510  -29.6210   20.2060 C   0  0  0  0  0  2  0  0  0  0  0  0
  -24.8010  -30.9590   22.1390 N   0  0  0  0  0  0  0  0  0  0  0  0
  -23.5710  -32.0560   23.7000 O   0  0  0  0  0  0  0  0  0  0  0  0
  -22.8840  -29.3280   22.5140 C   0  0  0  0  0  0  0  0  0  0  0  0
  -21.5660  -29.1360   22.3440 N   0  0  0  0  0  0  0  0  0  0  0  0
  -23.5410  -28.7220   23.3650 O   0  0  0  0  0  0  0  0  0  0  0  0
  -21.0980  -29.6710   21.6260 H   0  0  0  0  0  0  0  0  0  0  0  0
  -18.1800  -27.9400   22.7570 C   0  0  0  0  0  0  0  0  0  0  0  0
  -20.7270  -28.2060   23.1020 C   0  0  0  0  0  3  0  0  0  0  0  0
  -20.8520  -26.7680   22.5490 C   0  0  0  0  0  2  0  0  0  0  0  0
  -19.7810  -26.4290   21.5070 C   0  0  0  0  0  2  0  0  0  0  0  0
  -18.3790  -26.5820   22.1030 C   0  0  0  0  0  2  0  0  0  0  0  0
  -19.2830  -28.7080   23.2110 C   0  0  0  0  0  0  0  0  0  0  0  0
  -19.0440  -29.9790   23.7780 C   0  0  0  0  0  3  0  0  0  0  0  0
  -17.7340  -30.4800   23.8980 C   0  0  0  0  0  3  0  0  0  0  0  0
  -16.6440  -29.7070   23.4610 C   0  0  0  0  0  3  0  0  0  0  0  0
  -16.8670  -28.4390   22.8960 C   0  0  0  0  0  3  0  0  0  0  0  0
  -25.9250  -32.4570   23.8760 C   0  0  0  0  0  3  0  0  0  0  0  0
  -26.4230  -31.6990   25.1680 C   0  0  1  0  0  0  0  0  0  0  0  0
  -25.3010  -31.4290   26.1990 C   0  0  0  0  0  1  0  0  0  0  0  0
  -27.0590  -30.3400   24.7950 C   0  0  0  0  0  1  0  0  0  0  0  0
  -27.5270  -32.5250   25.8660 C   0  0  0  0  0  1  0  0  0  0  0  0
  -25.5670  -33.8450   24.1990 N   0  0  0  0  0  0  0  0  0  0  0  0
  -25.8860  -34.9080   23.4470 C   0  0  0  0  0  0  0  0  0  0  0  0
  -26.5820  -34.8240   22.4310 O   0  0  0  0  0  0  0  0  0  0  0  0
  -24.9510  -33.9830   24.9870 H   0  0  0  0  0  0  0  0  0  0  0  0
  -24.1150  -36.6450   23.0510 C   0  0  0  0  0  1  0  0  0  0  0  0
  -25.3490  -36.2810   23.8910 C   0  0  0  0  0  3  0  0  0  0  0  0
  -27.4380  -37.2270   24.7660 C   0  0  0  0  0  1  0  0  0  0  0  0
  -26.3530  -37.3640   23.7990 N   0  0  0  0  0  0  0  0  0  0  0  0
  -25.9170  -38.2720   23.9370 H   0  0  0  0  0  0  0  0  0  0  0  0
  1 50  1  0
  1 43  1  0
  2  1  1  0
  2  3  1  0
  4  2  1  0
  5  2  1  0
  5  6  2  0
  7  6  1  0
  8 13  1  0
  9 10  1  0
  9  8  1  0
 11 10  1  0
 11 18  1  0
 11 12  1  0
 13  7  1  0
 13 12  1  0
 14  7  2  0
 15 16  2  0
 16 35  1  0
 17 16  1  0
 17 20  1  0
 18 19  1  0
 18 15  1  0
 19 17  2  0
 20 21  1  0
 21 22  2  0
 23 26  1  0
 23 22  1  0
 24 23  2  0
 25 24  1  0
 25 20  2  0
 26 27  1  0
 27 28  1  0
 28 29  2  0
 30 29  1  0
 30 34  1  0
 31 30  2  0
 32 27  2  0
 32 31  1  0
 33 32  1  0
 35 36  1  0
 36 39  1  0
 36 38  1  0
 37 35  2  0
 40 41  1  0
 40 15  1  0
 42 40  1  0
 44 45  1  0
 45 47  1  0
 46 48  1  0
 46 44  1  0
 48 49  1  0
 49 43  1  0
 49 47  1  0
 50 51  1  0
 52 51  1  0
 52 53  2  0
 54 53  1  0
 55 66  2  0
 56 54  1  0
 56 61  1  0
 57 65  1  0
 57 67  1  0
 58 60  1  0
 59 65  1  0
 60 61  2  0
 60 59  1  0
 62 56  2  0
 63 62  1  0
 63 58  2  0
 64 58  1  0
 64 57  1  0
 65 55  1  0
 67 69  2  0
 68 67  1  0
 70 68  1  0
 71 80  2  0
 71 76  1  0
 72 68  1  0
 72 76  1  0
 73 72  1  0
 74 75  1  0
 74 73  1  0
 75 71  1  0
 76 77  2  0
 77 78  1  0
 79 78  2  0
 80 79  1  0
 81 55  1  0
 81 86  1  0
 81 82  1  0
 82 85  1  1
 82 83  1  0
 84 82  1  0
 86 89  1  0
 87 91  1  0
 87 86  1  0
 88 87  2  0
 91 90  1  0
 93 91  1  0
 93 94  1  0
 93 92  1  0
M  ISO  4   6 100   7 100  53 101  54 101
M  END
>  <TORSDO>  (95) 
F 25

>  <SCORE>  (95) 
-12.341

>  <name>  (95) 
95

>  <ligand_id>  (95) 
95

>  <original_smiles>  (95) 
[H]c1c([H])c([H])c2c(c1[H])C([H])([H])C([H])([H])C([H])([H])C2([H])N([H])C(=O)C1([H])N(C(=O)C([H])(N([H])C(=O)C([H])(N([H])C([H])([H])[H])C([H])([H])[H])C(C([H])([H])[H])(C([H])([H])[H])C([H])([H])[H])C([H])([H])c2c([H])c(OC([H])([H])C([H])([H])C([H])([H])C([H])([H])C([H])(C([H])([H])C3([H])C([H])([H])C([H])([H])C([H])([H])C([H])([H])C3([H])[H])[N+]([H])([H])C([H])([H])C([H])([H])C(=O)N3C([H])([H])C([H])([H])C([H])([H])C([H])(n4nc(-c5c([H])c([H])c(Oc6c([H])c([H])c(F)c([H])c6F)c([H])c5[H])c(C(=O)N([H])[H])c4N([H])[H])C3([H])[H])c([H])c([H])c2C1([H])[H]

>  <smiles>  (95) 
[H]c1c([H])c([H])c2c(c1[H])C([H])([H])C([H])([H])C([H])([H])C2([H])N([H])C(=O)C1([H])N(C(=O)C([H])(N([H])C(=O)C([H])(N([H])C([H])([H])[H])C([H])([H])[H])C(C([H])([H])[H])(C([H])([H])[H])C([H])([H])[H])C([H])([H])c2c([H])c(OC([H])([H])C([H])([H])C([H])([H])C([H])([H])C([H])(C([H])([H])C3([H])C([H])([H])C([H])([H])C([H])([H])C([H])([H])C3([H])[H])[N+]([H])([H])C([H])([H])C([H])([H])C(=O)N3C([H])([H])C([H])([H])C([H])([H])C([H])(n4nc(-c5c([H])c([H])c(Oc6c([H])c([H])c(F)c([H])c6F)c([H])c5[H])c(C(=O)N([H])[H])c4N([H])[H])C3([H])[H])c([H])c([H])c2C1([H])[H]

$$$$
