0:0:0
     RDKit          3D

 86 93  0  0  1  0  0  0  0  0999 V2000
  -28.3690  -22.6510   22.0190 C   0  0  0  0  0  1  0  0  0  0  0  0
  -28.8000  -22.8090   20.5560 C   0  0  0  0  0  3  0  0  0  0  0  0
  -28.8510  -21.1550   19.8680 C   0  0  0  0  0  2  0  0  0  0  0  0
  -29.6570  -18.3450   19.9710 C   0  0  0  0  0  0  0  0  0  0  0  0
  -29.2270  -19.6590   20.4970 N   0  0  0  0  0  0  0  0  0  0  0  0
  -30.0330  -18.3560   18.7980 O   0  0  0  0  0  0  0  0  0  0  0  0
  -28.9780  -19.5990   21.4770 H   0  0  0  0  0  0  0  0  0  0  0  0
  -29.6380  -16.7690   20.7110 C   0  0  0  0  0  2  0  0  0  0  0  0
  -30.4110  -15.2710   20.2390 C   0  0  0  0  0  0  0  0  0  0  0  0
  -30.3810  -12.8330   19.3400 C   0  0  0  0  0  2  0  0  0  0  0  0
  -29.4430  -12.6840   18.1130 C   0  0  0  0  0  2  0  0  0  0  0  0
  -27.9930  -12.4240   18.5590 C   0  0  0  0  0  2  0  0  0  0  0  0
  -27.5690  -13.3680   19.7120 C   0  0  0  0  0  3  0  0  0  0  0  0
  -28.6290  -13.4670   20.8290 C   0  0  0  0  0  2  0  0  0  0  0  0
  -29.8730  -13.9540   20.2100 N   0  0  0  0  0  0  0  0  0  0  0  0
  -31.6000  -15.2890   19.8810 O   0  0  0  0  0  0  0  0  0  0  0  0
  -25.2020  -13.9310   20.4820 C   0  0  0  0  0  0  0  0  0  0  0  0
  -24.1420  -13.1560   20.8620 C   0  0  0  0  0  0  0  0  0  0  0  0
  -24.6080  -11.8050   20.8290 C   0  0  0  0  0  0  0  0  0  0  0  0
  -26.2420  -13.0550   20.2300 N   0  0  0  0  0  0  0  0  0  0  0  0
  -25.8970  -11.7690   20.5050 N   0  0  0  0  0  0  0  0  0  0  0  0
  -23.8800  -10.5440   21.0280 C   0  0  0  0  0  0  0  0  0  0  0  0
  -24.3260   -9.5680   21.9470 C   0  0  0  0  0  3  0  0  0  0  0  0
  -23.5970   -8.3740   22.1340 C   0  0  0  0  0  3  0  0  0  0  0  0
  -22.4070   -8.1460   21.4040 C   0  0  0  0  0  0  0  0  0  0  0  0
  -21.9790   -9.1100   20.4720 C   0  0  0  0  0  3  0  0  0  0  0  0
  -22.7090  -10.2950   20.2830 C   0  0  0  0  0  3  0  0  0  0  0  0
  -21.6470   -7.0050   21.5010 O   0  0  0  0  0  0  0  0  0  0  0  0
  -21.6300   -6.2480   22.6450 C   0  0  0  0  0  0  0  0  0  0  0  0
  -21.2550   -6.7910   23.8930 C   0  0  0  0  0  3  0  0  0  0  0  0
  -21.1840   -5.9610   25.0290 C   0  0  0  0  0  3  0  0  0  0  0  0
  -21.4790   -4.5890   24.9190 C   0  0  0  0  0  0  0  0  0  0  0  0
  -21.8460   -4.0440   23.6770 C   0  0  0  0  0  3  0  0  0  0  0  0
  -21.9180   -4.8710   22.5420 C   0  0  0  0  0  0  0  0  0  0  0  0
  -22.2530   -4.3390   21.3420 F   0  0  0  0  0  0  0  0  0  0  0  0
  -21.4030   -3.7890   26.0090 F   0  0  0  0  0  0  0  0  0  0  0  0
  -22.7480  -13.6340   21.1420 C   0  0  0  0  0  0  0  0  0  0  0  0
  -22.0260  -12.9430   22.0160 N   0  0  0  0  0  0  0  0  0  0  0  0
  -22.3090  -14.6590   20.6200 O   0  0  0  0  0  0  0  0  0  0  0  0
  -22.3950  -12.1160   22.4600 H   0  0  0  0  0  0  0  0  0  0  0  0
  -21.0910  -13.2470   22.2460 H   0  0  0  0  0  0  0  0  0  0  0  0
  -25.3660  -15.3010   20.3040 N   0  0  0  0  0  0  0  0  0  0  0  0
  -24.6000  -15.9570   20.4220 H   0  0  0  0  0  0  0  0  0  0  0  0
  -26.2100  -15.7360   19.9550 H   0  0  0  0  0  0  0  0  0  0  0  0
  -28.0400  -24.3270   19.9700 C   0  0  0  0  0  2  0  0  0  0  0  0
  -28.1940  -25.9220   20.3220 O   0  0  0  0  0  0  0  0  0  0  0  0
  -24.6290  -31.8740   23.2190 C   0  0  0  0  0  0  0  0  0  0  0  0
  -27.1790  -27.0040   20.2190 C   0  0  0  0  0  0  0  0  0  0  0  0
  -23.4310  -30.4730   21.5870 C   0  0  0  0  0  3  0  0  0  0  0  0
  -24.8760  -28.8660   20.1660 C   0  0  0  0  0  0  0  0  0  0  0  0
  -25.9960  -30.6880   21.4360 C   0  0  0  0  0  2  0  0  0  0  0  0
  -26.0620  -29.2790   20.7850 C   0  0  0  0  0  0  0  0  0  0  0  0
  -27.2060  -28.3650   20.7910 C   0  0  0  0  0  3  0  0  0  0  0  0
  -25.9670  -26.7400   19.5420 C   0  0  0  0  0  3  0  0  0  0  0  0
  -24.8520  -27.6170   19.5250 C   0  0  0  0  0  3  0  0  0  0  0  0
  -23.6570  -29.7840   20.2120 C   0  0  0  0  0  2  0  0  0  0  0  0
  -24.7070  -31.0390   22.1340 N   0  0  0  0  0  0  0  0  0  0  0  0
  -23.5420  -32.1680   23.7400 O   0  0  0  0  0  0  0  0  0  0  0  0
  -22.7380  -29.4830   22.5570 C   0  0  0  0  0  0  0  0  0  0  0  0
  -21.4080  -29.3210   22.4350 N   0  0  0  0  0  0  0  0  0  0  0  0
  -23.4030  -28.8590   23.3880 O   0  0  0  0  0  0  0  0  0  0  0  0
  -20.9250  -29.8740   21.7400 H   0  0  0  0  0  0  0  0  0  0  0  0
  -18.0230  -28.1190   22.9450 C   0  0  0  0  0  0  0  0  0  0  0  0
  -20.5820  -28.3900   23.2110 C   0  0  0  0  0  3  0  0  0  0  0  0
  -20.6860  -26.9530   22.6470 C   0  0  0  0  0  2  0  0  0  0  0  0
  -19.5860  -26.6230   21.6330 C   0  0  0  0  0  2  0  0  0  0  0  0
  -18.2030  -26.7670   22.2740 C   0  0  0  0  0  2  0  0  0  0  0  0
  -19.1400  -28.8880   23.3700 C   0  0  0  0  0  0  0  0  0  0  0  0
  -18.9150  -30.1500   23.9610 C   0  0  0  0  0  3  0  0  0  0  0  0
  -17.6080  -30.6460   24.1270 C   0  0  0  0  0  3  0  0  0  0  0  0
  -16.5060  -29.8750   23.7150 C   0  0  0  0  0  3  0  0  0  0  0  0
  -16.7150  -28.6130   23.1310 C   0  0  0  0  0  3  0  0  0  0  0  0
  -25.9040  -32.5160   23.8480 C   0  0  0  0  0  3  0  0  0  0  0  0
  -26.4090  -31.7540   25.1360 C   0  0  1  0  0  0  0  0  0  0  0  0
  -25.3100  -31.5320   26.2010 C   0  0  0  0  0  1  0  0  0  0  0  0
  -26.9880  -30.3700   24.7660 C   0  0  0  0  0  1  0  0  0  0  0  0
  -27.5610  -32.5480   25.7960 C   0  0  0  0  0  1  0  0  0  0  0  0
  -25.5890  -33.9170   24.1800 N   0  0  0  0  0  0  0  0  0  0  0  0
  -25.9170  -34.9770   23.4280 C   0  0  0  0  0  0  0  0  0  0  0  0
  -26.5800  -34.8780   22.3930 O   0  0  0  0  0  0  0  0  0  0  0  0
  -24.9980  -34.0670   24.9850 H   0  0  0  0  0  0  0  0  0  0  0  0
  -24.1840  -36.7750   23.1100 C   0  0  0  0  0  1  0  0  0  0  0  0
  -25.4380  -36.3660   23.8990 C   0  0  0  0  0  3  0  0  0  0  0  0
  -27.5840  -37.2530   24.6980 C   0  0  0  0  0  1  0  0  0  0  0  0
  -26.4680  -37.4200   23.7710 N   0  0  0  0  0  0  0  0  0  0  0  0
  -26.0640  -38.3400   23.9230 H   0  0  0  0  0  0  0  0  0  0  0  0
  2  1  1  0
  3  5  1  0
  3  2  1  0
  4  5  1  0
  4  8  1  0
  5  7  1  0
  6  4  2  0
  9  8  1  0
 10 15  1  0
 11 12  1  0
 11 10  1  0
 13 12  1  0
 13 20  1  0
 13 14  1  0
 15  9  1  0
 15 14  1  0
 16  9  2  0
 17 18  2  0
 18 37  1  0
 19 18  1  0
 19 22  1  0
 20 17  1  0
 20 21  1  0
 21 19  2  0
 22 23  1  0
 23 24  2  0
 25 28  1  0
 25 24  1  0
 26 25  2  0
 27 26  1  0
 27 22  2  0
 28 29  1  0
 29 30  1  0
 30 31  2  0
 32 31  1  0
 32 36  1  0
 33 32  2  0
 34 29  2  0
 34 33  1  0
 35 34  1  0
 37 38  1  0
 38 41  1  0
 38 40  1  0
 39 37  2  0
 42 43  1  0
 42 17  1  0
 44 42  1  0
 45 46  1  0
 45  2  1  0
 47 58  2  0
 48 46  1  0
 48 53  1  0
 49 57  1  0
 49 59  1  0
 50 56  1  0
 50 52  1  0
 51 57  1  0
 52 53  2  0
 52 51  1  0
 54 48  2  0
 55 54  1  0
 55 50  2  0
 56 49  1  0
 57 47  1  0
 59 61  2  0
 60 59  1  0
 62 60  1  0
 63 72  2  0
 63 68  1  0
 64 60  1  0
 64 68  1  0
 65 64  1  0
 66 67  1  0
 66 65  1  0
 67 63  1  0
 68 69  2  0
 69 70  1  0
 71 70  2  0
 72 71  1  0
 73 47  1  0
 73 78  1  0
 73 74  1  0
 74 77  1  1
 74 75  1  0
 76 74  1  0
 78 81  1  0
 79 83  1  0
 79 78  1  0
 80 79  2  0
 83 82  1  0
 85 83  1  0
 85 86  1  0
 85 84  1  0
M  ISO  4   8 100   9 100  45 101  46 101
M  END
>  <TORSDO>  (1) 
F 20

>  <SCORE>  (1) 
-15.790

>  <name>  (1) 
0

>  <ligand_id>  (1) 
0

>  <original_smiles>  (1) 
[H]c1c([H])c([H])c2c(c1[H])C([H])([H])C([H])([H])C([H])([H])C2([H])N([H])C(=O)C1([H])N(C(=O)C([H])(N([H])C(=O)C([H])(N([H])C([H])([H])[H])C([H])([H])[H])C(C([H])([H])[H])(C([H])([H])[H])C([H])([H])[H])C([H])([H])c2c([H])c(OC([H])([H])C([H])(C([H])([H])[H])C([H])([H])N([H])C(=O)C([H])([H])C(=O)N3C([H])([H])C([H])([H])C([H])([H])C([H])(n4nc(-c5c([H])c([H])c(Oc6c([H])c([H])c(F)c([H])c6F)c([H])c5[H])c(C(=O)N([H])[H])c4N([H])[H])C3([H])[H])c([H])c([H])c2C1([H])[H]

>  <smiles>  (1) 
[H]c1c([H])c([H])c2c(c1[H])C([H])([H])C([H])([H])C([H])([H])C2([H])N([H])C(=O)C1([H])N(C(=O)C([H])(N([H])C(=O)C([H])(N([H])C([H])([H])[H])C([H])([H])[H])C(C([H])([H])[H])(C([H])([H])[H])C([H])([H])[H])C([H])([H])c2c([H])c(OC([H])([H])C([H])(C([H])([H])[H])C([H])([H])N([H])C(=O)C([H])([H])C(=O)N3C([H])([H])C([H])([H])C([H])([H])C([H])(n4nc(-c5c([H])c([H])c(Oc6c([H])c([H])c(F)c([H])c6F)c([H])c5[H])c(C(=O)N([H])[H])c4N([H])[H])C3([H])[H])c([H])c([H])c2C1([H])[H]

$$$$
1:0:0
     RDKit          3D

 93101  0  0  1  0  0  0  0  0999 V2000
  -29.8800  -20.6980   20.2700 N   0  0  1  0  0  4  0  0  0  0  0  0
  -29.9450  -20.6490   21.2750 H   0  0  0  0  0  0  0  0  0  0  0  0
  -32.4780  -20.5220   20.1430 C   0  0  0  0  0  1  0  0  0  0  0  0
  -31.1820  -21.2640   19.7850 C   0  0  0  0  0  2  0  0  0  0  0  0
  -28.8030  -21.8480   20.0090 C   0  0  0  0  0  2  0  0  0  0  0  0
  -29.0420  -23.4810   20.3920 C   0  0  0  0  0  3  0  0  0  0  0  0
  -27.9800  -24.7330   20.0550 C   0  0  0  0  0  3  0  0  0  0  0  0
  -28.2240  -26.2500   20.2550 O   0  0  0  0  0  0  0  0  0  0  0  0
  -24.5870  -31.9100   23.2070 C   0  0  0  0  0  0  0  0  0  0  0  0
  -27.1520  -27.2060   20.1820 C   0  0  0  0  0  0  0  0  0  0  0  0
  -23.3740  -30.5030   21.5870 C   0  0  0  0  0  3  0  0  0  0  0  0
  -24.8110  -28.9250   20.1580 C   0  0  0  0  0  0  0  0  0  0  0  0
  -25.9220  -30.7790   21.3950 C   0  0  0  0  0  2  0  0  0  0  0  0
  -25.9930  -29.3840   20.7530 C   0  0  0  0  0  0  0  0  0  0  0  0
  -27.1630  -28.5410   20.7480 C   0  0  0  0  0  3  0  0  0  0  0  0
  -25.9430  -26.8410   19.5470 C   0  0  0  0  0  3  0  0  0  0  0  0
  -24.7980  -27.6660   19.5380 C   0  0  0  0  0  3  0  0  0  0  0  0
  -23.5800  -29.8160   20.2110 C   0  0  0  0  0  2  0  0  0  0  0  0
  -24.6480  -31.0860   22.1180 N   0  0  0  0  0  0  0  0  0  0  0  0
  -23.5050  -32.1960   23.7440 O   0  0  0  0  0  0  0  0  0  0  0  0
  -22.7050  -29.5000   22.5600 C   0  0  0  0  0  0  0  0  0  0  0  0
  -21.3760  -29.3280   22.4470 N   0  0  0  0  0  0  0  0  0  0  0  0
  -23.3850  -28.8790   23.3820 O   0  0  0  0  0  0  0  0  0  0  0  0
  -20.8840  -29.8840   21.7620 H   0  0  0  0  0  0  0  0  0  0  0  0
  -18.0010  -28.1320   22.9870 C   0  0  0  0  0  0  0  0  0  0  0  0
  -20.5620  -28.3970   23.2320 C   0  0  0  0  0  3  0  0  0  0  0  0
  -20.6580  -26.9600   22.6690 C   0  0  0  0  0  2  0  0  0  0  0  0
  -19.5490  -26.6290   21.6650 C   0  0  0  0  0  2  0  0  0  0  0  0
  -18.1720  -26.7780   22.3190 C   0  0  0  0  0  2  0  0  0  0  0  0
  -19.1220  -28.8990   23.4010 C   0  0  0  0  0  0  0  0  0  0  0  0
  -18.9050  -30.1650   23.9880 C   0  0  0  0  0  3  0  0  0  0  0  0
  -17.6000  -30.6640   24.1620 C   0  0  0  0  0  3  0  0  0  0  0  0
  -16.4940  -29.8950   23.7620 C   0  0  0  0  0  3  0  0  0  0  0  0
  -16.6950  -28.6300   23.1810 C   0  0  0  0  0  3  0  0  0  0  0  0
  -25.8700  -32.5510   23.8200 C   0  0  0  0  0  3  0  0  0  0  0  0
  -25.5570  -33.9490   24.1550 N   0  0  0  0  0  0  0  0  0  0  0  0
  -25.8800  -35.0060   23.4000 C   0  0  0  0  0  0  0  0  0  0  0  0
  -26.5410  -34.9080   22.3610 O   0  0  0  0  0  0  0  0  0  0  0  0
  -24.9710  -34.0990   24.9630 H   0  0  0  0  0  0  0  0  0  0  0  0
  -24.1500  -36.8040   23.0700 C   0  0  0  0  0  1  0  0  0  0  0  0
  -25.3970  -36.3930   23.8690 C   0  0  0  0  0  3  0  0  0  0  0  0
  -27.5390  -37.2760   24.6860 C   0  0  0  0  0  1  0  0  0  0  0  0
  -26.4290  -37.4470   23.7530 N   0  0  0  0  0  0  0  0  0  0  0  0
  -26.0240  -38.3660   23.9090 H   0  0  0  0  0  0  0  0  0  0  0  0
  -26.3990  -31.7850   25.0950 C   0  0  1  0  0  0  0  0  0  0  0  0
  -25.3150  -31.5480   26.1720 C   0  0  0  0  0  1  0  0  0  0  0  0
  -26.9810  -30.4070   24.7060 C   0  0  0  0  0  1  0  0  0  0  0  0
  -27.5540  -32.5840   25.7450 C   0  0  0  0  0  1  0  0  0  0  0  0
  -29.7050  -19.1680   19.7920 C   0  0  0  0  0  3  0  0  0  0  0  0
  -31.2990  -16.7640   22.6070 C   0  0  0  0  0  2  0  0  0  0  0  0
  -30.0470  -15.9420   22.2590 C   0  0  0  0  0  2  0  0  0  0  0  0
  -31.3670  -17.9240   21.6010 C   0  0  0  0  0  2  0  0  0  0  0  0
  -29.7520  -16.2050   20.7610 C   0  0  0  0  0  3  0  0  0  0  0  0
  -30.0540  -17.8710   20.8150 C   0  0  0  0  0  3  0  0  0  0  0  0
  -30.5020  -14.9310   20.0230 C   0  0  0  0  0  0  0  0  0  0  0  0
  -30.3350  -12.6330   18.9450 C   0  0  0  0  0  2  0  0  0  0  0  0
  -29.3240  -12.6630   17.7720 C   0  0  0  0  0  2  0  0  0  0  0  0
  -27.8830  -12.4450   18.2750 C   0  0  0  0  0  2  0  0  0  0  0  0
  -27.5580  -13.3150   19.5160 C   0  0  0  0  0  3  0  0  0  0  0  0
  -28.6750  -13.2340   20.5780 C   0  0  0  0  0  2  0  0  0  0  0  0
  -29.9280  -13.6640   19.9350 N   0  0  0  0  0  0  0  0  0  0  0  0
  -31.6190  -15.0840   19.5170 O   0  0  0  0  0  0  0  0  0  0  0  0
  -25.2060  -13.8820   20.3640 C   0  0  0  0  0  0  0  0  0  0  0  0
  -24.1640  -13.1010   20.7830 C   0  0  0  0  0  0  0  0  0  0  0  0
  -24.6330  -11.7520   20.7220 C   0  0  0  0  0  0  0  0  0  0  0  0
  -26.2420  -13.0120   20.0710 N   0  0  0  0  0  0  0  0  0  0  0  0
  -25.9080  -11.7240   20.3470 N   0  0  0  0  0  0  0  0  0  0  0  0
  -23.9220  -10.4860   20.9420 C   0  0  0  0  0  0  0  0  0  0  0  0
  -24.3870   -9.5280   21.8700 C   0  0  0  0  0  3  0  0  0  0  0  0
  -23.6760   -8.3260   22.0780 C   0  0  0  0  0  3  0  0  0  0  0  0
  -22.4840   -8.0730   21.3570 C   0  0  0  0  0  0  0  0  0  0  0  0
  -22.0380   -9.0190   20.4160 C   0  0  0  0  0  3  0  0  0  0  0  0
  -22.7500  -10.2120   20.2090 C   0  0  0  0  0  3  0  0  0  0  0  0
  -21.7410   -6.9230   21.4740 O   0  0  0  0  0  0  0  0  0  0  0  0
  -21.7080   -6.2040   22.6420 C   0  0  0  0  0  0  0  0  0  0  0  0
  -21.2930   -6.7810   23.8630 C   0  0  0  0  0  3  0  0  0  0  0  0
  -21.2070   -5.9890   25.0240 C   0  0  0  0  0  3  0  0  0  0  0  0
  -21.5270   -4.6190   24.9670 C   0  0  0  0  0  0  0  0  0  0  0  0
  -21.9360   -4.0400   23.7520 C   0  0  0  0  0  3  0  0  0  0  0  0
  -22.0230   -4.8310   22.5920 C   0  0  0  0  0  0  0  0  0  0  0  0
  -22.3960   -4.2640   21.4200 F   0  0  0  0  0  0  0  0  0  0  0  0
  -21.4370   -3.8540   26.0800 F   0  0  0  0  0  0  0  0  0  0  0  0
  -22.7800  -13.5670   21.1270 C   0  0  0  0  0  0  0  0  0  0  0  0
  -22.1000  -12.8640   22.0240 N   0  0  0  0  0  0  0  0  0  0  0  0
  -22.3120  -14.5940   20.6350 O   0  0  0  0  0  0  0  0  0  0  0  0
  -22.4950  -12.0340   22.4440 H   0  0  0  0  0  0  0  0  0  0  0  0
  -21.1710  -13.1560   22.2930 H   0  0  0  0  0  0  0  0  0  0  0  0
  -25.3540  -15.2550   20.1830 N   0  0  0  0  0  0  0  0  0  0  0  0
  -24.5880  -15.9040   20.3290 H   0  0  0  0  0  0  0  0  0  0  0  0
  -26.1760  -15.6940   19.7930 H   0  0  0  0  0  0  0  0  0  0  0  0
  -28.4700  -17.8850   17.9310 C   0  0  0  0  0  1  0  0  0  0  0  0
  -27.1760  -18.5740   20.0020 C   0  0  0  0  0  1  0  0  0  0  0  0
  -28.3470  -18.9270   19.0600 C   0  0  0  0  0  3  0  0  0  0  0  0
  1  2  1  1
  4  3  1  0
  4  1  1  0
  5  1  1  0
  5  6  1  0
  7  8  1  0
  7  6  2  0
  9 20  2  0
 10  8  1  0
 10 15  1  0
 11 19  1  0
 11 21  1  0
 12 18  1  0
 12 14  1  0
 13 19  1  0
 14 13  1  0
 15 14  2  0
 16 10  2  0
 17 16  1  0
 17 12  2  0
 18 11  1  0
 19  9  1  0
 21 23  2  0
 22 21  1  0
 24 22  1  0
 25 34  2  0
 25 30  1  0
 26 22  1  0
 26 30  1  0
 27 26  1  0
 28 29  1  0
 28 27  1  0
 29 25  1  0
 30 31  2  0
 31 32  1  0
 33 32  2  0
 34 33  1  0
 35  9  1  0
 35 36  1  0
 35 45  1  0
 36 39  1  0
 37 41  1  0
 37 36  1  0
 38 37  2  0
 41 40  1  0
 43 41  1  0
 43 44  1  0
 43 42  1  0
 45 48  1  1
 45 46  1  0
 47 45  1  0
 49 93  1  0
 49  1  1  0
 51 50  1  0
 52 50  1  0
 53 55  1  0
 53 54  1  0
 53 51  1  0
 54 49  1  0
 54 52  1  0
 56 61  1  0
 57 58  1  0
 57 56  1  0
 59 58  1  0
 59 66  1  0
 59 60  1  0
 61 55  1  0
 61 60  1  0
 62 55  2  0
 63 64  2  0
 64 83  1  0
 65 64  1  0
 65 68  1  0
 66 67  1  0
 66 63  1  0
 67 65  2  0
 68 69  1  0
 69 70  2  0
 71 74  1  0
 71 70  1  0
 72 71  2  0
 73 72  1  0
 73 68  2  0
 74 75  1  0
 75 76  1  0
 76 77  2  0
 78 77  1  0
 78 82  1  0
 79 78  2  0
 80 75  2  0
 80 79  1  0
 81 80  1  0
 83 84  1  0
 84 87  1  0
 84 86  1  0
 85 83  2  0
 88 89  1  0
 88 63  1  0
 90 88  1  0
 91 93  1  0
 93 92  1  0
M  ISO  4   7 101   8 101  53 100  55 100
M  END
>  <TORSDO>  (2) 
F 23

>  <SCORE>  (2) 
-12.652

>  <name>  (2) 
1

>  <ligand_id>  (2) 
1

>  <original_smiles>  (2) 
[H]c1c([H])c([H])c2c(c1[H])C([H])([H])C([H])([H])C([H])([H])C2([H])N([H])C(=O)C1([H])N(C(=O)C([H])(N([H])C(=O)C([H])(N([H])C([H])([H])[H])C([H])([H])[H])C(C([H])([H])[H])(C([H])([H])[H])C([H])([H])[H])C([H])([H])c2c([H])c(OC([H])([H])C([H])([H])C([H])([H])[N+]([H])(C([H])([H])C([H])([H])[H])C([H])(C([H])(C([H])([H])[H])C([H])([H])[H])C3([H])C([H])([H])C([H])([H])C([H])([H])C3([H])C(=O)N3C([H])([H])C([H])([H])C([H])([H])C([H])(n4nc(-c5c([H])c([H])c(Oc6c([H])c([H])c(F)c([H])c6F)c([H])c5[H])c(C(=O)N([H])[H])c4N([H])[H])C3([H])[H])c([H])c([H])c2C1([H])[H]

>  <smiles>  (2) 
[H]c1c([H])c([H])c2c(c1[H])C([H])([H])C([H])([H])C([H])([H])C2([H])N([H])C(=O)C1([H])N(C(=O)C([H])(N([H])C(=O)C([H])(N([H])C([H])([H])[H])C([H])([H])[H])C(C([H])([H])[H])(C([H])([H])[H])C([H])([H])[H])C([H])([H])c2c([H])c(OC([H])([H])C([H])([H])C([H])([H])[N+]([H])(C([H])([H])C([H])([H])[H])C([H])(C([H])(C([H])([H])[H])C([H])([H])[H])C3([H])C([H])([H])C([H])([H])C([H])([H])C3([H])C(=O)N3C([H])([H])C([H])([H])C([H])([H])C([H])(n4nc(-c5c([H])c([H])c(Oc6c([H])c([H])c(F)c([H])c6F)c([H])c5[H])c(C(=O)N([H])[H])c4N([H])[H])C3([H])[H])c([H])c([H])c2C1([H])[H]

$$$$
2:0:0
     RDKit          3D

 96103  0  0  1  0  0  0  0  0999 V2000
  -29.5390  -20.0460   20.3990 C   0  0  0  0  0  3  0  0  0  0  0  0
  -29.9850  -20.0750   21.8210 N   0  0  0  0  0  4  0  0  0  0  0  0
  -29.2190  -20.3990   22.3860 H   0  0  0  0  0  0  0  0  0  0  0  0
  -30.1800  -19.1190   22.0720 H   0  0  0  0  0  0  0  0  0  0  0  0
  -31.1970  -20.8330   22.2260 C   0  0  0  0  0  3  0  0  0  0  0  0
  -32.4860  -20.2530   21.5980 C   0  0  0  0  0  0  0  0  0  0  0  0
  -34.8180  -20.6570   20.8830 C   0  0  0  0  0  1  0  0  0  0  0  0
  -33.5370  -21.0690   21.4480 N   0  0  0  0  0  0  0  0  0  0  0  0
  -32.5350  -19.0650   21.2700 O   0  0  0  0  0  0  0  0  0  0  0  0
  -33.4520  -22.0320   21.7500 H   0  0  0  0  0  0  0  0  0  0  0  0
  -31.4230  -19.5150   24.4780 C   0  0  0  0  0  1  0  0  0  0  0  0
  -31.3080  -20.8950   23.7880 C   0  0  0  0  0  3  0  0  0  0  0  0
  -30.0480  -23.1650   24.0100 C   0  0  0  0  0  1  0  0  0  0  0  0
  -30.1810  -21.7070   24.4760 C   0  0  0  0  0  2  0  0  0  0  0  0
  -29.1780  -18.3450   20.1220 C   0  0  0  0  0  2  0  0  0  0  0  0
  -29.7420  -16.9100   20.9690 C   0  0  0  0  0  2  0  0  0  0  0  0
  -30.5010  -15.4530   20.4720 C   0  0  0  0  0  0  0  0  0  0  0  0
  -30.5090  -13.0560   19.5210 C   0  0  0  0  0  2  0  0  0  0  0  0
  -29.6330  -12.9600   18.2460 C   0  0  0  0  0  2  0  0  0  0  0  0
  -28.1620  -12.6980   18.6130 C   0  0  0  0  0  2  0  0  0  0  0  0
  -27.6830  -13.6020   19.7760 C   0  0  0  0  0  3  0  0  0  0  0  0
  -28.6900  -13.6630   20.9450 C   0  0  0  0  0  2  0  0  0  0  0  0
  -29.9650  -14.1470   20.4000 N   0  0  0  0  0  0  0  0  0  0  0  0
  -31.6880  -15.5160   20.1270 O   0  0  0  0  0  0  0  0  0  0  0  0
  -25.2540  -14.1090   20.3750 C   0  0  0  0  0  0  0  0  0  0  0  0
  -24.2000  -13.3080   20.7190 C   0  0  0  0  0  0  0  0  0  0  0  0
  -24.7130  -11.9740   20.7620 C   0  0  0  0  0  0  0  0  0  0  0  0
  -26.3370  -13.2620   20.2190 N   0  0  0  0  0  0  0  0  0  0  0  0
  -26.0190  -11.9750   20.5220 N   0  0  0  0  0  0  0  0  0  0  0  0
  -24.0180  -10.6950   20.9650 C   0  0  0  0  0  0  0  0  0  0  0  0
  -24.4530   -9.7610   21.9300 C   0  0  0  0  0  3  0  0  0  0  0  0
  -23.7530   -8.5490   22.1200 C   0  0  0  0  0  3  0  0  0  0  0  0
  -22.6050   -8.2620   21.3420 C   0  0  0  0  0  0  0  0  0  0  0  0
  -22.1910   -9.1860   20.3670 C   0  0  0  0  0  3  0  0  0  0  0  0
  -22.8910  -10.3890   20.1760 C   0  0  0  0  0  3  0  0  0  0  0  0
  -21.8780   -7.1000   21.4390 O   0  0  0  0  0  0  0  0  0  0  0  0
  -21.8180   -6.3840   22.6070 C   0  0  0  0  0  0  0  0  0  0  0  0
  -21.3620   -6.9610   23.8130 C   0  0  0  0  0  3  0  0  0  0  0  0
  -21.2500   -6.1710   24.9740 C   0  0  0  0  0  3  0  0  0  0  0  0
  -21.5850   -4.8040   24.9320 C   0  0  0  0  0  0  0  0  0  0  0  0
  -22.0340   -4.2260   23.7300 C   0  0  0  0  0  3  0  0  0  0  0  0
  -22.1480   -5.0140   22.5720 C   0  0  0  0  0  0  0  0  0  0  0  0
  -22.5600   -4.4470   21.4120 F   0  0  0  0  0  0  0  0  0  0  0  0
  -21.4720   -4.0420   26.0440 F   0  0  0  0  0  0  0  0  0  0  0  0
  -22.7760  -13.7450   20.8980 C   0  0  0  0  0  0  0  0  0  0  0  0
  -22.0350  -13.0760   21.7740 N   0  0  0  0  0  0  0  0  0  0  0  0
  -22.3270  -14.7190   20.2960 O   0  0  0  0  0  0  0  0  0  0  0  0
  -22.4100  -12.2870   22.2800 H   0  0  0  0  0  0  0  0  0  0  0  0
  -21.0790  -13.3560   21.9410 H   0  0  0  0  0  0  0  0  0  0  0  0
  -25.3770  -15.4780   20.1550 N   0  0  0  0  0  0  0  0  0  0  0  0
  -24.5750  -16.0980   20.1860 H   0  0  0  0  0  0  0  0  0  0  0  0
  -26.2170  -15.9310   19.8190 H   0  0  0  0  0  0  0  0  0  0  0  0
  -28.5870  -21.4890   20.0180 C   0  0  0  0  0  2  0  0  0  0  0  0
  -28.9210  -23.2190   20.1400 C   0  0  0  0  0  3  0  0  0  0  0  0
  -27.9230  -24.6290   19.8250 C   0  0  0  0  0  3  0  0  0  0  0  0
  -28.1840  -26.2140   19.9520 O   0  0  0  0  0  0  0  0  0  0  0  0
  -24.6610  -31.9070   23.2080 C   0  0  0  0  0  0  0  0  0  0  0  0
  -27.1650  -27.2720   19.9090 C   0  0  0  0  0  0  0  0  0  0  0  0
  -23.4360  -30.6090   21.5110 C   0  0  0  0  0  3  0  0  0  0  0  0
  -24.8610  -29.1000   19.9760 C   0  0  0  0  0  0  0  0  0  0  0  0
  -25.9940  -30.8470   21.3360 C   0  0  0  0  0  2  0  0  0  0  0  0
  -26.0520  -29.4860   20.6050 C   0  0  0  0  0  0  0  0  0  0  0  0
  -27.2000  -28.5910   20.5500 C   0  0  0  0  0  3  0  0  0  0  0  0
  -25.9520  -27.0230   19.2290 C   0  0  0  0  0  3  0  0  0  0  0  0
  -24.8330  -27.8910   19.2650 C   0  0  0  0  0  3  0  0  0  0  0  0
  -23.6410  -30.0100   20.0940 C   0  0  0  0  0  2  0  0  0  0  0  0
  -24.7180  -31.1430   22.0740 N   0  0  0  0  0  0  0  0  0  0  0  0
  -23.5820  -32.1680   23.7650 O   0  0  0  0  0  0  0  0  0  0  0  0
  -22.7620  -29.5550   22.4270 C   0  0  0  0  0  0  0  0  0  0  0  0
  -21.4290  -29.4050   22.3190 N   0  0  0  0  0  0  0  0  0  0  0  0
  -23.4410  -28.8790   23.2050 O   0  0  0  0  0  0  0  0  0  0  0  0
  -20.9340  -30.0010   21.6710 H   0  0  0  0  0  0  0  0  0  0  0  0
  -18.0480  -28.1970   22.8310 C   0  0  0  0  0  0  0  0  0  0  0  0
  -20.6160  -28.4310   23.0530 C   0  0  0  0  0  3  0  0  0  0  0  0
  -20.6940  -27.0340   22.3950 C   0  0  0  0  0  2  0  0  0  0  0  0
  -19.5670  -26.7770   21.3880 C   0  0  0  0  0  2  0  0  0  0  0  0
  -18.2000  -26.8920   22.0690 C   0  0  0  0  0  2  0  0  0  0  0  0
  -19.1820  -28.9270   23.2780 C   0  0  0  0  0  0  0  0  0  0  0  0
  -18.9840  -30.1500   23.9550 C   0  0  0  0  0  3  0  0  0  0  0  0
  -17.6870  -30.6460   24.1860 C   0  0  0  0  0  3  0  0  0  0  0  0
  -16.5680  -29.9140   23.7510 C   0  0  0  0  0  3  0  0  0  0  0  0
  -16.7510  -28.6910   23.0800 C   0  0  0  0  0  3  0  0  0  0  0  0
  -25.9480  -32.5070   23.8520 C   0  0  0  0  0  3  0  0  0  0  0  0
  -26.4810  -31.6640   25.0760 C   0  0  1  0  0  0  0  0  0  0  0  0
  -25.4050  -31.3620   26.1450 C   0  0  0  0  0  1  0  0  0  0  0  0
  -27.0620  -30.3100   24.6060 C   0  0  0  0  0  1  0  0  0  0  0  0
  -27.6400  -32.4220   25.7680 C   0  0  0  0  0  1  0  0  0  0  0  0
  -25.6360  -33.8820   24.2780 N   0  0  0  0  0  0  0  0  0  0  0  0
  -25.9690  -34.9900   23.6010 C   0  0  0  0  0  0  0  0  0  0  0  0
  -26.6370  -34.9600   22.5630 O   0  0  0  0  0  0  0  0  0  0  0  0
  -25.0420  -33.9790   25.0890 H   0  0  0  0  0  0  0  0  0  0  0  0
  -24.2460  -36.8150   23.3910 C   0  0  0  0  0  1  0  0  0  0  0  0
  -25.4890  -36.3440   24.1610 C   0  0  0  0  0  3  0  0  0  0  0  0
  -27.6260  -37.1660   25.0500 C   0  0  0  0  0  1  0  0  0  0  0  0
  -26.5240  -37.4010   24.1210 N   0  0  0  0  0  0  0  0  0  0  0  0
  -26.1170  -38.3080   24.3340 H   0  0  0  0  0  0  0  0  0  0  0  0
  1 53  1  0
  1  2  1  0
  2  4  1  0
  2  5  1  0
  2  3  1  0
  5  6  1  0
  5 12  1  0
  7  8  1  0
  8  6  1  0
  8 10  1  0
  9  6  2  0
 12 14  1  0
 12 11  1  0
 13 14  1  0
 15  1  1  0
 15 16  1  0
 17 16  1  0
 18 23  1  0
 19 20  1  0
 19 18  1  0
 21 20  1  0
 21 28  1  0
 21 22  1  0
 23 17  1  0
 23 22  1  0
 24 17  2  0
 25 26  2  0
 26 27  1  0
 26 45  1  0
 27 30  1  0
 28 25  1  0
 28 29  1  0
 29 27  2  0
 30 31  1  0
 31 32  2  0
 33 36  1  0
 33 32  1  0
 34 33  2  0
 35 34  1  0
 35 30  2  0
 36 37  1  0
 37 38  1  0
 38 39  2  0
 40 39  1  0
 40 44  1  0
 41 40  2  0
 42 37  2  0
 42 41  1  0
 43 42  1  0
 45 46  1  0
 46 49  1  0
 46 48  1  0
 47 45  2  0
 50 51  1  0
 50 25  1  0
 52 50  1  0
 53 54  1  0
 55 56  1  0
 55 54  2  0
 57 68  2  0
 58 56  1  0
 58 63  1  0
 59 67  1  0
 59 69  1  0
 60 66  1  0
 60 62  1  0
 61 67  1  0
 62 61  1  0
 63 62  2  0
 64 65  1  0
 64 58  2  0
 65 60  2  0
 66 59  1  0
 67 57  1  0
 69 71  2  0
 70 69  1  0
 72 70  1  0
 73 82  2  0
 73 78  1  0
 74 70  1  0
 74 78  1  0
 75 74  1  0
 76 77  1  0
 76 75  1  0
 77 73  1  0
 78 79  2  0
 79 80  1  0
 81 80  2  0
 82 81  1  0
 83 57  1  0
 83 88  1  0
 83 84  1  0
 84 87  1  1
 84 85  1  0
 86 84  1  0
 88 91  1  0
 89 93  1  0
 89 88  1  0
 90 89  2  0
 93 92  1  0
 95 93  1  0
 95 96  1  0
 95 94  1  0
M  ISO  4  16 100  17 100  55 101  56 101
M  END
>  <TORSDO>  (3) 
F 26

>  <SCORE>  (3) 
-14.018

>  <name>  (3) 
2

>  <ligand_id>  (3) 
2

>  <original_smiles>  (3) 
[H]c1c([H])c([H])c2c(c1[H])C([H])([H])C([H])([H])C([H])([H])C2([H])N([H])C(=O)C1([H])N(C(=O)C([H])(N([H])C(=O)C([H])(N([H])C([H])([H])[H])C([H])([H])[H])C(C([H])([H])[H])(C([H])([H])[H])C([H])([H])[H])C([H])([H])c2c([H])c(OC([H])([H])C([H])([H])C([H])([H])C([H])(C([H])([H])C([H])([H])C(=O)N3C([H])([H])C([H])([H])C([H])([H])C([H])(n4nc(-c5c([H])c([H])c(Oc6c([H])c([H])c(F)c([H])c6F)c([H])c5[H])c(C(=O)N([H])[H])c4N([H])[H])C3([H])[H])[N+]([H])([H])C([H])(C(=O)N([H])C([H])([H])[H])C([H])(C([H])([H])[H])C([H])([H])C([H])([H])[H])c([H])c([H])c2C1([H])[H]

>  <smiles>  (3) 
[H]c1c([H])c([H])c2c(c1[H])C([H])([H])C([H])([H])C([H])([H])C2([H])N([H])C(=O)C1([H])N(C(=O)C([H])(N([H])C(=O)C([H])(N([H])C([H])([H])[H])C([H])([H])[H])C(C([H])([H])[H])(C([H])([H])[H])C([H])([H])[H])C([H])([H])c2c([H])c(OC([H])([H])C([H])([H])C([H])([H])C([H])(C([H])([H])C([H])([H])C(=O)N3C([H])([H])C([H])([H])C([H])([H])C([H])(n4nc(-c5c([H])c([H])c(Oc6c([H])c([H])c(F)c([H])c6F)c([H])c5[H])c(C(=O)N([H])[H])c4N([H])[H])C3([H])[H])[N+]([H])([H])C([H])(C(=O)N([H])C([H])([H])[H])C([H])(C([H])([H])[H])C([H])([H])C([H])([H])[H])c([H])c([H])c2C1([H])[H]

$$$$
3:0:0
     RDKit          3D

 87 95  0  0  1  0  0  0  0  0999 V2000
  -26.8640  -20.3830   19.6120 C   0  0  0  0  0  2  0  0  0  0  0  0
  -27.9650  -19.6640   18.8190 C   0  0  0  0  0  2  0  0  0  0  0  0
  -27.5680  -21.1200   20.7600 C   0  0  0  0  0  2  0  0  0  0  0  0
  -29.2970  -19.9820   19.5230 C   0  0  0  0  0  3  0  0  0  0  0  0
  -28.9350  -21.4020   20.2790 N   0  0  1  0  0  4  0  0  0  0  0  0
  -29.5270  -21.4470   21.0980 H   0  0  0  0  0  0  0  0  0  0  0  0
  -29.9000  -18.4530   20.2110 C   0  0  0  0  0  2  0  0  0  0  0  0
  -29.7050  -16.7670   19.6890 C   0  0  0  0  0  2  0  0  0  0  0  0
  -30.5930  -15.2800   19.8240 C   0  0  0  0  0  0  0  0  0  0  0  0
  -30.5430  -12.8470   18.9760 C   0  0  0  0  0  2  0  0  0  0  0  0
  -29.5610  -12.6710   17.7890 C   0  0  0  0  0  2  0  0  0  0  0  0
  -28.1150  -12.4540   18.2750 C   0  0  0  0  0  2  0  0  0  0  0  0
  -27.7360  -13.4120   19.4290 C   0  0  0  0  0  3  0  0  0  0  0  0
  -28.8310  -13.5070   20.5080 C   0  0  0  0  0  2  0  0  0  0  0  0
  -30.0560  -13.9710   19.8450 N   0  0  0  0  0  0  0  0  0  0  0  0
  -31.8130  -15.2970   19.6110 O   0  0  0  0  0  0  0  0  0  0  0  0
  -25.4080  -14.0050   20.2940 C   0  0  0  0  0  0  0  0  0  0  0  0
  -24.3520  -13.2420   20.7060 C   0  0  0  0  0  0  0  0  0  0  0  0
  -24.8000  -11.8850   20.6500 C   0  0  0  0  0  0  0  0  0  0  0  0
  -26.4260  -13.1170   19.9970 N   0  0  0  0  0  0  0  0  0  0  0  0
  -26.0750  -11.8340   20.2800 N   0  0  0  0  0  0  0  0  0  0  0  0
  -24.0630  -10.6310   20.8650 C   0  0  0  0  0  0  0  0  0  0  0  0
  -24.5060   -9.6620   21.7920 C   0  0  0  0  0  3  0  0  0  0  0  0
  -23.7700   -8.4740   21.9930 C   0  0  0  0  0  3  0  0  0  0  0  0
  -22.5740   -8.2490   21.2710 C   0  0  0  0  0  0  0  0  0  0  0  0
  -22.1530   -9.2040   20.3280 C   0  0  0  0  0  3  0  0  0  0  0  0
  -22.8910  -10.3820   20.1250 C   0  0  0  0  0  3  0  0  0  0  0  0
  -21.8080   -7.1160   21.3830 O   0  0  0  0  0  0  0  0  0  0  0  0
  -21.7590   -6.3910   22.5470 C   0  0  0  0  0  0  0  0  0  0  0  0
  -21.3290   -6.9620   23.7640 C   0  0  0  0  0  3  0  0  0  0  0  0
  -21.2300   -6.1640   24.9210 C   0  0  0  0  0  3  0  0  0  0  0  0
  -21.5520   -4.7950   24.8630 C   0  0  0  0  0  0  0  0  0  0  0  0
  -21.9770   -4.2230   23.6520 C   0  0  0  0  0  3  0  0  0  0  0  0
  -22.0780   -5.0180   22.4970 C   0  0  0  0  0  0  0  0  0  0  0  0
  -22.4670   -4.4550   21.3270 F   0  0  0  0  0  0  0  0  0  0  0  0
  -21.4510   -4.0290   25.9730 F   0  0  0  0  0  0  0  0  0  0  0  0
  -22.9740  -13.7320   21.0350 C   0  0  0  0  0  0  0  0  0  0  0  0
  -22.2750  -13.0410   21.9290 N   0  0  0  0  0  0  0  0  0  0  0  0
  -22.5280  -14.7640   20.5350 O   0  0  0  0  0  0  0  0  0  0  0  0
  -22.6560  -12.2110   22.3550 H   0  0  0  0  0  0  0  0  0  0  0  0
  -21.3460  -13.3430   22.1870 H   0  0  0  0  0  0  0  0  0  0  0  0
  -25.5870  -15.3750   20.1160 N   0  0  0  0  0  0  0  0  0  0  0  0
  -24.8460  -16.0500   20.2710 H   0  0  0  0  0  0  0  0  0  0  0  0
  -26.4310  -15.7890   19.7410 H   0  0  0  0  0  0  0  0  0  0  0  0
  -28.9820  -22.9330   19.6450 C   0  0  0  0  0  3  0  0  0  0  0  0
  -28.1710  -24.4160   20.2060 C   0  0  0  0  0  3  0  0  0  0  0  0
  -28.3630  -26.0120   19.9240 O   0  0  0  0  0  0  0  0  0  0  0  0
  -24.6620  -31.7710   23.0430 C   0  0  0  0  0  0  0  0  0  0  0  0
  -27.3080  -27.0460   19.9320 C   0  0  0  0  0  0  0  0  0  0  0  0
  -23.4920  -30.3800   21.3830 C   0  0  0  0  0  3  0  0  0  0  0  0
  -24.9680  -28.8430   19.9250 C   0  0  0  0  0  0  0  0  0  0  0  0
  -26.0480  -30.6660   21.2250 C   0  0  0  0  0  2  0  0  0  0  0  0
  -26.1480  -29.2750   20.5430 C   0  0  0  0  0  0  0  0  0  0  0  0
  -27.3190  -28.4000   20.5150 C   0  0  0  0  0  3  0  0  0  0  0  0
  -26.0930  -26.7510   19.2760 C   0  0  0  0  0  3  0  0  0  0  0  0
  -24.9620  -27.6010   19.2710 C   0  0  0  0  0  3  0  0  0  0  0  0
  -23.7270  -29.7300   19.9930 C   0  0  0  0  0  2  0  0  0  0  0  0
  -24.7550  -30.9640   21.9390 N   0  0  0  0  0  0  0  0  0  0  0  0
  -23.5680  -32.0260   23.5720 O   0  0  0  0  0  0  0  0  0  0  0  0
  -22.8230  -29.3500   22.3280 C   0  0  0  0  0  0  0  0  0  0  0  0
  -21.4960  -29.1670   22.2040 N   0  0  0  0  0  0  0  0  0  0  0  0
  -23.5040  -28.7170   23.1380 O   0  0  0  0  0  0  0  0  0  0  0  0
  -21.0030  -29.7250   21.5220 H   0  0  0  0  0  0  0  0  0  0  0  0
  -18.1310  -27.9070   22.7030 C   0  0  0  0  0  0  0  0  0  0  0  0
  -20.6890  -28.1990   22.9550 C   0  0  0  0  0  3  0  0  0  0  0  0
  -20.8050  -26.7850   22.3390 C   0  0  0  0  0  2  0  0  0  0  0  0
  -19.6970  -26.4760   21.3250 C   0  0  0  0  0  2  0  0  0  0  0  0
  -18.3190  -26.5830   21.9840 C   0  0  0  0  0  2  0  0  0  0  0  0
  -19.2430  -28.6740   23.1420 C   0  0  0  0  0  0  0  0  0  0  0  0
  -19.0090  -29.9150   23.7760 C   0  0  0  0  0  3  0  0  0  0  0  0
  -17.6990  -30.3910   23.9700 C   0  0  0  0  0  3  0  0  0  0  0  0
  -16.6020  -29.6200   23.5470 C   0  0  0  0  0  3  0  0  0  0  0  0
  -16.8190  -28.3810   22.9210 C   0  0  0  0  0  3  0  0  0  0  0  0
  -25.9210  -32.4230   23.6870 C   0  0  0  0  0  3  0  0  0  0  0  0
  -26.4410  -31.6400   24.9560 C   0  0  1  0  0  0  0  0  0  0  0  0
  -25.3430  -31.3680   26.0130 C   0  0  0  0  0  1  0  0  0  0  0  0
  -27.0480  -30.2790   24.5500 C   0  0  0  0  0  1  0  0  0  0  0  0
  -27.5760  -32.4420   25.6360 C   0  0  0  0  0  1  0  0  0  0  0  0
  -25.5770  -33.8080   24.0520 N   0  0  0  0  0  0  0  0  0  0  0  0
  -25.9000  -34.8920   23.3350 C   0  0  0  0  0  0  0  0  0  0  0  0
  -26.5800  -34.8340   22.3070 O   0  0  0  0  0  0  0  0  0  0  0  0
  -24.9690  -33.9250   24.8490 H   0  0  0  0  0  0  0  0  0  0  0  0
  -24.1510  -36.6750   23.0210 C   0  0  0  0  0  1  0  0  0  0  0  0
  -25.3870  -36.2590   23.8340 C   0  0  0  0  0  3  0  0  0  0  0  0
  -27.4940  -37.1460   24.7320 C   0  0  0  0  0  1  0  0  0  0  0  0
  -26.4070  -37.3300   23.7730 N   0  0  0  0  0  0  0  0  0  0  0  0
  -25.9870  -38.2390   23.9410 H   0  0  0  0  0  0  0  0  0  0  0  0
  1  3  1  0
  2  4  1  0
  2  1  1  0
  4  7  1  0
  4  5  1  0
  5  3  1  0
  5  6  1  1
  8  9  1  0
  8  7  1  0
  9 15  1  0
 10 15  1  0
 11 12  1  0
 11 10  1  0
 13 12  1  0
 13 20  1  0
 13 14  1  0
 15 14  1  0
 16  9  2  0
 17 18  2  0
 18 37  1  0
 19 18  1  0
 19 22  1  0
 20 21  1  0
 20 17  1  0
 21 19  2  0
 22 23  1  0
 23 24  2  0
 25 28  1  0
 25 24  1  0
 26 25  2  0
 27 26  1  0
 27 22  2  0
 28 29  1  0
 29 30  1  0
 30 31  2  0
 32 31  1  0
 32 36  1  0
 33 32  2  0
 34 29  2  0
 34 33  1  0
 35 34  1  0
 37 38  1  0
 38 41  1  0
 38 40  1  0
 39 37  2  0
 42 43  1  0
 42 17  1  0
 44 42  1  0
 45 46  2  0
 45  5  1  0
 47 49  1  0
 47 46  1  0
 48 59  2  0
 49 54  1  0
 50 58  1  0
 50 60  1  0
 51 57  1  0
 51 53  1  0
 52 58  1  0
 53 52  1  0
 54 53  2  0
 55 49  2  0
 56 55  1  0
 56 51  2  0
 57 50  1  0
 58 48  1  0
 60 62  2  0
 61 60  1  0
 63 61  1  0
 64 73  2  0
 64 69  1  0
 65 61  1  0
 65 69  1  0
 66 65  1  0
 67 68  1  0
 67 66  1  0
 68 64  1  0
 69 70  2  0
 70 71  1  0
 72 71  2  0
 73 72  1  0
 74 48  1  0
 74 79  1  0
 74 75  1  0
 75 78  1  1
 75 76  1  0
 77 75  1  0
 79 82  1  0
 80 84  1  0
 80 79  1  0
 81 80  2  0
 84 83  1  0
 86 84  1  0
 86 87  1  0
 86 85  1  0
M  ISO  4   8 100   9 100  46 101  47 101
M  END
>  <TORSDO>  (4) 
F 20

>  <SCORE>  (4) 
-14.649

>  <name>  (4) 
3

>  <ligand_id>  (4) 
3

>  <original_smiles>  (4) 
[H]c1c([H])c([H])c2c(c1[H])C([H])([H])C([H])([H])C([H])([H])C2([H])N([H])C(=O)C1([H])N(C(=O)C([H])(N([H])C(=O)C([H])(N([H])C([H])([H])[H])C([H])([H])[H])C(C([H])([H])[H])(C([H])([H])[H])C([H])([H])[H])C([H])([H])c2c([H])c(OC([H])([H])C([H])([H])[N+]3([H])C([H])([H])C([H])([H])C([H])([H])C3([H])C([H])([H])C([H])([H])C(=O)N3C([H])([H])C([H])([H])C([H])([H])C([H])(n4nc(-c5c([H])c([H])c(Oc6c([H])c([H])c(F)c([H])c6F)c([H])c5[H])c(C(=O)N([H])[H])c4N([H])[H])C3([H])[H])c([H])c([H])c2C1([H])[H]

>  <smiles>  (4) 
[H]c1c([H])c([H])c2c(c1[H])C([H])([H])C([H])([H])C([H])([H])C2([H])N([H])C(=O)C1([H])N(C(=O)C([H])(N([H])C(=O)C([H])(N([H])C([H])([H])[H])C([H])([H])[H])C(C([H])([H])[H])(C([H])([H])[H])C([H])([H])[H])C([H])([H])c2c([H])c(OC([H])([H])C([H])([H])[N+]3([H])C([H])([H])C([H])([H])C([H])([H])C3([H])C([H])([H])C([H])([H])C(=O)N3C([H])([H])C([H])([H])C([H])([H])C([H])(n4nc(-c5c([H])c([H])c(Oc6c([H])c([H])c(F)c([H])c6F)c([H])c5[H])c(C(=O)N([H])[H])c4N([H])[H])C3([H])[H])c([H])c([H])c2C1([H])[H]

$$$$
4:0:0
     RDKit          3D

 99107  0  0  1  0  0  0  0  0999 V2000
  -27.2760  -21.7860   20.5790 C   0  0  0  0  0  2  0  0  0  0  0  0
  -27.2600  -20.4780   19.8690 N   0  0  1  0  0  4  0  0  0  0  0  0
  -26.5120  -19.9320   20.2740 H   0  0  0  0  0  0  0  0  0  0  0  0
  -25.3810  -20.7270   18.2380 C   0  0  0  0  0  1  0  0  0  0  0  0
  -26.9010  -20.6280   18.4310 C   0  0  0  0  0  2  0  0  0  0  0  0
  -28.5170  -19.7010   20.0850 C   0  0  0  0  0  2  0  0  0  0  0  0
  -28.2600  -18.1820   20.0420 C   0  0  0  0  0  2  0  0  0  0  0  0
  -29.4610  -17.2290   20.3170 C   0  0  0  0  0  2  0  0  0  0  0  0
  -33.0430  -18.3380   18.1540 C   0  0  0  0  0  2  0  0  0  0  0  0
  -31.8250  -18.2320   17.2270 C   0  0  0  0  0  2  0  0  0  0  0  0
  -33.2320  -17.0420   18.9580 C   0  0  0  0  0  2  0  0  0  0  0  0
  -30.5670  -17.6540   17.9190 C   0  0  0  0  0  2  0  0  0  0  0  0
  -32.0230  -16.6450   19.8700 C   0  0  0  0  0  3  0  0  0  0  0  0
  -30.7310  -17.4380   19.4580 C   0  0  0  0  0  3  0  0  0  0  0  0
  -32.1950  -15.1270   20.2520 C   0  0  0  0  0  0  0  0  0  0  0  0
  -31.6220  -13.0730   19.0810 C   0  0  0  0  0  2  0  0  0  0  0  0
  -30.7900  -13.4160   17.8330 C   0  0  0  0  0  2  0  0  0  0  0  0
  -29.2870  -13.4270   18.1770 C   0  0  0  0  0  2  0  0  0  0  0  0
  -28.9640  -14.2270   19.4700 C   0  0  0  0  0  3  0  0  0  0  0  0
  -29.9530  -13.9120   20.6090 C   0  0  0  0  0  2  0  0  0  0  0  0
  -31.3080  -14.1030   20.0800 N   0  0  0  0  0  0  0  0  0  0  0  0
  -33.3900  -14.8610   20.3280 O   0  0  0  0  0  0  0  0  0  0  0  0
  -26.5660  -15.0410   19.8960 C   0  0  0  0  0  0  0  0  0  0  0  0
  -25.4210  -14.3820   20.2430 C   0  0  0  0  0  0  0  0  0  0  0  0
  -25.7910  -13.0100   20.3680 C   0  0  0  0  0  0  0  0  0  0  0  0
  -27.5680  -14.0840   19.8600 N   0  0  0  0  0  0  0  0  0  0  0  0
  -27.0970  -12.8580   20.1950 N   0  0  0  0  0  0  0  0  0  0  0  0
  -24.9640  -11.8200   20.5850 C   0  0  0  0  0  0  0  0  0  0  0  0
  -25.2560  -10.9070   21.6170 C   0  0  0  0  0  3  0  0  0  0  0  0
  -24.4360   -9.7780   21.8220 C   0  0  0  0  0  3  0  0  0  0  0  0
  -23.3120   -9.5610   20.9920 C   0  0  0  0  0  0  0  0  0  0  0  0
  -23.0400  -10.4600   19.9460 C   0  0  0  0  0  3  0  0  0  0  0  0
  -23.8610  -11.5800   19.7390 C   0  0  0  0  0  3  0  0  0  0  0  0
  -22.4720   -8.4810   21.0980 O   0  0  0  0  0  0  0  0  0  0  0  0
  -22.2320   -7.8740   22.3050 C   0  0  0  0  0  0  0  0  0  0  0  0
  -21.7440   -8.5930   23.4180 C   0  0  0  0  0  3  0  0  0  0  0  0
  -21.4440   -7.9140   24.6160 C   0  0  0  0  0  3  0  0  0  0  0  0
  -21.6280   -6.5200   24.7010 C   0  0  0  0  0  0  0  0  0  0  0  0
  -22.1140   -5.8040   23.5920 C   0  0  0  0  0  3  0  0  0  0  0  0
  -22.4110   -6.4800   22.3970 C   0  0  0  0  0  0  0  0  0  0  0  0
  -22.8550   -5.7820   21.3250 F   0  0  0  0  0  0  0  0  0  0  0  0
  -21.3330   -5.8680   25.8490 F   0  0  0  0  0  0  0  0  0  0  0  0
  -24.0470  -14.9750   20.3420 C   0  0  0  0  0  0  0  0  0  0  0  0
  -23.2050  -14.4100   21.2010 N   0  0  0  0  0  0  0  0  0  0  0  0
  -23.7270  -15.9750   19.7040 O   0  0  0  0  0  0  0  0  0  0  0  0
  -23.4760  -13.5980   21.7300 H   0  0  0  0  0  0  0  0  0  0  0  0
  -22.2790  -14.7920   21.3270 H   0  0  0  0  0  0  0  0  0  0  0  0
  -26.8140  -16.3640   19.5800 N   0  0  0  0  0  0  0  0  0  0  0  0
  -26.0600  -17.0390   19.5190 H   0  0  0  0  0  0  0  0  0  0  0  0
  -27.6990  -16.7070   19.2320 H   0  0  0  0  0  0  0  0  0  0  0  0
  -27.5190  -21.6250   22.0970 C   0  0  0  0  0  2  0  0  0  0  0  0
  -28.0960  -22.8900   22.7750 C   0  0  0  0  0  2  0  0  0  0  0  0
  -30.5130  -22.5010   23.0840 C   0  0  0  0  0  1  0  0  0  0  0  0
  -29.4720  -23.2020   22.2920 N   0  0  2  0  0  4  0  0  0  0  0  0
  -29.5540  -22.8270   21.3600 H   0  0  0  0  0  0  0  0  0  0  0  0
  -29.7620  -24.6540   22.1270 C   0  0  0  0  0  2  0  0  0  0  0  0
  -28.9920  -25.2990   20.9490 C   0  0  0  0  0  2  0  0  0  0  0  0
  -29.3870  -26.7600   20.6610 C   0  0  0  0  0  2  0  0  0  0  0  0
  -28.7480  -27.1810   19.4560 O   0  0  0  0  0  0  0  0  0  0  0  0
  -24.5580  -31.6860   23.0540 C   0  0  0  0  0  0  0  0  0  0  0  0
  -27.5270  -27.7960   19.5910 C   0  0  0  0  0  0  0  0  0  0  0  0
  -23.4380  -30.3020   21.3330 C   0  0  0  0  0  3  0  0  0  0  0  0
  -24.9910  -29.0230   19.7630 C   0  0  0  0  0  0  0  0  0  0  0  0
  -25.9070  -30.9270   21.1020 C   0  0  0  0  0  2  0  0  0  0  0  0
  -26.1040  -29.6200   20.3690 C   0  0  0  0  0  0  0  0  0  0  0  0
  -27.3740  -29.0150   20.2870 C   0  0  0  0  0  3  0  0  0  0  0  0
  -26.4090  -27.2120   18.9660 C   0  0  0  0  0  3  0  0  0  0  0  0
  -25.1380  -27.8150   19.0560 C   0  0  0  0  0  3  0  0  0  0  0  0
  -23.6700  -29.7470   19.9000 C   0  0  0  0  0  2  0  0  0  0  0  0
  -24.6530  -30.9820   21.8910 N   0  0  0  0  0  0  0  0  0  0  0  0
  -23.4730  -31.8130   23.6380 O   0  0  0  0  0  0  0  0  0  0  0  0
  -22.9170  -29.1550   22.2270 C   0  0  0  0  0  0  0  0  0  0  0  0
  -21.6130  -28.8550   22.1140 N   0  0  0  0  0  0  0  0  0  0  0  0
  -23.6810  -28.5380   22.9750 O   0  0  0  0  0  0  0  0  0  0  0  0
  -21.0510  -29.4120   21.4840 H   0  0  0  0  0  0  0  0  0  0  0  0
  -18.3840  -27.3020   22.5760 C   0  0  0  0  0  0  0  0  0  0  0  0
  -20.9110  -27.7870   22.8240 C   0  0  0  0  0  3  0  0  0  0  0  0
  -21.1350  -26.4190   22.1390 C   0  0  0  0  0  2  0  0  0  0  0  0
  -20.0440  -26.0670   21.1210 C   0  0  0  0  0  2  0  0  0  0  0  0
  -18.6710  -26.0300   21.7970 C   0  0  0  0  0  2  0  0  0  0  0  0
  -19.4340  -28.1350   23.0450 C   0  0  0  0  0  0  0  0  0  0  0  0
  -19.1110  -29.3270   23.7290 C   0  0  0  0  0  3  0  0  0  0  0  0
  -17.7690  -29.6880   23.9510 C   0  0  0  0  0  3  0  0  0  0  0  0
  -16.7330  -28.8500   23.4990 C   0  0  0  0  0  3  0  0  0  0  0  0
  -17.0420  -27.6590   22.8190 C   0  0  0  0  0  3  0  0  0  0  0  0
  -25.8000  -32.3840   23.6930 C   0  0  0  0  0  3  0  0  0  0  0  0
  -25.4020  -33.7500   24.0570 N   0  0  0  0  0  0  0  0  0  0  0  0
  -25.6620  -34.8390   23.3210 C   0  0  0  0  0  0  0  0  0  0  0  0
  -26.3360  -34.8040   22.2870 O   0  0  0  0  0  0  0  0  0  0  0  0
  -24.8070  -33.8480   24.8660 H   0  0  0  0  0  0  0  0  0  0  0  0
  -23.8070  -36.5060   23.0160 C   0  0  0  0  0  1  0  0  0  0  0  0
  -25.0810  -36.1790   23.8090 C   0  0  0  0  0  3  0  0  0  0  0  0
  -27.1560  -37.1940   24.6400 C   0  0  0  0  0  1  0  0  0  0  0  0
  -26.0350  -37.3050   23.7110 N   0  0  0  0  0  0  0  0  0  0  0  0
  -25.5670  -38.1910   23.8830 H   0  0  0  0  0  0  0  0  0  0  0  0
  -26.3720  -31.6160   24.9480 C   0  0  1  0  0  0  0  0  0  0  0  0
  -25.3020  -31.2750   26.0110 C   0  0  0  0  0  1  0  0  0  0  0  0
  -27.0420  -30.2920   24.5130 C   0  0  0  0  0  1  0  0  0  0  0  0
  -27.4670  -32.4680   25.6310 C   0  0  0  0  0  1  0  0  0  0  0  0
  1 51  1  0
  2  6  1  0
  2  3  1  1
  2  1  1  0
  4  5  1  0
  5  2  1  0
  7  6  1  0
  7  8  1  0
  9 11  1  0
 10 12  1  0
 10  9  1  0
 11 13  1  0
 12 14  1  0
 13 15  1  0
 14 13  1  0
 14  8  1  0
 15 22  2  0
 16 21  1  0
 17 18  1  0
 17 16  1  0
 19 18  1  0
 19 26  1  0
 19 20  1  0
 21 15  1  0
 21 20  1  0
 23 24  2  0
 24 43  1  0
 24 25  1  0
 25 28  1  0
 26 23  1  0
 26 27  1  0
 27 25  2  0
 28 29  1  0
 29 30  2  0
 31 34  1  0
 31 30  1  0
 32 31  2  0
 33 32  1  0
 33 28  2  0
 34 35  1  0
 35 40  2  0
 35 36  1  0
 36 37  2  0
 37 38  1  0
 38 42  1  0
 39 38  2  0
 40 39  1  0
 41 40  1  0
 43 44  1  0
 44 47  1  0
 44 46  1  0
 45 43  2  0
 48 23  1  0
 49 48  1  0
 50 48  1  0
 51 52  1  0
 54 52  1  0
 54 53  1  0
 54 55  1  6
 56 54  1  0
 57 56  1  0
 58 57  1  0
 59 61  1  0
 59 58  1  0
 60 71  2  0
 61 66  1  0
 62 70  1  0
 62 72  1  0
 63 69  1  0
 63 65  1  0
 64 70  1  0
 65 64  1  0
 66 65  2  0
 67 68  1  0
 67 61  2  0
 68 63  2  0
 69 62  1  0
 70 60  1  0
 72 74  2  0
 73 72  1  0
 75 73  1  0
 76 85  2  0
 76 81  1  0
 77 73  1  0
 77 81  1  0
 78 77  1  0
 79 80  1  0
 79 78  1  0
 80 76  1  0
 81 82  2  0
 82 83  1  0
 84 83  2  0
 85 84  1  0
 86 60  1  0
 86 87  1  0
 86 96  1  0
 87 90  1  0
 88 92  1  0
 88 87  1  0
 89 88  2  0
 92 91  1  0
 94 92  1  0
 94 95  1  0
 94 93  1  0
 96 99  1  1
 96 97  1  0
 98 96  1  0
M  ISO  4  13 100  15 100  58 101  59 101
M  END
>  <TORSDO>  (5) 
F 28

>  <SCORE>  (5) 
-6.442

>  <name>  (5) 
4

>  <ligand_id>  (5) 
4

>  <original_smiles>  (5) 
[H]c1c([H])c([H])c2c(c1[H])C([H])([H])C([H])([H])C([H])([H])C2([H])N([H])C(=O)C1([H])N(C(=O)C([H])(N([H])C(=O)C([H])(N([H])C([H])([H])[H])C([H])([H])[H])C(C([H])([H])[H])(C([H])([H])[H])C([H])([H])[H])C([H])([H])c2c([H])c(OC([H])([H])C([H])([H])C([H])([H])[N+]([H])(C([H])([H])[H])C([H])([H])C([H])([H])C([H])([H])[N+]([H])(C([H])([H])C([H])([H])[H])C([H])([H])C([H])([H])C([H])([H])C3([H])C([H])([H])C([H])([H])C([H])([H])C([H])([H])C3([H])C(=O)N3C([H])([H])C([H])([H])C([H])([H])C([H])(n4nc(-c5c([H])c([H])c(Oc6c([H])c([H])c(F)c([H])c6F)c([H])c5[H])c(C(=O)N([H])[H])c4N([H])[H])C3([H])[H])c([H])c([H])c2C1([H])[H]

>  <smiles>  (5) 
[H]c1c([H])c([H])c2c(c1[H])C([H])([H])C([H])([H])C([H])([H])C2([H])N([H])C(=O)C1([H])N(C(=O)C([H])(N([H])C(=O)C([H])(N([H])C([H])([H])[H])C([H])([H])[H])C(C([H])([H])[H])(C([H])([H])[H])C([H])([H])[H])C([H])([H])c2c([H])c(OC([H])([H])C([H])([H])C([H])([H])[N+]([H])(C([H])([H])[H])C([H])([H])C([H])([H])C([H])([H])[N+]([H])(C([H])([H])C([H])([H])[H])C([H])([H])C([H])([H])C([H])([H])C3([H])C([H])([H])C([H])([H])C([H])([H])C([H])([H])C3([H])C(=O)N3C([H])([H])C([H])([H])C([H])([H])C([H])(n4nc(-c5c([H])c([H])c(Oc6c([H])c([H])c(F)c([H])c6F)c([H])c5[H])c(C(=O)N([H])[H])c4N([H])[H])C3([H])[H])c([H])c([H])c2C1([H])[H]

$$$$
5:0:0
     RDKit          3D

 93101  0  0  1  0  0  0  0  0999 V2000
  -30.3360  -17.1990   21.5260 C   0  0  0  0  0  3  0  0  0  0  0  0
  -30.0780  -18.6170   21.5520 C   0  0  0  0  0  3  0  0  0  0  0  0
  -30.1210  -17.2470   19.1820 C   0  0  0  0  0  3  0  0  0  0  0  0
  -30.3580  -16.4290   20.3330 C   0  0  0  0  0  0  0  0  0  0  0  0
  -29.8540  -18.6810   19.1970 C   0  0  0  0  0  0  0  0  0  0  0  0
  -29.8050  -19.4660   20.4140 C   0  0  0  0  0  0  0  0  0  0  0  0
  -30.9560  -14.9670   20.2460 C   0  0  0  0  0  0  0  0  0  0  0  0
  -30.6530  -12.6430   19.3590 C   0  0  0  0  0  2  0  0  0  0  0  0
  -29.7370  -12.6580   18.1160 C   0  0  0  0  0  2  0  0  0  0  0  0
  -28.2600  -12.5400   18.5310 C   0  0  0  0  0  2  0  0  0  0  0  0
  -27.8900  -13.4970   19.6940 C   0  0  0  0  0  3  0  0  0  0  0  0
  -28.9390  -13.5000   20.8250 C   0  0  0  0  0  2  0  0  0  0  0  0
  -30.2450  -13.7800   20.2270 N   0  0  0  0  0  0  0  0  0  0  0  0
  -32.1570  -14.9230   19.9660 O   0  0  0  0  0  0  0  0  0  0  0  0
  -25.5230  -14.1530   20.4120 C   0  0  0  0  0  0  0  0  0  0  0  0
  -24.4330  -13.4130   20.7830 C   0  0  0  0  0  0  0  0  0  0  0  0
  -24.8590  -12.0490   20.7780 C   0  0  0  0  0  0  0  0  0  0  0  0
  -26.5430  -13.2430   20.1930 N   0  0  0  0  0  0  0  0  0  0  0  0
  -26.1510  -11.9720   20.4770 N   0  0  0  0  0  0  0  0  0  0  0  0
  -24.0920  -10.8120   20.9830 C   0  0  0  0  0  0  0  0  0  0  0  0
  -24.4840   -9.8480   21.9380 C   0  0  0  0  0  3  0  0  0  0  0  0
  -23.7170   -8.6780   22.1310 C   0  0  0  0  0  3  0  0  0  0  0  0
  -22.5440   -8.4650   21.3690 C   0  0  0  0  0  0  0  0  0  0  0  0
  -22.1720   -9.4160   20.4040 C   0  0  0  0  0  3  0  0  0  0  0  0
  -22.9380  -10.5760   20.2080 C   0  0  0  0  0  3  0  0  0  0  0  0
  -21.7500   -7.3470   21.4700 O   0  0  0  0  0  0  0  0  0  0  0  0
  -21.6820   -6.6140   22.6280 C   0  0  0  0  0  0  0  0  0  0  0  0
  -21.2560   -7.1870   23.8470 C   0  0  0  0  0  3  0  0  0  0  0  0
  -21.1330   -6.3820   24.9980 C   0  0  0  0  0  3  0  0  0  0  0  0
  -21.4260   -5.0070   24.9300 C   0  0  0  0  0  0  0  0  0  0  0  0
  -21.8460   -4.4350   23.7160 C   0  0  0  0  0  3  0  0  0  0  0  0
  -21.9700   -5.2360   22.5690 C   0  0  0  0  0  0  0  0  0  0  0  0
  -22.3530   -4.6750   21.3960 F   0  0  0  0  0  0  0  0  0  0  0  0
  -21.3020   -4.2320   26.0330 F   0  0  0  0  0  0  0  0  0  0  0  0
  -23.0500  -13.9380   21.0360 C   0  0  0  0  0  0  0  0  0  0  0  0
  -22.2980  -13.2810   21.9120 N   0  0  0  0  0  0  0  0  0  0  0  0
  -22.6450  -14.9620   20.4910 O   0  0  0  0  0  0  0  0  0  0  0  0
  -22.6440  -12.4540   22.3760 H   0  0  0  0  0  0  0  0  0  0  0  0
  -21.3670  -13.6120   22.1200 H   0  0  0  0  0  0  0  0  0  0  0  0
  -25.7310  -15.5140   20.2210 N   0  0  0  0  0  0  0  0  0  0  0  0
  -24.9960  -16.2000   20.3520 H   0  0  0  0  0  0  0  0  0  0  0  0
  -26.6220  -15.9300   19.9820 H   0  0  0  0  0  0  0  0  0  0  0  0
  -29.0060  -21.1530   21.9810 C   0  0  0  0  0  1  0  0  0  0  0  0
  -29.5060  -20.9180   20.6200 N   0  0  0  0  0  0  0  0  0  0  0  0
  -29.1520  -22.1170   19.7060 C   0  0  0  0  0  2  0  0  0  0  0  0
  -29.3290  -23.6960   20.2160 C   0  0  0  0  0  3  0  0  0  0  0  0
  -28.4190  -24.9410   19.6270 C   0  0  0  0  0  3  0  0  0  0  0  0
  -28.5410  -26.4230   20.0020 O   0  0  0  0  0  0  0  0  0  0  0  0
  -24.5180  -31.7420   23.0070 C   0  0  0  0  0  0  0  0  0  0  0  0
  -27.4240  -27.3110   19.9130 C   0  0  0  0  0  0  0  0  0  0  0  0
  -23.4350  -30.3490   21.2820 C   0  0  0  0  0  3  0  0  0  0  0  0
  -25.0040  -28.9000   19.8540 C   0  0  0  0  0  0  0  0  0  0  0  0
  -25.9730  -30.7450   21.2150 C   0  0  0  0  0  2  0  0  0  0  0  0
  -26.1310  -29.3860   20.5290 C   0  0  0  0  0  0  0  0  0  0  0  0
  -27.3360  -28.6010   20.5580 C   0  0  0  0  0  3  0  0  0  0  0  0
  -26.2740  -26.9190   19.1890 C   0  0  0  0  0  3  0  0  0  0  0  0
  -25.0850  -27.6750   19.1740 C   0  0  0  0  0  3  0  0  0  0  0  0
  -23.7300  -29.7280   19.8890 C   0  0  0  0  0  2  0  0  0  0  0  0
  -24.6590  -30.9640   21.8910 N   0  0  0  0  0  0  0  0  0  0  0  0
  -23.4050  -31.9600   23.5070 O   0  0  0  0  0  0  0  0  0  0  0  0
  -22.7830  -29.2760   22.1870 C   0  0  0  0  0  0  0  0  0  0  0  0
  -21.4550  -29.1030   22.0670 N   0  0  0  0  0  0  0  0  0  0  0  0
  -23.4700  -28.6050   22.9610 O   0  0  0  0  0  0  0  0  0  0  0  0
  -20.9530  -29.7050   21.4270 H   0  0  0  0  0  0  0  0  0  0  0  0
  -18.0810  -27.9200   22.6050 C   0  0  0  0  0  0  0  0  0  0  0  0
  -20.6510  -28.1150   22.7880 C   0  0  0  0  0  3  0  0  0  0  0  0
  -20.7040  -26.7360   22.0910 C   0  0  0  0  0  2  0  0  0  0  0  0
  -19.5570  -26.5140   21.1000 C   0  0  0  0  0  2  0  0  0  0  0  0
  -18.2030  -26.6330   21.8030 C   0  0  0  0  0  2  0  0  0  0  0  0
  -19.2310  -28.6220   23.0530 C   0  0  0  0  0  0  0  0  0  0  0  0
  -19.0620  -29.8270   23.7720 C   0  0  0  0  0  3  0  0  0  0  0  0
  -17.7750  -30.3310   24.0370 C   0  0  0  0  0  3  0  0  0  0  0  0
  -16.6410  -29.6250   23.6020 C   0  0  0  0  0  3  0  0  0  0  0  0
  -16.7920  -28.4200   22.8920 C   0  0  0  0  0  3  0  0  0  0  0  0
  -25.7480  -32.4120   23.6930 C   0  0  0  0  0  3  0  0  0  0  0  0
  -25.3700  -33.7920   24.0320 N   0  0  0  0  0  0  0  0  0  0  0  0
  -25.6940  -34.8740   23.3120 C   0  0  0  0  0  0  0  0  0  0  0  0
  -26.4130  -34.8180   22.3100 O   0  0  0  0  0  0  0  0  0  0  0  0
  -24.7350  -33.9080   24.8080 H   0  0  0  0  0  0  0  0  0  0  0  0
  -23.9260  -36.6200   22.9090 C   0  0  0  0  0  1  0  0  0  0  0  0
  -25.1360  -36.2340   23.7770 C   0  0  0  0  0  3  0  0  0  0  0  0
  -27.1840  -37.1780   24.7510 C   0  0  0  0  0  1  0  0  0  0  0  0
  -26.1360  -37.3240   23.7450 N   0  0  0  0  0  0  0  0  0  0  0  0
  -25.6900  -38.2270   23.8770 H   0  0  0  0  0  0  0  0  0  0  0  0
  -26.2360  -31.6400   24.9810 C   0  0  1  0  0  0  0  0  0  0  0  0
  -25.1060  -31.3540   25.9980 C   0  0  0  0  0  1  0  0  0  0  0  0
  -26.8820  -30.2860   24.6040 C   0  0  0  0  0  1  0  0  0  0  0  0
  -27.3320  -32.4610   25.7000 C   0  0  0  0  0  1  0  0  0  0  0  0
  -29.6490  -19.3090   17.8250 C   0  0  0  0  0  2  0  0  0  0  0  0
  -28.2260  -19.3620   17.4630 N   0  0  0  0  0  4  0  0  0  0  0  0
  -27.6950  -19.8740   18.1440 H   0  0  0  0  0  0  0  0  0  0  0  0
  -27.8520  -18.4340   17.3920 H   0  0  0  0  0  0  0  0  0  0  0  0
  -28.1270  -19.8080   16.5700 H   0  0  0  0  0  0  0  0  0  0  0  0
  1  2  1  0
  3  5  2  0
  3  4  1  0
  4  1  2  0
  5  6  1  0
  6 44  1  0
  6  2  2  0
  7  4  1  0
  8 13  1  0
  9 10  1  0
  9  8  1  0
 11 10  1  0
 11 18  1  0
 11 12  1  0
 13  7  1  0
 13 12  1  0
 14  7  2  0
 15 16  2  0
 16 35  1  0
 17 16  1  0
 17 20  1  0
 18 15  1  0
 18 19  1  0
 19 17  2  0
 20 21  1  0
 21 22  2  0
 23 26  1  0
 23 22  1  0
 24 23  2  0
 25 24  1  0
 25 20  2  0
 26 27  1  0
 27 28  1  0
 28 29  2  0
 30 29  1  0
 30 34  1  0
 31 30  2  0
 32 27  2  0
 32 31  1  0
 33 32  1  0
 35 36  1  0
 36 39  1  0
 36 38  1  0
 37 35  2  0
 40 41  1  0
 40 15  1  0
 42 40  1  0
 44 43  1  0
 45 46  1  0
 45 44  1  0
 47 48  1  0
 47 46  2  0
 49 60  2  0
 50 48  1  0
 50 55  1  0
 51 59  1  0
 51 61  1  0
 52 58  1  0
 52 54  1  0
 53 59  1  0
 54 55  2  0
 54 53  1  0
 56 50  2  0
 57 56  1  0
 57 52  2  0
 58 51  1  0
 59 49  1  0
 61 63  2  0
 62 61  1  0
 64 62  1  0
 65 74  2  0
 65 70  1  0
 66 62  1  0
 66 70  1  0
 67 66  1  0
 68 69  1  0
 68 67  1  0
 69 65  1  0
 70 71  2  0
 71 72  1  0
 73 72  2  0
 74 73  1  0
 75 49  1  0
 75 76  1  0
 75 85  1  0
 76 79  1  0
 77 81  1  0
 77 76  1  0
 78 77  2  0
 81 80  1  0
 83 81  1  0
 83 84  1  0
 83 82  1  0
 85 88  1  1
 85 86  1  0
 87 85  1  0
 89  5  1  0
 90 89  1  0
 90 91  1  0
 92 90  1  0
 93 90  1  0
M  ISO  4   4 100   7 100  47 101  48 101
M  END
>  <TORSDO>  (6) 
F 22

>  <SCORE>  (6) 
-12.711

>  <name>  (6) 
5

>  <ligand_id>  (6) 
5

>  <original_smiles>  (6) 
[H]c1c([H])c([H])c2c(c1[H])C([H])([H])C([H])([H])C([H])([H])C2([H])N([H])C(=O)C1([H])N(C(=O)C([H])(N([H])C(=O)C([H])(N([H])C([H])([H])[H])C([H])([H])[H])C(C([H])([H])[H])(C([H])([H])[H])C([H])([H])[H])C([H])([H])c2c([H])c(OC([H])([H])C([H])([H])C([H])([H])N(c3c([H])c([H])c(C(=O)N4C([H])([H])C([H])([H])C([H])([H])C([H])(n5nc(-c6c([H])c([H])c(Oc7c([H])c([H])c(F)c([H])c7F)c([H])c6[H])c(C(=O)N([H])[H])c5N([H])[H])C4([H])[H])c([H])c3C([H])([H])[N+]([H])([H])[H])C([H])([H])[H])c([H])c([H])c2C1([H])[H]

>  <smiles>  (6) 
[H]c1c([H])c([H])c2c(c1[H])C([H])([H])C([H])([H])C([H])([H])C2([H])N([H])C(=O)C1([H])N(C(=O)C([H])(N([H])C(=O)C([H])(N([H])C([H])([H])[H])C([H])([H])[H])C(C([H])([H])[H])(C([H])([H])[H])C([H])([H])[H])C([H])([H])c2c([H])c(OC([H])([H])C([H])([H])C([H])([H])N(c3c([H])c([H])c(C(=O)N4C([H])([H])C([H])([H])C([H])([H])C([H])(n5nc(-c6c([H])c([H])c(Oc7c([H])c([H])c(F)c([H])c7F)c([H])c6[H])c(C(=O)N([H])[H])c5N([H])[H])C4([H])[H])c([H])c3C([H])([H])[N+]([H])([H])[H])C([H])([H])[H])c([H])c([H])c2C1([H])[H]

$$$$
6:0:0
     RDKit          3D

 94102  0  0  1  0  0  0  0  0999 V2000
  -27.4350  -22.3580   24.7450 C   0  0  0  0  0  2  0  0  0  0  0  0
  -27.2040  -21.0910   23.9410 C   0  0  0  0  0  2  0  0  0  0  0  0
  -29.5010  -21.5420   23.8070 C   0  0  0  0  0  2  0  0  0  0  0  0
  -28.8110  -22.8430   24.2720 C   0  0  2  0  0  0  0  0  0  0  0  0
  -29.5700  -23.5310   25.4220 C   0  0  0  0  0  1  0  0  0  0  0  0
  -28.5200  -20.4590   23.9470 N   0  0  0  0  0  0  0  0  0  0  0  0
  -28.6400  -23.8080   23.0750 C   0  0  0  0  0  2  0  0  0  0  0  0
  -29.9370  -24.4960   22.5860 C   0  0  0  0  0  2  0  0  0  0  0  0
  -29.7690  -25.2060   21.2330 C   0  0  0  0  0  2  0  0  0  0  0  0
  -28.8390  -26.4170   21.3250 C   0  0  0  0  0  2  0  0  0  0  0  0
  -28.3930  -26.7620   20.0260 O   0  0  0  0  0  0  0  0  0  0  0  0
  -24.6060  -31.8720   23.2120 C   0  0  0  0  0  0  0  0  0  0  0  0
  -27.2440  -27.5010   20.0580 C   0  0  0  0  0  0  0  0  0  0  0  0
  -23.3930  -30.4920   21.5540 C   0  0  0  0  0  3  0  0  0  0  0  0
  -24.8400  -28.9660   20.1120 C   0  0  0  0  0  0  0  0  0  0  0  0
  -25.9180  -30.8510   21.3630 C   0  0  0  0  0  2  0  0  0  0  0  0
  -25.9950  -29.4920   20.7040 C   0  0  0  0  0  0  0  0  0  0  0  0
  -27.1980  -28.7650   20.6850 C   0  0  0  0  0  3  0  0  0  0  0  0
  -26.0820  -26.9750   19.4660 C   0  0  0  0  0  3  0  0  0  0  0  0
  -24.8750  -27.7010   19.4970 C   0  0  0  0  0  3  0  0  0  0  0  0
  -23.5930  -29.8190   20.1690 C   0  0  0  0  0  2  0  0  0  0  0  0
  -24.6570  -31.0860   22.0990 N   0  0  0  0  0  0  0  0  0  0  0  0
  -23.5270  -32.1440   23.7540 O   0  0  0  0  0  0  0  0  0  0  0  0
  -22.7370  -29.4640   22.5020 C   0  0  0  0  0  0  0  0  0  0  0  0
  -21.4100  -29.3010   22.3780 N   0  0  0  0  0  0  0  0  0  0  0  0
  -23.4190  -28.8140   23.3000 O   0  0  0  0  0  0  0  0  0  0  0  0
  -20.9230  -29.8700   21.6990 H   0  0  0  0  0  0  0  0  0  0  0  0
  -18.0240  -28.1360   22.8490 C   0  0  0  0  0  0  0  0  0  0  0  0
  -20.5820  -28.3620   23.1360 C   0  0  0  0  0  3  0  0  0  0  0  0
  -20.6740  -26.9360   22.5450 C   0  0  0  0  0  2  0  0  0  0  0  0
  -19.5730  -26.6390   21.5220 C   0  0  0  0  0  2  0  0  0  0  0  0
  -18.1900  -26.7920   22.1620 C   0  0  0  0  0  2  0  0  0  0  0  0
  -19.1500  -28.8810   23.2920 C   0  0  0  0  0  0  0  0  0  0  0  0
  -18.9420  -30.1430   23.8920 C   0  0  0  0  0  3  0  0  0  0  0  0
  -17.6420  -30.6570   24.0570 C   0  0  0  0  0  3  0  0  0  0  0  0
  -16.5310  -29.9080   23.6330 C   0  0  0  0  0  3  0  0  0  0  0  0
  -16.7230  -28.6490   23.0350 C   0  0  0  0  0  3  0  0  0  0  0  0
  -25.8950  -32.4850   23.8420 C   0  0  0  0  0  3  0  0  0  0  0  0
  -26.4390  -31.6620   25.0740 C   0  0  1  0  0  0  0  0  0  0  0  0
  -25.3660  -31.3720   26.1510 C   0  0  0  0  0  1  0  0  0  0  0  0
  -27.0200  -30.3070   24.6110 C   0  0  0  0  0  1  0  0  0  0  0  0
  -27.5980  -32.4340   25.7470 C   0  0  0  0  0  1  0  0  0  0  0  0
  -25.5800  -33.8660   24.2280 N   0  0  0  0  0  0  0  0  0  0  0  0
  -25.9050  -34.9520   23.5100 C   0  0  0  0  0  0  0  0  0  0  0  0
  -26.5730  -34.8910   22.4750 O   0  0  0  0  0  0  0  0  0  0  0  0
  -24.9740  -33.9850   25.0250 H   0  0  0  0  0  0  0  0  0  0  0  0
  -24.1510  -36.7370   23.2630 C   0  0  0  0  0  1  0  0  0  0  0  0
  -25.4140  -36.3160   24.0300 C   0  0  0  0  0  3  0  0  0  0  0  0
  -27.5600  -37.1840   24.8420 C   0  0  0  0  0  1  0  0  0  0  0  0
  -26.4330  -37.3860   23.9360 N   0  0  0  0  0  0  0  0  0  0  0  0
  -26.0230  -38.2940   24.1430 H   0  0  0  0  0  0  0  0  0  0  0  0
  -28.5800  -19.4740   22.8650 C   0  0  0  0  0  2  0  0  0  0  0  0
  -29.9110  -18.6950   22.7840 C   0  0  0  0  0  2  0  0  0  0  0  0
  -30.4180  -18.9680   20.3640 C   0  0  0  0  0  1  0  0  0  0  0  0
  -30.0560  -18.0320   21.4620 N   0  0  1  0  0  4  0  0  0  0  0  0
  -29.1360  -17.6920   21.2330 H   0  0  0  0  0  0  0  0  0  0  0  0
  -30.9260  -16.8250   21.4820 C   0  0  0  0  0  2  0  0  0  0  0  0
  -30.0940  -15.5150   21.4570 C   0  0  0  0  0  2  0  0  0  0  0  0
  -30.7340  -14.3780   20.6340 C   0  0  0  0  0  0  0  0  0  0  0  0
  -30.4100  -12.2620   19.3990 C   0  0  0  0  0  2  0  0  0  0  0  0
  -29.4880  -12.5080   18.1890 C   0  0  0  0  0  2  0  0  0  0  0  0
  -28.0080  -12.3790   18.6010 C   0  0  0  0  0  2  0  0  0  0  0  0
  -27.6630  -13.1990   19.8720 C   0  0  0  0  0  3  0  0  0  0  0  0
  -28.7030  -12.9410   20.9850 C   0  0  0  0  0  2  0  0  0  0  0  0
  -30.0390  -13.2270   20.4440 N   0  0  0  0  0  0  0  0  0  0  0  0
  -31.8260  -14.5730   20.0940 O   0  0  0  0  0  0  0  0  0  0  0  0
  -25.2590  -13.8120   20.5640 C   0  0  0  0  0  0  0  0  0  0  0  0
  -24.1830  -13.0400   20.9140 C   0  0  0  0  0  0  0  0  0  0  0  0
  -24.6370  -11.6870   20.8680 C   0  0  0  0  0  0  0  0  0  0  0  0
  -26.3020  -12.9270   20.3320 N   0  0  0  0  0  0  0  0  0  0  0  0
  -25.9300  -11.6440   20.5710 N   0  0  0  0  0  0  0  0  0  0  0  0
  -23.9030  -10.4270   21.0380 C   0  0  0  0  0  0  0  0  0  0  0  0
  -24.3580   -9.4190   21.9170 C   0  0  0  0  0  3  0  0  0  0  0  0
  -23.6250   -8.2230   22.0750 C   0  0  0  0  0  3  0  0  0  0  0  0
  -22.4240   -8.0270   21.3550 C   0  0  0  0  0  0  0  0  0  0  0  0
  -21.9860   -9.0240   20.4650 C   0  0  0  0  0  3  0  0  0  0  0  0
  -22.7180  -10.2110   20.3050 C   0  0  0  0  0  3  0  0  0  0  0  0
  -21.6630   -6.8840   21.4220 O   0  0  0  0  0  0  0  0  0  0  0  0
  -21.6860   -6.0700   22.5260 C   0  0  0  0  0  0  0  0  0  0  0  0
  -21.4020   -6.5620   23.8200 C   0  0  0  0  0  3  0  0  0  0  0  0
  -21.3670   -5.6780   24.9160 C   0  0  0  0  0  3  0  0  0  0  0  0
  -21.6050   -4.3040   24.7220 C   0  0  0  0  0  0  0  0  0  0  0  0
  -21.8820   -3.8120   23.4350 C   0  0  0  0  0  3  0  0  0  0  0  0
  -21.9190   -4.6930   22.3390 C   0  0  0  0  0  0  0  0  0  0  0  0
  -22.1650   -4.2110   21.0980 F   0  0  0  0  0  0  0  0  0  0  0  0
  -21.5630   -3.4540   25.7740 F   0  0  0  0  0  0  0  0  0  0  0  0
  -22.7860  -13.5230   21.1830 C   0  0  0  0  0  0  0  0  0  0  0  0
  -22.0510  -12.8250   22.0400 N   0  0  0  0  0  0  0  0  0  0  0  0
  -22.3560  -14.5550   20.6690 O   0  0  0  0  0  0  0  0  0  0  0  0
  -22.4120  -11.9920   22.4790 H   0  0  0  0  0  0  0  0  0  0  0  0
  -21.1140  -13.1320   22.2650 H   0  0  0  0  0  0  0  0  0  0  0  0
  -25.4290  -15.1840   20.4040 N   0  0  0  0  0  0  0  0  0  0  0  0
  -24.6550  -15.8320   20.5060 H   0  0  0  0  0  0  0  0  0  0  0  0
  -26.2750  -15.6230   20.0630 H   0  0  0  0  0  0  0  0  0  0  0  0
  2  6  1  0
  2  1  1  0
  3  6  1  0
  3  4  1  0
  4  1  1  0
  4  5  1  1
  7  4  1  0
  8  7  1  0
  9 10  1  0
  9  8  1  0
 11 13  1  0
 11 10  1  0
 12 23  2  0
 13 18  1  0
 14 22  1  0
 14 24  1  0
 15 21  1  0
 15 17  1  0
 16 22  1  0
 17 16  1  0
 18 17  2  0
 19 20  1  0
 19 13  2  0
 20 15  2  0
 21 14  1  0
 22 12  1  0
 24 26  2  0
 25 24  1  0
 27 25  1  0
 28 37  2  0
 28 33  1  0
 29 25  1  0
 29 33  1  0
 30 29  1  0
 31 32  1  0
 31 30  1  0
 32 28  1  0
 33 34  2  0
 34 35  1  0
 36 35  2  0
 37 36  1  0
 38 12  1  0
 38 43  1  0
 38 39  1  0
 39 42  1  1
 39 40  1  0
 41 39  1  0
 43 46  1  0
 44 48  1  0
 44 43  1  0
 45 44  2  0
 48 47  1  0
 50 48  1  0
 50 51  1  0
 50 49  1  0
 52  6  1  0
 53 52  1  0
 54 55  1  0
 55 57  1  0
 55 53  1  0
 55 56  1  6
 58 57  1  0
 59 58  1  0
 60 65  1  0
 61 62  1  0
 61 60  1  0
 63 62  1  0
 63 70  1  0
 63 64  1  0
 65 59  1  0
 65 64  1  0
 66 59  2  0
 67 68  2  0
 68 87  1  0
 69 68  1  0
 69 72  1  0
 70 67  1  0
 70 71  1  0
 71 69  2  0
 72 73  1  0
 73 74  2  0
 75 78  1  0
 75 74  1  0
 76 75  2  0
 77 76  1  0
 77 72  2  0
 78 79  1  0
 79 80  1  0
 80 81  2  0
 82 81  1  0
 82 86  1  0
 83 82  2  0
 84 79  2  0
 84 83  1  0
 85 84  1  0
 87 88  1  0
 88 91  1  0
 88 90  1  0
 89 87  2  0
 92 93  1  0
 92 67  1  0
 94 92  1  0
M  ISO  4  10 101  11 101  58 100  59 100
M  END
>  <TORSDO>  (7) 
F 25

>  <SCORE>  (7) 
14.108

>  <name>  (7) 
6

>  <ligand_id>  (7) 
6

>  <original_smiles>  (7) 
[H]c1c([H])c([H])c2c(c1[H])C([H])([H])C([H])([H])C([H])([H])C2([H])N([H])C(=O)C1([H])N(C(=O)C([H])(N([H])C(=O)C([H])(N([H])C([H])([H])[H])C([H])([H])[H])C(C([H])([H])[H])(C([H])([H])[H])C([H])([H])[H])C([H])([H])c2c([H])c(OC([H])([H])C([H])([H])C([H])([H])C([H])([H])C3(C([H])([H])[H])C([H])([H])N(C([H])([H])C([H])([H])[N+]([H])(C([H])([H])[H])C([H])([H])C([H])([H])C(=O)N4C([H])([H])C([H])([H])C([H])([H])C([H])(n5nc(-c6c([H])c([H])c(Oc7c([H])c([H])c(F)c([H])c7F)c([H])c6[H])c(C(=O)N([H])[H])c5N([H])[H])C4([H])[H])C([H])([H])C3([H])[H])c([H])c([H])c2C1([H])[H]

>  <smiles>  (7) 
[H]c1c([H])c([H])c2c(c1[H])C([H])([H])C([H])([H])C([H])([H])C2([H])N([H])C(=O)C1([H])N(C(=O)C([H])(N([H])C(=O)C([H])(N([H])C([H])([H])[H])C([H])([H])[H])C(C([H])([H])[H])(C([H])([H])[H])C([H])([H])[H])C([H])([H])c2c([H])c(OC([H])([H])C([H])([H])C([H])([H])C([H])([H])C3(C([H])([H])[H])C([H])([H])N(C([H])([H])C([H])([H])[N+]([H])(C([H])([H])[H])C([H])([H])C([H])([H])C(=O)N4C([H])([H])C([H])([H])C([H])([H])C([H])(n5nc(-c6c([H])c([H])c(Oc7c([H])c([H])c(F)c([H])c7F)c([H])c6[H])c(C(=O)N([H])[H])c5N([H])[H])C4([H])[H])C([H])([H])C3([H])[H])c([H])c([H])c2C1([H])[H]

$$$$
7:0:0
     RDKit          3D

 93101  0  0  1  0  0  0  0  0999 V2000
  -27.9800  -20.3980   19.2150 C   0  0  0  0  0  2  0  0  0  0  0  0
  -28.9120  -19.4290   18.4650 C   0  0  0  0  0  2  0  0  0  0  0  0
  -28.4450  -21.8650   19.0790 C   0  0  0  0  0  2  0  0  0  0  0  0
  -30.7770  -21.1170   18.8080 C   0  0  0  0  0  2  0  0  0  0  0  0
  -30.3790  -19.6170   18.8970 C   0  0  0  0  0  3  0  0  0  0  0  0
  -29.8510  -22.0520   19.5260 N   0  0  1  0  0  4  0  0  0  0  0  0
  -29.8870  -21.7790   20.5000 H   0  0  0  0  0  0  0  0  0  0  0  0
  -30.6510  -18.9750   20.2700 C   0  0  0  0  0  0  0  0  0  0  0  0
  -30.9460  -17.6650   20.2870 N   0  0  0  0  0  0  0  0  0  0  0  0
  -30.5610  -19.6580   21.2920 O   0  0  0  0  0  0  0  0  0  0  0  0
  -31.0680  -17.2100   19.3910 H   0  0  0  0  0  0  0  0  0  0  0  0
  -31.1050  -16.8180   21.4780 C   0  0  0  0  0  2  0  0  0  0  0  0
  -30.2400  -15.5280   21.4330 C   0  0  0  0  0  2  0  0  0  0  0  0
  -30.7490  -14.4240   20.4870 C   0  0  0  0  0  0  0  0  0  0  0  0
  -30.3470  -12.3350   19.2310 C   0  0  0  0  0  2  0  0  0  0  0  0
  -29.3970  -12.5790   18.0450 C   0  0  0  0  0  2  0  0  0  0  0  0
  -27.9310  -12.4500   18.4950 C   0  0  0  0  0  2  0  0  0  0  0  0
  -27.6200  -13.2770   19.7680 C   0  0  0  0  0  3  0  0  0  0  0  0
  -28.6830  -13.0340   20.8650 C   0  0  0  0  0  2  0  0  0  0  0  0
  -30.0120  -13.2990   20.2890 N   0  0  0  0  0  0  0  0  0  0  0  0
  -31.8110  -14.6210   19.8890 O   0  0  0  0  0  0  0  0  0  0  0  0
  -25.2230  -13.8980   20.4750 C   0  0  0  0  0  0  0  0  0  0  0  0
  -24.1480  -13.1340   20.8470 C   0  0  0  0  0  0  0  0  0  0  0  0
  -24.6030  -11.7810   20.8280 C   0  0  0  0  0  0  0  0  0  0  0  0
  -26.2640  -13.0120   20.2520 N   0  0  0  0  0  0  0  0  0  0  0  0
  -25.8940  -11.7330   20.5210 N   0  0  0  0  0  0  0  0  0  0  0  0
  -23.8710  -10.5240   21.0240 C   0  0  0  0  0  0  0  0  0  0  0  0
  -24.3060   -9.5550   21.9540 C   0  0  0  0  0  3  0  0  0  0  0  0
  -23.5760   -8.3610   22.1390 C   0  0  0  0  0  3  0  0  0  0  0  0
  -22.3970   -8.1280   21.3930 C   0  0  0  0  0  0  0  0  0  0  0  0
  -21.9820   -9.0850   20.4490 C   0  0  0  0  0  3  0  0  0  0  0  0
  -22.7120  -10.2700   20.2640 C   0  0  0  0  0  3  0  0  0  0  0  0
  -21.6410   -6.9850   21.4850 O   0  0  0  0  0  0  0  0  0  0  0  0
  -21.6000   -6.2390   22.6360 C   0  0  0  0  0  0  0  0  0  0  0  0
  -21.2040   -6.7970   23.8720 C   0  0  0  0  0  3  0  0  0  0  0  0
  -21.1140   -5.9820   25.0170 C   0  0  0  0  0  3  0  0  0  0  0  0
  -21.4070   -4.6080   24.9270 C   0  0  0  0  0  0  0  0  0  0  0  0
  -21.7960   -4.0480   23.6980 C   0  0  0  0  0  3  0  0  0  0  0  0
  -21.8890   -4.8620   22.5540 C   0  0  0  0  0  0  0  0  0  0  0  0
  -22.2440   -4.3140   21.3680 F   0  0  0  0  0  0  0  0  0  0  0  0
  -21.3140   -3.8230   26.0250 F   0  0  0  0  0  0  0  0  0  0  0  0
  -22.7550  -13.6210   21.1200 C   0  0  0  0  0  0  0  0  0  0  0  0
  -22.0280  -12.9270   21.9920 N   0  0  0  0  0  0  0  0  0  0  0  0
  -22.3190  -14.6450   20.5960 O   0  0  0  0  0  0  0  0  0  0  0  0
  -22.3950  -12.0990   22.4340 H   0  0  0  0  0  0  0  0  0  0  0  0
  -21.0900  -13.2280   22.2170 H   0  0  0  0  0  0  0  0  0  0  0  0
  -25.3990  -15.2650   20.2870 N   0  0  0  0  0  0  0  0  0  0  0  0
  -24.6440  -15.9340   20.3950 H   0  0  0  0  0  0  0  0  0  0  0  0
  -26.2620  -15.6890   19.9710 H   0  0  0  0  0  0  0  0  0  0  0  0
  -30.3510  -23.4640   19.4430 C   0  0  0  0  0  2  0  0  0  0  0  0
  -29.5920  -24.5680   20.2480 C   0  0  0  0  0  2  0  0  0  0  0  0
  -28.5530  -25.4370   19.4830 C   0  0  0  0  0  2  0  0  0  0  0  0
  -28.3920  -26.7140   20.1420 O   0  0  0  0  0  0  0  0  0  0  0  0
  -24.5680  -31.8840   23.2360 C   0  0  0  0  0  0  0  0  0  0  0  0
  -27.1950  -27.4190   20.1160 C   0  0  0  0  0  0  0  0  0  0  0  0
  -23.3520  -30.4890   21.5990 C   0  0  0  0  0  3  0  0  0  0  0  0
  -24.7940  -28.9440   20.1660 C   0  0  0  0  0  0  0  0  0  0  0  0
  -25.8850  -30.8230   21.4050 C   0  0  0  0  0  2  0  0  0  0  0  0
  -25.9580  -29.4550   20.7520 C   0  0  0  0  0  0  0  0  0  0  0  0
  -27.1540  -28.6970   20.7290 C   0  0  0  0  0  3  0  0  0  0  0  0
  -26.0070  -26.9310   19.5200 C   0  0  0  0  0  3  0  0  0  0  0  0
  -24.8130  -27.6780   19.5570 C   0  0  0  0  0  3  0  0  0  0  0  0
  -23.5560  -29.8100   20.2190 C   0  0  0  0  0  2  0  0  0  0  0  0
  -24.6190  -31.0820   22.1370 N   0  0  0  0  0  0  0  0  0  0  0  0
  -23.4880  -32.1640   23.7760 O   0  0  0  0  0  0  0  0  0  0  0  0
  -22.6980  -29.4690   22.5600 C   0  0  0  0  0  0  0  0  0  0  0  0
  -21.3720  -29.2940   22.4350 N   0  0  0  0  0  0  0  0  0  0  0  0
  -23.3800  -28.8400   23.3730 O   0  0  0  0  0  0  0  0  0  0  0  0
  -20.8840  -29.8510   21.7480 H   0  0  0  0  0  0  0  0  0  0  0  0
  -17.9940  -28.1230   22.9470 C   0  0  0  0  0  0  0  0  0  0  0  0
  -20.5540  -28.3610   23.2070 C   0  0  0  0  0  3  0  0  0  0  0  0
  -20.6440  -26.9320   22.6270 C   0  0  0  0  0  2  0  0  0  0  0  0
  -19.5330  -26.6200   21.6160 C   0  0  0  0  0  2  0  0  0  0  0  0
  -18.1560  -26.7740   22.2680 C   0  0  0  0  0  2  0  0  0  0  0  0
  -19.1200  -28.8750   23.3750 C   0  0  0  0  0  0  0  0  0  0  0  0
  -18.9140  -30.1400   23.9690 C   0  0  0  0  0  3  0  0  0  0  0  0
  -17.6130  -30.6500   24.1410 C   0  0  0  0  0  3  0  0  0  0  0  0
  -16.5020  -29.8950   23.7330 C   0  0  0  0  0  3  0  0  0  0  0  0
  -16.6920  -28.6330   23.1410 C   0  0  0  0  0  3  0  0  0  0  0  0
  -25.8570  -32.5100   23.8510 C   0  0  0  0  0  3  0  0  0  0  0  0
  -25.5560  -33.9100   24.1800 N   0  0  0  0  0  0  0  0  0  0  0  0
  -25.8960  -34.9600   23.4200 C   0  0  0  0  0  0  0  0  0  0  0  0
  -26.5650  -34.8520   22.3890 O   0  0  0  0  0  0  0  0  0  0  0  0
  -24.9590  -34.0690   24.9770 H   0  0  0  0  0  0  0  0  0  0  0  0
  -24.1750  -36.7590   23.0650 C   0  0  0  0  0  1  0  0  0  0  0  0
  -25.4150  -36.3500   23.8760 C   0  0  0  0  0  3  0  0  0  0  0  0
  -27.5530  -37.2240   24.7060 C   0  0  0  0  0  1  0  0  0  0  0  0
  -26.4520  -37.3970   23.7620 N   0  0  0  0  0  0  0  0  0  0  0  0
  -26.0520  -38.3200   23.9100 H   0  0  0  0  0  0  0  0  0  0  0  0
  -26.3760  -31.7390   25.1270 C   0  0  1  0  0  0  0  0  0  0  0  0
  -25.2860  -31.5090   26.1990 C   0  0  0  0  0  1  0  0  0  0  0  0
  -26.9550  -30.3580   24.7380 C   0  0  0  0  0  1  0  0  0  0  0  0
  -27.5320  -32.5300   25.7830 C   0  0  0  0  0  1  0  0  0  0  0  0
  2  5  1  0
  2  1  1  0
  3  1  1  0
  3  6  1  0
  4  5  1  0
  4  6  1  0
  5  8  1  0
  6  7  1  1
  8  9  1  0
  8 10  2  0
  9 12  1  0
 11  9  1  0
 13 12  1  0
 14 13  1  0
 15 20  1  0
 16 17  1  0
 16 15  1  0
 18 17  1  0
 18 25  1  0
 18 19  1  0
 20 14  1  0
 20 19  1  0
 21 14  2  0
 22 23  2  0
 23 42  1  0
 24 23  1  0
 24 27  1  0
 25 22  1  0
 25 26  1  0
 26 24  2  0
 27 28  1  0
 28 29  2  0
 30 33  1  0
 30 29  1  0
 31 30  2  0
 32 31  1  0
 32 27  2  0
 33 34  1  0
 34 35  1  0
 35 36  2  0
 37 36  1  0
 37 41  1  0
 38 37  2  0
 39 34  2  0
 39 38  1  0
 40 39  1  0
 42 43  1  0
 43 46  1  0
 43 45  1  0
 44 42  2  0
 47 48  1  0
 47 22  1  0
 49 47  1  0
 50  6  1  0
 50 51  1  0
 52 53  1  0
 52 51  1  0
 54 65  2  0
 55 53  1  0
 55 60  1  0
 56 64  1  0
 56 66  1  0
 57 63  1  0
 57 59  1  0
 58 64  1  0
 59 58  1  0
 60 59  2  0
 61 62  1  0
 61 55  2  0
 62 57  2  0
 63 56  1  0
 64 54  1  0
 66 68  2  0
 67 66  1  0
 69 67  1  0
 70 79  2  0
 70 75  1  0
 71 67  1  0
 71 75  1  0
 72 71  1  0
 73 74  1  0
 73 72  1  0
 74 70  1  0
 75 76  2  0
 76 77  1  0
 78 77  2  0
 79 78  1  0
 80 54  1  0
 80 81  1  0
 80 90  1  0
 81 84  1  0
 82 86  1  0
 82 81  1  0
 83 82  2  0
 86 85  1  0
 88 86  1  0
 88 89  1  0
 88 87  1  0
 90 93  1  1
 90 91  1  0
 92 90  1  0
M  ISO  4  13 100  14 100  52 101  53 101
M  END
>  <TORSDO>  (8) 
F 22

>  <SCORE>  (8) 
-13.255

>  <name>  (8) 
7

>  <ligand_id>  (8) 
7

>  <original_smiles>  (8) 
[H]c1c([H])c([H])c2c(c1[H])C([H])([H])C([H])([H])C([H])([H])C2([H])N([H])C(=O)C1([H])N(C(=O)C([H])(N([H])C(=O)C([H])(N([H])C([H])([H])[H])C([H])([H])[H])C(C([H])([H])[H])(C([H])([H])[H])C([H])([H])[H])C([H])([H])c2c([H])c(OC([H])([H])C([H])([H])C([H])([H])[N+]3([H])C([H])([H])C([H])([H])C([H])([H])C([H])(C(=O)N([H])C([H])([H])C([H])([H])C(=O)N4C([H])([H])C([H])([H])C([H])([H])C([H])(n5nc(-c6c([H])c([H])c(Oc7c([H])c([H])c(F)c([H])c7F)c([H])c6[H])c(C(=O)N([H])[H])c5N([H])[H])C4([H])[H])C3([H])[H])c([H])c([H])c2C1([H])[H]

>  <smiles>  (8) 
[H]c1c([H])c([H])c2c(c1[H])C([H])([H])C([H])([H])C([H])([H])C2([H])N([H])C(=O)C1([H])N(C(=O)C([H])(N([H])C(=O)C([H])(N([H])C([H])([H])[H])C([H])([H])[H])C(C([H])([H])[H])(C([H])([H])[H])C([H])([H])[H])C([H])([H])c2c([H])c(OC([H])([H])C([H])([H])C([H])([H])[N+]3([H])C([H])([H])C([H])([H])C([H])([H])C([H])(C(=O)N([H])C([H])([H])C([H])([H])C(=O)N4C([H])([H])C([H])([H])C([H])([H])C([H])(n5nc(-c6c([H])c([H])c(Oc7c([H])c([H])c(F)c([H])c7F)c([H])c6[H])c(C(=O)N([H])[H])c5N([H])[H])C4([H])[H])C3([H])[H])c([H])c([H])c2C1([H])[H]

$$$$
8:0:0
     RDKit          3D

 87 95  0  0  1  0  0  0  0  0999 V2000
  -29.6090  -20.3760   21.8650 C   0  0  0  0  0  3  0  0  0  0  0  0
  -29.4750  -21.6450   22.4890 C   0  0  0  0  0  3  0  0  0  0  0  0
  -28.8800  -21.4780   19.8510 C   0  0  0  0  0  3  0  0  0  0  0  0
  -29.3380  -20.1540   20.5000 C   0  0  0  0  0  0  0  0  0  0  0  0
  -29.0510  -22.8440   21.8430 C   0  0  0  0  0  0  0  0  0  0  0  0
  -28.7090  -22.8850   20.4670 C   0  0  0  0  0  0  0  0  0  0  0  0
  -28.9430  -24.1050   22.6830 C   0  0  0  0  0  1  0  0  0  0  0  0
  -29.6950  -18.5550   19.8930 C   0  0  0  0  0  2  0  0  0  0  0  0
  -29.7070  -16.9130   20.6260 C   0  0  0  0  0  2  0  0  0  0  0  0
  -30.4640  -15.3780   20.2240 C   0  0  0  0  0  0  0  0  0  0  0  0
  -30.4650  -12.9230   19.3600 C   0  0  0  0  0  2  0  0  0  0  0  0
  -29.5480  -12.7380   18.1230 C   0  0  0  0  0  2  0  0  0  0  0  0
  -28.0950  -12.4690   18.5530 C   0  0  0  0  0  2  0  0  0  0  0  0
  -27.6430  -13.4260   19.6840 C   0  0  0  0  0  3  0  0  0  0  0  0
  -28.6870  -13.5600   20.8130 C   0  0  0  0  0  2  0  0  0  0  0  0
  -29.9320  -14.0560   20.2050 N   0  0  0  0  0  0  0  0  0  0  0  0
  -31.6570  -15.3910   19.8840 O   0  0  0  0  0  0  0  0  0  0  0  0
  -25.2640  -13.9710   20.4190 C   0  0  0  0  0  0  0  0  0  0  0  0
  -24.2070  -13.1890   20.7940 C   0  0  0  0  0  0  0  0  0  0  0  0
  -24.6850  -11.8430   20.7800 C   0  0  0  0  0  0  0  0  0  0  0  0
  -26.3150  -13.1030   20.1890 N   0  0  0  0  0  0  0  0  0  0  0  0
  -25.9790  -11.8170   20.4740 N   0  0  0  0  0  0  0  0  0  0  0  0
  -23.9690  -10.5760   20.9830 C   0  0  0  0  0  0  0  0  0  0  0  0
  -24.4020   -9.6220   21.9300 C   0  0  0  0  0  3  0  0  0  0  0  0
  -23.6820   -8.4230   22.1200 C   0  0  0  0  0  3  0  0  0  0  0  0
  -22.5140   -8.1690   21.3630 C   0  0  0  0  0  0  0  0  0  0  0  0
  -22.0990   -9.1100   20.4050 C   0  0  0  0  0  3  0  0  0  0  0  0
  -22.8210  -10.3000   20.2130 C   0  0  0  0  0  3  0  0  0  0  0  0
  -21.7650   -7.0200   21.4620 O   0  0  0  0  0  0  0  0  0  0  0  0
  -21.7190   -6.2880   22.6210 C   0  0  0  0  0  0  0  0  0  0  0  0
  -21.2730   -6.8480   23.8380 C   0  0  0  0  0  3  0  0  0  0  0  0
  -21.1760   -6.0410   24.9900 C   0  0  0  0  0  3  0  0  0  0  0  0
  -21.5150   -4.6770   24.9250 C   0  0  0  0  0  0  0  0  0  0  0  0
  -21.9530   -4.1160   23.7130 C   0  0  0  0  0  3  0  0  0  0  0  0
  -22.0510   -4.9200   22.5630 C   0  0  0  0  0  0  0  0  0  0  0  0
  -22.4540   -4.3700   21.3920 F   0  0  0  0  0  0  0  0  0  0  0  0
  -21.4140   -3.9000   26.0290 F   0  0  0  0  0  0  0  0  0  0  0  0
  -22.8040  -13.6560   21.0500 C   0  0  0  0  0  0  0  0  0  0  0  0
  -22.0780  -12.9660   21.9200 N   0  0  0  0  0  0  0  0  0  0  0  0
  -22.3620  -14.6710   20.5130 O   0  0  0  0  0  0  0  0  0  0  0  0
  -22.4480  -12.1440   22.3750 H   0  0  0  0  0  0  0  0  0  0  0  0
  -21.1360  -13.2610   22.1360 H   0  0  0  0  0  0  0  0  0  0  0  0
  -25.4150  -15.3410   20.2280 N   0  0  0  0  0  0  0  0  0  0  0  0
  -24.6430  -15.9920   20.3330 H   0  0  0  0  0  0  0  0  0  0  0  0
  -26.2650  -15.7850   19.9050 H   0  0  0  0  0  0  0  0  0  0  0  0
  -28.0500  -24.3770   19.8370 C   0  0  0  0  0  2  0  0  0  0  0  0
  -28.2220  -25.9610   20.2540 O   0  0  0  0  0  0  0  0  0  0  0  0
  -24.6660  -31.9160   23.1900 C   0  0  0  0  0  0  0  0  0  0  0  0
  -27.2170  -27.0590   20.1490 C   0  0  0  0  0  0  0  0  0  0  0  0
  -23.4640  -30.5190   21.5580 C   0  0  0  0  0  3  0  0  0  0  0  0
  -24.9100  -28.9260   20.1170 C   0  0  0  0  0  0  0  0  0  0  0  0
  -26.0280  -30.7410   21.3950 C   0  0  0  0  0  2  0  0  0  0  0  0
  -26.0980  -29.3330   20.7350 C   0  0  0  0  0  0  0  0  0  0  0  0
  -27.2430  -28.4200   20.7310 C   0  0  0  0  0  3  0  0  0  0  0  0
  -26.0030  -26.8080   19.4680 C   0  0  0  0  0  3  0  0  0  0  0  0
  -24.8870  -27.6840   19.4630 C   0  0  0  0  0  3  0  0  0  0  0  0
  -23.6860  -29.8390   20.1780 C   0  0  0  0  0  2  0  0  0  0  0  0
  -24.7410  -31.0860   22.0990 N   0  0  0  0  0  0  0  0  0  0  0  0
  -23.5800  -32.2010   23.7200 O   0  0  0  0  0  0  0  0  0  0  0  0
  -22.7820  -29.5180   22.5270 C   0  0  0  0  0  0  0  0  0  0  0  0
  -21.4510  -29.3490   22.4120 N   0  0  0  0  0  0  0  0  0  0  0  0
  -23.4570  -28.8950   23.3500 O   0  0  0  0  0  0  0  0  0  0  0  0
  -20.9610  -29.9010   21.7220 H   0  0  0  0  0  0  0  0  0  0  0  0
  -18.0770  -28.1260   22.9430 C   0  0  0  0  0  0  0  0  0  0  0  0
  -20.6380  -28.4080   23.1900 C   0  0  0  0  0  3  0  0  0  0  0  0
  -20.7440  -26.9750   22.6170 C   0  0  0  0  0  2  0  0  0  0  0  0
  -19.6380  -26.6460   21.6090 C   0  0  0  0  0  2  0  0  0  0  0  0
  -18.2590  -26.7790   22.2630 C   0  0  0  0  0  2  0  0  0  0  0  0
  -19.1930  -28.8980   23.3640 C   0  0  0  0  0  0  0  0  0  0  0  0
  -18.9660  -30.1550   23.9640 C   0  0  0  0  0  3  0  0  0  0  0  0
  -17.6590  -30.6410   24.1460 C   0  0  0  0  0  3  0  0  0  0  0  0
  -16.5580  -29.8680   23.7380 C   0  0  0  0  0  3  0  0  0  0  0  0
  -16.7680  -28.6110   23.1430 C   0  0  0  0  0  3  0  0  0  0  0  0
  -25.9400  -32.5620   23.8140 C   0  0  0  0  0  3  0  0  0  0  0  0
  -26.4520  -31.8050   25.1010 C   0  0  1  0  0  0  0  0  0  0  0  0
  -25.3560  -31.5790   26.1700 C   0  0  0  0  0  1  0  0  0  0  0  0
  -27.0350  -30.4220   24.7340 C   0  0  0  0  0  1  0  0  0  0  0  0
  -27.6020  -32.6050   25.7570 C   0  0  0  0  0  1  0  0  0  0  0  0
  -25.6220  -33.9620   24.1440 N   0  0  0  0  0  0  0  0  0  0  0  0
  -25.9440  -35.0220   23.3890 C   0  0  0  0  0  0  0  0  0  0  0  0
  -26.6010  -34.9240   22.3510 O   0  0  0  0  0  0  0  0  0  0  0  0
  -25.0360  -34.1130   24.9530 H   0  0  0  0  0  0  0  0  0  0  0  0
  -24.2060  -36.8160   23.0710 C   0  0  0  0  0  1  0  0  0  0  0  0
  -25.4620  -36.4100   23.8590 C   0  0  0  0  0  3  0  0  0  0  0  0
  -27.6050  -37.3040   24.6620 C   0  0  0  0  0  1  0  0  0  0  0  0
  -26.4900  -37.4670   23.7320 N   0  0  0  0  0  0  0  0  0  0  0  0
  -26.0830  -38.3860   23.8830 H   0  0  0  0  0  0  0  0  0  0  0  0
  1  2  1  0
  3  6  2  0
  3  4  1  0
  4  1  2  0
  5  2  2  0
  5  7  1  0
  6  5  1  0
  8  4  1  0
  8  9  1  0
 10  9  1  0
 11 16  1  0
 12 13  1  0
 12 11  1  0
 14 13  1  0
 14 21  1  0
 14 15  1  0
 16 10  1  0
 16 15  1  0
 17 10  2  0
 18 19  2  0
 19 38  1  0
 20 19  1  0
 20 23  1  0
 21 18  1  0
 21 22  1  0
 22 20  2  0
 23 24  1  0
 24 25  2  0
 26 29  1  0
 26 25  1  0
 27 26  2  0
 28 27  1  0
 28 23  2  0
 29 30  1  0
 30 31  1  0
 31 32  2  0
 33 32  1  0
 33 37  1  0
 34 33  2  0
 35 30  2  0
 35 34  1  0
 36 35  1  0
 38 39  1  0
 39 42  1  0
 39 41  1  0
 40 38  2  0
 43 44  1  0
 43 18  1  0
 45 43  1  0
 46 47  1  0
 46  6  1  0
 48 59  2  0
 49 47  1  0
 49 54  1  0
 50 58  1  0
 50 60  1  0
 51 57  1  0
 51 53  1  0
 52 58  1  0
 53 52  1  0
 54 53  2  0
 55 49  2  0
 56 55  1  0
 56 51  2  0
 57 50  1  0
 58 48  1  0
 60 62  2  0
 61 60  1  0
 63 61  1  0
 64 73  2  0
 64 69  1  0
 65 61  1  0
 65 69  1  0
 66 65  1  0
 67 68  1  0
 67 66  1  0
 68 64  1  0
 69 70  2  0
 70 71  1  0
 72 71  2  0
 73 72  1  0
 74 48  1  0
 74 79  1  0
 74 75  1  0
 75 78  1  1
 75 76  1  0
 77 75  1  0
 79 82  1  0
 80 84  1  0
 80 79  1  0
 81 80  2  0
 84 83  1  0
 86 84  1  0
 86 87  1  0
 86 85  1  0
M  ISO  4   9 100  10 100  46 101  47 101
M  END
>  <TORSDO>  (9) 
F 19

>  <SCORE>  (9) 
-15.832

>  <name>  (9) 
8

>  <ligand_id>  (9) 
8

>  <original_smiles>  (9) 
[H]c1c([H])c([H])c2c(c1[H])C([H])([H])C([H])([H])C([H])([H])C2([H])N([H])C(=O)C1([H])N(C(=O)C([H])(N([H])C(=O)C([H])(N([H])C([H])([H])[H])C([H])([H])[H])C(C([H])([H])[H])(C([H])([H])[H])C([H])([H])[H])C([H])([H])c2c([H])c(OC([H])([H])c3c([H])c(C([H])([H])C([H])([H])C(=O)N4C([H])([H])C([H])([H])C([H])([H])C([H])(n5nc(-c6c([H])c([H])c(Oc7c([H])c([H])c(F)c([H])c7F)c([H])c6[H])c(C(=O)N([H])[H])c5N([H])[H])C4([H])[H])c([H])c([H])c3C([H])([H])[H])c([H])c([H])c2C1([H])[H]

>  <smiles>  (9) 
[H]c1c([H])c([H])c2c(c1[H])C([H])([H])C([H])([H])C([H])([H])C2([H])N([H])C(=O)C1([H])N(C(=O)C([H])(N([H])C(=O)C([H])(N([H])C([H])([H])[H])C([H])([H])[H])C(C([H])([H])[H])(C([H])([H])[H])C([H])([H])[H])C([H])([H])c2c([H])c(OC([H])([H])c3c([H])c(C([H])([H])C([H])([H])C(=O)N4C([H])([H])C([H])([H])C([H])([H])C([H])(n5nc(-c6c([H])c([H])c(Oc7c([H])c([H])c(F)c([H])c7F)c([H])c6[H])c(C(=O)N([H])[H])c5N([H])[H])C4([H])[H])c([H])c([H])c3C([H])([H])[H])c([H])c([H])c2C1([H])[H]

$$$$
9:0:0
     RDKit          3D

 95102  0  0  1  0  0  0  0  0999 V2000
  -28.2870  -19.6180   18.4110 C   0  0  0  0  0  3  0  0  0  0  0  0
  -27.5810  -19.3660   19.6910 N   0  0  0  0  0  4  0  0  0  0  0  0
  -28.2180  -19.4580   20.4690 H   0  0  0  0  0  0  0  0  0  0  0  0
  -26.8980  -20.1050   19.7810 H   0  0  0  0  0  0  0  0  0  0  0  0
  -26.8590  -18.0710   19.7950 C   0  0  0  0  0  2  0  0  0  0  0  0
  -27.8300  -16.8700   19.8640 C   0  0  0  0  0  2  0  0  0  0  0  0
  -27.2470  -15.5540   19.3320 C   0  0  0  0  0  2  0  0  0  0  0  0
  -27.8810  -14.3290   20.0300 C   0  0  0  0  0  2  0  0  0  0  0  0
  -29.0270  -13.4910   19.4050 C   0  0  0  0  0  0  0  0  0  0  0  0
  -31.3460  -13.1250   18.6360 C   0  0  0  0  0  2  0  0  0  0  0  0
  -32.3340  -13.1020   19.8220 C   0  0  0  0  0  2  0  0  0  0  0  0
  -32.7960  -14.5270   20.1990 C   0  0  0  0  0  2  0  0  0  0  0  0
  -31.5950  -15.4830   20.3590 C   0  0  0  0  0  3  0  0  0  0  0  0
  -30.6880  -15.3950   19.1090 C   0  0  0  0  0  2  0  0  0  0  0  0
  -30.2200  -14.0070   18.9960 N   0  0  0  0  0  0  0  0  0  0  0  0
  -28.7900  -12.2790   19.3110 O   0  0  0  0  0  0  0  0  0  0  0  0
  -31.4170  -17.8280   21.4140 C   0  0  0  0  0  0  0  0  0  0  0  0
  -32.2370  -18.9190   21.3350 C   0  0  0  0  0  0  0  0  0  0  0  0
  -33.3080  -18.5420   20.4640 C   0  0  0  0  0  0  0  0  0  0  0  0
  -32.0040  -16.8540   20.6150 N   0  0  0  0  0  0  0  0  0  0  0  0
  -33.1140  -17.3170   19.9990 N   0  0  0  0  0  0  0  0  0  0  0  0
  -34.5370  -19.2490   20.1000 C   0  0  0  0  0  0  0  0  0  0  0  0
  -34.9070  -19.4480   18.7530 C   0  0  0  0  0  3  0  0  0  0  0  0
  -36.1040  -20.1240   18.4330 C   0  0  0  0  0  3  0  0  0  0  0  0
  -36.9360  -20.6230   19.4630 C   0  0  0  0  0  0  0  0  0  0  0  0
  -36.5740  -20.3900   20.8040 C   0  0  0  0  0  3  0  0  0  0  0  0
  -35.3830  -19.7200   21.1230 C   0  0  0  0  0  3  0  0  0  0  0  0
  -38.1170  -21.2870   19.2490 O   0  0  0  0  0  0  0  0  0  0  0  0
  -38.2180  -22.2930   18.3190 C   0  0  0  0  0  0  0  0  0  0  0  0
  -37.5150  -23.5100   18.4580 C   0  0  0  0  0  3  0  0  0  0  0  0
  -37.6960  -24.5390   17.5140 C   0  0  0  0  0  3  0  0  0  0  0  0
  -38.5910  -24.3570   16.4420 C   0  0  0  0  0  0  0  0  0  0  0  0
  -39.3040  -23.1540   16.3130 C   0  0  0  0  0  3  0  0  0  0  0  0
  -39.1190  -22.1240   17.2500 C   0  0  0  0  0  0  0  0  0  0  0  0
  -39.8180  -20.9690   17.1290 F   0  0  0  0  0  0  0  0  0  0  0  0
  -38.7740  -25.3470   15.5390 F   0  0  0  0  0  0  0  0  0  0  0  0
  -32.1030  -20.2100   22.0940 C   0  0  0  0  0  0  0  0  0  0  0  0
  -32.1460  -21.3460   21.4090 N   0  0  0  0  0  0  0  0  0  0  0  0
  -31.9100  -20.2080   23.3120 O   0  0  0  0  0  0  0  0  0  0  0  0
  -32.2770  -21.3700   20.4040 H   0  0  0  0  0  0  0  0  0  0  0  0
  -32.0380  -22.2220   21.9010 H   0  0  0  0  0  0  0  0  0  0  0  0
  -30.2450  -17.5550   22.1160 N   0  0  0  0  0  0  0  0  0  0  0  0
  -29.9230  -18.1770   22.8480 H   0  0  0  0  0  0  0  0  0  0  0  0
  -29.9570  -16.5970   22.2480 H   0  0  0  0  0  0  0  0  0  0  0  0
  -27.6410  -20.8230   17.6890 C   0  0  0  0  0  2  0  0  0  0  0  0
  -27.0590  -23.1920   18.5720 C   0  0  0  0  0  1  0  0  0  0  0  0
  -25.2410  -21.6010   17.9750 C   0  0  0  0  0  1  0  0  0  0  0  0
  -26.6680  -21.6980   18.5310 C   0  0  0  0  0  3  0  0  0  0  0  0
  -29.8150  -19.7900   18.6940 C   0  0  0  0  0  2  0  0  0  0  0  0
  -31.2930  -18.3380   17.1890 C   0  0  0  0  0  1  0  0  0  0  0  0
  -30.7780  -19.7650   17.4740 C   0  0  0  0  0  3  0  0  0  0  0  0
  -31.9490  -20.7760   17.6290 C   0  0  0  0  0  2  0  0  0  0  0  0
  -32.2250  -21.6120   16.3530 C   0  0  0  0  0  2  0  0  0  0  0  0
  -33.6120  -22.2970   16.2820 C   0  0  0  0  0  2  0  0  0  0  0  0
  -33.6480  -23.5010   15.5070 O   0  0  0  0  0  0  0  0  0  0  0  0
  -35.2950  -28.2900   20.5400 C   0  0  0  0  0  0  0  0  0  0  0  0
  -33.3450  -24.6770   16.1530 C   0  0  0  0  0  0  0  0  0  0  0  0
  -33.1160  -28.6020   19.4130 C   0  0  0  0  0  3  0  0  0  0  0  0
  -32.7260  -27.1640   17.3420 C   0  0  0  0  0  0  0  0  0  0  0  0
  -35.0550  -27.4530   18.2040 C   0  0  0  0  0  2  0  0  0  0  0  0
  -34.0220  -26.6450   17.4440 C   0  0  0  0  0  0  0  0  0  0  0  0
  -34.3400  -25.4030   16.8470 C   0  0  0  0  0  3  0  0  0  0  0  0
  -32.0510  -25.2220   16.0390 C   0  0  0  0  0  3  0  0  0  0  0  0
  -31.7320  -26.4570   16.6400 C   0  0  0  0  0  3  0  0  0  0  0  0
  -32.4650  -28.5000   18.0060 C   0  0  0  0  0  2  0  0  0  0  0  0
  -34.5280  -28.0930   19.4330 N   0  0  0  0  0  0  0  0  0  0  0  0
  -34.8660  -28.9230   21.5130 O   0  0  0  0  0  0  0  0  0  0  0  0
  -32.1980  -27.8940   20.4330 C   0  0  0  0  0  0  0  0  0  0  0  0
  -31.1240  -28.5850   20.8550 N   0  0  0  0  0  0  0  0  0  0  0  0
  -32.4350  -26.7420   20.8070 O   0  0  0  0  0  0  0  0  0  0  0  0
  -31.0040  -29.5270   20.5080 H   0  0  0  0  0  0  0  0  0  0  0  0
  -27.9600  -29.4240   22.3840 C   0  0  0  0  0  0  0  0  0  0  0  0
  -30.1000  -28.1070   21.7830 C   0  0  0  0  0  3  0  0  0  0  0  0
  -29.1600  -27.0900   21.0960 C   0  0  0  0  0  2  0  0  0  0  0  0
  -27.9060  -27.7360   20.4990 C   0  0  0  0  0  2  0  0  0  0  0  0
  -27.1040  -28.4550   21.5890 C   0  0  0  0  0  2  0  0  0  0  0  0
  -29.3690  -29.2700   22.4630 C   0  0  0  0  0  0  0  0  0  0  0  0
  -30.1230  -30.2190   23.1880 C   0  0  0  0  0  3  0  0  0  0  0  0
  -29.4920  -31.3010   23.8280 C   0  0  0  0  0  3  0  0  0  0  0  0
  -28.0950  -31.4410   23.7570 C   0  0  0  0  0  3  0  0  0  0  0  0
  -27.3330  -30.5010   23.0410 C   0  0  0  0  0  3  0  0  0  0  0  0
  -36.7620  -27.7550   20.6210 C   0  0  0  0  0  3  0  0  0  0  0  0
  -37.6070  -28.8620   21.0840 N   0  0  0  0  0  0  0  0  0  0  0  0
  -38.3710  -29.6220   20.2870 C   0  0  0  0  0  0  0  0  0  0  0  0
  -38.4920  -29.4110   19.0750 O   0  0  0  0  0  0  0  0  0  0  0  0
  -37.5150  -29.1270   22.0550 H   0  0  0  0  0  0  0  0  0  0  0  0
  -38.6160  -32.1220   20.3430 C   0  0  0  0  0  1  0  0  0  0  0  0
  -39.1240  -30.7980   20.9350 C   0  0  0  0  0  3  0  0  0  0  0  0
  -41.2030  -29.6890   21.6230 C   0  0  0  0  0  1  0  0  0  0  0  0
  -40.5930  -30.7150   20.7800 N   0  0  0  0  0  0  0  0  0  0  0  0
  -41.0280  -31.6080   20.9990 H   0  0  0  0  0  0  0  0  0  0  0  0
  -36.9120  -26.5000   21.5640 C   0  0  1  0  0  0  0  0  0  0  0  0
  -36.8420  -26.8420   23.0710 C   0  0  0  0  0  1  0  0  0  0  0  0
  -35.8110  -25.4580   21.2630 C   0  0  0  0  0  1  0  0  0  0  0  0
  -38.2670  -25.8030   21.2940 C   0  0  0  0  0  1  0  0  0  0  0  0
  1 45  1  0
  1 49  1  0
  1  2  1  0
  2  4  1  0
  2  5  1  0
  2  3  1  0
  5  6  1  0
  7  6  1  0
  7  8  1  0
  9  8  1  0
 10 15  1  0
 10 11  1  0
 11 12  1  0
 12 13  1  0
 13 14  1  0
 13 20  1  0
 15 14  1  0
 15  9  1  0
 16  9  2  0
 17 42  1  0
 18 17  2  0
 18 37  1  0
 19 18  1  0
 20 17  1  0
 21 19  2  0
 21 20  1  0
 22 19  1  0
 22 27  1  0
 23 22  2  0
 24 23  1  0
 24 25  2  0
 25 26  1  0
 26 27  2  0
 28 25  1  0
 29 30  1  0
 29 28  1  0
 31 30  2  0
 32 31  1  0
 33 32  2  0
 33 34  1  0
 34 29  2  0
 35 34  1  0
 36 32  1  0
 37 39  2  0
 38 41  1  0
 38 37  1  0
 40 38  1  0
 42 44  1  0
 42 43  1  0
 45 48  1  0
 47 48  1  0
 48 46  1  0
 51 50  1  0
 51 52  1  0
 51 49  1  0
 53 52  1  0
 54 53  1  0
 55 57  1  0
 55 54  1  0
 56 67  2  0
 57 62  1  0
 58 66  1  0
 58 68  1  0
 59 61  1  0
 59 65  1  0
 60 66  1  0
 61 60  1  0
 62 61  2  0
 63 57  2  0
 63 64  1  0
 64 59  2  0
 65 58  1  0
 66 56  1  0
 68 70  2  0
 68 69  1  0
 71 69  1  0
 72 77  2  0
 72 81  1  0
 73 69  1  0
 73 77  1  0
 74 73  1  0
 75 74  1  0
 75 76  1  0
 76 72  1  0
 77 78  1  0
 78 79  2  0
 80 79  1  0
 81 80  2  0
 82 56  1  0
 82 83  1  0
 82 92  1  0
 83 86  1  0
 84 88  1  0
 84 83  1  0
 85 84  2  0
 88 87  1  0
 90 88  1  0
 90 91  1  0
 90 89  1  0
 92 93  1  1
 94 92  1  0
 95 92  1  0
M  ISO  4   8 100   9 100  54 101  55 101
M  END
>  <TORSDO>  (10) 
F 28

>  <SCORE>  (10) 
-5.004

>  <name>  (10) 
9

>  <ligand_id>  (10) 
9

>  <original_smiles>  (10) 
[H]c1c([H])c([H])c2c(c1[H])C([H])([H])C([H])([H])C([H])([H])C2([H])N([H])C(=O)C1([H])N(C(=O)C([H])(N([H])C(=O)C([H])(N([H])C([H])([H])[H])C([H])([H])[H])C(C([H])([H])[H])(C([H])([H])[H])C([H])([H])[H])C([H])([H])c2c([H])c(OC([H])([H])C([H])([H])C([H])([H])C([H])(C([H])([H])[H])C([H])([H])C([H])(C([H])([H])C([H])(C([H])([H])[H])C([H])([H])[H])[N+]([H])([H])C([H])([H])C([H])([H])C([H])([H])C([H])([H])C(=O)N3C([H])([H])C([H])([H])C([H])([H])C([H])(n4nc(-c5c([H])c([H])c(Oc6c([H])c([H])c(F)c([H])c6F)c([H])c5[H])c(C(=O)N([H])[H])c4N([H])[H])C3([H])[H])c([H])c([H])c2C1([H])[H]

>  <smiles>  (10) 
[H]c1c([H])c([H])c2c(c1[H])C([H])([H])C([H])([H])C([H])([H])C2([H])N([H])C(=O)C1([H])N(C(=O)C([H])(N([H])C(=O)C([H])(N([H])C([H])([H])[H])C([H])([H])[H])C(C([H])([H])[H])(C([H])([H])[H])C([H])([H])[H])C([H])([H])c2c([H])c(OC([H])([H])C([H])([H])C([H])([H])C([H])(C([H])([H])[H])C([H])([H])C([H])(C([H])([H])C([H])(C([H])([H])[H])C([H])([H])[H])[N+]([H])([H])C([H])([H])C([H])([H])C([H])([H])C([H])([H])C(=O)N3C([H])([H])C([H])([H])C([H])([H])C([H])(n4nc(-c5c([H])c([H])c(Oc6c([H])c([H])c(F)c([H])c6F)c([H])c5[H])c(C(=O)N([H])[H])c4N([H])[H])C3([H])[H])c([H])c([H])c2C1([H])[H]

$$$$
10:0:0
     RDKit          3D

 95103  0  0  1  0  0  0  0  0999 V2000
  -29.9570  -21.3580   19.9960 C   0  0  0  0  0  3  0  0  0  0  0  0
  -30.6160  -20.3820   22.2190 C   0  0  0  0  0  1  0  0  0  0  0  0
  -30.3180  -20.0900   20.7960 N   0  0  1  0  0  4  0  0  0  0  0  0
  -31.2230  -19.8780   20.4000 H   0  0  0  0  0  0  0  0  0  0  0  0
  -29.5930  -18.7540   20.6380 C   0  0  0  0  0  3  0  0  0  0  0  0
  -30.5220  -17.4440   20.6610 C   0  0  0  0  0  3  0  0  0  0  0  0
  -29.8360  -16.0060   20.7800 C   0  0  0  0  0  2  0  0  0  0  0  0
  -30.6600  -14.6990   20.4100 C   0  0  0  0  0  0  0  0  0  0  0  0
  -30.4480  -12.4740   19.3120 C   0  0  0  0  0  2  0  0  0  0  0  0
  -29.5130  -12.6320   18.0910 C   0  0  0  0  0  2  0  0  0  0  0  0
  -28.0370  -12.4610   18.5070 C   0  0  0  0  0  2  0  0  0  0  0  0
  -27.6700  -13.3060   19.7550 C   0  0  0  0  0  3  0  0  0  0  0  0
  -28.7230  -13.1490   20.8730 C   0  0  0  0  0  2  0  0  0  0  0  0
  -30.0410  -13.4790   20.3150 N   0  0  0  0  0  0  0  0  0  0  0  0
  -31.8310  -14.8330   20.0440 O   0  0  0  0  0  0  0  0  0  0  0  0
  -25.2680  -13.8930   20.4500 C   0  0  0  0  0  0  0  0  0  0  0  0
  -24.2030  -13.1150   20.8140 C   0  0  0  0  0  0  0  0  0  0  0  0
  -24.6760  -11.7670   20.7990 C   0  0  0  0  0  0  0  0  0  0  0  0
  -26.3200  -13.0180   20.2310 N   0  0  0  0  0  0  0  0  0  0  0  0
  -25.9700  -11.7360   20.5040 N   0  0  0  0  0  0  0  0  0  0  0  0
  -23.9580  -10.5010   20.9920 C   0  0  0  0  0  0  0  0  0  0  0  0
  -24.3780   -9.5500   21.9490 C   0  0  0  0  0  3  0  0  0  0  0  0
  -23.6600   -8.3490   22.1290 C   0  0  0  0  0  3  0  0  0  0  0  0
  -22.5070   -8.0880   21.3500 C   0  0  0  0  0  0  0  0  0  0  0  0
  -22.1060   -9.0270   20.3830 C   0  0  0  0  0  3  0  0  0  0  0  0
  -22.8260  -10.2190   20.2020 C   0  0  0  0  0  3  0  0  0  0  0  0
  -21.7620   -6.9370   21.4380 O   0  0  0  0  0  0  0  0  0  0  0  0
  -21.6860   -6.2150   22.6010 C   0  0  0  0  0  0  0  0  0  0  0  0
  -21.2040   -6.7850   23.8010 C   0  0  0  0  0  3  0  0  0  0  0  0
  -21.0770   -5.9880   24.9560 C   0  0  0  0  0  3  0  0  0  0  0  0
  -21.4220   -4.6230   24.9130 C   0  0  0  0  0  0  0  0  0  0  0  0
  -21.8970   -4.0540   23.7180 C   0  0  0  0  0  3  0  0  0  0  0  0
  -22.0270   -4.8480   22.5660 C   0  0  0  0  0  0  0  0  0  0  0  0
  -22.4640   -4.2900   21.4110 F   0  0  0  0  0  0  0  0  0  0  0  0
  -21.2940   -3.8550   26.0200 F   0  0  0  0  0  0  0  0  0  0  0  0
  -22.7990  -13.5830   21.0670 C   0  0  0  0  0  0  0  0  0  0  0  0
  -22.0670  -12.8840   21.9270 N   0  0  0  0  0  0  0  0  0  0  0  0
  -22.3610  -14.6030   20.5380 O   0  0  0  0  0  0  0  0  0  0  0  0
  -22.4350  -12.0580   22.3760 H   0  0  0  0  0  0  0  0  0  0  0  0
  -21.1240  -13.1800   22.1390 H   0  0  0  0  0  0  0  0  0  0  0  0
  -25.4220  -15.2630   20.2650 N   0  0  0  0  0  0  0  0  0  0  0  0
  -24.6440  -15.9080   20.3550 H   0  0  0  0  0  0  0  0  0  0  0  0
  -26.2750  -15.7130   19.9570 H   0  0  0  0  0  0  0  0  0  0  0  0
  -29.7190  -21.0950   18.4830 C   0  0  0  0  0  2  0  0  0  0  0  0
  -33.3120  -19.6770   16.4590 C   0  0  0  0  0  3  0  0  0  0  0  0
  -32.3040  -18.7740   16.8430 C   0  0  0  0  0  3  0  0  0  0  0  0
  -33.1420  -21.0540   16.6880 C   0  0  0  0  0  3  0  0  0  0  0  0
  -31.1400  -19.2500   17.4730 C   0  0  0  0  0  3  0  0  0  0  0  0
  -31.9760  -21.5390   17.3180 C   0  0  0  0  0  0  0  0  0  0  0  0
  -30.9740  -20.6260   17.7430 C   0  0  0  0  0  0  0  0  0  0  0  0
  -31.8330  -23.0430   17.5030 C   0  0  0  0  0  1  0  0  0  0  0  0
  -28.9730  -22.4700   20.6080 C   0  0  0  0  0  2  0  0  0  0  0  0
  -29.1050  -23.9740   20.0560 C   0  0  0  0  0  3  0  0  0  0  0  0
  -28.1880  -25.1100   20.6860 C   0  0  0  0  0  3  0  0  0  0  0  0
  -28.3730  -26.5120   20.2420 O   0  0  0  0  0  0  0  0  0  0  0  0
  -24.5980  -31.8820   23.2470 C   0  0  0  0  0  0  0  0  0  0  0  0
  -27.2460  -27.3450   20.2160 C   0  0  0  0  0  0  0  0  0  0  0  0
  -23.4080  -30.4790   21.6000 C   0  0  0  0  0  3  0  0  0  0  0  0
  -24.8710  -28.9350   20.1840 C   0  0  0  0  0  0  0  0  0  0  0  0
  -25.9440  -30.8140   21.4280 C   0  0  0  0  0  2  0  0  0  0  0  0
  -26.0340  -29.4350   20.7860 C   0  0  0  0  0  0  0  0  0  0  0  0
  -27.2260  -28.6520   20.7890 C   0  0  0  0  0  3  0  0  0  0  0  0
  -26.0650  -26.8970   19.5840 C   0  0  0  0  0  3  0  0  0  0  0  0
  -24.8890  -27.6700   19.5730 C   0  0  0  0  0  3  0  0  0  0  0  0
  -23.6300  -29.8010   20.2220 C   0  0  0  0  0  2  0  0  0  0  0  0
  -24.6680  -31.0750   22.1480 N   0  0  0  0  0  0  0  0  0  0  0  0
  -23.5120  -32.1540   23.7780 O   0  0  0  0  0  0  0  0  0  0  0  0
  -22.7440  -29.4610   22.5590 C   0  0  0  0  0  0  0  0  0  0  0  0
  -21.4200  -29.2790   22.4240 N   0  0  0  0  0  0  0  0  0  0  0  0
  -23.4220  -28.8390   23.3790 O   0  0  0  0  0  0  0  0  0  0  0  0
  -20.9320  -29.8310   21.7320 H   0  0  0  0  0  0  0  0  0  0  0  0
  -18.0420  -28.0820   22.9120 C   0  0  0  0  0  0  0  0  0  0  0  0
  -20.5990  -28.3390   23.1910 C   0  0  0  0  0  3  0  0  0  0  0  0
  -20.7050  -26.9090   22.6160 C   0  0  0  0  0  2  0  0  0  0  0  0
  -19.6060  -26.5880   21.5970 C   0  0  0  0  0  2  0  0  0  0  0  0
  -18.2220  -26.7340   22.2350 C   0  0  0  0  0  2  0  0  0  0  0  0
  -19.1600  -28.8430   23.3470 C   0  0  0  0  0  0  0  0  0  0  0  0
  -18.9390  -30.1050   23.9390 C   0  0  0  0  0  3  0  0  0  0  0  0
  -17.6330  -30.6060   24.1030 C   0  0  0  0  0  3  0  0  0  0  0  0
  -16.5300  -29.8410   23.6840 C   0  0  0  0  0  3  0  0  0  0  0  0
  -16.7360  -28.5810   23.0940 C   0  0  0  0  0  3  0  0  0  0  0  0
  -25.8760  -32.5210   23.8760 C   0  0  0  0  0  3  0  0  0  0  0  0
  -26.3800  -31.7590   25.1630 C   0  0  1  0  0  0  0  0  0  0  0  0
  -25.2770  -31.5320   26.2220 C   0  0  0  0  0  1  0  0  0  0  0  0
  -26.9670  -30.3800   24.7870 C   0  0  0  0  0  1  0  0  0  0  0  0
  -27.5240  -32.5600   25.8290 C   0  0  0  0  0  1  0  0  0  0  0  0
  -25.5630  -33.9200   24.1920 N   0  0  0  0  0  0  0  0  0  0  0  0
  -25.9040  -34.9690   23.4300 C   0  0  0  0  0  0  0  0  0  0  0  0
  -26.5830  -34.8590   22.4070 O   0  0  0  0  0  0  0  0  0  0  0  0
  -24.9630  -34.0820   24.9880 H   0  0  0  0  0  0  0  0  0  0  0  0
  -24.1850  -36.7620   23.0430 C   0  0  0  0  0  1  0  0  0  0  0  0
  -25.4130  -36.3590   23.8750 C   0  0  0  0  0  3  0  0  0  0  0  0
  -27.5360  -37.2420   24.7360 C   0  0  0  0  0  1  0  0  0  0  0  0
  -26.4490  -37.4110   23.7750 N   0  0  0  0  0  0  0  0  0  0  0  0
  -26.0430  -38.3310   23.9160 H   0  0  0  0  0  0  0  0  0  0  0  0
  1 44  1  0
  1 52  1  0
  1  3  1  0
  3  2  1  0
  3  4  1  6
  5  6  2  0
  5  3  1  0
  6  7  1  0
  8  7  1  0
  9 14  1  0
 10 11  1  0
 10  9  1  0
 12 11  1  0
 12 19  1  0
 12 13  1  0
 14  8  1  0
 14 13  1  0
 15  8  2  0
 16 17  2  0
 17 36  1  0
 18 17  1  0
 18 21  1  0
 19 16  1  0
 19 20  1  0
 20 18  2  0
 21 22  1  0
 22 23  2  0
 24 27  1  0
 24 23  1  0
 25 24  2  0
 26 25  1  0
 26 21  2  0
 27 28  1  0
 28 29  1  0
 29 30  2  0
 31 30  1  0
 31 35  1  0
 32 31  2  0
 33 28  2  0
 33 32  1  0
 34 33  1  0
 36 37  1  0
 37 40  1  0
 37 39  1  0
 38 36  2  0
 41 42  1  0
 41 16  1  0
 43 41  1  0
 45 47  2  0
 45 46  1  0
 46 48  2  0
 47 49  1  0
 48 50  1  0
 49 51  1  0
 49 50  2  0
 50 44  1  0
 53 52  1  0
 53 54  2  0
 55 54  1  0
 56 67  2  0
 57 55  1  0
 57 62  1  0
 58 66  1  0
 58 68  1  0
 59 65  1  0
 59 61  1  0
 60 66  1  0
 61 62  2  0
 61 60  1  0
 63 57  2  0
 64 63  1  0
 64 59  2  0
 65 58  1  0
 66 56  1  0
 68 70  2  0
 69 68  1  0
 71 69  1  0
 72 81  2  0
 72 77  1  0
 73 69  1  0
 73 77  1  0
 74 73  1  0
 75 76  1  0
 75 74  1  0
 76 72  1  0
 77 78  2  0
 78 79  1  0
 80 79  2  0
 81 80  1  0
 82 56  1  0
 82 87  1  0
 82 83  1  0
 83 86  1  1
 83 84  1  0
 85 83  1  0
 87 90  1  0
 88 92  1  0
 88 87  1  0
 89 88  2  0
 92 91  1  0
 94 92  1  0
 94 95  1  0
 94 93  1  0
M  ISO  4   7 100   8 100  54 101  55 101
M  END
>  <TORSDO>  (11) 
F 25

>  <SCORE>  (11) 
-12.217

>  <name>  (11) 
10

>  <ligand_id>  (11) 
10

>  <original_smiles>  (11) 
[H]c1c([H])c([H])c(C([H])([H])C([H])(C([H])([H])C([H])([H])C([H])([H])Oc2c([H])c([H])c3c(c2[H])C([H])([H])N(C(=O)C([H])(N([H])C(=O)C([H])(N([H])C([H])([H])[H])C([H])([H])[H])C(C([H])([H])[H])(C([H])([H])[H])C([H])([H])[H])C([H])(C(=O)N([H])C2([H])c4c([H])c([H])c([H])c([H])c4C([H])([H])C([H])([H])C2([H])[H])C3([H])[H])[N+]([H])(C([H])([H])[H])C([H])([H])C([H])([H])C([H])([H])C(=O)N2C([H])([H])C([H])([H])C([H])([H])C([H])(n3nc(-c4c([H])c([H])c(Oc5c([H])c([H])c(F)c([H])c5F)c([H])c4[H])c(C(=O)N([H])[H])c3N([H])[H])C2([H])[H])c(C([H])([H])[H])c1[H]

>  <smiles>  (11) 
[H]c1c([H])c([H])c(C([H])([H])C([H])(C([H])([H])C([H])([H])C([H])([H])Oc2c([H])c([H])c3c(c2[H])C([H])([H])N(C(=O)C([H])(N([H])C(=O)C([H])(N([H])C([H])([H])[H])C([H])([H])[H])C(C([H])([H])[H])(C([H])([H])[H])C([H])([H])[H])C([H])(C(=O)N([H])C2([H])c4c([H])c([H])c([H])c([H])c4C([H])([H])C([H])([H])C2([H])[H])C3([H])[H])[N+]([H])(C([H])([H])[H])C([H])([H])C([H])([H])C([H])([H])C(=O)N2C([H])([H])C([H])([H])C([H])([H])C([H])(n3nc(-c4c([H])c([H])c(Oc5c([H])c([H])c(F)c([H])c5F)c([H])c4[H])c(C(=O)N([H])[H])c3N([H])[H])C2([H])[H])c(C([H])([H])[H])c1[H]

$$$$
11:0:0
     RDKit          3D

 93100  0  0  1  0  0  0  0  0999 V2000
  -30.3490  -20.1590   22.5550 C   0  0  0  0  0  1  0  0  0  0  0  0
  -31.0750  -20.2510   21.1860 C   0  0  0  0  0  3  0  0  0  0  0  0
  -31.4540  -18.8770   20.5850 N   0  0  0  0  0  4  0  0  0  0  0  0
  -32.0480  -18.4490   21.2800 H   0  0  0  0  0  0  0  0  0  0  0  0
  -32.0560  -19.0260   19.7910 H   0  0  0  0  0  0  0  0  0  0  0  0
  -30.4040  -17.8210   20.2400 C   0  0  0  0  0  3  0  0  0  0  0  0
  -30.4640  -16.2820   20.8260 C   0  0  0  0  0  2  0  0  0  0  0  0
  -30.9780  -14.9280   20.1320 C   0  0  0  0  0  0  0  0  0  0  0  0
  -30.7340  -12.5660   19.3000 C   0  0  0  0  0  2  0  0  0  0  0  0
  -29.8090  -12.5300   18.0650 C   0  0  0  0  0  2  0  0  0  0  0  0
  -28.3350  -12.3880   18.4960 C   0  0  0  0  0  2  0  0  0  0  0  0
  -27.9530  -13.3820   19.6250 C   0  0  0  0  0  3  0  0  0  0  0  0
  -29.0080  -13.3940   20.7560 C   0  0  0  0  0  2  0  0  0  0  0  0
  -30.3170  -13.7050   20.1560 N   0  0  0  0  0  0  0  0  0  0  0  0
  -32.0820  -14.9880   19.5860 O   0  0  0  0  0  0  0  0  0  0  0  0
  -25.5610  -14.0300   20.3250 C   0  0  0  0  0  0  0  0  0  0  0  0
  -24.4840  -13.3090   20.7400 C   0  0  0  0  0  0  0  0  0  0  0  0
  -24.9140  -11.9500   20.7320 C   0  0  0  0  0  0  0  0  0  0  0  0
  -26.5980  -13.1340   20.1240 N   0  0  0  0  0  0  0  0  0  0  0  0
  -26.2030  -11.8660   20.4140 N   0  0  0  0  0  0  0  0  0  0  0  0
  -24.1480  -10.7210   20.9410 C   0  0  0  0  0  0  0  0  0  0  0  0
  -24.5590   -9.7460   21.8750 C   0  0  0  0  0  3  0  0  0  0  0  0
  -23.7890   -8.5800   22.0730 C   0  0  0  0  0  3  0  0  0  0  0  0
  -22.5950   -8.3870   21.3370 C   0  0  0  0  0  0  0  0  0  0  0  0
  -22.2010   -9.3520   20.3940 C   0  0  0  0  0  3  0  0  0  0  0  0
  -22.9750  -10.5080   20.1940 C   0  0  0  0  0  3  0  0  0  0  0  0
  -21.7980   -7.2730   21.4480 O   0  0  0  0  0  0  0  0  0  0  0  0
  -21.7540   -6.5340   22.6020 C   0  0  0  0  0  0  0  0  0  0  0  0
  -21.3960   -7.1080   23.8410 C   0  0  0  0  0  3  0  0  0  0  0  0
  -21.2930   -6.2970   24.9890 C   0  0  0  0  0  3  0  0  0  0  0  0
  -21.5370   -4.9130   24.8980 C   0  0  0  0  0  0  0  0  0  0  0  0
  -21.8900   -4.3400   23.6650 C   0  0  0  0  0  3  0  0  0  0  0  0
  -21.9950   -5.1480   22.5180 C   0  0  0  0  0  0  0  0  0  0  0  0
  -22.3170   -4.5870   21.3280 F   0  0  0  0  0  0  0  0  0  0  0  0
  -21.4260   -4.1310   25.9980 F   0  0  0  0  0  0  0  0  0  0  0  0
  -23.1100  -13.8480   21.0230 C   0  0  0  0  0  0  0  0  0  0  0  0
  -22.3760  -13.2000   21.9220 N   0  0  0  0  0  0  0  0  0  0  0  0
  -22.6990  -14.8770   20.4870 O   0  0  0  0  0  0  0  0  0  0  0  0
  -22.7180  -12.3610   22.3660 H   0  0  0  0  0  0  0  0  0  0  0  0
  -21.4540  -13.5440   22.1560 H   0  0  0  0  0  0  0  0  0  0  0  0
  -25.7100  -15.3700   20.0640 N   0  0  0  0  0  0  0  0  0  0  0  0
  -24.9230  -16.0090   20.0930 H   0  0  0  0  0  0  0  0  0  0  0  0
  -26.5560  -15.8100   19.7270 H   0  0  0  0  0  0  0  0  0  0  0  0
  -29.9320  -17.9800   18.7650 C   0  0  0  0  0  2  0  0  0  0  0  0
  -28.1670  -18.4550   17.0310 C   0  0  0  0  0  1  0  0  0  0  0  0
  -27.4510  -17.8380   19.4120 C   0  0  0  0  0  1  0  0  0  0  0  0
  -28.3580  -20.0610   18.8520 C   0  0  0  0  0  1  0  0  0  0  0  0
  -28.4970  -18.5640   18.5340 C   0  0  1  0  0  0  0  0  0  0  0  0
  -30.6210  -21.4900   20.2380 C   0  0  0  0  0  3  0  0  0  0  0  0
  -29.8210  -22.7530   20.8580 C   0  0  0  0  0  3  0  0  0  0  0  0
  -29.6490  -24.1480   20.0690 C   0  0  0  0  0  3  0  0  0  0  0  0
  -28.7700  -25.3110   20.7520 C   0  0  0  0  0  3  0  0  0  0  0  0
  -28.7790  -26.7000   20.2240 O   0  0  0  0  0  0  0  0  0  0  0  0
  -24.7460  -31.9130   23.2440 C   0  0  0  0  0  0  0  0  0  0  0  0
  -27.5990  -27.4640   20.2420 C   0  0  0  0  0  0  0  0  0  0  0  0
  -23.6250  -30.4840   21.5650 C   0  0  0  0  0  3  0  0  0  0  0  0
  -25.1630  -28.9730   20.1830 C   0  0  0  0  0  0  0  0  0  0  0  0
  -26.1540  -30.8890   21.4420 C   0  0  0  0  0  2  0  0  0  0  0  0
  -26.2990  -29.5120   20.8020 C   0  0  0  0  0  0  0  0  0  0  0  0
  -27.5180  -28.7710   20.8180 C   0  0  0  0  0  3  0  0  0  0  0  0
  -26.4350  -26.9660   19.6160 C   0  0  0  0  0  3  0  0  0  0  0  0
  -25.2310  -27.7030   19.5890 C   0  0  0  0  0  3  0  0  0  0  0  0
  -23.8960  -29.8070   20.1950 C   0  0  0  0  0  2  0  0  0  0  0  0
  -24.8590  -31.1130   22.1430 N   0  0  0  0  0  0  0  0  0  0  0  0
  -23.6410  -32.1540   23.7550 O   0  0  0  0  0  0  0  0  0  0  0  0
  -22.9680  -29.4500   22.5100 C   0  0  0  0  0  0  0  0  0  0  0  0
  -21.6450  -29.2610   22.3740 N   0  0  0  0  0  0  0  0  0  0  0  0
  -23.6490  -28.8200   23.3230 O   0  0  0  0  0  0  0  0  0  0  0  0
  -21.1500  -29.8230   21.6940 H   0  0  0  0  0  0  0  0  0  0  0  0
  -18.2740  -28.0350   22.8550 C   0  0  0  0  0  0  0  0  0  0  0  0
  -20.8350  -28.2980   23.1210 C   0  0  0  0  0  3  0  0  0  0  0  0
  -20.9390  -26.8850   22.5020 C   0  0  0  0  0  2  0  0  0  0  0  0
  -19.8310  -26.5860   21.4870 C   0  0  0  0  0  2  0  0  0  0  0  0
  -18.4550  -26.7030   22.1460 C   0  0  0  0  0  2  0  0  0  0  0  0
  -19.3920  -28.7900   23.2990 C   0  0  0  0  0  0  0  0  0  0  0  0
  -19.1720  -30.0370   23.9250 C   0  0  0  0  0  3  0  0  0  0  0  0
  -17.8650  -30.5310   24.1050 C   0  0  0  0  0  3  0  0  0  0  0  0
  -16.7630  -29.7700   23.6830 C   0  0  0  0  0  3  0  0  0  0  0  0
  -16.9690  -28.5240   23.0610 C   0  0  0  0  0  3  0  0  0  0  0  0
  -25.9930  -32.5800   23.9040 C   0  0  0  0  0  3  0  0  0  0  0  0
  -26.4810  -31.8390   25.2070 C   0  0  1  0  0  0  0  0  0  0  0  0
  -25.3580  -31.5930   26.2410 C   0  0  0  0  0  1  0  0  0  0  0  0
  -27.1010  -30.4670   24.8550 C   0  0  0  0  0  1  0  0  0  0  0  0
  -27.5910  -32.6620   25.9000 C   0  0  0  0  0  1  0  0  0  0  0  0
  -25.6450  -33.9770   24.2040 N   0  0  0  0  0  0  0  0  0  0  0  0
  -25.9810  -35.0270   23.4430 C   0  0  0  0  0  0  0  0  0  0  0  0
  -26.6820  -34.9240   22.4340 O   0  0  0  0  0  0  0  0  0  0  0  0
  -25.0240  -34.1300   24.9850 H   0  0  0  0  0  0  0  0  0  0  0  0
  -24.2250  -36.7780   23.0240 C   0  0  0  0  0  1  0  0  0  0  0  0
  -25.4550  -36.4110   23.8710 C   0  0  0  0  0  3  0  0  0  0  0  0
  -27.5510  -37.3510   24.7370 C   0  0  0  0  0  1  0  0  0  0  0  0
  -26.4670  -37.4830   23.7670 N   0  0  0  0  0  0  0  0  0  0  0  0
  -26.0400  -38.3960   23.8930 H   0  0  0  0  0  0  0  0  0  0  0  0
  2  1  1  0
  3  2  1  0
  3  4  1  0
  5  3  1  0
  6 44  1  0
  6  3  1  0
  6  7  1  0
  8 14  1  0
  8  7  1  0
  9 14  1  0
 10 11  1  0
 10  9  1  0
 12 11  1  0
 12 19  1  0
 12 13  1  0
 14 13  1  0
 15  8  2  0
 16 17  2  0
 17 36  1  0
 18 17  1  0
 18 21  1  0
 19 16  1  0
 19 20  1  0
 20 18  2  0
 21 22  1  0
 22 23  2  0
 24 27  1  0
 24 23  1  0
 25 24  2  0
 26 25  1  0
 26 21  2  0
 27 28  1  0
 28 29  1  0
 29 30  2  0
 31 30  1  0
 31 35  1  0
 32 31  2  0
 33 28  2  0
 33 32  1  0
 34 33  1  0
 36 37  1  0
 37 40  1  0
 37 39  1  0
 38 36  2  0
 41 42  1  0
 41 16  1  0
 43 41  1  0
 48 45  1  6
 48 44  1  0
 48 47  1  0
 48 46  1  0
 49 50  2  0
 49  2  1  0
 51 52  2  0
 51 50  1  0
 53 55  1  0
 53 52  1  0
 54 65  2  0
 55 60  1  0
 56 64  1  0
 56 66  1  0
 57 63  1  0
 57 59  1  0
 58 64  1  0
 59 60  2  0
 59 58  1  0
 61 55  2  0
 62 61  1  0
 62 57  2  0
 63 56  1  0
 64 54  1  0
 66 68  2  0
 67 66  1  0
 69 67  1  0
 70 79  2  0
 70 75  1  0
 71 67  1  0
 71 75  1  0
 72 71  1  0
 73 74  1  0
 73 72  1  0
 74 70  1  0
 75 76  2  0
 76 77  1  0
 78 77  2  0
 79 78  1  0
 80 54  1  0
 80 85  1  0
 80 81  1  0
 81 84  1  1
 81 82  1  0
 83 81  1  0
 85 88  1  0
 86 90  1  0
 86 85  1  0
 87 86  2  0
 90 89  1  0
 92 90  1  0
 92 93  1  0
 92 91  1  0
M  ISO  4   7 100   8 100  52 101  53 101
M  END
>  <TORSDO>  (12) 
F 25

>  <SCORE>  (12) 
-11.972

>  <name>  (12) 
11

>  <ligand_id>  (12) 
11

>  <original_smiles>  (12) 
[H]c1c([H])c([H])c2c(c1[H])C([H])([H])C([H])([H])C([H])([H])C2([H])N([H])C(=O)C1([H])N(C(=O)C([H])(N([H])C(=O)C([H])(N([H])C([H])([H])[H])C([H])([H])[H])C(C([H])([H])[H])(C([H])([H])[H])C([H])([H])[H])C([H])([H])c2c([H])c(OC([H])([H])C([H])([H])C([H])([H])C([H])([H])C([H])(C([H])([H])[H])[N+]([H])([H])C([H])(C([H])([H])C(=O)N3C([H])([H])C([H])([H])C([H])([H])C([H])(n4nc(-c5c([H])c([H])c(Oc6c([H])c([H])c(F)c([H])c6F)c([H])c5[H])c(C(=O)N([H])[H])c4N([H])[H])C3([H])[H])C([H])([H])C(C([H])([H])[H])(C([H])([H])[H])C([H])([H])[H])c([H])c([H])c2C1([H])[H]

>  <smiles>  (12) 
[H]c1c([H])c([H])c2c(c1[H])C([H])([H])C([H])([H])C([H])([H])C2([H])N([H])C(=O)C1([H])N(C(=O)C([H])(N([H])C(=O)C([H])(N([H])C([H])([H])[H])C([H])([H])[H])C(C([H])([H])[H])(C([H])([H])[H])C([H])([H])[H])C([H])([H])c2c([H])c(OC([H])([H])C([H])([H])C([H])([H])C([H])([H])C([H])(C([H])([H])[H])[N+]([H])([H])C([H])(C([H])([H])C(=O)N3C([H])([H])C([H])([H])C([H])([H])C([H])(n4nc(-c5c([H])c([H])c(Oc6c([H])c([H])c(F)c([H])c6F)c([H])c5[H])c(C(=O)N([H])[H])c4N([H])[H])C3([H])[H])C([H])([H])C(C([H])([H])[H])(C([H])([H])[H])C([H])([H])[H])c([H])c([H])c2C1([H])[H]

$$$$
12:0:0
     RDKit          3D

 98105  0  0  1  0  0  0  0  0999 V2000
  -27.2840  -25.0640   24.1420 C   0  0  0  0  0  3  0  0  0  0  0  0
  -27.9340  -25.8440   23.0690 N   0  0  0  0  0  4  0  0  0  0  0  0
  -27.7170  -26.7990   23.3350 H   0  0  0  0  0  0  0  0  0  0  0  0
  -28.9350  -25.7280   23.1080 H   0  0  0  0  0  0  0  0  0  0  0  0
  -27.4150  -25.5650   21.7070 C   0  0  0  0  0  2  0  0  0  0  0  0
  -28.1410  -26.3730   20.6080 C   0  0  0  0  0  2  0  0  0  0  0  0
  -27.3180  -26.5190   19.4480 O   0  0  0  0  0  0  0  0  0  0  0  0
  -24.3920  -31.8540   23.1420 C   0  0  0  0  0  0  0  0  0  0  0  0
  -26.2530  -27.3690   19.6160 C   0  0  0  0  0  0  0  0  0  0  0  0
  -22.8670  -30.5950   21.6520 C   0  0  0  0  0  3  0  0  0  0  0  0
  -23.9910  -29.0060   20.0060 C   0  0  0  0  0  0  0  0  0  0  0  0
  -25.3560  -30.7850   21.1130 C   0  0  0  0  0  2  0  0  0  0  0  0
  -25.2510  -29.4340   20.4420 C   0  0  0  0  0  0  0  0  0  0  0  0
  -26.3840  -28.6210   20.2560 C   0  0  0  0  0  3  0  0  0  0  0  0
  -24.9850  -26.9520   19.1630 C   0  0  0  0  0  3  0  0  0  0  0  0
  -23.8510  -27.7590   19.3670 C   0  0  0  0  0  3  0  0  0  0  0  0
  -22.8330  -29.9460   20.2420 C   0  0  0  0  0  2  0  0  0  0  0  0
  -24.2320  -31.0880   22.0250 N   0  0  0  0  0  0  0  0  0  0  0  0
  -23.4210  -32.1900   23.8320 O   0  0  0  0  0  0  0  0  0  0  0  0
  -22.2790  -29.5940   22.6710 C   0  0  0  0  0  0  0  0  0  0  0  0
  -20.9500  -29.4060   22.6240 N   0  0  0  0  0  0  0  0  0  0  0  0
  -23.0100  -28.9870   23.4560 O   0  0  0  0  0  0  0  0  0  0  0  0
  -20.4180  -29.9460   21.9570 H   0  0  0  0  0  0  0  0  0  0  0  0
  -17.6450  -28.0720   23.2070 C   0  0  0  0  0  0  0  0  0  0  0  0
  -20.1830  -28.4860   23.4630 C   0  0  0  0  0  3  0  0  0  0  0  0
  -20.3660  -27.0220   22.9970 C   0  0  0  0  0  2  0  0  0  0  0  0
  -19.2880  -26.5670   22.0090 C   0  0  0  0  0  2  0  0  0  0  0  0
  -17.8960  -26.6860   22.6360 C   0  0  0  0  0  2  0  0  0  0  0  0
  -18.7180  -28.9230   23.5800 C   0  0  0  0  0  0  0  0  0  0  0  0
  -18.4310  -30.2140   24.0720 C   0  0  0  0  0  3  0  0  0  0  0  0
  -17.1000  -30.6570   24.1960 C   0  0  0  0  0  3  0  0  0  0  0  0
  -16.0400  -29.8050   23.8410 C   0  0  0  0  0  3  0  0  0  0  0  0
  -16.3130  -28.5140   23.3530 C   0  0  0  0  0  3  0  0  0  0  0  0
  -25.7980  -32.3680   23.5870 C   0  0  0  0  0  3  0  0  0  0  0  0
  -25.6300  -33.7390   24.0830 N   0  0  0  0  0  0  0  0  0  0  0  0
  -25.9460  -34.8410   23.3900 C   0  0  0  0  0  0  0  0  0  0  0  0
  -26.4820  -34.8040   22.2780 O   0  0  0  0  0  0  0  0  0  0  0  0
  -25.1460  -33.8470   24.9620 H   0  0  0  0  0  0  0  0  0  0  0  0
  -24.3260  -36.7630   23.4080 C   0  0  0  0  0  1  0  0  0  0  0  0
  -25.6140  -36.2020   24.0320 C   0  0  0  0  0  3  0  0  0  0  0  0
  -27.8870  -36.8550   24.6920 C   0  0  0  0  0  1  0  0  0  0  0  0
  -26.7040  -37.1950   23.9070 N   0  0  0  0  0  0  0  0  0  0  0  0
  -26.3870  -38.1150   24.1960 H   0  0  0  0  0  0  0  0  0  0  0  0
  -26.4790  -31.4530   24.6790 C   0  0  1  0  0  0  0  0  0  0  0  0
  -25.5650  -31.1470   25.8880 C   0  0  0  0  0  1  0  0  0  0  0  0
  -26.9150  -30.1040   24.0620 C   0  0  0  0  0  1  0  0  0  0  0  0
  -27.7630  -32.1350   25.2070 C   0  0  0  0  0  1  0  0  0  0  0  0
  -26.0580  -25.8700   24.6160 C   0  0  0  0  0  2  0  0  0  0  0  0
  -26.4780  -27.1930   24.9280 O   0  0  0  0  0  0  0  0  0  0  0  0
  -26.7410  -27.2120   25.8440 H   0  0  0  0  0  0  0  0  0  0  0  0
  -28.2660  -24.7500   25.3010 C   0  0  0  0  0  2  0  0  0  0  0  0
  -28.4380  -23.2420   25.5900 C   0  0  0  0  0  2  0  0  0  0  0  0
  -29.5690  -22.5690   24.7880 C   0  0  0  0  0  2  0  0  0  0  0  0
  -29.3140  -22.4830   23.2710 C   0  0  0  0  0  2  0  0  0  0  0  0
  -30.2630  -21.4870   22.5700 C   0  0  0  0  0  2  0  0  0  0  0  0
  -30.2980  -22.5040   20.3040 C   0  0  0  0  0  1  0  0  0  0  0  0
  -29.9870  -21.3010   21.1160 N   0  0  1  0  0  4  0  0  0  0  0  0
  -28.9950  -21.1400   21.0190 H   0  0  0  0  0  0  0  0  0  0  0  0
  -30.6520  -20.1080   20.5260 C   0  0  0  0  0  2  0  0  0  0  0  0
  -30.1140  -18.7600   21.0370 C   0  0  0  0  0  2  0  0  0  0  0  0
  -30.8600  -17.5750   20.4110 C   0  0  0  0  0  2  0  0  0  0  0  0
  -30.2910  -16.2220   20.8720 C   0  0  0  0  0  2  0  0  0  0  0  0
  -31.0130  -15.0130   20.2580 C   0  0  0  0  0  0  0  0  0  0  0  0
  -30.8510  -12.6970   19.4220 C   0  0  0  0  0  2  0  0  0  0  0  0
  -29.9980  -12.6750   18.1380 C   0  0  0  0  0  2  0  0  0  0  0  0
  -28.5000  -12.5530   18.4800 C   0  0  0  0  0  2  0  0  0  0  0  0
  -28.0480  -13.5830   19.5490 C   0  0  0  0  0  3  0  0  0  0  0  0
  -29.0190  -13.5740   20.7530 C   0  0  0  0  0  2  0  0  0  0  0  0
  -30.3790  -13.8150   20.2460 N   0  0  0  0  0  0  0  0  0  0  0  0
  -32.1220  -15.1820   19.7390 O   0  0  0  0  0  0  0  0  0  0  0  0
  -25.5970  -14.2360   20.0010 C   0  0  0  0  0  0  0  0  0  0  0  0
  -24.5140  -13.4970   20.3980 C   0  0  0  0  0  0  0  0  0  0  0  0
  -24.9910  -12.1640   20.5790 C   0  0  0  0  0  0  0  0  0  0  0  0
  -26.6660  -13.3520   19.9650 N   0  0  0  0  0  0  0  0  0  0  0  0
  -26.2980  -12.1080   20.3670 N   0  0  0  0  0  0  0  0  0  0  0  0
  -24.2690  -10.9230   20.8890 C   0  0  0  0  0  0  0  0  0  0  0  0
  -24.6570  -10.0920   21.9620 C   0  0  0  0  0  3  0  0  0  0  0  0
  -23.9360   -8.9140   22.2530 C   0  0  0  0  0  3  0  0  0  0  0  0
  -22.8140   -8.5570   21.4680 C   0  0  0  0  0  0  0  0  0  0  0  0
  -22.4440   -9.3760   20.3880 C   0  0  0  0  0  3  0  0  0  0  0  0
  -23.1660  -10.5470   20.0970 C   0  0  0  0  0  3  0  0  0  0  0  0
  -22.0700   -7.4180   21.6600 O   0  0  0  0  0  0  0  0  0  0  0  0
  -21.9090   -6.8640   22.9040 C   0  0  0  0  0  0  0  0  0  0  0  0
  -21.4030   -7.6080   23.9920 C   0  0  0  0  0  3  0  0  0  0  0  0
  -21.1890   -6.9790   25.2350 C   0  0  0  0  0  3  0  0  0  0  0  0
  -21.4720   -5.6090   25.3900 C   0  0  0  0  0  0  0  0  0  0  0  0
  -21.9710   -4.8660   24.3070 C   0  0  0  0  0  3  0  0  0  0  0  0
  -22.1870   -5.4910   23.0660 C   0  0  0  0  0  0  0  0  0  0  0  0
  -22.6480   -4.7660   22.0190 F   0  0  0  0  0  0  0  0  0  0  0  0
  -21.2600   -5.0030   26.5820 F   0  0  0  0  0  0  0  0  0  0  0  0
  -23.0960  -13.9780   20.5100 C   0  0  0  0  0  0  0  0  0  0  0  0
  -22.3250  -13.4010   21.4260 N   0  0  0  0  0  0  0  0  0  0  0  0
  -22.6770  -14.9050   19.8190 O   0  0  0  0  0  0  0  0  0  0  0  0
  -22.6760  -12.6530   22.0070 H   0  0  0  0  0  0  0  0  0  0  0  0
  -21.3720  -13.7110   21.5480 H   0  0  0  0  0  0  0  0  0  0  0  0
  -25.7610  -15.5720   19.6510 N   0  0  0  0  0  0  0  0  0  0  0  0
  -24.9840  -16.2240   19.6140 H   0  0  0  0  0  0  0  0  0  0  0  0
  -26.6330  -15.9760   19.3350 H   0  0  0  0  0  0  0  0  0  0  0  0
  1 48  1  0
  1 51  1  0
  2  4  1  0
  2  3  1  0
  2  1  1  0
  5  2  1  0
  6  5  1  0
  7  9  1  0
  7  6  1  0
  8 19  2  0
  9 14  1  0
 10 18  1  0
 10 20  1  0
 11 17  1  0
 11 13  1  0
 12 18  1  0
 13 12  1  0
 14 13  2  0
 15 16  1  0
 15  9  2  0
 16 11  2  0
 17 10  1  0
 18  8  1  0
 20 22  2  0
 21 20  1  0
 23 21  1  0
 24 33  2  0
 24 29  1  0
 25 21  1  0
 25 29  1  0
 26 25  1  0
 27 28  1  0
 27 26  1  0
 28 24  1  0
 29 30  2  0
 30 31  1  0
 32 31  2  0
 33 32  1  0
 34  8  1  0
 34 35  1  0
 34 44  1  0
 35 38  1  0
 36 40  1  0
 36 35  1  0
 37 36  2  0
 40 39  1  0
 42 40  1  0
 42 43  1  0
 42 41  1  0
 44 47  1  1
 44 45  1  0
 46 44  1  0
 48 49  1  0
 49 50  1  0
 51 52  1  0
 53 52  1  0
 54 53  1  0
 55 54  1  0
 56 57  1  0
 57 55  1  0
 57 58  1  1
 59 60  1  0
 59 57  1  0
 61 62  1  0
 61 60  1  0
 63 62  1  0
 64 69  1  0
 65 66  1  0
 65 64  1  0
 67 66  1  0
 67 74  1  0
 67 68  1  0
 69 63  1  0
 69 68  1  0
 70 63  2  0
 71 72  2  0
 72 91  1  0
 72 73  1  0
 73 76  1  0
 74 71  1  0
 74 75  1  0
 75 73  2  0
 76 77  1  0
 77 78  2  0
 79 82  1  0
 79 78  1  0
 80 79  2  0
 81 80  1  0
 81 76  2  0
 82 83  1  0
 83 88  2  0
 83 84  1  0
 84 85  2  0
 85 86  1  0
 86 90  1  0
 87 86  2  0
 88 87  1  0
 89 88  1  0
 91 92  1  0
 92 95  1  0
 92 94  1  0
 93 91  2  0
 96 71  1  0
 97 96  1  0
 98 96  1  0
M  ISO  4   6 101   7 101  62 100  63 100
M  END
>  <TORSDO>  (13) 
F 31

>  <SCORE>  (13) 
-3.552

>  <name>  (13) 
12

>  <ligand_id>  (13) 
12

>  <original_smiles>  (13) 
[H]OC([H])([H])C([H])(C([H])([H])C([H])([H])C([H])([H])C([H])([H])C([H])([H])[N+]([H])(C([H])([H])[H])C([H])([H])C([H])([H])C([H])([H])C([H])([H])C(=O)N1C([H])([H])C([H])([H])C([H])([H])C([H])(n2nc(-c3c([H])c([H])c(Oc4c([H])c([H])c(F)c([H])c4F)c([H])c3[H])c(C(=O)N([H])[H])c2N([H])[H])C1([H])[H])[N+]([H])([H])C([H])([H])C([H])([H])Oc1c([H])c([H])c2c(c1[H])C([H])([H])N(C(=O)C([H])(N([H])C(=O)C([H])(N([H])C([H])([H])[H])C([H])([H])[H])C(C([H])([H])[H])(C([H])([H])[H])C([H])([H])[H])C([H])(C(=O)N([H])C1([H])c3c([H])c([H])c([H])c([H])c3C([H])([H])C([H])([H])C1([H])[H])C2([H])[H]

>  <smiles>  (13) 
[H]OC([H])([H])C([H])(C([H])([H])C([H])([H])C([H])([H])C([H])([H])C([H])([H])[N+]([H])(C([H])([H])[H])C([H])([H])C([H])([H])C([H])([H])C([H])([H])C(=O)N1C([H])([H])C([H])([H])C([H])([H])C([H])(n2nc(-c3c([H])c([H])c(Oc4c([H])c([H])c(F)c([H])c4F)c([H])c3[H])c(C(=O)N([H])[H])c2N([H])[H])C1([H])[H])[N+]([H])([H])C([H])([H])C([H])([H])Oc1c([H])c([H])c2c(c1[H])C([H])([H])N(C(=O)C([H])(N([H])C(=O)C([H])(N([H])C([H])([H])[H])C([H])([H])[H])C(C([H])([H])[H])(C([H])([H])[H])C([H])([H])[H])C([H])(C(=O)N([H])C1([H])c3c([H])c([H])c([H])c([H])c3C([H])([H])C([H])([H])C1([H])[H])C2([H])[H]

$$$$
13:0:0
     RDKit          3D

101109  0  0  1  0  0  0  0  0999 V2000
  -34.7020  -22.0390   21.8030 C   0  0  0  0  0  2  0  0  0  0  0  0
  -34.4160  -21.9150   20.3040 C   0  0  0  0  0  2  0  0  0  0  0  0
  -33.6420  -21.3140   22.6530 C   0  0  0  0  0  2  0  0  0  0  0  0
  -33.0360  -22.5090   19.9340 C   0  0  0  0  0  3  0  0  0  0  0  0
  -32.3720  -20.8840   21.8700 C   0  0  0  0  0  3  0  0  0  0  0  0
  -31.9410  -22.0820   20.9720 C   0  0  0  0  0  3  0  0  0  0  0  0
  -30.5220  -22.0150   20.3630 C   0  0  0  0  0  2  0  0  0  0  0  0
  -30.4270  -22.0790   18.8250 C   0  0  0  0  0  2  0  0  0  0  0  0
  -29.9880  -23.4760   18.3520 C   0  0  0  0  0  2  0  0  0  0  0  0
  -29.1620  -23.4840   17.0590 C   0  0  0  0  0  2  0  0  0  0  0  0
  -29.1180  -24.8400   16.6390 O   0  0  0  0  0  0  0  0  0  0  0  0
  -26.3870  -28.5250   22.0700 C   0  0  0  0  0  0  0  0  0  0  0  0
  -28.0860  -25.6190   17.0980 C   0  0  0  0  0  0  0  0  0  0  0  0
  -24.9400  -28.3290   20.0700 C   0  0  0  0  0  3  0  0  0  0  0  0
  -26.0580  -27.3650   17.9900 C   0  0  0  0  0  0  0  0  0  0  0  0
  -27.4880  -28.2190   19.8600 C   0  0  0  0  0  2  0  0  0  0  0  0
  -27.2880  -27.3230   18.6570 C   0  0  0  0  0  0  0  0  0  0  0  0
  -28.3100  -26.4610   18.2060 C   0  0  0  0  0  3  0  0  0  0  0  0
  -26.8380  -25.6540   16.4410 C   0  0  0  0  0  3  0  0  0  0  0  0
  -25.8240  -26.5300   16.8810 C   0  0  0  0  0  3  0  0  0  0  0  0
  -25.0280  -28.3370   18.5210 C   0  0  0  0  0  2  0  0  0  0  0  0
  -26.2920  -28.3380   20.7250 N   0  0  0  0  0  0  0  0  0  0  0  0
  -25.3790  -28.7300   22.7600 O   0  0  0  0  0  0  0  0  0  0  0  0
  -24.0620  -27.1350   20.5070 C   0  0  0  0  0  0  0  0  0  0  0  0
  -22.7320  -27.3150   20.4270 N   0  0  0  0  0  0  0  0  0  0  0  0
  -24.5730  -26.0730   20.8750 O   0  0  0  0  0  0  0  0  0  0  0  0
  -22.3950  -28.2160   20.1200 H   0  0  0  0  0  0  0  0  0  0  0  0
  -19.1680  -26.7800   20.6560 C   0  0  0  0  0  0  0  0  0  0  0  0
  -21.7090  -26.3210   20.7470 C   0  0  0  0  0  3  0  0  0  0  0  0
  -21.4760  -25.3610   19.5570 C   0  0  0  0  0  2  0  0  0  0  0  0
  -20.3390  -25.8110   18.6330 C   0  0  0  0  0  2  0  0  0  0  0  0
  -19.0250  -25.9210   19.4110 C   0  0  0  0  0  2  0  0  0  0  0  0
  -20.4300  -26.9810   21.2740 C   0  0  0  0  0  0  0  0  0  0  0  0
  -20.5110  -27.8190   22.4080 C   0  0  0  0  0  3  0  0  0  0  0  0
  -19.3610  -28.4470   22.9240 C   0  0  0  0  0  3  0  0  0  0  0  0
  -18.1120  -28.2300   22.3170 C   0  0  0  0  0  3  0  0  0  0  0  0
  -18.0160  -27.3950   21.1910 C   0  0  0  0  0  3  0  0  0  0  0  0
  -27.7670  -28.5170   22.7980 C   0  0  0  0  0  3  0  0  0  0  0  0
  -27.6860  -29.4760   23.9100 N   0  0  0  0  0  0  0  0  0  0  0  0
  -28.3260  -30.6520   23.9450 C   0  0  0  0  0  0  0  0  0  0  0  0
  -29.1090  -31.0160   23.0610 O   0  0  0  0  0  0  0  0  0  0  0  0
  -27.0250  -29.2640   24.6420 H   0  0  0  0  0  0  0  0  0  0  0  0
  -27.0760  -32.6860   24.7270 C   0  0  0  0  0  1  0  0  0  0  0  0
  -28.0490  -31.5730   25.1460 C   0  0  0  0  0  3  0  0  0  0  0  0
  -30.1270  -31.1970   26.4000 C   0  0  0  0  0  1  0  0  0  0  0  0
  -29.2740  -32.1690   25.7230 N   0  0  0  0  0  0  0  0  0  0  0  0
  -29.0380  -32.9010   26.3880 H   0  0  0  0  0  0  0  0  0  0  0  0
  -28.1800  -27.0880   23.3250 C   0  0  1  0  0  0  0  0  0  0  0  0
  -27.0880  -26.4000   24.1750 C   0  0  0  0  0  1  0  0  0  0  0  0
  -28.5190  -26.1500   22.1430 C   0  0  0  0  0  1  0  0  0  0  0  0
  -29.4580  -27.1980   24.1890 C   0  0  0  0  0  1  0  0  0  0  0  0
  -31.2360  -20.4340   22.8250 C   0  0  0  0  0  2  0  0  0  0  0  0
  -31.2540  -18.9730   23.3350 C   0  0  0  0  0  3  0  0  0  0  0  0
  -30.5570  -18.0520   22.3970 N   0  0  0  0  0  4  0  0  0  0  0  0
  -29.5610  -18.1990   22.4570 H   0  0  0  0  0  0  0  0  0  0  0  0
  -30.8330  -18.3040   21.4630 H   0  0  0  0  0  0  0  0  0  0  0  0
  -30.8430  -16.6100   22.5840 C   0  0  0  0  0  2  0  0  0  0  0  0
  -30.9580  -15.8340   21.2580 C   0  0  0  0  0  2  0  0  0  0  0  0
  -30.3980  -14.3960   21.3890 C   0  0  0  0  0  2  0  0  0  0  0  0
  -30.8050  -13.4180   20.2720 C   0  0  0  0  0  0  0  0  0  0  0  0
  -30.3060  -11.3650   18.9820 C   0  0  0  0  0  2  0  0  0  0  0  0
  -29.2650  -11.6470   17.8810 C   0  0  0  0  0  2  0  0  0  0  0  0
  -27.8240  -11.5500   18.4240 C   0  0  0  0  0  2  0  0  0  0  0  0
  -27.6360  -12.3550   19.7380 C   0  0  0  0  0  3  0  0  0  0  0  0
  -28.7670  -12.0270   20.7410 C   0  0  0  0  0  2  0  0  0  0  0  0
  -30.0570  -12.3000   20.0860 N   0  0  0  0  0  0  0  0  0  0  0  0
  -31.7970  -13.6770   19.5800 O   0  0  0  0  0  0  0  0  0  0  0  0
  -25.3300  -13.0440   20.6600 C   0  0  0  0  0  0  0  0  0  0  0  0
  -24.2600  -12.3040   21.0910 C   0  0  0  0  0  0  0  0  0  0  0  0
  -24.6540  -10.9370   20.9750 C   0  0  0  0  0  0  0  0  0  0  0  0
  -26.3130  -12.1270   20.3160 N   0  0  0  0  0  0  0  0  0  0  0  0
  -25.9120  -10.8520   20.5580 N   0  0  0  0  0  0  0  0  0  0  0  0
  -23.8890   -9.7010   21.1840 C   0  0  0  0  0  0  0  0  0  0  0  0
  -24.3470   -8.6850   22.0490 C   0  0  0  0  0  3  0  0  0  0  0  0
  -23.5840   -7.5120   22.2430 C   0  0  0  0  0  3  0  0  0  0  0  0
  -22.3510   -7.3500   21.5690 C   0  0  0  0  0  0  0  0  0  0  0  0
  -21.9130   -8.3530   20.6850 C   0  0  0  0  0  3  0  0  0  0  0  0
  -22.6750   -9.5160   20.4920 C   0  0  0  0  0  3  0  0  0  0  0  0
  -21.5550   -6.2350   21.6790 O   0  0  0  0  0  0  0  0  0  0  0  0
  -21.5730   -5.4400   22.7960 C   0  0  0  0  0  0  0  0  0  0  0  0
  -21.2060   -5.9340   24.0670 C   0  0  0  0  0  3  0  0  0  0  0  0
  -21.1760   -5.0680   25.1780 C   0  0  0  0  0  3  0  0  0  0  0  0
  -21.5020   -3.7070   25.0220 C   0  0  0  0  0  0  0  0  0  0  0  0
  -21.8600   -3.2120   23.7570 C   0  0  0  0  0  3  0  0  0  0  0  0
  -21.8930   -4.0750   22.6470 C   0  0  0  0  0  0  0  0  0  0  0  0
  -22.2200   -3.5880   21.4250 F   0  0  0  0  0  0  0  0  0  0  0  0
  -21.4630   -2.8720   26.0860 F   0  0  0  0  0  0  0  0  0  0  0  0
  -22.9120  -12.8270   21.4980 C   0  0  0  0  0  0  0  0  0  0  0  0
  -22.2260  -12.1240   22.3960 N   0  0  0  0  0  0  0  0  0  0  0  0
  -22.4800  -13.8890   21.0570 O   0  0  0  0  0  0  0  0  0  0  0  0
  -22.5930  -11.2620   22.7720 H   0  0  0  0  0  0  0  0  0  0  0  0
  -21.3200  -12.4450   22.7050 H   0  0  0  0  0  0  0  0  0  0  0  0
  -25.5430  -14.4110   20.5130 N   0  0  0  0  0  0  0  0  0  0  0  0
  -24.8230  -15.1010   20.6950 H   0  0  0  0  0  0  0  0  0  0  0  0
  -26.4020  -14.8210   20.1660 H   0  0  0  0  0  0  0  0  0  0  0  0
  -29.4160  -19.6590   25.0560 C   0  0  0  0  0  1  0  0  0  0  0  0
  -30.7270  -18.8990   24.7900 C   0  0  0  0  0  2  0  0  0  0  0  0
  -33.0140  -24.0540   19.7150 C   0  0  0  0  0  2  0  0  0  0  0  0
  -34.1590  -24.7170   18.9150 C   0  0  0  0  0  2  0  0  0  0  0  0
  -35.2250  -25.2880   16.6780 C   0  0  0  0  0  1  0  0  0  0  0  0
  -34.1030  -24.5210   17.3910 C   0  0  0  0  0  2  0  0  0  0  0  0
  1  3  1  0
  2  1  1  0
  4 98  1  0
  4  2  1  0
  4  6  1  0
  5  3  1  0
  5 52  1  0
  6  7  1  0
  6  5  1  0
  8  7  1  0
  9  8  1  0
 10  9  1  0
 11 10  1  0
 11 13  1  0
 12 23  2  0
 13 18  1  0
 14 24  1  0
 14 22  1  0
 15 21  1  0
 15 17  1  0
 16 22  1  0
 17 16  1  0
 18 17  2  0
 19 20  1  0
 19 13  2  0
 20 15  2  0
 21 14  1  0
 22 12  1  0
 24 26  2  0
 25 24  1  0
 27 25  1  0
 28 37  2  0
 28 33  1  0
 29 25  1  0
 29 33  1  0
 30 29  1  0
 31 32  1  0
 31 30  1  0
 32 28  1  0
 33 34  2  0
 34 35  1  0
 36 35  2  0
 37 36  1  0
 38 12  1  0
 38 48  1  0
 38 39  1  0
 39 40  1  0
 39 42  1  0
 40 44  1  0
 41 40  2  0
 44 43  1  0
 44 46  1  0
 46 47  1  0
 46 45  1  0
 48 49  1  1
 48 51  1  0
 50 48  1  0
 53 52  1  0
 53 97  1  0
 54 55  1  0
 54 57  1  0
 54 53  1  0
 56 54  1  0
 58 59  1  0
 58 57  1  0
 60 59  1  0
 61 66  1  0
 62 63  1  0
 62 61  1  0
 64 63  1  0
 64 71  1  0
 64 65  1  0
 66 60  1  0
 66 65  1  0
 67 60  2  0
 68 69  2  0
 69 88  1  0
 70 69  1  0
 70 73  1  0
 71 72  1  0
 71 68  1  0
 72 70  2  0
 73 74  1  0
 74 75  2  0
 76 79  1  0
 76 75  1  0
 77 76  2  0
 78 77  1  0
 78 73  2  0
 79 80  1  0
 80 81  1  0
 81 82  2  0
 83 82  1  0
 83 87  1  0
 84 83  2  0
 85 80  2  0
 85 84  1  0
 86 85  1  0
 88 89  1  0
 89 92  1  0
 89 91  1  0
 90 88  2  0
 93 68  1  0
 93 94  1  0
 95 93  1  0
 97 96  1  0
 99 98  1  0
100101  1  0
101 99  1  0
M  ISO  4  10 101  11 101  59 100  60 100
M  END
>  <TORSDO>  (14) 
F 30

>  <SCORE>  (14) 
-4.002

>  <name>  (14) 
13

>  <ligand_id>  (14) 
13

>  <original_smiles>  (14) 
[H]c1c([H])c([H])c2c(c1[H])C([H])([H])C([H])([H])C([H])([H])C2([H])N([H])C(=O)C1([H])N(C(=O)C([H])(N([H])C(=O)C([H])(N([H])C([H])([H])[H])C([H])([H])[H])C(C([H])([H])[H])(C([H])([H])[H])C([H])([H])[H])C([H])([H])c2c([H])c(OC([H])([H])C([H])([H])C([H])([H])C([H])([H])C3([H])C([H])(C([H])([H])C([H])([H])C([H])([H])C([H])([H])[H])C([H])([H])C([H])([H])C([H])([H])C3([H])C([H])([H])C([H])(C([H])([H])C([H])([H])[H])[N+]([H])([H])C([H])([H])C([H])([H])C([H])([H])C(=O)N3C([H])([H])C([H])([H])C([H])([H])C([H])(n4nc(-c5c([H])c([H])c(Oc6c([H])c([H])c(F)c([H])c6F)c([H])c5[H])c(C(=O)N([H])[H])c4N([H])[H])C3([H])[H])c([H])c([H])c2C1([H])[H]

>  <smiles>  (14) 
[H]c1c([H])c([H])c2c(c1[H])C([H])([H])C([H])([H])C([H])([H])C2([H])N([H])C(=O)C1([H])N(C(=O)C([H])(N([H])C(=O)C([H])(N([H])C([H])([H])[H])C([H])([H])[H])C(C([H])([H])[H])(C([H])([H])[H])C([H])([H])[H])C([H])([H])c2c([H])c(OC([H])([H])C([H])([H])C([H])([H])C([H])([H])C3([H])C([H])(C([H])([H])C([H])([H])C([H])([H])C([H])([H])[H])C([H])([H])C([H])([H])C([H])([H])C3([H])C([H])([H])C([H])(C([H])([H])C([H])([H])[H])[N+]([H])([H])C([H])([H])C([H])([H])C([H])([H])C(=O)N3C([H])([H])C([H])([H])C([H])([H])C([H])(n4nc(-c5c([H])c([H])c(Oc6c([H])c([H])c(F)c([H])c6F)c([H])c5[H])c(C(=O)N([H])[H])c4N([H])[H])C3([H])[H])c([H])c([H])c2C1([H])[H]

$$$$
14:0:0
     RDKit          3D

 97104  0  0  1  0  0  0  0  0999 V2000
  -29.9400  -20.7290   17.2020 C   0  0  0  0  0  1  0  0  0  0  0  0
  -30.1460  -21.5290   18.5030 C   0  0  0  0  0  3  0  0  0  0  0  0
  -30.0620  -22.9930   18.2570 N   0  0  0  0  0  4  0  0  0  0  0  0
  -30.4210  -23.4570   19.0750 H   0  0  0  0  0  0  0  0  0  0  0  0
  -30.6700  -23.2440   17.4920 H   0  0  0  0  0  0  0  0  0  0  0  0
  -28.6990  -23.5200   17.9900 C   0  0  0  0  0  2  0  0  0  0  0  0
  -28.5660  -25.0300   18.2960 C   0  0  0  0  0  2  0  0  0  0  0  0
  -28.4000  -25.3330   19.8000 C   0  0  0  0  0  2  0  0  0  0  0  0
  -28.3800  -26.7350   20.0730 O   0  0  0  0  0  0  0  0  0  0  0  0
  -24.5370  -31.8130   23.2260 C   0  0  0  0  0  0  0  0  0  0  0  0
  -27.1760  -27.4100   20.0840 C   0  0  0  0  0  0  0  0  0  0  0  0
  -23.3270  -30.4350   21.5660 C   0  0  0  0  0  3  0  0  0  0  0  0
  -24.7740  -28.9050   20.1310 C   0  0  0  0  0  0  0  0  0  0  0  0
  -25.8530  -30.7880   21.3750 C   0  0  0  0  0  2  0  0  0  0  0  0
  -25.9330  -29.4250   20.7190 C   0  0  0  0  0  0  0  0  0  0  0  0
  -27.1350  -28.6860   20.6910 C   0  0  0  0  0  3  0  0  0  0  0  0
  -25.9910  -26.8940   19.5070 C   0  0  0  0  0  3  0  0  0  0  0  0
  -24.7960  -27.6380   19.5280 C   0  0  0  0  0  3  0  0  0  0  0  0
  -23.5340  -29.7680   20.1810 C   0  0  0  0  0  2  0  0  0  0  0  0
  -24.5910  -31.0260   22.1150 N   0  0  0  0  0  0  0  0  0  0  0  0
  -23.4560  -32.0840   23.7670 O   0  0  0  0  0  0  0  0  0  0  0  0
  -22.6710  -29.4060   22.5130 C   0  0  0  0  0  0  0  0  0  0  0  0
  -21.3430  -29.2440   22.3910 N   0  0  0  0  0  0  0  0  0  0  0  0
  -23.3520  -28.7560   23.3100 O   0  0  0  0  0  0  0  0  0  0  0  0
  -20.8560  -29.8220   21.7200 H   0  0  0  0  0  0  0  0  0  0  0  0
  -17.9550  -28.1040   22.8990 C   0  0  0  0  0  0  0  0  0  0  0  0
  -20.5180  -28.3060   23.1510 C   0  0  0  0  0  3  0  0  0  0  0  0
  -20.5870  -26.8860   22.5430 C   0  0  0  0  0  2  0  0  0  0  0  0
  -19.4690  -26.6070   21.5330 C   0  0  0  0  0  2  0  0  0  0  0  0
  -18.0970  -26.7650   22.1940 C   0  0  0  0  0  2  0  0  0  0  0  0
  -19.0920  -28.8340   23.3340 C   0  0  0  0  0  0  0  0  0  0  0  0
  -18.9030  -30.0910   23.9500 C   0  0  0  0  0  3  0  0  0  0  0  0
  -17.6110  -30.6130   24.1390 C   0  0  0  0  0  3  0  0  0  0  0  0
  -16.4880  -29.8780   23.7230 C   0  0  0  0  0  3  0  0  0  0  0  0
  -16.6610  -28.6250   23.1080 C   0  0  0  0  0  3  0  0  0  0  0  0
  -25.8260  -32.4290   23.8550 C   0  0  0  0  0  3  0  0  0  0  0  0
  -25.5340  -33.8320   24.1770 N   0  0  0  0  0  0  0  0  0  0  0  0
  -25.8950  -34.8760   23.4190 C   0  0  0  0  0  0  0  0  0  0  0  0
  -26.5780  -34.7600   22.3980 O   0  0  0  0  0  0  0  0  0  0  0  0
  -24.9320  -33.9980   24.9690 H   0  0  0  0  0  0  0  0  0  0  0  0
  -24.1930  -36.6860   23.0290 C   0  0  0  0  0  1  0  0  0  0  0  0
  -25.4160  -36.2720   23.8620 C   0  0  0  0  0  3  0  0  0  0  0  0
  -27.5520  -37.1300   24.7180 C   0  0  0  0  0  1  0  0  0  0  0  0
  -26.4610  -37.3140   23.7630 N   0  0  0  0  0  0  0  0  0  0  0  0
  -26.0640  -38.2370   23.9120 H   0  0  0  0  0  0  0  0  0  0  0  0
  -26.3240  -31.6540   25.1360 C   0  0  1  0  0  0  0  0  0  0  0  0
  -25.2220  -31.4310   26.1980 C   0  0  0  0  0  1  0  0  0  0  0  0
  -26.8930  -30.2700   24.7490 C   0  0  0  0  0  1  0  0  0  0  0  0
  -27.4810  -32.4350   25.8040 C   0  0  0  0  0  1  0  0  0  0  0  0
  -31.4940  -21.1580   19.1710 C   0  0  0  0  0  2  0  0  0  0  0  0
  -31.6790  -21.7140   20.6060 C   0  0  0  0  0  2  0  0  0  0  0  0
  -31.0190  -20.8590   21.7300 C   0  0  0  0  0  3  0  0  0  0  0  0
  -32.9170  -19.5490   22.7640 C   0  0  0  0  0  1  0  0  0  0  0  0
  -31.7530  -19.5540   21.8380 N   0  0  1  0  0  4  0  0  0  0  0  0
  -32.1600  -19.4490   20.9210 H   0  0  0  0  0  0  0  0  0  0  0  0
  -30.8970  -18.3410   21.9690 C   0  0  0  0  0  2  0  0  0  0  0  0
  -31.4960  -17.1450   21.2110 C   0  0  0  0  0  2  0  0  0  0  0  0
  -30.6530  -15.8540   21.3150 C   0  0  0  0  0  2  0  0  0  0  0  0
  -31.2400  -14.6900   20.4970 C   0  0  0  0  0  0  0  0  0  0  0  0
  -30.9050  -12.5160   19.3790 C   0  0  0  0  0  2  0  0  0  0  0  0
  -29.9910  -12.6950   18.1530 C   0  0  0  0  0  2  0  0  0  0  0  0
  -28.5090  -12.5950   18.5600 C   0  0  0  0  0  2  0  0  0  0  0  0
  -28.1610  -13.4940   19.7770 C   0  0  0  0  0  3  0  0  0  0  0  0
  -29.1900  -13.3010   20.9150 C   0  0  0  0  0  2  0  0  0  0  0  0
  -30.5330  -13.5390   20.3650 N   0  0  0  0  0  0  0  0  0  0  0  0
  -32.3240  -14.8640   19.9300 O   0  0  0  0  0  0  0  0  0  0  0  0
  -25.7690  -14.1720   20.4510 C   0  0  0  0  0  0  0  0  0  0  0  0
  -24.6750  -13.4300   20.8070 C   0  0  0  0  0  0  0  0  0  0  0  0
  -25.0970  -12.0650   20.7820 C   0  0  0  0  0  0  0  0  0  0  0  0
  -26.7930  -13.2620   20.2370 N   0  0  0  0  0  0  0  0  0  0  0  0
  -26.3910  -11.9900   20.4900 N   0  0  0  0  0  0  0  0  0  0  0  0
  -24.3350  -10.8240   20.9640 C   0  0  0  0  0  0  0  0  0  0  0  0
  -24.7270   -9.8460   21.9040 C   0  0  0  0  0  3  0  0  0  0  0  0
  -23.9670   -8.6690   22.0740 C   0  0  0  0  0  3  0  0  0  0  0  0
  -22.8000   -8.4610   21.3020 C   0  0  0  0  0  0  0  0  0  0  0  0
  -22.4260   -9.4270   20.3510 C   0  0  0  0  0  3  0  0  0  0  0  0
  -23.1860  -10.5950   20.1800 C   0  0  0  0  0  3  0  0  0  0  0  0
  -22.0130   -7.3370   21.3800 O   0  0  0  0  0  0  0  0  0  0  0  0
  -21.9020   -6.6160   22.5430 C   0  0  0  0  0  0  0  0  0  0  0  0
  -21.4670   -7.2090   23.7480 C   0  0  0  0  0  3  0  0  0  0  0  0
  -21.3000   -6.4170   24.9020 C   0  0  0  0  0  3  0  0  0  0  0  0
  -21.5570   -5.0340   24.8510 C   0  0  0  0  0  0  0  0  0  0  0  0
  -21.9840   -4.4410   23.6500 C   0  0  0  0  0  3  0  0  0  0  0  0
  -22.1530   -5.2300   22.4980 C   0  0  0  0  0  0  0  0  0  0  0  0
  -22.5450   -4.6500   21.3380 F   0  0  0  0  0  0  0  0  0  0  0  0
  -21.3880   -4.2710   25.9560 F   0  0  0  0  0  0  0  0  0  0  0  0
  -23.2880  -13.9440   21.0640 C   0  0  0  0  0  0  0  0  0  0  0  0
  -22.5440  -13.2900   21.9480 N   0  0  0  0  0  0  0  0  0  0  0  0
  -22.8730  -14.9650   20.5130 O   0  0  0  0  0  0  0  0  0  0  0  0
  -22.8910  -12.4640   22.4130 H   0  0  0  0  0  0  0  0  0  0  0  0
  -21.6130  -13.6180   22.1630 H   0  0  0  0  0  0  0  0  0  0  0  0
  -25.9760  -15.5370   20.2750 N   0  0  0  0  0  0  0  0  0  0  0  0
  -25.2290  -16.2160   20.3720 H   0  0  0  0  0  0  0  0  0  0  0  0
  -26.8470  -15.9470   19.9630 H   0  0  0  0  0  0  0  0  0  0  0  0
  -30.1830  -20.7780   24.1840 C   0  0  0  0  0  1  0  0  0  0  0  0
  -30.0680  -22.9420   22.9560 C   0  0  0  0  0  1  0  0  0  0  0  0
  -30.8660  -21.6270   23.0910 C   0  0  0  0  0  3  0  0  0  0  0  0
  2  1  1  0
  2 50  1  0
  3  2  1  0
  3  4  1  0
  5  3  1  0
  6  3  1  0
  6  7  1  0
  7  8  1  0
  8  9  1  0
  9 11  1  0
 10 21  2  0
 11 16  1  0
 12 20  1  0
 12 22  1  0
 13 19  1  0
 13 15  1  0
 14 20  1  0
 15 14  1  0
 16 15  2  0
 17 18  1  0
 17 11  2  0
 18 13  2  0
 19 12  1  0
 20 10  1  0
 22 24  2  0
 23 22  1  0
 25 23  1  0
 26 35  2  0
 26 31  1  0
 27 23  1  0
 27 31  1  0
 28 27  1  0
 29 30  1  0
 29 28  1  0
 30 26  1  0
 31 32  2  0
 32 33  1  0
 34 33  2  0
 35 34  1  0
 36 10  1  0
 36 37  1  0
 36 46  1  0
 37 40  1  0
 38 42  1  0
 38 37  1  0
 39 38  2  0
 42 41  1  0
 44 42  1  0
 44 45  1  0
 44 43  1  0
 46 49  1  1
 46 47  1  0
 48 46  1  0
 50 51  1  0
 52 51  1  0
 52 54  1  0
 52 97  1  0
 54 56  1  0
 54 53  1  0
 54 55  1  6
 57 58  1  0
 57 56  1  0
 59 58  1  0
 60 65  1  0
 61 62  1  0
 61 60  1  0
 63 62  1  0
 63 70  1  0
 63 64  1  0
 65 59  1  0
 65 64  1  0
 66 59  2  0
 67 68  2  0
 68 87  1  0
 69 68  1  0
 69 72  1  0
 70 67  1  0
 70 71  1  0
 71 69  2  0
 72 73  1  0
 73 74  2  0
 75 78  1  0
 75 74  1  0
 76 75  2  0
 77 76  1  0
 77 72  2  0
 78 79  1  0
 79 80  1  0
 80 81  2  0
 82 81  1  0
 82 86  1  0
 83 82  2  0
 84 79  2  0
 84 83  1  0
 85 84  1  0
 87 88  1  0
 88 91  1  0
 88 90  1  0
 89 87  2  0
 92 93  1  0
 92 67  1  0
 94 92  1  0
 96 97  1  0
 97 95  1  0
M  ISO  4   8 101   9 101  58 100  59 100
M  END
>  <TORSDO>  (15) 
F 28

>  <SCORE>  (15) 
-11.158

>  <name>  (15) 
14

>  <ligand_id>  (15) 
14

>  <original_smiles>  (15) 
[H]c1c([H])c([H])c2c(c1[H])C([H])([H])C([H])([H])C([H])([H])C2([H])N([H])C(=O)C1([H])N(C(=O)C([H])(N([H])C(=O)C([H])(N([H])C([H])([H])[H])C([H])([H])[H])C(C([H])([H])[H])(C([H])([H])[H])C([H])([H])[H])C([H])([H])c2c([H])c(OC([H])([H])C([H])([H])C([H])([H])[N+]([H])([H])C([H])(C([H])([H])[H])C([H])([H])C([H])([H])C([H])(C([H])(C([H])([H])[H])C([H])([H])[H])[N+]([H])(C([H])([H])[H])C([H])([H])C([H])([H])C([H])([H])C(=O)N3C([H])([H])C([H])([H])C([H])([H])C([H])(n4nc(-c5c([H])c([H])c(Oc6c([H])c([H])c(F)c([H])c6F)c([H])c5[H])c(C(=O)N([H])[H])c4N([H])[H])C3([H])[H])c([H])c([H])c2C1([H])[H]

>  <smiles>  (15) 
[H]c1c([H])c([H])c2c(c1[H])C([H])([H])C([H])([H])C([H])([H])C2([H])N([H])C(=O)C1([H])N(C(=O)C([H])(N([H])C(=O)C([H])(N([H])C([H])([H])[H])C([H])([H])[H])C(C([H])([H])[H])(C([H])([H])[H])C([H])([H])[H])C([H])([H])c2c([H])c(OC([H])([H])C([H])([H])C([H])([H])[N+]([H])([H])C([H])(C([H])([H])[H])C([H])([H])C([H])([H])C([H])(C([H])(C([H])([H])[H])C([H])([H])[H])[N+]([H])(C([H])([H])[H])C([H])([H])C([H])([H])C([H])([H])C(=O)N3C([H])([H])C([H])([H])C([H])([H])C([H])(n4nc(-c5c([H])c([H])c(Oc6c([H])c([H])c(F)c([H])c6F)c([H])c5[H])c(C(=O)N([H])[H])c4N([H])[H])C3([H])[H])c([H])c([H])c2C1([H])[H]

$$$$
15:0:0
     RDKit          3D

 91 99  0  0  1  0  0  0  0  0999 V2000
  -29.1010  -20.4740   20.7760 C   0  0  0  0  0  2  0  0  0  0  0  0
  -29.7440  -20.8240   18.0370 C   0  0  0  0  0  2  0  0  0  0  0  0
  -29.3940  -19.4200   18.5750 C   0  0  0  0  0  3  0  0  0  0  0  0
  -29.4680  -21.8360   20.1410 C   0  0  0  0  0  3  0  0  0  0  0  0
  -30.1110  -18.3480   17.7300 C   0  0  0  0  0  1  0  0  0  0  0  0
  -29.6950  -19.3230   20.0400 N   0  0  2  0  0  4  0  0  0  0  0  0
  -29.0490  -21.8150   18.7830 O   0  0  0  0  0  0  0  0  0  0  0  0
  -30.6950  -19.4090   20.1570 H   0  0  0  0  0  0  0  0  0  0  0  0
  -28.7560  -23.0150   20.8320 C   0  0  0  0  0  2  0  0  0  0  0  0
  -29.0100  -24.3870   20.1700 C   0  0  0  0  0  2  0  0  0  0  0  0
  -28.3320  -25.5330   20.9360 C   0  0  0  0  0  2  0  0  0  0  0  0
  -28.4170  -26.7620   20.2100 O   0  0  0  0  0  0  0  0  0  0  0  0
  -24.5710  -31.9010   23.2560 C   0  0  0  0  0  0  0  0  0  0  0  0
  -27.2510  -27.4860   20.1980 C   0  0  0  0  0  0  0  0  0  0  0  0
  -23.3770  -30.4900   21.6110 C   0  0  0  0  0  3  0  0  0  0  0  0
  -24.8440  -28.9560   20.1950 C   0  0  0  0  0  0  0  0  0  0  0  0
  -25.8980  -30.8680   21.4180 C   0  0  0  0  0  2  0  0  0  0  0  0
  -25.9950  -29.4980   20.7830 C   0  0  0  0  0  0  0  0  0  0  0  0
  -27.2050  -28.7700   20.7780 C   0  0  0  0  0  3  0  0  0  0  0  0
  -26.0880  -26.9520   19.6030 C   0  0  0  0  0  3  0  0  0  0  0  0
  -24.8840  -27.6820   19.6010 C   0  0  0  0  0  3  0  0  0  0  0  0
  -23.5930  -29.8040   20.2350 C   0  0  0  0  0  2  0  0  0  0  0  0
  -24.6330  -31.1010   22.1550 N   0  0  0  0  0  0  0  0  0  0  0  0
  -23.4870  -32.1690   23.7920 O   0  0  0  0  0  0  0  0  0  0  0  0
  -22.7270  -29.4690   22.5710 C   0  0  0  0  0  0  0  0  0  0  0  0
  -21.4040  -29.2800   22.4360 N   0  0  0  0  0  0  0  0  0  0  0  0
  -23.4090  -28.8490   23.3920 O   0  0  0  0  0  0  0  0  0  0  0  0
  -20.9160  -29.8320   21.7450 H   0  0  0  0  0  0  0  0  0  0  0  0
  -18.0330  -28.0700   22.9050 C   0  0  0  0  0  0  0  0  0  0  0  0
  -20.5860  -28.3420   23.2020 C   0  0  0  0  0  3  0  0  0  0  0  0
  -20.7010  -26.9090   22.6320 C   0  0  0  0  0  2  0  0  0  0  0  0
  -19.6110  -26.5750   21.6090 C   0  0  0  0  0  2  0  0  0  0  0  0
  -18.2230  -26.7180   22.2390 C   0  0  0  0  0  2  0  0  0  0  0  0
  -19.1430  -28.8390   23.3430 C   0  0  0  0  0  0  0  0  0  0  0  0
  -18.9120  -30.1060   23.9230 C   0  0  0  0  0  3  0  0  0  0  0  0
  -17.6030  -30.6030   24.0720 C   0  0  0  0  0  3  0  0  0  0  0  0
  -16.5080  -29.8300   23.6510 C   0  0  0  0  0  3  0  0  0  0  0  0
  -16.7230  -28.5660   23.0740 C   0  0  0  0  0  3  0  0  0  0  0  0
  -25.8550  -32.5350   23.8810 C   0  0  0  0  0  3  0  0  0  0  0  0
  -25.5450  -33.9340   24.2010 N   0  0  0  0  0  0  0  0  0  0  0  0
  -25.8860  -34.9820   23.4390 C   0  0  0  0  0  0  0  0  0  0  0  0
  -26.5680  -34.8710   22.4160 O   0  0  0  0  0  0  0  0  0  0  0  0
  -24.9440  -34.0950   24.9960 H   0  0  0  0  0  0  0  0  0  0  0  0
  -24.1660  -36.7720   23.0480 C   0  0  0  0  0  1  0  0  0  0  0  0
  -25.3930  -36.3720   23.8820 C   0  0  0  0  0  3  0  0  0  0  0  0
  -27.5170  -37.2560   24.7410 C   0  0  0  0  0  1  0  0  0  0  0  0
  -26.4290  -37.4230   23.7800 N   0  0  0  0  0  0  0  0  0  0  0  0
  -26.0240  -38.3440   23.9170 H   0  0  0  0  0  0  0  0  0  0  0  0
  -26.3690  -31.7670   25.1600 C   0  0  1  0  0  0  0  0  0  0  0  0
  -25.2710  -31.5260   26.2220 C   0  0  0  0  0  1  0  0  0  0  0  0
  -26.9580  -30.3920   24.7690 C   0  0  0  0  0  1  0  0  0  0  0  0
  -27.5150  -32.5640   25.8250 C   0  0  0  0  0  1  0  0  0  0  0  0
  -29.2990  -18.0190   20.6550 C   0  0  0  0  0  2  0  0  0  0  0  0
  -30.4760  -17.0260   20.7940 C   0  0  0  0  0  2  0  0  0  0  0  0
  -30.0360  -15.6110   21.2690 C   0  0  0  0  0  2  0  0  0  0  0  0
  -30.6840  -14.4480   20.4820 C   0  0  0  0  0  0  0  0  0  0  0  0
  -30.3580  -12.3410   19.2360 C   0  0  0  0  0  2  0  0  0  0  0  0
  -29.4030  -12.5950   18.0510 C   0  0  0  0  0  2  0  0  0  0  0  0
  -27.9310  -12.4650   18.4890 C   0  0  0  0  0  2  0  0  0  0  0  0
  -27.6180  -13.2640   19.7820 C   0  0  0  0  0  3  0  0  0  0  0  0
  -28.6800  -12.9790   20.8680 C   0  0  0  0  0  2  0  0  0  0  0  0
  -30.0020  -13.2860   20.3030 N   0  0  0  0  0  0  0  0  0  0  0  0
  -31.7870  -14.6430   19.9590 O   0  0  0  0  0  0  0  0  0  0  0  0
  -25.2160  -13.8770   20.4830 C   0  0  0  0  0  0  0  0  0  0  0  0
  -24.1480  -13.1070   20.8550 C   0  0  0  0  0  0  0  0  0  0  0  0
  -24.6090  -11.7550   20.8320 C   0  0  0  0  0  0  0  0  0  0  0  0
  -26.2630  -12.9950   20.2600 N   0  0  0  0  0  0  0  0  0  0  0  0
  -25.8990  -11.7140   20.5240 N   0  0  0  0  0  0  0  0  0  0  0  0
  -23.8830  -10.4930   21.0290 C   0  0  0  0  0  0  0  0  0  0  0  0
  -24.3240   -9.5250   21.9580 C   0  0  0  0  0  3  0  0  0  0  0  0
  -23.5990   -8.3280   22.1430 C   0  0  0  0  0  3  0  0  0  0  0  0
  -22.4190   -8.0910   21.3980 C   0  0  0  0  0  0  0  0  0  0  0  0
  -21.9970   -9.0480   20.4580 C   0  0  0  0  0  3  0  0  0  0  0  0
  -22.7230  -10.2370   20.2720 C   0  0  0  0  0  3  0  0  0  0  0  0
  -21.6650   -6.9470   21.4930 O   0  0  0  0  0  0  0  0  0  0  0  0
  -21.6360   -6.1980   22.6420 C   0  0  0  0  0  0  0  0  0  0  0  0
  -21.2420   -6.7480   23.8800 C   0  0  0  0  0  3  0  0  0  0  0  0
  -21.1580   -5.9260   25.0210 C   0  0  0  0  0  3  0  0  0  0  0  0
  -21.4590   -4.5540   24.9260 C   0  0  0  0  0  0  0  0  0  0  0  0
  -21.8470   -4.0020   23.6920 C   0  0  0  0  0  3  0  0  0  0  0  0
  -21.9320   -4.8220   22.5520 C   0  0  0  0  0  0  0  0  0  0  0  0
  -22.2870   -4.2820   21.3610 F   0  0  0  0  0  0  0  0  0  0  0  0
  -21.3710   -3.7620   26.0200 F   0  0  0  0  0  0  0  0  0  0  0  0
  -22.7510  -13.5850   21.1280 C   0  0  0  0  0  0  0  0  0  0  0  0
  -22.0250  -12.8920   21.9980 N   0  0  0  0  0  0  0  0  0  0  0  0
  -22.3110  -14.6080   20.6030 O   0  0  0  0  0  0  0  0  0  0  0  0
  -22.3920  -12.0620   22.4400 H   0  0  0  0  0  0  0  0  0  0  0  0
  -21.0890  -13.1960   22.2250 H   0  0  0  0  0  0  0  0  0  0  0  0
  -25.3800  -15.2470   20.2970 N   0  0  0  0  0  0  0  0  0  0  0  0
  -24.6100  -15.9000   20.3890 H   0  0  0  0  0  0  0  0  0  0  0  0
  -26.2280  -15.6790   19.9550 H   0  0  0  0  0  0  0  0  0  0  0  0
  2  3  1  0
  2  7  1  0
  3  5  1  0
  3  6  1  0
  4  1  1  0
  4  9  1  0
  6  8  1  6
  6 53  1  0
  6  1  1  0
  7  4  1  0
 10  9  1  0
 10 11  1  0
 12 11  1  0
 13 24  2  0
 14 12  1  0
 14 19  1  0
 15 23  1  0
 15 25  1  0
 16 22  1  0
 16 18  1  0
 17 23  1  0
 18 17  1  0
 19 18  2  0
 20 14  2  0
 21 20  1  0
 21 16  2  0
 22 15  1  0
 23 13  1  0
 25 27  2  0
 26 25  1  0
 28 26  1  0
 29 38  2  0
 29 34  1  0
 30 26  1  0
 30 34  1  0
 31 30  1  0
 32 33  1  0
 32 31  1  0
 33 29  1  0
 34 35  2  0
 35 36  1  0
 37 36  2  0
 38 37  1  0
 39 13  1  0
 39 40  1  0
 39 49  1  0
 40 43  1  0
 41 45  1  0
 41 40  1  0
 42 41  2  0
 45 44  1  0
 47 45  1  0
 47 48  1  0
 47 46  1  0
 49 52  1  1
 49 50  1  0
 51 49  1  0
 53 54  1  0
 54 55  1  0
 56 55  1  0
 57 62  1  0
 58 59  1  0
 58 57  1  0
 60 59  1  0
 60 67  1  0
 60 61  1  0
 62 56  1  0
 62 61  1  0
 63 56  2  0
 64 65  2  0
 65 84  1  0
 66 65  1  0
 66 69  1  0
 67 64  1  0
 67 68  1  0
 68 66  2  0
 69 70  1  0
 70 71  2  0
 72 75  1  0
 72 71  1  0
 73 72  2  0
 74 73  1  0
 74 69  2  0
 75 76  1  0
 76 77  1  0
 77 78  2  0
 79 78  1  0
 79 83  1  0
 80 79  2  0
 81 76  2  0
 81 80  1  0
 82 81  1  0
 84 85  1  0
 85 88  1  0
 85 87  1  0
 86 84  2  0
 89 90  1  0
 89 64  1  0
 91 89  1  0
M  ISO  4  11 101  12 101  55 100  56 100
M  END
>  <TORSDO>  (16) 
F 22

>  <SCORE>  (16) 
-13.257

>  <name>  (16) 
15

>  <ligand_id>  (16) 
15

>  <original_smiles>  (16) 
[H]c1c([H])c([H])c2c(c1[H])C([H])([H])C([H])([H])C([H])([H])C2([H])N([H])C(=O)C1([H])N(C(=O)C([H])(N([H])C(=O)C([H])(N([H])C([H])([H])[H])C([H])([H])[H])C(C([H])([H])[H])(C([H])([H])[H])C([H])([H])[H])C([H])([H])c2c([H])c(OC([H])([H])C([H])([H])C([H])([H])C3([H])OC([H])([H])C([H])(C([H])([H])[H])[N+]([H])(C([H])([H])C([H])([H])C([H])([H])C(=O)N4C([H])([H])C([H])([H])C([H])([H])C([H])(n5nc(-c6c([H])c([H])c(Oc7c([H])c([H])c(F)c([H])c7F)c([H])c6[H])c(C(=O)N([H])[H])c5N([H])[H])C4([H])[H])C3([H])[H])c([H])c([H])c2C1([H])[H]

>  <smiles>  (16) 
[H]c1c([H])c([H])c2c(c1[H])C([H])([H])C([H])([H])C([H])([H])C2([H])N([H])C(=O)C1([H])N(C(=O)C([H])(N([H])C(=O)C([H])(N([H])C([H])([H])[H])C([H])([H])[H])C(C([H])([H])[H])(C([H])([H])[H])C([H])([H])[H])C([H])([H])c2c([H])c(OC([H])([H])C([H])([H])C([H])([H])C3([H])OC([H])([H])C([H])(C([H])([H])[H])[N+]([H])(C([H])([H])C([H])([H])C([H])([H])C(=O)N4C([H])([H])C([H])([H])C([H])([H])C([H])(n5nc(-c6c([H])c([H])c(Oc7c([H])c([H])c(F)c([H])c7F)c([H])c6[H])c(C(=O)N([H])[H])c5N([H])[H])C4([H])[H])C3([H])[H])c([H])c([H])c2C1([H])[H]

$$$$
16:0:0
     RDKit          3D

 92100  0  0  1  0  0  0  0  0999 V2000
  -31.2920  -19.5190   20.1220 C   0  0  0  0  0  0  0  0  0  0  0  0
  -30.5050  -20.6110   19.9440 N   0  0  0  0  0  0  0  0  0  0  0  0
  -32.4880  -19.6410   20.3990 O   0  0  0  0  0  0  0  0  0  0  0  0
  -29.5390  -20.4120   19.7090 H   0  0  0  0  0  0  0  0  0  0  0  0
  -29.1450  -18.1070   19.9610 C   0  0  0  0  0  2  0  0  0  0  0  0
  -28.7500  -18.2590   21.4410 C   0  0  0  0  0  2  0  0  0  0  0  0
  -30.6770  -18.0700   19.9910 C   0  0  0  0  0  3  0  0  0  0  0  0
  -29.9270  -17.6790   22.2670 C   0  0  0  0  0  3  0  0  0  0  0  0
  -30.9400  -17.1260   21.2210 C   0  0  0  0  0  3  0  0  0  0  0  0
  -30.5430  -18.6270   23.3090 C   0  0  0  0  0  1  0  0  0  0  0  0
  -30.5980  -15.5750   21.1710 C   0  0  0  0  0  2  0  0  0  0  0  0
  -31.1930  -14.5160   20.1920 C   0  0  0  0  0  0  0  0  0  0  0  0
  -30.7220  -12.4940   18.8030 C   0  0  0  0  0  2  0  0  0  0  0  0
  -29.7310  -12.8510   17.6750 C   0  0  0  0  0  2  0  0  0  0  0  0
  -28.2710  -12.7490   18.1650 C   0  0  0  0  0  2  0  0  0  0  0  0
  -28.0540  -13.4610   19.5260 C   0  0  0  0  0  3  0  0  0  0  0  0
  -29.1550  -13.0860   20.5430 C   0  0  0  0  0  2  0  0  0  0  0  0
  -30.4640  -13.3890   19.9420 N   0  0  0  0  0  0  0  0  0  0  0  0
  -32.2740  -14.7350   19.6280 O   0  0  0  0  0  0  0  0  0  0  0  0
  -25.7200  -14.1340   20.3660 C   0  0  0  0  0  0  0  0  0  0  0  0
  -24.6450  -13.3910   20.7760 C   0  0  0  0  0  0  0  0  0  0  0  0
  -25.0540  -12.0260   20.6970 C   0  0  0  0  0  0  0  0  0  0  0  0
  -26.7210  -13.2190   20.0710 N   0  0  0  0  0  0  0  0  0  0  0  0
  -26.3260  -11.9460   20.3250 N   0  0  0  0  0  0  0  0  0  0  0  0
  -24.2890  -10.7910   20.9010 C   0  0  0  0  0  0  0  0  0  0  0  0
  -24.7000   -9.8190   21.8420 C   0  0  0  0  0  3  0  0  0  0  0  0
  -23.9480   -8.6410   22.0330 C   0  0  0  0  0  3  0  0  0  0  0  0
  -22.7690   -8.4290   21.2820 C   0  0  0  0  0  0  0  0  0  0  0  0
  -22.3740   -9.3850   20.3280 C   0  0  0  0  0  3  0  0  0  0  0  0
  -23.1280  -10.5550   20.1380 C   0  0  0  0  0  3  0  0  0  0  0  0
  -21.9860   -7.3050   21.3780 O   0  0  0  0  0  0  0  0  0  0  0  0
  -21.8550   -6.6160   22.5540 C   0  0  0  0  0  0  0  0  0  0  0  0
  -21.3810   -7.2280   23.7350 C   0  0  0  0  0  3  0  0  0  0  0  0
  -21.2020   -6.4590   24.9040 C   0  0  0  0  0  3  0  0  0  0  0  0
  -21.4850   -5.0800   24.8870 C   0  0  0  0  0  0  0  0  0  0  0  0
  -21.9520   -4.4670   23.7110 C   0  0  0  0  0  3  0  0  0  0  0  0
  -22.1290   -5.2330   22.5470 C   0  0  0  0  0  0  0  0  0  0  0  0
  -22.5520   -4.6340   21.4070 F   0  0  0  0  0  0  0  0  0  0  0  0
  -21.3090   -4.3380   26.0050 F   0  0  0  0  0  0  0  0  0  0  0  0
  -23.2840  -13.9070   21.1350 C   0  0  0  0  0  0  0  0  0  0  0  0
  -22.5910  -13.2220   22.0400 N   0  0  0  0  0  0  0  0  0  0  0  0
  -22.8460  -14.9500   20.6480 O   0  0  0  0  0  0  0  0  0  0  0  0
  -22.9610  -12.3770   22.4530 H   0  0  0  0  0  0  0  0  0  0  0  0
  -21.6680  -13.5300   22.3100 H   0  0  0  0  0  0  0  0  0  0  0  0
  -25.9240  -15.5000   20.1960 N   0  0  0  0  0  0  0  0  0  0  0  0
  -25.1740  -16.1730   20.3120 H   0  0  0  0  0  0  0  0  0  0  0  0
  -26.7600  -15.9120   19.8060 H   0  0  0  0  0  0  0  0  0  0  0  0
  -30.8140  -22.0290   20.2520 C   0  0  0  0  0  2  0  0  0  0  0  0
  -29.7960  -23.0230   19.6190 C   0  0  0  0  0  2  0  0  0  0  0  0
  -29.7470  -24.4570   20.2240 C   0  0  0  0  0  2  0  0  0  0  0  0
  -28.6480  -25.3210   19.5580 C   0  0  0  0  0  2  0  0  0  0  0  0
  -28.5720  -26.6570   20.0790 O   0  0  0  0  0  0  0  0  0  0  0  0
  -24.5850  -31.6550   23.1610 C   0  0  0  0  0  0  0  0  0  0  0  0
  -27.3640  -27.3350   20.0330 C   0  0  0  0  0  0  0  0  0  0  0  0
  -23.4170  -30.2490   21.4890 C   0  0  0  0  0  3  0  0  0  0  0  0
  -24.9210  -28.7820   20.0410 C   0  0  0  0  0  0  0  0  0  0  0  0
  -25.9290  -30.6850   21.3010 C   0  0  0  0  0  2  0  0  0  0  0  0
  -26.0560  -29.3210   20.6550 C   0  0  0  0  0  0  0  0  0  0  0  0
  -27.2710  -28.5980   20.6630 C   0  0  0  0  0  3  0  0  0  0  0  0
  -26.2100  -26.8270   19.3840 C   0  0  0  0  0  3  0  0  0  0  0  0
  -24.9940  -27.5350   19.3990 C   0  0  0  0  0  3  0  0  0  0  0  0
  -23.6490  -29.6000   20.0960 C   0  0  0  0  0  2  0  0  0  0  0  0
  -24.6610  -30.8780   22.0430 N   0  0  0  0  0  0  0  0  0  0  0  0
  -23.4970  -31.8890   23.7040 O   0  0  0  0  0  0  0  0  0  0  0  0
  -22.7930  -29.1940   22.4330 C   0  0  0  0  0  0  0  0  0  0  0  0
  -21.4770  -28.9700   22.2880 N   0  0  0  0  0  0  0  0  0  0  0  0
  -23.4900  -28.5880   23.2480 O   0  0  0  0  0  0  0  0  0  0  0  0
  -20.9750  -29.5150   21.6020 H   0  0  0  0  0  0  0  0  0  0  0  0
  -18.1430  -27.6470   22.7060 C   0  0  0  0  0  0  0  0  0  0  0  0
  -20.6810  -27.9980   23.0400 C   0  0  0  0  0  3  0  0  0  0  0  0
  -20.8520  -26.5750   22.4590 C   0  0  0  0  0  2  0  0  0  0  0  0
  -19.7880  -26.2190   21.4170 C   0  0  0  0  0  2  0  0  0  0  0  0
  -18.3860  -26.3110   22.0250 C   0  0  0  0  0  2  0  0  0  0  0  0
  -19.2210  -28.4470   23.1670 C   0  0  0  0  0  0  0  0  0  0  0  0
  -18.9400  -29.6980   23.7580 C   0  0  0  0  0  3  0  0  0  0  0  0
  -17.6140  -30.1510   23.8910 C   0  0  0  0  0  3  0  0  0  0  0  0
  -16.5500  -29.3470   23.4480 C   0  0  0  0  0  3  0  0  0  0  0  0
  -16.8150  -28.0950   22.8630 C   0  0  0  0  0  3  0  0  0  0  0  0
  -25.8530  -32.3070   23.7930 C   0  0  0  0  0  3  0  0  0  0  0  0
  -25.5180  -33.6960   24.1320 N   0  0  0  0  0  0  0  0  0  0  0  0
  -25.8210  -34.7580   23.3720 C   0  0  0  0  0  0  0  0  0  0  0  0
  -26.4840  -34.6690   22.3330 O   0  0  0  0  0  0  0  0  0  0  0  0
  -24.9280  -33.8360   24.9380 H   0  0  0  0  0  0  0  0  0  0  0  0
  -24.0370  -36.4990   23.0480 C   0  0  0  0  0  1  0  0  0  0  0  0
  -25.3050  -36.1310   23.8360 C   0  0  0  0  0  3  0  0  0  0  0  0
  -27.4330  -37.0740   24.6200 C   0  0  0  0  0  1  0  0  0  0  0  0
  -26.3040  -37.2140   23.7030 N   0  0  0  0  0  0  0  0  0  0  0  0
  -25.8760  -38.1210   23.8670 H   0  0  0  0  0  0  0  0  0  0  0  0
  -26.3870  -31.5330   25.0620 C   0  0  1  0  0  0  0  0  0  0  0  0
  -25.3030  -31.2530   26.1270 C   0  0  0  0  0  1  0  0  0  0  0  0
  -27.0020  -30.1770   24.6450 C   0  0  0  0  0  1  0  0  0  0  0  0
  -27.5200  -32.3470   25.7320 C   0  0  0  0  0  1  0  0  0  0  0  0
  1  3  2  0
  2  1  1  0
  2 48  1  0
  4  2  1  0
  5  7  1  0
  5  6  1  0
  6  8  1  0
  7  1  1  0
  7  9  1  0
  8 10  1  0
  9 11  1  0
  9  8  1  0
 12 11  1  0
 13 18  1  0
 14 15  1  0
 14 13  1  0
 16 15  1  0
 16 23  1  0
 16 17  1  0
 18 12  1  0
 18 17  1  0
 19 12  2  0
 20 21  2  0
 21 40  1  0
 22 21  1  0
 22 25  1  0
 23 24  1  0
 23 20  1  0
 24 22  2  0
 25 26  1  0
 26 27  2  0
 28 31  1  0
 28 27  1  0
 29 28  2  0
 30 29  1  0
 30 25  2  0
 31 32  1  0
 32 33  1  0
 33 34  2  0
 35 34  1  0
 35 39  1  0
 36 35  2  0
 37 32  2  0
 37 36  1  0
 38 37  1  0
 40 41  1  0
 41 44  1  0
 41 43  1  0
 42 40  2  0
 45 46  1  0
 45 20  1  0
 47 45  1  0
 49 50  1  0
 49 48  1  0
 51 52  1  0
 51 50  1  0
 53 64  2  0
 54 52  1  0
 54 59  1  0
 55 63  1  0
 55 65  1  0
 56 62  1  0
 56 58  1  0
 57 63  1  0
 58 59  2  0
 58 57  1  0
 60 61  1  0
 60 54  2  0
 61 56  2  0
 62 55  1  0
 63 53  1  0
 65 67  2  0
 66 65  1  0
 68 66  1  0
 69 78  2  0
 69 74  1  0
 70 66  1  0
 70 74  1  0
 71 70  1  0
 72 73  1  0
 72 71  1  0
 73 69  1  0
 74 75  2  0
 75 76  1  0
 77 76  2  0
 78 77  1  0
 79 53  1  0
 79 80  1  0
 79 89  1  0
 80 83  1  0
 81 85  1  0
 81 80  1  0
 82 81  2  0
 85 84  1  0
 87 85  1  0
 87 88  1  0
 87 86  1  0
 89 92  1  1
 89 90  1  0
 91 89  1  0
M  ISO  4  11 100  12 100  51 101  52 101
M  END
>  <TORSDO>  (17) 
F 22

>  <SCORE>  (17) 
-10.770

>  <name>  (17) 
16

>  <ligand_id>  (17) 
16

>  <original_smiles>  (17) 
[H]c1c([H])c([H])c2c(c1[H])C([H])([H])C([H])([H])C([H])([H])C2([H])N([H])C(=O)C1([H])N(C(=O)C([H])(N([H])C(=O)C([H])(N([H])C([H])([H])[H])C([H])([H])[H])C(C([H])([H])[H])(C([H])([H])[H])C([H])([H])[H])C([H])([H])c2c([H])c(OC([H])([H])C([H])([H])C([H])([H])C([H])([H])N([H])C(=O)C3([H])C([H])([H])C([H])([H])C([H])(C([H])([H])[H])C3([H])C([H])([H])C(=O)N3C([H])([H])C([H])([H])C([H])([H])C([H])(n4nc(-c5c([H])c([H])c(Oc6c([H])c([H])c(F)c([H])c6F)c([H])c5[H])c(C(=O)N([H])[H])c4N([H])[H])C3([H])[H])c([H])c([H])c2C1([H])[H]

>  <smiles>  (17) 
[H]c1c([H])c([H])c2c(c1[H])C([H])([H])C([H])([H])C([H])([H])C2([H])N([H])C(=O)C1([H])N(C(=O)C([H])(N([H])C(=O)C([H])(N([H])C([H])([H])[H])C([H])([H])[H])C(C([H])([H])[H])(C([H])([H])[H])C([H])([H])[H])C([H])([H])c2c([H])c(OC([H])([H])C([H])([H])C([H])([H])C([H])([H])N([H])C(=O)C3([H])C([H])([H])C([H])([H])C([H])(C([H])([H])[H])C3([H])C([H])([H])C(=O)N3C([H])([H])C([H])([H])C([H])([H])C([H])(n4nc(-c5c([H])c([H])c(Oc6c([H])c([H])c(F)c([H])c6F)c([H])c5[H])c(C(=O)N([H])[H])c4N([H])[H])C3([H])[H])c([H])c([H])c2C1([H])[H]

$$$$
17:0:0
     RDKit          3D

 97105  0  0  1  0  0  0  0  0999 V2000
  -28.7330  -26.0080   22.1470 C   0  0  0  0  0  2  0  0  0  0  0  0
  -29.7310  -25.0010   20.0570 C   0  0  0  0  0  2  0  0  0  0  0  0
  -28.9930  -24.6700   22.8620 C   0  0  0  0  0  2  0  0  0  0  0  0
  -28.5500  -25.8130   20.6280 C   0  0  0  0  0  3  0  0  0  0  0  0
  -29.9930  -23.6770   20.8270 C   0  0  0  0  0  3  0  0  0  0  0  0
  -30.1560  -23.9690   22.2740 N   0  0  0  0  0  4  0  0  0  0  0  0
  -30.2870  -23.1080   22.7810 H   0  0  0  0  0  0  0  0  0  0  0  0
  -30.9830  -24.5270   22.4220 H   0  0  0  0  0  0  0  0  0  0  0  0
  -28.5260  -27.0930   19.9840 O   0  0  0  0  0  0  0  0  0  0  0  0
  -24.5630  -32.0010   23.2660 C   0  0  0  0  0  0  0  0  0  0  0  0
  -27.3280  -27.7630   20.0380 C   0  0  0  0  0  0  0  0  0  0  0  0
  -23.3890  -30.6130   21.5870 C   0  0  0  0  0  3  0  0  0  0  0  0
  -24.8820  -29.1670   20.1100 C   0  0  0  0  0  0  0  0  0  0  0  0
  -25.8960  -31.0670   21.3810 C   0  0  0  0  0  2  0  0  0  0  0  0
  -26.0230  -29.7200   20.7020 C   0  0  0  0  0  0  0  0  0  0  0  0
  -27.2530  -29.0280   20.6610 C   0  0  0  0  0  3  0  0  0  0  0  0
  -26.1730  -27.2140   19.4450 C   0  0  0  0  0  3  0  0  0  0  0  0
  -24.9500  -27.9110   19.4790 C   0  0  0  0  0  3  0  0  0  0  0  0
  -23.6090  -29.9790   20.1860 C   0  0  0  0  0  2  0  0  0  0  0  0
  -24.6340  -31.2400   22.1380 N   0  0  0  0  0  0  0  0  0  0  0  0
  -23.4780  -32.2220   23.8220 O   0  0  0  0  0  0  0  0  0  0  0  0
  -22.7770  -29.5430   22.5190 C   0  0  0  0  0  0  0  0  0  0  0  0
  -21.4550  -29.3370   22.4060 N   0  0  0  0  0  0  0  0  0  0  0  0
  -23.4880  -28.9020   23.2970 O   0  0  0  0  0  0  0  0  0  0  0  0
  -20.9420  -29.9090   21.7510 H   0  0  0  0  0  0  0  0  0  0  0  0
  -18.1230  -28.0280   22.8780 C   0  0  0  0  0  0  0  0  0  0  0  0
  -20.6710  -28.3540   23.1520 C   0  0  0  0  0  3  0  0  0  0  0  0
  -20.8160  -26.9440   22.5330 C   0  0  0  0  0  2  0  0  0  0  0  0
  -19.7210  -26.6170   21.5130 C   0  0  0  0  0  2  0  0  0  0  0  0
  -18.3370  -26.7040   22.1640 C   0  0  0  0  0  2  0  0  0  0  0  0
  -19.2180  -28.8110   23.3260 C   0  0  0  0  0  0  0  0  0  0  0  0
  -18.9660  -30.0510   23.9520 C   0  0  0  0  0  3  0  0  0  0  0  0
  -17.6470  -30.5090   24.1330 C   0  0  0  0  0  3  0  0  0  0  0  0
  -16.5640  -29.7240   23.7020 C   0  0  0  0  0  3  0  0  0  0  0  0
  -16.8030  -28.4850   23.0800 C   0  0  0  0  0  3  0  0  0  0  0  0
  -25.8340  -32.6510   23.8990 C   0  0  0  0  0  3  0  0  0  0  0  0
  -25.5070  -34.0460   24.2150 N   0  0  0  0  0  0  0  0  0  0  0  0
  -25.8360  -35.0950   23.4510 C   0  0  0  0  0  0  0  0  0  0  0  0
  -26.5170  -34.9910   22.4270 O   0  0  0  0  0  0  0  0  0  0  0  0
  -24.9030  -34.2010   25.0090 H   0  0  0  0  0  0  0  0  0  0  0  0
  -24.0820  -36.8570   23.0700 C   0  0  0  0  0  1  0  0  0  0  0  0
  -25.3270  -36.4810   23.8900 C   0  0  0  0  0  3  0  0  0  0  0  0
  -27.4430  -37.4090   24.7210 C   0  0  0  0  0  1  0  0  0  0  0  0
  -26.3440  -37.5480   23.7680 N   0  0  0  0  0  0  0  0  0  0  0  0
  -25.9230  -38.4640   23.9020 H   0  0  0  0  0  0  0  0  0  0  0  0
  -26.3490  -31.8900   25.1830 C   0  0  1  0  0  0  0  0  0  0  0  0
  -25.2460  -31.6360   26.2360 C   0  0  0  0  0  1  0  0  0  0  0  0
  -26.9610  -30.5240   24.7970 C   0  0  0  0  0  1  0  0  0  0  0  0
  -27.4770  -32.7060   25.8580 C   0  0  0  0  0  1  0  0  0  0  0  0
  -31.2300  -22.9390   20.2460 C   0  0  0  0  0  2  0  0  0  0  0  0
  -33.2640  -21.4850   20.5730 C   0  0  0  0  0  1  0  0  0  0  0  0
  -31.8380  -21.7740   21.0800 C   0  0  0  0  0  3  0  0  0  0  0  0
  -30.9800  -20.4750   21.0770 C   0  0  0  0  0  2  0  0  0  0  0  0
  -31.5320  -19.3140   21.9640 C   0  0  0  0  0  3  0  0  0  0  0  0
  -30.7340  -18.0670   21.8300 N   0  0  0  0  0  4  0  0  0  0  0  0
  -30.7540  -17.6210   22.7330 H   0  0  0  0  0  0  0  0  0  0  0  0
  -29.7740  -18.2990   21.6320 H   0  0  0  0  0  0  0  0  0  0  0  0
  -31.2350  -17.0670   20.8510 C   0  0  0  0  0  2  0  0  0  0  0  0
  -30.4940  -15.7130   20.9860 C   0  0  0  0  0  2  0  0  0  0  0  0
  -31.1030  -14.5520   20.1730 C   0  0  0  0  0  0  0  0  0  0  0  0
  -30.7810  -12.3220   19.1450 C   0  0  0  0  0  2  0  0  0  0  0  0
  -29.8050  -12.4200   17.9540 C   0  0  0  0  0  2  0  0  0  0  0  0
  -28.3430  -12.3180   18.4300 C   0  0  0  0  0  2  0  0  0  0  0  0
  -28.0350  -13.2630   19.6200 C   0  0  0  0  0  3  0  0  0  0  0  0
  -29.1120  -13.1210   20.7190 C   0  0  0  0  0  2  0  0  0  0  0  0
  -30.4260  -13.3750   20.1060 N   0  0  0  0  0  0  0  0  0  0  0  0
  -32.1600  -14.7400   19.5610 O   0  0  0  0  0  0  0  0  0  0  0  0
  -25.6930  -13.9620   20.4370 C   0  0  0  0  0  0  0  0  0  0  0  0
  -24.6080  -13.2280   20.8340 C   0  0  0  0  0  0  0  0  0  0  0  0
  -25.0080  -11.8590   20.7570 C   0  0  0  0  0  0  0  0  0  0  0  0
  -26.6890  -13.0420   20.1470 N   0  0  0  0  0  0  0  0  0  0  0  0
  -26.2800  -11.7700   20.3950 N   0  0  0  0  0  0  0  0  0  0  0  0
  -24.2350  -10.6260   20.9530 C   0  0  0  0  0  0  0  0  0  0  0  0
  -24.6350   -9.6460   21.8890 C   0  0  0  0  0  3  0  0  0  0  0  0
  -23.8660   -8.4760   22.0720 C   0  0  0  0  0  3  0  0  0  0  0  0
  -22.6860   -8.2770   21.3180 C   0  0  0  0  0  0  0  0  0  0  0  0
  -22.3060   -9.2440   20.3710 C   0  0  0  0  0  3  0  0  0  0  0  0
  -23.0740  -10.4060   20.1870 C   0  0  0  0  0  3  0  0  0  0  0  0
  -21.8910   -7.1600   21.4100 O   0  0  0  0  0  0  0  0  0  0  0  0
  -21.7520   -6.4710   22.5880 C   0  0  0  0  0  0  0  0  0  0  0  0
  -21.2560   -7.0880   23.7570 C   0  0  0  0  0  3  0  0  0  0  0  0
  -21.0630   -6.3250   24.9280 C   0  0  0  0  0  3  0  0  0  0  0  0
  -21.3560   -4.9490   24.9280 C   0  0  0  0  0  0  0  0  0  0  0  0
  -21.8440   -4.3320   23.7630 C   0  0  0  0  0  3  0  0  0  0  0  0
  -22.0390   -5.0920   22.5950 C   0  0  0  0  0  0  0  0  0  0  0  0
  -22.4900   -4.4880   21.4690 F   0  0  0  0  0  0  0  0  0  0  0  0
  -21.1630   -4.2140   26.0480 F   0  0  0  0  0  0  0  0  0  0  0  0
  -23.2440  -13.7590   21.1750 C   0  0  0  0  0  0  0  0  0  0  0  0
  -22.5400  -13.1000   22.0890 N   0  0  0  0  0  0  0  0  0  0  0  0
  -22.8140  -14.7910   20.6650 O   0  0  0  0  0  0  0  0  0  0  0  0
  -22.9010  -12.2620   22.5220 H   0  0  0  0  0  0  0  0  0  0  0  0
  -21.6270  -13.4360   22.3590 H   0  0  0  0  0  0  0  0  0  0  0  0
  -25.9090  -15.3280   20.2780 N   0  0  0  0  0  0  0  0  0  0  0  0
  -25.1720  -16.0100   20.4220 H   0  0  0  0  0  0  0  0  0  0  0  0
  -26.7590  -15.7340   19.9060 H   0  0  0  0  0  0  0  0  0  0  0  0
  -30.4390  -20.4020   24.0720 C   0  0  0  0  0  1  0  0  0  0  0  0
  -31.6580  -19.6870   23.4610 C   0  0  0  0  0  2  0  0  0  0  0  0
  1  3  1  0
  2  4  1  0
  2  5  1  0
  4  9  1  0
  4  1  1  0
  5 50  1  0
  5  6  1  0
  6  8  1  0
  6  7  1  0
  6  3  1  0
  9 11  1  0
 10 21  2  0
 11 16  1  0
 12 20  1  0
 12 22  1  0
 13 19  1  0
 13 15  1  0
 14 20  1  0
 15 14  1  0
 16 15  2  0
 17 18  1  0
 17 11  2  0
 18 13  2  0
 19 12  1  0
 20 10  1  0
 22 24  2  0
 23 22  1  0
 25 23  1  0
 26 35  2  0
 26 31  1  0
 27 23  1  0
 27 31  1  0
 28 27  1  0
 29 30  1  0
 29 28  1  0
 30 26  1  0
 31 32  2  0
 32 33  1  0
 34 33  2  0
 35 34  1  0
 36 10  1  0
 36 37  1  0
 36 46  1  0
 37 40  1  0
 38 42  1  0
 38 37  1  0
 39 38  2  0
 42 41  1  0
 44 42  1  0
 44 45  1  0
 44 43  1  0
 46 49  1  1
 46 47  1  0
 48 46  1  0
 50 52  1  0
 52 51  1  0
 53 52  1  0
 54 53  1  0
 54 97  1  0
 55 54  1  0
 55 56  1  0
 57 55  1  0
 58 59  1  0
 58 55  1  0
 60 59  1  0
 61 66  1  0
 62 63  1  0
 62 61  1  0
 64 63  1  0
 64 71  1  0
 64 65  1  0
 66 60  1  0
 66 65  1  0
 67 60  2  0
 68 69  2  0
 69 88  1  0
 70 69  1  0
 70 73  1  0
 71 72  1  0
 71 68  1  0
 72 70  2  0
 73 74  1  0
 74 75  2  0
 76 79  1  0
 76 75  1  0
 77 76  2  0
 78 77  1  0
 78 73  2  0
 79 80  1  0
 80 85  2  0
 80 81  1  0
 81 82  2  0
 83 82  1  0
 83 87  1  0
 84 83  2  0
 85 84  1  0
 86 85  1  0
 88 89  1  0
 89 92  1  0
 89 91  1  0
 90 88  2  0
 93 94  1  0
 93 68  1  0
 95 93  1  0
 97 96  1  0
M  ISO  4   4 101   9 101  59 100  60 100
M  END
>  <TORSDO>  (18) 
F 24

>  <SCORE>  (18) 
-12.484

>  <name>  (18) 
17

>  <ligand_id>  (18) 
17

>  <original_smiles>  (18) 
[H]c1c([H])c([H])c2c(c1[H])C([H])([H])C([H])([H])C([H])([H])C2([H])N([H])C(=O)C1([H])N(C(=O)C([H])(N([H])C(=O)C([H])(N([H])C([H])([H])[H])C([H])([H])[H])C(C([H])([H])[H])(C([H])([H])[H])C([H])([H])[H])C([H])([H])c2c([H])c(OC3([H])C([H])([H])C([H])([H])[N+]([H])([H])C([H])(C([H])([H])C([H])(C([H])([H])[H])C([H])([H])C([H])(C([H])([H])C([H])([H])[H])[N+]([H])([H])C([H])([H])C([H])([H])C(=O)N4C([H])([H])C([H])([H])C([H])([H])C([H])(n5nc(-c6c([H])c([H])c(Oc7c([H])c([H])c(F)c([H])c7F)c([H])c6[H])c(C(=O)N([H])[H])c5N([H])[H])C4([H])[H])C3([H])[H])c([H])c([H])c2C1([H])[H]

>  <smiles>  (18) 
[H]c1c([H])c([H])c2c(c1[H])C([H])([H])C([H])([H])C([H])([H])C2([H])N([H])C(=O)C1([H])N(C(=O)C([H])(N([H])C(=O)C([H])(N([H])C([H])([H])[H])C([H])([H])[H])C(C([H])([H])[H])(C([H])([H])[H])C([H])([H])[H])C([H])([H])c2c([H])c(OC3([H])C([H])([H])C([H])([H])[N+]([H])([H])C([H])(C([H])([H])C([H])(C([H])([H])[H])C([H])([H])C([H])(C([H])([H])C([H])([H])[H])[N+]([H])([H])C([H])([H])C([H])([H])C(=O)N4C([H])([H])C([H])([H])C([H])([H])C([H])(n5nc(-c6c([H])c([H])c(Oc7c([H])c([H])c(F)c([H])c7F)c([H])c6[H])c(C(=O)N([H])[H])c5N([H])[H])C4([H])[H])C3([H])[H])c([H])c([H])c2C1([H])[H]

$$$$
18:0:0
     RDKit          3D

 95103  0  0  1  0  0  0  0  0999 V2000
  -29.4820  -19.8980   20.1290 N   0  0  0  0  0  4  0  0  0  0  0  0
  -29.3520  -19.4990   21.0430 H   0  0  0  0  0  0  0  0  0  0  0  0
  -30.4580  -20.1330   20.0450 H   0  0  0  0  0  0  0  0  0  0  0  0
  -28.6770  -21.2170   20.0920 C   0  0  0  0  0  3  0  0  0  0  0  0
  -29.3800  -22.6340   20.3580 C   0  0  0  0  0  3  0  0  0  0  0  0
  -28.4850  -23.9460   20.6410 C   0  0  0  0  0  2  0  0  0  0  0  0
  -28.9060  -25.3300   19.9590 C   0  0  0  0  0  2  0  0  0  0  0  0
  -28.6670  -26.6350   20.6130 O   0  0  0  0  0  0  0  0  0  0  0  0
  -24.6140  -31.9220   23.3150 C   0  0  0  0  0  0  0  0  0  0  0  0
  -27.4960  -27.3920   20.4710 C   0  0  0  0  0  0  0  0  0  0  0  0
  -23.5290  -30.4670   21.6400 C   0  0  0  0  0  3  0  0  0  0  0  0
  -25.0850  -28.9240   20.3200 C   0  0  0  0  0  0  0  0  0  0  0  0
  -26.0630  -30.8470   21.5780 C   0  0  0  0  0  2  0  0  0  0  0  0
  -26.2070  -29.4610   20.9600 C   0  0  0  0  0  0  0  0  0  0  0  0
  -27.4100  -28.7050   21.0290 C   0  0  0  0  0  3  0  0  0  0  0  0
  -26.3470  -26.8900   19.8200 C   0  0  0  0  0  3  0  0  0  0  0  0
  -25.1550  -27.6420   19.7470 C   0  0  0  0  0  3  0  0  0  0  0  0
  -23.8300  -29.7730   20.2830 C   0  0  0  0  0  2  0  0  0  0  0  0
  -24.7500  -31.1000   22.2330 N   0  0  0  0  0  0  0  0  0  0  0  0
  -23.5000  -32.1790   23.7940 O   0  0  0  0  0  0  0  0  0  0  0  0
  -22.8490  -29.4490   22.5840 C   0  0  0  0  0  0  0  0  0  0  0  0
  -21.5330  -29.2460   22.4060 N   0  0  0  0  0  0  0  0  0  0  0  0
  -23.5040  -28.8450   23.4370 O   0  0  0  0  0  0  0  0  0  0  0  0
  -21.0610  -29.7890   21.6960 H   0  0  0  0  0  0  0  0  0  0  0  0
  -18.1500  -28.0380   22.8290 C   0  0  0  0  0  0  0  0  0  0  0  0
  -20.7010  -28.3010   23.1510 C   0  0  0  0  0  3  0  0  0  0  0  0
  -20.8180  -26.8730   22.5720 C   0  0  0  0  0  2  0  0  0  0  0  0
  -19.7400  -26.5520   21.5320 C   0  0  0  0  0  2  0  0  0  0  0  0
  -18.3430  -26.6920   22.1480 C   0  0  0  0  0  2  0  0  0  0  0  0
  -19.2570  -28.8000   23.2860 C   0  0  0  0  0  0  0  0  0  0  0  0
  -19.0240  -30.0570   23.8820 C   0  0  0  0  0  3  0  0  0  0  0  0
  -17.7160  -30.5560   24.0230 C   0  0  0  0  0  3  0  0  0  0  0  0
  -16.6220  -29.7910   23.5840 C   0  0  0  0  0  3  0  0  0  0  0  0
  -16.8390  -28.5330   22.9920 C   0  0  0  0  0  3  0  0  0  0  0  0
  -25.8490  -32.6000   23.9900 C   0  0  0  0  0  3  0  0  0  0  0  0
  -25.4930  -33.9990   24.2650 N   0  0  0  0  0  0  0  0  0  0  0  0
  -25.8240  -35.0380   23.4870 C   0  0  0  0  0  0  0  0  0  0  0  0
  -26.5320  -34.9220   22.4840 O   0  0  0  0  0  0  0  0  0  0  0  0
  -24.8710  -34.1630   25.0420 H   0  0  0  0  0  0  0  0  0  0  0  0
  -24.0570  -36.7670   23.0250 C   0  0  0  0  0  1  0  0  0  0  0  0
  -25.2850  -36.4260   23.8850 C   0  0  0  0  0  3  0  0  0  0  0  0
  -27.3640  -37.4040   24.7510 C   0  0  0  0  0  1  0  0  0  0  0  0
  -26.2900  -37.5040   23.7640 N   0  0  0  0  0  0  0  0  0  0  0  0
  -25.8540  -38.4170   23.8600 H   0  0  0  0  0  0  0  0  0  0  0  0
  -26.3100  -31.8760   25.3130 C   0  0  1  0  0  0  0  0  0  0  0  0
  -25.1590  -31.6120   26.3140 C   0  0  0  0  0  1  0  0  0  0  0  0
  -26.9740  -30.5180   24.9890 C   0  0  0  0  0  1  0  0  0  0  0  0
  -27.3820  -32.7290   26.0310 C   0  0  0  0  0  1  0  0  0  0  0  0
  -29.1740  -18.8120   19.0830 C   0  0  0  0  0  3  0  0  0  0  0  0
  -32.0850  -17.2990   17.7730 C   0  0  0  0  0  2  0  0  0  0  0  0
  -32.5470  -17.9680   19.0780 C   0  0  0  0  0  2  0  0  0  0  0  0
  -30.5670  -17.0240   17.7210 C   0  0  0  0  0  2  0  0  0  0  0  0
  -31.9360  -17.3760   20.3870 C   0  0  0  0  0  2  0  0  0  0  0  0
  -29.8260  -17.2760   19.0680 C   0  0  0  0  0  3  0  0  0  0  0  0
  -30.6400  -16.4890   20.2270 C   0  0  2  0  0  0  0  0  0  0  0  0
  -29.9160  -16.5250   21.5880 C   0  0  0  0  0  1  0  0  0  0  0  0
  -31.1100  -14.9340   19.9440 C   0  0  0  0  0  0  0  0  0  0  0  0
  -30.7260  -12.6100   19.1050 C   0  0  0  0  0  2  0  0  0  0  0  0
  -29.7750  -12.6570   17.8920 C   0  0  0  0  0  2  0  0  0  0  0  0
  -28.3120  -12.5520   18.3530 C   0  0  0  0  0  2  0  0  0  0  0  0
  -27.9910  -13.4890   19.5430 C   0  0  0  0  0  3  0  0  0  0  0  0
  -29.0900  -13.4600   20.6260 C   0  0  0  0  0  2  0  0  0  0  0  0
  -30.3790  -13.7550   19.9880 N   0  0  0  0  0  0  0  0  0  0  0  0
  -32.2730  -14.8190   19.5490 O   0  0  0  0  0  0  0  0  0  0  0  0
  -25.6730  -14.1210   20.4310 C   0  0  0  0  0  0  0  0  0  0  0  0
  -24.5940  -13.3820   20.8210 C   0  0  0  0  0  0  0  0  0  0  0  0
  -24.9980  -12.0230   20.7000 C   0  0  0  0  0  0  0  0  0  0  0  0
  -26.6660  -13.2220   20.0980 N   0  0  0  0  0  0  0  0  0  0  0  0
  -26.2710  -11.9440   20.3230 N   0  0  0  0  0  0  0  0  0  0  0  0
  -24.2200  -10.7900   20.8530 C   0  0  0  0  0  0  0  0  0  0  0  0
  -24.5990   -9.7950   21.7780 C   0  0  0  0  0  3  0  0  0  0  0  0
  -23.8210   -8.6270   21.9280 C   0  0  0  0  0  3  0  0  0  0  0  0
  -22.6500   -8.4500   21.1520 C   0  0  0  0  0  0  0  0  0  0  0  0
  -22.2890   -9.4380   20.2190 C   0  0  0  0  0  3  0  0  0  0  0  0
  -23.0680  -10.5960   20.0680 C   0  0  0  0  0  3  0  0  0  0  0  0
  -21.8490   -7.3350   21.2120 O   0  0  0  0  0  0  0  0  0  0  0  0
  -21.6780   -6.6350   22.3800 C   0  0  0  0  0  0  0  0  0  0  0  0
  -21.1240   -7.2320   23.5330 C   0  0  0  0  0  3  0  0  0  0  0  0
  -20.9100   -6.4570   24.6910 C   0  0  0  0  0  3  0  0  0  0  0  0
  -21.2290   -5.0870   24.6910 C   0  0  0  0  0  0  0  0  0  0  0  0
  -21.7730   -4.4890   23.5390 C   0  0  0  0  0  3  0  0  0  0  0  0
  -21.9940   -5.2610   22.3860 C   0  0  0  0  0  0  0  0  0  0  0  0
  -22.4990   -4.6770   21.2730 F   0  0  0  0  0  0  0  0  0  0  0  0
  -21.0130   -4.3410   25.7980 F   0  0  0  0  0  0  0  0  0  0  0  0
  -23.2370  -13.9190   21.1750 C   0  0  0  0  0  0  0  0  0  0  0  0
  -22.5080  -13.2340   22.0550 N   0  0  0  0  0  0  0  0  0  0  0  0
  -22.8300  -14.9820   20.7090 O   0  0  0  0  0  0  0  0  0  0  0  0
  -22.8360  -12.3720   22.4610 H   0  0  0  0  0  0  0  0  0  0  0  0
  -21.6040  -13.5900   22.3270 H   0  0  0  0  0  0  0  0  0  0  0  0
  -25.8750  -15.4780   20.3100 N   0  0  0  0  0  0  0  0  0  0  0  0
  -25.1480  -16.1540   20.5060 H   0  0  0  0  0  0  0  0  0  0  0  0
  -26.7100  -15.8900   19.9180 H   0  0  0  0  0  0  0  0  0  0  0  0
  -27.6350  -18.7270   17.0090 C   0  0  0  0  0  1  0  0  0  0  0  0
  -26.7130  -17.9460   19.2870 C   0  0  0  0  0  1  0  0  0  0  0  0
  -27.7000  -18.8560   18.5470 C   0  0  0  0  0  3  0  0  0  0  0  0
  1  2  1  0
  3  1  1  0
  4  1  1  0
  4  5  2  0
  5  6  1  0
  7  8  1  0
  7  6  1  0
  9 20  2  0
 10  8  1  0
 10 15  1  0
 11 19  1  0
 11 21  1  0
 12 14  1  0
 13 19  1  0
 14 15  2  0
 14 13  1  0
 16 10  2  0
 17 16  1  0
 17 12  2  0
 18 12  1  0
 18 11  1  0
 19  9  1  0
 21 23  2  0
 22 21  1  0
 24 22  1  0
 25 34  2  0
 25 30  1  0
 26 22  1  0
 26 30  1  0
 27 26  1  0
 28 29  1  0
 28 27  1  0
 29 25  1  0
 30 31  2  0
 31 32  1  0
 33 32  2  0
 34 33  1  0
 35  9  1  0
 35 36  1  0
 35 45  1  0
 36 39  1  0
 37 41  1  0
 37 36  1  0
 38 37  2  0
 41 40  1  0
 43 44  1  0
 43 41  1  0
 43 42  1  0
 45 48  1  1
 45 46  1  0
 47 45  1  0
 49 95  1  0
 49  1  1  0
 50 51  1  0
 51 53  1  0
 52 50  1  0
 52 54  1  0
 54 49  1  0
 54 55  1  0
 55 53  1  0
 55 56  1  1
 57 63  1  0
 57 55  1  0
 58 63  1  0
 59 60  1  0
 59 58  1  0
 61 60  1  0
 61 68  1  0
 61 62  1  0
 63 62  1  0
 64 57  2  0
 65 66  2  0
 66 85  1  0
 67 66  1  0
 67 70  1  0
 68 69  1  0
 68 65  1  0
 69 67  2  0
 70 71  1  0
 71 72  2  0
 73 76  1  0
 73 72  1  0
 74 73  2  0
 75 74  1  0
 75 70  2  0
 76 77  1  0
 77 82  2  0
 77 78  1  0
 78 79  2  0
 79 80  1  0
 80 84  1  0
 81 80  2  0
 82 81  1  0
 83 82  1  0
 85 86  1  0
 86 89  1  0
 86 88  1  0
 87 85  2  0
 90 65  1  0
 90 91  1  0
 92 90  1  0
 93 95  1  0
 95 94  1  0
M  ISO  4   7 101   8 101  55 100  57 100
M  END
>  <TORSDO>  (19) 
F 23

>  <SCORE>  (19) 
-12.342

>  <name>  (19) 
18

>  <ligand_id>  (19) 
18

>  <original_smiles>  (19) 
[H]c1c([H])c([H])c2c(c1[H])C([H])([H])C([H])([H])C([H])([H])C2([H])N([H])C(=O)C1([H])N(C(=O)C([H])(N([H])C(=O)C([H])(N([H])C([H])([H])[H])C([H])([H])[H])C(C([H])([H])[H])(C([H])([H])[H])C([H])([H])[H])C([H])([H])c2c([H])c(OC([H])([H])C([H])([H])C([H])([H])C([H])([H])[N+]([H])([H])C([H])(C([H])(C([H])([H])[H])C([H])([H])[H])C3([H])C([H])([H])C([H])([H])C([H])([H])C([H])([H])C3(C(=O)N3C([H])([H])C([H])([H])C([H])([H])C([H])(n4nc(-c5c([H])c([H])c(Oc6c([H])c([H])c(F)c([H])c6F)c([H])c5[H])c(C(=O)N([H])[H])c4N([H])[H])C3([H])[H])C([H])([H])[H])c([H])c([H])c2C1([H])[H]

>  <smiles>  (19) 
[H]c1c([H])c([H])c2c(c1[H])C([H])([H])C([H])([H])C([H])([H])C2([H])N([H])C(=O)C1([H])N(C(=O)C([H])(N([H])C(=O)C([H])(N([H])C([H])([H])[H])C([H])([H])[H])C(C([H])([H])[H])(C([H])([H])[H])C([H])([H])[H])C([H])([H])c2c([H])c(OC([H])([H])C([H])([H])C([H])([H])C([H])([H])[N+]([H])([H])C([H])(C([H])(C([H])([H])[H])C([H])([H])[H])C3([H])C([H])([H])C([H])([H])C([H])([H])C([H])([H])C3(C(=O)N3C([H])([H])C([H])([H])C([H])([H])C([H])(n4nc(-c5c([H])c([H])c(Oc6c([H])c([H])c(F)c([H])c6F)c([H])c5[H])c(C(=O)N([H])[H])c4N([H])[H])C3([H])[H])C([H])([H])[H])c([H])c([H])c2C1([H])[H]

$$$$
19:0:0
     RDKit          3D

 92100  0  0  1  0  0  0  0  0999 V2000
  -30.9950  -21.5270   17.8700 C   0  0  0  0  0  2  0  0  0  0  0  0
  -29.4820  -21.3650   17.7060 C   0  0  0  0  0  2  0  0  0  0  0  0
  -31.1950  -22.6400   18.9120 C   0  0  0  0  0  2  0  0  0  0  0  0
  -28.8730  -22.5760   18.4080 C   0  0  0  0  0  2  0  0  0  0  0  0
  -29.8190  -22.9160   19.5810 C   0  0  1  0  0  0  0  0  0  0  0  0
  -29.5050  -21.9740   20.8220 C   0  0  0  0  0  2  0  0  0  0  0  0
  -30.2660  -20.6210   21.0240 C   0  0  0  0  0  0  0  0  0  0  0  0
  -29.5830  -19.4530   21.0090 N   0  0  0  0  0  0  0  0  0  0  0  0
  -31.4640  -20.6440   21.3080 O   0  0  0  0  0  0  0  0  0  0  0  0
  -28.5920  -19.5110   20.8100 H   0  0  0  0  0  0  0  0  0  0  0  0
  -30.0670  -18.1530   21.5370 C   0  0  0  0  0  2  0  0  0  0  0  0
  -30.1070  -16.9710   20.5190 C   0  0  0  0  0  2  0  0  0  0  0  0
  -30.3530  -15.5690   21.1870 C   0  0  0  0  0  2  0  0  0  0  0  0
  -30.8170  -14.4160   20.2420 C   0  0  0  0  0  0  0  0  0  0  0  0
  -30.4190  -12.3100   18.9820 C   0  0  0  0  0  2  0  0  0  0  0  0
  -29.4270  -12.5510   17.8250 C   0  0  0  0  0  2  0  0  0  0  0  0
  -27.9720  -12.4290   18.3110 C   0  0  0  0  0  2  0  0  0  0  0  0
  -27.7070  -13.2330   19.6120 C   0  0  0  0  0  3  0  0  0  0  0  0
  -28.7980  -12.9430   20.6660 C   0  0  0  0  0  2  0  0  0  0  0  0
  -30.1030  -13.2630   20.0660 N   0  0  0  0  0  0  0  0  0  0  0  0
  -31.8760  -14.6000   19.6360 O   0  0  0  0  0  0  0  0  0  0  0  0
  -25.3440  -13.8750   20.4010 C   0  0  0  0  0  0  0  0  0  0  0  0
  -24.2780  -13.1170   20.8080 C   0  0  0  0  0  0  0  0  0  0  0  0
  -24.7180  -11.7590   20.7610 C   0  0  0  0  0  0  0  0  0  0  0  0
  -26.3670  -12.9780   20.1360 N   0  0  0  0  0  0  0  0  0  0  0  0
  -25.9950  -11.7010   20.4080 N   0  0  0  0  0  0  0  0  0  0  0  0
  -23.9790  -10.5070   20.9710 C   0  0  0  0  0  0  0  0  0  0  0  0
  -24.4270   -9.5270   21.8830 C   0  0  0  0  0  3  0  0  0  0  0  0
  -23.6880   -8.3410   22.0800 C   0  0  0  0  0  3  0  0  0  0  0  0
  -22.4860   -8.1270   21.3660 C   0  0  0  0  0  0  0  0  0  0  0  0
  -22.0560   -9.0960   20.4410 C   0  0  0  0  0  3  0  0  0  0  0  0
  -22.7950  -10.2730   20.2420 C   0  0  0  0  0  3  0  0  0  0  0  0
  -21.7150   -6.9930   21.4770 O   0  0  0  0  0  0  0  0  0  0  0  0
  -21.6990   -6.2440   22.6260 C   0  0  0  0  0  0  0  0  0  0  0  0
  -21.3330   -6.7990   23.8720 C   0  0  0  0  0  3  0  0  0  0  0  0
  -21.2610   -5.9770   25.0150 C   0  0  0  0  0  3  0  0  0  0  0  0
  -21.5440   -4.6010   24.9120 C   0  0  0  0  0  0  0  0  0  0  0  0
  -21.9020   -4.0460   23.6710 C   0  0  0  0  0  3  0  0  0  0  0  0
  -21.9750   -4.8640   22.5310 C   0  0  0  0  0  0  0  0  0  0  0  0
  -22.3000   -4.3200   21.3330 F   0  0  0  0  0  0  0  0  0  0  0  0
  -21.4670   -3.8100   26.0070 F   0  0  0  0  0  0  0  0  0  0  0  0
  -22.9000  -13.6150   21.1320 C   0  0  0  0  0  0  0  0  0  0  0  0
  -22.1910  -12.9260   22.0240 N   0  0  0  0  0  0  0  0  0  0  0  0
  -22.4590  -14.6480   20.6310 O   0  0  0  0  0  0  0  0  0  0  0  0
  -22.5600  -12.0870   22.4490 H   0  0  0  0  0  0  0  0  0  0  0  0
  -21.2670  -13.2410   22.2820 H   0  0  0  0  0  0  0  0  0  0  0  0
  -25.5210  -15.2410   20.2100 N   0  0  0  0  0  0  0  0  0  0  0  0
  -24.7560  -15.9020   20.2930 H   0  0  0  0  0  0  0  0  0  0  0  0
  -26.3580  -15.6570   19.8210 H   0  0  0  0  0  0  0  0  0  0  0  0
  -29.7480  -24.4490   19.9580 C   0  0  0  0  0  2  0  0  0  0  0  0
  -28.3570  -25.1280   20.0400 C   0  0  0  0  0  2  0  0  0  0  0  0
  -28.4490  -26.5560   20.2650 O   0  0  0  0  0  0  0  0  0  0  0  0
  -24.6270  -31.8230   23.2420 C   0  0  0  0  0  0  0  0  0  0  0  0
  -27.2800  -27.3070   20.2340 C   0  0  0  0  0  0  0  0  0  0  0  0
  -23.4390  -30.4210   21.5890 C   0  0  0  0  0  3  0  0  0  0  0  0
  -24.9020  -28.8640   20.2020 C   0  0  0  0  0  0  0  0  0  0  0  0
  -25.9750  -30.7480   21.4390 C   0  0  0  0  0  2  0  0  0  0  0  0
  -26.0600  -29.3720   20.8030 C   0  0  0  0  0  0  0  0  0  0  0  0
  -27.2510  -28.6020   20.8090 C   0  0  0  0  0  3  0  0  0  0  0  0
  -26.0900  -26.8200   19.6370 C   0  0  0  0  0  3  0  0  0  0  0  0
  -24.9130  -27.5900   19.6160 C   0  0  0  0  0  3  0  0  0  0  0  0
  -23.6660  -29.7350   20.2180 C   0  0  0  0  0  2  0  0  0  0  0  0
  -24.6980  -31.0110   22.1490 N   0  0  0  0  0  0  0  0  0  0  0  0
  -23.5370  -32.1080   23.7600 O   0  0  0  0  0  0  0  0  0  0  0  0
  -22.7640  -29.4090   22.5440 C   0  0  0  0  0  0  0  0  0  0  0  0
  -21.4400  -29.2320   22.3900 N   0  0  0  0  0  0  0  0  0  0  0  0
  -23.4280  -28.7870   23.3770 O   0  0  0  0  0  0  0  0  0  0  0  0
  -20.9680  -29.7860   21.6890 H   0  0  0  0  0  0  0  0  0  0  0  0
  -18.0510  -28.0540   22.8300 C   0  0  0  0  0  0  0  0  0  0  0  0
  -20.6040  -28.3040   23.1510 C   0  0  0  0  0  3  0  0  0  0  0  0
  -20.7120  -26.8690   22.5900 C   0  0  0  0  0  2  0  0  0  0  0  0
  -19.6310  -26.5410   21.5560 C   0  0  0  0  0  2  0  0  0  0  0  0
  -18.2360  -26.6980   22.1690 C   0  0  0  0  0  2  0  0  0  0  0  0
  -19.1640  -28.8140   23.2770 C   0  0  0  0  0  0  0  0  0  0  0  0
  -18.9400  -30.0840   23.8540 C   0  0  0  0  0  3  0  0  0  0  0  0
  -17.6350  -30.5940   23.9850 C   0  0  0  0  0  3  0  0  0  0  0  0
  -16.5360  -29.8310   23.5580 C   0  0  0  0  0  3  0  0  0  0  0  0
  -16.7450  -28.5620   22.9860 C   0  0  0  0  0  3  0  0  0  0  0  0
  -25.9070  -32.4510   23.8800 C   0  0  0  0  0  3  0  0  0  0  0  0
  -25.6000  -33.8510   24.1950 N   0  0  0  0  0  0  0  0  0  0  0  0
  -25.9490  -34.8970   23.4320 C   0  0  0  0  0  0  0  0  0  0  0  0
  -26.6340  -34.7830   22.4130 O   0  0  0  0  0  0  0  0  0  0  0  0
  -24.9950  -34.0130   24.9860 H   0  0  0  0  0  0  0  0  0  0  0  0
  -24.2350  -36.6940   23.0400 C   0  0  0  0  0  1  0  0  0  0  0  0
  -25.4620  -36.2910   23.8720 C   0  0  0  0  0  3  0  0  0  0  0  0
  -27.5900  -37.1690   24.7290 C   0  0  0  0  0  1  0  0  0  0  0  0
  -26.5030  -37.3380   23.7680 N   0  0  0  0  0  0  0  0  0  0  0  0
  -26.0990  -38.2610   23.9060 H   0  0  0  0  0  0  0  0  0  0  0  0
  -26.4000  -31.6850   25.1690 C   0  0  1  0  0  0  0  0  0  0  0  0
  -25.2880  -31.4590   26.2210 C   0  0  0  0  0  1  0  0  0  0  0  0
  -26.9820  -30.3020   24.7960 C   0  0  0  0  0  1  0  0  0  0  0  0
  -27.5450  -32.4780   25.8420 C   0  0  0  0  0  1  0  0  0  0  0  0
  1  3  1  0
  2  1  1  0
  2  4  1  0
  3  5  1  0
  4  5  1  0
  5 50  1  1
  5  6  1  0
  6  7  1  0
  7  9  2  0
  8  7  1  0
  8 11  1  0
 10  8  1  0
 12 13  1  0
 12 11  1  0
 14 13  1  0
 15 20  1  0
 16 17  1  0
 16 15  1  0
 18 17  1  0
 18 25  1  0
 18 19  1  0
 20 14  1  0
 20 19  1  0
 21 14  2  0
 22 23  2  0
 23 42  1  0
 24 23  1  0
 24 27  1  0
 25 22  1  0
 25 26  1  0
 26 24  2  0
 27 28  1  0
 28 29  2  0
 30 33  1  0
 30 29  1  0
 31 30  2  0
 32 31  1  0
 32 27  2  0
 33 34  1  0
 34 35  1  0
 35 36  2  0
 37 36  1  0
 37 41  1  0
 38 37  2  0
 39 34  2  0
 39 38  1  0
 40 39  1  0
 42 43  1  0
 43 46  1  0
 43 45  1  0
 44 42  2  0
 47 48  1  0
 47 22  1  0
 49 47  1  0
 50 51  1  0
 51 52  1  0
 53 64  2  0
 54 52  1  0
 54 59  1  0
 55 63  1  0
 55 65  1  0
 56 62  1  0
 56 58  1  0
 57 63  1  0
 58 59  2  0
 58 57  1  0
 60 54  2  0
 61 60  1  0
 61 56  2  0
 62 55  1  0
 63 53  1  0
 65 67  2  0
 66 65  1  0
 68 66  1  0
 69 78  2  0
 69 74  1  0
 70 66  1  0
 70 74  1  0
 71 70  1  0
 72 73  1  0
 72 71  1  0
 73 69  1  0
 74 75  2  0
 75 76  1  0
 77 76  2  0
 78 77  1  0
 79 53  1  0
 79 80  1  0
 79 89  1  0
 80 83  1  0
 81 85  1  0
 81 80  1  0
 82 81  2  0
 85 84  1  0
 87 85  1  0
 87 88  1  0
 87 86  1  0
 89 92  1  1
 89 90  1  0
 91 89  1  0
M  ISO  4  13 100  14 100  51 101  52 101
M  END
>  <TORSDO>  (20) 
F 23

>  <SCORE>  (20) 
-12.746

>  <name>  (20) 
19

>  <ligand_id>  (20) 
19

>  <original_smiles>  (20) 
[H]c1c([H])c([H])c2c(c1[H])C([H])([H])C([H])([H])C([H])([H])C2([H])N([H])C(=O)C1([H])N(C(=O)C([H])(N([H])C(=O)C([H])(N([H])C([H])([H])[H])C([H])([H])[H])C(C([H])([H])[H])(C([H])([H])[H])C([H])([H])[H])C([H])([H])c2c([H])c(OC([H])([H])C([H])([H])C3(C([H])([H])C(=O)N([H])C([H])([H])C([H])([H])C([H])([H])C(=O)N4C([H])([H])C([H])([H])C([H])([H])C([H])(n5nc(-c6c([H])c([H])c(Oc7c([H])c([H])c(F)c([H])c7F)c([H])c6[H])c(C(=O)N([H])[H])c5N([H])[H])C4([H])[H])C([H])([H])C([H])([H])C([H])([H])C3([H])[H])c([H])c([H])c2C1([H])[H]

>  <smiles>  (20) 
[H]c1c([H])c([H])c2c(c1[H])C([H])([H])C([H])([H])C([H])([H])C2([H])N([H])C(=O)C1([H])N(C(=O)C([H])(N([H])C(=O)C([H])(N([H])C([H])([H])[H])C([H])([H])[H])C(C([H])([H])[H])(C([H])([H])[H])C([H])([H])[H])C([H])([H])c2c([H])c(OC([H])([H])C([H])([H])C3(C([H])([H])C(=O)N([H])C([H])([H])C([H])([H])C([H])([H])C(=O)N4C([H])([H])C([H])([H])C([H])([H])C([H])(n5nc(-c6c([H])c([H])c(Oc7c([H])c([H])c(F)c([H])c7F)c([H])c6[H])c(C(=O)N([H])[H])c5N([H])[H])C4([H])[H])C([H])([H])C([H])([H])C([H])([H])C3([H])[H])c([H])c([H])c2C1([H])[H]

$$$$
20:0:0
     RDKit          3D

 97106  0  0  1  0  0  0  0  0999 V2000
  -30.4240  -26.2670   17.0660 C   0  0  0  0  0  3  0  0  0  0  0  0
  -29.7160  -26.9190   18.1040 C   0  0  0  0  0  3  0  0  0  0  0  0
  -28.8440  -24.7700   18.9110 C   0  0  0  0  0  3  0  0  0  0  0  0
  -30.3320  -24.8650   16.9850 C   0  0  0  0  0  0  0  0  0  0  0  0
  -29.5460  -24.1430   17.8690 C   0  0  0  0  0  0  0  0  0  0  0  0
  -28.9470  -26.1730   19.0330 C   0  0  0  0  0  0  0  0  0  0  0  0
  -31.0920  -23.9180   16.0870 C   0  0  0  0  0  2  0  0  0  0  0  0
  -29.6910  -22.6710   17.6070 C   0  0  0  0  0  2  0  0  0  0  0  0
  -30.9420  -22.6180   16.8020 N   0  0  1  0  0  4  0  0  0  0  0  0
  -31.6860  -22.6300   17.4830 H   0  0  0  0  0  0  0  0  0  0  0  0
  -28.4220  -26.7740   20.1430 O   0  0  0  0  0  0  0  0  0  0  0  0
  -24.6090  -31.8700   23.2130 C   0  0  0  0  0  0  0  0  0  0  0  0
  -27.2540  -27.4890   20.0760 C   0  0  0  0  0  0  0  0  0  0  0  0
  -23.3980  -30.4900   21.5530 C   0  0  0  0  0  3  0  0  0  0  0  0
  -24.8490  -28.9620   20.1110 C   0  0  0  0  0  0  0  0  0  0  0  0
  -25.9190  -30.8500   21.3590 C   0  0  0  0  0  2  0  0  0  0  0  0
  -26.0020  -29.4870   20.7060 C   0  0  0  0  0  0  0  0  0  0  0  0
  -27.2040  -28.7530   20.6950 C   0  0  0  0  0  3  0  0  0  0  0  0
  -26.0880  -26.9600   19.4810 C   0  0  0  0  0  3  0  0  0  0  0  0
  -24.8840  -27.6950   19.4970 C   0  0  0  0  0  3  0  0  0  0  0  0
  -23.6060  -29.8200   20.1660 C   0  0  0  0  0  2  0  0  0  0  0  0
  -24.6600  -31.0820   22.1020 N   0  0  0  0  0  0  0  0  0  0  0  0
  -23.5290  -32.1440   23.7540 O   0  0  0  0  0  0  0  0  0  0  0  0
  -22.7390  -29.4650   22.5020 C   0  0  0  0  0  0  0  0  0  0  0  0
  -21.4120  -29.3020   22.3750 N   0  0  0  0  0  0  0  0  0  0  0  0
  -23.4160  -28.8210   23.3070 O   0  0  0  0  0  0  0  0  0  0  0  0
  -20.9280  -29.8710   21.6950 H   0  0  0  0  0  0  0  0  0  0  0  0
  -18.0260  -28.1390   22.8510 C   0  0  0  0  0  0  0  0  0  0  0  0
  -20.5850  -28.3660   23.1350 C   0  0  0  0  0  3  0  0  0  0  0  0
  -20.6760  -26.9410   22.5440 C   0  0  0  0  0  2  0  0  0  0  0  0
  -19.5740  -26.6400   21.5230 C   0  0  0  0  0  2  0  0  0  0  0  0
  -18.1920  -26.7940   22.1630 C   0  0  0  0  0  2  0  0  0  0  0  0
  -19.1510  -28.8840   23.2930 C   0  0  0  0  0  0  0  0  0  0  0  0
  -18.9430  -30.1450   23.8940 C   0  0  0  0  0  3  0  0  0  0  0  0
  -17.6430  -30.6600   24.0570 C   0  0  0  0  0  3  0  0  0  0  0  0
  -16.5330  -29.9100   23.6320 C   0  0  0  0  0  3  0  0  0  0  0  0
  -16.7250  -28.6520   23.0350 C   0  0  0  0  0  3  0  0  0  0  0  0
  -25.8990  -32.4840   23.8420 C   0  0  0  0  0  3  0  0  0  0  0  0
  -25.5850  -33.8640   24.2340 N   0  0  0  0  0  0  0  0  0  0  0  0
  -25.9030  -34.9500   23.5150 C   0  0  0  0  0  0  0  0  0  0  0  0
  -26.5610  -34.8930   22.4720 O   0  0  0  0  0  0  0  0  0  0  0  0
  -24.9930  -33.9810   25.0440 H   0  0  0  0  0  0  0  0  0  0  0  0
  -24.1480  -36.7340   23.2640 C   0  0  0  0  0  1  0  0  0  0  0  0
  -25.4100  -36.3140   24.0340 C   0  0  0  0  0  3  0  0  0  0  0  0
  -27.5580  -37.1820   24.8460 C   0  0  0  0  0  1  0  0  0  0  0  0
  -26.4300  -37.3810   23.9410 N   0  0  0  0  0  0  0  0  0  0  0  0
  -26.0200  -38.2890   24.1400 H   0  0  0  0  0  0  0  0  0  0  0  0
  -26.4440  -31.6610   25.0730 C   0  0  1  0  0  0  0  0  0  0  0  0
  -25.3710  -31.3670   26.1470 C   0  0  0  0  0  1  0  0  0  0  0  0
  -27.0270  -30.3060   24.6080 C   0  0  0  0  0  1  0  0  0  0  0  0
  -27.6040  -32.4310   25.7470 C   0  0  0  0  0  1  0  0  0  0  0  0
  -31.1400  -21.4050   15.9690 C   0  0  0  0  0  2  0  0  0  0  0  0
  -30.9320  -20.0720   16.7320 C   0  0  0  0  0  2  0  0  0  0  0  0
  -31.8410  -19.8560   17.9630 C   0  0  0  0  0  2  0  0  0  0  0  0
  -31.4640  -18.5900   18.7600 C   0  0  0  0  0  2  0  0  0  0  0  0
  -32.1930  -18.4950   20.1220 C   0  0  0  0  0  2  0  0  0  0  0  0
  -32.9260  -17.1070   22.0040 C   0  0  0  0  0  1  0  0  0  0  0  0
  -31.9920  -17.2120   20.8560 N   0  0  1  0  0  4  0  0  0  0  0  0
  -32.2530  -16.4600   20.2250 H   0  0  0  0  0  0  0  0  0  0  0  0
  -30.5780  -16.9240   21.2400 C   0  0  0  0  0  2  0  0  0  0  0  0
  -30.2780  -15.4550   21.6560 C   0  0  0  0  0  2  0  0  0  0  0  0
  -30.7520  -14.3860   20.6510 C   0  0  0  0  0  0  0  0  0  0  0  0
  -30.4200  -12.2930   19.3880 C   0  0  0  0  0  2  0  0  0  0  0  0
  -29.4860  -12.5310   18.1870 C   0  0  0  0  0  2  0  0  0  0  0  0
  -28.0090  -12.3920   18.6050 C   0  0  0  0  0  2  0  0  0  0  0  0
  -27.6720  -13.2040   19.8850 C   0  0  0  0  0  3  0  0  0  0  0  0
  -28.7150  -12.9290   20.9920 C   0  0  0  0  0  2  0  0  0  0  0  0
  -30.0460  -13.2420   20.4480 N   0  0  0  0  0  0  0  0  0  0  0  0
  -31.7960  -14.6200   20.0330 O   0  0  0  0  0  0  0  0  0  0  0  0
  -25.2660  -13.8160   20.5700 C   0  0  0  0  0  0  0  0  0  0  0  0
  -24.1890  -13.0430   20.9170 C   0  0  0  0  0  0  0  0  0  0  0  0
  -24.6440  -11.6900   20.8730 C   0  0  0  0  0  0  0  0  0  0  0  0
  -26.3100  -12.9320   20.3430 N   0  0  0  0  0  0  0  0  0  0  0  0
  -25.9370  -11.6470   20.5770 N   0  0  0  0  0  0  0  0  0  0  0  0
  -23.9090  -10.4290   21.0400 C   0  0  0  0  0  0  0  0  0  0  0  0
  -24.3630   -9.4210   21.9180 C   0  0  0  0  0  3  0  0  0  0  0  0
  -23.6320   -8.2240   22.0740 C   0  0  0  0  0  3  0  0  0  0  0  0
  -22.4300   -8.0280   21.3530 C   0  0  0  0  0  0  0  0  0  0  0  0
  -21.9940   -9.0250   20.4630 C   0  0  0  0  0  3  0  0  0  0  0  0
  -22.7260  -10.2140   20.3040 C   0  0  0  0  0  3  0  0  0  0  0  0
  -21.6640   -6.8890   21.4250 O   0  0  0  0  0  0  0  0  0  0  0  0
  -21.6860   -6.0740   22.5280 C   0  0  0  0  0  0  0  0  0  0  0  0
  -21.4010   -6.5640   23.8220 C   0  0  0  0  0  3  0  0  0  0  0  0
  -21.3660   -5.6800   24.9180 C   0  0  0  0  0  3  0  0  0  0  0  0
  -21.6040   -4.3060   24.7240 C   0  0  0  0  0  0  0  0  0  0  0  0
  -21.8830   -3.8150   23.4360 C   0  0  0  0  0  3  0  0  0  0  0  0
  -21.9200   -4.6970   22.3420 C   0  0  0  0  0  0  0  0  0  0  0  0
  -22.1670   -4.2150   21.1000 F   0  0  0  0  0  0  0  0  0  0  0  0
  -21.5630   -3.4550   25.7760 F   0  0  0  0  0  0  0  0  0  0  0  0
  -22.7920  -13.5230   21.1830 C   0  0  0  0  0  0  0  0  0  0  0  0
  -22.0550  -12.8200   22.0370 N   0  0  0  0  0  0  0  0  0  0  0  0
  -22.3600  -14.5540   20.6700 O   0  0  0  0  0  0  0  0  0  0  0  0
  -22.4180  -11.9870   22.4760 H   0  0  0  0  0  0  0  0  0  0  0  0
  -21.1140  -13.1180   22.2550 H   0  0  0  0  0  0  0  0  0  0  0  0
  -25.4420  -15.1860   20.4120 N   0  0  0  0  0  0  0  0  0  0  0  0
  -24.6810  -15.8490   20.5100 H   0  0  0  0  0  0  0  0  0  0  0  0
  -26.3020  -15.6170   20.0950 H   0  0  0  0  0  0  0  0  0  0  0  0
  1  2  1  0
  2  6  2  0
  3  6  1  0
  4  1  2  0
  4  5  1  0
  5  3  2  0
  6 11  1  0
  7  9  1  0
  7  4  1  0
  8  5  1  0
  9 10  1  1
  9  8  1  0
 12 23  2  0
 13 11  1  0
 13 18  1  0
 14 22  1  0
 14 24  1  0
 15 21  1  0
 15 17  1  0
 16 22  1  0
 17 16  1  0
 18 17  2  0
 19 20  1  0
 19 13  2  0
 20 15  2  0
 21 14  1  0
 22 12  1  0
 24 26  2  0
 25 24  1  0
 27 25  1  0
 28 37  2  0
 28 33  1  0
 29 25  1  0
 29 33  1  0
 30 29  1  0
 31 32  1  0
 31 30  1  0
 32 28  1  0
 33 34  2  0
 34 35  1  0
 36 35  2  0
 37 36  1  0
 38 12  1  0
 38 39  1  0
 38 48  1  0
 39 42  1  0
 40 44  1  0
 40 39  1  0
 41 40  2  0
 44 43  1  0
 46 44  1  0
 46 47  1  0
 46 45  1  0
 48 51  1  1
 48 49  1  0
 50 48  1  0
 52 53  1  0
 52  9  1  0
 53 54  1  0
 54 55  1  0
 55 56  1  0
 56 58  1  0
 58 60  1  0
 58 57  1  0
 58 59  1  6
 60 61  1  0
 62 61  1  0
 63 68  1  0
 64 65  1  0
 64 63  1  0
 66 65  1  0
 66 73  1  0
 66 67  1  0
 68 62  1  0
 68 67  1  0
 69 62  2  0
 70 71  2  0
 71 90  1  0
 72 71  1  0
 72 75  1  0
 73 70  1  0
 73 74  1  0
 74 72  2  0
 75 76  1  0
 76 77  2  0
 78 81  1  0
 78 77  1  0
 79 78  2  0
 80 79  1  0
 80 75  2  0
 81 82  1  0
 82 83  1  0
 83 84  2  0
 85 84  1  0
 85 89  1  0
 86 85  2  0
 87 82  2  0
 87 86  1  0
 88 87  1  0
 90 91  1  0
 91 94  1  0
 91 93  1  0
 92 90  2  0
 95 96  1  0
 95 70  1  0
 97 95  1  0
M  ISO  4   6 101  11 101  61 100  62 100
M  END
>  <TORSDO>  (21) 
F 24

>  <SCORE>  (21) 
-9.525

>  <name>  (21) 
20

>  <ligand_id>  (21) 
20

>  <original_smiles>  (21) 
[H]c1c([H])c([H])c2c(c1[H])C([H])([H])C([H])([H])C([H])([H])C2([H])N([H])C(=O)C1([H])N(C(=O)C([H])(N([H])C(=O)C([H])(N([H])C([H])([H])[H])C([H])([H])[H])C(C([H])([H])[H])(C([H])([H])[H])C([H])([H])[H])C([H])([H])c2c([H])c(Oc3c([H])c([H])c4c(c3[H])C([H])([H])[N+]([H])(C([H])([H])C([H])([H])C([H])([H])C([H])([H])C([H])([H])[N+]([H])(C([H])([H])[H])C([H])([H])C([H])([H])C(=O)N3C([H])([H])C([H])([H])C([H])([H])C([H])(n5nc(-c6c([H])c([H])c(Oc7c([H])c([H])c(F)c([H])c7F)c([H])c6[H])c(C(=O)N([H])[H])c5N([H])[H])C3([H])[H])C4([H])[H])c([H])c([H])c2C1([H])[H]

>  <smiles>  (21) 
[H]c1c([H])c([H])c2c(c1[H])C([H])([H])C([H])([H])C([H])([H])C2([H])N([H])C(=O)C1([H])N(C(=O)C([H])(N([H])C(=O)C([H])(N([H])C([H])([H])[H])C([H])([H])[H])C(C([H])([H])[H])(C([H])([H])[H])C([H])([H])[H])C([H])([H])c2c([H])c(Oc3c([H])c([H])c4c(c3[H])C([H])([H])[N+]([H])(C([H])([H])C([H])([H])C([H])([H])C([H])([H])C([H])([H])[N+]([H])(C([H])([H])[H])C([H])([H])C([H])([H])C(=O)N3C([H])([H])C([H])([H])C([H])([H])C([H])(n5nc(-c6c([H])c([H])c(Oc7c([H])c([H])c(F)c([H])c7F)c([H])c6[H])c(C(=O)N([H])[H])c5N([H])[H])C3([H])[H])C4([H])[H])c([H])c([H])c2C1([H])[H]

$$$$
21:0:0
     RDKit          3D

 91 98  0  0  1  0  0  0  0  0999 V2000
  -28.6410  -19.7850   18.5690 C   0  0  0  0  0  1  0  0  0  0  0  0
  -29.3410  -19.8520   19.8710 N   0  0  2  0  0  4  0  0  0  0  0  0
  -28.6240  -19.6460   20.5500 H   0  0  0  0  0  0  0  0  0  0  0  0
  -31.1400  -21.7400   19.8990 C   0  0  0  0  0  1  0  0  0  0  0  0
  -29.6690  -21.4410   20.2370 C   0  0  0  0  0  3  0  0  0  0  0  0
  -28.7950  -22.9140   19.7370 C   0  0  0  0  0  2  0  0  0  0  0  0
  -28.5080  -24.4850   20.5230 C   0  0  0  0  0  2  0  0  0  0  0  0
  -28.5300  -26.0600   20.1170 O   0  0  0  0  0  0  0  0  0  0  0  0
  -24.5640  -31.7100   23.1370 C   0  0  0  0  0  0  0  0  0  0  0  0
  -27.4270  -27.0410   20.1400 C   0  0  0  0  0  0  0  0  0  0  0  0
  -23.4770  -30.2820   21.4480 C   0  0  0  0  0  3  0  0  0  0  0  0
  -25.0330  -28.7680   20.0510 C   0  0  0  0  0  0  0  0  0  0  0  0
  -26.0280  -30.6300   21.3650 C   0  0  0  0  0  2  0  0  0  0  0  0
  -26.1830  -29.2370   20.7020 C   0  0  0  0  0  0  0  0  0  0  0  0
  -27.3770  -28.3960   20.7170 C   0  0  0  0  0  3  0  0  0  0  0  0
  -26.2390  -26.7010   19.4600 C   0  0  0  0  0  3  0  0  0  0  0  0
  -25.0820  -27.5190   19.4120 C   0  0  0  0  0  3  0  0  0  0  0  0
  -23.7710  -29.6260   20.0710 C   0  0  0  0  0  2  0  0  0  0  0  0
  -24.7080  -30.8990   22.0390 N   0  0  0  0  0  0  0  0  0  0  0  0
  -23.4500  -31.9390   23.6350 O   0  0  0  0  0  0  0  0  0  0  0  0
  -22.8090  -29.2400   22.3810 C   0  0  0  0  0  0  0  0  0  0  0  0
  -21.4870  -29.0320   22.2320 N   0  0  0  0  0  0  0  0  0  0  0  0
  -23.4860  -28.6210   23.2050 O   0  0  0  0  0  0  0  0  0  0  0  0
  -20.9940  -29.5870   21.5470 H   0  0  0  0  0  0  0  0  0  0  0  0
  -18.1370  -27.7210   22.6840 C   0  0  0  0  0  0  0  0  0  0  0  0
  -20.6870  -28.0500   22.9710 C   0  0  0  0  0  3  0  0  0  0  0  0
  -20.8320  -26.6380   22.3550 C   0  0  0  0  0  2  0  0  0  0  0  0
  -19.7440  -26.3130   21.3260 C   0  0  0  0  0  2  0  0  0  0  0  0
  -18.3560  -26.3990   21.9660 C   0  0  0  0  0  2  0  0  0  0  0  0
  -19.2310  -28.5030   23.1400 C   0  0  0  0  0  0  0  0  0  0  0  0
  -18.9710  -29.7370   23.7730 C   0  0  0  0  0  3  0  0  0  0  0  0
  -17.6500  -30.1900   23.9560 C   0  0  0  0  0  3  0  0  0  0  0  0
  -16.5710  -29.4060   23.5120 C   0  0  0  0  0  3  0  0  0  0  0  0
  -16.8150  -28.1740   22.8820 C   0  0  0  0  0  3  0  0  0  0  0  0
  -25.7900  -32.3980   23.8110 C   0  0  0  0  0  3  0  0  0  0  0  0
  -25.4110  -33.7840   24.1300 N   0  0  0  0  0  0  0  0  0  0  0  0
  -25.7200  -34.8570   23.3860 C   0  0  0  0  0  0  0  0  0  0  0  0
  -26.4170  -34.7840   22.3720 O   0  0  0  0  0  0  0  0  0  0  0  0
  -24.7930  -33.9100   24.9180 H   0  0  0  0  0  0  0  0  0  0  0  0
  -23.9270  -36.5840   23.0070 C   0  0  0  0  0  1  0  0  0  0  0  0
  -25.1690  -36.2250   23.8390 C   0  0  0  0  0  3  0  0  0  0  0  0
  -27.2450  -37.2020   24.7140 C   0  0  0  0  0  1  0  0  0  0  0  0
  -26.1600  -37.3200   23.7440 N   0  0  0  0  0  0  0  0  0  0  0  0
  -25.7130  -38.2230   23.8770 H   0  0  0  0  0  0  0  0  0  0  0  0
  -26.2790  -31.6520   25.1150 C   0  0  1  0  0  0  0  0  0  0  0  0
  -25.1520  -31.3790   26.1390 C   0  0  0  0  0  1  0  0  0  0  0  0
  -26.9280  -30.2920   24.7650 C   0  0  0  0  0  1  0  0  0  0  0  0
  -27.3690  -32.4910   25.8210 C   0  0  0  0  0  1  0  0  0  0  0  0
  -30.3200  -18.5130   20.0260 C   0  0  0  0  0  3  0  0  0  0  0  0
  -31.2630  -18.6900   21.2190 C   0  0  0  0  0  0  0  0  0  0  0  0
  -32.4810  -18.1670   21.1310 N   0  0  0  0  0  0  0  0  0  0  0  0
  -30.8930  -19.2750   22.2350 O   0  0  0  0  0  0  0  0  0  0  0  0
  -32.7740  -17.6660   20.3020 H   0  0  0  0  0  0  0  0  0  0  0  0
  -33.1290  -18.2540   21.9010 H   0  0  0  0  0  0  0  0  0  0  0  0
  -29.8430  -16.8050   20.1030 C   0  0  0  0  0  2  0  0  0  0  0  0
  -30.7280  -15.3130   20.1350 C   0  0  0  0  0  0  0  0  0  0  0  0
  -30.7050  -12.8550   19.3340 C   0  0  0  0  0  2  0  0  0  0  0  0
  -29.7810  -12.6910   18.1010 C   0  0  0  0  0  2  0  0  0  0  0  0
  -28.3200  -12.4610   18.5330 C   0  0  0  0  0  2  0  0  0  0  0  0
  -27.8850  -13.4310   19.6600 C   0  0  0  0  0  3  0  0  0  0  0  0
  -28.9370  -13.5450   20.7810 C   0  0  0  0  0  2  0  0  0  0  0  0
  -30.1930  -13.9990   20.1630 N   0  0  0  0  0  0  0  0  0  0  0  0
  -31.9470  -15.3320   19.9150 O   0  0  0  0  0  0  0  0  0  0  0  0
  -25.5280  -14.0250   20.4390 C   0  0  0  0  0  0  0  0  0  0  0  0
  -24.4580  -13.2620   20.8170 C   0  0  0  0  0  0  0  0  0  0  0  0
  -24.9060  -11.9050   20.7770 C   0  0  0  0  0  0  0  0  0  0  0  0
  -26.5550  -13.1340   20.1790 N   0  0  0  0  0  0  0  0  0  0  0  0
  -26.1940  -11.8530   20.4520 N   0  0  0  0  0  0  0  0  0  0  0  0
  -24.1630  -10.6530   20.9740 C   0  0  0  0  0  0  0  0  0  0  0  0
  -24.5660   -9.6950   21.9310 C   0  0  0  0  0  3  0  0  0  0  0  0
  -23.8220   -8.5080   22.1150 C   0  0  0  0  0  3  0  0  0  0  0  0
  -22.6600   -8.2730   21.3410 C   0  0  0  0  0  0  0  0  0  0  0  0
  -22.2750   -9.2200   20.3750 C   0  0  0  0  0  3  0  0  0  0  0  0
  -23.0190  -10.3970   20.1910 C   0  0  0  0  0  3  0  0  0  0  0  0
  -21.8890   -7.1390   21.4320 O   0  0  0  0  0  0  0  0  0  0  0  0
  -21.7790   -6.4350   22.6040 C   0  0  0  0  0  0  0  0  0  0  0  0
  -21.2640   -7.0240   23.7810 C   0  0  0  0  0  3  0  0  0  0  0  0
  -21.1030   -6.2450   24.9440 C   0  0  0  0  0  3  0  0  0  0  0  0
  -21.4430   -4.8790   24.9320 C   0  0  0  0  0  0  0  0  0  0  0  0
  -21.9480   -4.2900   23.7580 C   0  0  0  0  0  3  0  0  0  0  0  0
  -22.1110   -5.0660   22.5970 C   0  0  0  0  0  0  0  0  0  0  0  0
  -22.5790   -4.4880   21.4650 F   0  0  0  0  0  0  0  0  0  0  0  0
  -21.2800   -4.1290   26.0470 F   0  0  0  0  0  0  0  0  0  0  0  0
  -23.0700  -13.7570   21.0970 C   0  0  0  0  0  0  0  0  0  0  0  0
  -22.3460  -13.0800   21.9800 N   0  0  0  0  0  0  0  0  0  0  0  0
  -22.6380  -14.7800   20.5670 O   0  0  0  0  0  0  0  0  0  0  0  0
  -22.7110  -12.2560   22.4350 H   0  0  0  0  0  0  0  0  0  0  0  0
  -21.4110  -13.3910   22.2050 H   0  0  0  0  0  0  0  0  0  0  0  0
  -25.7110  -15.3930   20.2610 N   0  0  0  0  0  0  0  0  0  0  0  0
  -24.9540  -16.0600   20.3770 H   0  0  0  0  0  0  0  0  0  0  0  0
  -26.5610  -15.8140   19.9100 H   0  0  0  0  0  0  0  0  0  0  0  0
  1  2  1  0
  2 49  1  0
  2  5  1  0
  2  3  1  1
  5  4  1  0
  6  5  1  0
  6  7  1  0
  8 10  1  0
  8  7  1  0
  9 20  2  0
 10 15  1  0
 11 19  1  0
 11 21  1  0
 12 18  1  0
 12 14  1  0
 13 19  1  0
 14 15  2  0
 14 13  1  0
 16 10  2  0
 17 16  1  0
 17 12  2  0
 18 11  1  0
 19  9  1  0
 21 23  2  0
 22 21  1  0
 24 22  1  0
 25 34  2  0
 25 30  1  0
 26 22  1  0
 26 30  1  0
 27 26  1  0
 28 29  1  0
 28 27  1  0
 29 25  1  0
 30 31  2  0
 31 32  1  0
 33 32  2  0
 34 33  1  0
 35  9  1  0
 35 36  1  0
 35 45  1  0
 36 39  1  0
 37 41  1  0
 37 36  1  0
 38 37  2  0
 41 40  1  0
 43 41  1  0
 43 44  1  0
 43 42  1  0
 45 48  1  1
 45 46  1  0
 47 45  1  0
 49 55  1  0
 49 50  1  0
 50 52  2  0
 51 50  1  0
 51 54  1  0
 53 51  1  0
 55 56  1  0
 56 62  1  0
 57 62  1  0
 58 59  1  0
 58 57  1  0
 60 59  1  0
 60 67  1  0
 60 61  1  0
 62 61  1  0
 63 56  2  0
 64 65  2  0
 65 84  1  0
 66 65  1  0
 66 69  1  0
 67 64  1  0
 67 68  1  0
 68 66  2  0
 69 70  1  0
 70 71  2  0
 72 75  1  0
 72 71  1  0
 73 72  2  0
 74 73  1  0
 74 69  2  0
 75 76  1  0
 76 77  1  0
 77 78  2  0
 79 78  1  0
 79 83  1  0
 80 79  2  0
 81 76  2  0
 81 80  1  0
 82 81  1  0
 84 85  1  0
 85 88  1  0
 85 87  1  0
 86 84  2  0
 89 90  1  0
 89 64  1  0
 91 89  1  0
M  ISO  4   7 101   8 101  55 100  56 100
M  END
>  <TORSDO>  (22) 
F 22

>  <SCORE>  (22) 
-14.452

>  <name>  (22) 
21

>  <ligand_id>  (22) 
21

>  <original_smiles>  (22) 
[H]c1c([H])c([H])c2c(c1[H])C([H])([H])C([H])([H])C([H])([H])C2([H])N([H])C(=O)C1([H])N(C(=O)C([H])(N([H])C(=O)C([H])(N([H])C([H])([H])[H])C([H])([H])[H])C(C([H])([H])[H])(C([H])([H])[H])C([H])([H])[H])C([H])([H])c2c([H])c(OC([H])([H])C([H])([H])C([H])(C([H])([H])[H])[N+]([H])(C([H])([H])[H])C([H])(C(=O)N([H])[H])C([H])([H])C(=O)N3C([H])([H])C([H])([H])C([H])([H])C([H])(n4nc(-c5c([H])c([H])c(Oc6c([H])c([H])c(F)c([H])c6F)c([H])c5[H])c(C(=O)N([H])[H])c4N([H])[H])C3([H])[H])c([H])c([H])c2C1([H])[H]

>  <smiles>  (22) 
[H]c1c([H])c([H])c2c(c1[H])C([H])([H])C([H])([H])C([H])([H])C2([H])N([H])C(=O)C1([H])N(C(=O)C([H])(N([H])C(=O)C([H])(N([H])C([H])([H])[H])C([H])([H])[H])C(C([H])([H])[H])(C([H])([H])[H])C([H])([H])[H])C([H])([H])c2c([H])c(OC([H])([H])C([H])([H])C([H])(C([H])([H])[H])[N+]([H])(C([H])([H])[H])C([H])(C(=O)N([H])[H])C([H])([H])C(=O)N3C([H])([H])C([H])([H])C([H])([H])C([H])(n4nc(-c5c([H])c([H])c(Oc6c([H])c([H])c(F)c([H])c6F)c([H])c5[H])c(C(=O)N([H])[H])c4N([H])[H])C3([H])[H])c([H])c([H])c2C1([H])[H]

$$$$
22:0:0
     RDKit          3D

 97105  0  0  1  0  0  0  0  0999 V2000
  -28.4860  -22.4510   19.5720 N   0  0  1  0  0  4  0  0  0  0  0  0
  -29.0140  -22.2880   18.7280 H   0  0  0  0  0  0  0  0  0  0  0  0
  -31.0770  -18.4890   21.2790 C   0  0  0  0  0  0  0  0  0  0  0  0
  -30.6520  -22.1340   20.9470 C   0  0  0  0  0  2  0  0  0  0  0  0
  -31.2850  -20.9280   21.6470 C   0  0  0  0  0  2  0  0  0  0  0  0
  -29.4350  -20.1870   20.3320 C   0  0  0  0  0  2  0  0  0  0  0  0
  -29.2180  -21.6830   20.6430 C   0  0  0  0  0  3  0  0  0  0  0  0
  -30.5970  -19.7500   21.1180 N   0  0  0  0  0  0  0  0  0  0  0  0
  -32.0690  -18.2730   21.9820 O   0  0  0  0  0  0  0  0  0  0  0  0
  -30.4030  -17.2950   20.5550 C   0  0  0  0  0  3  0  0  0  0  0  0
  -30.2240  -16.0550   18.2490 C   0  0  0  0  0  1  0  0  0  0  0  0
  -32.3080  -17.4400   18.7030 C   0  0  0  0  0  1  0  0  0  0  0  0
  -30.8140  -17.2290   19.0370 C   0  0  0  0  0  3  0  0  0  0  0  0
  -30.3380  -15.9920   21.4540 C   0  0  0  0  0  2  0  0  0  0  0  0
  -31.1070  -14.7120   21.0380 C   0  0  0  0  0  0  0  0  0  0  0  0
  -30.9160  -12.4920   19.9680 C   0  0  0  0  0  2  0  0  0  0  0  0
  -30.0700  -12.5760   18.6770 C   0  0  0  0  0  2  0  0  0  0  0  0
  -28.5600  -12.5160   18.9760 C   0  0  0  0  0  2  0  0  0  0  0  0
  -28.1280  -13.4340   20.1500 C   0  0  0  0  0  3  0  0  0  0  0  0
  -29.0770  -13.2470   21.3550 C   0  0  0  0  0  2  0  0  0  0  0  0
  -30.4460  -13.5290   20.8990 N   0  0  0  0  0  0  0  0  0  0  0  0
  -32.2970  -14.8200   20.7420 O   0  0  0  0  0  0  0  0  0  0  0  0
  -25.6900  -14.1150   20.6250 C   0  0  0  0  0  0  0  0  0  0  0  0
  -24.5750  -13.3720   20.9080 C   0  0  0  0  0  0  0  0  0  0  0  0
  -25.0070  -12.0120   20.9540 C   0  0  0  0  0  0  0  0  0  0  0  0
  -26.7330  -13.2060   20.5140 N   0  0  0  0  0  0  0  0  0  0  0  0
  -26.3180  -11.9400   20.7720 N   0  0  0  0  0  0  0  0  0  0  0  0
  -24.2420  -10.7660   21.1010 C   0  0  0  0  0  0  0  0  0  0  0  0
  -24.5850   -9.8000   22.0730 C   0  0  0  0  0  3  0  0  0  0  0  0
  -23.8230   -8.6200   22.2080 C   0  0  0  0  0  3  0  0  0  0  0  0
  -22.7040   -8.3950   21.3690 C   0  0  0  0  0  0  0  0  0  0  0  0
  -22.3830   -9.3490   20.3870 C   0  0  0  0  0  3  0  0  0  0  0  0
  -23.1460  -10.5220   20.2510 C   0  0  0  0  0  3  0  0  0  0  0  0
  -21.9230   -7.2660   21.4110 O   0  0  0  0  0  0  0  0  0  0  0  0
  -21.7760   -6.5370   22.5630 C   0  0  0  0  0  0  0  0  0  0  0  0
  -21.2810   -7.1140   23.7530 C   0  0  0  0  0  3  0  0  0  0  0  0
  -21.0800   -6.3110   24.8930 C   0  0  0  0  0  3  0  0  0  0  0  0
  -21.3650   -4.9330   24.8450 C   0  0  0  0  0  0  0  0  0  0  0  0
  -21.8540   -4.3570   23.6590 C   0  0  0  0  0  3  0  0  0  0  0  0
  -22.0560   -5.1560   22.5210 C   0  0  0  0  0  0  0  0  0  0  0  0
  -22.5070   -4.5910   21.3760 F   0  0  0  0  0  0  0  0  0  0  0  0
  -21.1640   -4.1590   25.9370 F   0  0  0  0  0  0  0  0  0  0  0  0
  -23.1680  -13.8810   21.0350 C   0  0  0  0  0  0  0  0  0  0  0  0
  -22.3500  -13.2230   21.8510 N   0  0  0  0  0  0  0  0  0  0  0  0
  -22.7980  -14.8940   20.4440 O   0  0  0  0  0  0  0  0  0  0  0  0
  -22.6590  -12.4000   22.3450 H   0  0  0  0  0  0  0  0  0  0  0  0
  -21.4020  -13.5460   21.9790 H   0  0  0  0  0  0  0  0  0  0  0  0
  -25.9040  -15.4760   20.4310 N   0  0  0  0  0  0  0  0  0  0  0  0
  -25.1480  -16.1520   20.4540 H   0  0  0  0  0  0  0  0  0  0  0  0
  -26.7940  -15.8830   20.1790 H   0  0  0  0  0  0  0  0  0  0  0  0
  -27.1100  -21.9030   19.3320 C   0  0  0  0  0  2  0  0  0  0  0  0
  -25.4480  -21.2020   17.4900 C   0  0  0  0  0  1  0  0  0  0  0  0
  -26.5210  -22.2060   17.9350 C   0  0  0  0  0  2  0  0  0  0  0  0
  -28.5040  -23.9320   19.8060 C   0  0  0  0  0  2  0  0  0  0  0  0
  -28.4230  -24.7910   18.5210 C   0  0  0  0  0  2  0  0  0  0  0  0
  -28.7760  -26.2750   18.7300 C   0  0  0  0  0  2  0  0  0  0  0  0
  -28.3120  -26.8120   19.9650 O   0  0  0  0  0  0  0  0  0  0  0  0
  -24.5880  -31.9060   23.1850 C   0  0  0  0  0  0  0  0  0  0  0  0
  -27.1330  -27.5170   19.9650 C   0  0  0  0  0  0  0  0  0  0  0  0
  -23.3270  -30.5230   21.5650 C   0  0  0  0  0  3  0  0  0  0  0  0
  -24.7320  -28.9990   20.0780 C   0  0  0  0  0  0  0  0  0  0  0  0
  -25.8430  -30.8840   21.2930 C   0  0  0  0  0  2  0  0  0  0  0  0
  -25.9040  -29.5190   20.6400 C   0  0  0  0  0  0  0  0  0  0  0  0
  -27.1020  -28.7780   20.5960 C   0  0  0  0  0  3  0  0  0  0  0  0
  -25.9440  -26.9970   19.4080 C   0  0  0  0  0  3  0  0  0  0  0  0
  -24.7450  -27.7340   19.4640 C   0  0  0  0  0  3  0  0  0  0  0  0
  -23.4900  -29.8540   20.1730 C   0  0  0  0  0  2  0  0  0  0  0  0
  -24.6050  -31.1170   22.0730 N   0  0  0  0  0  0  0  0  0  0  0  0
  -23.5260  -32.1760   23.7610 O   0  0  0  0  0  0  0  0  0  0  0  0
  -22.7040  -29.4950   22.5360 C   0  0  0  0  0  0  0  0  0  0  0  0
  -21.3780  -29.3080   22.4380 N   0  0  0  0  0  0  0  0  0  0  0  0
  -23.4090  -28.8680   23.3320 O   0  0  0  0  0  0  0  0  0  0  0  0
  -20.8710  -29.8670   21.7660 H   0  0  0  0  0  0  0  0  0  0  0  0
  -18.0230  -28.0850   22.9820 C   0  0  0  0  0  0  0  0  0  0  0  0
  -20.5810  -28.3650   23.2210 C   0  0  0  0  0  3  0  0  0  0  0  0
  -20.6890  -26.9340   22.6450 C   0  0  0  0  0  2  0  0  0  0  0  0
  -19.5760  -26.6000   21.6460 C   0  0  0  0  0  2  0  0  0  0  0  0
  -18.2020  -26.7350   22.3080 C   0  0  0  0  0  2  0  0  0  0  0  0
  -19.1400  -28.8570   23.3960 C   0  0  0  0  0  0  0  0  0  0  0  0
  -18.9190  -30.1200   23.9850 C   0  0  0  0  0  3  0  0  0  0  0  0
  -17.6120  -30.6110   24.1660 C   0  0  0  0  0  3  0  0  0  0  0  0
  -16.5090  -29.8360   23.7680 C   0  0  0  0  0  3  0  0  0  0  0  0
  -16.7150  -28.5750   23.1810 C   0  0  0  0  0  3  0  0  0  0  0  0
  -25.8970  -32.5240   23.7700 C   0  0  0  0  0  3  0  0  0  0  0  0
  -26.4610  -31.7280   25.0110 C   0  0  1  0  0  0  0  0  0  0  0  0
  -25.4070  -31.4680   26.1140 C   0  0  0  0  0  1  0  0  0  0  0  0
  -27.0270  -30.3590   24.5700 C   0  0  0  0  0  1  0  0  0  0  0  0
  -27.6380  -32.5080   25.6430 C   0  0  0  0  0  1  0  0  0  0  0  0
  -25.6010  -33.9160   24.1340 N   0  0  0  0  0  0  0  0  0  0  0  0
  -25.9270  -34.9810   23.3890 C   0  0  0  0  0  0  0  0  0  0  0  0
  -26.5780  -34.8940   22.3440 O   0  0  0  0  0  0  0  0  0  0  0  0
  -25.0180  -34.0590   24.9470 H   0  0  0  0  0  0  0  0  0  0  0  0
  -24.2080  -36.7930   23.0900 C   0  0  0  0  0  1  0  0  0  0  0  0
  -25.4550  -36.3630   23.8800 C   0  0  0  0  0  3  0  0  0  0  0  0
  -27.6050  -37.2110   24.7060 C   0  0  0  0  0  1  0  0  0  0  0  0
  -26.4950  -37.4100   23.7800 N   0  0  0  0  0  0  0  0  0  0  0  0
  -26.0980  -38.3290   23.9530 H   0  0  0  0  0  0  0  0  0  0  0  0
  1 54  1  0
  1  2  1  6
  3  9  2  0
  4  5  1  0
  6  7  1  0
  6  8  1  0
  7  1  1  0
  7  4  1  0
  8  3  1  0
  8  5  1  0
 10  3  1  0
 10 14  1  0
 11 13  1  0
 12 13  1  0
 13 10  1  0
 15 14  1  0
 16 21  1  0
 17 18  1  0
 17 16  1  0
 19 18  1  0
 19 26  1  0
 19 20  1  0
 21 15  1  0
 21 20  1  0
 22 15  2  0
 23 24  2  0
 24 25  1  0
 24 43  1  0
 25 28  1  0
 26 23  1  0
 26 27  1  0
 27 25  2  0
 28 29  1  0
 29 30  2  0
 31 34  1  0
 31 30  1  0
 32 31  2  0
 33 32  1  0
 33 28  2  0
 34 35  1  0
 35 36  1  0
 36 37  2  0
 38 37  1  0
 38 42  1  0
 39 38  2  0
 40 35  2  0
 40 39  1  0
 41 40  1  0
 43 44  1  0
 44 47  1  0
 44 46  1  0
 45 43  2  0
 48 49  1  0
 48 23  1  0
 50 48  1  0
 51  1  1  0
 52 53  1  0
 53 51  1  0
 55 56  1  0
 55 54  1  0
 56 57  1  0
 57 59  1  0
 58 69  2  0
 59 64  1  0
 60 68  1  0
 60 70  1  0
 61 67  1  0
 61 63  1  0
 62 68  1  0
 63 62  1  0
 64 63  2  0
 65 66  1  0
 65 59  2  0
 66 61  2  0
 67 60  1  0
 68 58  1  0
 70 72  2  0
 71 70  1  0
 73 71  1  0
 74 83  2  0
 74 79  1  0
 75 71  1  0
 75 79  1  0
 76 75  1  0
 77 78  1  0
 77 76  1  0
 78 74  1  0
 79 80  2  0
 80 81  1  0
 82 81  2  0
 83 82  1  0
 84 58  1  0
 84 89  1  0
 84 85  1  0
 85 88  1  1
 85 86  1  0
 87 85  1  0
 89 92  1  0
 90 94  1  0
 90 89  1  0
 91 90  2  0
 94 93  1  0
 96 94  1  0
 96 97  1  0
 96 95  1  0
M  ISO  4  14 100  15 100  56 101  57 101
M  END
>  <TORSDO>  (23) 
F 25

>  <SCORE>  (23) 
-11.689

>  <name>  (23) 
22

>  <ligand_id>  (23) 
22

>  <original_smiles>  (23) 
[H]c1c([H])c([H])c2c(c1[H])C([H])([H])C([H])([H])C([H])([H])C2([H])N([H])C(=O)C1([H])N(C(=O)C([H])(N([H])C(=O)C([H])(N([H])C([H])([H])[H])C([H])([H])[H])C(C([H])([H])[H])(C([H])([H])[H])C([H])([H])[H])C([H])([H])c2c([H])c(OC([H])([H])C([H])([H])C([H])([H])[N+]([H])(C([H])([H])C([H])([H])C([H])([H])[H])C3([H])C([H])([H])N(C(=O)C([H])(C([H])([H])C(=O)N4C([H])([H])C([H])([H])C([H])([H])C([H])(n5nc(-c6c([H])c([H])c(Oc7c([H])c([H])c(F)c([H])c7F)c([H])c6[H])c(C(=O)N([H])[H])c5N([H])[H])C4([H])[H])C([H])(C([H])([H])[H])C([H])([H])[H])C([H])([H])C3([H])[H])c([H])c([H])c2C1([H])[H]

>  <smiles>  (23) 
[H]c1c([H])c([H])c2c(c1[H])C([H])([H])C([H])([H])C([H])([H])C2([H])N([H])C(=O)C1([H])N(C(=O)C([H])(N([H])C(=O)C([H])(N([H])C([H])([H])[H])C([H])([H])[H])C(C([H])([H])[H])(C([H])([H])[H])C([H])([H])[H])C([H])([H])c2c([H])c(OC([H])([H])C([H])([H])C([H])([H])[N+]([H])(C([H])([H])C([H])([H])C([H])([H])[H])C3([H])C([H])([H])N(C(=O)C([H])(C([H])([H])C(=O)N4C([H])([H])C([H])([H])C([H])([H])C([H])(n5nc(-c6c([H])c([H])c(Oc7c([H])c([H])c(F)c([H])c7F)c([H])c6[H])c(C(=O)N([H])[H])c5N([H])[H])C4([H])[H])C([H])(C([H])([H])[H])C([H])([H])[H])C([H])([H])C3([H])[H])c([H])c([H])c2C1([H])[H]

$$$$
23:0:0
     RDKit          3D

 95103  0  0  1  0  0  0  0  0999 V2000
  -29.6020  -17.3900   18.7120 C   0  0  0  0  0  2  0  0  0  0  0  0
  -29.8650  -19.7560   18.3210 C   0  0  0  0  0  2  0  0  0  0  0  0
  -29.0530  -18.5400   17.8680 C   0  0  0  0  0  3  0  0  0  0  0  0
  -30.7650  -18.0050   19.5040 C   0  0  0  0  0  3  0  0  0  0  0  0
  -29.1300  -18.2970   16.3540 C   0  0  0  0  0  1  0  0  0  0  0  0
  -30.2980  -19.4210   19.6770 N   0  0  0  0  0  0  0  0  0  0  0  0
  -31.2700  -20.4160   20.1930 C   0  0  0  0  0  2  0  0  0  0  0  0
  -31.0330  -21.9460   19.8830 C   0  0  0  0  0  2  0  0  0  0  0  0
  -29.7730  -22.7080   20.4180 C   0  0  0  0  0  2  0  0  0  0  0  0
  -29.8990  -24.2810   20.3730 C   0  0  0  0  0  3  0  0  0  0  0  0
  -28.5630  -25.0970   20.3380 C   0  0  0  0  0  3  0  0  0  0  0  0
  -28.6870  -26.5500   20.4320 O   0  0  0  0  0  0  0  0  0  0  0  0
  -24.6450  -31.7920   23.2170 C   0  0  0  0  0  0  0  0  0  0  0  0
  -27.5160  -27.3040   20.3420 C   0  0  0  0  0  0  0  0  0  0  0  0
  -23.5460  -30.3320   21.5540 C   0  0  0  0  0  3  0  0  0  0  0  0
  -25.0950  -28.8040   20.2230 C   0  0  0  0  0  0  0  0  0  0  0  0
  -26.0780  -30.7300   21.4650 C   0  0  0  0  0  2  0  0  0  0  0  0
  -26.2220  -29.3500   20.8490 C   0  0  0  0  0  0  0  0  0  0  0  0
  -27.4350  -28.6100   20.9000 C   0  0  0  0  0  3  0  0  0  0  0  0
  -26.3590  -26.7920   19.7060 C   0  0  0  0  0  3  0  0  0  0  0  0
  -25.1620  -27.5260   19.6460 C   0  0  0  0  0  3  0  0  0  0  0  0
  -23.8330  -29.6370   20.1980 C   0  0  0  0  0  2  0  0  0  0  0  0
  -24.7720  -30.9690   22.1370 N   0  0  0  0  0  0  0  0  0  0  0  0
  -23.5350  -32.0490   23.7030 O   0  0  0  0  0  0  0  0  0  0  0  0
  -22.8740  -29.3130   22.5050 C   0  0  0  0  0  0  0  0  0  0  0  0
  -21.5470  -29.1510   22.3740 N   0  0  0  0  0  0  0  0  0  0  0  0
  -23.5460  -28.6730   23.3180 O   0  0  0  0  0  0  0  0  0  0  0  0
  -21.0660  -29.7200   21.6910 H   0  0  0  0  0  0  0  0  0  0  0  0
  -18.1490  -28.0340   22.8930 C   0  0  0  0  0  0  0  0  0  0  0  0
  -20.7160  -28.2180   23.1350 C   0  0  0  0  0  3  0  0  0  0  0  0
  -20.7730  -26.7980   22.5250 C   0  0  0  0  0  2  0  0  0  0  0  0
  -19.6490  -26.5280   21.5190 C   0  0  0  0  0  2  0  0  0  0  0  0
  -18.2810  -26.6950   22.1860 C   0  0  0  0  0  2  0  0  0  0  0  0
  -19.2940  -28.7550   23.3250 C   0  0  0  0  0  0  0  0  0  0  0  0
  -19.1170  -30.0110   23.9460 C   0  0  0  0  0  3  0  0  0  0  0  0
  -17.8290  -30.5430   24.1430 C   0  0  0  0  0  3  0  0  0  0  0  0
  -16.6990  -29.8170   23.7300 C   0  0  0  0  0  3  0  0  0  0  0  0
  -16.8590  -28.5650   23.1090 C   0  0  0  0  0  3  0  0  0  0  0  0
  -25.8850  -32.4680   23.8780 C   0  0  0  0  0  3  0  0  0  0  0  0
  -26.3770  -31.7230   25.1790 C   0  0  1  0  0  0  0  0  0  0  0  0
  -25.2530  -31.4700   26.2110 C   0  0  0  0  0  1  0  0  0  0  0  0
  -27.0060  -30.3570   24.8240 C   0  0  0  0  0  1  0  0  0  0  0  0
  -27.4850  -32.5520   25.8700 C   0  0  0  0  0  1  0  0  0  0  0  0
  -25.5230  -33.8590   24.1830 N   0  0  0  0  0  0  0  0  0  0  0  0
  -25.8460  -34.9140   23.4230 C   0  0  0  0  0  0  0  0  0  0  0  0
  -26.5490  -34.8210   22.4120 O   0  0  0  0  0  0  0  0  0  0  0  0
  -24.8950  -34.0010   24.9600 H   0  0  0  0  0  0  0  0  0  0  0  0
  -24.0620  -36.6380   23.0120 C   0  0  0  0  0  1  0  0  0  0  0  0
  -25.3020  -36.2910   23.8500 C   0  0  0  0  0  3  0  0  0  0  0  0
  -27.3880  -37.2630   24.7060 C   0  0  0  0  0  1  0  0  0  0  0  0
  -26.3000  -37.3780   23.7390 N   0  0  0  0  0  0  0  0  0  0  0  0
  -25.8580  -38.2850   23.8680 H   0  0  0  0  0  0  0  0  0  0  0  0
  -31.1500  -17.2370   20.8160 C   0  0  0  0  0  3  0  0  0  0  0  0
  -30.4970  -18.0040   21.8990 N   0  0  0  0  0  4  0  0  0  0  0  0
  -30.2990  -18.8870   21.4350 H   0  0  0  0  0  0  0  0  0  0  0  0
  -29.6070  -17.5910   22.1240 H   0  0  0  0  0  0  0  0  0  0  0  0
  -30.5880  -19.2280   24.0620 C   0  0  0  0  0  1  0  0  0  0  0  0
  -31.2870  -18.2330   23.1260 C   0  0  0  0  0  2  0  0  0  0  0  0
  -30.7800  -15.7100   20.9870 C   0  0  0  0  0  2  0  0  0  0  0  0
  -31.5170  -14.5310   20.2700 C   0  0  0  0  0  0  0  0  0  0  0  0
  -31.1730  -12.3680   19.0860 C   0  0  0  0  0  2  0  0  0  0  0  0
  -30.2270  -12.5940   17.8860 C   0  0  0  0  0  2  0  0  0  0  0  0
  -28.7440  -12.5370   18.3110 C   0  0  0  0  0  2  0  0  0  0  0  0
  -28.4570  -13.4010   19.5630 C   0  0  0  0  0  3  0  0  0  0  0  0
  -29.4920  -13.0950   20.6700 C   0  0  0  0  0  2  0  0  0  0  0  0
  -30.8320  -13.3580   20.1180 N   0  0  0  0  0  0  0  0  0  0  0  0
  -32.6430  -14.6950   19.7910 O   0  0  0  0  0  0  0  0  0  0  0  0
  -26.1030  -14.2000   20.2420 C   0  0  0  0  0  0  0  0  0  0  0  0
  -24.9830  -13.5150   20.6290 C   0  0  0  0  0  0  0  0  0  0  0  0
  -25.3480  -12.1340   20.6330 C   0  0  0  0  0  0  0  0  0  0  0  0
  -27.0850  -13.2410   20.0400 N   0  0  0  0  0  0  0  0  0  0  0  0
  -26.6340  -11.9950   20.3350 N   0  0  0  0  0  0  0  0  0  0  0  0
  -24.5350  -10.9310   20.8500 C   0  0  0  0  0  0  0  0  0  0  0  0
  -24.8920   -9.9640   21.8170 C   0  0  0  0  0  3  0  0  0  0  0  0
  -24.0860   -8.8230   22.0180 C   0  0  0  0  0  3  0  0  0  0  0  0
  -22.9100   -8.6420   21.2530 C   0  0  0  0  0  0  0  0  0  0  0  0
  -22.5730   -9.5930   20.2740 C   0  0  0  0  0  3  0  0  0  0  0  0
  -23.3780  -10.7270   20.0720 C   0  0  0  0  0  3  0  0  0  0  0  0
  -22.0800   -7.5510   21.3630 O   0  0  0  0  0  0  0  0  0  0  0  0
  -21.9270   -6.8800   22.5490 C   0  0  0  0  0  0  0  0  0  0  0  0
  -21.5100   -7.5350   23.7280 C   0  0  0  0  0  3  0  0  0  0  0  0
  -21.3010   -6.7950   24.9090 C   0  0  0  0  0  3  0  0  0  0  0  0
  -21.4970   -5.4010   24.9100 C   0  0  0  0  0  0  0  0  0  0  0  0
  -21.9070   -4.7450   23.7350 C   0  0  0  0  0  3  0  0  0  0  0  0
  -22.1180   -5.4830   22.5580 C   0  0  0  0  0  0  0  0  0  0  0  0
  -22.4940   -4.8440   21.4230 F   0  0  0  0  0  0  0  0  0  0  0  0
  -21.2860   -4.6880   26.0410 F   0  0  0  0  0  0  0  0  0  0  0  0
  -23.6190  -14.0930   20.8770 C   0  0  0  0  0  0  0  0  0  0  0  0
  -22.8550  -13.4920   21.7830 N   0  0  0  0  0  0  0  0  0  0  0  0
  -23.2420  -15.1120   20.2990 O   0  0  0  0  0  0  0  0  0  0  0  0
  -23.1750  -12.6690   22.2710 H   0  0  0  0  0  0  0  0  0  0  0  0
  -21.9370  -13.8590   21.9910 H   0  0  0  0  0  0  0  0  0  0  0  0
  -26.3610  -15.5520   20.0250 N   0  0  0  0  0  0  0  0  0  0  0  0
  -25.6120  -16.2340   20.0610 H   0  0  0  0  0  0  0  0  0  0  0  0
  -27.1820  -15.8920   19.5410 H   0  0  0  0  0  0  0  0  0  0  0  0
  1  4  1  0
  2  6  1  0
  3  5  1  0
  3  2  1  0
  3  1  1  0
  4  6  1  0
  4 53  1  0
  6  7  1  0
  8  7  1  0
  8  9  1  0
 10  9  1  0
 11 10  2  0
 11 12  1  0
 13 24  2  0
 14 12  1  0
 14 19  1  0
 15 23  1  0
 15 25  1  0
 16 18  1  0
 17 23  1  0
 18 19  2  0
 18 17  1  0
 20 14  2  0
 21 20  1  0
 21 16  2  0
 22 16  1  0
 22 15  1  0
 23 13  1  0
 25 27  2  0
 26 25  1  0
 28 26  1  0
 29 38  2  0
 29 34  1  0
 30 26  1  0
 30 34  1  0
 31 30  1  0
 32 33  1  0
 32 31  1  0
 33 29  1  0
 34 35  2  0
 35 36  1  0
 37 36  2  0
 38 37  1  0
 39 13  1  0
 39 44  1  0
 39 40  1  0
 40 43  1  1
 40 41  1  0
 42 40  1  0
 44 47  1  0
 45 49  1  0
 45 44  1  0
 46 45  2  0
 49 48  1  0
 51 49  1  0
 51 52  1  0
 51 50  1  0
 53 59  1  0
 53 54  1  0
 54 56  1  0
 54 58  1  0
 55 54  1  0
 58 57  1  0
 60 59  1  0
 61 66  1  0
 62 63  1  0
 62 61  1  0
 64 63  1  0
 64 71  1  0
 64 65  1  0
 66 60  1  0
 66 65  1  0
 67 60  2  0
 68 69  2  0
 69 70  1  0
 69 88  1  0
 70 73  1  0
 71 68  1  0
 71 72  1  0
 72 70  2  0
 73 74  1  0
 74 75  2  0
 76 79  1  0
 76 75  1  0
 77 76  2  0
 78 77  1  0
 78 73  2  0
 79 80  1  0
 80 85  2  0
 80 81  1  0
 81 82  2  0
 82 83  1  0
 83 87  1  0
 84 83  2  0
 85 84  1  0
 86 85  1  0
 88 89  1  0
 89 92  1  0
 89 91  1  0
 90 88  2  0
 93 94  1  0
 93 68  1  0
 95 93  1  0
M  ISO  4  11 101  12 101  59 100  60 100
M  END
>  <TORSDO>  (24) 
F 25

>  <SCORE>  (24) 
-10.949

>  <name>  (24) 
23

>  <ligand_id>  (24) 
23

>  <original_smiles>  (24) 
[H]c1c([H])c([H])c2c(c1[H])C([H])([H])C([H])([H])C([H])([H])C2([H])N([H])C(=O)C1([H])N(C(=O)C([H])(N([H])C(=O)C([H])(N([H])C([H])([H])[H])C([H])([H])[H])C(C([H])([H])[H])(C([H])([H])[H])C([H])([H])[H])C([H])([H])c2c([H])c(OC([H])([H])C([H])([H])C([H])([H])C([H])([H])C([H])([H])N3C([H])([H])C([H])(C([H])([H])[H])C([H])([H])C3([H])C([H])(C([H])([H])C(=O)N3C([H])([H])C([H])([H])C([H])([H])C([H])(n4nc(-c5c([H])c([H])c(Oc6c([H])c([H])c(F)c([H])c6F)c([H])c5[H])c(C(=O)N([H])[H])c4N([H])[H])C3([H])[H])[N+]([H])([H])C([H])([H])C([H])([H])[H])c([H])c([H])c2C1([H])[H]

>  <smiles>  (24) 
[H]c1c([H])c([H])c2c(c1[H])C([H])([H])C([H])([H])C([H])([H])C2([H])N([H])C(=O)C1([H])N(C(=O)C([H])(N([H])C(=O)C([H])(N([H])C([H])([H])[H])C([H])([H])[H])C(C([H])([H])[H])(C([H])([H])[H])C([H])([H])[H])C([H])([H])c2c([H])c(OC([H])([H])C([H])([H])C([H])([H])C([H])([H])C([H])([H])N3C([H])([H])C([H])(C([H])([H])[H])C([H])([H])C3([H])C([H])(C([H])([H])C(=O)N3C([H])([H])C([H])([H])C([H])([H])C([H])(n4nc(-c5c([H])c([H])c(Oc6c([H])c([H])c(F)c([H])c6F)c([H])c5[H])c(C(=O)N([H])[H])c4N([H])[H])C3([H])[H])[N+]([H])([H])C([H])([H])C([H])([H])[H])c([H])c([H])c2C1([H])[H]

$$$$
24:0:0
     RDKit          3D

 98106  0  0  1  0  0  0  0  0999 V2000
  -29.7360  -20.9760   20.9020 C   0  0  0  0  0  2  0  0  0  0  0  0
  -29.3330  -22.4520   21.1320 C   0  0  0  0  0  3  0  0  0  0  0  0
  -30.6100  -20.3970   22.0340 C   0  0  0  0  0  3  0  0  0  0  0  0
  -30.5900  -23.3240   21.4260 C   0  0  0  0  0  3  0  0  0  0  0  0
  -31.8060  -21.3430   22.3260 C   0  0  0  0  0  3  0  0  0  0  0  0
  -32.6480  -20.8530   23.5200 C   0  0  0  0  0  1  0  0  0  0  0  0
  -31.3410  -22.7290   22.5590 N   0  0  0  0  0  4  0  0  0  0  0  0
  -30.7680  -22.7560   23.3870 H   0  0  0  0  0  0  0  0  0  0  0  0
  -32.1530  -23.3010   22.7280 H   0  0  0  0  0  0  0  0  0  0  0  0
  -31.1320  -19.0940   21.6140 N   0  0  0  0  0  0  0  0  0  0  0  0
  -31.9540  -18.8830   22.1750 H   0  0  0  0  0  0  0  0  0  0  0  0
  -30.1910  -17.9800   21.7360 C   0  0  0  0  0  2  0  0  0  0  0  0
  -30.8320  -16.7380   21.0870 C   0  0  0  0  0  2  0  0  0  0  0  0
  -29.9800  -15.4420   21.1580 C   0  0  0  0  0  2  0  0  0  0  0  0
  -30.5240  -14.3090   20.2600 C   0  0  0  0  0  0  0  0  0  0  0  0
  -30.1160  -12.2340   18.9840 C   0  0  0  0  0  2  0  0  0  0  0  0
  -29.1030  -12.5100   17.8560 C   0  0  0  0  0  2  0  0  0  0  0  0
  -27.6640  -12.3250   18.3740 C   0  0  0  0  0  2  0  0  0  0  0  0
  -27.4040  -13.1000   19.6930 C   0  0  0  0  0  3  0  0  0  0  0  0
  -28.5290  -12.8490   20.7210 C   0  0  0  0  0  2  0  0  0  0  0  0
  -29.8180  -13.1610   20.0870 N   0  0  0  0  0  0  0  0  0  0  0  0
  -31.5760  -14.5200   19.6480 O   0  0  0  0  0  0  0  0  0  0  0  0
  -25.0300  -13.6340   20.5310 C   0  0  0  0  0  0  0  0  0  0  0  0
  -24.0050  -12.8320   20.9570 C   0  0  0  0  0  0  0  0  0  0  0  0
  -24.5050  -11.4930   20.9000 C   0  0  0  0  0  0  0  0  0  0  0  0
  -26.0870  -12.7850   20.2430 N   0  0  0  0  0  0  0  0  0  0  0  0
  -25.7770  -11.4930   20.5230 N   0  0  0  0  0  0  0  0  0  0  0  0
  -23.8260  -10.2100   21.1250 C   0  0  0  0  0  0  0  0  0  0  0  0
  -24.2920   -9.2880   22.0890 C   0  0  0  0  0  3  0  0  0  0  0  0
  -23.6110   -8.0700   22.3020 C   0  0  0  0  0  3  0  0  0  0  0  0
  -22.4510   -7.7640   21.5520 C   0  0  0  0  0  0  0  0  0  0  0  0
  -22.0040   -8.6760   20.5790 C   0  0  0  0  0  3  0  0  0  0  0  0
  -22.6860   -9.8850   20.3650 C   0  0  0  0  0  3  0  0  0  0  0  0
  -21.7420   -6.5940   21.6700 O   0  0  0  0  0  0  0  0  0  0  0  0
  -21.6740   -5.9110   22.8580 C   0  0  0  0  0  0  0  0  0  0  0  0
  -21.1270   -6.4960   24.0220 C   0  0  0  0  0  3  0  0  0  0  0  0
  -21.0160   -5.7360   25.2040 C   0  0  0  0  0  3  0  0  0  0  0  0
  -21.4350   -4.3910   25.2210 C   0  0  0  0  0  0  0  0  0  0  0  0
  -21.9740   -3.8070   24.0610 C   0  0  0  0  0  3  0  0  0  0  0  0
  -22.0890   -4.5650   22.8820 C   0  0  0  0  0  0  0  0  0  0  0  0
  -22.5880   -3.9910   21.7610 F   0  0  0  0  0  0  0  0  0  0  0  0
  -21.3210   -3.6580   26.3530 F   0  0  0  0  0  0  0  0  0  0  0  0
  -22.6100  -13.2670   21.3030 C   0  0  0  0  0  0  0  0  0  0  0  0
  -21.9490  -12.5470   22.2040 N   0  0  0  0  0  0  0  0  0  0  0  0
  -22.1140  -14.2820   20.8120 O   0  0  0  0  0  0  0  0  0  0  0  0
  -22.3610  -11.7250   22.6190 H   0  0  0  0  0  0  0  0  0  0  0  0
  -21.0160  -12.8170   22.4780 H   0  0  0  0  0  0  0  0  0  0  0  0
  -25.1490  -15.0080   20.3470 N   0  0  0  0  0  0  0  0  0  0  0  0
  -24.3730  -15.6460   20.4890 H   0  0  0  0  0  0  0  0  0  0  0  0
  -25.9820  -15.4640   19.9920 H   0  0  0  0  0  0  0  0  0  0  0  0
  -30.2460  -24.8100   21.7330 C   0  0  0  0  0  2  0  0  0  0  0  0
  -30.4180  -25.7820   20.5420 C   0  0  0  0  0  2  0  0  0  0  0  0
  -29.4890  -27.0070   20.6270 C   0  0  0  0  0  2  0  0  0  0  0  0
  -28.2450  -26.5800   20.0910 O   0  0  0  0  0  0  0  0  0  0  0  0
  -24.5310  -31.8530   23.2060 C   0  0  0  0  0  0  0  0  0  0  0  0
  -27.1400  -27.3950   20.1500 C   0  0  0  0  0  0  0  0  0  0  0  0
  -23.3080  -30.4570   21.5710 C   0  0  0  0  0  3  0  0  0  0  0  0
  -24.7460  -28.8980   20.1600 C   0  0  0  0  0  0  0  0  0  0  0  0
  -25.8320  -30.7960   21.3680 C   0  0  0  0  0  2  0  0  0  0  0  0
  -25.9080  -29.4220   20.7400 C   0  0  0  0  0  0  0  0  0  0  0  0
  -27.1100  -28.6810   20.7390 C   0  0  0  0  0  3  0  0  0  0  0  0
  -25.9600  -26.8800   19.5730 C   0  0  0  0  0  3  0  0  0  0  0  0
  -24.7660  -27.6220   19.5730 C   0  0  0  0  0  3  0  0  0  0  0  0
  -23.5070  -29.7630   20.1970 C   0  0  0  0  0  2  0  0  0  0  0  0
  -24.5750  -31.0490   22.1070 N   0  0  0  0  0  0  0  0  0  0  0  0
  -23.4540  -32.1430   23.7440 O   0  0  0  0  0  0  0  0  0  0  0  0
  -22.6460  -29.4480   22.5370 C   0  0  0  0  0  0  0  0  0  0  0  0
  -21.3170  -29.2900   22.4140 N   0  0  0  0  0  0  0  0  0  0  0  0
  -23.3230  -28.8130   23.3480 O   0  0  0  0  0  0  0  0  0  0  0  0
  -20.8330  -29.8480   21.7240 H   0  0  0  0  0  0  0  0  0  0  0  0
  -17.9200  -28.1930   22.9590 C   0  0  0  0  0  0  0  0  0  0  0  0
  -20.4880  -28.3700   23.1910 C   0  0  0  0  0  3  0  0  0  0  0  0
  -20.5380  -26.9410   22.6010 C   0  0  0  0  0  2  0  0  0  0  0  0
  -19.4100  -26.6620   21.6020 C   0  0  0  0  0  2  0  0  0  0  0  0
  -18.0430  -26.8470   22.2650 C   0  0  0  0  0  2  0  0  0  0  0  0
  -19.0670  -28.9160   23.3780 C   0  0  0  0  0  0  0  0  0  0  0  0
  -18.8980  -30.1800   23.9820 C   0  0  0  0  0  3  0  0  0  0  0  0
  -17.6130  -30.7220   24.1710 C   0  0  0  0  0  3  0  0  0  0  0  0
  -16.4780  -29.9950   23.7710 C   0  0  0  0  0  3  0  0  0  0  0  0
  -16.6330  -28.7330   23.1710 C   0  0  0  0  0  3  0  0  0  0  0  0
  -25.8280  -32.4680   23.8200 C   0  0  0  0  0  3  0  0  0  0  0  0
  -26.3480  -31.6850   25.0880 C   0  0  1  0  0  0  0  0  0  0  0  0
  -25.2510  -31.4300   26.1450 C   0  0  0  0  0  1  0  0  0  0  0  0
  -26.9400  -30.3150   24.6800 C   0  0  0  0  0  1  0  0  0  0  0  0
  -27.4890  -32.4820   25.7640 C   0  0  0  0  0  1  0  0  0  0  0  0
  -25.5370  -33.8680   24.1520 N   0  0  0  0  0  0  0  0  0  0  0  0
  -25.8860  -34.9160   23.3950 C   0  0  0  0  0  0  0  0  0  0  0  0
  -26.5600  -34.8050   22.3660 O   0  0  0  0  0  0  0  0  0  0  0  0
  -24.9370  -34.0280   24.9480 H   0  0  0  0  0  0  0  0  0  0  0  0
  -24.1960  -36.7380   23.0150 C   0  0  0  0  0  1  0  0  0  0  0  0
  -25.4130  -36.3100   23.8520 C   0  0  0  0  0  3  0  0  0  0  0  0
  -27.5410  -37.1560   24.7400 C   0  0  0  0  0  1  0  0  0  0  0  0
  -26.4670  -37.3440   23.7680 N   0  0  0  0  0  0  0  0  0  0  0  0
  -26.0740  -38.2710   23.9070 H   0  0  0  0  0  0  0  0  0  0  0  0
  -28.4990  -23.0010   19.9460 C   0  0  0  0  0  2  0  0  0  0  0  0
  -27.2650  -22.1540   19.5850 C   0  0  0  0  0  2  0  0  0  0  0  0
  -25.3260  -21.8170   17.9870 C   0  0  0  0  0  1  0  0  0  0  0  0
  -26.4540  -22.7510   18.4320 C   0  0  0  0  0  2  0  0  0  0  0  0
  1  2  1  0
  1  3  1  0
  2 95  1  0
  2  4  1  0
  3 10  1  0
  3  5  1  0
  4 51  1  0
  4  7  1  0
  5  7  1  0
  5  6  1  0
  7  9  1  0
  7  8  1  0
 10 12  1  0
 10 11  1  0
 13 14  1  0
 13 12  1  0
 15 14  1  0
 16 21  1  0
 17 18  1  0
 17 16  1  0
 19 18  1  0
 19 26  1  0
 19 20  1  0
 21 15  1  0
 21 20  1  0
 22 15  2  0
 23 24  2  0
 24 43  1  0
 25 24  1  0
 25 28  1  0
 26 27  1  0
 26 23  1  0
 27 25  2  0
 28 29  1  0
 29 30  2  0
 31 34  1  0
 31 30  1  0
 32 31  2  0
 33 32  1  0
 33 28  2  0
 34 35  1  0
 35 40  2  0
 35 36  1  0
 36 37  2  0
 37 38  1  0
 38 42  1  0
 39 38  2  0
 40 39  1  0
 41 40  1  0
 43 44  1  0
 44 47  1  0
 44 46  1  0
 45 43  2  0
 48 49  1  0
 48 23  1  0
 50 48  1  0
 52 53  1  0
 52 51  1  0
 54 56  1  0
 54 53  1  0
 55 66  2  0
 56 61  1  0
 57 65  1  0
 57 67  1  0
 58 64  1  0
 58 60  1  0
 59 65  1  0
 60 59  1  0
 61 60  2  0
 62 56  2  0
 63 62  1  0
 63 58  2  0
 64 57  1  0
 65 55  1  0
 67 69  2  0
 68 67  1  0
 70 68  1  0
 71 80  2  0
 71 76  1  0
 72 68  1  0
 72 76  1  0
 73 72  1  0
 74 75  1  0
 74 73  1  0
 75 71  1  0
 76 77  2  0
 77 78  1  0
 79 78  2  0
 80 79  1  0
 81 55  1  0
 81 86  1  0
 81 82  1  0
 82 85  1  1
 82 83  1  0
 84 82  1  0
 86 89  1  0
 87 91  1  0
 87 86  1  0
 88 87  2  0
 91 90  1  0
 93 91  1  0
 93 94  1  0
 93 92  1  0
 96 95  1  0
 97 98  1  0
 98 96  1  0
M  ISO  4  14 100  15 100  53 101  54 101
M  END
>  <TORSDO>  (25) 
F 26

>  <SCORE>  (25) 
-11.905

>  <name>  (25) 
24

>  <ligand_id>  (25) 
24

>  <original_smiles>  (25) 
[H]c1c([H])c([H])c2c(c1[H])C([H])([H])C([H])([H])C([H])([H])C2([H])N([H])C(=O)C1([H])N(C(=O)C([H])(N([H])C(=O)C([H])(N([H])C([H])([H])[H])C([H])([H])[H])C(C([H])([H])[H])(C([H])([H])[H])C([H])([H])[H])C([H])([H])c2c([H])c(OC([H])([H])C([H])([H])C([H])([H])C3([H])C([H])(C([H])([H])C([H])([H])C([H])([H])C([H])([H])[H])C([H])([H])C([H])(N([H])C([H])([H])C([H])([H])C([H])([H])C(=O)N4C([H])([H])C([H])([H])C([H])([H])C([H])(n5nc(-c6c([H])c([H])c(Oc7c([H])c([H])c(F)c([H])c7F)c([H])c6[H])c(C(=O)N([H])[H])c5N([H])[H])C4([H])[H])C([H])(C([H])([H])[H])[N+]3([H])[H])c([H])c([H])c2C1([H])[H]

>  <smiles>  (25) 
[H]c1c([H])c([H])c2c(c1[H])C([H])([H])C([H])([H])C([H])([H])C2([H])N([H])C(=O)C1([H])N(C(=O)C([H])(N([H])C(=O)C([H])(N([H])C([H])([H])[H])C([H])([H])[H])C(C([H])([H])[H])(C([H])([H])[H])C([H])([H])[H])C([H])([H])c2c([H])c(OC([H])([H])C([H])([H])C([H])([H])C3([H])C([H])(C([H])([H])C([H])([H])C([H])([H])C([H])([H])[H])C([H])([H])C([H])(N([H])C([H])([H])C([H])([H])C([H])([H])C(=O)N4C([H])([H])C([H])([H])C([H])([H])C([H])(n5nc(-c6c([H])c([H])c(Oc7c([H])c([H])c(F)c([H])c7F)c([H])c6[H])c(C(=O)N([H])[H])c5N([H])[H])C4([H])[H])C([H])(C([H])([H])[H])[N+]3([H])[H])c([H])c([H])c2C1([H])[H]

$$$$
25:0:0
     RDKit          3D

 91 99  0  0  1  0  0  0  0  0999 V2000
  -29.7620  -19.8700   20.8600 C   0  0  0  0  0  3  0  0  0  0  0  0
  -30.6690  -14.8470   19.6730 C   0  0  0  0  0  0  0  0  0  0  0  0
  -30.2440  -12.6500   18.5600 C   0  0  0  0  0  2  0  0  0  0  0  0
  -29.1520  -12.7720   17.4780 C   0  0  0  0  0  2  0  0  0  0  0  0
  -27.7620  -12.5320   18.0970 C   0  0  0  0  0  2  0  0  0  0  0  0
  -27.5400  -13.3700   19.3770 C   0  0  0  0  0  3  0  0  0  0  0  0
  -28.7460  -13.2960   20.3460 C   0  0  0  0  0  2  0  0  0  0  0  0
  -29.9540  -13.6680   19.5960 N   0  0  0  0  0  0  0  0  0  0  0  0
  -31.8320  -14.8540   19.2680 O   0  0  0  0  0  0  0  0  0  0  0  0
  -28.7440  -17.9830   19.4790 C   0  0  0  0  0  0  0  0  0  0  0  0
  -28.8160  -16.4630   19.3780 C   0  0  0  0  0  2  0  0  0  0  0  0
  -30.6120  -17.3220   20.6390 C   0  0  1  0  0  0  0  0  0  0  0  0
  -32.0370  -17.6280   20.1220 C   0  0  0  0  0  1  0  0  0  0  0  0
  -29.7390  -18.4830   20.2220 N   0  0  0  0  0  0  0  0  0  0  0  0
  -30.0420  -16.0400   20.0480 N   0  0  0  0  0  0  0  0  0  0  0  0
  -27.8160  -18.6210   18.9790 O   0  0  0  0  0  0  0  0  0  0  0  0
  -25.2960  -13.9400   20.4840 C   0  0  0  0  0  0  0  0  0  0  0  0
  -24.2810  -13.1500   20.9460 C   0  0  0  0  0  0  0  0  0  0  0  0
  -24.7180  -11.8020   20.7620 C   0  0  0  0  0  0  0  0  0  0  0  0
  -26.2810  -13.0690   20.0420 N   0  0  0  0  0  0  0  0  0  0  0  0
  -25.9520  -11.7760   20.2780 N   0  0  0  0  0  0  0  0  0  0  0  0
  -24.0080  -10.5350   20.9590 C   0  0  0  0  0  0  0  0  0  0  0  0
  -24.5020   -9.5460   21.8370 C   0  0  0  0  0  3  0  0  0  0  0  0
  -23.7940   -8.3400   22.0230 C   0  0  0  0  0  3  0  0  0  0  0  0
  -22.5790   -8.1160   21.3320 C   0  0  0  0  0  0  0  0  0  0  0  0
  -22.1050   -9.0960   20.4420 C   0  0  0  0  0  3  0  0  0  0  0  0
  -22.8140  -10.2940   20.2530 C   0  0  0  0  0  3  0  0  0  0  0  0
  -21.8360   -6.9660   21.4320 O   0  0  0  0  0  0  0  0  0  0  0  0
  -21.7760   -6.2490   22.6010 C   0  0  0  0  0  0  0  0  0  0  0  0
  -21.3260   -6.8270   23.8070 C   0  0  0  0  0  3  0  0  0  0  0  0
  -21.2130   -6.0360   24.9670 C   0  0  0  0  0  3  0  0  0  0  0  0
  -21.5410   -4.6680   24.9220 C   0  0  0  0  0  0  0  0  0  0  0  0
  -21.9850   -4.0900   23.7200 C   0  0  0  0  0  3  0  0  0  0  0  0
  -22.0990   -4.8780   22.5620 C   0  0  0  0  0  0  0  0  0  0  0  0
  -22.5080   -4.3120   21.4010 F   0  0  0  0  0  0  0  0  0  0  0  0
  -21.4250   -3.9050   26.0340 F   0  0  0  0  0  0  0  0  0  0  0  0
  -22.9390  -13.6160   21.4300 C   0  0  0  0  0  0  0  0  0  0  0  0
  -22.3260  -12.8740   22.3470 N   0  0  0  0  0  0  0  0  0  0  0  0
  -22.4440  -14.6700   21.0320 O   0  0  0  0  0  0  0  0  0  0  0  0
  -22.7410  -12.0200   22.6900 H   0  0  0  0  0  0  0  0  0  0  0  0
  -21.4300  -13.1640   22.7110 H   0  0  0  0  0  0  0  0  0  0  0  0
  -25.4420  -15.3190   20.3720 N   0  0  0  0  0  0  0  0  0  0  0  0
  -24.6890  -15.9510   20.6230 H   0  0  0  0  0  0  0  0  0  0  0  0
  -26.1980  -15.7810   19.8900 H   0  0  0  0  0  0  0  0  0  0  0  0
  -29.2750  -16.8270   22.8250 C   0  0  0  0  0  1  0  0  0  0  0  0
  -30.6300  -17.1810   22.1830 C   0  0  0  0  0  2  0  0  0  0  0  0
  -29.4460  -21.2090   20.0290 C   0  0  0  0  0  3  0  0  0  0  0  0
  -29.2350  -22.5660   20.8590 C   0  0  0  0  0  2  0  0  0  0  0  0
  -29.1320  -23.9880   20.1210 C   0  0  0  0  0  3  0  0  0  0  0  0
  -28.5610  -25.2280   20.9580 C   0  0  0  0  0  3  0  0  0  0  0  0
  -28.6700  -26.6150   20.4460 O   0  0  0  0  0  0  0  0  0  0  0  0
  -24.5940  -31.8820   23.2610 C   0  0  0  0  0  0  0  0  0  0  0  0
  -27.5080  -27.3960   20.3960 C   0  0  0  0  0  0  0  0  0  0  0  0
  -23.5050  -30.3960   21.6160 C   0  0  0  0  0  3  0  0  0  0  0  0
  -25.0690  -28.8800   20.2740 C   0  0  0  0  0  0  0  0  0  0  0  0
  -26.0290  -30.8330   21.4970 C   0  0  0  0  0  2  0  0  0  0  0  0
  -26.1940  -29.4450   20.8880 C   0  0  0  0  0  0  0  0  0  0  0  0
  -27.4190  -28.7160   20.9340 C   0  0  0  0  0  3  0  0  0  0  0  0
  -26.3610  -26.8740   19.7620 C   0  0  0  0  0  3  0  0  0  0  0  0
  -25.1540  -27.5990   19.7000 C   0  0  0  0  0  3  0  0  0  0  0  0
  -23.7920  -29.6960   20.2610 C   0  0  0  0  0  2  0  0  0  0  0  0
  -24.7260  -31.0570   22.1830 N   0  0  0  0  0  0  0  0  0  0  0  0
  -23.4840  -32.1210   23.7580 O   0  0  0  0  0  0  0  0  0  0  0  0
  -22.8590  -29.3720   22.5800 C   0  0  0  0  0  0  0  0  0  0  0  0
  -21.5510  -29.1200   22.4060 N   0  0  0  0  0  0  0  0  0  0  0  0
  -23.5360  -28.8070   23.4430 O   0  0  0  0  0  0  0  0  0  0  0  0
  -21.0640  -29.6300   21.6820 H   0  0  0  0  0  0  0  0  0  0  0  0
  -18.2300  -27.7390   22.7860 C   0  0  0  0  0  0  0  0  0  0  0  0
  -20.7510  -28.1600   23.1680 C   0  0  0  0  0  3  0  0  0  0  0  0
  -20.9650  -26.7200   22.6490 C   0  0  0  0  0  2  0  0  0  0  0  0
  -19.9360  -26.2980   21.5960 C   0  0  0  0  0  2  0  0  0  0  0  0
  -18.5180  -26.3820   22.1670 C   0  0  0  0  0  2  0  0  0  0  0  0
  -19.2790  -28.5810   23.2410 C   0  0  0  0  0  0  0  0  0  0  0  0
  -18.9570  -29.8470   23.7760 C   0  0  0  0  0  3  0  0  0  0  0  0
  -17.6180  -30.2740   23.8620 C   0  0  0  0  0  3  0  0  0  0  0  0
  -16.5830  -29.4300   23.4240 C   0  0  0  0  0  3  0  0  0  0  0  0
  -16.8880  -28.1650   22.8910 C   0  0  0  0  0  3  0  0  0  0  0  0
  -25.8280  -32.5840   23.9090 C   0  0  0  0  0  3  0  0  0  0  0  0
  -25.4550  -33.9800   24.1800 N   0  0  0  0  0  0  0  0  0  0  0  0
  -25.7660  -35.0190   23.3930 C   0  0  0  0  0  0  0  0  0  0  0  0
  -26.4680  -34.9070   22.3840 O   0  0  0  0  0  0  0  0  0  0  0  0
  -24.8320  -34.1370   24.9590 H   0  0  0  0  0  0  0  0  0  0  0  0
  -23.9730  -36.7230   22.9390 C   0  0  0  0  0  1  0  0  0  0  0  0
  -25.2130  -36.4020   23.7880 C   0  0  0  0  0  3  0  0  0  0  0  0
  -27.2920  -37.4050   24.6240 C   0  0  0  0  0  1  0  0  0  0  0  0
  -26.2030  -37.4930   23.6550 N   0  0  0  0  0  0  0  0  0  0  0  0
  -25.7560  -38.3990   23.7600 H   0  0  0  0  0  0  0  0  0  0  0  0
  -26.3240  -31.8760   25.2290 C   0  0  1  0  0  0  0  0  0  0  0  0
  -25.1990  -31.6220   26.2600 C   0  0  0  0  0  1  0  0  0  0  0  0
  -26.9820  -30.5150   24.9040 C   0  0  0  0  0  1  0  0  0  0  0  0
  -27.4100  -32.7400   25.9110 C   0  0  0  0  0  1  0  0  0  0  0  0
  2 15  1  0
  3  8  1  0
  4  5  1  0
  4  3  1  0
  6  5  1  0
  6 20  1  0
  6  7  1  0
  8  2  1  0
  8  7  1  0
  9  2  2  0
 10 14  1  0
 11 10  1  0
 11 15  1  0
 12 13  1  6
 12 46  1  0
 14 12  1  0
 14  1  1  0
 15 12  1  0
 16 10  2  0
 17 18  2  0
 18 37  1  0
 19 18  1  0
 19 22  1  0
 20 21  1  0
 20 17  1  0
 21 19  2  0
 22 23  1  0
 23 24  2  0
 25 28  1  0
 25 24  1  0
 26 25  2  0
 27 26  1  0
 27 22  2  0
 28 29  1  0
 29 30  1  0
 30 31  2  0
 32 31  1  0
 32 36  1  0
 33 32  2  0
 34 29  2  0
 34 33  1  0
 35 34  1  0
 37 38  1  0
 38 40  1  0
 38 41  1  0
 39 37  2  0
 42 17  1  0
 42 43  1  0
 44 42  1  0
 46 45  1  0
 47 48  1  0
 47  1  2  0
 49 48  1  0
 49 50  2  0
 51 50  1  0
 52 63  2  0
 53 51  1  0
 53 58  1  0
 54 62  1  0
 54 64  1  0
 55 57  1  0
 56 62  1  0
 57 58  2  0
 57 56  1  0
 59 53  2  0
 60 59  1  0
 60 55  2  0
 61 55  1  0
 61 54  1  0
 62 52  1  0
 64 66  2  0
 65 64  1  0
 67 65  1  0
 68 77  2  0
 68 73  1  0
 69 65  1  0
 69 73  1  0
 70 69  1  0
 71 72  1  0
 71 70  1  0
 72 68  1  0
 73 74  2  0
 74 75  1  0
 76 75  2  0
 77 76  1  0
 78 52  1  0
 78 79  1  0
 78 88  1  0
 79 82  1  0
 80 84  1  0
 80 79  1  0
 81 80  2  0
 84 83  1  0
 86 87  1  0
 86 84  1  0
 86 85  1  0
 88 91  1  1
 88 89  1  0
 90 88  1  0
M  ISO  4   2 100  15 100  50 101  51 101
M  END
>  <TORSDO>  (26) 
F 21

>  <SCORE>  (26) 
-10.553

>  <name>  (26) 
25

>  <ligand_id>  (26) 
25

>  <original_smiles>  (26) 
[H]c1c([H])c([H])c2c(c1[H])C([H])([H])C([H])([H])C([H])([H])C2([H])N([H])C(=O)C1([H])N(C(=O)C([H])(N([H])C(=O)C([H])(N([H])C([H])([H])[H])C([H])([H])[H])C(C([H])([H])[H])(C([H])([H])[H])C([H])([H])[H])C([H])([H])c2c([H])c(OC([H])([H])C([H])([H])C([H])([H])C([H])([H])C([H])([H])N3C(=O)C([H])([H])N(C(=O)N4C([H])([H])C([H])([H])C([H])([H])C([H])(n5nc(-c6c([H])c([H])c(Oc7c([H])c([H])c(F)c([H])c7F)c([H])c6[H])c(C(=O)N([H])[H])c5N([H])[H])C4([H])[H])C3(C([H])([H])[H])C([H])([H])C([H])([H])[H])c([H])c([H])c2C1([H])[H]

>  <smiles>  (26) 
[H]c1c([H])c([H])c2c(c1[H])C([H])([H])C([H])([H])C([H])([H])C2([H])N([H])C(=O)C1([H])N(C(=O)C([H])(N([H])C(=O)C([H])(N([H])C([H])([H])[H])C([H])([H])[H])C(C([H])([H])[H])(C([H])([H])[H])C([H])([H])[H])C([H])([H])c2c([H])c(OC([H])([H])C([H])([H])C([H])([H])C([H])([H])C([H])([H])N3C(=O)C([H])([H])N(C(=O)N4C([H])([H])C([H])([H])C([H])([H])C([H])(n5nc(-c6c([H])c([H])c(Oc7c([H])c([H])c(F)c([H])c7F)c([H])c6[H])c(C(=O)N([H])[H])c5N([H])[H])C4([H])[H])C3(C([H])([H])[H])C([H])([H])C([H])([H])[H])c([H])c([H])c2C1([H])[H]

$$$$
26:0:0
     RDKit          3D

 87 94  0  0  1  0  0  0  0  0999 V2000
  -29.4060  -21.4630   20.5760 C   0  0  0  0  0  2  0  0  0  0  0  0
  -29.7030  -19.8940   20.0870 N   0  0  2  0  0  4  0  0  0  0  0  0
  -30.6470  -19.8290   20.4350 H   0  0  0  0  0  0  0  0  0  0  0  0
  -31.2350  -20.3530   18.1080 C   0  0  0  0  0  1  0  0  0  0  0  0
  -29.9240  -19.7390   18.6270 C   0  0  0  0  0  2  0  0  0  0  0  0
  -27.6740  -18.3620   20.1730 C   0  0  0  0  0  1  0  0  0  0  0  0
  -29.1340  -18.4630   20.6560 C   0  0  0  0  0  3  0  0  0  0  0  0
  -29.8870  -16.8390   20.9440 C   0  0  0  0  0  2  0  0  0  0  0  0
  -30.3910  -15.3080   20.2170 C   0  0  0  0  0  0  0  0  0  0  0  0
  -30.3660  -12.8740   19.2580 C   0  0  0  0  0  2  0  0  0  0  0  0
  -29.4170  -12.6610   18.0450 C   0  0  0  0  0  2  0  0  0  0  0  0
  -27.9800  -12.3840   18.5150 C   0  0  0  0  0  2  0  0  0  0  0  0
  -27.5480  -13.3370   19.6540 C   0  0  0  0  0  3  0  0  0  0  0  0
  -28.6200  -13.4470   20.7640 C   0  0  0  0  0  2  0  0  0  0  0  0
  -29.8430  -13.9880   20.1550 N   0  0  0  0  0  0  0  0  0  0  0  0
  -31.5380  -15.3160   19.7390 O   0  0  0  0  0  0  0  0  0  0  0  0
  -25.1850  -13.8690   20.4490 C   0  0  0  0  0  0  0  0  0  0  0  0
  -24.1410  -13.0830   20.8430 C   0  0  0  0  0  0  0  0  0  0  0  0
  -24.6140  -11.7310   20.7960 C   0  0  0  0  0  0  0  0  0  0  0  0
  -26.2320  -13.0040   20.1830 N   0  0  0  0  0  0  0  0  0  0  0  0
  -25.8990  -11.7120   20.4520 N   0  0  0  0  0  0  0  0  0  0  0  0
  -23.8980  -10.4660   20.9980 C   0  0  0  0  0  0  0  0  0  0  0  0
  -24.3540   -9.4940   21.9190 C   0  0  0  0  0  3  0  0  0  0  0  0
  -23.6340   -8.2960   22.1130 C   0  0  0  0  0  3  0  0  0  0  0  0
  -22.4440   -8.0540   21.3870 C   0  0  0  0  0  0  0  0  0  0  0  0
  -22.0050   -9.0130   20.4580 C   0  0  0  0  0  3  0  0  0  0  0  0
  -22.7250  -10.2030   20.2620 C   0  0  0  0  0  3  0  0  0  0  0  0
  -21.6950   -6.9060   21.4940 O   0  0  0  0  0  0  0  0  0  0  0  0
  -21.6780   -6.1590   22.6430 C   0  0  0  0  0  0  0  0  0  0  0  0
  -21.2820   -6.7090   23.8840 C   0  0  0  0  0  3  0  0  0  0  0  0
  -21.2150   -5.8870   25.0300 C   0  0  0  0  0  3  0  0  0  0  0  0
  -21.5290   -4.5190   24.9310 C   0  0  0  0  0  0  0  0  0  0  0  0
  -21.9180   -3.9680   23.7000 C   0  0  0  0  0  3  0  0  0  0  0  0
  -21.9870   -4.7870   22.5570 C   0  0  0  0  0  0  0  0  0  0  0  0
  -22.3410   -4.2480   21.3660 F   0  0  0  0  0  0  0  0  0  0  0  0
  -21.4560   -3.7290   26.0290 F   0  0  0  0  0  0  0  0  0  0  0  0
  -22.7460  -13.5440   21.1440 C   0  0  0  0  0  0  0  0  0  0  0  0
  -22.0390  -12.8530   22.0280 N   0  0  0  0  0  0  0  0  0  0  0  0
  -22.2960  -14.5710   20.6330 O   0  0  0  0  0  0  0  0  0  0  0  0
  -22.4060  -12.0250   22.4740 H   0  0  0  0  0  0  0  0  0  0  0  0
  -21.1030  -13.1600   22.2640 H   0  0  0  0  0  0  0  0  0  0  0  0
  -25.3370  -15.2390   20.2560 N   0  0  0  0  0  0  0  0  0  0  0  0
  -24.5740  -15.8940   20.3800 H   0  0  0  0  0  0  0  0  0  0  0  0
  -26.1530  -15.6510   19.8200 H   0  0  0  0  0  0  0  0  0  0  0  0
  -28.2780  -22.7370   20.1240 C   0  0  0  0  0  2  0  0  0  0  0  0
  -28.3930  -24.4600   19.6920 C   0  0  0  0  0  2  0  0  0  0  0  0
  -28.2280  -25.9510   20.3270 O   0  0  0  0  0  0  0  0  0  0  0  0
  -24.6260  -31.8430   23.2200 C   0  0  0  0  0  0  0  0  0  0  0  0
  -27.1890  -26.9980   20.1910 C   0  0  0  0  0  0  0  0  0  0  0  0
  -23.4310  -30.4420   21.5830 C   0  0  0  0  0  3  0  0  0  0  0  0
  -24.8770  -28.8400   20.1580 C   0  0  0  0  0  0  0  0  0  0  0  0
  -25.9940  -30.6570   21.4390 C   0  0  0  0  0  2  0  0  0  0  0  0
  -26.0600  -29.2550   20.7790 C   0  0  0  0  0  0  0  0  0  0  0  0
  -27.2040  -28.3470   20.7840 C   0  0  0  0  0  3  0  0  0  0  0  0
  -25.9790  -26.7240   19.5130 C   0  0  0  0  0  3  0  0  0  0  0  0
  -24.8560  -27.5950   19.5090 C   0  0  0  0  0  3  0  0  0  0  0  0
  -23.6600  -29.7570   20.2050 C   0  0  0  0  0  2  0  0  0  0  0  0
  -24.7050  -31.0100   22.1310 N   0  0  0  0  0  0  0  0  0  0  0  0
  -23.5360  -32.1330   23.7430 O   0  0  0  0  0  0  0  0  0  0  0  0
  -22.7440  -29.4460   22.5530 C   0  0  0  0  0  0  0  0  0  0  0  0
  -21.4140  -29.2800   22.4330 N   0  0  0  0  0  0  0  0  0  0  0  0
  -23.4110  -28.8230   23.3830 O   0  0  0  0  0  0  0  0  0  0  0  0
  -20.9320  -29.8320   21.7370 H   0  0  0  0  0  0  0  0  0  0  0  0
  -18.0300  -28.0730   22.9540 C   0  0  0  0  0  0  0  0  0  0  0  0
  -20.5900  -28.3480   23.2120 C   0  0  0  0  0  3  0  0  0  0  0  0
  -20.6950  -26.9110   22.6500 C   0  0  0  0  0  2  0  0  0  0  0  0
  -19.5950  -26.5780   21.6380 C   0  0  0  0  0  2  0  0  0  0  0  0
  -18.2120  -26.7230   22.2800 C   0  0  0  0  0  2  0  0  0  0  0  0
  -19.1470  -28.8450   23.3720 C   0  0  0  0  0  0  0  0  0  0  0  0
  -18.9190  -30.1090   23.9610 C   0  0  0  0  0  3  0  0  0  0  0  0
  -17.6100  -30.6010   24.1290 C   0  0  0  0  0  3  0  0  0  0  0  0
  -16.5110  -29.8270   23.7220 C   0  0  0  0  0  3  0  0  0  0  0  0
  -16.7190  -28.5640   23.1410 C   0  0  0  0  0  3  0  0  0  0  0  0
  -25.8990  -32.4930   23.8440 C   0  0  0  0  0  3  0  0  0  0  0  0
  -26.4120  -31.7410   25.1340 C   0  0  1  0  0  0  0  0  0  0  0  0
  -25.3170  -31.5180   26.2040 C   0  0  0  0  0  1  0  0  0  0  0  0
  -26.9990  -30.3590   24.7710 C   0  0  0  0  0  1  0  0  0  0  0  0
  -27.5560  -32.5500   25.7910 C   0  0  0  0  0  1  0  0  0  0  0  0
  -25.5820  -33.8930   24.1670 N   0  0  0  0  0  0  0  0  0  0  0  0
  -25.9120  -34.9540   23.4160 C   0  0  0  0  0  0  0  0  0  0  0  0
  -26.5750  -34.8560   22.3800 O   0  0  0  0  0  0  0  0  0  0  0  0
  -25.0050  -34.0470   24.9820 H   0  0  0  0  0  0  0  0  0  0  0  0
  -24.1780  -36.7480   23.0720 C   0  0  0  0  0  1  0  0  0  0  0  0
  -25.4240  -36.3420   23.8800 C   0  0  0  0  0  3  0  0  0  0  0  0
  -27.5570  -37.2290   24.7080 C   0  0  0  0  0  1  0  0  0  0  0  0
  -26.4530  -37.3990   23.7690 N   0  0  0  0  0  0  0  0  0  0  0  0
  -26.0440  -38.3170   23.9230 H   0  0  0  0  0  0  0  0  0  0  0  0
  2  3  1  1
  2  1  1  0
  2  7  1  0
  4  5  1  0
  5  2  1  0
  7  6  1  0
  7  8  1  0
  9  8  1  0
 10 15  1  0
 11 12  1  0
 11 10  1  0
 13 12  1  0
 13 20  1  0
 13 14  1  0
 15  9  1  0
 15 14  1  0
 16  9  2  0
 17 18  2  0
 18 37  1  0
 19 18  1  0
 19 22  1  0
 20 17  1  0
 20 21  1  0
 21 19  2  0
 22 23  1  0
 23 24  2  0
 25 28  1  0
 25 24  1  0
 26 25  2  0
 27 26  1  0
 27 22  2  0
 28 29  1  0
 29 30  1  0
 30 31  2  0
 32 31  1  0
 32 36  1  0
 33 32  2  0
 34 29  2  0
 34 33  1  0
 35 34  1  0
 37 38  1  0
 38 41  1  0
 38 40  1  0
 39 37  2  0
 42 43  1  0
 42 17  1  0
 44 42  1  0
 45  1  1  0
 46 45  1  0
 46 47  1  0
 48 59  2  0
 49 47  1  0
 49 54  1  0
 50 58  1  0
 50 60  1  0
 51 57  1  0
 51 53  1  0
 52 58  1  0
 53 54  2  0
 53 52  1  0
 55 49  2  0
 56 55  1  0
 56 51  2  0
 57 50  1  0
 58 48  1  0
 60 62  2  0
 61 60  1  0
 63 61  1  0
 64 73  2  0
 64 69  1  0
 65 61  1  0
 65 69  1  0
 66 65  1  0
 67 68  1  0
 67 66  1  0
 68 64  1  0
 69 70  2  0
 70 71  1  0
 72 71  2  0
 73 72  1  0
 74 48  1  0
 74 79  1  0
 74 75  1  0
 75 78  1  1
 75 76  1  0
 77 75  1  0
 79 82  1  0
 80 84  1  0
 80 79  1  0
 81 80  2  0
 84 83  1  0
 86 84  1  0
 86 87  1  0
 86 85  1  0
M  ISO  4   8 100   9 100  46 101  47 101
M  END
>  <TORSDO>  (27) 
F 22

>  <SCORE>  (27) 
-14.914

>  <name>  (27) 
26

>  <ligand_id>  (27) 
26

>  <original_smiles>  (27) 
[H]c1c([H])c([H])c2c(c1[H])C([H])([H])C([H])([H])C([H])([H])C2([H])N([H])C(=O)C1([H])N(C(=O)C([H])(N([H])C(=O)C([H])(N([H])C([H])([H])[H])C([H])([H])[H])C(C([H])([H])[H])(C([H])([H])[H])C([H])([H])[H])C([H])([H])c2c([H])c(OC([H])([H])C([H])([H])C([H])([H])[N+]([H])(C([H])([H])C([H])([H])[H])C([H])(C([H])([H])[H])C([H])([H])C(=O)N3C([H])([H])C([H])([H])C([H])([H])C([H])(n4nc(-c5c([H])c([H])c(Oc6c([H])c([H])c(F)c([H])c6F)c([H])c5[H])c(C(=O)N([H])[H])c4N([H])[H])C3([H])[H])c([H])c([H])c2C1([H])[H]

>  <smiles>  (27) 
[H]c1c([H])c([H])c2c(c1[H])C([H])([H])C([H])([H])C([H])([H])C2([H])N([H])C(=O)C1([H])N(C(=O)C([H])(N([H])C(=O)C([H])(N([H])C([H])([H])[H])C([H])([H])[H])C(C([H])([H])[H])(C([H])([H])[H])C([H])([H])[H])C([H])([H])c2c([H])c(OC([H])([H])C([H])([H])C([H])([H])[N+]([H])(C([H])([H])C([H])([H])[H])C([H])(C([H])([H])[H])C([H])([H])C(=O)N3C([H])([H])C([H])([H])C([H])([H])C([H])(n4nc(-c5c([H])c([H])c(Oc6c([H])c([H])c(F)c([H])c6F)c([H])c5[H])c(C(=O)N([H])[H])c4N([H])[H])C3([H])[H])c([H])c([H])c2C1([H])[H]

$$$$
27:0:0
     RDKit          3D

 94102  0  0  1  0  0  0  0  0999 V2000
  -27.4440  -21.9490   18.6070 C   0  0  0  0  0  1  0  0  0  0  0  0
  -28.7120  -22.0270   19.3840 N   0  0  2  0  0  4  0  0  0  0  0  0
  -29.3670  -22.2800   18.6570 H   0  0  0  0  0  0  0  0  0  0  0  0
  -30.6260  -20.7950   20.5620 C   0  0  0  0  0  2  0  0  0  0  0  0
  -28.3420  -19.6790   20.4640 C   0  0  0  0  0  2  0  0  0  0  0  0
  -31.0780  -19.4640   21.1960 C   0  0  0  0  0  2  0  0  0  0  0  0
  -28.9870  -18.2630   20.5510 C   0  0  0  0  0  2  0  0  0  0  0  0
  -29.2900  -20.6960   19.7820 C   0  0  0  0  0  3  0  0  0  0  0  0
  -30.4870  -18.2430   20.5870 N   0  0  2  0  0  4  0  0  0  0  0  0
  -30.7770  -18.2400   19.6180 H   0  0  0  0  0  0  0  0  0  0  0  0
  -31.1560  -17.0300   21.1740 C   0  0  0  0  0  2  0  0  0  0  0  0
  -30.4080  -15.6650   21.1650 C   0  0  0  0  0  2  0  0  0  0  0  0
  -31.0240  -14.5540   20.2920 C   0  0  0  0  0  0  0  0  0  0  0  0
  -30.7010  -12.3760   19.1670 C   0  0  0  0  0  2  0  0  0  0  0  0
  -29.7440  -12.5930   17.9760 C   0  0  0  0  0  2  0  0  0  0  0  0
  -28.2810  -12.4710   18.4420 C   0  0  0  0  0  2  0  0  0  0  0  0
  -27.9830  -13.3110   19.7140 C   0  0  0  0  0  3  0  0  0  0  0  0
  -29.0540  -13.0950   20.8010 C   0  0  0  0  0  2  0  0  0  0  0  0
  -30.3650  -13.3720   20.1920 N   0  0  0  0  0  0  0  0  0  0  0  0
  -32.0740  -14.7710   19.6810 O   0  0  0  0  0  0  0  0  0  0  0  0
  -25.6290  -13.9570   20.5120 C   0  0  0  0  0  0  0  0  0  0  0  0
  -24.5520  -13.1940   20.8890 C   0  0  0  0  0  0  0  0  0  0  0  0
  -24.9820  -11.8360   20.8050 C   0  0  0  0  0  0  0  0  0  0  0  0
  -26.6440  -13.0560   20.2290 N   0  0  0  0  0  0  0  0  0  0  0  0
  -26.2600  -11.7750   20.4590 N   0  0  0  0  0  0  0  0  0  0  0  0
  -24.2330  -10.5820   20.9880 C   0  0  0  0  0  0  0  0  0  0  0  0
  -24.6260   -9.6130   21.9380 C   0  0  0  0  0  3  0  0  0  0  0  0
  -23.8770   -8.4260   22.1070 C   0  0  0  0  0  3  0  0  0  0  0  0
  -22.7230   -8.2010   21.3200 C   0  0  0  0  0  0  0  0  0  0  0  0
  -22.3460   -9.1620   20.3620 C   0  0  0  0  0  3  0  0  0  0  0  0
  -23.0950  -10.3400   20.1930 C   0  0  0  0  0  3  0  0  0  0  0  0
  -21.9480   -7.0690   21.4000 O   0  0  0  0  0  0  0  0  0  0  0  0
  -21.7990   -6.3770   22.5750 C   0  0  0  0  0  0  0  0  0  0  0  0
  -21.2470   -6.9820   23.7260 C   0  0  0  0  0  3  0  0  0  0  0  0
  -21.0380   -6.2190   24.8900 C   0  0  0  0  0  3  0  0  0  0  0  0
  -21.3720   -4.8520   24.9090 C   0  0  0  0  0  0  0  0  0  0  0  0
  -21.9190   -4.2460   23.7650 C   0  0  0  0  0  3  0  0  0  0  0  0
  -22.1300   -5.0050   22.6000 C   0  0  0  0  0  0  0  0  0  0  0  0
  -22.6350   -4.4100   21.4900 F   0  0  0  0  0  0  0  0  0  0  0  0
  -21.1700   -4.1180   26.0270 F   0  0  0  0  0  0  0  0  0  0  0  0
  -23.1750  -13.6950   21.2240 C   0  0  0  0  0  0  0  0  0  0  0  0
  -22.4820  -13.0100   22.1250 N   0  0  0  0  0  0  0  0  0  0  0  0
  -22.7270  -14.7270   20.7270 O   0  0  0  0  0  0  0  0  0  0  0  0
  -22.8480  -12.1610   22.5350 H   0  0  0  0  0  0  0  0  0  0  0  0
  -21.5630  -13.3330   22.4020 H   0  0  0  0  0  0  0  0  0  0  0  0
  -25.8170  -15.3300   20.3730 N   0  0  0  0  0  0  0  0  0  0  0  0
  -25.0690  -15.9980   20.5240 H   0  0  0  0  0  0  0  0  0  0  0  0
  -26.6880  -15.7790   20.1210 H   0  0  0  0  0  0  0  0  0  0  0  0
  -28.8480  -23.2140   20.2990 C   0  0  0  0  0  3  0  0  0  0  0  0
  -26.6310  -23.1850   21.7070 C   0  0  0  0  0  1  0  0  0  0  0  0
  -28.1600  -23.0560   21.6810 C   0  0  0  0  0  2  0  0  0  0  0  0
  -28.4870  -24.5470   19.5900 C   0  0  0  0  0  2  0  0  0  0  0  0
  -28.7370  -25.8030   20.4330 C   0  0  0  0  0  2  0  0  0  0  0  0
  -28.5600  -26.9750   19.6480 O   0  0  0  0  0  0  0  0  0  0  0  0
  -24.5420  -31.7600   23.0410 C   0  0  0  0  0  0  0  0  0  0  0  0
  -27.3390  -27.5930   19.7530 C   0  0  0  0  0  0  0  0  0  0  0  0
  -23.3860  -30.3990   21.3260 C   0  0  0  0  0  3  0  0  0  0  0  0
  -24.8870  -28.9790   19.8400 C   0  0  0  0  0  0  0  0  0  0  0  0
  -25.8950  -30.8570   21.1560 C   0  0  0  0  0  2  0  0  0  0  0  0
  -26.0210  -29.5190   20.4570 C   0  0  0  0  0  0  0  0  0  0  0  0
  -27.2530  -28.8340   20.4080 C   0  0  0  0  0  3  0  0  0  0  0  0
  -26.1930  -27.0560   19.1290 C   0  0  0  0  0  3  0  0  0  0  0  0
  -24.9660  -27.7440   19.1700 C   0  0  0  0  0  3  0  0  0  0  0  0
  -23.6160  -29.7910   19.9160 C   0  0  0  0  0  2  0  0  0  0  0  0
  -24.6240  -31.0170   21.9000 N   0  0  0  0  0  0  0  0  0  0  0  0
  -23.4510  -31.9710   23.5890 O   0  0  0  0  0  0  0  0  0  0  0  0
  -22.7630  -29.3120   22.2290 C   0  0  0  0  0  0  0  0  0  0  0  0
  -21.4340  -29.1420   22.1260 N   0  0  0  0  0  0  0  0  0  0  0  0
  -23.4670  -28.6310   22.9770 O   0  0  0  0  0  0  0  0  0  0  0  0
  -20.9290  -29.7500   21.4990 H   0  0  0  0  0  0  0  0  0  0  0  0
  -18.0610  -27.9740   22.6790 C   0  0  0  0  0  0  0  0  0  0  0  0
  -20.6340  -28.1560   22.8500 C   0  0  0  0  0  3  0  0  0  0  0  0
  -20.6710  -26.7790   22.1460 C   0  0  0  0  0  2  0  0  0  0  0  0
  -19.5140  -26.5680   21.1630 C   0  0  0  0  0  2  0  0  0  0  0  0
  -18.1690  -26.6850   21.8830 C   0  0  0  0  0  2  0  0  0  0  0  0
  -19.2160  -28.6730   23.1170 C   0  0  0  0  0  0  0  0  0  0  0  0
  -19.0550  -29.8900   23.8210 C   0  0  0  0  0  3  0  0  0  0  0  0
  -17.7700  -30.3990   24.0930 C   0  0  0  0  0  3  0  0  0  0  0  0
  -16.6300  -29.6960   23.6670 C   0  0  0  0  0  3  0  0  0  0  0  0
  -16.7770  -28.4830   22.9660 C   0  0  0  0  0  3  0  0  0  0  0  0
  -25.8090  -32.3900   23.7030 C   0  0  0  0  0  3  0  0  0  0  0  0
  -25.4720  -33.7660   24.0830 N   0  0  0  0  0  0  0  0  0  0  0  0
  -25.7900  -34.8490   23.3600 C   0  0  0  0  0  0  0  0  0  0  0  0
  -26.4690  -34.7950   22.3300 O   0  0  0  0  0  0  0  0  0  0  0  0
  -24.8720  -33.8830   24.8860 H   0  0  0  0  0  0  0  0  0  0  0  0
  -24.0280  -36.6150   23.0300 C   0  0  0  0  0  1  0  0  0  0  0  0
  -25.2630  -36.2080   23.8520 C   0  0  0  0  0  3  0  0  0  0  0  0
  -27.3550  -37.1030   24.7690 C   0  0  0  0  0  1  0  0  0  0  0  0
  -26.2770  -37.2840   23.8010 N   0  0  0  0  0  0  0  0  0  0  0  0
  -25.8480  -38.1890   23.9740 H   0  0  0  0  0  0  0  0  0  0  0  0
  -26.3270  -31.5780   24.9520 C   0  0  1  0  0  0  0  0  0  0  0  0
  -25.2280  -31.2770   26.0010 C   0  0  0  0  0  1  0  0  0  0  0  0
  -26.9420  -30.2300   24.5080 C   0  0  0  0  0  1  0  0  0  0  0  0
  -27.4600  -32.3660   25.6520 C   0  0  0  0  0  1  0  0  0  0  0  0
  1  2  1  0
  2 49  1  0
  2  3  1  6
  4  6  1  0
  5  7  1  0
  7  9  1  0
  8  2  1  0
  8  5  1  0
  8  4  1  0
  9 11  1  0
  9  6  1  0
  9 10  1  6
 12 11  1  0
 13 12  1  0
 14 19  1  0
 15 16  1  0
 15 14  1  0
 17 16  1  0
 17 24  1  0
 17 18  1  0
 19 13  1  0
 19 18  1  0
 20 13  2  0
 21 22  2  0
 22 41  1  0
 23 22  1  0
 23 26  1  0
 24 25  1  0
 24 21  1  0
 25 23  2  0
 26 27  1  0
 27 28  2  0
 29 32  1  0
 29 28  1  0
 30 29  2  0
 31 30  1  0
 31 26  2  0
 32 33  1  0
 33 38  2  0
 33 34  1  0
 34 35  2  0
 35 36  1  0
 36 40  1  0
 37 36  2  0
 38 37  1  0
 39 38  1  0
 41 42  1  0
 42 45  1  0
 42 44  1  0
 43 41  2  0
 46 21  1  0
 46 47  1  0
 48 46  1  0
 49 52  1  0
 49 51  1  0
 51 50  1  0
 52 53  1  0
 54 56  1  0
 54 53  1  0
 55 66  2  0
 56 61  1  0
 57 65  1  0
 57 67  1  0
 58 64  1  0
 58 60  1  0
 59 65  1  0
 60 59  1  0
 61 60  2  0
 62 63  1  0
 62 56  2  0
 63 58  2  0
 64 57  1  0
 65 55  1  0
 67 69  2  0
 68 67  1  0
 70 68  1  0
 71 80  2  0
 71 76  1  0
 72 68  1  0
 72 76  1  0
 73 72  1  0
 74 75  1  0
 74 73  1  0
 75 71  1  0
 76 77  2  0
 77 78  1  0
 79 78  2  0
 80 79  1  0
 81 55  1  0
 81 82  1  0
 81 91  1  0
 82 85  1  0
 83 87  1  0
 83 82  1  0
 84 83  2  0
 87 86  1  0
 89 87  1  0
 89 90  1  0
 89 88  1  0
 91 94  1  1
 91 92  1  0
 93 91  1  0
M  ISO  4  12 100  13 100  53 101  54 101
M  END
>  <TORSDO>  (28) 
F 23

>  <SCORE>  (28) 
-12.627

>  <name>  (28) 
27

>  <ligand_id>  (28) 
27

>  <original_smiles>  (28) 
[H]c1c([H])c([H])c2c(c1[H])C([H])([H])C([H])([H])C([H])([H])C2([H])N([H])C(=O)C1([H])N(C(=O)C([H])(N([H])C(=O)C([H])(N([H])C([H])([H])[H])C([H])([H])[H])C(C([H])([H])[H])(C([H])([H])[H])C([H])([H])[H])C([H])([H])c2c([H])c(OC([H])([H])C([H])([H])C([H])(C([H])([H])C([H])([H])[H])[N+]([H])(C([H])([H])[H])C3([H])C([H])([H])C([H])([H])[N+]([H])(C([H])([H])C([H])([H])C(=O)N4C([H])([H])C([H])([H])C([H])([H])C([H])(n5nc(-c6c([H])c([H])c(Oc7c([H])c([H])c(F)c([H])c7F)c([H])c6[H])c(C(=O)N([H])[H])c5N([H])[H])C4([H])[H])C([H])([H])C3([H])[H])c([H])c([H])c2C1([H])[H]

>  <smiles>  (28) 
[H]c1c([H])c([H])c2c(c1[H])C([H])([H])C([H])([H])C([H])([H])C2([H])N([H])C(=O)C1([H])N(C(=O)C([H])(N([H])C(=O)C([H])(N([H])C([H])([H])[H])C([H])([H])[H])C(C([H])([H])[H])(C([H])([H])[H])C([H])([H])[H])C([H])([H])c2c([H])c(OC([H])([H])C([H])([H])C([H])(C([H])([H])C([H])([H])[H])[N+]([H])(C([H])([H])[H])C3([H])C([H])([H])C([H])([H])[N+]([H])(C([H])([H])C([H])([H])C(=O)N4C([H])([H])C([H])([H])C([H])([H])C([H])(n5nc(-c6c([H])c([H])c(Oc7c([H])c([H])c(F)c([H])c7F)c([H])c6[H])c(C(=O)N([H])[H])c5N([H])[H])C4([H])[H])C([H])([H])C3([H])[H])c([H])c([H])c2C1([H])[H]

$$$$
28:0:0
     RDKit          3D

 91 99  0  0  1  0  0  0  0  0999 V2000
  -29.7940  -20.5770   20.3850 C   0  0  0  0  0  2  0  0  0  0  0  0
  -30.1860  -22.0570   20.1150 C   0  0  0  0  0  2  0  0  0  0  0  0
  -29.0210  -23.0630   20.2870 C   0  0  0  0  0  2  0  0  0  0  0  0
  -29.4140  -24.5680   20.2440 C   0  0  0  0  0  2  0  0  0  0  0  0
  -28.1800  -25.4780   20.0350 C   0  0  0  0  0  2  0  0  0  0  0  0
  -28.4030  -26.8930   20.2090 O   0  0  0  0  0  0  0  0  0  0  0  0
  -24.7900  -32.0500   23.5860 C   0  0  0  0  0  0  0  0  0  0  0  0
  -27.2650  -27.6880   20.2320 C   0  0  0  0  0  0  0  0  0  0  0  0
  -23.5320  -30.7900   21.8730 C   0  0  0  0  0  3  0  0  0  0  0  0
  -24.9260  -29.2940   20.3520 C   0  0  0  0  0  0  0  0  0  0  0  0
  -26.0730  -31.0650   21.6850 C   0  0  0  0  0  2  0  0  0  0  0  0
  -26.1070  -29.7330   20.9610 C   0  0  0  0  0  0  0  0  0  0  0  0
  -27.2800  -28.9400   20.8960 C   0  0  0  0  0  3  0  0  0  0  0  0
  -26.0570  -27.2780   19.6140 C   0  0  0  0  0  3  0  0  0  0  0  0
  -24.8960  -28.0670   19.6750 C   0  0  0  0  0  3  0  0  0  0  0  0
  -23.7130  -30.1910   20.4550 C   0  0  0  0  0  2  0  0  0  0  0  0
  -24.8170  -31.3120   22.4400 N   0  0  0  0  0  0  0  0  0  0  0  0
  -23.7200  -32.3270   24.1460 O   0  0  0  0  0  0  0  0  0  0  0  0
  -22.8490  -29.7350   22.7740 C   0  0  0  0  0  0  0  0  0  0  0  0
  -21.5310  -29.5510   22.5890 N   0  0  0  0  0  0  0  0  0  0  0  0
  -23.5030  -29.0860   23.5950 O   0  0  0  0  0  0  0  0  0  0  0  0
  -21.0650  -30.1270   21.9010 H   0  0  0  0  0  0  0  0  0  0  0  0
  -18.1600  -28.2740   22.8570 C   0  0  0  0  0  0  0  0  0  0  0  0
  -20.6890  -28.5870   23.2970 C   0  0  0  0  0  3  0  0  0  0  0  0
  -20.8620  -27.1640   22.7180 C   0  0  0  0  0  2  0  0  0  0  0  0
  -19.8360  -26.8260   21.6310 C   0  0  0  0  0  2  0  0  0  0  0  0
  -18.4120  -26.9350   22.1840 C   0  0  0  0  0  2  0  0  0  0  0  0
  -19.2310  -29.0570   23.3660 C   0  0  0  0  0  0  0  0  0  0  0  0
  -18.9450  -30.3090   23.9500 C   0  0  0  0  0  3  0  0  0  0  0  0
  -17.6210  -30.7800   24.0340 C   0  0  0  0  0  3  0  0  0  0  0  0
  -16.5650  -29.9940   23.5440 C   0  0  0  0  0  3  0  0  0  0  0  0
  -16.8340  -28.7430   22.9610 C   0  0  0  0  0  3  0  0  0  0  0  0
  -26.0980  -32.5990   24.2340 C   0  0  0  0  0  3  0  0  0  0  0  0
  -25.8440  -33.9900   24.6320 N   0  0  0  0  0  0  0  0  0  0  0  0
  -26.2270  -35.0650   23.9280 C   0  0  0  0  0  0  0  0  0  0  0  0
  -26.9040  -34.9840   22.9000 O   0  0  0  0  0  0  0  0  0  0  0  0
  -25.2470  -34.1310   25.4350 H   0  0  0  0  0  0  0  0  0  0  0  0
  -24.5780  -36.9420   23.6420 C   0  0  0  0  0  1  0  0  0  0  0  0
  -25.7900  -36.4470   24.4490 C   0  0  0  0  0  3  0  0  0  0  0  0
  -27.9480  -37.1960   25.3490 C   0  0  0  0  0  1  0  0  0  0  0  0
  -26.8670  -37.4600   24.4040 N   0  0  0  0  0  0  0  0  0  0  0  0
  -26.4950  -38.3870   24.6000 H   0  0  0  0  0  0  0  0  0  0  0  0
  -26.5860  -31.7460   25.4690 C   0  0  1  0  0  0  0  0  0  0  0  0
  -25.4790  -31.4780   26.5150 C   0  0  0  0  0  1  0  0  0  0  0  0
  -27.1370  -30.3790   25.0050 C   0  0  0  0  0  1  0  0  0  0  0  0
  -27.7510  -32.4740   26.1810 C   0  0  0  0  0  1  0  0  0  0  0  0
  -30.8690  -19.5620   19.9130 C   0  0  0  0  0  2  0  0  0  0  0  0
  -30.1950  -17.1460   19.9760 C   0  0  0  0  0  0  0  0  0  0  0  0
  -30.7550  -15.7760   22.1550 C   0  0  0  0  0  2  0  0  0  0  0  0
  -30.7940  -17.1620   22.8020 C   0  0  0  0  0  2  0  0  0  0  0  0
  -30.1140  -15.7820   20.7450 C   0  0  0  0  0  3  0  0  0  0  0  0
  -31.4730  -18.1710   21.8630 C   0  0  0  0  0  3  0  0  0  0  0  0
  -32.9750  -17.8710   21.6820 C   0  0  0  0  0  1  0  0  0  0  0  0
  -30.7890  -18.2300   20.5590 N   0  0  0  0  0  0  0  0  0  0  0  0
  -29.6470  -17.2390   18.8710 O   0  0  0  0  0  0  0  0  0  0  0  0
  -30.7160  -14.6460   19.8560 C   0  0  0  0  0  0  0  0  0  0  0  0
  -30.3320  -12.5480   18.5930 C   0  0  0  0  0  2  0  0  0  0  0  0
  -29.2820  -12.7970   17.4910 C   0  0  0  0  0  2  0  0  0  0  0  0
  -27.8510  -12.6240   18.0420 C   0  0  0  0  0  2  0  0  0  0  0  0
  -27.6260  -13.3960   19.3700 C   0  0  0  0  0  3  0  0  0  0  0  0
  -28.7760  -13.1140   20.3630 C   0  0  0  0  0  2  0  0  0  0  0  0
  -30.0390  -13.4730   19.6990 N   0  0  0  0  0  0  0  0  0  0  0  0
  -31.7860  -14.8450   19.2690 O   0  0  0  0  0  0  0  0  0  0  0  0
  -25.2870  -13.9580   20.2840 C   0  0  0  0  0  0  0  0  0  0  0  0
  -24.2610  -13.1640   20.7210 C   0  0  0  0  0  0  0  0  0  0  0  0
  -24.7320  -11.8200   20.6220 C   0  0  0  0  0  0  0  0  0  0  0  0
  -26.3200  -13.0950   19.9510 N   0  0  0  0  0  0  0  0  0  0  0  0
  -25.9940  -11.8030   20.2100 N   0  0  0  0  0  0  0  0  0  0  0  0
  -24.0380  -10.5440   20.8430 C   0  0  0  0  0  0  0  0  0  0  0  0
  -24.5090   -9.6000   21.7810 C   0  0  0  0  0  3  0  0  0  0  0  0
  -23.8140   -8.3880   21.9880 C   0  0  0  0  0  3  0  0  0  0  0  0
  -22.6340   -8.1130   21.2570 C   0  0  0  0  0  0  0  0  0  0  0  0
  -22.1830   -9.0460   20.3070 C   0  0  0  0  0  3  0  0  0  0  0  0
  -22.8790  -10.2490   20.0980 C   0  0  0  0  0  3  0  0  0  0  0  0
  -21.9080   -6.9530   21.3730 O   0  0  0  0  0  0  0  0  0  0  0  0
  -21.8410   -6.2610   22.5560 C   0  0  0  0  0  0  0  0  0  0  0  0
  -21.3580   -6.8570   23.7410 C   0  0  0  0  0  3  0  0  0  0  0  0
  -21.2410   -6.0900   24.9180 C   0  0  0  0  0  3  0  0  0  0  0  0
  -21.5960   -4.7280   24.9100 C   0  0  0  0  0  0  0  0  0  0  0  0
  -22.0720   -4.1320   23.7290 C   0  0  0  0  0  3  0  0  0  0  0  0
  -22.1910   -4.8950   22.5550 C   0  0  0  0  0  0  0  0  0  0  0  0
  -22.6310   -4.3110   21.4150 F   0  0  0  0  0  0  0  0  0  0  0  0
  -21.4760   -3.9890   26.0380 F   0  0  0  0  0  0  0  0  0  0  0  0
  -22.8850  -13.6170   21.1180 C   0  0  0  0  0  0  0  0  0  0  0  0
  -22.2520  -12.9120   22.0490 N   0  0  0  0  0  0  0  0  0  0  0  0
  -22.3820  -14.6320   20.6370 O   0  0  0  0  0  0  0  0  0  0  0  0
  -22.6720  -12.0910   22.4580 H   0  0  0  0  0  0  0  0  0  0  0  0
  -21.3330  -13.1970   22.3580 H   0  0  0  0  0  0  0  0  0  0  0  0
  -25.4220  -15.3340   20.1220 N   0  0  0  0  0  0  0  0  0  0  0  0
  -24.6590  -15.9770   20.3040 H   0  0  0  0  0  0  0  0  0  0  0  0
  -26.2370  -15.7890   19.7290 H   0  0  0  0  0  0  0  0  0  0  0  0
  2  3  1  0
  2  1  1  0
  4  3  1  0
  5  6  1  0
  5  4  1  0
  6  8  1  0
  7 18  2  0
  8 13  1  0
  9 17  1  0
  9 19  1  0
 10 16  1  0
 10 12  1  0
 11 17  1  0
 12 11  1  0
 13 12  2  0
 14 15  1  0
 14  8  2  0
 15 10  2  0
 16  9  1  0
 17  7  1  0
 19 21  2  0
 20 19  1  0
 22 20  1  0
 23 32  2  0
 23 28  1  0
 24 20  1  0
 24 28  1  0
 25 24  1  0
 26 27  1  0
 26 25  1  0
 27 23  1  0
 28 29  2  0
 29 30  1  0
 31 30  2  0
 32 31  1  0
 33  7  1  0
 33 34  1  0
 33 43  1  0
 34 37  1  0
 35 39  1  0
 35 34  1  0
 36 35  2  0
 39 38  1  0
 41 39  1  0
 41 42  1  0
 41 40  1  0
 43 46  1  1
 43 44  1  0
 45 43  1  0
 47  1  1  0
 47 54  1  0
 48 54  1  0
 48 51  1  0
 49 50  1  0
 51 56  1  0
 51 49  1  0
 52 53  1  0
 52 50  1  0
 54 52  1  0
 55 48  2  0
 57 62  1  0
 58 59  1  0
 58 57  1  0
 60 59  1  0
 60 67  1  0
 60 61  1  0
 62 56  1  0
 62 61  1  0
 63 56  2  0
 64 65  2  0
 65 84  1  0
 66 65  1  0
 66 69  1  0
 67 68  1  0
 67 64  1  0
 68 66  2  0
 69 70  1  0
 70 71  2  0
 72 75  1  0
 72 71  1  0
 73 72  2  0
 74 73  1  0
 74 69  2  0
 75 76  1  0
 76 77  1  0
 77 78  2  0
 79 78  1  0
 79 83  1  0
 80 79  2  0
 81 76  2  0
 81 80  1  0
 82 81  1  0
 84 85  1  0
 85 88  1  0
 85 87  1  0
 86 84  2  0
 89 64  1  0
 89 90  1  0
 91 89  1  0
M  ISO  4   5 101   6 101  51 100  56 100
M  END
>  <TORSDO>  (29) 
F 22

>  <SCORE>  (29) 
-10.590

>  <name>  (29) 
28

>  <ligand_id>  (29) 
28

>  <original_smiles>  (29) 
[H]c1c([H])c([H])c2c(c1[H])C([H])([H])C([H])([H])C([H])([H])C2([H])N([H])C(=O)C1([H])N(C(=O)C([H])(N([H])C(=O)C([H])(N([H])C([H])([H])[H])C([H])([H])[H])C(C([H])([H])[H])(C([H])([H])[H])C([H])([H])[H])C([H])([H])c2c([H])c(OC([H])([H])C([H])([H])C([H])([H])C([H])([H])C([H])([H])C([H])([H])N3C(=O)C([H])(C(=O)N4C([H])([H])C([H])([H])C([H])([H])C([H])(n5nc(-c6c([H])c([H])c(Oc7c([H])c([H])c(F)c([H])c7F)c([H])c6[H])c(C(=O)N([H])[H])c5N([H])[H])C4([H])[H])C([H])([H])C([H])([H])C3([H])C([H])([H])[H])c([H])c([H])c2C1([H])[H]

>  <smiles>  (29) 
[H]c1c([H])c([H])c2c(c1[H])C([H])([H])C([H])([H])C([H])([H])C2([H])N([H])C(=O)C1([H])N(C(=O)C([H])(N([H])C(=O)C([H])(N([H])C([H])([H])[H])C([H])([H])[H])C(C([H])([H])[H])(C([H])([H])[H])C([H])([H])[H])C([H])([H])c2c([H])c(OC([H])([H])C([H])([H])C([H])([H])C([H])([H])C([H])([H])C([H])([H])N3C(=O)C([H])(C(=O)N4C([H])([H])C([H])([H])C([H])([H])C([H])(n5nc(-c6c([H])c([H])c(Oc7c([H])c([H])c(F)c([H])c7F)c([H])c6[H])c(C(=O)N([H])[H])c5N([H])[H])C4([H])[H])C([H])([H])C([H])([H])C3([H])C([H])([H])[H])c([H])c([H])c2C1([H])[H]

$$$$
29:0:0
     RDKit          3D

 94102  0  0  1  0  0  0  0  0999 V2000
  -28.9770  -21.1680   19.8820 C   0  0  0  0  0  3  0  0  0  0  0  0
  -29.9420  -19.9600   19.4660 C   0  0  0  0  0  0  0  0  0  0  0  0
  -29.8180  -18.6930   19.9930 N   0  0  0  0  0  0  0  0  0  0  0  0
  -30.8100  -20.1790   18.6200 O   0  0  0  0  0  0  0  0  0  0  0  0
  -29.1180  -18.5890   20.7170 H   0  0  0  0  0  0  0  0  0  0  0  0
  -30.6140  -17.4510   19.6450 C   0  0  0  0  0  3  0  0  0  0  0  0
  -30.3810  -16.1130   20.5000 C   0  0  0  0  0  3  0  0  0  0  0  0
  -31.1230  -14.7770   20.0510 C   0  0  0  0  0  0  0  0  0  0  0  0
  -30.8020  -12.5630   18.9570 C   0  0  0  0  0  2  0  0  0  0  0  0
  -29.8060  -12.7430   17.7890 C   0  0  0  0  0  2  0  0  0  0  0  0
  -28.3510  -12.6040   18.2810 C   0  0  0  0  0  2  0  0  0  0  0  0
  -28.0720  -13.4410   19.5570 C   0  0  0  0  0  3  0  0  0  0  0  0
  -29.1830  -13.2560   20.6160 C   0  0  0  0  0  2  0  0  0  0  0  0
  -30.4690  -13.5720   19.9850 N   0  0  0  0  0  0  0  0  0  0  0  0
  -32.2770  -14.8730   19.6230 O   0  0  0  0  0  0  0  0  0  0  0  0
  -25.7590  -14.0740   20.4770 C   0  0  0  0  0  0  0  0  0  0  0  0
  -24.6810  -13.3180   20.8450 C   0  0  0  0  0  0  0  0  0  0  0  0
  -25.0790  -11.9560   20.6760 C   0  0  0  0  0  0  0  0  0  0  0  0
  -26.7460  -13.1760   20.1060 N   0  0  0  0  0  0  0  0  0  0  0  0
  -26.3460  -11.8930   20.2890 N   0  0  0  0  0  0  0  0  0  0  0  0
  -24.3060  -10.7130   20.8020 C   0  0  0  0  0  0  0  0  0  0  0  0
  -24.7070   -9.6810   21.6780 C   0  0  0  0  0  3  0  0  0  0  0  0
  -23.9380   -8.5060   21.8010 C   0  0  0  0  0  3  0  0  0  0  0  0
  -22.7500   -8.3540   21.0460 C   0  0  0  0  0  0  0  0  0  0  0  0
  -22.3670   -9.3740   20.1590 C   0  0  0  0  0  3  0  0  0  0  0  0
  -23.1360  -10.5430   20.0340 C   0  0  0  0  0  3  0  0  0  0  0  0
  -21.9560   -7.2330   21.0780 O   0  0  0  0  0  0  0  0  0  0  0  0
  -21.8310   -6.4720   22.2110 C   0  0  0  0  0  0  0  0  0  0  0  0
  -21.4040   -7.0250   23.4390 C   0  0  0  0  0  3  0  0  0  0  0  0
  -21.2250   -6.1930   24.5620 C   0  0  0  0  0  3  0  0  0  0  0  0
  -21.4560   -4.8080   24.4570 C   0  0  0  0  0  0  0  0  0  0  0  0
  -21.8730   -4.2540   23.2330 C   0  0  0  0  0  3  0  0  0  0  0  0
  -22.0560   -5.0840   22.1130 C   0  0  0  0  0  0  0  0  0  0  0  0
  -22.4370   -4.5420   20.9300 F   0  0  0  0  0  0  0  0  0  0  0  0
  -21.2760   -4.0050   25.5320 F   0  0  0  0  0  0  0  0  0  0  0  0
  -23.3240  -13.8300   21.2340 C   0  0  0  0  0  0  0  0  0  0  0  0
  -22.6260  -13.1120   22.1060 N   0  0  0  0  0  0  0  0  0  0  0  0
  -22.8950  -14.8980   20.8000 O   0  0  0  0  0  0  0  0  0  0  0  0
  -22.9920  -12.2480   22.4810 H   0  0  0  0  0  0  0  0  0  0  0  0
  -21.7130  -13.4270   22.3990 H   0  0  0  0  0  0  0  0  0  0  0  0
  -25.9790  -15.4460   20.4020 N   0  0  0  0  0  0  0  0  0  0  0  0
  -25.2380  -16.1140   20.5860 H   0  0  0  0  0  0  0  0  0  0  0  0
  -26.8260  -15.8740   20.0580 H   0  0  0  0  0  0  0  0  0  0  0  0
  -28.5940  -21.1800   21.3910 C   0  0  0  0  0  2  0  0  0  0  0  0
  -31.9820  -21.0920   24.0950 C   0  0  0  0  0  3  0  0  0  0  0  0
  -31.1280  -19.9790   23.9960 C   0  0  0  0  0  3  0  0  0  0  0  0
  -31.7190  -22.2520   23.3390 C   0  0  0  0  0  3  0  0  0  0  0  0
  -30.0130  -20.0210   23.1420 C   0  0  0  0  0  3  0  0  0  0  0  0
  -30.6000  -22.3010   22.4860 C   0  0  0  0  0  3  0  0  0  0  0  0
  -29.7550  -21.1780   22.3740 C   0  0  0  0  0  0  0  0  0  0  0  0
  -29.3250  -22.6280   19.2900 C   0  0  0  0  0  3  0  0  0  0  0  0
  -28.4570  -23.9290   19.6660 C   0  0  0  0  0  3  0  0  0  0  0  0
  -28.5310  -25.2080   18.7150 C   0  0  0  0  0  2  0  0  0  0  0  0
  -28.4450  -26.5880   19.2270 O   0  0  0  0  0  0  0  0  0  0  0  0
  -24.7730  -31.5750   22.8550 C   0  0  0  0  0  0  0  0  0  0  0  0
  -27.2710  -27.3480   19.2800 C   0  0  0  0  0  0  0  0  0  0  0  0
  -23.4920  -30.2880   21.1770 C   0  0  0  0  0  3  0  0  0  0  0  0
  -24.8730  -28.8840   19.5420 C   0  0  0  0  0  0  0  0  0  0  0  0
  -26.0040  -30.6780   20.8680 C   0  0  0  0  0  2  0  0  0  0  0  0
  -26.0630  -29.3590   20.1070 C   0  0  0  0  0  0  0  0  0  0  0  0
  -27.2580  -28.5990   19.9690 C   0  0  0  0  0  3  0  0  0  0  0  0
  -26.0560  -26.9080   18.7120 C   0  0  0  0  0  3  0  0  0  0  0  0
  -24.8690  -27.6660   18.8370 C   0  0  0  0  0  3  0  0  0  0  0  0
  -23.6270  -29.7260   19.7350 C   0  0  0  0  0  2  0  0  0  0  0  0
  -24.7770  -30.8630   21.6900 N   0  0  0  0  0  0  0  0  0  0  0  0
  -23.7190  -31.7910   23.4710 O   0  0  0  0  0  0  0  0  0  0  0  0
  -22.9060  -29.1870   22.0920 C   0  0  0  0  0  0  0  0  0  0  0  0
  -21.5820  -28.9830   22.0100 N   0  0  0  0  0  0  0  0  0  0  0  0
  -23.6370  -28.5240   22.8300 O   0  0  0  0  0  0  0  0  0  0  0  0
  -21.0530  -29.5760   21.3860 H   0  0  0  0  0  0  0  0  0  0  0  0
  -18.2620  -27.6350   22.5250 C   0  0  0  0  0  0  0  0  0  0  0  0
  -20.8180  -27.9690   22.7400 C   0  0  0  0  0  3  0  0  0  0  0  0
  -20.9510  -26.5830   22.0680 C   0  0  0  0  0  2  0  0  0  0  0  0
  -19.8290  -26.2840   21.0700 C   0  0  0  0  0  2  0  0  0  0  0  0
  -18.4630  -26.3370   21.7610 C   0  0  0  0  0  2  0  0  0  0  0  0
  -19.3670  -28.4080   22.9700 C   0  0  0  0  0  0  0  0  0  0  0  0
  -19.1220  -29.6220   23.6450 C   0  0  0  0  0  3  0  0  0  0  0  0
  -17.8060  -30.0630   23.8810 C   0  0  0  0  0  3  0  0  0  0  0  0
  -16.7160  -29.2860   23.4510 C   0  0  0  0  0  3  0  0  0  0  0  0
  -16.9450  -28.0720   22.7780 C   0  0  0  0  0  3  0  0  0  0  0  0
  -26.0820  -32.1720   23.4570 C   0  0  0  0  0  3  0  0  0  0  0  0
  -25.7570  -33.5020   23.9900 N   0  0  0  0  0  0  0  0  0  0  0  0
  -26.0140  -34.6590   23.3650 C   0  0  0  0  0  0  0  0  0  0  0  0
  -26.6210  -34.7180   22.2920 O   0  0  0  0  0  0  0  0  0  0  0  0
  -25.2090  -33.5290   24.8380 H   0  0  0  0  0  0  0  0  0  0  0  0
  -24.2250  -36.4270   23.3550 C   0  0  0  0  0  1  0  0  0  0  0  0
  -25.5210  -35.9560   24.0350 C   0  0  0  0  0  3  0  0  0  0  0  0
  -27.6800  -36.7860   24.8590 C   0  0  0  0  0  1  0  0  0  0  0  0
  -26.5190  -37.0470   24.0100 N   0  0  0  0  0  0  0  0  0  0  0  0
  -26.1030  -37.9260   24.3040 H   0  0  0  0  0  0  0  0  0  0  0  0
  -26.7230  -31.2660   24.5770 C   0  0  1  0  0  0  0  0  0  0  0  0
  -25.7300  -30.8550   25.6890 C   0  0  0  0  0  1  0  0  0  0  0  0
  -27.3070  -29.9720   23.9620 C   0  0  0  0  0  1  0  0  0  0  0  0
  -27.9050  -32.0130   25.2400 C   0  0  0  0  0  1  0  0  0  0  0  0
  1 51  1  0
  1 44  1  0
  2  1  1  0
  2  3  1  0
  3  5  1  0
  4  2  2  0
  6  3  1  0
  6  7  2  0
  8  7  1  0
  9 14  1  0
 10 11  1  0
 10  9  1  0
 12 11  1  0
 12 19  1  0
 12 13  1  0
 14  8  1  0
 14 13  1  0
 15  8  2  0
 16 17  2  0
 17 36  1  0
 18 21  1  0
 18 17  1  0
 19 20  1  0
 19 16  1  0
 20 18  2  0
 21 22  1  0
 22 23  2  0
 24 27  1  0
 24 23  1  0
 25 24  2  0
 26 25  1  0
 26 21  2  0
 27 28  1  0
 28 29  1  0
 29 30  2  0
 31 30  1  0
 31 35  1  0
 32 31  2  0
 33 28  2  0
 33 32  1  0
 34 33  1  0
 36 37  1  0
 37 40  1  0
 37 39  1  0
 38 36  2  0
 41 16  1  0
 41 42  1  0
 43 41  1  0
 44 50  1  0
 46 45  1  0
 47 45  2  0
 48 46  2  0
 49 47  1  0
 50 49  2  0
 50 48  1  0
 51 52  2  0
 53 54  1  0
 53 52  1  0
 54 56  1  0
 55 66  2  0
 56 61  1  0
 57 65  1  0
 57 67  1  0
 58 64  1  0
 58 60  1  0
 59 65  1  0
 60 59  1  0
 61 60  2  0
 62 63  1  0
 62 56  2  0
 63 58  2  0
 64 57  1  0
 65 55  1  0
 67 69  2  0
 68 67  1  0
 70 68  1  0
 71 80  2  0
 71 76  1  0
 72 68  1  0
 72 76  1  0
 73 72  1  0
 74 75  1  0
 74 73  1  0
 75 71  1  0
 76 77  2  0
 77 78  1  0
 79 78  2  0
 80 79  1  0
 81 55  1  0
 81 82  1  0
 81 91  1  0
 82 85  1  0
 83 82  1  0
 83 87  1  0
 84 83  2  0
 87 86  1  0
 89 87  1  0
 89 90  1  0
 89 88  1  0
 91 94  1  1
 91 92  1  0
 93 91  1  0
M  ISO  4   7 100   8 100  53 101  54 101
M  END
>  <TORSDO>  (30) 
F 24

>  <SCORE>  (30) 
-9.722

>  <name>  (30) 
29

>  <ligand_id>  (30) 
29

>  <original_smiles>  (30) 
[H]c1c([H])c([H])c(C([H])([H])C([H])(C(=O)N([H])C([H])([H])C([H])([H])C(=O)N2C([H])([H])C([H])([H])C([H])([H])C([H])(n3nc(-c4c([H])c([H])c(Oc5c([H])c([H])c(F)c([H])c5F)c([H])c4[H])c(C(=O)N([H])[H])c3N([H])[H])C2([H])[H])C([H])([H])C([H])([H])C([H])([H])Oc2c([H])c([H])c3c(c2[H])C([H])([H])N(C(=O)C([H])(N([H])C(=O)C([H])(N([H])C([H])([H])[H])C([H])([H])[H])C(C([H])([H])[H])(C([H])([H])[H])C([H])([H])[H])C([H])(C(=O)N([H])C2([H])c4c([H])c([H])c([H])c([H])c4C([H])([H])C([H])([H])C2([H])[H])C3([H])[H])c([H])c1[H]

>  <smiles>  (30) 
[H]c1c([H])c([H])c(C([H])([H])C([H])(C(=O)N([H])C([H])([H])C([H])([H])C(=O)N2C([H])([H])C([H])([H])C([H])([H])C([H])(n3nc(-c4c([H])c([H])c(Oc5c([H])c([H])c(F)c([H])c5F)c([H])c4[H])c(C(=O)N([H])[H])c3N([H])[H])C2([H])[H])C([H])([H])C([H])([H])C([H])([H])Oc2c([H])c([H])c3c(c2[H])C([H])([H])N(C(=O)C([H])(N([H])C(=O)C([H])(N([H])C([H])([H])[H])C([H])([H])[H])C(C([H])([H])[H])(C([H])([H])[H])C([H])([H])[H])C([H])(C(=O)N([H])C2([H])c4c([H])c([H])c([H])c([H])c4C([H])([H])C([H])([H])C2([H])[H])C3([H])[H])c([H])c1[H]

$$$$
30:0:0
     RDKit          3D

 92100  0  0  1  0  0  0  0  0999 V2000
  -29.8310  -21.3820   20.5100 N   0  0  0  0  0  4  0  0  0  0  0  0
  -30.7810  -21.6860   20.3630 H   0  0  0  0  0  0  0  0  0  0  0  0
  -29.7230  -21.2490   21.5020 H   0  0  0  0  0  0  0  0  0  0  0  0
  -28.5310  -17.8070   19.8570 C   0  0  0  0  0  2  0  0  0  0  0  0
  -30.6430  -18.8400   20.2140 C   0  0  0  0  0  2  0  0  0  0  0  0
  -28.3010  -19.3540   19.9170 C   0  0  0  0  0  3  0  0  0  0  0  0
  -29.6840  -20.0330   19.8000 C   0  0  0  0  0  3  0  0  0  0  0  0
  -30.0440  -17.4510   19.7200 C   0  0  2  0  0  0  0  0  0  0  0  0
  -27.2880  -19.8210   18.8540 C   0  0  0  0  0  1  0  0  0  0  0  0
  -29.9680  -18.0360   17.0820 C   0  0  0  0  0  1  0  0  0  0  0  0
  -30.4430  -17.1440   18.2390 C   0  0  0  0  0  2  0  0  0  0  0  0
  -30.4020  -16.1290   20.6050 C   0  0  0  0  0  2  0  0  0  0  0  0
  -30.9530  -14.7650   19.9770 C   0  0  0  0  0  0  0  0  0  0  0  0
  -30.5910  -12.4920   18.9970 C   0  0  0  0  0  2  0  0  0  0  0  0
  -29.6180  -12.6210   17.8040 C   0  0  0  0  0  2  0  0  0  0  0  0
  -28.1580  -12.5130   18.2840 C   0  0  0  0  0  2  0  0  0  0  0  0
  -27.8700  -13.3940   19.5290 C   0  0  0  0  0  3  0  0  0  0  0  0
  -28.9760  -13.2880   20.6050 C   0  0  0  0  0  2  0  0  0  0  0  0
  -30.2660  -13.5710   19.9610 N   0  0  0  0  0  0  0  0  0  0  0  0
  -32.0600  -14.8290   19.4350 O   0  0  0  0  0  0  0  0  0  0  0  0
  -25.5530  -14.0550   20.3990 C   0  0  0  0  0  0  0  0  0  0  0  0
  -24.4770  -13.3140   20.8010 C   0  0  0  0  0  0  0  0  0  0  0  0
  -24.8780  -11.9470   20.6950 C   0  0  0  0  0  0  0  0  0  0  0  0
  -26.5430  -13.1430   20.0770 N   0  0  0  0  0  0  0  0  0  0  0  0
  -26.1450  -11.8670   20.3120 N   0  0  0  0  0  0  0  0  0  0  0  0
  -24.1080  -10.7120   20.8870 C   0  0  0  0  0  0  0  0  0  0  0  0
  -24.5290   -9.7130   21.7920 C   0  0  0  0  0  3  0  0  0  0  0  0
  -23.7610   -8.5420   21.9740 C   0  0  0  0  0  3  0  0  0  0  0  0
  -22.5600   -8.3600   21.2470 C   0  0  0  0  0  0  0  0  0  0  0  0
  -22.1580   -9.3470   20.3290 C   0  0  0  0  0  3  0  0  0  0  0  0
  -22.9250  -10.5110   20.1480 C   0  0  0  0  0  3  0  0  0  0  0  0
  -21.7630   -7.2450   21.3380 O   0  0  0  0  0  0  0  0  0  0  0  0
  -21.6880   -6.5060   22.4890 C   0  0  0  0  0  0  0  0  0  0  0  0
  -21.2390   -7.0700   23.7040 C   0  0  0  0  0  3  0  0  0  0  0  0
  -21.1100   -6.2620   24.8510 C   0  0  0  0  0  3  0  0  0  0  0  0
  -21.4190   -4.8900   24.7830 C   0  0  0  0  0  0  0  0  0  0  0  0
  -21.8620   -4.3250   23.5740 C   0  0  0  0  0  3  0  0  0  0  0  0
  -21.9930   -5.1320   22.4310 C   0  0  0  0  0  0  0  0  0  0  0  0
  -22.4000   -4.5810   21.2640 F   0  0  0  0  0  0  0  0  0  0  0  0
  -21.2850   -4.1120   25.8810 F   0  0  0  0  0  0  0  0  0  0  0  0
  -23.1240  -13.8410   21.1730 C   0  0  0  0  0  0  0  0  0  0  0  0
  -22.4330  -13.1540   22.0740 N   0  0  0  0  0  0  0  0  0  0  0  0
  -22.6930  -14.8930   20.7030 O   0  0  0  0  0  0  0  0  0  0  0  0
  -22.8030  -12.3030   22.4710 H   0  0  0  0  0  0  0  0  0  0  0  0
  -21.5240  -13.4810   22.3700 H   0  0  0  0  0  0  0  0  0  0  0  0
  -25.7550  -15.4220   20.2560 N   0  0  0  0  0  0  0  0  0  0  0  0
  -25.0030  -16.0880   20.4020 H   0  0  0  0  0  0  0  0  0  0  0  0
  -26.5750  -15.8320   19.8320 H   0  0  0  0  0  0  0  0  0  0  0  0
  -28.9360  -22.5350   20.0630 C   0  0  0  0  0  2  0  0  0  0  0  0
  -29.2660  -24.0280   20.5280 C   0  0  0  0  0  2  0  0  0  0  0  0
  -28.2330  -25.1320   20.0260 C   0  0  0  0  0  2  0  0  0  0  0  0
  -28.4230  -26.5800   20.2890 O   0  0  0  0  0  0  0  0  0  0  0  0
  -24.5830  -31.9430   23.2180 C   0  0  0  0  0  0  0  0  0  0  0  0
  -27.2900  -27.4120   20.2060 C   0  0  0  0  0  0  0  0  0  0  0  0
  -23.4090  -30.5120   21.5850 C   0  0  0  0  0  3  0  0  0  0  0  0
  -24.8940  -28.9830   20.1730 C   0  0  0  0  0  0  0  0  0  0  0  0
  -25.9420  -30.8770   21.4100 C   0  0  0  0  0  2  0  0  0  0  0  0
  -26.0500  -29.4950   20.7720 C   0  0  0  0  0  0  0  0  0  0  0  0
  -27.2500  -28.7210   20.7800 C   0  0  0  0  0  3  0  0  0  0  0  0
  -26.1070  -26.9600   19.5740 C   0  0  0  0  0  3  0  0  0  0  0  0
  -24.9220  -27.7170   19.5690 C   0  0  0  0  0  3  0  0  0  0  0  0
  -23.6380  -29.8290   20.2120 C   0  0  0  0  0  2  0  0  0  0  0  0
  -24.6630  -31.1260   22.1280 N   0  0  0  0  0  0  0  0  0  0  0  0
  -23.4920  -32.2070   23.7460 O   0  0  0  0  0  0  0  0  0  0  0  0
  -22.7610  -29.4890   22.5480 C   0  0  0  0  0  0  0  0  0  0  0  0
  -21.4420  -29.2820   22.4100 N   0  0  0  0  0  0  0  0  0  0  0  0
  -23.4460  -28.8860   23.3800 O   0  0  0  0  0  0  0  0  0  0  0  0
  -20.9470  -29.8200   21.7110 H   0  0  0  0  0  0  0  0  0  0  0  0
  -18.0840  -28.0370   22.9070 C   0  0  0  0  0  0  0  0  0  0  0  0
  -20.6370  -28.3370   23.1840 C   0  0  0  0  0  3  0  0  0  0  0  0
  -20.7620  -26.9040   22.6180 C   0  0  0  0  0  2  0  0  0  0  0  0
  -19.6690  -26.5580   21.6000 C   0  0  0  0  0  2  0  0  0  0  0  0
  -18.2830  -26.6860   22.2390 C   0  0  0  0  0  2  0  0  0  0  0  0
  -19.1900  -28.8190   23.3370 C   0  0  0  0  0  0  0  0  0  0  0  0
  -18.9520  -30.0810   23.9200 C   0  0  0  0  0  3  0  0  0  0  0  0
  -17.6400  -30.5650   24.0780 C   0  0  0  0  0  3  0  0  0  0  0  0
  -16.5470  -29.7810   23.6670 C   0  0  0  0  0  3  0  0  0  0  0  0
  -16.7700  -28.5190   23.0880 C   0  0  0  0  0  3  0  0  0  0  0  0
  -25.8510  -32.6010   23.8400 C   0  0  0  0  0  3  0  0  0  0  0  0
  -25.5230  -33.9990   24.1530 N   0  0  0  0  0  0  0  0  0  0  0  0
  -25.8560  -35.0500   23.3920 C   0  0  0  0  0  0  0  0  0  0  0  0
  -26.5460  -34.9460   22.3750 O   0  0  0  0  0  0  0  0  0  0  0  0
  -24.9130  -34.1520   24.9430 H   0  0  0  0  0  0  0  0  0  0  0  0
  -24.1240  -36.8260   22.9760 C   0  0  0  0  0  1  0  0  0  0  0  0
  -25.3430  -36.4380   23.8280 C   0  0  0  0  0  3  0  0  0  0  0  0
  -27.4360  -37.3510   24.7300 C   0  0  0  0  0  1  0  0  0  0  0  0
  -26.3710  -37.4980   23.7430 N   0  0  0  0  0  0  0  0  0  0  0  0
  -25.9520  -38.4170   23.8630 H   0  0  0  0  0  0  0  0  0  0  0  0
  -26.3700  -31.8510   25.1280 C   0  0  1  0  0  0  0  0  0  0  0  0
  -25.2680  -31.6010   26.1840 C   0  0  0  0  0  1  0  0  0  0  0  0
  -26.9860  -30.4820   24.7580 C   0  0  0  0  0  1  0  0  0  0  0  0
  -27.4950  -32.6730   25.8020 C   0  0  0  0  0  1  0  0  0  0  0  0
  1  3  1  0
  2  1  1  0
  4  6  1  0
  6  9  1  0
  7  6  1  0
  7  5  1  0
  7  1  1  0
  8 11  1  6
  8  4  1  0
  8  5  1  0
  8 12  1  0
 10 11  1  0
 13 12  1  0
 14 19  1  0
 15 16  1  0
 15 14  1  0
 17 16  1  0
 17 24  1  0
 17 18  1  0
 19 13  1  0
 19 18  1  0
 20 13  2  0
 21 22  2  0
 22 41  1  0
 23 22  1  0
 23 26  1  0
 24 25  1  0
 24 21  1  0
 25 23  2  0
 26 27  1  0
 27 28  2  0
 29 32  1  0
 29 28  1  0
 30 29  2  0
 31 30  1  0
 31 26  2  0
 32 33  1  0
 33 34  1  0
 34 35  2  0
 36 35  1  0
 36 40  1  0
 37 36  2  0
 38 33  2  0
 38 37  1  0
 39 38  1  0
 41 42  1  0
 42 45  1  0
 42 44  1  0
 43 41  2  0
 46 21  1  0
 46 47  1  0
 48 46  1  0
 49  1  1  0
 49 50  1  0
 51 52  1  0
 51 50  1  0
 53 64  2  0
 54 52  1  0
 54 59  1  0
 55 63  1  0
 55 65  1  0
 56 62  1  0
 56 58  1  0
 57 63  1  0
 58 59  2  0
 58 57  1  0
 60 54  2  0
 61 60  1  0
 61 56  2  0
 62 55  1  0
 63 53  1  0
 65 67  2  0
 66 65  1  0
 68 66  1  0
 69 78  2  0
 69 74  1  0
 70 66  1  0
 70 74  1  0
 71 70  1  0
 72 73  1  0
 72 71  1  0
 73 69  1  0
 74 75  2  0
 75 76  1  0
 77 76  2  0
 78 77  1  0
 79 53  1  0
 79 80  1  0
 79 89  1  0
 80 83  1  0
 81 85  1  0
 81 80  1  0
 82 81  2  0
 85 84  1  0
 87 85  1  0
 87 88  1  0
 87 86  1  0
 89 92  1  1
 89 90  1  0
 91 89  1  0
M  ISO  4  12 100  13 100  51 101  52 101
M  END
>  <TORSDO>  (31) 
F 22

>  <SCORE>  (31) 
-12.779

>  <name>  (31) 
30

>  <ligand_id>  (31) 
30

>  <original_smiles>  (31) 
[H]c1c([H])c([H])c2c(c1[H])C([H])([H])C([H])([H])C([H])([H])C2([H])N([H])C(=O)C1([H])N(C(=O)C([H])(N([H])C(=O)C([H])(N([H])C([H])([H])[H])C([H])([H])[H])C(C([H])([H])[H])(C([H])([H])[H])C([H])([H])[H])C([H])([H])c2c([H])c(OC([H])([H])C([H])([H])C([H])([H])[N+]([H])([H])C3([H])C([H])([H])C(C([H])([H])C(=O)N4C([H])([H])C([H])([H])C([H])([H])C([H])(n5nc(-c6c([H])c([H])c(Oc7c([H])c([H])c(F)c([H])c7F)c([H])c6[H])c(C(=O)N([H])[H])c5N([H])[H])C4([H])[H])(C([H])([H])C([H])([H])[H])C([H])([H])C3([H])C([H])([H])[H])c([H])c([H])c2C1([H])[H]

>  <smiles>  (31) 
[H]c1c([H])c([H])c2c(c1[H])C([H])([H])C([H])([H])C([H])([H])C2([H])N([H])C(=O)C1([H])N(C(=O)C([H])(N([H])C(=O)C([H])(N([H])C([H])([H])[H])C([H])([H])[H])C(C([H])([H])[H])(C([H])([H])[H])C([H])([H])[H])C([H])([H])c2c([H])c(OC([H])([H])C([H])([H])C([H])([H])[N+]([H])([H])C3([H])C([H])([H])C(C([H])([H])C(=O)N4C([H])([H])C([H])([H])C([H])([H])C([H])(n5nc(-c6c([H])c([H])c(Oc7c([H])c([H])c(F)c([H])c7F)c([H])c6[H])c(C(=O)N([H])[H])c5N([H])[H])C4([H])[H])(C([H])([H])C([H])([H])[H])C([H])([H])C3([H])C([H])([H])[H])c([H])c([H])c2C1([H])[H]

$$$$
31:0:0
     RDKit          3D

 94102  0  0  1  0  0  0  0  0999 V2000
  -29.6330  -20.5980   20.4380 N   0  0  0  0  0  4  0  0  0  0  0  0
  -29.5540  -20.4750   19.4410 H   0  0  0  0  0  0  0  0  0  0  0  0
  -28.8630  -20.1120   20.8670 H   0  0  0  0  0  0  0  0  0  0  0  0
  -29.5400  -22.0690   20.7380 C   0  0  0  0  0  2  0  0  0  0  0  0
  -28.6540  -22.9710   19.8230 C   0  0  0  0  0  2  0  0  0  0  0  0
  -28.6850  -24.4720   20.2730 C   0  0  0  0  0  2  0  0  0  0  0  0
  -28.2300  -25.5450   19.2430 C   0  0  0  0  0  2  0  0  0  0  0  0
  -28.1860  -26.8750   19.8270 O   0  0  0  0  0  0  0  0  0  0  0  0
  -24.6660  -32.0240   23.3570 C   0  0  0  0  0  0  0  0  0  0  0  0
  -27.0090  -27.6050   19.9420 C   0  0  0  0  0  0  0  0  0  0  0  0
  -23.3340  -30.7240   21.7280 C   0  0  0  0  0  3  0  0  0  0  0  0
  -24.6610  -29.1960   20.1780 C   0  0  0  0  0  0  0  0  0  0  0  0
  -25.8620  -31.0030   21.4220 C   0  0  0  0  0  2  0  0  0  0  0  0
  -25.8670  -29.6570   20.7160 C   0  0  0  0  0  0  0  0  0  0  0  0
  -27.0400  -28.8680   20.5930 C   0  0  0  0  0  3  0  0  0  0  0  0
  -25.7670  -27.1600   19.4320 C   0  0  0  0  0  3  0  0  0  0  0  0
  -24.6060  -27.9510   19.5370 C   0  0  0  0  0  3  0  0  0  0  0  0
  -23.4510  -30.0900   20.3170 C   0  0  0  0  0  2  0  0  0  0  0  0
  -24.6410  -31.2660   22.2240 N   0  0  0  0  0  0  0  0  0  0  0  0
  -23.6210  -32.3040   23.9640 O   0  0  0  0  0  0  0  0  0  0  0  0
  -22.7000  -29.6870   22.6820 C   0  0  0  0  0  0  0  0  0  0  0  0
  -21.3880  -29.4430   22.5190 N   0  0  0  0  0  0  0  0  0  0  0  0
  -23.3860  -29.1000   23.5220 O   0  0  0  0  0  0  0  0  0  0  0  0
  -20.8950  -29.9740   21.8150 H   0  0  0  0  0  0  0  0  0  0  0  0
  -18.0930  -27.9890   22.8300 C   0  0  0  0  0  0  0  0  0  0  0  0
  -20.5930  -28.4770   23.2750 C   0  0  0  0  0  3  0  0  0  0  0  0
  -20.8550  -27.0340   22.7850 C   0  0  0  0  0  2  0  0  0  0  0  0
  -19.8640  -26.5720   21.7100 C   0  0  0  0  0  2  0  0  0  0  0  0
  -18.4320  -26.6290   22.2430 C   0  0  0  0  0  2  0  0  0  0  0  0
  -19.1090  -28.8620   23.3020 C   0  0  0  0  0  0  0  0  0  0  0  0
  -18.7420  -30.1300   23.8010 C   0  0  0  0  0  3  0  0  0  0  0  0
  -17.3930  -30.5250   23.8420 C   0  0  0  0  0  3  0  0  0  0  0  0
  -16.3900  -29.6500   23.3890 C   0  0  0  0  0  3  0  0  0  0  0  0
  -16.7420  -28.3850   22.8890 C   0  0  0  0  0  3  0  0  0  0  0  0
  -25.9980  -32.5910   23.9370 C   0  0  0  0  0  3  0  0  0  0  0  0
  -25.7610  -33.9960   24.2960 N   0  0  0  0  0  0  0  0  0  0  0  0
  -26.1060  -35.0430   23.5360 C   0  0  0  0  0  0  0  0  0  0  0  0
  -26.7280  -34.9280   22.4770 O   0  0  0  0  0  0  0  0  0  0  0  0
  -25.2100  -34.1610   25.1240 H   0  0  0  0  0  0  0  0  0  0  0  0
  -24.4320  -36.9070   23.2830 C   0  0  0  0  0  1  0  0  0  0  0  0
  -25.6930  -36.4450   24.0310 C   0  0  0  0  0  3  0  0  0  0  0  0
  -27.8960  -37.2400   24.7730 C   0  0  0  0  0  1  0  0  0  0  0  0
  -26.7620  -37.4590   23.8800 N   0  0  0  0  0  0  0  0  0  0  0  0
  -26.3940  -38.3910   24.0530 H   0  0  0  0  0  0  0  0  0  0  0  0
  -26.5280  -31.7790   25.1820 C   0  0  1  0  0  0  0  0  0  0  0  0
  -25.4650  -31.5650   26.2830 C   0  0  0  0  0  1  0  0  0  0  0  0
  -27.0530  -30.3890   24.7530 C   0  0  0  0  0  1  0  0  0  0  0  0
  -27.7230  -32.5270   25.8200 C   0  0  0  0  0  1  0  0  0  0  0  0
  -30.9400  -19.9930   20.8740 C   0  0  0  0  0  3  0  0  0  0  0  0
  -33.2260  -17.5780   19.7110 C   0  0  0  0  0  2  0  0  0  0  0  0
  -32.6730  -18.1580   21.0250 C   0  0  0  0  0  2  0  0  0  0  0  0
  -32.0390  -17.5240   18.7580 C   0  0  0  0  0  2  0  0  0  0  0  0
  -31.1470  -18.4090   20.8360 C   0  0  0  0  0  3  0  0  0  0  0  0
  -30.8040  -17.3990   19.6700 C   0  0  1  0  0  0  0  0  0  0  0  0
  -29.4910  -17.7240   18.9310 C   0  0  0  0  0  1  0  0  0  0  0  0
  -30.7020  -15.9510   20.3390 C   0  0  0  0  0  2  0  0  0  0  0  0
  -31.3820  -14.6790   19.7360 C   0  0  0  0  0  0  0  0  0  0  0  0
  -31.0480  -12.3580   18.9310 C   0  0  0  0  0  2  0  0  0  0  0  0
  -30.0510  -12.3780   17.7520 C   0  0  0  0  0  2  0  0  0  0  0  0
  -28.5930  -12.3490   18.2590 C   0  0  0  0  0  2  0  0  0  0  0  0
  -28.3260  -13.3710   19.3970 C   0  0  0  0  0  3  0  0  0  0  0  0
  -29.4260  -13.2780   20.4790 C   0  0  0  0  0  2  0  0  0  0  0  0
  -30.7220  -13.4870   19.8130 N   0  0  0  0  0  0  0  0  0  0  0  0
  -32.4620  -14.7730   19.1480 O   0  0  0  0  0  0  0  0  0  0  0  0
  -26.0510  -14.1840   20.2830 C   0  0  0  0  0  0  0  0  0  0  0  0
  -24.9400  -13.5070   20.6990 C   0  0  0  0  0  0  0  0  0  0  0  0
  -25.2620  -12.1180   20.6010 C   0  0  0  0  0  0  0  0  0  0  0  0
  -26.9880  -13.2140   19.9570 N   0  0  0  0  0  0  0  0  0  0  0  0
  -26.5170  -11.9630   20.2050 N   0  0  0  0  0  0  0  0  0  0  0  0
  -24.4320  -10.9270   20.8030 C   0  0  0  0  0  0  0  0  0  0  0  0
  -24.7950   -9.9250   21.7300 C   0  0  0  0  0  3  0  0  0  0  0  0
  -23.9700   -8.7980   21.9220 C   0  0  0  0  0  3  0  0  0  0  0  0
  -22.7710   -8.6590   21.1820 C   0  0  0  0  0  0  0  0  0  0  0  0
  -22.4260   -9.6490   20.2440 C   0  0  0  0  0  3  0  0  0  0  0  0
  -23.2490  -10.7710   20.0510 C   0  0  0  0  0  3  0  0  0  0  0  0
  -21.9210   -7.5840   21.2830 O   0  0  0  0  0  0  0  0  0  0  0  0
  -21.7750   -6.8900   22.4550 C   0  0  0  0  0  0  0  0  0  0  0  0
  -21.3280   -7.5160   23.6400 C   0  0  0  0  0  3  0  0  0  0  0  0
  -21.1240   -6.7510   24.8060 C   0  0  0  0  0  3  0  0  0  0  0  0
  -21.3590   -5.3650   24.7890 C   0  0  0  0  0  0  0  0  0  0  0  0
  -21.7970   -4.7380   23.6090 C   0  0  0  0  0  3  0  0  0  0  0  0
  -22.0030   -5.5000   22.4460 C   0  0  0  0  0  0  0  0  0  0  0  0
  -22.4080   -4.8890   21.3060 F   0  0  0  0  0  0  0  0  0  0  0  0
  -21.1550   -4.6280   25.9070 F   0  0  0  0  0  0  0  0  0  0  0  0
  -23.6200  -14.1060   21.0890 C   0  0  0  0  0  0  0  0  0  0  0  0
  -22.8900  -13.4540   21.9830 N   0  0  0  0  0  0  0  0  0  0  0  0
  -23.2520  -15.1880   20.6300 O   0  0  0  0  0  0  0  0  0  0  0  0
  -23.2040  -12.5790   22.3790 H   0  0  0  0  0  0  0  0  0  0  0  0
  -22.0070  -13.8400   22.2910 H   0  0  0  0  0  0  0  0  0  0  0  0
  -26.3320  -15.5420   20.1400 N   0  0  0  0  0  0  0  0  0  0  0  0
  -25.6340  -16.2520   20.3230 H   0  0  0  0  0  0  0  0  0  0  0  0
  -27.1900  -15.9190   19.7610 H   0  0  0  0  0  0  0  0  0  0  0  0
  -32.3320  -21.6050   22.4760 C   0  0  0  0  0  1  0  0  0  0  0  0
  -31.3130  -20.4530   22.3290 C   0  0  0  0  0  2  0  0  0  0  0  0
  1  4  1  0
  1  3  1  0
  1 49  1  0
  2  1  1  0
  5  6  1  0
  5  4  1  0
  7  8  1  0
  7  6  1  0
  8 10  1  0
  9 20  2  0
 10 15  1  0
 11 19  1  0
 11 21  1  0
 12 18  1  0
 12 14  1  0
 13 19  1  0
 14 13  1  0
 15 14  2  0
 16 17  1  0
 16 10  2  0
 17 12  2  0
 18 11  1  0
 19  9  1  0
 21 23  2  0
 22 21  1  0
 24 22  1  0
 25 34  2  0
 25 30  1  0
 26 22  1  0
 26 30  1  0
 27 26  1  0
 28 29  1  0
 28 27  1  0
 29 25  1  0
 30 31  2  0
 31 32  1  0
 33 32  2  0
 34 33  1  0
 35  9  1  0
 35 36  1  0
 35 45  1  0
 36 39  1  0
 37 41  1  0
 37 36  1  0
 38 37  2  0
 41 40  1  0
 43 41  1  0
 43 44  1  0
 43 42  1  0
 45 48  1  1
 45 46  1  0
 47 45  1  0
 49 94  1  0
 50 51  1  0
 52 54  1  0
 52 50  1  0
 53 49  1  0
 53 51  1  0
 54 55  1  6
 54 56  1  0
 54 53  1  0
 57 63  1  0
 57 56  1  0
 58 63  1  0
 59 60  1  0
 59 58  1  0
 61 60  1  0
 61 68  1  0
 61 62  1  0
 63 62  1  0
 64 57  2  0
 65 66  2  0
 66 85  1  0
 67 66  1  0
 67 70  1  0
 68 69  1  0
 68 65  1  0
 69 67  2  0
 70 71  1  0
 71 72  2  0
 73 76  1  0
 73 72  1  0
 74 73  2  0
 75 74  1  0
 75 70  2  0
 76 77  1  0
 77 78  1  0
 78 79  2  0
 80 79  1  0
 80 84  1  0
 81 80  2  0
 82 77  2  0
 82 81  1  0
 83 82  1  0
 85 86  1  0
 86 89  1  0
 86 88  1  0
 87 85  2  0
 90 65  1  0
 90 91  1  0
 92 90  1  0
 94 93  1  0
M  ISO  4   7 101   8 101  56 100  57 100
M  END
>  <TORSDO>  (32) 
F 24

>  <SCORE>  (32) 
-11.383

>  <name>  (32) 
31

>  <ligand_id>  (32) 
31

>  <original_smiles>  (32) 
[H]c1c([H])c([H])c2c(c1[H])C([H])([H])C([H])([H])C([H])([H])C2([H])N([H])C(=O)C1([H])N(C(=O)C([H])(N([H])C(=O)C([H])(N([H])C([H])([H])[H])C([H])([H])[H])C(C([H])([H])[H])(C([H])([H])[H])C([H])([H])[H])C([H])([H])c2c([H])c(OC([H])([H])C([H])([H])C([H])([H])C([H])([H])[N+]([H])([H])C([H])(C([H])([H])C([H])([H])[H])C3([H])C([H])([H])C([H])([H])C([H])([H])C3(C([H])([H])[H])C([H])([H])C(=O)N3C([H])([H])C([H])([H])C([H])([H])C([H])(n4nc(-c5c([H])c([H])c(Oc6c([H])c([H])c(F)c([H])c6F)c([H])c5[H])c(C(=O)N([H])[H])c4N([H])[H])C3([H])[H])c([H])c([H])c2C1([H])[H]

>  <smiles>  (32) 
[H]c1c([H])c([H])c2c(c1[H])C([H])([H])C([H])([H])C([H])([H])C2([H])N([H])C(=O)C1([H])N(C(=O)C([H])(N([H])C(=O)C([H])(N([H])C([H])([H])[H])C([H])([H])[H])C(C([H])([H])[H])(C([H])([H])[H])C([H])([H])[H])C([H])([H])c2c([H])c(OC([H])([H])C([H])([H])C([H])([H])C([H])([H])[N+]([H])([H])C([H])(C([H])([H])C([H])([H])[H])C3([H])C([H])([H])C([H])([H])C([H])([H])C3(C([H])([H])[H])C([H])([H])C(=O)N3C([H])([H])C([H])([H])C([H])([H])C([H])(n4nc(-c5c([H])c([H])c(Oc6c([H])c([H])c(F)c([H])c6F)c([H])c5[H])c(C(=O)N([H])[H])c4N([H])[H])C3([H])[H])c([H])c([H])c2C1([H])[H]

$$$$
32:0:0
     RDKit          3D

 89 97  0  0  1  0  0  0  0  0999 V2000
  -26.8120  -19.5550   19.7810 C   0  0  0  0  0  2  0  0  0  0  0  0
  -27.4260  -20.0930   21.1000 C   0  0  0  0  0  2  0  0  0  0  0  0
  -27.8270  -18.6940   18.9940 C   0  0  0  0  0  2  0  0  0  0  0  0
  -28.8050  -20.7760   20.8970 C   0  0  0  0  0  2  0  0  0  0  0  0
  -29.2430  -19.3250   18.8410 C   0  0  0  0  0  3  0  0  0  0  0  0
  -29.1070  -20.7790   19.4530 N   0  0  2  0  0  4  0  0  0  0  0  0
  -28.1180  -20.7380   19.2460 H   0  0  0  0  0  0  0  0  0  0  0  0
  -30.3780  -18.1680   19.2950 C   0  0  0  0  0  3  0  0  0  0  0  0
  -30.0370  -16.5290   19.3900 C   0  0  0  0  0  3  0  0  0  0  0  0
  -31.0340  -15.2240   19.5380 C   0  0  0  0  0  0  0  0  0  0  0  0
  -30.9860  -12.7740   18.9520 C   0  0  0  0  0  2  0  0  0  0  0  0
  -29.9860  -12.5760   17.7830 C   0  0  0  0  0  2  0  0  0  0  0  0
  -28.5420  -12.4160   18.3020 C   0  0  0  0  0  2  0  0  0  0  0  0
  -28.1800  -13.4770   19.3700 C   0  0  0  0  0  3  0  0  0  0  0  0
  -29.2840  -13.6100   20.4380 C   0  0  0  0  0  2  0  0  0  0  0  0
  -30.5330  -13.9450   19.7410 N   0  0  0  0  0  0  0  0  0  0  0  0
  -32.2240  -15.3310   19.2220 O   0  0  0  0  0  0  0  0  0  0  0  0
  -25.9150  -14.1650   20.3460 C   0  0  0  0  0  0  0  0  0  0  0  0
  -24.8330  -13.4380   20.7640 C   0  0  0  0  0  0  0  0  0  0  0  0
  -25.1990  -12.0660   20.6130 C   0  0  0  0  0  0  0  0  0  0  0  0
  -26.8700  -13.2380   19.9630 N   0  0  0  0  0  0  0  0  0  0  0  0
  -26.4540  -11.9650   20.1900 N   0  0  0  0  0  0  0  0  0  0  0  0
  -24.4090  -10.8420   20.7920 C   0  0  0  0  0  0  0  0  0  0  0  0
  -24.7900   -9.8450   21.7140 C   0  0  0  0  0  3  0  0  0  0  0  0
  -24.0010   -8.6850   21.8810 C   0  0  0  0  0  3  0  0  0  0  0  0
  -22.8190   -8.5170   21.1200 C   0  0  0  0  0  0  0  0  0  0  0  0
  -22.4560   -9.5040   20.1870 C   0  0  0  0  0  3  0  0  0  0  0  0
  -23.2440  -10.6540   20.0200 C   0  0  0  0  0  3  0  0  0  0  0  0
  -22.0030   -7.4150   21.1960 O   0  0  0  0  0  0  0  0  0  0  0  0
  -21.8340   -6.7260   22.3690 C   0  0  0  0  0  0  0  0  0  0  0  0
  -21.3060   -7.3400   23.5260 C   0  0  0  0  0  3  0  0  0  0  0  0
  -21.0850   -6.5800   24.6900 C   0  0  0  0  0  3  0  0  0  0  0  0
  -21.3780   -5.2020   24.6980 C   0  0  0  0  0  0  0  0  0  0  0  0
  -21.9020   -4.5860   23.5470 C   0  0  0  0  0  3  0  0  0  0  0  0
  -22.1240   -5.3460   22.3850 C   0  0  0  0  0  0  0  0  0  0  0  0
  -22.6070   -4.7440   21.2720 F   0  0  0  0  0  0  0  0  0  0  0  0
  -21.1590   -4.4680   25.8130 F   0  0  0  0  0  0  0  0  0  0  0  0
  -23.5000  -13.9870   21.1800 C   0  0  0  0  0  0  0  0  0  0  0  0
  -22.8080  -13.2910   22.0760 N   0  0  0  0  0  0  0  0  0  0  0  0
  -23.0880  -15.0610   20.7490 O   0  0  0  0  0  0  0  0  0  0  0  0
  -23.1610  -12.4190   22.4400 H   0  0  0  0  0  0  0  0  0  0  0  0
  -21.9150  -13.6350   22.4000 H   0  0  0  0  0  0  0  0  0  0  0  0
  -26.1570  -15.5300   20.2390 N   0  0  0  0  0  0  0  0  0  0  0  0
  -25.4410  -16.2140   20.4550 H   0  0  0  0  0  0  0  0  0  0  0  0
  -26.9950  -15.9390   19.8510 H   0  0  0  0  0  0  0  0  0  0  0  0
  -29.1500  -22.1680   18.7060 C   0  0  0  0  0  3  0  0  0  0  0  0
  -28.6430  -23.6160   19.3960 C   0  0  0  0  0  3  0  0  0  0  0  0
  -28.3640  -25.0240   18.5510 C   0  0  0  0  0  2  0  0  0  0  0  0
  -28.3150  -26.4740   19.0790 O   0  0  0  0  0  0  0  0  0  0  0  0
  -24.6520  -31.5610   22.8450 C   0  0  0  0  0  0  0  0  0  0  0  0
  -27.1820  -27.3520   19.1450 C   0  0  0  0  0  0  0  0  0  0  0  0
  -23.3880  -30.3100   21.1360 C   0  0  0  0  0  3  0  0  0  0  0  0
  -24.7870  -28.9600   19.4540 C   0  0  0  0  0  0  0  0  0  0  0  0
  -25.9100  -30.7040   20.8370 C   0  0  0  0  0  2  0  0  0  0  0  0
  -25.9850  -29.3980   20.0320 C   0  0  0  0  0  0  0  0  0  0  0  0
  -27.1770  -28.6090   19.8630 C   0  0  0  0  0  3  0  0  0  0  0  0
  -25.9530  -27.0020   18.5450 C   0  0  0  0  0  3  0  0  0  0  0  0
  -24.7810  -27.7770   18.6970 C   0  0  0  0  0  3  0  0  0  0  0  0
  -23.5350  -29.7960   19.6780 C   0  0  0  0  0  2  0  0  0  0  0  0
  -24.6730  -30.8740   21.6610 N   0  0  0  0  0  0  0  0  0  0  0  0
  -23.5970  -31.7430   23.4690 O   0  0  0  0  0  0  0  0  0  0  0  0
  -22.8070  -29.1760   22.0190 C   0  0  0  0  0  0  0  0  0  0  0  0
  -21.4750  -28.9910   21.9790 N   0  0  0  0  0  0  0  0  0  0  0  0
  -23.5560  -28.4740   22.7040 O   0  0  0  0  0  0  0  0  0  0  0  0
  -20.9240  -29.6150   21.4060 H   0  0  0  0  0  0  0  0  0  0  0  0
  -18.1680  -27.6480   22.5800 C   0  0  0  0  0  0  0  0  0  0  0  0
  -20.7350  -27.9430   22.6860 C   0  0  0  0  0  3  0  0  0  0  0  0
  -20.8160  -26.5980   21.9250 C   0  0  0  0  0  2  0  0  0  0  0  0
  -19.6410  -26.3830   20.9650 C   0  0  0  0  0  2  0  0  0  0  0  0
  -18.3130  -26.3990   21.7270 C   0  0  0  0  0  2  0  0  0  0  0  0
  -19.3030  -28.3820   23.0150 C   0  0  0  0  0  0  0  0  0  0  0  0
  -19.1080  -29.5550   23.7740 C   0  0  0  0  0  3  0  0  0  0  0  0
  -17.8120  -30.0000   24.0960 C   0  0  0  0  0  3  0  0  0  0  0  0
  -16.6920  -29.2640   23.6730 C   0  0  0  0  0  3  0  0  0  0  0  0
  -16.8700  -28.0880   22.9210 C   0  0  0  0  0  3  0  0  0  0  0  0
  -25.9490  -32.1730   23.4570 C   0  0  0  0  0  3  0  0  0  0  0  0
  -25.6120  -33.5060   23.9810 N   0  0  0  0  0  0  0  0  0  0  0  0
  -25.8790  -34.6620   23.3580 C   0  0  0  0  0  0  0  0  0  0  0  0
  -26.5030  -34.7190   22.2950 O   0  0  0  0  0  0  0  0  0  0  0  0
  -25.0520  -33.5300   24.8200 H   0  0  0  0  0  0  0  0  0  0  0  0
  -24.0870  -36.4290   23.3280 C   0  0  0  0  0  1  0  0  0  0  0  0
  -25.3770  -35.9600   24.0200 C   0  0  0  0  0  3  0  0  0  0  0  0
  -27.5190  -36.8080   24.8690 C   0  0  0  0  0  1  0  0  0  0  0  0
  -26.3730  -37.0530   24.0010 N   0  0  0  0  0  0  0  0  0  0  0  0
  -25.9470  -37.9340   24.2780 H   0  0  0  0  0  0  0  0  0  0  0  0
  -26.5780  -31.2770   24.5940 C   0  0  1  0  0  0  0  0  0  0  0  0
  -25.5730  -30.8790   25.7010 C   0  0  0  0  0  1  0  0  0  0  0  0
  -27.1650  -29.9730   24.0040 C   0  0  0  0  0  1  0  0  0  0  0  0
  -27.7540  -32.0270   25.2630 C   0  0  0  0  0  1  0  0  0  0  0  0
  1  2  1  0
  3  1  1  0
  4  2  1  0
  5  3  1  0
  5  8  1  0
  5  6  1  0
  6  4  1  0
  6  7  1  6
  8  9  2  0
  9 10  1  0
 10 16  1  0
 11 16  1  0
 12 13  1  0
 12 11  1  0
 14 13  1  0
 14 21  1  0
 14 15  1  0
 16 15  1  0
 17 10  2  0
 18 19  2  0
 19 38  1  0
 20 19  1  0
 20 23  1  0
 21 22  1  0
 21 18  1  0
 22 20  2  0
 23 24  1  0
 24 25  2  0
 26 29  1  0
 26 25  1  0
 27 26  2  0
 28 27  1  0
 28 23  2  0
 29 30  1  0
 30 35  2  0
 30 31  1  0
 31 32  2  0
 32 33  1  0
 33 37  1  0
 34 33  2  0
 35 34  1  0
 36 35  1  0
 38 39  1  0
 39 42  1  0
 39 41  1  0
 40 38  2  0
 43 18  1  0
 43 44  1  0
 45 43  1  0
 46 47  2  0
 46  6  1  0
 48 49  1  0
 48 47  1  0
 49 51  1  0
 50 61  2  0
 51 56  1  0
 52 60  1  0
 52 62  1  0
 53 59  1  0
 53 55  1  0
 54 60  1  0
 55 54  1  0
 56 55  2  0
 57 58  1  0
 57 51  2  0
 58 53  2  0
 59 52  1  0
 60 50  1  0
 62 64  2  0
 63 62  1  0
 65 63  1  0
 66 75  2  0
 66 71  1  0
 67 63  1  0
 67 71  1  0
 68 67  1  0
 69 70  1  0
 69 68  1  0
 70 66  1  0
 71 72  2  0
 72 73  1  0
 74 73  2  0
 75 74  1  0
 76 50  1  0
 76 77  1  0
 76 86  1  0
 77 80  1  0
 78 77  1  0
 78 82  1  0
 79 78  2  0
 82 81  1  0
 84 82  1  0
 84 85  1  0
 84 83  1  0
 86 89  1  1
 86 87  1  0
 88 86  1  0
M  ISO  4   9 100  10 100  48 101  49 101
M  END
>  <TORSDO>  (33) 
F 21

>  <SCORE>  (33) 
-9.951

>  <name>  (33) 
32

>  <ligand_id>  (33) 
32

>  <original_smiles>  (33) 
[H]c1c([H])c([H])c2c(c1[H])C([H])([H])C([H])([H])C([H])([H])C2([H])N([H])C(=O)C1([H])N(C(=O)C([H])(N([H])C(=O)C([H])(N([H])C([H])([H])[H])C([H])([H])[H])C(C([H])([H])[H])(C([H])([H])[H])C([H])([H])[H])C([H])([H])c2c([H])c(OC([H])([H])C([H])([H])C([H])([H])[N+]3([H])C([H])([H])C([H])([H])C([H])([H])C([H])([H])C3([H])C([H])([H])C([H])([H])C(=O)N3C([H])([H])C([H])([H])C([H])([H])C([H])(n4nc(-c5c([H])c([H])c(Oc6c([H])c([H])c(F)c([H])c6F)c([H])c5[H])c(C(=O)N([H])[H])c4N([H])[H])C3([H])[H])c([H])c([H])c2C1([H])[H]

>  <smiles>  (33) 
[H]c1c([H])c([H])c2c(c1[H])C([H])([H])C([H])([H])C([H])([H])C2([H])N([H])C(=O)C1([H])N(C(=O)C([H])(N([H])C(=O)C([H])(N([H])C([H])([H])[H])C([H])([H])[H])C(C([H])([H])[H])(C([H])([H])[H])C([H])([H])[H])C([H])([H])c2c([H])c(OC([H])([H])C([H])([H])C([H])([H])[N+]3([H])C([H])([H])C([H])([H])C([H])([H])C([H])([H])C3([H])C([H])([H])C([H])([H])C(=O)N3C([H])([H])C([H])([H])C([H])([H])C([H])(n4nc(-c5c([H])c([H])c(Oc6c([H])c([H])c(F)c([H])c6F)c([H])c5[H])c(C(=O)N([H])[H])c4N([H])[H])C3([H])[H])c([H])c([H])c2C1([H])[H]

$$$$
33:0:0
     RDKit          3D

 89 96  0  0  1  0  0  0  0  0999 V2000
  -28.4490  -21.7280   20.3040 C   0  0  0  0  0  2  0  0  0  0  0  0
  -28.6550  -23.0790   21.0170 C   0  0  0  0  0  2  0  0  0  0  0  0
  -28.1850  -24.3020   20.2140 C   0  0  0  0  0  2  0  0  0  0  0  0
  -28.4310  -25.6080   20.9880 C   0  0  0  0  0  2  0  0  0  0  0  0
  -28.3950  -26.7480   20.1340 O   0  0  0  0  0  0  0  0  0  0  0  0
  -24.5780  -31.8780   23.2350 C   0  0  0  0  0  0  0  0  0  0  0  0
  -27.2210  -27.4530   20.1630 C   0  0  0  0  0  0  0  0  0  0  0  0
  -23.3700  -30.4760   21.5940 C   0  0  0  0  0  3  0  0  0  0  0  0
  -24.8240  -28.9360   20.1760 C   0  0  0  0  0  0  0  0  0  0  0  0
  -25.8950  -30.8400   21.3960 C   0  0  0  0  0  2  0  0  0  0  0  0
  -25.9800  -29.4690   20.7590 C   0  0  0  0  0  0  0  0  0  0  0  0
  -27.1850  -28.7350   20.7490 C   0  0  0  0  0  3  0  0  0  0  0  0
  -26.0520  -26.9220   19.5820 C   0  0  0  0  0  3  0  0  0  0  0  0
  -24.8510  -27.6570   19.5900 C   0  0  0  0  0  3  0  0  0  0  0  0
  -23.5800  -29.7950   20.2150 C   0  0  0  0  0  2  0  0  0  0  0  0
  -24.6320  -31.0780   22.1340 N   0  0  0  0  0  0  0  0  0  0  0  0
  -23.4970  -32.1530   23.7750 O   0  0  0  0  0  0  0  0  0  0  0  0
  -22.7180  -29.4540   22.5520 C   0  0  0  0  0  0  0  0  0  0  0  0
  -21.3930  -29.2780   22.4250 N   0  0  0  0  0  0  0  0  0  0  0  0
  -23.4000  -28.8220   23.3630 O   0  0  0  0  0  0  0  0  0  0  0  0
  -20.9040  -29.8400   21.7410 H   0  0  0  0  0  0  0  0  0  0  0  0
  -18.0120  -28.1070   22.9220 C   0  0  0  0  0  0  0  0  0  0  0  0
  -20.5710  -28.3450   23.1940 C   0  0  0  0  0  3  0  0  0  0  0  0
  -20.6640  -26.9140   22.6170 C   0  0  0  0  0  2  0  0  0  0  0  0
  -19.5610  -26.6010   21.6000 C   0  0  0  0  0  2  0  0  0  0  0  0
  -18.1790  -26.7580   22.2420 C   0  0  0  0  0  2  0  0  0  0  0  0
  -19.1370  -28.8590   23.3520 C   0  0  0  0  0  0  0  0  0  0  0  0
  -18.9290  -30.1240   23.9430 C   0  0  0  0  0  3  0  0  0  0  0  0
  -17.6300  -30.6400   24.1060 C   0  0  0  0  0  3  0  0  0  0  0  0
  -16.5190  -29.8840   23.6970 C   0  0  0  0  0  3  0  0  0  0  0  0
  -16.7100  -28.6180   23.1120 C   0  0  0  0  0  3  0  0  0  0  0  0
  -25.8670  -32.5060   23.8540 C   0  0  0  0  0  3  0  0  0  0  0  0
  -25.5650  -33.9050   24.1830 N   0  0  0  0  0  0  0  0  0  0  0  0
  -25.8980  -34.9540   23.4180 C   0  0  0  0  0  0  0  0  0  0  0  0
  -26.5690  -34.8440   22.3880 O   0  0  0  0  0  0  0  0  0  0  0  0
  -24.9780  -34.0630   24.9890 H   0  0  0  0  0  0  0  0  0  0  0  0
  -24.1760  -36.7480   23.0500 C   0  0  0  0  0  1  0  0  0  0  0  0
  -25.4120  -36.3450   23.8690 C   0  0  0  0  0  3  0  0  0  0  0  0
  -27.5480  -37.2240   24.7030 C   0  0  0  0  0  1  0  0  0  0  0  0
  -26.4460  -37.3950   23.7580 N   0  0  0  0  0  0  0  0  0  0  0  0
  -26.0420  -38.3160   23.9090 H   0  0  0  0  0  0  0  0  0  0  0  0
  -26.3880  -31.7320   25.1270 C   0  0  1  0  0  0  0  0  0  0  0  0
  -25.2970  -31.4980   26.1980 C   0  0  0  0  0  1  0  0  0  0  0  0
  -26.9650  -30.3520   24.7340 C   0  0  0  0  0  1  0  0  0  0  0  0
  -27.5470  -32.5180   25.7840 C   0  0  0  0  0  1  0  0  0  0  0  0
  -29.1090  -20.5730   21.1000 C   0  0  0  0  0  2  0  0  0  0  0  0
  -27.6850  -18.7880   20.1650 C   0  0  0  0  0  1  0  0  0  0  0  0
  -29.0810  -19.2240   20.4530 N   0  0  2  0  0  4  0  0  0  0  0  0
  -29.5400  -19.3360   19.5620 H   0  0  0  0  0  0  0  0  0  0  0  0
  -31.1380  -18.6580   21.8900 C   0  0  0  0  0  1  0  0  0  0  0  0
  -29.8370  -18.1580   21.2080 C   0  0  0  0  0  3  0  0  0  0  0  0
  -30.1770  -16.9250   20.3220 C   0  0  0  0  0  2  0  0  0  0  0  0
  -30.3620  -15.6110   21.1290 C   0  0  0  0  0  2  0  0  0  0  0  0
  -30.8630  -14.4430   20.2560 C   0  0  0  0  0  0  0  0  0  0  0  0
  -30.4640  -12.3420   19.0260 C   0  0  0  0  0  2  0  0  0  0  0  0
  -29.4920  -12.5960   17.8560 C   0  0  0  0  0  2  0  0  0  0  0  0
  -28.0270  -12.4920   18.3260 C   0  0  0  0  0  2  0  0  0  0  0  0
  -27.7530  -13.3000   19.6230 C   0  0  0  0  0  3  0  0  0  0  0  0
  -28.8300  -12.9960   20.6870 C   0  0  0  0  0  2  0  0  0  0  0  0
  -30.1430  -13.2980   20.0980 N   0  0  0  0  0  0  0  0  0  0  0  0
  -31.9310  -14.6260   19.6640 O   0  0  0  0  0  0  0  0  0  0  0  0
  -25.3750  -13.9560   20.3660 C   0  0  0  0  0  0  0  0  0  0  0  0
  -24.3000  -13.2030   20.7600 C   0  0  0  0  0  0  0  0  0  0  0  0
  -24.7390  -11.8440   20.7270 C   0  0  0  0  0  0  0  0  0  0  0  0
  -26.4030  -13.0540   20.1250 N   0  0  0  0  0  0  0  0  0  0  0  0
  -26.0210  -11.7800   20.3960 N   0  0  0  0  0  0  0  0  0  0  0  0
  -23.9940  -10.5950   20.9370 C   0  0  0  0  0  0  0  0  0  0  0  0
  -24.4260   -9.6280   21.8720 C   0  0  0  0  0  3  0  0  0  0  0  0
  -23.6850   -8.4420   22.0700 C   0  0  0  0  0  3  0  0  0  0  0  0
  -22.4990   -8.2160   21.3320 C   0  0  0  0  0  0  0  0  0  0  0  0
  -22.0860   -9.1720   20.3860 C   0  0  0  0  0  3  0  0  0  0  0  0
  -22.8280  -10.3480   20.1860 C   0  0  0  0  0  3  0  0  0  0  0  0
  -21.7280   -7.0840   21.4400 O   0  0  0  0  0  0  0  0  0  0  0  0
  -21.6730   -6.3580   22.6030 C   0  0  0  0  0  0  0  0  0  0  0  0
  -21.2710   -6.9400   23.8260 C   0  0  0  0  0  3  0  0  0  0  0  0
  -21.1620   -6.1420   24.9830 C   0  0  0  0  0  3  0  0  0  0  0  0
  -21.4440   -4.7640   24.9170 C   0  0  0  0  0  0  0  0  0  0  0  0
  -21.8390   -4.1830   23.6990 C   0  0  0  0  0  3  0  0  0  0  0  0
  -21.9490   -4.9780   22.5440 C   0  0  0  0  0  0  0  0  0  0  0  0
  -22.3090   -4.4070   21.3690 F   0  0  0  0  0  0  0  0  0  0  0  0
  -21.3310   -3.9960   26.0260 F   0  0  0  0  0  0  0  0  0  0  0  0
  -22.9170  -13.7050   21.0550 C   0  0  0  0  0  0  0  0  0  0  0  0
  -22.1980  -13.0280   21.9450 N   0  0  0  0  0  0  0  0  0  0  0  0
  -22.4830  -14.7310   20.5340 O   0  0  0  0  0  0  0  0  0  0  0  0
  -22.5660  -12.1990   22.3870 H   0  0  0  0  0  0  0  0  0  0  0  0
  -21.2700  -13.3440   22.1860 H   0  0  0  0  0  0  0  0  0  0  0  0
  -25.5610  -15.3200   20.1730 N   0  0  0  0  0  0  0  0  0  0  0  0
  -24.8010  -15.9860   20.2630 H   0  0  0  0  0  0  0  0  0  0  0  0
  -26.4010  -15.7220   19.7820 H   0  0  0  0  0  0  0  0  0  0  0  0
  1  2  1  0
  1 46  1  0
  3  4  1  0
  3  2  1  0
  5  7  1  0
  5  4  1  0
  6 17  2  0
  7 12  1  0
  8 16  1  0
  8 18  1  0
  9 15  1  0
  9 11  1  0
 10 16  1  0
 11 10  1  0
 12 11  2  0
 13 14  1  0
 13  7  2  0
 14  9  2  0
 15  8  1  0
 16  6  1  0
 18 20  2  0
 19 18  1  0
 21 19  1  0
 22 31  2  0
 22 27  1  0
 23 19  1  0
 23 27  1  0
 24 23  1  0
 25 26  1  0
 25 24  1  0
 26 22  1  0
 27 28  2  0
 28 29  1  0
 30 29  2  0
 31 30  1  0
 32  6  1  0
 32 33  1  0
 32 42  1  0
 33 36  1  0
 34 38  1  0
 34 33  1  0
 35 34  2  0
 38 37  1  0
 40 38  1  0
 40 41  1  0
 40 39  1  0
 42 45  1  1
 42 43  1  0
 44 42  1  0
 47 48  1  0
 48 46  1  0
 48 51  1  0
 48 49  1  6
 51 50  1  0
 52 53  1  0
 52 51  1  0
 54 53  1  0
 55 60  1  0
 56 57  1  0
 56 55  1  0
 58 57  1  0
 58 65  1  0
 58 59  1  0
 60 54  1  0
 60 59  1  0
 61 54  2  0
 62 63  2  0
 63 82  1  0
 64 63  1  0
 64 67  1  0
 65 62  1  0
 65 66  1  0
 66 64  2  0
 67 68  1  0
 68 69  2  0
 70 73  1  0
 70 69  1  0
 71 70  2  0
 72 71  1  0
 72 67  2  0
 73 74  1  0
 74 75  1  0
 75 76  2  0
 77 76  1  0
 77 81  1  0
 78 77  2  0
 79 74  2  0
 79 78  1  0
 80 79  1  0
 82 83  1  0
 83 86  1  0
 83 85  1  0
 84 82  2  0
 87 88  1  0
 87 62  1  0
 89 87  1  0
M  ISO  4   4 101   5 101  53 100  54 100
M  END
>  <TORSDO>  (34) 
F 24

>  <SCORE>  (34) 
-12.478

>  <name>  (34) 
33

>  <ligand_id>  (34) 
33

>  <original_smiles>  (34) 
[H]c1c([H])c([H])c2c(c1[H])C([H])([H])C([H])([H])C([H])([H])C2([H])N([H])C(=O)C1([H])N(C(=O)C([H])(N([H])C(=O)C([H])(N([H])C([H])([H])[H])C([H])([H])[H])C(C([H])([H])[H])(C([H])([H])[H])C([H])([H])[H])C([H])([H])c2c([H])c(OC([H])([H])C([H])([H])C([H])([H])C([H])([H])C([H])([H])[N+]([H])(C([H])([H])[H])C([H])(C([H])([H])[H])C([H])([H])C([H])([H])C(=O)N3C([H])([H])C([H])([H])C([H])([H])C([H])(n4nc(-c5c([H])c([H])c(Oc6c([H])c([H])c(F)c([H])c6F)c([H])c5[H])c(C(=O)N([H])[H])c4N([H])[H])C3([H])[H])c([H])c([H])c2C1([H])[H]

>  <smiles>  (34) 
[H]c1c([H])c([H])c2c(c1[H])C([H])([H])C([H])([H])C([H])([H])C2([H])N([H])C(=O)C1([H])N(C(=O)C([H])(N([H])C(=O)C([H])(N([H])C([H])([H])[H])C([H])([H])[H])C(C([H])([H])[H])(C([H])([H])[H])C([H])([H])[H])C([H])([H])c2c([H])c(OC([H])([H])C([H])([H])C([H])([H])C([H])([H])C([H])([H])[N+]([H])(C([H])([H])[H])C([H])(C([H])([H])[H])C([H])([H])C([H])([H])C(=O)N3C([H])([H])C([H])([H])C([H])([H])C([H])(n4nc(-c5c([H])c([H])c(Oc6c([H])c([H])c(F)c([H])c6F)c([H])c5[H])c(C(=O)N([H])[H])c4N([H])[H])C3([H])[H])c([H])c([H])c2C1([H])[H]

$$$$
34:0:0
     RDKit          3D

 93101  0  0  1  0  0  0  0  0999 V2000
  -28.5270  -22.2950   19.0100 C   0  0  0  0  0  2  0  0  0  0  0  0
  -27.7620  -23.6480   17.0570 C   0  0  0  0  0  1  0  0  0  0  0  0
  -27.9600  -23.5960   18.5290 N   0  0  2  0  0  4  0  0  0  0  0  0
  -27.0290  -23.6660   18.9180 H   0  0  0  0  0  0  0  0  0  0  0  0
  -28.7210  -24.7970   18.9930 C   0  0  0  0  0  2  0  0  0  0  0  0
  -28.3650  -25.2740   20.4150 C   0  0  0  0  0  2  0  0  0  0  0  0
  -28.4640  -26.7040   20.5170 O   0  0  0  0  0  0  0  0  0  0  0  0
  -24.5760  -31.9790   23.2620 C   0  0  0  0  0  0  0  0  0  0  0  0
  -27.2910  -27.4260   20.4230 C   0  0  0  0  0  0  0  0  0  0  0  0
  -23.4160  -30.5310   21.6280 C   0  0  0  0  0  3  0  0  0  0  0  0
  -24.9080  -28.9450   20.3000 C   0  0  0  0  0  0  0  0  0  0  0  0
  -25.9480  -30.8740   21.4990 C   0  0  0  0  0  2  0  0  0  0  0  0
  -26.0480  -29.4830   20.9070 C   0  0  0  0  0  0  0  0  0  0  0  0
  -27.2450  -28.7350   20.9600 C   0  0  0  0  0  3  0  0  0  0  0  0
  -26.1300  -26.9030   19.8080 C   0  0  0  0  0  3  0  0  0  0  0  0
  -24.9440  -27.6550   19.7440 C   0  0  0  0  0  3  0  0  0  0  0  0
  -23.6670  -29.8080   20.2770 C   0  0  0  0  0  2  0  0  0  0  0  0
  -24.6630  -31.1420   22.1890 N   0  0  0  0  0  0  0  0  0  0  0  0
  -23.4800  -32.2730   23.7600 O   0  0  0  0  0  0  0  0  0  0  0  0
  -22.7290  -29.5420   22.5970 C   0  0  0  0  0  0  0  0  0  0  0  0
  -21.4040  -29.3780   22.4460 N   0  0  0  0  0  0  0  0  0  0  0  0
  -23.3840  -28.9260   23.4410 O   0  0  0  0  0  0  0  0  0  0  0  0
  -20.9390  -29.9240   21.7350 H   0  0  0  0  0  0  0  0  0  0  0  0
  -17.9860  -28.3280   22.9680 C   0  0  0  0  0  0  0  0  0  0  0  0
  -20.5550  -28.4740   23.2200 C   0  0  0  0  0  3  0  0  0  0  0  0
  -20.5920  -27.0420   22.6380 C   0  0  0  0  0  2  0  0  0  0  0  0
  -19.4680  -26.7710   21.6320 C   0  0  0  0  0  2  0  0  0  0  0  0
  -18.1000  -26.9750   22.2880 C   0  0  0  0  0  2  0  0  0  0  0  0
  -19.1400  -29.0400   23.3910 C   0  0  0  0  0  0  0  0  0  0  0  0
  -18.9820  -30.3110   23.9840 C   0  0  0  0  0  3  0  0  0  0  0  0
  -17.7020  -30.8690   24.1610 C   0  0  0  0  0  3  0  0  0  0  0  0
  -16.5620  -30.1550   23.7550 C   0  0  0  0  0  3  0  0  0  0  0  0
  -16.7050  -28.8870   23.1630 C   0  0  0  0  0  3  0  0  0  0  0  0
  -25.8460  -32.6230   23.9010 C   0  0  0  0  0  3  0  0  0  0  0  0
  -25.5200  -34.0160   24.2270 N   0  0  0  0  0  0  0  0  0  0  0  0
  -25.8270  -35.0680   23.4580 C   0  0  0  0  0  0  0  0  0  0  0  0
  -26.4890  -34.9700   22.4200 O   0  0  0  0  0  0  0  0  0  0  0  0
  -24.9360  -34.1670   25.0360 H   0  0  0  0  0  0  0  0  0  0  0  0
  -24.0600  -36.8230   23.1120 C   0  0  0  0  0  1  0  0  0  0  0  0
  -25.3190  -36.4500   23.9110 C   0  0  0  0  0  3  0  0  0  0  0  0
  -27.4390  -37.3920   24.7180 C   0  0  0  0  0  1  0  0  0  0  0  0
  -26.3310  -37.5210   23.7760 N   0  0  0  0  0  0  0  0  0  0  0  0
  -25.9070  -38.4360   23.9110 H   0  0  0  0  0  0  0  0  0  0  0  0
  -26.3540  -31.8540   25.1820 C   0  0  1  0  0  0  0  0  0  0  0  0
  -25.2420  -31.5750   26.2200 C   0  0  0  0  0  1  0  0  0  0  0  0
  -26.9850  -30.4980   24.7880 C   0  0  0  0  0  1  0  0  0  0  0  0
  -27.4640  -32.6760   25.8800 C   0  0  0  0  0  1  0  0  0  0  0  0
  -28.0120  -21.0560   18.2300 C   0  0  0  0  0  2  0  0  0  0  0  0
  -28.6500  -19.6960   18.5950 C   0  0  0  0  0  2  0  0  0  0  0  0
  -28.2390  -19.1250   19.9670 C   0  0  0  0  0  2  0  0  0  0  0  0
  -28.0600  -17.5890   19.9770 C   0  0  0  0  0  2  0  0  0  0  0  0
  -31.1310  -16.5210   22.0070 C   0  0  0  0  0  3  0  0  0  0  0  0
  -31.4360  -15.2720   21.4320 C   0  0  0  0  0  3  0  0  0  0  0  0
  -30.0510  -17.2760   21.5150 C   0  0  0  0  0  3  0  0  0  0  0  0
  -29.5770  -15.5330   19.8730 C   0  0  0  0  0  3  0  0  0  0  0  0
  -30.6570  -14.7630   20.3720 C   0  0  0  0  0  0  0  0  0  0  0  0
  -29.2660  -16.7890   20.4480 C   0  0  0  0  0  0  0  0  0  0  0  0
  -31.0620  -13.4660   19.7250 C   0  0  0  0  0  0  0  0  0  0  0  0
  -30.6270  -11.0870   19.2200 C   0  0  0  0  0  2  0  0  0  0  0  0
  -29.6510  -10.9300   18.0400 C   0  0  0  0  0  2  0  0  0  0  0  0
  -28.1960  -10.9560   18.5420 C   0  0  0  0  0  2  0  0  0  0  0  0
  -27.9120  -12.1580   19.4830 C   0  0  0  0  0  3  0  0  0  0  0  0
  -28.9990  -12.2850   20.5750 C   0  0  0  0  0  2  0  0  0  0  0  0
  -30.3080  -12.3490   19.9070 N   0  0  0  0  0  0  0  0  0  0  0  0
  -32.0940  -13.4730   19.0490 O   0  0  0  0  0  0  0  0  0  0  0  0
  -25.6570  -13.0970   20.3020 C   0  0  0  0  0  0  0  0  0  0  0  0
  -24.5290  -12.4830   20.7730 C   0  0  0  0  0  0  0  0  0  0  0  0
  -24.8170  -11.0840   20.7830 C   0  0  0  0  0  0  0  0  0  0  0  0
  -26.5690  -12.0820   20.0560 N   0  0  0  0  0  0  0  0  0  0  0  0
  -26.0690  -10.8680   20.4020 N   0  0  0  0  0  0  0  0  0  0  0  0
  -23.9550   -9.9330   21.0820 C   0  0  0  0  0  0  0  0  0  0  0  0
  -24.3290   -8.9570   22.0330 C   0  0  0  0  0  3  0  0  0  0  0  0
  -23.4760   -7.8700   22.3160 C   0  0  0  0  0  3  0  0  0  0  0  0
  -22.2340   -7.7500   21.6480 C   0  0  0  0  0  0  0  0  0  0  0  0
  -21.8760   -8.7110   20.6860 C   0  0  0  0  0  3  0  0  0  0  0  0
  -22.7290   -9.7910   20.4020 C   0  0  0  0  0  3  0  0  0  0  0  0
  -21.3520   -6.7130   21.8400 O   0  0  0  0  0  0  0  0  0  0  0  0
  -21.3910   -5.9360   22.9700 C   0  0  0  0  0  0  0  0  0  0  0  0
  -21.1260   -6.4680   24.2510 C   0  0  0  0  0  3  0  0  0  0  0  0
  -21.1090   -5.6190   25.3750 C   0  0  0  0  0  3  0  0  0  0  0  0
  -21.3460   -4.2390   25.2210 C   0  0  0  0  0  0  0  0  0  0  0  0
  -21.6050   -3.7090   23.9450 C   0  0  0  0  0  3  0  0  0  0  0  0
  -21.6240   -4.5540   22.8230 C   0  0  0  0  0  0  0  0  0  0  0  0
  -21.8530   -4.0340   21.5940 F   0  0  0  0  0  0  0  0  0  0  0  0
  -21.3200   -3.4220   26.2990 F   0  0  0  0  0  0  0  0  0  0  0  0
  -23.2230  -13.1440   21.1060 C   0  0  0  0  0  0  0  0  0  0  0  0
  -22.4980  -12.6110   22.0830 N   0  0  0  0  0  0  0  0  0  0  0  0
  -22.8600  -14.1710   20.5330 O   0  0  0  0  0  0  0  0  0  0  0  0
  -22.8050  -11.7810   22.5690 H   0  0  0  0  0  0  0  0  0  0  0  0
  -21.6230  -13.0400   22.3480 H   0  0  0  0  0  0  0  0  0  0  0  0
  -25.9770  -14.4270   20.0450 N   0  0  0  0  0  0  0  0  0  0  0  0
  -25.3140  -15.1780   20.1980 H   0  0  0  0  0  0  0  0  0  0  0  0
  -26.8620  -14.7450   19.6760 H   0  0  0  0  0  0  0  0  0  0  0  0
  2  3  1  0
  3  4  1  1
  3  5  1  0
  3  1  1  0
  5  6  1  0
  6  7  1  0
  8 19  2  0
  9  7  1  0
  9 14  1  0
 10 18  1  0
 10 20  1  0
 11 13  1  0
 12 18  1  0
 13 14  2  0
 13 12  1  0
 15  9  2  0
 16 15  1  0
 16 11  2  0
 17 11  1  0
 17 10  1  0
 18  8  1  0
 20 22  2  0
 21 20  1  0
 23 21  1  0
 24 33  2  0
 24 29  1  0
 25 21  1  0
 25 29  1  0
 26 25  1  0
 27 28  1  0
 27 26  1  0
 28 24  1  0
 29 30  2  0
 30 31  1  0
 32 31  2  0
 33 32  1  0
 34  8  1  0
 34 35  1  0
 34 44  1  0
 35 38  1  0
 36 40  1  0
 36 35  1  0
 37 36  2  0
 40 39  1  0
 42 40  1  0
 42 43  1  0
 42 41  1  0
 44 47  1  1
 44 45  1  0
 46 44  1  0
 48 49  1  0
 48  1  1  0
 49 50  1  0
 50 51  1  0
 51 57  1  0
 53 52  2  0
 54 52  1  0
 55 56  2  0
 55 57  1  0
 56 53  1  0
 57 54  2  0
 58 64  1  0
 58 56  1  0
 59 64  1  0
 60 61  1  0
 60 59  1  0
 62 61  1  0
 62 69  1  0
 62 63  1  0
 64 63  1  0
 65 58  2  0
 66 67  2  0
 67 68  1  0
 67 86  1  0
 68 71  1  0
 69 66  1  0
 69 70  1  0
 70 68  2  0
 71 72  1  0
 72 73  2  0
 74 77  1  0
 74 73  1  0
 75 74  2  0
 76 75  1  0
 76 71  2  0
 77 78  1  0
 78 79  1  0
 79 80  2  0
 81 80  1  0
 81 85  1  0
 82 81  2  0
 83 78  2  0
 83 82  1  0
 84 83  1  0
 86 87  1  0
 87 90  1  0
 87 89  1  0
 88 86  2  0
 91 92  1  0
 91 66  1  0
 93 91  1  0
M  ISO  4   6 101   7 101  56 100  58 100
M  END
>  <TORSDO>  (35) 
F 24

>  <SCORE>  (35) 
-11.414

>  <name>  (35) 
34

>  <ligand_id>  (35) 
34

>  <original_smiles>  (35) 
[H]c1c([H])c([H])c2c(c1[H])C([H])([H])C([H])([H])C([H])([H])C2([H])N([H])C(=O)C1([H])N(C(=O)C([H])(N([H])C(=O)C([H])(N([H])C([H])([H])[H])C([H])([H])[H])C(C([H])([H])[H])(C([H])([H])[H])C([H])([H])[H])C([H])([H])c2c([H])c(OC([H])([H])C([H])([H])[N+]([H])(C([H])([H])[H])C([H])([H])C([H])([H])C([H])([H])C([H])([H])C([H])([H])c3c([H])c([H])c([H])c(C(=O)N4C([H])([H])C([H])([H])C([H])([H])C([H])(n5nc(-c6c([H])c([H])c(Oc7c([H])c([H])c(F)c([H])c7F)c([H])c6[H])c(C(=O)N([H])[H])c5N([H])[H])C4([H])[H])c3[H])c([H])c([H])c2C1([H])[H]

>  <smiles>  (35) 
[H]c1c([H])c([H])c2c(c1[H])C([H])([H])C([H])([H])C([H])([H])C2([H])N([H])C(=O)C1([H])N(C(=O)C([H])(N([H])C(=O)C([H])(N([H])C([H])([H])[H])C([H])([H])[H])C(C([H])([H])[H])(C([H])([H])[H])C([H])([H])[H])C([H])([H])c2c([H])c(OC([H])([H])C([H])([H])[N+]([H])(C([H])([H])[H])C([H])([H])C([H])([H])C([H])([H])C([H])([H])C([H])([H])c3c([H])c([H])c([H])c(C(=O)N4C([H])([H])C([H])([H])C([H])([H])C([H])(n5nc(-c6c([H])c([H])c(Oc7c([H])c([H])c(F)c([H])c7F)c([H])c6[H])c(C(=O)N([H])[H])c5N([H])[H])C4([H])[H])c3[H])c([H])c([H])c2C1([H])[H]

$$$$
35:0:0
     RDKit          3D

 92100  0  0  1  0  0  0  0  0999 V2000
  -29.3440  -21.2460   21.1770 C   0  0  0  0  0  0  0  0  0  0  0  0
  -29.8390  -22.3770   20.6310 N   0  0  0  0  0  0  0  0  0  0  0  0
  -28.2380  -21.2210   21.7180 O   0  0  0  0  0  0  0  0  0  0  0  0
  -30.7460  -22.2830   20.1910 H   0  0  0  0  0  0  0  0  0  0  0  0
  -31.7110  -18.4960   22.6850 C   0  0  0  0  0  2  0  0  0  0  0  0
  -30.8090  -19.7420   22.6110 C   0  0  0  0  0  2  0  0  0  0  0  0
  -30.9800  -17.2240   22.2180 C   0  0  0  0  0  2  0  0  0  0  0  0
  -29.5430  -18.6690   20.7120 C   0  0  0  0  0  2  0  0  0  0  0  0
  -30.2490  -19.9750   21.1900 C   0  0  0  0  0  3  0  0  0  0  0  0
  -30.4460  -17.3780   20.7790 C   0  0  0  0  0  3  0  0  0  0  0  0
  -29.1720  -16.4220   18.8280 C   0  0  0  0  0  1  0  0  0  0  0  0
  -29.7390  -16.0770   20.2290 C   0  0  0  0  0  3  0  0  0  0  0  0
  -30.6070  -14.7680   20.0930 C   0  0  0  0  0  0  0  0  0  0  0  0
  -30.3510  -12.5490   19.0500 C   0  0  0  0  0  2  0  0  0  0  0  0
  -29.3560  -12.7010   17.8770 C   0  0  0  0  0  2  0  0  0  0  0  0
  -27.8930  -12.5830   18.3600 C   0  0  0  0  0  2  0  0  0  0  0  0
  -27.5940  -13.4050   19.6430 C   0  0  0  0  0  3  0  0  0  0  0  0
  -28.7060  -13.2170   20.6980 C   0  0  0  0  0  2  0  0  0  0  0  0
  -29.9960  -13.5450   20.0760 N   0  0  0  0  0  0  0  0  0  0  0  0
  -31.7810  -14.9000   19.7390 O   0  0  0  0  0  0  0  0  0  0  0  0
  -25.2410  -13.9910   20.4910 C   0  0  0  0  0  0  0  0  0  0  0  0
  -24.1890  -13.2080   20.8820 C   0  0  0  0  0  0  0  0  0  0  0  0
  -24.6460  -11.8580   20.7860 C   0  0  0  0  0  0  0  0  0  0  0  0
  -26.2710  -13.1150   20.1820 N   0  0  0  0  0  0  0  0  0  0  0  0
  -25.9200  -11.8260   20.4190 N   0  0  0  0  0  0  0  0  0  0  0  0
  -23.9290  -10.5900   20.9660 C   0  0  0  0  0  0  0  0  0  0  0  0
  -24.3740   -9.6160   21.8860 C   0  0  0  0  0  3  0  0  0  0  0  0
  -23.6580   -8.4120   22.0540 C   0  0  0  0  0  3  0  0  0  0  0  0
  -22.4830   -8.1750   21.3000 C   0  0  0  0  0  0  0  0  0  0  0  0
  -22.0580   -9.1390   20.3700 C   0  0  0  0  0  3  0  0  0  0  0  0
  -22.7750  -10.3340   20.2000 C   0  0  0  0  0  3  0  0  0  0  0  0
  -21.7370   -7.0230   21.3790 O   0  0  0  0  0  0  0  0  0  0  0  0
  -21.6640   -6.2910   22.5370 C   0  0  0  0  0  0  0  0  0  0  0  0
  -21.1600   -6.8390   23.7360 C   0  0  0  0  0  3  0  0  0  0  0  0
  -21.0390   -6.0310   24.8840 C   0  0  0  0  0  3  0  0  0  0  0  0
  -21.4110   -4.6740   24.8330 C   0  0  0  0  0  0  0  0  0  0  0  0
  -21.9090   -4.1250   23.6380 C   0  0  0  0  0  3  0  0  0  0  0  0
  -22.0330   -4.9310   22.4920 C   0  0  0  0  0  0  0  0  0  0  0  0
  -22.4930   -4.3920   21.3380 F   0  0  0  0  0  0  0  0  0  0  0  0
  -21.2880   -3.8950   25.9320 F   0  0  0  0  0  0  0  0  0  0  0  0
  -22.8060  -13.6760   21.2340 C   0  0  0  0  0  0  0  0  0  0  0  0
  -22.1130  -12.9450   22.1000 N   0  0  0  0  0  0  0  0  0  0  0  0
  -22.3490  -14.7240   20.7760 O   0  0  0  0  0  0  0  0  0  0  0  0
  -22.4960  -12.0970   22.4910 H   0  0  0  0  0  0  0  0  0  0  0  0
  -21.1870  -13.2390   22.3770 H   0  0  0  0  0  0  0  0  0  0  0  0
  -25.4000  -15.3680   20.3540 N   0  0  0  0  0  0  0  0  0  0  0  0
  -24.6450  -16.0220   20.5250 H   0  0  0  0  0  0  0  0  0  0  0  0
  -26.2440  -15.8160   20.0190 H   0  0  0  0  0  0  0  0  0  0  0  0
  -29.3750  -23.7730   20.8320 C   0  0  0  0  0  2  0  0  0  0  0  0
  -28.4220  -24.3390   19.7380 C   0  0  0  0  0  2  0  0  0  0  0  0
  -28.7460  -25.7740   19.2050 C   0  0  0  0  0  2  0  0  0  0  0  0
  -28.5150  -26.8990   20.0790 O   0  0  0  0  0  0  0  0  0  0  0  0
  -24.6070  -31.9630   23.2200 C   0  0  0  0  0  0  0  0  0  0  0  0
  -27.3160  -27.5960   20.0520 C   0  0  0  0  0  0  0  0  0  0  0  0
  -23.4170  -30.5660   21.5620 C   0  0  0  0  0  3  0  0  0  0  0  0
  -24.8890  -29.0770   20.1000 C   0  0  0  0  0  0  0  0  0  0  0  0
  -25.9350  -30.9680   21.3560 C   0  0  0  0  0  2  0  0  0  0  0  0
  -26.0410  -29.6060   20.6940 C   0  0  0  0  0  0  0  0  0  0  0  0
  -27.2510  -28.8710   20.6710 C   0  0  0  0  0  3  0  0  0  0  0  0
  -26.1390  -27.0830   19.4590 C   0  0  0  0  0  3  0  0  0  0  0  0
  -24.9340  -27.8140   19.4810 C   0  0  0  0  0  3  0  0  0  0  0  0
  -23.6310  -29.9120   20.1690 C   0  0  0  0  0  2  0  0  0  0  0  0
  -24.6710  -31.1810   22.1040 N   0  0  0  0  0  0  0  0  0  0  0  0
  -23.5240  -32.2060   23.7720 O   0  0  0  0  0  0  0  0  0  0  0  0
  -22.7910  -29.5180   22.5100 C   0  0  0  0  0  0  0  0  0  0  0  0
  -21.4730  -29.2970   22.3750 N   0  0  0  0  0  0  0  0  0  0  0  0
  -23.4890  -28.9060   23.3230 O   0  0  0  0  0  0  0  0  0  0  0  0
  -20.9690  -29.8460   21.6920 H   0  0  0  0  0  0  0  0  0  0  0  0
  -18.1320  -28.0010   22.8440 C   0  0  0  0  0  0  0  0  0  0  0  0
  -20.6810  -28.3270   23.1310 C   0  0  0  0  0  3  0  0  0  0  0  0
  -20.8260  -26.9060   22.5370 C   0  0  0  0  0  2  0  0  0  0  0  0
  -19.7370  -26.5650   21.5150 C   0  0  0  0  0  2  0  0  0  0  0  0
  -18.3490  -26.6640   22.1550 C   0  0  0  0  0  2  0  0  0  0  0  0
  -19.2270  -28.7890   23.2880 C   0  0  0  0  0  0  0  0  0  0  0  0
  -18.9720  -30.0390   23.8930 C   0  0  0  0  0  3  0  0  0  0  0  0
  -17.6540  -30.5030   24.0570 C   0  0  0  0  0  3  0  0  0  0  0  0
  -16.5720  -29.7120   23.6310 C   0  0  0  0  0  3  0  0  0  0  0  0
  -16.8120  -28.4630   23.0300 C   0  0  0  0  0  3  0  0  0  0  0  0
  -25.8850  -32.6080   23.8420 C   0  0  0  0  0  3  0  0  0  0  0  0
  -25.5600  -34.0040   24.1670 N   0  0  0  0  0  0  0  0  0  0  0  0
  -25.8970  -35.0590   23.4110 C   0  0  0  0  0  0  0  0  0  0  0  0
  -26.5820  -34.9590   22.3890 O   0  0  0  0  0  0  0  0  0  0  0  0
  -24.9540  -34.1550   24.9590 H   0  0  0  0  0  0  0  0  0  0  0  0
  -24.1720  -36.8460   23.0180 C   0  0  0  0  0  1  0  0  0  0  0  0
  -25.3930  -36.4440   23.8590 C   0  0  0  0  0  3  0  0  0  0  0  0
  -27.5000  -37.3380   24.7510 C   0  0  0  0  0  1  0  0  0  0  0  0
  -26.4260  -37.5010   23.7760 N   0  0  0  0  0  0  0  0  0  0  0  0
  -26.0120  -38.4190   23.9110 H   0  0  0  0  0  0  0  0  0  0  0  0
  -26.4090  -31.8450   25.1210 C   0  0  1  0  0  0  0  0  0  0  0  0
  -25.3130  -31.5800   26.1790 C   0  0  0  0  0  1  0  0  0  0  0  0
  -27.0240  -30.4820   24.7280 C   0  0  0  0  0  1  0  0  0  0  0  0
  -27.5370  -32.6620   25.7940 C   0  0  0  0  0  1  0  0  0  0  0  0
  1  3  2  0
  2 49  1  0
  2  1  1  0
  4  2  1  0
  6  5  1  0
  7  5  1  0
  8 10  1  0
  8  9  1  0
  9  1  1  0
  9  6  1  0
 10 12  1  0
 10  7  1  0
 12 11  1  0
 13 12  1  0
 14 19  1  0
 15 16  1  0
 15 14  1  0
 17 16  1  0
 17 24  1  0
 17 18  1  0
 19 13  1  0
 19 18  1  0
 20 13  2  0
 21 22  2  0
 22 41  1  0
 23 22  1  0
 23 26  1  0
 24 25  1  0
 24 21  1  0
 25 23  2  0
 26 27  1  0
 27 28  2  0
 29 32  1  0
 29 28  1  0
 30 29  2  0
 31 30  1  0
 31 26  2  0
 32 33  1  0
 33 34  1  0
 34 35  2  0
 36 35  1  0
 36 40  1  0
 37 36  2  0
 38 33  2  0
 38 37  1  0
 39 38  1  0
 41 42  1  0
 42 45  1  0
 42 44  1  0
 43 41  2  0
 46 21  1  0
 46 47  1  0
 48 46  1  0
 50 49  1  0
 51 50  1  0
 51 52  1  0
 53 64  2  0
 54 52  1  0
 54 59  1  0
 55 63  1  0
 55 65  1  0
 56 62  1  0
 56 58  1  0
 57 63  1  0
 58 57  1  0
 59 58  2  0
 60 61  1  0
 60 54  2  0
 61 56  2  0
 62 55  1  0
 63 53  1  0
 65 67  2  0
 66 65  1  0
 68 66  1  0
 69 78  2  0
 69 74  1  0
 70 66  1  0
 70 74  1  0
 71 70  1  0
 72 73  1  0
 72 71  1  0
 73 69  1  0
 74 75  2  0
 75 76  1  0
 77 76  2  0
 78 77  1  0
 79 53  1  0
 79 80  1  0
 79 89  1  0
 80 83  1  0
 81 85  1  0
 81 80  1  0
 82 81  2  0
 85 84  1  0
 87 85  1  0
 87 88  1  0
 87 86  1  0
 89 92  1  1
 89 90  1  0
 91 89  1  0
M  ISO  4  12 100  13 100  51 101  52 101
M  END
>  <TORSDO>  (36) 
F 21

>  <SCORE>  (36) 
-12.886

>  <name>  (36) 
35

>  <ligand_id>  (36) 
35

>  <original_smiles>  (36) 
[H]c1c([H])c([H])c2c(c1[H])C([H])([H])C([H])([H])C([H])([H])C2([H])N([H])C(=O)C1([H])N(C(=O)C([H])(N([H])C(=O)C([H])(N([H])C([H])([H])[H])C([H])([H])[H])C(C([H])([H])[H])(C([H])([H])[H])C([H])([H])[H])C([H])([H])c2c([H])c(OC([H])([H])C([H])([H])C([H])([H])N([H])C(=O)C3([H])C([H])([H])C([H])([H])C([H])([H])C([H])(C([H])(C(=O)N4C([H])([H])C([H])([H])C([H])([H])C([H])(n5nc(-c6c([H])c([H])c(Oc7c([H])c([H])c(F)c([H])c7F)c([H])c6[H])c(C(=O)N([H])[H])c5N([H])[H])C4([H])[H])C([H])([H])[H])C3([H])[H])c([H])c([H])c2C1([H])[H]

>  <smiles>  (36) 
[H]c1c([H])c([H])c2c(c1[H])C([H])([H])C([H])([H])C([H])([H])C2([H])N([H])C(=O)C1([H])N(C(=O)C([H])(N([H])C(=O)C([H])(N([H])C([H])([H])[H])C([H])([H])[H])C(C([H])([H])[H])(C([H])([H])[H])C([H])([H])[H])C([H])([H])c2c([H])c(OC([H])([H])C([H])([H])C([H])([H])N([H])C(=O)C3([H])C([H])([H])C([H])([H])C([H])([H])C([H])(C([H])(C(=O)N4C([H])([H])C([H])([H])C([H])([H])C([H])(n5nc(-c6c([H])c([H])c(Oc7c([H])c([H])c(F)c([H])c7F)c([H])c6[H])c(C(=O)N([H])[H])c5N([H])[H])C4([H])[H])C([H])([H])[H])C3([H])[H])c([H])c([H])c2C1([H])[H]

$$$$
36:0:0
     RDKit          3D

 98106  0  0  1  0  0  0  0  0999 V2000
  -30.0050  -20.0520   19.2710 C   0  0  0  0  0  3  0  0  0  0  0  0
  -30.8310  -18.8200   19.7660 N   0  0  0  0  0  4  0  0  0  0  0  0
  -31.7320  -19.1740   20.0530 H   0  0  0  0  0  0  0  0  0  0  0  0
  -31.0180  -18.2830   18.9340 H   0  0  0  0  0  0  0  0  0  0  0  0
  -30.3880  -17.7940   20.8340 C   0  0  0  0  0  3  0  0  0  0  0  0
  -31.2600  -16.4200   21.0860 C   0  0  0  0  0  2  0  0  0  0  0  0
  -31.6070  -15.2030   20.0980 C   0  0  0  0  0  0  0  0  0  0  0  0
  -31.2510  -13.0100   18.9230 C   0  0  0  0  0  2  0  0  0  0  0  0
  -30.2810  -13.1920   17.7380 C   0  0  0  0  0  2  0  0  0  0  0  0
  -28.8220  -13.0480   18.2050 C   0  0  0  0  0  2  0  0  0  0  0  0
  -28.5350  -13.8560   19.4960 C   0  0  0  0  0  3  0  0  0  0  0  0
  -29.6260  -13.6700   20.5750 C   0  0  0  0  0  2  0  0  0  0  0  0
  -30.9160  -14.0140   19.9660 N   0  0  0  0  0  0  0  0  0  0  0  0
  -32.6680  -15.3220   19.4760 O   0  0  0  0  0  0  0  0  0  0  0  0
  -26.1820  -14.4690   20.3040 C   0  0  0  0  0  0  0  0  0  0  0  0
  -25.1100  -13.7120   20.6880 C   0  0  0  0  0  0  0  0  0  0  0  0
  -25.5420  -12.3530   20.6080 C   0  0  0  0  0  0  0  0  0  0  0  0
  -27.2000  -13.5790   20.0160 N   0  0  0  0  0  0  0  0  0  0  0  0
  -26.8230  -12.2970   20.2580 N   0  0  0  0  0  0  0  0  0  0  0  0
  -24.7940  -11.0990   20.7870 C   0  0  0  0  0  0  0  0  0  0  0  0
  -25.1980  -10.1240   21.7240 C   0  0  0  0  0  3  0  0  0  0  0  0
  -24.4510   -8.9390   21.8910 C   0  0  0  0  0  3  0  0  0  0  0  0
  -23.2830   -8.7200   21.1250 C   0  0  0  0  0  0  0  0  0  0  0  0
  -22.8980   -9.6860   20.1800 C   0  0  0  0  0  3  0  0  0  0  0  0
  -23.6460  -10.8630   20.0080 C   0  0  0  0  0  3  0  0  0  0  0  0
  -22.5110   -7.5870   21.2010 O   0  0  0  0  0  0  0  0  0  0  0  0
  -22.2970   -6.9430   22.3920 C   0  0  0  0  0  0  0  0  0  0  0  0
  -21.7060   -7.5920   23.4990 C   0  0  0  0  0  3  0  0  0  0  0  0
  -21.4430   -6.8720   24.6810 C   0  0  0  0  0  3  0  0  0  0  0  0
  -21.7610   -5.5030   24.7580 C   0  0  0  0  0  0  0  0  0  0  0  0
  -22.3430   -4.8520   23.6550 C   0  0  0  0  0  3  0  0  0  0  0  0
  -22.6080   -5.5700   22.4750 C   0  0  0  0  0  0  0  0  0  0  0  0
  -23.1540   -4.9350   21.4110 F   0  0  0  0  0  0  0  0  0  0  0  0
  -21.4970   -4.8080   25.8890 F   0  0  0  0  0  0  0  0  0  0  0  0
  -23.7330  -14.2150   21.0130 C   0  0  0  0  0  0  0  0  0  0  0  0
  -23.0410  -13.5550   21.9350 N   0  0  0  0  0  0  0  0  0  0  0  0
  -23.2780  -15.2280   20.4830 O   0  0  0  0  0  0  0  0  0  0  0  0
  -23.4080  -12.7270   22.3790 H   0  0  0  0  0  0  0  0  0  0  0  0
  -22.1230  -13.8810   22.2020 H   0  0  0  0  0  0  0  0  0  0  0  0
  -26.3760  -15.8300   20.1510 N   0  0  0  0  0  0  0  0  0  0  0  0
  -25.6280  -16.5050   20.2760 H   0  0  0  0  0  0  0  0  0  0  0  0
  -27.2490  -16.2490   19.8700 H   0  0  0  0  0  0  0  0  0  0  0  0
  -30.3050  -18.5450   22.1990 C   0  0  0  0  0  2  0  0  0  0  0  0
  -32.8110  -19.1520   22.5550 C   0  0  0  0  0  1  0  0  0  0  0  0
  -30.9970  -20.3860   23.7940 C   0  0  0  0  0  1  0  0  0  0  0  0
  -31.3570  -19.6560   22.4910 C   0  0  0  0  0  3  0  0  0  0  0  0
  -28.9080  -19.9320   18.1480 C   0  0  0  0  0  2  0  0  0  0  0  0
  -25.1680  -20.5950   18.1750 C   0  0  0  0  0  3  0  0  0  0  0  0
  -26.7640  -18.8910   18.9700 C   0  0  0  0  0  3  0  0  0  0  0  0
  -26.4680  -20.9560   17.9570 C   0  0  0  0  0  0  0  0  0  0  0  0
  -27.4130  -19.9650   18.4080 C   0  0  0  0  0  0  0  0  0  0  0  0
  -26.7910  -22.2270   17.2550 C   0  0  0  0  0  1  0  0  0  0  0  0
  -25.0290  -19.0450   18.9310 S   0  0  0  0  0  0  0  0  0  0  0  0
  -30.3830  -21.5710   19.7590 C   0  0  0  0  0  2  0  0  0  0  0  0
  -29.4940  -22.7120   20.4900 C   0  0  0  0  0  2  0  0  0  0  0  0
  -28.4710  -23.7400   19.7820 C   0  0  0  0  0  2  0  0  0  0  0  0
  -28.8340  -25.2690   19.4390 C   0  0  0  0  0  2  0  0  0  0  0  0
  -28.4870  -26.4320   20.2980 O   0  0  0  0  0  0  0  0  0  0  0  0
  -24.5330  -31.7390   23.1440 C   0  0  0  0  0  0  0  0  0  0  0  0
  -27.3350  -27.2300   20.1610 C   0  0  0  0  0  0  0  0  0  0  0  0
  -23.4190  -30.3600   21.4220 C   0  0  0  0  0  3  0  0  0  0  0  0
  -24.9510  -28.8240   20.0520 C   0  0  0  0  0  0  0  0  0  0  0  0
  -25.9600  -30.6890   21.3710 C   0  0  0  0  0  2  0  0  0  0  0  0
  -26.0790  -29.3150   20.7180 C   0  0  0  0  0  0  0  0  0  0  0  0
  -27.2650  -28.5240   20.7690 C   0  0  0  0  0  3  0  0  0  0  0  0
  -26.1840  -26.7830   19.4750 C   0  0  0  0  0  3  0  0  0  0  0  0
  -25.0080  -27.5680   19.4240 C   0  0  0  0  0  3  0  0  0  0  0  0
  -23.7090  -29.6960   20.0470 C   0  0  0  0  0  2  0  0  0  0  0  0
  -24.6540  -30.9460   22.0390 N   0  0  0  0  0  0  0  0  0  0  0  0
  -23.4210  -32.0080   23.6250 O   0  0  0  0  0  0  0  0  0  0  0  0
  -22.7080  -29.3360   22.3330 C   0  0  0  0  0  0  0  0  0  0  0  0
  -21.3760  -29.2290   22.1950 N   0  0  0  0  0  0  0  0  0  0  0  0
  -23.3540  -28.6410   23.1210 O   0  0  0  0  0  0  0  0  0  0  0  0
  -20.9210  -29.8430   21.5350 H   0  0  0  0  0  0  0  0  0  0  0  0
  -17.9390  -28.2310   22.6990 C   0  0  0  0  0  0  0  0  0  0  0  0
  -20.5140  -28.2970   22.9220 C   0  0  0  0  0  3  0  0  0  0  0  0
  -20.5020  -26.9050   22.2470 C   0  0  0  0  0  2  0  0  0  0  0  0
  -19.3650  -26.7330   21.2340 C   0  0  0  0  0  2  0  0  0  0  0  0
  -18.0070  -26.9310   21.9150 C   0  0  0  0  0  2  0  0  0  0  0  0
  -19.1160  -28.8800   23.1550 C   0  0  0  0  0  0  0  0  0  0  0  0
  -18.9970  -30.1060   23.8440 C   0  0  0  0  0  3  0  0  0  0  0  0
  -17.7320  -30.6820   24.0790 C   0  0  0  0  0  3  0  0  0  0  0  0
  -16.5710  -30.0280   23.6370 C   0  0  0  0  0  3  0  0  0  0  0  0
  -16.6750  -28.8050   22.9520 C   0  0  0  0  0  3  0  0  0  0  0  0
  -25.7810  -32.3620   23.8460 C   0  0  0  0  0  3  0  0  0  0  0  0
  -25.4780  -33.7730   24.1180 N   0  0  0  0  0  0  0  0  0  0  0  0
  -25.9110  -34.8050   23.3790 C   0  0  0  0  0  0  0  0  0  0  0  0
  -26.6730  -34.6640   22.4170 O   0  0  0  0  0  0  0  0  0  0  0  0
  -24.8150  -33.9610   24.8560 H   0  0  0  0  0  0  0  0  0  0  0  0
  -24.2820  -36.6400   22.8230 C   0  0  0  0  0  1  0  0  0  0  0  0
  -25.4200  -36.2120   23.7630 C   0  0  0  0  0  3  0  0  0  0  0  0
  -27.4780  -37.0570   24.8060 C   0  0  0  0  0  1  0  0  0  0  0  0
  -26.4900  -37.2350   23.7450 N   0  0  0  0  0  0  0  0  0  0  0  0
  -26.0980  -38.1680   23.8350 H   0  0  0  0  0  0  0  0  0  0  0  0
  -26.1880  -31.6130   25.1740 C   0  0  1  0  0  0  0  0  0  0  0  0
  -25.0220  -31.4430   26.1730 C   0  0  0  0  0  1  0  0  0  0  0  0
  -26.7480  -30.2080   24.8550 C   0  0  0  0  0  1  0  0  0  0  0  0
  -27.3170  -32.3910   25.8910 C   0  0  0  0  0  1  0  0  0  0  0  0
  1 47  1  0
  1 54  1  0
  1  2  1  0
  2  3  1  0
  2  5  1  0
  4  2  1  0
  5  6  1  0
  5 43  1  0
  7  6  1  0
  8 13  1  0
  9 10  1  0
  9  8  1  0
 11 10  1  0
 11 18  1  0
 11 12  1  0
 13  7  1  0
 13 12  1  0
 14  7  2  0
 15 16  2  0
 16 35  1  0
 17 16  1  0
 17 20  1  0
 18 19  1  0
 18 15  1  0
 19 17  2  0
 20 21  1  0
 21 22  2  0
 23 26  1  0
 23 22  1  0
 24 23  2  0
 25 24  1  0
 25 20  2  0
 26 27  1  0
 27 32  2  0
 27 28  1  0
 28 29  2  0
 29 30  1  0
 30 34  1  0
 31 30  2  0
 32 31  1  0
 33 32  1  0
 35 36  1  0
 36 39  1  0
 36 38  1  0
 37 35  2  0
 40 41  1  0
 40 15  1  0
 42 40  1  0
 43 46  1  0
 46 44  1  0
 46 45  1  0
 47 51  1  0
 48 53  1  0
 50 48  2  0
 50 51  1  0
 51 49  2  0
 52 50  1  0
 53 49  1  0
 54 55  1  0
 56 55  1  0
 57 56  1  0
 57 58  1  0
 59 70  2  0
 60 58  1  0
 60 65  1  0
 61 69  1  0
 61 71  1  0
 62 64  1  0
 63 69  1  0
 64 65  2  0
 64 63  1  0
 66 60  2  0
 67 66  1  0
 67 62  2  0
 68 62  1  0
 68 61  1  0
 69 59  1  0
 71 73  2  0
 72 71  1  0
 74 72  1  0
 75 84  2  0
 75 80  1  0
 76 72  1  0
 76 80  1  0
 77 76  1  0
 78 79  1  0
 78 77  1  0
 79 75  1  0
 80 81  2  0
 81 82  1  0
 83 82  2  0
 84 83  1  0
 85 59  1  0
 85 86  1  0
 85 95  1  0
 86 89  1  0
 87 91  1  0
 87 86  1  0
 88 87  2  0
 91 90  1  0
 93 91  1  0
 93 94  1  0
 93 92  1  0
 95 98  1  1
 95 96  1  0
 97 95  1  0
M  ISO  4   6 100   7 100  57 101  58 101
M  END
>  <TORSDO>  (37) 
F 27

>  <SCORE>  (37) 
-8.712

>  <name>  (37) 
36

>  <ligand_id>  (37) 
36

>  <original_smiles>  (37) 
[H]c1sc([H])c(C([H])([H])C([H])(C([H])([H])C([H])([H])C([H])([H])C([H])([H])Oc2c([H])c([H])c3c(c2[H])C([H])([H])N(C(=O)C([H])(N([H])C(=O)C([H])(N([H])C([H])([H])[H])C([H])([H])[H])C(C([H])([H])[H])(C([H])([H])[H])C([H])([H])[H])C([H])(C(=O)N([H])C2([H])c4c([H])c([H])c([H])c([H])c4C([H])([H])C([H])([H])C2([H])[H])C3([H])[H])[N+]([H])([H])C([H])(C([H])([H])C(=O)N2C([H])([H])C([H])([H])C([H])([H])C([H])(n3nc(-c4c([H])c([H])c(Oc5c([H])c([H])c(F)c([H])c5F)c([H])c4[H])c(C(=O)N([H])[H])c3N([H])[H])C2([H])[H])C([H])([H])C([H])(C([H])([H])[H])C([H])([H])[H])c1C([H])([H])[H]

>  <smiles>  (37) 
[H]c1sc([H])c(C([H])([H])C([H])(C([H])([H])C([H])([H])C([H])([H])C([H])([H])Oc2c([H])c([H])c3c(c2[H])C([H])([H])N(C(=O)C([H])(N([H])C(=O)C([H])(N([H])C([H])([H])[H])C([H])([H])[H])C(C([H])([H])[H])(C([H])([H])[H])C([H])([H])[H])C([H])(C(=O)N([H])C2([H])c4c([H])c([H])c([H])c([H])c4C([H])([H])C([H])([H])C2([H])[H])C3([H])[H])[N+]([H])([H])C([H])(C([H])([H])C(=O)N2C([H])([H])C([H])([H])C([H])([H])C([H])(n3nc(-c4c([H])c([H])c(Oc5c([H])c([H])c(F)c([H])c5F)c([H])c4[H])c(C(=O)N([H])[H])c3N([H])[H])C2([H])[H])C([H])([H])C([H])(C([H])([H])[H])C([H])([H])[H])c1C([H])([H])[H]

$$$$
37:0:0
     RDKit          3D

 91 98  0  0  1  0  0  0  0  0999 V2000
  -27.6790  -20.1590   21.4390 C   0  0  0  0  0  1  0  0  0  0  0  0
  -28.5220  -20.3110   20.2250 N   0  0  2  0  0  4  0  0  0  0  0  0
  -27.8470  -20.4100   19.4800 H   0  0  0  0  0  0  0  0  0  0  0  0
  -29.2520  -19.0400   19.8540 C   0  0  0  0  0  3  0  0  0  0  0  0
  -29.2040  -19.5650   17.3100 C   0  0  0  0  0  1  0  0  0  0  0  0
  -30.0550  -19.1830   18.5330 C   0  0  0  0  0  2  0  0  0  0  0  0
  -30.0980  -18.4250   21.0250 C   0  0  0  0  0  2  0  0  0  0  0  0
  -31.8950  -16.8730   21.9020 C   0  0  0  0  0  1  0  0  0  0  0  0
  -30.8380  -17.0610   20.7950 C   0  0  0  0  0  3  0  0  0  0  0  0
  -29.9290  -15.7800   20.7050 C   0  0  0  0  0  2  0  0  0  0  0  0
  -30.5720  -14.5380   20.0130 C   0  0  0  0  0  0  0  0  0  0  0  0
  -30.2110  -12.3590   18.8970 C   0  0  0  0  0  2  0  0  0  0  0  0
  -29.1900  -12.5380   17.7550 C   0  0  0  0  0  2  0  0  0  0  0  0
  -27.7500  -12.3870   18.2830 C   0  0  0  0  0  2  0  0  0  0  0  0
  -27.4880  -13.2370   19.5550 C   0  0  0  0  0  3  0  0  0  0  0  0
  -28.6190  -13.0550   20.5910 C   0  0  0  0  0  2  0  0  0  0  0  0
  -29.8990  -13.3550   19.9350 N   0  0  0  0  0  0  0  0  0  0  0  0
  -31.6490  -14.6940   19.4330 O   0  0  0  0  0  0  0  0  0  0  0  0
  -25.1360  -13.8230   20.4200 C   0  0  0  0  0  0  0  0  0  0  0  0
  -24.1060  -13.0430   20.8670 C   0  0  0  0  0  0  0  0  0  0  0  0
  -24.5780  -11.6950   20.8180 C   0  0  0  0  0  0  0  0  0  0  0  0
  -26.1740  -12.9500   20.1280 N   0  0  0  0  0  0  0  0  0  0  0  0
  -25.8450  -11.6670   20.4230 N   0  0  0  0  0  0  0  0  0  0  0  0
  -23.8810  -10.4270   21.0690 C   0  0  0  0  0  0  0  0  0  0  0  0
  -24.3500   -9.5010   22.0260 C   0  0  0  0  0  3  0  0  0  0  0  0
  -23.6510   -8.2980   22.2610 C   0  0  0  0  0  3  0  0  0  0  0  0
  -22.4680   -8.0100   21.5390 C   0  0  0  0  0  0  0  0  0  0  0  0
  -22.0180   -8.9260   20.5710 C   0  0  0  0  0  3  0  0  0  0  0  0
  -22.7170  -10.1200   20.3340 C   0  0  0  0  0  3  0  0  0  0  0  0
  -21.7380   -6.8560   21.6830 O   0  0  0  0  0  0  0  0  0  0  0  0
  -21.6920   -6.1770   22.8740 C   0  0  0  0  0  0  0  0  0  0  0  0
  -21.2380   -6.7880   24.0630 C   0  0  0  0  0  3  0  0  0  0  0  0
  -21.1420   -6.0340   25.2490 C   0  0  0  0  0  3  0  0  0  0  0  0
  -21.4880   -4.6700   25.2480 C   0  0  0  0  0  0  0  0  0  0  0  0
  -21.9350   -4.0580   24.0630 C   0  0  0  0  0  3  0  0  0  0  0  0
  -22.0340   -4.8090   22.8790 C   0  0  0  0  0  0  0  0  0  0  0  0
  -22.4450   -4.2090   21.7360 F   0  0  0  0  0  0  0  0  0  0  0  0
  -21.3880   -3.9430   26.3850 F   0  0  0  0  0  0  0  0  0  0  0  0
  -22.7230  -13.5070   21.2290 C   0  0  0  0  0  0  0  0  0  0  0  0
  -22.0620  -12.8080   22.1440 N   0  0  0  0  0  0  0  0  0  0  0  0
  -22.2410  -14.5240   20.7320 O   0  0  0  0  0  0  0  0  0  0  0  0
  -22.4660  -11.9840   22.5640 H   0  0  0  0  0  0  0  0  0  0  0  0
  -21.1370  -13.1010   22.4290 H   0  0  0  0  0  0  0  0  0  0  0  0
  -25.2740  -15.1920   20.2170 N   0  0  0  0  0  0  0  0  0  0  0  0
  -24.5080  -15.8410   20.3640 H   0  0  0  0  0  0  0  0  0  0  0  0
  -26.0950  -15.6300   19.8210 H   0  0  0  0  0  0  0  0  0  0  0  0
  -29.2960  -21.6050   20.1860 C   0  0  0  0  0  2  0  0  0  0  0  0
  -28.4370  -22.8690   20.5030 C   0  0  0  0  0  2  0  0  0  0  0  0
  -29.0320  -24.2600   20.1290 C   0  0  0  0  0  2  0  0  0  0  0  0
  -28.1680  -25.4230   20.6880 C   0  0  0  0  0  2  0  0  0  0  0  0
  -28.3730  -26.7190   20.0780 O   0  0  0  0  0  0  0  0  0  0  0  0
  -24.5810  -31.9020   23.2010 C   0  0  0  0  0  0  0  0  0  0  0  0
  -27.2350  -27.5040   20.0560 C   0  0  0  0  0  0  0  0  0  0  0  0
  -23.3790  -30.5160   21.5430 C   0  0  0  0  0  3  0  0  0  0  0  0
  -24.8380  -29.0130   20.0870 C   0  0  0  0  0  0  0  0  0  0  0  0
  -25.9040  -30.8910   21.3440 C   0  0  0  0  0  2  0  0  0  0  0  0
  -25.9980  -29.5300   20.6820 C   0  0  0  0  0  0  0  0  0  0  0  0
  -27.2020  -28.7840   20.6630 C   0  0  0  0  0  3  0  0  0  0  0  0
  -26.0640  -27.0210   19.4310 C   0  0  0  0  0  3  0  0  0  0  0  0
  -24.8680  -27.7600   19.4550 C   0  0  0  0  0  3  0  0  0  0  0  0
  -23.5890  -29.8620   20.1520 C   0  0  0  0  0  2  0  0  0  0  0  0
  -24.6400  -31.1170   22.0880 N   0  0  0  0  0  0  0  0  0  0  0  0
  -23.4990  -32.1590   23.7470 O   0  0  0  0  0  0  0  0  0  0  0  0
  -22.7380  -29.4760   22.4890 C   0  0  0  0  0  0  0  0  0  0  0  0
  -21.4180  -29.2700   22.3480 N   0  0  0  0  0  0  0  0  0  0  0  0
  -23.4250  -28.8570   23.3060 O   0  0  0  0  0  0  0  0  0  0  0  0
  -20.9250  -29.8240   21.6620 H   0  0  0  0  0  0  0  0  0  0  0  0
  -18.0640  -28.0000   22.7940 C   0  0  0  0  0  0  0  0  0  0  0  0
  -20.6110  -28.3140   23.1050 C   0  0  0  0  0  3  0  0  0  0  0  0
  -20.7540  -26.8870   22.5280 C   0  0  0  0  0  2  0  0  0  0  0  0
  -19.6750  -26.5420   21.4970 C   0  0  0  0  0  2  0  0  0  0  0  0
  -18.2810  -26.6570   22.1190 C   0  0  0  0  0  2  0  0  0  0  0  0
  -19.1590  -28.7860   23.2420 C   0  0  0  0  0  0  0  0  0  0  0  0
  -18.9040  -30.0440   23.8300 C   0  0  0  0  0  3  0  0  0  0  0  0
  -17.5870  -30.5180   23.9740 C   0  0  0  0  0  3  0  0  0  0  0  0
  -16.5060  -29.7300   23.5420 C   0  0  0  0  0  3  0  0  0  0  0  0
  -16.7450  -28.4730   22.9590 C   0  0  0  0  0  3  0  0  0  0  0  0
  -25.8650  -32.5330   23.8240 C   0  0  0  0  0  3  0  0  0  0  0  0
  -26.3830  -31.7580   25.0980 C   0  0  1  0  0  0  0  0  0  0  0  0
  -25.2890  -31.5080   26.1620 C   0  0  0  0  0  1  0  0  0  0  0  0
  -26.9730  -30.3840   24.7000 C   0  0  0  0  0  1  0  0  0  0  0  0
  -27.5280  -32.5530   25.7670 C   0  0  0  0  0  1  0  0  0  0  0  0
  -25.5540  -33.9300   24.1560 N   0  0  0  0  0  0  0  0  0  0  0  0
  -25.8910  -34.9830   23.4010 C   0  0  0  0  0  0  0  0  0  0  0  0
  -26.5690  -34.8830   22.3740 O   0  0  0  0  0  0  0  0  0  0  0  0
  -24.9530  -34.0810   24.9530 H   0  0  0  0  0  0  0  0  0  0  0  0
  -24.1660  -36.7780   23.0330 C   0  0  0  0  0  1  0  0  0  0  0  0
  -25.3980  -36.3700   23.8570 C   0  0  0  0  0  3  0  0  0  0  0  0
  -27.5240  -37.2520   24.7150 C   0  0  0  0  0  1  0  0  0  0  0  0
  -26.4320  -37.4220   23.7600 N   0  0  0  0  0  0  0  0  0  0  0  0
  -26.0250  -38.3420   23.9060 H   0  0  0  0  0  0  0  0  0  0  0  0
  2  1  1  0
  2  3  1  6
  4  6  1  0
  4  2  1  0
  4  7  1  0
  5  6  1  0
  9  7  1  0
  9  8  1  0
 10  9  1  0
 11 10  1  0
 12 17  1  0
 13 14  1  0
 13 12  1  0
 15 14  1  0
 15 22  1  0
 15 16  1  0
 17 11  1  0
 17 16  1  0
 18 11  2  0
 19 20  2  0
 20 39  1  0
 21 20  1  0
 21 24  1  0
 22 19  1  0
 22 23  1  0
 23 21  2  0
 24 25  1  0
 25 26  2  0
 27 30  1  0
 27 26  1  0
 28 27  2  0
 29 28  1  0
 29 24  2  0
 30 31  1  0
 31 36  2  0
 31 32  1  0
 32 33  2  0
 34 33  1  0
 34 38  1  0
 35 34  2  0
 36 35  1  0
 37 36  1  0
 39 40  1  0
 40 43  1  0
 40 42  1  0
 41 39  2  0
 44 45  1  0
 44 19  1  0
 46 44  1  0
 47  2  1  0
 47 48  1  0
 49 48  1  0
 49 50  1  0
 51 50  1  0
 52 63  2  0
 53 51  1  0
 53 58  1  0
 54 62  1  0
 54 64  1  0
 55 61  1  0
 55 57  1  0
 56 62  1  0
 57 56  1  0
 58 57  2  0
 59 60  1  0
 59 53  2  0
 60 55  2  0
 61 54  1  0
 62 52  1  0
 64 66  2  0
 65 64  1  0
 67 65  1  0
 68 77  2  0
 68 73  1  0
 69 65  1  0
 69 73  1  0
 70 69  1  0
 71 72  1  0
 71 70  1  0
 72 68  1  0
 73 74  2  0
 74 75  1  0
 76 75  2  0
 77 76  1  0
 78 52  1  0
 78 83  1  0
 78 79  1  0
 79 82  1  1
 79 80  1  0
 81 79  1  0
 83 86  1  0
 84 88  1  0
 84 83  1  0
 85 84  2  0
 88 87  1  0
 90 88  1  0
 90 91  1  0
 90 89  1  0
M  ISO  4  10 100  11 100  50 101  51 101
M  END
>  <TORSDO>  (38) 
F 25

>  <SCORE>  (38) 
-9.856

>  <name>  (38) 
37

>  <ligand_id>  (38) 
37

>  <original_smiles>  (38) 
[H]c1c([H])c([H])c2c(c1[H])C([H])([H])C([H])([H])C([H])([H])C2([H])N([H])C(=O)C1([H])N(C(=O)C([H])(N([H])C(=O)C([H])(N([H])C([H])([H])[H])C([H])([H])[H])C(C([H])([H])[H])(C([H])([H])[H])C([H])([H])[H])C([H])([H])c2c([H])c(OC([H])([H])C([H])([H])C([H])([H])C([H])([H])[N+]([H])(C([H])([H])[H])C([H])(C([H])([H])C([H])([H])[H])C([H])([H])C([H])(C([H])([H])[H])C([H])([H])C(=O)N3C([H])([H])C([H])([H])C([H])([H])C([H])(n4nc(-c5c([H])c([H])c(Oc6c([H])c([H])c(F)c([H])c6F)c([H])c5[H])c(C(=O)N([H])[H])c4N([H])[H])C3([H])[H])c([H])c([H])c2C1([H])[H]

>  <smiles>  (38) 
[H]c1c([H])c([H])c2c(c1[H])C([H])([H])C([H])([H])C([H])([H])C2([H])N([H])C(=O)C1([H])N(C(=O)C([H])(N([H])C(=O)C([H])(N([H])C([H])([H])[H])C([H])([H])[H])C(C([H])([H])[H])(C([H])([H])[H])C([H])([H])[H])C([H])([H])c2c([H])c(OC([H])([H])C([H])([H])C([H])([H])C([H])([H])[N+]([H])(C([H])([H])[H])C([H])(C([H])([H])C([H])([H])[H])C([H])([H])C([H])(C([H])([H])[H])C([H])([H])C(=O)N3C([H])([H])C([H])([H])C([H])([H])C([H])(n4nc(-c5c([H])c([H])c(Oc6c([H])c([H])c(F)c([H])c6F)c([H])c5[H])c(C(=O)N([H])[H])c4N([H])[H])C3([H])[H])c([H])c([H])c2C1([H])[H]

$$$$
38:0:0
     RDKit          3D

 94103  0  0  1  0  0  0  0  0999 V2000
  -29.5050  -19.9240   20.7630 N   0  0  1  0  0  4  0  0  0  0  0  0
  -28.5720  -19.5450   20.8360 H   0  0  0  0  0  0  0  0  0  0  0  0
  -33.1800  -17.0330   16.1420 C   0  0  0  0  0  3  0  0  0  0  0  0
  -33.9460  -18.0310   16.7710 C   0  0  0  0  0  3  0  0  0  0  0  0
  -31.9570  -16.6280   16.7080 C   0  0  0  0  0  3  0  0  0  0  0  0
  -33.4870  -18.6260   17.9600 C   0  0  0  0  0  3  0  0  0  0  0  0
  -31.4870  -17.2140   17.9040 C   0  0  0  0  0  0  0  0  0  0  0  0
  -32.2590  -18.2290   18.5330 C   0  0  0  0  0  0  0  0  0  0  0  0
  -30.1560  -16.7260   18.4880 C   0  0  0  0  0  2  0  0  0  0  0  0
  -31.7780  -18.9410   19.7920 C   0  0  0  0  0  2  0  0  0  0  0  0
  -30.0590  -16.8740   20.0410 C   0  0  0  0  0  3  0  0  0  0  0  0
  -30.2990  -18.6540   20.0770 C   0  0  0  0  0  3  0  0  0  0  0  0
  -30.9430  -15.4270   20.4740 C   0  0  0  0  0  0  0  0  0  0  0  0
  -30.9840  -12.9100   19.9120 C   0  0  0  0  0  2  0  0  0  0  0  0
  -30.1630  -12.6090   18.6300 C   0  0  0  0  0  2  0  0  0  0  0  0
  -28.6670  -12.4190   18.9530 C   0  0  0  0  0  2  0  0  0  0  0  0
  -28.1330  -13.4710   19.9580 C   0  0  0  0  0  3  0  0  0  0  0  0
  -29.0960  -13.7150   21.1380 C   0  0  0  0  0  2  0  0  0  0  0  0
  -30.4020  -14.1190   20.5860 N   0  0  0  0  0  0  0  0  0  0  0  0
  -32.1820  -15.4330   20.4440 O   0  0  0  0  0  0  0  0  0  0  0  0
  -25.7390  -14.1300   20.5270 C   0  0  0  0  0  0  0  0  0  0  0  0
  -24.6280  -13.3960   20.8320 C   0  0  0  0  0  0  0  0  0  0  0  0
  -25.0530  -12.0320   20.8640 C   0  0  0  0  0  0  0  0  0  0  0  0
  -26.7670  -13.2140   20.3820 N   0  0  0  0  0  0  0  0  0  0  0  0
  -26.3610  -11.9480   20.6520 N   0  0  0  0  0  0  0  0  0  0  0  0
  -24.2760  -10.7970   21.0240 C   0  0  0  0  0  0  0  0  0  0  0  0
  -24.6290   -9.8240   21.9840 C   0  0  0  0  0  3  0  0  0  0  0  0
  -23.8540   -8.6550   22.1350 C   0  0  0  0  0  3  0  0  0  0  0  0
  -22.7120   -8.4510   21.3240 C   0  0  0  0  0  0  0  0  0  0  0  0
  -22.3790   -9.4120   20.3530 C   0  0  0  0  0  3  0  0  0  0  0  0
  -23.1550  -10.5730   20.2000 C   0  0  0  0  0  3  0  0  0  0  0  0
  -21.9140   -7.3330   21.3810 O   0  0  0  0  0  0  0  0  0  0  0  0
  -21.7890   -6.5990   22.5320 C   0  0  0  0  0  0  0  0  0  0  0  0
  -21.3430   -7.1790   23.7410 C   0  0  0  0  0  3  0  0  0  0  0  0
  -21.1610   -6.3740   24.8830 C   0  0  0  0  0  3  0  0  0  0  0  0
  -21.4130   -4.9900   24.8170 C   0  0  0  0  0  0  0  0  0  0  0  0
  -21.8520   -4.4100   23.6140 C   0  0  0  0  0  3  0  0  0  0  0  0
  -22.0360   -5.2130   22.4750 C   0  0  0  0  0  0  0  0  0  0  0  0
  -22.4390   -4.6460   21.3120 F   0  0  0  0  0  0  0  0  0  0  0  0
  -21.2320   -4.2150   25.9120 F   0  0  0  0  0  0  0  0  0  0  0  0
  -23.2300  -13.9210   20.9830 C   0  0  0  0  0  0  0  0  0  0  0  0
  -22.4230  -13.2810   21.8200 N   0  0  0  0  0  0  0  0  0  0  0  0
  -22.8620  -14.9370   20.3950 O   0  0  0  0  0  0  0  0  0  0  0  0
  -22.7340  -12.4590   22.3190 H   0  0  0  0  0  0  0  0  0  0  0  0
  -21.4810  -13.6160   21.9660 H   0  0  0  0  0  0  0  0  0  0  0  0
  -25.9560  -15.4920   20.3350 N   0  0  0  0  0  0  0  0  0  0  0  0
  -25.2000  -16.1670   20.3760 H   0  0  0  0  0  0  0  0  0  0  0  0
  -26.8370  -15.9020   20.0580 H   0  0  0  0  0  0  0  0  0  0  0  0
  -31.1940  -20.8410   22.4260 C   0  0  0  0  0  1  0  0  0  0  0  0
  -29.8600  -20.1080   22.1910 C   0  0  0  0  0  2  0  0  0  0  0  0
  -29.1810  -21.3660   20.0130 C   0  0  0  0  0  3  0  0  0  0  0  0
  -28.8910  -22.9840   20.6800 C   0  0  0  0  0  3  0  0  0  0  0  0
  -28.2120  -24.4550   19.9600 C   0  0  0  0  0  2  0  0  0  0  0  0
  -28.3270  -26.0420   20.2880 O   0  0  0  0  0  0  0  0  0  0  0  0
  -24.6560  -31.8990   23.1530 C   0  0  0  0  0  0  0  0  0  0  0  0
  -27.2830  -27.0820   20.1750 C   0  0  0  0  0  0  0  0  0  0  0  0
  -23.4750  -30.4690   21.5320 C   0  0  0  0  0  3  0  0  0  0  0  0
  -24.9440  -28.8810   20.1170 C   0  0  0  0  0  0  0  0  0  0  0  0
  -26.0320  -30.7330   21.3700 C   0  0  0  0  0  2  0  0  0  0  0  0
  -26.1220  -29.3250   20.7290 C   0  0  0  0  0  0  0  0  0  0  0  0
  -27.2840  -28.4420   20.7390 C   0  0  0  0  0  3  0  0  0  0  0  0
  -26.0770  -26.7790   19.5030 C   0  0  0  0  0  3  0  0  0  0  0  0
  -24.9420  -27.6280   19.4840 C   0  0  0  0  0  3  0  0  0  0  0  0
  -23.7070  -29.7760   20.1600 C   0  0  0  0  0  2  0  0  0  0  0  0
  -24.7410  -31.0600   22.0720 N   0  0  0  0  0  0  0  0  0  0  0  0
  -23.5640  -32.1770   23.6780 O   0  0  0  0  0  0  0  0  0  0  0  0
  -22.8020  -29.4710   22.5090 C   0  0  0  0  0  0  0  0  0  0  0  0
  -21.4730  -29.2950   22.3990 N   0  0  0  0  0  0  0  0  0  0  0  0
  -23.4830  -28.8540   23.3330 O   0  0  0  0  0  0  0  0  0  0  0  0
  -20.9770  -29.8420   21.7090 H   0  0  0  0  0  0  0  0  0  0  0  0
  -18.1030  -28.0730   22.9510 C   0  0  0  0  0  0  0  0  0  0  0  0
  -20.6650  -28.3560   23.1840 C   0  0  0  0  0  3  0  0  0  0  0  0
  -20.7690  -26.9220   22.6150 C   0  0  0  0  0  2  0  0  0  0  0  0
  -19.6570  -26.5880   21.6140 C   0  0  0  0  0  2  0  0  0  0  0  0
  -18.2820  -26.7230   22.2750 C   0  0  0  0  0  2  0  0  0  0  0  0
  -19.2210  -28.8470   23.3620 C   0  0  0  0  0  0  0  0  0  0  0  0
  -18.9980  -30.1070   23.9590 C   0  0  0  0  0  3  0  0  0  0  0  0
  -17.6910  -30.5950   24.1440 C   0  0  0  0  0  3  0  0  0  0  0  0
  -16.5880  -29.8200   23.7450 C   0  0  0  0  0  3  0  0  0  0  0  0
  -16.7960  -28.5600   23.1550 C   0  0  0  0  0  3  0  0  0  0  0  0
  -25.9220  -32.5630   23.7730 C   0  0  0  0  0  3  0  0  0  0  0  0
  -25.5800  -33.9550   24.1170 N   0  0  0  0  0  0  0  0  0  0  0  0
  -25.9070  -35.0280   23.3840 C   0  0  0  0  0  0  0  0  0  0  0  0
  -26.5920  -34.9500   22.3600 O   0  0  0  0  0  0  0  0  0  0  0  0
  -24.9710  -34.0870   24.9100 H   0  0  0  0  0  0  0  0  0  0  0  0
  -24.1600  -36.8080   23.0400 C   0  0  0  0  0  1  0  0  0  0  0  0
  -25.3970  -36.4040   23.8590 C   0  0  0  0  0  3  0  0  0  0  0  0
  -27.5130  -37.3020   24.7260 C   0  0  0  0  0  1  0  0  0  0  0  0
  -26.4180  -37.4720   23.7760 N   0  0  0  0  0  0  0  0  0  0  0  0
  -25.9980  -38.3840   23.9350 H   0  0  0  0  0  0  0  0  0  0  0  0
  -26.4550  -31.8040   25.0520 C   0  0  1  0  0  0  0  0  0  0  0  0
  -25.3710  -31.5530   26.1260 C   0  0  0  0  0  1  0  0  0  0  0  0
  -27.0590  -30.4340   24.6670 C   0  0  0  0  0  1  0  0  0  0  0  0
  -27.5970  -32.6190   25.7050 C   0  0  0  0  0  1  0  0  0  0  0  0
  1  2  1  1
  1 50  1  0
  3  5  2  0
  3  4  1  0
  4  6  2  0
  5  7  1  0
  6  8  1  0
  7  9  1  0
  7  8  2  0
  8 10  1  0
  9 11  1  0
 10 12  1  0
 11 12  1  0
 11 13  1  0
 12  1  1  0
 13 19  1  0
 14 19  1  0
 15 16  1  0
 15 14  1  0
 17 16  1  0
 17 24  1  0
 17 18  1  0
 19 18  1  0
 20 13  2  0
 21 22  2  0
 22 23  1  0
 22 41  1  0
 23 26  1  0
 24 21  1  0
 24 25  1  0
 25 23  2  0
 26 27  1  0
 27 28  2  0
 29 32  1  0
 29 28  1  0
 30 29  2  0
 31 30  1  0
 31 26  2  0
 32 33  1  0
 33 34  1  0
 34 35  2  0
 36 35  1  0
 36 40  1  0
 37 36  2  0
 38 33  2  0
 38 37  1  0
 39 38  1  0
 41 42  1  0
 42 45  1  0
 42 44  1  0
 43 41  2  0
 46 47  1  0
 46 21  1  0
 48 46  1  0
 50 49  1  0
 51 52  2  0
 51  1  1  0
 53 54  1  0
 53 52  1  0
 55 66  2  0
 56 54  1  0
 56 61  1  0
 57 65  1  0
 57 67  1  0
 58 64  1  0
 58 60  1  0
 59 65  1  0
 60 61  2  0
 60 59  1  0
 62 56  2  0
 63 62  1  0
 63 58  2  0
 64 57  1  0
 65 55  1  0
 67 69  2  0
 68 67  1  0
 70 68  1  0
 71 80  2  0
 71 76  1  0
 72 68  1  0
 72 76  1  0
 73 72  1  0
 74 75  1  0
 74 73  1  0
 75 71  1  0
 76 77  2  0
 77 78  1  0
 79 78  2  0
 80 79  1  0
 81 55  1  0
 81 82  1  0
 81 91  1  0
 82 85  1  0
 83 87  1  0
 83 82  1  0
 84 83  2  0
 87 86  1  0
 89 87  1  0
 89 90  1  0
 89 88  1  0
 91 94  1  1
 91 92  1  0
 93 91  1  0
M  ISO  4  11 100  13 100  53 101  54 101
M  END
>  <TORSDO>  (39) 
F 21

>  <SCORE>  (39) 
-14.075

>  <name>  (39) 
38

>  <ligand_id>  (39) 
38

>  <original_smiles>  (39) 
[H]c1c([H])c([H])c2c(c1[H])C([H])([H])C([H])([H])C([H])([H])C2([H])N([H])C(=O)C1([H])N(C(=O)C([H])(N([H])C(=O)C([H])(N([H])C([H])([H])[H])C([H])([H])[H])C(C([H])([H])[H])(C([H])([H])[H])C([H])([H])[H])C([H])([H])c2c([H])c(OC([H])([H])C([H])([H])C([H])([H])[N+]([H])(C([H])([H])C([H])([H])[H])C3([H])C([H])([H])c4c([H])c([H])c([H])c([H])c4C([H])([H])C3([H])C(=O)N3C([H])([H])C([H])([H])C([H])([H])C([H])(n4nc(-c5c([H])c([H])c(Oc6c([H])c([H])c(F)c([H])c6F)c([H])c5[H])c(C(=O)N([H])[H])c4N([H])[H])C3([H])[H])c([H])c([H])c2C1([H])[H]

>  <smiles>  (39) 
[H]c1c([H])c([H])c2c(c1[H])C([H])([H])C([H])([H])C([H])([H])C2([H])N([H])C(=O)C1([H])N(C(=O)C([H])(N([H])C(=O)C([H])(N([H])C([H])([H])[H])C([H])([H])[H])C(C([H])([H])[H])(C([H])([H])[H])C([H])([H])[H])C([H])([H])c2c([H])c(OC([H])([H])C([H])([H])C([H])([H])[N+]([H])(C([H])([H])C([H])([H])[H])C3([H])C([H])([H])c4c([H])c([H])c([H])c([H])c4C([H])([H])C3([H])C(=O)N3C([H])([H])C([H])([H])C([H])([H])C([H])(n4nc(-c5c([H])c([H])c(Oc6c([H])c([H])c(F)c([H])c6F)c([H])c5[H])c(C(=O)N([H])[H])c4N([H])[H])C3([H])[H])c([H])c([H])c2C1([H])[H]

$$$$
39:0:0
     RDKit          3D

 94102  0  0  1  0  0  0  0  0999 V2000
  -28.7170  -22.9430   22.8540 C   0  0  0  0  0  3  0  0  0  0  0  0
  -27.7900  -23.9720   23.1110 C   0  0  0  0  0  3  0  0  0  0  0  0
  -29.9330  -24.4420   21.3770 C   0  0  0  0  0  3  0  0  0  0  0  0
  -29.8100  -23.1760   21.9900 C   0  0  0  0  0  0  0  0  0  0  0  0
  -27.9420  -25.2530   22.5330 C   0  0  0  0  0  0  0  0  0  0  0  0
  -29.0300  -25.4940   21.6510 C   0  0  0  0  0  0  0  0  0  0  0  0
  -26.9330  -26.3380   22.8800 C   0  0  0  0  0  1  0  0  0  0  0  0
  -30.8900  -22.1350   21.7070 C   0  0  0  0  0  2  0  0  0  0  0  0
  -30.8090  -20.7900   22.4650 C   0  0  0  0  0  2  0  0  0  0  0  0
  -30.0400  -19.6810   21.7110 C   0  0  0  0  0  2  0  0  0  0  0  0
  -30.5560  -18.2450   21.9720 C   0  0  0  0  0  2  0  0  0  0  0  0
  -32.4210  -18.5110   20.3300 C   0  0  0  0  0  1  0  0  0  0  0  0
  -31.3220  -17.6520   20.8320 N   0  0  1  0  0  4  0  0  0  0  0  0
  -30.6840  -17.5560   20.0560 H   0  0  0  0  0  0  0  0  0  0  0  0
  -31.8120  -16.2860   21.1420 C   0  0  0  0  0  2  0  0  0  0  0  0
  -30.7630  -15.1900   20.8600 C   0  0  0  0  0  2  0  0  0  0  0  0
  -31.1650  -14.1470   19.8020 C   0  0  0  0  0  0  0  0  0  0  0  0
  -30.8650  -11.8480   18.9360 C   0  0  0  0  0  2  0  0  0  0  0  0
  -29.8580  -11.7670   17.7750 C   0  0  0  0  0  2  0  0  0  0  0  0
  -28.4120  -11.6660   18.2970 C   0  0  0  0  0  2  0  0  0  0  0  0
  -28.0980  -12.7430   19.3670 C   0  0  0  0  0  3  0  0  0  0  0  0
  -29.1900  -12.7460   20.4550 C   0  0  0  0  0  2  0  0  0  0  0  0
  -30.4900  -12.9720   19.7990 N   0  0  0  0  0  0  0  0  0  0  0  0
  -32.1040  -14.3840   19.0320 O   0  0  0  0  0  0  0  0  0  0  0  0
  -25.7940  -13.4920   20.2480 C   0  0  0  0  0  0  0  0  0  0  0  0
  -24.7200  -12.7780   20.7110 C   0  0  0  0  0  0  0  0  0  0  0  0
  -25.1070  -11.4060   20.6590 C   0  0  0  0  0  0  0  0  0  0  0  0
  -26.7720  -12.5530   19.9480 N   0  0  0  0  0  0  0  0  0  0  0  0
  -26.3640  -11.2950   20.2500 N   0  0  0  0  0  0  0  0  0  0  0  0
  -24.3370  -10.1830   20.9200 C   0  0  0  0  0  0  0  0  0  0  0  0
  -24.7250   -9.2700   21.9260 C   0  0  0  0  0  3  0  0  0  0  0  0
  -23.9620   -8.1070   22.1700 C   0  0  0  0  0  3  0  0  0  0  0  0
  -22.7950   -7.8520   21.4090 C   0  0  0  0  0  0  0  0  0  0  0  0
  -22.4290   -8.7520   20.3940 C   0  0  0  0  0  3  0  0  0  0  0  0
  -23.1920   -9.9060   20.1490 C   0  0  0  0  0  3  0  0  0  0  0  0
  -22.0070   -6.7380   21.5590 O   0  0  0  0  0  0  0  0  0  0  0  0
  -21.8410   -6.1310   22.7790 C   0  0  0  0  0  0  0  0  0  0  0  0
  -21.3190   -6.8240   23.8920 C   0  0  0  0  0  3  0  0  0  0  0  0
  -21.1020   -6.1430   25.1070 C   0  0  0  0  0  3  0  0  0  0  0  0
  -21.3950   -4.7710   25.2080 C   0  0  0  0  0  0  0  0  0  0  0  0
  -21.9110   -4.0770   24.0980 C   0  0  0  0  0  3  0  0  0  0  0  0
  -22.1310   -4.7550   22.8870 C   0  0  0  0  0  0  0  0  0  0  0  0
  -22.6070   -4.0780   21.8150 F   0  0  0  0  0  0  0  0  0  0  0  0
  -21.1800   -4.1140   26.3730 F   0  0  0  0  0  0  0  0  0  0  0  0
  -23.3730  -13.3280   21.0840 C   0  0  0  0  0  0  0  0  0  0  0  0
  -22.6840  -12.6780   22.0170 N   0  0  0  0  0  0  0  0  0  0  0  0
  -22.9440  -14.3650   20.5820 O   0  0  0  0  0  0  0  0  0  0  0  0
  -23.0470  -11.8400   22.4450 H   0  0  0  0  0  0  0  0  0  0  0  0
  -21.7800  -13.0240   22.3060 H   0  0  0  0  0  0  0  0  0  0  0  0
  -26.0210  -14.8480   20.0400 N   0  0  0  0  0  0  0  0  0  0  0  0
  -25.3130  -15.5560   20.1980 H   0  0  0  0  0  0  0  0  0  0  0  0
  -26.8690  -15.2220   19.6300 H   0  0  0  0  0  0  0  0  0  0  0  0
  -29.2970  -26.8610   21.0150 C   0  0  0  0  0  2  0  0  0  0  0  0
  -28.5610  -27.0720   19.8020 O   0  0  0  0  0  0  0  0  0  0  0  0
  -24.7870  -31.9750   23.3280 C   0  0  0  0  0  0  0  0  0  0  0  0
  -27.4040  -27.8100   19.9010 C   0  0  0  0  0  0  0  0  0  0  0  0
  -23.5400  -30.6450   21.6530 C   0  0  0  0  0  3  0  0  0  0  0  0
  -24.9700  -29.2330   20.0770 C   0  0  0  0  0  0  0  0  0  0  0  0
  -26.0400  -31.0840   21.3740 C   0  0  0  0  0  2  0  0  0  0  0  0
  -26.1340  -29.7570   20.6560 C   0  0  0  0  0  0  0  0  0  0  0  0
  -27.3510  -29.0530   20.5720 C   0  0  0  0  0  3  0  0  0  0  0  0
  -26.2360  -27.3050   19.2950 C   0  0  0  0  0  3  0  0  0  0  0  0
  -25.0150  -28.0050   19.3960 C   0  0  0  0  0  3  0  0  0  0  0  0
  -23.7060  -30.0540   20.2280 C   0  0  0  0  0  2  0  0  0  0  0  0
  -24.8100  -31.2440   22.1790 N   0  0  0  0  0  0  0  0  0  0  0  0
  -23.7220  -32.1970   23.9200 O   0  0  0  0  0  0  0  0  0  0  0  0
  -22.9490  -29.5510   22.5670 C   0  0  0  0  0  0  0  0  0  0  0  0
  -21.6350  -29.3090   22.4350 N   0  0  0  0  0  0  0  0  0  0  0  0
  -23.6690  -28.9260   23.3520 O   0  0  0  0  0  0  0  0  0  0  0  0
  -21.1180  -29.8660   21.7700 H   0  0  0  0  0  0  0  0  0  0  0  0
  -18.3360  -27.9070   22.8400 C   0  0  0  0  0  0  0  0  0  0  0  0
  -20.8700  -28.3020   23.1650 C   0  0  0  0  0  3  0  0  0  0  0  0
  -21.0660  -26.9000   22.5440 C   0  0  0  0  0  2  0  0  0  0  0  0
  -19.9970  -26.5440   21.5050 C   0  0  0  0  0  2  0  0  0  0  0  0
  -18.5980  -26.5920   22.1270 C   0  0  0  0  0  2  0  0  0  0  0  0
  -19.4020  -28.7180   23.3100 C   0  0  0  0  0  0  0  0  0  0  0  0
  -19.1010  -29.9540   23.9230 C   0  0  0  0  0  3  0  0  0  0  0  0
  -17.7660  -30.3710   24.0840 C   0  0  0  0  0  3  0  0  0  0  0  0
  -16.7140  -29.5520   23.6380 C   0  0  0  0  0  3  0  0  0  0  0  0
  -17.0020  -28.3230   23.0180 C   0  0  0  0  0  3  0  0  0  0  0  0
  -26.0870  -32.5870   23.9400 C   0  0  0  0  0  3  0  0  0  0  0  0
  -25.7920  -33.9760   24.3170 N   0  0  0  0  0  0  0  0  0  0  0  0
  -26.1320  -35.0470   23.5870 C   0  0  0  0  0  0  0  0  0  0  0  0
  -26.8000  -34.9730   22.5510 O   0  0  0  0  0  0  0  0  0  0  0  0
  -25.2060  -34.1120   25.1260 H   0  0  0  0  0  0  0  0  0  0  0  0
  -24.4170  -36.8540   23.2800 C   0  0  0  0  0  1  0  0  0  0  0  0
  -25.6500  -36.4200   24.0880 C   0  0  0  0  0  3  0  0  0  0  0  0
  -27.7850  -37.2550   24.9630 C   0  0  0  0  0  1  0  0  0  0  0  0
  -26.6910  -37.4670   24.0190 N   0  0  0  0  0  0  0  0  0  0  0  0
  -26.2900  -38.3850   24.1990 H   0  0  0  0  0  0  0  0  0  0  0  0
  -26.6360  -31.7790   25.1760 C   0  0  1  0  0  0  0  0  0  0  0  0
  -25.5610  -31.5010   26.2520 C   0  0  0  0  0  1  0  0  0  0  0  0
  -27.2270  -30.4220   24.7240 C   0  0  0  0  0  1  0  0  0  0  0  0
  -27.7940  -32.5630   25.8390 C   0  0  0  0  0  1  0  0  0  0  0  0
  1  2  1  0
  3  6  2  0
  3  4  1  0
  4  1  2  0
  5  7  1  0
  5  2  2  0
  6  5  1  0
  8  4  1  0
  8  9  1  0
 10 11  1  0
 10  9  1  0
 12 13  1  0
 13 15  1  0
 13 11  1  0
 13 14  1  6
 16 15  1  0
 17 16  1  0
 18 23  1  0
 19 20  1  0
 19 18  1  0
 21 20  1  0
 21 28  1  0
 21 22  1  0
 23 17  1  0
 23 22  1  0
 24 17  2  0
 25 26  2  0
 26 45  1  0
 27 26  1  0
 27 30  1  0
 28 25  1  0
 28 29  1  0
 29 27  2  0
 30 31  1  0
 31 32  2  0
 33 36  1  0
 33 32  1  0
 34 33  2  0
 35 34  1  0
 35 30  2  0
 36 37  1  0
 37 42  2  0
 37 38  1  0
 38 39  2  0
 39 40  1  0
 40 44  1  0
 41 40  2  0
 42 41  1  0
 43 42  1  0
 45 46  1  0
 46 49  1  0
 46 48  1  0
 47 45  2  0
 50 51  1  0
 50 25  1  0
 52 50  1  0
 53  6  1  0
 54 56  1  0
 54 53  1  0
 55 66  2  0
 56 61  1  0
 57 65  1  0
 57 67  1  0
 58 64  1  0
 58 60  1  0
 59 65  1  0
 60 59  1  0
 61 60  2  0
 62 63  1  0
 62 56  2  0
 63 58  2  0
 64 57  1  0
 65 55  1  0
 67 69  2  0
 68 67  1  0
 70 68  1  0
 71 80  2  0
 71 76  1  0
 72 68  1  0
 72 76  1  0
 73 72  1  0
 74 75  1  0
 74 73  1  0
 75 71  1  0
 76 77  2  0
 77 78  1  0
 79 78  2  0
 80 79  1  0
 81 55  1  0
 81 82  1  0
 81 91  1  0
 82 85  1  0
 83 87  1  0
 83 82  1  0
 84 83  2  0
 87 86  1  0
 89 87  1  0
 89 90  1  0
 89 88  1  0
 91 94  1  1
 91 92  1  0
 93 91  1  0
M  ISO  4  16 100  17 100  53 101  54 101
M  END
>  <TORSDO>  (40) 
F 24

>  <SCORE>  (40) 
-9.928

>  <name>  (40) 
39

>  <ligand_id>  (40) 
39

>  <original_smiles>  (40) 
[H]c1c([H])c([H])c2c(c1[H])C([H])([H])C([H])([H])C([H])([H])C2([H])N([H])C(=O)C1([H])N(C(=O)C([H])(N([H])C(=O)C([H])(N([H])C([H])([H])[H])C([H])([H])[H])C(C([H])([H])[H])(C([H])([H])[H])C([H])([H])[H])C([H])([H])c2c([H])c(OC([H])([H])c3c([H])c(C([H])([H])C([H])([H])C([H])([H])C([H])([H])[N+]([H])(C([H])([H])[H])C([H])([H])C([H])([H])C(=O)N4C([H])([H])C([H])([H])C([H])([H])C([H])(n5nc(-c6c([H])c([H])c(Oc7c([H])c([H])c(F)c([H])c7F)c([H])c6[H])c(C(=O)N([H])[H])c5N([H])[H])C4([H])[H])c([H])c([H])c3C([H])([H])[H])c([H])c([H])c2C1([H])[H]

>  <smiles>  (40) 
[H]c1c([H])c([H])c2c(c1[H])C([H])([H])C([H])([H])C([H])([H])C2([H])N([H])C(=O)C1([H])N(C(=O)C([H])(N([H])C(=O)C([H])(N([H])C([H])([H])[H])C([H])([H])[H])C(C([H])([H])[H])(C([H])([H])[H])C([H])([H])[H])C([H])([H])c2c([H])c(OC([H])([H])c3c([H])c(C([H])([H])C([H])([H])C([H])([H])C([H])([H])[N+]([H])(C([H])([H])[H])C([H])([H])C([H])([H])C(=O)N4C([H])([H])C([H])([H])C([H])([H])C([H])(n5nc(-c6c([H])c([H])c(Oc7c([H])c([H])c(F)c([H])c7F)c([H])c6[H])c(C(=O)N([H])[H])c5N([H])[H])C4([H])[H])c([H])c([H])c3C([H])([H])[H])c([H])c([H])c2C1([H])[H]

$$$$
40:0:0
     RDKit          3D

 94101  0  0  1  0  0  0  0  0999 V2000
  -29.4790  -20.4360   19.7440 C   0  0  0  0  0  3  0  0  0  0  0  0
  -29.3650  -19.3400   20.7630 N   0  0  0  0  0  4  0  0  0  0  0  0
  -29.2180  -19.7980   21.6470 H   0  0  0  0  0  0  0  0  0  0  0  0
  -28.5390  -18.7950   20.5830 H   0  0  0  0  0  0  0  0  0  0  0  0
  -30.5390  -18.4390   20.9920 C   0  0  0  0  0  2  0  0  0  0  0  0
  -30.5100  -17.0570   20.2710 C   0  0  0  0  0  2  0  0  0  0  0  0
  -30.0990  -15.7800   21.0830 C   0  0  0  0  0  2  0  0  0  0  0  0
  -30.7230  -14.4800   20.4970 C   0  0  0  0  0  0  0  0  0  0  0  0
  -30.3840  -12.3290   19.3380 C   0  0  0  0  0  2  0  0  0  0  0  0
  -29.4620  -12.5410   18.1210 C   0  0  0  0  0  2  0  0  0  0  0  0
  -27.9860  -12.4120   18.5360 C   0  0  0  0  0  2  0  0  0  0  0  0
  -27.6370  -13.2610   19.7880 C   0  0  0  0  0  3  0  0  0  0  0  0
  -28.6800  -13.0560   20.9110 C   0  0  0  0  0  2  0  0  0  0  0  0
  -30.0120  -13.3260   20.3560 N   0  0  0  0  0  0  0  0  0  0  0  0
  -31.8680  -14.5750   20.0510 O   0  0  0  0  0  0  0  0  0  0  0  0
  -25.2320  -13.8800   20.4630 C   0  0  0  0  0  0  0  0  0  0  0  0
  -24.1560  -13.1090   20.8210 C   0  0  0  0  0  0  0  0  0  0  0  0
  -24.6150  -11.7570   20.8070 C   0  0  0  0  0  0  0  0  0  0  0  0
  -26.2780  -12.9920   20.2520 N   0  0  0  0  0  0  0  0  0  0  0  0
  -25.9100  -11.7140   20.5180 N   0  0  0  0  0  0  0  0  0  0  0  0
  -23.8830  -10.4960   20.9940 C   0  0  0  0  0  0  0  0  0  0  0  0
  -24.2920   -9.5410   21.9480 C   0  0  0  0  0  3  0  0  0  0  0  0
  -23.5620   -8.3450   22.1230 C   0  0  0  0  0  3  0  0  0  0  0  0
  -22.4080   -8.0980   21.3420 C   0  0  0  0  0  0  0  0  0  0  0  0
  -22.0170   -9.0450   20.3780 C   0  0  0  0  0  3  0  0  0  0  0  0
  -22.7480  -10.2310   20.2020 C   0  0  0  0  0  3  0  0  0  0  0  0
  -21.6500   -6.9560   21.4260 O   0  0  0  0  0  0  0  0  0  0  0  0
  -21.5630   -6.2310   22.5880 C   0  0  0  0  0  0  0  0  0  0  0  0
  -21.0840   -6.8010   23.7880 C   0  0  0  0  0  3  0  0  0  0  0  0
  -20.9480   -6.0030   24.9410 C   0  0  0  0  0  3  0  0  0  0  0  0
  -21.2820   -4.6360   24.8960 C   0  0  0  0  0  0  0  0  0  0  0  0
  -21.7540   -4.0650   23.7010 C   0  0  0  0  0  3  0  0  0  0  0  0
  -21.8930   -4.8610   22.5500 C   0  0  0  0  0  0  0  0  0  0  0  0
  -22.3290   -4.3030   21.3940 F   0  0  0  0  0  0  0  0  0  0  0  0
  -21.1430   -3.8670   26.0010 F   0  0  0  0  0  0  0  0  0  0  0  0
  -22.7570  -13.5900   21.0710 C   0  0  0  0  0  0  0  0  0  0  0  0
  -22.0130  -12.8960   21.9250 N   0  0  0  0  0  0  0  0  0  0  0  0
  -22.3290  -14.6160   20.5420 O   0  0  0  0  0  0  0  0  0  0  0  0
  -22.3720  -12.0650   22.3730 H   0  0  0  0  0  0  0  0  0  0  0  0
  -21.0720  -13.1980   22.1350 H   0  0  0  0  0  0  0  0  0  0  0  0
  -25.4030  -15.2470   20.2790 N   0  0  0  0  0  0  0  0  0  0  0  0
  -24.6340  -15.9020   20.3650 H   0  0  0  0  0  0  0  0  0  0  0  0
  -26.2570  -15.6750   19.9470 H   0  0  0  0  0  0  0  0  0  0  0  0
  -29.2030  -21.8630   20.3650 C   0  0  0  0  0  2  0  0  0  0  0  0
  -29.9140  -23.0390   19.6250 C   0  0  0  0  0  2  0  0  0  0  0  0
  -29.6870  -24.5140   20.1170 C   0  0  0  0  0  2  0  0  0  0  0  0
  -28.3670  -25.2590   19.7490 C   0  0  0  0  0  2  0  0  0  0  0  0
  -28.3970  -26.6460   20.1760 O   0  0  0  0  0  0  0  0  0  0  0  0
  -24.5610  -31.8860   23.2300 C   0  0  0  0  0  0  0  0  0  0  0  0
  -27.2190  -27.3910   20.1660 C   0  0  0  0  0  0  0  0  0  0  0  0
  -23.3680  -30.4860   21.5810 C   0  0  0  0  0  3  0  0  0  0  0  0
  -24.8300  -28.9360   20.1720 C   0  0  0  0  0  0  0  0  0  0  0  0
  -25.9010  -30.8180   21.4120 C   0  0  0  0  0  2  0  0  0  0  0  0
  -25.9890  -29.4450   20.7690 C   0  0  0  0  0  0  0  0  0  0  0  0
  -27.1850  -28.6800   20.7620 C   0  0  0  0  0  3  0  0  0  0  0  0
  -26.0290  -26.9030   19.5770 C   0  0  0  0  0  3  0  0  0  0  0  0
  -24.8440  -27.6640   19.5780 C   0  0  0  0  0  3  0  0  0  0  0  0
  -23.5890  -29.8050   20.2050 C   0  0  0  0  0  2  0  0  0  0  0  0
  -24.6280  -31.0790   22.1320 N   0  0  0  0  0  0  0  0  0  0  0  0
  -23.4760  -32.1660   23.7550 O   0  0  0  0  0  0  0  0  0  0  0  0
  -22.7030  -29.4690   22.5380 C   0  0  0  0  0  0  0  0  0  0  0  0
  -21.3790  -29.2910   22.4020 N   0  0  0  0  0  0  0  0  0  0  0  0
  -23.3780  -28.8380   23.3570 O   0  0  0  0  0  0  0  0  0  0  0  0
  -20.8980  -29.8500   21.7110 H   0  0  0  0  0  0  0  0  0  0  0  0
  -17.9940  -28.1200   22.8910 C   0  0  0  0  0  0  0  0  0  0  0  0
  -20.5530  -28.3570   23.1660 C   0  0  0  0  0  3  0  0  0  0  0  0
  -20.6450  -26.9290   22.5830 C   0  0  0  0  0  2  0  0  0  0  0  0
  -19.5410  -26.6210   21.5660 C   0  0  0  0  0  2  0  0  0  0  0  0
  -18.1590  -26.7730   22.2090 C   0  0  0  0  0  2  0  0  0  0  0  0
  -19.1190  -28.8710   23.3260 C   0  0  0  0  0  0  0  0  0  0  0  0
  -18.9110  -30.1320   23.9270 C   0  0  0  0  0  3  0  0  0  0  0  0
  -17.6100  -30.6440   24.0900 C   0  0  0  0  0  3  0  0  0  0  0  0
  -16.5000  -29.8910   23.6690 C   0  0  0  0  0  3  0  0  0  0  0  0
  -16.6930  -28.6300   23.0780 C   0  0  0  0  0  3  0  0  0  0  0  0
  -25.8420  -32.5150   23.8610 C   0  0  0  0  0  3  0  0  0  0  0  0
  -25.5340  -33.9140   24.1800 N   0  0  0  0  0  0  0  0  0  0  0  0
  -25.8810  -34.9610   23.4180 C   0  0  0  0  0  0  0  0  0  0  0  0
  -26.5660  -34.8500   22.3980 O   0  0  0  0  0  0  0  0  0  0  0  0
  -24.9220  -34.0750   24.9660 H   0  0  0  0  0  0  0  0  0  0  0  0
  -24.1700  -36.7620   23.0240 C   0  0  0  0  0  1  0  0  0  0  0  0
  -25.3920  -36.3540   23.8610 C   0  0  0  0  0  3  0  0  0  0  0  0
  -27.5150  -37.2310   24.7310 C   0  0  0  0  0  1  0  0  0  0  0  0
  -26.4330  -37.4000   23.7630 N   0  0  0  0  0  0  0  0  0  0  0  0
  -26.0290  -38.3240   23.8990 H   0  0  0  0  0  0  0  0  0  0  0  0
  -26.3430  -31.7480   25.1460 C   0  0  1  0  0  0  0  0  0  0  0  0
  -25.2360  -31.5150   26.2020 C   0  0  0  0  0  1  0  0  0  0  0  0
  -26.9250  -30.3660   24.7640 C   0  0  0  0  0  1  0  0  0  0  0  0
  -27.4910  -32.5380   25.8170 C   0  0  0  0  0  1  0  0  0  0  0  0
  -28.5340  -20.1810   18.5170 C   0  0  0  0  0  3  0  0  0  0  0  0
  -26.0710  -20.4990   17.9070 C   0  0  0  0  0  1  0  0  0  0  0  0
  -26.7260  -18.3930   19.1320 C   0  0  0  0  0  1  0  0  0  0  0  0
  -27.0550  -19.8860   18.9170 C   0  0  0  0  0  3  0  0  0  0  0  0
  -30.3550  -19.5680   16.7430 C   0  0  0  0  0  1  0  0  0  0  0  0
  -29.0460  -19.1820   17.4450 C   0  0  0  0  0  2  0  0  0  0  0  0
  1 44  1  0
  1  2  1  0
  2  5  1  0
  2  3  1  0
  4  2  1  0
  6  5  1  0
  6  7  1  0
  8  7  1  0
  9 14  1  0
 10 11  1  0
 10  9  1  0
 12 11  1  0
 12 19  1  0
 12 13  1  0
 14  8  1  0
 14 13  1  0
 15  8  2  0
 16 17  2  0
 17 36  1  0
 18 17  1  0
 18 21  1  0
 19 16  1  0
 19 20  1  0
 20 18  2  0
 21 22  1  0
 22 23  2  0
 24 27  1  0
 24 23  1  0
 25 24  2  0
 26 25  1  0
 26 21  2  0
 27 28  1  0
 28 29  1  0
 29 30  2  0
 31 30  1  0
 31 35  1  0
 32 31  2  0
 33 28  2  0
 33 32  1  0
 34 33  1  0
 36 37  1  0
 37 40  1  0
 37 39  1  0
 38 36  2  0
 41 42  1  0
 41 16  1  0
 43 41  1  0
 45 46  1  0
 45 44  1  0
 47 46  1  0
 47 48  1  0
 49 60  2  0
 50 48  1  0
 50 55  1  0
 51 59  1  0
 51 61  1  0
 52 58  1  0
 52 54  1  0
 53 59  1  0
 54 53  1  0
 55 54  2  0
 56 57  1  0
 56 50  2  0
 57 52  2  0
 58 51  1  0
 59 49  1  0
 61 63  2  0
 62 61  1  0
 64 62  1  0
 65 74  2  0
 65 70  1  0
 66 62  1  0
 66 70  1  0
 67 66  1  0
 68 69  1  0
 68 67  1  0
 69 65  1  0
 70 71  2  0
 71 72  1  0
 73 72  2  0
 74 73  1  0
 75 49  1  0
 75 76  1  0
 75 85  1  0
 76 79  1  0
 77 81  1  0
 77 76  1  0
 78 77  2  0
 81 80  1  0
 83 81  1  0
 83 84  1  0
 83 82  1  0
 85 88  1  1
 85 86  1  0
 87 85  1  0
 89 94  1  0
 89 92  1  0
 89  1  1  0
 90 92  1  0
 92 91  1  0
 93 94  1  0
M  ISO  4   7 100   8 100  47 101  48 101
M  END
>  <TORSDO>  (41) 
F 27

>  <SCORE>  (41) 
-11.791

>  <name>  (41) 
40

>  <ligand_id>  (41) 
40

>  <original_smiles>  (41) 
[H]c1c([H])c([H])c2c(c1[H])C([H])([H])C([H])([H])C([H])([H])C2([H])N([H])C(=O)C1([H])N(C(=O)C([H])(N([H])C(=O)C([H])(N([H])C([H])([H])[H])C([H])([H])[H])C(C([H])([H])[H])(C([H])([H])[H])C([H])([H])[H])C([H])([H])c2c([H])c(OC([H])([H])C([H])([H])C([H])([H])C([H])([H])C([H])(C([H])(C([H])([H])C([H])([H])[H])C([H])(C([H])([H])[H])C([H])([H])[H])[N+]([H])([H])C([H])([H])C([H])([H])C([H])([H])C(=O)N3C([H])([H])C([H])([H])C([H])([H])C([H])(n4nc(-c5c([H])c([H])c(Oc6c([H])c([H])c(F)c([H])c6F)c([H])c5[H])c(C(=O)N([H])[H])c4N([H])[H])C3([H])[H])c([H])c([H])c2C1([H])[H]

>  <smiles>  (41) 
[H]c1c([H])c([H])c2c(c1[H])C([H])([H])C([H])([H])C([H])([H])C2([H])N([H])C(=O)C1([H])N(C(=O)C([H])(N([H])C(=O)C([H])(N([H])C([H])([H])[H])C([H])([H])[H])C(C([H])([H])[H])(C([H])([H])[H])C([H])([H])[H])C([H])([H])c2c([H])c(OC([H])([H])C([H])([H])C([H])([H])C([H])([H])C([H])(C([H])(C([H])([H])C([H])([H])[H])C([H])(C([H])([H])[H])C([H])([H])[H])[N+]([H])([H])C([H])([H])C([H])([H])C([H])([H])C(=O)N3C([H])([H])C([H])([H])C([H])([H])C([H])(n4nc(-c5c([H])c([H])c(Oc6c([H])c([H])c(F)c([H])c6F)c([H])c5[H])c(C(=O)N([H])[H])c4N([H])[H])C3([H])[H])c([H])c([H])c2C1([H])[H]

$$$$
41:0:0
     RDKit          3D

 89 96  0  0  1  0  0  0  0  0999 V2000
  -29.1050  -19.2160   20.0550 C   0  0  0  0  0  0  0  0  0  0  0  0
  -29.3890  -20.5970   20.2040 N   0  0  0  0  0  0  0  0  0  0  0  0
  -27.9270  -18.8900   19.9190 O   0  0  0  0  0  0  0  0  0  0  0  0
  -30.3710  -20.8180   20.3050 H   0  0  0  0  0  0  0  0  0  0  0  0
  -28.4230  -21.8380   20.2530 C   0  0  0  0  0  2  0  0  0  0  0  0
  -28.8830  -23.4400   20.4430 C   0  0  0  0  0  3  0  0  0  0  0  0
  -27.8340  -24.7330   20.2430 C   0  0  0  0  0  3  0  0  0  0  0  0
  -28.1130  -26.2460   20.4250 O   0  0  0  0  0  0  0  0  0  0  0  0
  -24.5100  -31.9820   23.2760 C   0  0  0  0  0  0  0  0  0  0  0  0
  -27.0570  -27.2180   20.3320 C   0  0  0  0  0  0  0  0  0  0  0  0
  -23.2980  -30.5650   21.6630 C   0  0  0  0  0  3  0  0  0  0  0  0
  -24.7340  -28.9590   20.2670 C   0  0  0  0  0  0  0  0  0  0  0  0
  -25.8520  -30.8160   21.4920 C   0  0  0  0  0  2  0  0  0  0  0  0
  -25.9160  -29.4140   20.8660 C   0  0  0  0  0  0  0  0  0  0  0  0
  -27.0780  -28.5600   20.8810 C   0  0  0  0  0  3  0  0  0  0  0  0
  -25.8490  -26.8580   19.6930 C   0  0  0  0  0  3  0  0  0  0  0  0
  -24.7130  -27.6920   19.6640 C   0  0  0  0  0  3  0  0  0  0  0  0
  -23.5120  -29.8610   20.2980 C   0  0  0  0  0  2  0  0  0  0  0  0
  -24.5730  -31.1430   22.1980 N   0  0  0  0  0  0  0  0  0  0  0  0
  -23.4260  -32.2850   23.8000 O   0  0  0  0  0  0  0  0  0  0  0  0
  -22.6140  -29.5810   22.6440 C   0  0  0  0  0  0  0  0  0  0  0  0
  -21.2970  -29.3630   22.4730 N   0  0  0  0  0  0  0  0  0  0  0  0
  -23.2700  -29.0140   23.5210 O   0  0  0  0  0  0  0  0  0  0  0  0
  -20.8240  -29.8720   21.7400 H   0  0  0  0  0  0  0  0  0  0  0  0
  -17.9490  -28.0340   22.8520 C   0  0  0  0  0  0  0  0  0  0  0  0
  -20.4710  -28.4380   23.2540 C   0  0  0  0  0  3  0  0  0  0  0  0
  -20.6740  -26.9780   22.7830 C   0  0  0  0  0  2  0  0  0  0  0  0
  -19.6530  -26.5380   21.7290 C   0  0  0  0  0  2  0  0  0  0  0  0
  -18.2280  -26.6550   22.2780 C   0  0  0  0  0  2  0  0  0  0  0  0
  -19.0030  -28.8770   23.2950 C   0  0  0  0  0  0  0  0  0  0  0  0
  -18.6900  -30.1620   23.7900 C   0  0  0  0  0  3  0  0  0  0  0  0
  -17.3540  -30.6060   23.8470 C   0  0  0  0  0  3  0  0  0  0  0  0
  -16.3140  -29.7620   23.4200 C   0  0  0  0  0  3  0  0  0  0  0  0
  -16.6120  -28.4790   22.9270 C   0  0  0  0  0  3  0  0  0  0  0  0
  -25.7940  -32.6190   23.8910 C   0  0  0  0  0  3  0  0  0  0  0  0
  -25.4940  -34.0260   24.1970 N   0  0  0  0  0  0  0  0  0  0  0  0
  -25.8010  -35.0620   23.4050 C   0  0  0  0  0  0  0  0  0  0  0  0
  -26.4360  -34.9340   22.3550 O   0  0  0  0  0  0  0  0  0  0  0  0
  -24.9260  -34.1990   25.0130 H   0  0  0  0  0  0  0  0  0  0  0  0
  -24.0480  -36.8420   23.0940 C   0  0  0  0  0  1  0  0  0  0  0  0
  -25.3340  -36.4630   23.8490 C   0  0  0  0  0  3  0  0  0  0  0  0
  -27.5000  -37.3870   24.5440 C   0  0  0  0  0  1  0  0  0  0  0  0
  -26.3540  -37.5150   23.6490 N   0  0  0  0  0  0  0  0  0  0  0  0
  -25.9500  -38.4390   23.7800 H   0  0  0  0  0  0  0  0  0  0  0  0
  -26.2970  -31.8700   25.1870 C   0  0  1  0  0  0  0  0  0  0  0  0
  -25.1910  -31.6440   26.2440 C   0  0  0  0  0  1  0  0  0  0  0  0
  -26.8910  -30.4880   24.8290 C   0  0  0  0  0  1  0  0  0  0  0  0
  -27.4350  -32.6800   25.8500 C   0  0  0  0  0  1  0  0  0  0  0  0
  -30.2050  -17.9780   20.0400 C   0  0  0  0  0  3  0  0  0  0  0  0
  -31.1610  -18.2010   22.4440 C   0  0  0  0  0  1  0  0  0  0  0  0
  -32.7370  -17.6830   20.5360 C   0  0  0  0  0  1  0  0  0  0  0  0
  -31.4230  -18.3720   20.9340 C   0  0  0  0  0  3  0  0  0  0  0  0
  -29.7380  -16.3800   20.2910 C   0  0  0  0  0  2  0  0  0  0  0  0
  -30.5810  -14.9970   19.9540 C   0  0  0  0  0  0  0  0  0  0  0  0
  -30.3740  -12.6930   18.9300 C   0  0  0  0  0  2  0  0  0  0  0  0
  -29.3510  -12.7600   17.7700 C   0  0  0  0  0  2  0  0  0  0  0  0
  -27.9140  -12.5630   18.2910 C   0  0  0  0  0  2  0  0  0  0  0  0
  -27.6190  -13.4270   19.5450 C   0  0  0  0  0  3  0  0  0  0  0  0
  -28.7520  -13.3340   20.5880 C   0  0  0  0  0  2  0  0  0  0  0  0
  -30.0000  -13.7330   19.9270 N   0  0  0  0  0  0  0  0  0  0  0  0
  -31.7420  -15.0850   19.5420 O   0  0  0  0  0  0  0  0  0  0  0  0
  -25.3060  -14.0160   20.4790 C   0  0  0  0  0  0  0  0  0  0  0  0
  -24.2570  -13.2420   20.8940 C   0  0  0  0  0  0  0  0  0  0  0  0
  -24.6930  -11.8870   20.7730 C   0  0  0  0  0  0  0  0  0  0  0  0
  -26.3130  -13.1310   20.1250 N   0  0  0  0  0  0  0  0  0  0  0  0
  -25.9570  -11.8430   20.3670 N   0  0  0  0  0  0  0  0  0  0  0  0
  -23.9590  -10.6280   20.9650 C   0  0  0  0  0  0  0  0  0  0  0  0
  -24.4070   -9.6410   21.8710 C   0  0  0  0  0  3  0  0  0  0  0  0
  -23.6720   -8.4500   22.0510 C   0  0  0  0  0  3  0  0  0  0  0  0
  -22.4740   -8.2360   21.3270 C   0  0  0  0  0  0  0  0  0  0  0  0
  -22.0450   -9.2130   20.4110 C   0  0  0  0  0  3  0  0  0  0  0  0
  -22.7800  -10.3960   20.2290 C   0  0  0  0  0  3  0  0  0  0  0  0
  -21.7090   -7.0990   21.4200 O   0  0  0  0  0  0  0  0  0  0  0  0
  -21.6420   -6.3690   22.5790 C   0  0  0  0  0  0  0  0  0  0  0  0
  -21.1600   -6.9260   23.7840 C   0  0  0  0  0  3  0  0  0  0  0  0
  -21.0410   -6.1210   24.9340 C   0  0  0  0  0  3  0  0  0  0  0  0
  -21.3950   -4.7590   24.8800 C   0  0  0  0  0  0  0  0  0  0  0  0
  -21.8690   -4.2010   23.6800 C   0  0  0  0  0  3  0  0  0  0  0  0
  -21.9890   -5.0030   22.5320 C   0  0  0  0  0  0  0  0  0  0  0  0
  -22.4270   -4.4560   21.3730 F   0  0  0  0  0  0  0  0  0  0  0  0
  -21.2740   -3.9830   25.9830 F   0  0  0  0  0  0  0  0  0  0  0  0
  -22.8920  -13.7280   21.2860 C   0  0  0  0  0  0  0  0  0  0  0  0
  -22.2170  -13.0100   22.1760 N   0  0  0  0  0  0  0  0  0  0  0  0
  -22.4360  -14.7810   20.8390 O   0  0  0  0  0  0  0  0  0  0  0  0
  -22.6010  -12.1590   22.5600 H   0  0  0  0  0  0  0  0  0  0  0  0
  -21.3040  -13.3170   22.4800 H   0  0  0  0  0  0  0  0  0  0  0  0
  -25.4830  -15.3900   20.3500 N   0  0  0  0  0  0  0  0  0  0  0  0
  -24.7420  -16.0520   20.5560 H   0  0  0  0  0  0  0  0  0  0  0  0
  -26.3200  -15.8340   19.9950 H   0  0  0  0  0  0  0  0  0  0  0  0
  1  2  1  0
  2  5  1  0
  2  4  1  0
  3  1  2  0
  5  6  1  0
  7  8  1  0
  7  6  2  0
  9 20  2  0
 10  8  1  0
 10 15  1  0
 11 19  1  0
 11 21  1  0
 12 18  1  0
 12 14  1  0
 13 19  1  0
 14 15  2  0
 14 13  1  0
 16 10  2  0
 17 16  1  0
 17 12  2  0
 18 11  1  0
 19  9  1  0
 21 23  2  0
 22 21  1  0
 24 22  1  0
 25 34  2  0
 25 30  1  0
 26 22  1  0
 26 30  1  0
 27 26  1  0
 28 29  1  0
 28 27  1  0
 29 25  1  0
 30 31  2  0
 31 32  1  0
 33 32  2  0
 34 33  1  0
 35  9  1  0
 35 36  1  0
 35 45  1  0
 36 39  1  0
 37 41  1  0
 37 36  1  0
 38 37  2  0
 41 40  1  0
 43 44  1  0
 43 41  1  0
 43 42  1  0
 45 48  1  1
 45 46  1  0
 47 45  1  0
 49  1  1  0
 49 53  1  0
 49 52  1  0
 51 52  1  0
 52 50  1  0
 54 53  1  0
 55 60  1  0
 56 57  1  0
 56 55  1  0
 58 57  1  0
 58 65  1  0
 58 59  1  0
 60 54  1  0
 60 59  1  0
 61 54  2  0
 62 63  2  0
 63 82  1  0
 64 63  1  0
 64 67  1  0
 65 66  1  0
 65 62  1  0
 66 64  2  0
 67 68  1  0
 68 69  2  0
 70 73  1  0
 70 69  1  0
 71 70  2  0
 72 71  1  0
 72 67  2  0
 73 74  1  0
 74 75  1  0
 75 76  2  0
 77 76  1  0
 77 81  1  0
 78 77  2  0
 79 74  2  0
 79 78  1  0
 80 79  1  0
 82 83  1  0
 83 86  1  0
 83 85  1  0
 84 82  2  0
 87 62  1  0
 87 88  1  0
 89 87  1  0
M  ISO  4   7 101   8 101  53 100  54 100
M  END
>  <TORSDO>  (42) 
F 22

>  <SCORE>  (42) 
-12.676

>  <name>  (42) 
41

>  <ligand_id>  (42) 
41

>  <original_smiles>  (42) 
[H]c1c([H])c([H])c2c(c1[H])C([H])([H])C([H])([H])C([H])([H])C2([H])N([H])C(=O)C1([H])N(C(=O)C([H])(N([H])C(=O)C([H])(N([H])C([H])([H])[H])C([H])([H])[H])C(C([H])([H])[H])(C([H])([H])[H])C([H])([H])[H])C([H])([H])c2c([H])c(OC([H])([H])C([H])([H])C([H])([H])N([H])C(=O)C([H])(C([H])([H])C(=O)N3C([H])([H])C([H])([H])C([H])([H])C([H])(n4nc(-c5c([H])c([H])c(Oc6c([H])c([H])c(F)c([H])c6F)c([H])c5[H])c(C(=O)N([H])[H])c4N([H])[H])C3([H])[H])C([H])(C([H])([H])[H])C([H])([H])[H])c([H])c([H])c2C1([H])[H]

>  <smiles>  (42) 
[H]c1c([H])c([H])c2c(c1[H])C([H])([H])C([H])([H])C([H])([H])C2([H])N([H])C(=O)C1([H])N(C(=O)C([H])(N([H])C(=O)C([H])(N([H])C([H])([H])[H])C([H])([H])[H])C(C([H])([H])[H])(C([H])([H])[H])C([H])([H])[H])C([H])([H])c2c([H])c(OC([H])([H])C([H])([H])C([H])([H])N([H])C(=O)C([H])(C([H])([H])C(=O)N3C([H])([H])C([H])([H])C([H])([H])C([H])(n4nc(-c5c([H])c([H])c(Oc6c([H])c([H])c(F)c([H])c6F)c([H])c5[H])c(C(=O)N([H])[H])c4N([H])[H])C3([H])[H])C([H])(C([H])([H])[H])C([H])([H])[H])c([H])c([H])c2C1([H])[H]

$$$$
42:0:0
     RDKit          3D

 92 99  0  0  1  0  0  0  0  0999 V2000
  -30.0700  -20.1360   20.3680 C   0  0  0  0  0  3  0  0  0  0  0  0
  -27.7200  -19.4000   20.3600 C   0  0  0  0  0  1  0  0  0  0  0  0
  -28.8610  -19.8620   21.1450 N   0  0  0  0  0  0  0  0  0  0  0  0
  -29.0740  -19.1700   21.8620 H   0  0  0  0  0  0  0  0  0  0  0  0
  -29.8720  -21.5000   19.5530 C   0  0  0  0  0  3  0  0  0  0  0  0
  -29.2570  -22.7480   20.3230 C   0  0  0  0  0  3  0  0  0  0  0  0
  -29.1770  -24.1670   19.6100 C   0  0  0  0  0  3  0  0  0  0  0  0
  -28.5130  -25.3260   20.4520 C   0  0  0  0  0  3  0  0  0  0  0  0
  -28.5810  -26.6980   19.9320 O   0  0  0  0  0  0  0  0  0  0  0  0
  -24.5880  -31.7500   23.1390 C   0  0  0  0  0  0  0  0  0  0  0  0
  -27.4110  -27.4510   19.9570 C   0  0  0  0  0  0  0  0  0  0  0  0
  -23.4510  -30.3570   21.4420 C   0  0  0  0  0  3  0  0  0  0  0  0
  -24.9730  -28.9150   19.9800 C   0  0  0  0  0  0  0  0  0  0  0  0
  -25.9680  -30.8000   21.2840 C   0  0  0  0  0  2  0  0  0  0  0  0
  -26.1120  -29.4520   20.5950 C   0  0  0  0  0  0  0  0  0  0  0  0
  -27.3380  -28.7340   20.5700 C   0  0  0  0  0  3  0  0  0  0  0  0
  -26.2530  -26.9460   19.3320 C   0  0  0  0  0  3  0  0  0  0  0  0
  -25.0420  -27.6660   19.3400 C   0  0  0  0  0  3  0  0  0  0  0  0
  -23.6980  -29.7320   20.0430 C   0  0  0  0  0  2  0  0  0  0  0  0
  -24.6860  -30.9850   22.0130 N   0  0  0  0  0  0  0  0  0  0  0  0
  -23.4930  -31.9660   23.6780 O   0  0  0  0  0  0  0  0  0  0  0  0
  -22.8240  -29.2850   22.3660 C   0  0  0  0  0  0  0  0  0  0  0  0
  -21.5070  -29.0660   22.2250 N   0  0  0  0  0  0  0  0  0  0  0  0
  -23.5220  -28.6530   23.1640 O   0  0  0  0  0  0  0  0  0  0  0  0
  -21.0050  -29.6310   21.5540 H   0  0  0  0  0  0  0  0  0  0  0  0
  -18.1680  -27.7600   22.6810 C   0  0  0  0  0  0  0  0  0  0  0  0
  -20.7190  -28.0720   22.9540 C   0  0  0  0  0  3  0  0  0  0  0  0
  -20.8550  -26.6720   22.3100 C   0  0  0  0  0  2  0  0  0  0  0  0
  -19.7570  -26.3700   21.2850 C   0  0  0  0  0  2  0  0  0  0  0  0
  -18.3740  -26.4480   21.9380 C   0  0  0  0  0  2  0  0  0  0  0  0
  -19.2680  -28.5300   23.1420 C   0  0  0  0  0  0  0  0  0  0  0  0
  -19.0210  -29.7570   23.7930 C   0  0  0  0  0  3  0  0  0  0  0  0
  -17.7070  -30.2190   23.9850 C   0  0  0  0  0  3  0  0  0  0  0  0
  -16.6200  -29.4480   23.5410 C   0  0  0  0  0  3  0  0  0  0  0  0
  -16.8510  -28.2180   22.8970 C   0  0  0  0  0  3  0  0  0  0  0  0
  -25.8430  -32.4080   23.7930 C   0  0  0  0  0  3  0  0  0  0  0  0
  -26.3490  -31.6420   25.0760 C   0  0  1  0  0  0  0  0  0  0  0  0
  -25.2380  -31.3700   26.1170 C   0  0  0  0  0  1  0  0  0  0  0  0
  -26.9740  -30.2820   24.6870 C   0  0  0  0  0  1  0  0  0  0  0  0
  -27.4640  -32.4620   25.7690 C   0  0  0  0  0  1  0  0  0  0  0  0
  -25.4930  -33.7970   24.1220 N   0  0  0  0  0  0  0  0  0  0  0  0
  -25.8230  -34.8620   23.3810 C   0  0  0  0  0  0  0  0  0  0  0  0
  -26.5260  -34.7830   22.3690 O   0  0  0  0  0  0  0  0  0  0  0  0
  -24.8730  -33.9320   24.9070 H   0  0  0  0  0  0  0  0  0  0  0  0
  -24.0670  -36.6180   22.9840 C   0  0  0  0  0  1  0  0  0  0  0  0
  -25.2920  -36.2370   23.8310 C   0  0  0  0  0  3  0  0  0  0  0  0
  -27.3750  -37.1670   24.7370 C   0  0  0  0  0  1  0  0  0  0  0  0
  -26.3040  -37.3120   23.7550 N   0  0  0  0  0  0  0  0  0  0  0  0
  -25.8740  -38.2230   23.8880 H   0  0  0  0  0  0  0  0  0  0  0  0
  -30.5500  -18.8360   19.5650 C   0  0  0  0  0  3  0  0  0  0  0  0
  -31.5330  -18.8130   17.2840 C   0  0  0  0  0  1  0  0  0  0  0  0
  -31.6770  -19.2230   18.6930 N   0  0  0  0  0  4  0  0  0  0  0  0
  -31.7530  -20.2280   18.7220 H   0  0  0  0  0  0  0  0  0  0  0  0
  -32.5410  -18.8540   19.0610 H   0  0  0  0  0  0  0  0  0  0  0  0
  -30.9570  -17.5310   20.3950 C   0  0  0  0  0  2  0  0  0  0  0  0
  -30.1920  -16.1670   20.0830 C   0  0  0  0  0  2  0  0  0  0  0  0
  -30.9890  -14.8260   19.8140 C   0  0  0  0  0  0  0  0  0  0  0  0
  -30.6500  -12.5720   18.8340 C   0  0  0  0  0  2  0  0  0  0  0  0
  -29.6230  -12.7110   17.6860 C   0  0  0  0  0  2  0  0  0  0  0  0
  -28.1780  -12.5900   18.2120 C   0  0  0  0  0  2  0  0  0  0  0  0
  -27.9260  -13.4680   19.4640 C   0  0  0  0  0  3  0  0  0  0  0  0
  -29.0660  -13.3280   20.4990 C   0  0  0  0  0  2  0  0  0  0  0  0
  -30.3420  -13.6160   19.8280 N   0  0  0  0  0  0  0  0  0  0  0  0
  -32.1360  -14.9230   19.3740 O   0  0  0  0  0  0  0  0  0  0  0  0
  -25.6220  -14.1090   20.4040 C   0  0  0  0  0  0  0  0  0  0  0  0
  -24.5610  -13.3580   20.8280 C   0  0  0  0  0  0  0  0  0  0  0  0
  -24.9710  -11.9940   20.7080 C   0  0  0  0  0  0  0  0  0  0  0  0
  -26.6130  -13.2080   20.0510 N   0  0  0  0  0  0  0  0  0  0  0  0
  -26.2330  -11.9270   20.2980 N   0  0  0  0  0  0  0  0  0  0  0  0
  -24.2180  -10.7480   20.9050 C   0  0  0  0  0  0  0  0  0  0  0  0
  -24.6420   -9.7620   21.8260 C   0  0  0  0  0  3  0  0  0  0  0  0
  -23.8850   -8.5860   22.0110 C   0  0  0  0  0  3  0  0  0  0  0  0
  -22.6910   -8.3850   21.2770 C   0  0  0  0  0  0  0  0  0  0  0  0
  -22.2870   -9.3570   20.3460 C   0  0  0  0  0  3  0  0  0  0  0  0
  -23.0440  -10.5260   20.1570 C   0  0  0  0  0  3  0  0  0  0  0  0
  -21.9110   -7.2570   21.3720 O   0  0  0  0  0  0  0  0  0  0  0  0
  -21.8140   -6.5440   22.5410 C   0  0  0  0  0  0  0  0  0  0  0  0
  -21.3300   -7.1300   23.7300 C   0  0  0  0  0  3  0  0  0  0  0  0
  -21.1760   -6.3460   24.8920 C   0  0  0  0  0  3  0  0  0  0  0  0
  -21.5010   -4.9760   24.8640 C   0  0  0  0  0  0  0  0  0  0  0  0
  -21.9780   -4.3890   23.6790 C   0  0  0  0  0  3  0  0  0  0  0  0
  -22.1300   -5.1710   22.5200 C   0  0  0  0  0  0  0  0  0  0  0  0
  -22.5710   -4.5960   21.3750 F   0  0  0  0  0  0  0  0  0  0  0  0
  -21.3480   -4.2180   25.9760 F   0  0  0  0  0  0  0  0  0  0  0  0
  -23.2070  -13.8680   21.2320 C   0  0  0  0  0  0  0  0  0  0  0  0
  -22.5340  -13.1680   22.1340 N   0  0  0  0  0  0  0  0  0  0  0  0
  -22.7630  -14.9250   20.7830 O   0  0  0  0  0  0  0  0  0  0  0  0
  -22.9100  -12.3140   22.5190 H   0  0  0  0  0  0  0  0  0  0  0  0
  -21.6340  -13.4960   22.4550 H   0  0  0  0  0  0  0  0  0  0  0  0
  -25.8190  -15.4800   20.2650 N   0  0  0  0  0  0  0  0  0  0  0  0
  -25.0870  -16.1530   20.4630 H   0  0  0  0  0  0  0  0  0  0  0  0
  -26.6590  -15.8970   19.8880 H   0  0  0  0  0  0  0  0  0  0  0  0
  1  5  1  0
  1  3  1  0
  2  3  1  0
  3  4  1  0
  5  6  2  0
  7  6  1  0
  7  8  2  0
  9 11  1  0
  9  8  1  0
 10 21  2  0
 11 16  1  0
 12 20  1  0
 12 22  1  0
 13 19  1  0
 13 15  1  0
 14 20  1  0
 15 14  1  0
 16 15  2  0
 17 18  1  0
 17 11  2  0
 18 13  2  0
 19 12  1  0
 20 10  1  0
 22 24  2  0
 23 22  1  0
 25 23  1  0
 26 35  2  0
 26 31  1  0
 27 23  1  0
 27 31  1  0
 28 27  1  0
 29 30  1  0
 29 28  1  0
 30 26  1  0
 31 32  2  0
 32 33  1  0
 34 33  2  0
 35 34  1  0
 36 10  1  0
 36 41  1  0
 36 37  1  0
 37 40  1  1
 37 38  1  0
 39 37  1  0
 41 44  1  0
 42 46  1  0
 42 41  1  0
 43 42  2  0
 46 45  1  0
 48 46  1  0
 48 49  1  0
 48 47  1  0
 50  1  1  0
 50 55  1  0
 51 52  1  0
 52 53  1  0
 52 54  1  0
 52 50  1  0
 56 55  1  0
 57 63  1  0
 57 56  1  0
 58 63  1  0
 59 60  1  0
 59 58  1  0
 61 60  1  0
 61 68  1  0
 61 62  1  0
 63 62  1  0
 64 57  2  0
 65 66  2  0
 66 85  1  0
 67 66  1  0
 67 70  1  0
 68 69  1  0
 68 65  1  0
 69 67  2  0
 70 71  1  0
 71 72  2  0
 73 76  1  0
 73 72  1  0
 74 73  2  0
 75 74  1  0
 75 70  2  0
 76 77  1  0
 77 78  1  0
 78 79  2  0
 80 79  1  0
 80 84  1  0
 81 80  2  0
 82 77  2  0
 82 81  1  0
 83 82  1  0
 85 86  1  0
 86 89  1  0
 86 88  1  0
 87 85  2  0
 90 65  1  0
 90 91  1  0
 92 90  1  0
M  ISO  4   8 101   9 101  56 100  57 100
M  END
>  <TORSDO>  (43) 
F 25

>  <SCORE>  (43) 
-11.508

>  <name>  (43) 
42

>  <ligand_id>  (43) 
42

>  <original_smiles>  (43) 
[H]c1c([H])c([H])c2c(c1[H])C([H])([H])C([H])([H])C([H])([H])C2([H])N([H])C(=O)C1([H])N(C(=O)C([H])(N([H])C(=O)C([H])(N([H])C([H])([H])[H])C([H])([H])[H])C(C([H])([H])[H])(C([H])([H])[H])C([H])([H])[H])C([H])([H])c2c([H])c(OC([H])([H])C([H])([H])C([H])([H])C([H])([H])C([H])(N([H])C([H])([H])[H])C([H])(C([H])([H])C([H])([H])C(=O)N3C([H])([H])C([H])([H])C([H])([H])C([H])(n4nc(-c5c([H])c([H])c(Oc6c([H])c([H])c(F)c([H])c6F)c([H])c5[H])c(C(=O)N([H])[H])c4N([H])[H])C3([H])[H])[N+]([H])([H])C([H])([H])[H])c([H])c([H])c2C1([H])[H]

>  <smiles>  (43) 
[H]c1c([H])c([H])c2c(c1[H])C([H])([H])C([H])([H])C([H])([H])C2([H])N([H])C(=O)C1([H])N(C(=O)C([H])(N([H])C(=O)C([H])(N([H])C([H])([H])[H])C([H])([H])[H])C(C([H])([H])[H])(C([H])([H])[H])C([H])([H])[H])C([H])([H])c2c([H])c(OC([H])([H])C([H])([H])C([H])([H])C([H])([H])C([H])(N([H])C([H])([H])[H])C([H])(C([H])([H])C([H])([H])C(=O)N3C([H])([H])C([H])([H])C([H])([H])C([H])(n4nc(-c5c([H])c([H])c(Oc6c([H])c([H])c(F)c([H])c6F)c([H])c5[H])c(C(=O)N([H])[H])c4N([H])[H])C3([H])[H])[N+]([H])([H])C([H])([H])[H])c([H])c([H])c2C1([H])[H]

$$$$
43:0:0
     RDKit          3D

 91 99  0  0  1  0  0  0  0  0999 V2000
  -27.3630  -23.3640   19.3870 C   0  0  0  0  0  2  0  0  0  0  0  0
  -27.5530  -21.7960   19.7080 C   0  0  0  0  0  2  0  0  0  0  0  0
  -29.3020  -23.0560   20.5890 C   0  0  0  0  0  2  0  0  0  0  0  0
  -28.1110  -24.2770   20.4110 C   0  0  0  0  0  3  0  0  0  0  0  0
  -28.8250  -21.5240   20.4560 N   0  0  2  0  0  4  0  0  0  0  0  0
  -28.4940  -21.3040   21.3820 H   0  0  0  0  0  0  0  0  0  0  0  0
  -28.2420  -25.9160   20.2140 O   0  0  0  0  0  0  0  0  0  0  0  0
  -24.6080  -31.8470   23.1540 C   0  0  0  0  0  0  0  0  0  0  0  0
  -27.1950  -26.9760   20.1860 C   0  0  0  0  0  0  0  0  0  0  0  0
  -23.4190  -30.4320   21.5270 C   0  0  0  0  0  3  0  0  0  0  0  0
  -24.8810  -28.8280   20.1190 C   0  0  0  0  0  0  0  0  0  0  0  0
  -25.9840  -30.6700   21.3730 C   0  0  0  0  0  2  0  0  0  0  0  0
  -26.0660  -29.2550   20.7330 C   0  0  0  0  0  0  0  0  0  0  0  0
  -27.2200  -28.3500   20.7370 C   0  0  0  0  0  3  0  0  0  0  0  0
  -25.9820  -26.7010   19.5190 C   0  0  0  0  0  3  0  0  0  0  0  0
  -24.8660  -27.5760   19.4840 C   0  0  0  0  0  3  0  0  0  0  0  0
  -23.6490  -29.7330   20.1590 C   0  0  0  0  0  2  0  0  0  0  0  0
  -24.6920  -31.0090   22.0720 N   0  0  0  0  0  0  0  0  0  0  0  0
  -23.5170  -32.1320   23.6750 O   0  0  0  0  0  0  0  0  0  0  0  0
  -22.7320  -29.4390   22.5000 C   0  0  0  0  0  0  0  0  0  0  0  0
  -21.4000  -29.2780   22.3860 N   0  0  0  0  0  0  0  0  0  0  0  0
  -23.4030  -28.8080   23.3190 O   0  0  0  0  0  0  0  0  0  0  0  0
  -20.9130  -29.8330   21.6970 H   0  0  0  0  0  0  0  0  0  0  0  0
  -18.0170  -28.0890   22.9300 C   0  0  0  0  0  0  0  0  0  0  0  0
  -20.5820  -28.3450   23.1670 C   0  0  0  0  0  3  0  0  0  0  0  0
  -20.6690  -26.9130   22.5880 C   0  0  0  0  0  2  0  0  0  0  0  0
  -19.5550  -26.5960   21.5870 C   0  0  0  0  0  2  0  0  0  0  0  0
  -18.1800  -26.7420   22.2480 C   0  0  0  0  0  2  0  0  0  0  0  0
  -19.1420  -28.8490   23.3480 C   0  0  0  0  0  0  0  0  0  0  0  0
  -18.9330  -30.1100   23.9500 C   0  0  0  0  0  3  0  0  0  0  0  0
  -17.6300  -30.6110   24.1360 C   0  0  0  0  0  3  0  0  0  0  0  0
  -16.5190  -29.8470   23.7380 C   0  0  0  0  0  3  0  0  0  0  0  0
  -16.7150  -28.5880   23.1410 C   0  0  0  0  0  3  0  0  0  0  0  0
  -25.8750  -32.5010   23.7820 C   0  0  0  0  0  3  0  0  0  0  0  0
  -26.4010  -31.7310   25.0560 C   0  0  1  0  0  0  0  0  0  0  0  0
  -25.3130  -31.4800   26.1300 C   0  0  0  0  0  1  0  0  0  0  0  0
  -26.9910  -30.3560   24.6660 C   0  0  0  0  0  1  0  0  0  0  0  0
  -27.5490  -32.5290   25.7150 C   0  0  0  0  0  1  0  0  0  0  0  0
  -25.5420  -33.8930   24.1320 N   0  0  0  0  0  0  0  0  0  0  0  0
  -25.8600  -34.9670   23.3960 C   0  0  0  0  0  0  0  0  0  0  0  0
  -26.5250  -34.8890   22.3600 O   0  0  0  0  0  0  0  0  0  0  0  0
  -24.9480  -34.0270   24.9400 H   0  0  0  0  0  0  0  0  0  0  0  0
  -24.1080  -36.7510   23.0900 C   0  0  0  0  0  1  0  0  0  0  0  0
  -25.3610  -36.3430   23.8820 C   0  0  0  0  0  3  0  0  0  0  0  0
  -27.4950  -37.2370   24.7080 C   0  0  0  0  0  1  0  0  0  0  0  0
  -26.3800  -37.4130   23.7820 N   0  0  0  0  0  0  0  0  0  0  0  0
  -25.9630  -38.3230   23.9590 H   0  0  0  0  0  0  0  0  0  0  0  0
  -29.7390  -20.1580   20.1270 C   0  0  0  0  0  3  0  0  0  0  0  0
  -30.3240  -20.1280   18.6930 C   0  0  0  0  0  0  0  0  0  0  0  0
  -32.1720  -19.3140   17.2280 C   0  0  0  0  0  1  0  0  0  0  0  0
  -31.5110  -19.5180   18.5190 N   0  0  0  0  0  0  0  0  0  0  0  0
  -29.7140  -20.6260   17.7430 O   0  0  0  0  0  0  0  0  0  0  0  0
  -31.9720  -19.1310   19.3350 H   0  0  0  0  0  0  0  0  0  0  0  0
  -29.6650  -18.4680   20.7420 C   0  0  0  0  0  2  0  0  0  0  0  0
  -29.6420  -16.8230   20.0360 C   0  0  0  0  0  2  0  0  0  0  0  0
  -30.4570  -15.2780   20.2460 C   0  0  0  0  0  0  0  0  0  0  0  0
  -30.4250  -12.8310   19.3930 C   0  0  0  0  0  2  0  0  0  0  0  0
  -29.5190  -12.6790   18.1460 C   0  0  0  0  0  2  0  0  0  0  0  0
  -28.0510  -12.4380   18.5510 C   0  0  0  0  0  2  0  0  0  0  0  0
  -27.6050  -13.3760   19.7010 C   0  0  0  0  0  3  0  0  0  0  0  0
  -28.6460  -13.4890   20.8280 C   0  0  0  0  0  2  0  0  0  0  0  0
  -29.9000  -13.9700   20.2270 N   0  0  0  0  0  0  0  0  0  0  0  0
  -31.6850  -15.2620   20.1050 O   0  0  0  0  0  0  0  0  0  0  0  0
  -25.2290  -13.9330   20.4340 C   0  0  0  0  0  0  0  0  0  0  0  0
  -24.1640  -13.1590   20.8000 C   0  0  0  0  0  0  0  0  0  0  0  0
  -24.6290  -11.8090   20.7890 C   0  0  0  0  0  0  0  0  0  0  0  0
  -26.2720  -13.0570   20.2020 N   0  0  0  0  0  0  0  0  0  0  0  0
  -25.9240  -11.7720   20.4800 N   0  0  0  0  0  0  0  0  0  0  0  0
  -23.8990  -10.5490   20.9880 C   0  0  0  0  0  0  0  0  0  0  0  0
  -24.3250   -9.5870   21.9320 C   0  0  0  0  0  3  0  0  0  0  0  0
  -23.5920   -8.3960   22.1190 C   0  0  0  0  0  3  0  0  0  0  0  0
  -22.4210   -8.1550   21.3620 C   0  0  0  0  0  0  0  0  0  0  0  0
  -22.0180   -9.1020   20.4060 C   0  0  0  0  0  3  0  0  0  0  0  0
  -22.7490  -10.2860   20.2170 C   0  0  0  0  0  3  0  0  0  0  0  0
  -21.6610   -7.0130   21.4540 O   0  0  0  0  0  0  0  0  0  0  0  0
  -21.6030   -6.2800   22.6110 C   0  0  0  0  0  0  0  0  0  0  0  0
  -21.1850   -6.8480   23.8320 C   0  0  0  0  0  3  0  0  0  0  0  0
  -21.0770   -6.0410   24.9840 C   0  0  0  0  0  3  0  0  0  0  0  0
  -21.3720   -4.6690   24.9150 C   0  0  0  0  0  0  0  0  0  0  0  0
  -21.7830   -4.1000   23.6960 C   0  0  0  0  0  3  0  0  0  0  0  0
  -21.8950   -4.9020   22.5470 C   0  0  0  0  0  0  0  0  0  0  0  0
  -22.2700   -4.3410   21.3720 F   0  0  0  0  0  0  0  0  0  0  0  0
  -21.2610   -3.8940   26.0210 F   0  0  0  0  0  0  0  0  0  0  0  0
  -22.7630  -13.6340   21.0560 C   0  0  0  0  0  0  0  0  0  0  0  0
  -22.0300  -12.9490   21.9240 N   0  0  0  0  0  0  0  0  0  0  0  0
  -22.3260  -14.6510   20.5120 O   0  0  0  0  0  0  0  0  0  0  0  0
  -22.3980  -12.1330   22.3890 H   0  0  0  0  0  0  0  0  0  0  0  0
  -21.0870  -13.2470   22.1360 H   0  0  0  0  0  0  0  0  0  0  0  0
  -25.4010  -15.3020   20.2600 N   0  0  0  0  0  0  0  0  0  0  0  0
  -24.6580  -15.9790   20.3980 H   0  0  0  0  0  0  0  0  0  0  0  0
  -26.2740  -15.7260   19.9830 H   0  0  0  0  0  0  0  0  0  0  0  0
  1  2  1  0
  1  4  1  0
  2  5  1  0
  4  7  1  0
  4  3  1  0
  5  3  1  0
  5  6  1  1
  8 19  2  0
  9  7  1  0
  9 14  1  0
 10 18  1  0
 10 20  1  0
 11 17  1  0
 11 13  1  0
 12 18  1  0
 13 14  2  0
 13 12  1  0
 15  9  2  0
 16 15  1  0
 16 11  2  0
 17 10  1  0
 18  8  1  0
 20 22  2  0
 21 20  1  0
 23 21  1  0
 24 33  2  0
 24 29  1  0
 25 21  1  0
 25 29  1  0
 26 25  1  0
 27 28  1  0
 27 26  1  0
 28 24  1  0
 29 30  2  0
 30 31  1  0
 32 31  2  0
 33 32  1  0
 34  8  1  0
 34 39  1  0
 34 35  1  0
 35 38  1  1
 35 36  1  0
 37 35  1  0
 39 42  1  0
 40 44  1  0
 40 39  1  0
 41 40  2  0
 44 43  1  0
 46 44  1  0
 46 47  1  0
 46 45  1  0
 48  5  1  0
 48 54  1  0
 49 48  1  0
 50 51  1  0
 51 49  1  0
 51 53  1  0
 52 49  2  0
 55 56  1  0
 55 54  1  0
 57 62  1  0
 58 59  1  0
 58 57  1  0
 60 59  1  0
 60 67  1  0
 60 61  1  0
 62 56  1  0
 62 61  1  0
 63 56  2  0
 64 65  2  0
 65 84  1  0
 66 65  1  0
 66 69  1  0
 67 64  1  0
 67 68  1  0
 68 66  2  0
 69 70  1  0
 70 71  2  0
 72 75  1  0
 72 71  1  0
 73 72  2  0
 74 73  1  0
 74 69  2  0
 75 76  1  0
 76 77  1  0
 77 78  2  0
 79 78  1  0
 79 83  1  0
 80 79  2  0
 81 76  2  0
 81 80  1  0
 82 81  1  0
 84 85  1  0
 85 88  1  0
 85 87  1  0
 86 84  2  0
 89 90  1  0
 89 64  1  0
 91 89  1  0
M  ISO  4   4 101   7 101  55 100  56 100
M  END
>  <TORSDO>  (44) 
F 20

>  <SCORE>  (44) 
-16.395

>  <name>  (44) 
43

>  <ligand_id>  (44) 
43

>  <original_smiles>  (44) 
[H]c1c([H])c([H])c2c(c1[H])C([H])([H])C([H])([H])C([H])([H])C2([H])N([H])C(=O)C1([H])N(C(=O)C([H])(N([H])C(=O)C([H])(N([H])C([H])([H])[H])C([H])([H])[H])C(C([H])([H])[H])(C([H])([H])[H])C([H])([H])[H])C([H])([H])c2c([H])c(OC3([H])C([H])([H])C([H])([H])[N+]([H])(C([H])(C(=O)N([H])C([H])([H])[H])C([H])([H])C([H])([H])C(=O)N4C([H])([H])C([H])([H])C([H])([H])C([H])(n5nc(-c6c([H])c([H])c(Oc7c([H])c([H])c(F)c([H])c7F)c([H])c6[H])c(C(=O)N([H])[H])c5N([H])[H])C4([H])[H])C3([H])[H])c([H])c([H])c2C1([H])[H]

>  <smiles>  (44) 
[H]c1c([H])c([H])c2c(c1[H])C([H])([H])C([H])([H])C([H])([H])C2([H])N([H])C(=O)C1([H])N(C(=O)C([H])(N([H])C(=O)C([H])(N([H])C([H])([H])[H])C([H])([H])[H])C(C([H])([H])[H])(C([H])([H])[H])C([H])([H])[H])C([H])([H])c2c([H])c(OC3([H])C([H])([H])C([H])([H])[N+]([H])(C([H])(C(=O)N([H])C([H])([H])[H])C([H])([H])C([H])([H])C(=O)N4C([H])([H])C([H])([H])C([H])([H])C([H])(n5nc(-c6c([H])c([H])c(Oc7c([H])c([H])c(F)c([H])c7F)c([H])c6[H])c(C(=O)N([H])[H])c5N([H])[H])C4([H])[H])C3([H])[H])c([H])c([H])c2C1([H])[H]

$$$$
44:0:0
     RDKit          3D

 94102  0  0  1  0  0  0  0  0999 V2000
  -29.3710  -20.8380   18.0310 N   0  0  0  0  0  4  0  0  0  0  0  0
  -28.3850  -20.7520   18.2180 H   0  0  0  0  0  0  0  0  0  0  0  0
  -29.4220  -21.2790   17.1230 H   0  0  0  0  0  0  0  0  0  0  0  0
  -29.9790  -19.0450   16.3770 C   0  0  0  0  0  1  0  0  0  0  0  0
  -29.9520  -19.4760   17.8970 C   0  0  0  0  0  3  0  0  0  0  0  0
  -26.3770  -19.1580   19.7950 C   0  0  0  0  0  2  0  0  0  0  0  0
  -27.6030  -19.5370   20.6350 C   0  0  0  0  0  2  0  0  0  0  0  0
  -26.6190  -17.8750   18.9970 C   0  0  0  0  0  2  0  0  0  0  0  0
  -28.9320  -18.7860   20.2930 C   0  0  0  0  0  2  0  0  0  0  0  0
  -27.8970  -17.9590   18.1270 C   0  0  0  0  0  2  0  0  0  0  0  0
  -29.2630  -18.3620   18.8130 C   0  0  1  0  0  0  0  0  0  0  0  0
  -30.4030  -17.2330   18.9590 C   0  0  0  0  0  3  0  0  0  0  0  0
  -30.0060  -15.7510   19.1350 C   0  0  0  0  0  3  0  0  0  0  0  0
  -31.1060  -14.6360   19.3490 C   0  0  0  0  0  0  0  0  0  0  0  0
  -31.1060  -12.1960   19.0180 C   0  0  0  0  0  2  0  0  0  0  0  0
  -30.1290  -11.9600   17.8450 C   0  0  0  0  0  2  0  0  0  0  0  0
  -28.6800  -11.8610   18.3670 C   0  0  0  0  0  2  0  0  0  0  0  0
  -28.3050  -13.0040   19.3430 C   0  0  0  0  0  3  0  0  0  0  0  0
  -29.3990  -13.1810   20.4200 C   0  0  0  0  0  2  0  0  0  0  0  0
  -30.6670  -13.4040   19.7230 N   0  0  0  0  0  0  0  0  0  0  0  0
  -32.2690  -14.8100   18.9580 O   0  0  0  0  0  0  0  0  0  0  0  0
  -26.0400  -13.8070   20.2530 C   0  0  0  0  0  0  0  0  0  0  0  0
  -24.9550  -13.1070   20.7080 C   0  0  0  0  0  0  0  0  0  0  0  0
  -25.3100  -11.7330   20.6390 C   0  0  0  0  0  0  0  0  0  0  0  0
  -26.9910  -12.8440   19.9380 N   0  0  0  0  0  0  0  0  0  0  0  0
  -26.5620  -11.5910   20.2330 N   0  0  0  0  0  0  0  0  0  0  0  0
  -24.5060  -10.5270   20.8680 C   0  0  0  0  0  0  0  0  0  0  0  0
  -24.8470   -9.5980   21.8700 C   0  0  0  0  0  3  0  0  0  0  0  0
  -24.0430   -8.4580   22.0920 C   0  0  0  0  0  3  0  0  0  0  0  0
  -22.8880   -8.2410   21.3040 C   0  0  0  0  0  0  0  0  0  0  0  0
  -22.5660   -9.1590   20.2900 C   0  0  0  0  0  3  0  0  0  0  0  0
  -23.3730  -10.2920   20.0660 C   0  0  0  0  0  3  0  0  0  0  0  0
  -22.0590   -7.1470   21.4380 O   0  0  0  0  0  0  0  0  0  0  0  0
  -21.8160   -6.5630   22.6510 C   0  0  0  0  0  0  0  0  0  0  0  0
  -21.2190   -7.2700   23.7230 C   0  0  0  0  0  3  0  0  0  0  0  0
  -20.9350   -6.6110   24.9290 C   0  0  0  0  0  3  0  0  0  0  0  0
  -21.2290   -5.2410   25.0770 C   0  0  0  0  0  0  0  0  0  0  0  0
  -21.8200   -4.5320   24.0130 C   0  0  0  0  0  3  0  0  0  0  0  0
  -22.1110   -5.1890   22.8080 C   0  0  0  0  0  0  0  0  0  0  0  0
  -22.6600   -4.4960   21.7800 F   0  0  0  0  0  0  0  0  0  0  0  0
  -20.9430   -4.6060   26.2350 F   0  0  0  0  0  0  0  0  0  0  0  0
  -23.6290  -13.6850   21.0780 C   0  0  0  0  0  0  0  0  0  0  0  0
  -22.9250  -13.0390   22.0050 N   0  0  0  0  0  0  0  0  0  0  0  0
  -23.2220  -14.7270   20.5800 O   0  0  0  0  0  0  0  0  0  0  0  0
  -23.2620  -12.1840   22.4170 H   0  0  0  0  0  0  0  0  0  0  0  0
  -22.0400  -13.4280   22.2850 H   0  0  0  0  0  0  0  0  0  0  0  0
  -26.2670  -15.1620   20.0590 N   0  0  0  0  0  0  0  0  0  0  0  0
  -25.5110  -15.8350   20.1480 H   0  0  0  0  0  0  0  0  0  0  0  0
  -27.0260  -15.4840   19.4810 H   0  0  0  0  0  0  0  0  0  0  0  0
  -30.0140  -21.8190   18.9740 C   0  0  0  0  0  2  0  0  0  0  0  0
  -29.2060  -23.1430   18.8100 C   0  0  0  0  0  2  0  0  0  0  0  0
  -29.5780  -24.3820   19.6360 C   0  0  0  0  0  2  0  0  0  0  0  0
  -29.1160  -25.7010   18.9390 C   0  0  0  0  0  2  0  0  0  0  0  0
  -28.7140  -26.7060   19.8760 O   0  0  0  0  0  0  0  0  0  0  0  0
  -24.6960  -31.4960   23.1160 C   0  0  0  0  0  0  0  0  0  0  0  0
  -27.5020  -27.3620   19.7950 C   0  0  0  0  0  0  0  0  0  0  0  0
  -23.5480  -30.2220   21.3400 C   0  0  0  0  0  3  0  0  0  0  0  0
  -25.0630  -28.8090   19.8280 C   0  0  0  0  0  0  0  0  0  0  0  0
  -26.0610  -30.6250   21.2240 C   0  0  0  0  0  2  0  0  0  0  0  0
  -26.1840  -29.3050   20.5020 C   0  0  0  0  0  0  0  0  0  0  0  0
  -27.3930  -28.5830   20.4860 C   0  0  0  0  0  3  0  0  0  0  0  0
  -26.3570  -26.8740   19.1170 C   0  0  0  0  0  3  0  0  0  0  0  0
  -25.1390  -27.5850   19.1420 C   0  0  0  0  0  3  0  0  0  0  0  0
  -23.8030  -29.6530   19.9100 C   0  0  0  0  0  2  0  0  0  0  0  0
  -24.7860  -30.7900   21.9550 N   0  0  0  0  0  0  0  0  0  0  0  0
  -23.5980  -31.7150   23.6480 O   0  0  0  0  0  0  0  0  0  0  0  0
  -22.9020  -29.1160   22.2040 C   0  0  0  0  0  0  0  0  0  0  0  0
  -21.5850  -28.9450   22.0410 N   0  0  0  0  0  0  0  0  0  0  0  0
  -23.5760  -28.4280   22.9710 O   0  0  0  0  0  0  0  0  0  0  0  0
  -21.1170  -29.5300   21.3680 H   0  0  0  0  0  0  0  0  0  0  0  0
  -18.2070  -27.7600   22.4090 C   0  0  0  0  0  0  0  0  0  0  0  0
  -20.7680  -27.9440   22.7220 C   0  0  0  0  0  3  0  0  0  0  0  0
  -20.8500  -26.5830   21.9980 C   0  0  0  0  0  2  0  0  0  0  0  0
  -19.7600  -26.4220   20.9370 C   0  0  0  0  0  2  0  0  0  0  0  0
  -18.3800  -26.4870   21.6000 C   0  0  0  0  0  2  0  0  0  0  0  0
  -19.3370  -28.4560   22.9170 C   0  0  0  0  0  0  0  0  0  0  0  0
  -19.1450  -29.6680   23.6130 C   0  0  0  0  0  3  0  0  0  0  0  0
  -17.8470  -30.1650   23.8430 C   0  0  0  0  0  3  0  0  0  0  0  0
  -16.7320  -29.4490   23.3770 C   0  0  0  0  0  3  0  0  0  0  0  0
  -16.9140  -28.2650   22.6370 C   0  0  0  0  0  3  0  0  0  0  0  0
  -25.9520  -32.0970   23.8170 C   0  0  0  0  0  3  0  0  0  0  0  0
  -25.6390  -33.4760   24.2010 N   0  0  0  0  0  0  0  0  0  0  0  0
  -26.0010  -34.5680   23.5160 C   0  0  0  0  0  0  0  0  0  0  0  0
  -26.7180  -34.5220   22.5090 O   0  0  0  0  0  0  0  0  0  0  0  0
  -24.9690  -33.5750   24.9490 H   0  0  0  0  0  0  0  0  0  0  0  0
  -24.2740  -36.3800   23.2100 C   0  0  0  0  0  1  0  0  0  0  0  0
  -25.4940  -35.9260   24.0230 C   0  0  0  0  0  3  0  0  0  0  0  0
  -27.5840  -36.7930   24.9810 C   0  0  0  0  0  1  0  0  0  0  0  0
  -26.5240  -36.9840   23.9940 N   0  0  0  0  0  0  0  0  0  0  0  0
  -26.1080  -37.8930   24.1630 H   0  0  0  0  0  0  0  0  0  0  0  0
  -26.4240  -31.2590   25.0700 C   0  0  1  0  0  0  0  0  0  0  0  0
  -25.2860  -30.9600   26.0750 C   0  0  0  0  0  1  0  0  0  0  0  0
  -27.0180  -29.9040   24.6230 C   0  0  0  0  0  1  0  0  0  0  0  0
  -27.5460  -32.0090   25.8320 C   0  0  0  0  0  1  0  0  0  0  0  0
  1  2  1  0
  1 50  1  0
  3  1  1  0
  5  4  1  0
  5  1  1  0
 11  5  1  6
  6  7  1  0
  8  6  1  0
  9  7  1  0
 10 11  1  0
 10  8  1  0
 11 12  1  0
 11  9  1  0
 12 13  2  0
 13 14  1  0
 14 20  1  0
 15 20  1  0
 16 17  1  0
 16 15  1  0
 18 17  1  0
 18 25  1  0
 18 19  1  0
 20 19  1  0
 21 14  2  0
 22 23  2  0
 23 42  1  0
 24 23  1  0
 24 27  1  0
 25 26  1  0
 25 22  1  0
 26 24  2  0
 27 28  1  0
 28 29  2  0
 30 33  1  0
 30 29  1  0
 31 30  2  0
 32 31  1  0
 32 27  2  0
 33 34  1  0
 34 39  2  0
 34 35  1  0
 35 36  2  0
 36 37  1  0
 37 41  1  0
 38 37  2  0
 39 38  1  0
 40 39  1  0
 42 43  1  0
 43 46  1  0
 43 45  1  0
 44 42  2  0
 47 48  1  0
 47 22  1  0
 49 47  1  0
 51 50  1  0
 51 52  1  0
 53 52  1  0
 53 54  1  0
 55 66  2  0
 56 54  1  0
 56 61  1  0
 57 65  1  0
 57 67  1  0
 58 64  1  0
 58 60  1  0
 59 65  1  0
 60 59  1  0
 61 60  2  0
 62 63  1  0
 62 56  2  0
 63 58  2  0
 64 57  1  0
 65 55  1  0
 67 69  2  0
 68 67  1  0
 70 68  1  0
 71 80  2  0
 71 76  1  0
 72 68  1  0
 72 76  1  0
 73 72  1  0
 74 75  1  0
 74 73  1  0
 75 71  1  0
 76 77  2  0
 77 78  1  0
 79 78  2  0
 80 79  1  0
 81 55  1  0
 81 82  1  0
 81 91  1  0
 82 85  1  0
 83 87  1  0
 83 82  1  0
 84 83  2  0
 87 86  1  0
 89 87  1  0
 89 90  1  0
 89 88  1  0
 91 94  1  1
 91 92  1  0
 93 91  1  0
M  ISO  4  13 100  14 100  53 101  54 101
M  END
>  <TORSDO>  (45) 
F 24

>  <SCORE>  (45) 
-9.909

>  <name>  (45) 
44

>  <ligand_id>  (45) 
44

>  <original_smiles>  (45) 
[H]c1c([H])c([H])c2c(c1[H])C([H])([H])C([H])([H])C([H])([H])C2([H])N([H])C(=O)C1([H])N(C(=O)C([H])(N([H])C(=O)C([H])(N([H])C([H])([H])[H])C([H])([H])[H])C(C([H])([H])[H])(C([H])([H])[H])C([H])([H])[H])C([H])([H])c2c([H])c(OC([H])([H])C([H])([H])C([H])([H])C([H])([H])[N+]([H])([H])C([H])(C([H])([H])[H])C3(C([H])([H])C([H])([H])C(=O)N4C([H])([H])C([H])([H])C([H])([H])C([H])(n5nc(-c6c([H])c([H])c(Oc7c([H])c([H])c(F)c([H])c7F)c([H])c6[H])c(C(=O)N([H])[H])c5N([H])[H])C4([H])[H])C([H])([H])C([H])([H])C([H])([H])C([H])([H])C3([H])[H])c([H])c([H])c2C1([H])[H]

>  <smiles>  (45) 
[H]c1c([H])c([H])c2c(c1[H])C([H])([H])C([H])([H])C([H])([H])C2([H])N([H])C(=O)C1([H])N(C(=O)C([H])(N([H])C(=O)C([H])(N([H])C([H])([H])[H])C([H])([H])[H])C(C([H])([H])[H])(C([H])([H])[H])C([H])([H])[H])C([H])([H])c2c([H])c(OC([H])([H])C([H])([H])C([H])([H])C([H])([H])[N+]([H])([H])C([H])(C([H])([H])[H])C3(C([H])([H])C([H])([H])C(=O)N4C([H])([H])C([H])([H])C([H])([H])C([H])(n5nc(-c6c([H])c([H])c(Oc7c([H])c([H])c(F)c([H])c7F)c([H])c6[H])c(C(=O)N([H])[H])c5N([H])[H])C4([H])[H])C([H])([H])C([H])([H])C([H])([H])C([H])([H])C3([H])[H])c([H])c([H])c2C1([H])[H]

$$$$
45:0:0
     RDKit          3D

 91 99  0  0  1  0  0  0  0  0999 V2000
  -28.4620  -20.7170   22.3970 C   0  0  0  0  0  1  0  0  0  0  0  0
  -29.5200  -20.8580   21.3580 N   0  0  2  0  0  4  0  0  0  0  0  0
  -29.0730  -20.6900   20.4700 H   0  0  0  0  0  0  0  0  0  0  0  0
  -32.8200  -18.8560   20.7010 C   0  0  0  0  0  2  0  0  0  0  0  0
  -32.1720  -17.5540   20.2240 C   0  0  0  0  0  2  0  0  0  0  0  0
  -31.8400  -20.0300   20.6420 C   0  0  0  0  0  2  0  0  0  0  0  0
  -29.9560  -18.3950   21.0810 C   0  0  0  0  0  2  0  0  0  0  0  0
  -30.9330  -17.1880   21.0730 C   0  0  0  0  0  3  0  0  0  0  0  0
  -30.5620  -19.7750   21.4820 C   0  0  0  0  0  3  0  0  0  0  0  0
  -30.1250  -15.8960   20.6870 C   0  0  0  0  0  2  0  0  0  0  0  0
  -30.8360  -14.6190   20.1620 C   0  0  0  0  0  0  0  0  0  0  0  0
  -30.4760  -12.4500   19.0510 C   0  0  0  0  0  2  0  0  0  0  0  0
  -29.5210  -12.6750   17.8590 C   0  0  0  0  0  2  0  0  0  0  0  0
  -28.0480  -12.5760   18.3050 C   0  0  0  0  0  2  0  0  0  0  0  0
  -27.7490  -13.4190   19.5740 C   0  0  0  0  0  3  0  0  0  0  0  0
  -28.8200  -13.1770   20.6610 C   0  0  0  0  0  2  0  0  0  0  0  0
  -30.1440  -13.4510   20.0770 N   0  0  0  0  0  0  0  0  0  0  0  0
  -31.9510  -14.7300   19.6520 O   0  0  0  0  0  0  0  0  0  0  0  0
  -25.3800  -14.0680   20.3380 C   0  0  0  0  0  0  0  0  0  0  0  0
  -24.3040  -13.3130   20.7230 C   0  0  0  0  0  0  0  0  0  0  0  0
  -24.7350  -11.9520   20.6670 C   0  0  0  0  0  0  0  0  0  0  0  0
  -26.4010  -13.1680   20.0770 N   0  0  0  0  0  0  0  0  0  0  0  0
  -26.0160  -11.8890   20.3280 N   0  0  0  0  0  0  0  0  0  0  0  0
  -23.9870  -10.7030   20.8590 C   0  0  0  0  0  0  0  0  0  0  0  0
  -24.3880   -9.7400   21.8120 C   0  0  0  0  0  3  0  0  0  0  0  0
  -23.6400   -8.5570   21.9920 C   0  0  0  0  0  3  0  0  0  0  0  0
  -22.4780   -8.3270   21.2170 C   0  0  0  0  0  0  0  0  0  0  0  0
  -22.0970   -9.2780   20.2550 C   0  0  0  0  0  3  0  0  0  0  0  0
  -22.8450  -10.4530   20.0740 C   0  0  0  0  0  3  0  0  0  0  0  0
  -21.7060   -7.1940   21.3030 O   0  0  0  0  0  0  0  0  0  0  0  0
  -21.5890   -6.4920   22.4760 C   0  0  0  0  0  0  0  0  0  0  0  0
  -21.0940   -7.0900   23.6550 C   0  0  0  0  0  3  0  0  0  0  0  0
  -20.9240   -6.3150   24.8200 C   0  0  0  0  0  3  0  0  0  0  0  0
  -21.2370   -4.9420   24.8050 C   0  0  0  0  0  0  0  0  0  0  0  0
  -21.7240   -4.3440   23.6290 C   0  0  0  0  0  3  0  0  0  0  0  0
  -21.8960   -5.1170   22.4680 C   0  0  0  0  0  0  0  0  0  0  0  0
  -22.3450   -4.5300   21.3310 F   0  0  0  0  0  0  0  0  0  0  0  0
  -21.0660   -4.1930   25.9200 F   0  0  0  0  0  0  0  0  0  0  0  0
  -22.9240  -13.8170   21.0330 C   0  0  0  0  0  0  0  0  0  0  0  0
  -22.2040  -13.1270   21.9110 N   0  0  0  0  0  0  0  0  0  0  0  0
  -22.4930  -14.8550   20.5320 O   0  0  0  0  0  0  0  0  0  0  0  0
  -22.5640  -12.2840   22.3320 H   0  0  0  0  0  0  0  0  0  0  0  0
  -21.2810  -13.4470   22.1650 H   0  0  0  0  0  0  0  0  0  0  0  0
  -25.5680  -15.4370   20.1710 N   0  0  0  0  0  0  0  0  0  0  0  0
  -24.8190  -16.1060   20.3040 H   0  0  0  0  0  0  0  0  0  0  0  0
  -26.4220  -15.8590   19.8280 H   0  0  0  0  0  0  0  0  0  0  0  0
  -30.0000  -22.2750   21.2670 C   0  0  0  0  0  2  0  0  0  0  0  0
  -29.0230  -23.1690   20.4690 C   0  0  0  0  0  2  0  0  0  0  0  0
  -29.3980  -24.6660   20.4160 C   0  0  0  0  0  2  0  0  0  0  0  0
  -28.2710  -25.4790   19.7610 C   0  0  0  0  0  2  0  0  0  0  0  0
  -28.4150  -26.8940   19.9200 O   0  0  0  0  0  0  0  0  0  0  0  0
  -24.6800  -31.9780   23.2030 C   0  0  0  0  0  0  0  0  0  0  0  0
  -27.2380  -27.6210   19.9380 C   0  0  0  0  0  0  0  0  0  0  0  0
  -23.4240  -30.6000   21.5830 C   0  0  0  0  0  3  0  0  0  0  0  0
  -24.8330  -29.1090   20.0720 C   0  0  0  0  0  0  0  0  0  0  0  0
  -25.9390  -30.9820   21.2970 C   0  0  0  0  0  2  0  0  0  0  0  0
  -26.0090  -29.6270   20.6260 C   0  0  0  0  0  0  0  0  0  0  0  0
  -27.2150  -28.8910   20.5580 C   0  0  0  0  0  3  0  0  0  0  0  0
  -26.0410  -27.1280   19.3630 C   0  0  0  0  0  3  0  0  0  0  0  0
  -24.8430  -27.8570   19.4390 C   0  0  0  0  0  3  0  0  0  0  0  0
  -23.5830  -29.9530   20.1830 C   0  0  0  0  0  2  0  0  0  0  0  0
  -24.7020  -31.1980   22.0840 N   0  0  0  0  0  0  0  0  0  0  0  0
  -23.6180  -32.2310   23.7870 O   0  0  0  0  0  0  0  0  0  0  0  0
  -22.8170  -29.5510   22.5420 C   0  0  0  0  0  0  0  0  0  0  0  0
  -21.4970  -29.3280   22.4260 N   0  0  0  0  0  0  0  0  0  0  0  0
  -23.5280  -28.9430   23.3460 O   0  0  0  0  0  0  0  0  0  0  0  0
  -20.9820  -29.8730   21.7480 H   0  0  0  0  0  0  0  0  0  0  0  0
  -18.1740  -28.0010   22.9230 C   0  0  0  0  0  0  0  0  0  0  0  0
  -20.7180  -28.3640   23.2010 C   0  0  0  0  0  3  0  0  0  0  0  0
  -20.8810  -26.9340   22.6370 C   0  0  0  0  0  2  0  0  0  0  0  0
  -19.7980  -26.5590   21.6220 C   0  0  0  0  0  2  0  0  0  0  0  0
  -18.4080  -26.6540   22.2580 C   0  0  0  0  0  2  0  0  0  0  0  0
  -19.2590  -28.8100   23.3500 C   0  0  0  0  0  0  0  0  0  0  0  0
  -18.9880  -30.0690   23.9290 C   0  0  0  0  0  3  0  0  0  0  0  0
  -17.6640  -30.5200   24.0830 C   0  0  0  0  0  3  0  0  0  0  0  0
  -16.5930  -29.7080   23.6730 C   0  0  0  0  0  3  0  0  0  0  0  0
  -16.8480  -28.4490   23.1000 C   0  0  0  0  0  3  0  0  0  0  0  0
  -25.9850  -32.6060   23.7860 C   0  0  0  0  0  3  0  0  0  0  0  0
  -25.6860  -34.0010   24.1300 N   0  0  0  0  0  0  0  0  0  0  0  0
  -26.0060  -35.0560   23.3690 C   0  0  0  0  0  0  0  0  0  0  0  0
  -26.6580  -34.9570   22.3260 O   0  0  0  0  0  0  0  0  0  0  0  0
  -25.1060  -34.1540   24.9420 H   0  0  0  0  0  0  0  0  0  0  0  0
  -24.2820  -36.8590   23.0420 C   0  0  0  0  0  1  0  0  0  0  0  0
  -25.5270  -36.4430   23.8410 C   0  0  0  0  0  3  0  0  0  0  0  0
  -27.6710  -37.3110   24.6670 C   0  0  0  0  0  1  0  0  0  0  0  0
  -26.5640  -37.4920   23.7300 N   0  0  0  0  0  0  0  0  0  0  0  0
  -26.1630  -38.4120   23.8920 H   0  0  0  0  0  0  0  0  0  0  0  0
  -26.5460  -31.8260   25.0390 C   0  0  1  0  0  0  0  0  0  0  0  0
  -25.4840  -31.5680   26.1330 C   0  0  0  0  0  1  0  0  0  0  0  0
  -27.1300  -30.4580   24.6170 C   0  0  0  0  0  1  0  0  0  0  0  0
  -27.7090  -32.6240   25.6750 C   0  0  0  0  0  1  0  0  0  0  0  0
  2  1  1  0
  2  3  1  6
  5  4  1  0
  5  8  1  0
  6  4  1  0
  6  9  1  0
  7  9  1  0
  8 10  1  0
  8  7  1  0
  9  2  1  0
 11 10  1  0
 12 17  1  0
 13 14  1  0
 13 12  1  0
 15 14  1  0
 15 22  1  0
 15 16  1  0
 17 11  1  0
 17 16  1  0
 18 11  2  0
 19 20  2  0
 20 39  1  0
 21 20  1  0
 21 24  1  0
 22 23  1  0
 22 19  1  0
 23 21  2  0
 24 25  1  0
 25 26  2  0
 27 30  1  0
 27 26  1  0
 28 27  2  0
 29 28  1  0
 29 24  2  0
 30 31  1  0
 31 32  1  0
 32 33  2  0
 34 33  1  0
 34 38  1  0
 35 34  2  0
 36 31  2  0
 36 35  1  0
 37 36  1  0
 39 40  1  0
 40 43  1  0
 40 42  1  0
 41 39  2  0
 44 45  1  0
 44 19  1  0
 46 44  1  0
 47  2  1  0
 48 47  1  0
 49 48  1  0
 50 51  1  0
 50 49  1  0
 51 53  1  0
 52 63  2  0
 53 58  1  0
 54 62  1  0
 54 64  1  0
 55 61  1  0
 55 57  1  0
 56 62  1  0
 57 56  1  0
 58 57  2  0
 59 60  1  0
 59 53  2  0
 60 55  2  0
 61 54  1  0
 62 52  1  0
 64 66  2  0
 65 64  1  0
 67 65  1  0
 68 77  2  0
 68 73  1  0
 69 65  1  0
 69 73  1  0
 70 69  1  0
 71 72  1  0
 71 70  1  0
 72 68  1  0
 73 74  2  0
 74 75  1  0
 76 75  2  0
 77 76  1  0
 78 52  1  0
 78 79  1  0
 78 88  1  0
 79 82  1  0
 80 84  1  0
 80 79  1  0
 81 80  2  0
 84 83  1  0
 86 84  1  0
 86 87  1  0
 86 85  1  0
 88 91  1  1
 88 89  1  0
 90 88  1  0
M  ISO  4  10 100  11 100  50 101  51 101
M  END
>  <TORSDO>  (46) 
F 22

>  <SCORE>  (46) 
-11.528

>  <name>  (46) 
45

>  <ligand_id>  (46) 
45

>  <original_smiles>  (46) 
[H]c1c([H])c([H])c2c(c1[H])C([H])([H])C([H])([H])C([H])([H])C2([H])N([H])C(=O)C1([H])N(C(=O)C([H])(N([H])C(=O)C([H])(N([H])C([H])([H])[H])C([H])([H])[H])C(C([H])([H])[H])(C([H])([H])[H])C([H])([H])[H])C([H])([H])c2c([H])c(OC([H])([H])C([H])([H])C([H])([H])C([H])([H])[N+]([H])(C([H])([H])[H])C3([H])C([H])([H])C([H])([H])C([H])([H])C([H])(C([H])([H])C(=O)N4C([H])([H])C([H])([H])C([H])([H])C([H])(n5nc(-c6c([H])c([H])c(Oc7c([H])c([H])c(F)c([H])c7F)c([H])c6[H])c(C(=O)N([H])[H])c5N([H])[H])C4([H])[H])C3([H])[H])c([H])c([H])c2C1([H])[H]

>  <smiles>  (46) 
[H]c1c([H])c([H])c2c(c1[H])C([H])([H])C([H])([H])C([H])([H])C2([H])N([H])C(=O)C1([H])N(C(=O)C([H])(N([H])C(=O)C([H])(N([H])C([H])([H])[H])C([H])([H])[H])C(C([H])([H])[H])(C([H])([H])[H])C([H])([H])[H])C([H])([H])c2c([H])c(OC([H])([H])C([H])([H])C([H])([H])C([H])([H])[N+]([H])(C([H])([H])[H])C3([H])C([H])([H])C([H])([H])C([H])([H])C([H])(C([H])([H])C(=O)N4C([H])([H])C([H])([H])C([H])([H])C([H])(n5nc(-c6c([H])c([H])c(Oc7c([H])c([H])c(F)c([H])c7F)c([H])c6[H])c(C(=O)N([H])[H])c5N([H])[H])C4([H])[H])C3([H])[H])c([H])c([H])c2C1([H])[H]

$$$$
46:0:0
     RDKit          3D

 92 99  0  0  1  0  0  0  0  0999 V2000
  -29.8760  -19.6270   19.3830 C   0  0  0  0  0  3  0  0  0  0  0  0
  -30.8940  -17.2520   19.4850 C   0  0  0  0  0  0  0  0  0  0  0  0
  -30.8380  -18.5730   19.8670 N   0  0  0  0  0  0  0  0  0  0  0  0
  -30.2420  -16.8610   18.5150 O   0  0  0  0  0  0  0  0  0  0  0  0
  -31.3950  -18.8260   20.6720 H   0  0  0  0  0  0  0  0  0  0  0  0
  -31.7110  -16.2060   20.3570 C   0  0  0  0  0  3  0  0  0  0  0  0
  -32.0690  -14.8350   19.5790 C   0  0  0  0  0  0  0  0  0  0  0  0
  -31.4840  -12.6910   18.4280 C   0  0  0  0  0  2  0  0  0  0  0  0
  -30.3800  -12.9510   17.3770 C   0  0  0  0  0  2  0  0  0  0  0  0
  -28.9720  -12.9120   18.0060 C   0  0  0  0  0  2  0  0  0  0  0  0
  -28.8970  -13.7190   19.3300 C   0  0  0  0  0  3  0  0  0  0  0  0
  -30.0760  -13.3280   20.2430 C   0  0  0  0  0  2  0  0  0  0  0  0
  -31.3110  -13.6760   19.5250 N   0  0  0  0  0  0  0  0  0  0  0  0
  -33.1310  -14.8490   18.9470 O   0  0  0  0  0  0  0  0  0  0  0  0
  -26.7880  -14.5270   20.5520 C   0  0  0  0  0  0  0  0  0  0  0  0
  -25.6690  -13.8660   20.9850 C   0  0  0  0  0  0  0  0  0  0  0  0
  -25.8710  -12.4910   20.6560 C   0  0  0  0  0  0  0  0  0  0  0  0
  -27.6090  -13.5590   19.9960 N   0  0  0  0  0  0  0  0  0  0  0  0
  -27.0680  -12.3190   20.1100 N   0  0  0  0  0  0  0  0  0  0  0  0
  -24.9700  -11.3380   20.7720 C   0  0  0  0  0  0  0  0  0  0  0  0
  -25.3310  -10.1900   21.5100 C   0  0  0  0  0  3  0  0  0  0  0  0
  -24.4400   -9.1010   21.6210 C   0  0  0  0  0  3  0  0  0  0  0  0
  -23.1720   -9.1530   20.9930 C   0  0  0  0  0  0  0  0  0  0  0  0
  -22.8270  -10.2890   20.2380 C   0  0  0  0  0  3  0  0  0  0  0  0
  -23.7170  -11.3710   20.1260 C   0  0  0  0  0  3  0  0  0  0  0  0
  -22.2530   -8.1330   21.0230 O   0  0  0  0  0  0  0  0  0  0  0  0
  -22.1350   -7.3040   22.1100 C   0  0  0  0  0  0  0  0  0  0  0  0
  -21.8840   -7.8080   23.4050 C   0  0  0  0  0  3  0  0  0  0  0  0
  -21.7000   -6.9200   24.4830 C   0  0  0  0  0  3  0  0  0  0  0  0
  -21.7560   -5.5290   24.2680 C   0  0  0  0  0  0  0  0  0  0  0  0
  -21.9990   -5.0260   22.9780 C   0  0  0  0  0  3  0  0  0  0  0  0
  -22.1860   -5.9120   21.9020 C   0  0  0  0  0  0  0  0  0  0  0  0
  -22.3980   -5.4200   20.6570 F   0  0  0  0  0  0  0  0  0  0  0  0
  -21.5720   -4.6760   25.3020 F   0  0  0  0  0  0  0  0  0  0  0  0
  -24.4380  -14.4870   21.5790 C   0  0  0  0  0  0  0  0  0  0  0  0
  -23.7890  -13.7940   22.5050 N   0  0  0  0  0  0  0  0  0  0  0  0
  -24.0730  -15.6170   21.2550 O   0  0  0  0  0  0  0  0  0  0  0  0
  -24.0970  -12.8730   22.7810 H   0  0  0  0  0  0  0  0  0  0  0  0
  -22.9740  -14.1920   22.9480 H   0  0  0  0  0  0  0  0  0  0  0  0
  -27.1630  -15.8670   20.5610 N   0  0  0  0  0  0  0  0  0  0  0  0
  -26.4840  -16.5830   20.7980 H   0  0  0  0  0  0  0  0  0  0  0  0
  -27.9290  -16.2210   20.0020 H   0  0  0  0  0  0  0  0  0  0  0  0
  -31.1060  -16.0660   21.7800 C   0  0  0  0  0  2  0  0  0  0  0  0
  -30.8450  -17.2780   24.0130 C   0  0  0  0  0  1  0  0  0  0  0  0
  -30.6430  -17.3550   22.4960 C   0  0  0  0  0  3  0  0  0  0  0  0
  -29.2560  -17.5510   22.2870 O   0  0  0  0  0  0  0  0  0  0  0  0
  -28.7940  -16.7740   22.5890 H   0  0  0  0  0  0  0  0  0  0  0  0
  -29.9190  -21.0610   20.0830 C   0  0  0  0  0  3  0  0  0  0  0  0
  -28.9850  -22.2090   19.4800 C   0  0  0  0  0  2  0  0  0  0  0  0
  -29.2400  -23.7460   19.8450 C   0  0  0  0  0  3  0  0  0  0  0  0
  -28.1650  -24.7930   19.3130 C   0  0  0  0  0  3  0  0  0  0  0  0
  -28.3540  -26.2590   19.4600 O   0  0  0  0  0  0  0  0  0  0  0  0
  -24.6180  -31.5220   22.7260 C   0  0  0  0  0  0  0  0  0  0  0  0
  -27.2060  -27.0750   19.4740 C   0  0  0  0  0  0  0  0  0  0  0  0
  -23.3680  -30.0760   21.1660 C   0  0  0  0  0  3  0  0  0  0  0  0
  -24.7810  -28.5930   19.6380 C   0  0  0  0  0  0  0  0  0  0  0  0
  -25.8760  -30.4950   20.8180 C   0  0  0  0  0  2  0  0  0  0  0  0
  -25.9670  -29.1230   20.1620 C   0  0  0  0  0  0  0  0  0  0  0  0
  -27.1800  -28.3730   20.0740 C   0  0  0  0  0  3  0  0  0  0  0  0
  -25.9910  -26.6130   18.9120 C   0  0  0  0  0  3  0  0  0  0  0  0
  -24.7950  -27.3430   19.0060 C   0  0  0  0  0  3  0  0  0  0  0  0
  -23.5150  -29.4150   19.7720 C   0  0  0  0  0  2  0  0  0  0  0  0
  -24.6430  -30.7150   21.6240 N   0  0  0  0  0  0  0  0  0  0  0  0
  -23.5610  -31.7560   23.3280 O   0  0  0  0  0  0  0  0  0  0  0  0
  -22.8160  -29.0290   22.1640 C   0  0  0  0  0  0  0  0  0  0  0  0
  -21.4960  -28.7820   22.1130 N   0  0  0  0  0  0  0  0  0  0  0  0
  -23.5710  -28.4420   22.9430 O   0  0  0  0  0  0  0  0  0  0  0  0
  -20.9390  -29.3140   21.4600 H   0  0  0  0  0  0  0  0  0  0  0  0
  -18.2220  -27.4000   22.7890 C   0  0  0  0  0  0  0  0  0  0  0  0
  -20.7740  -27.8050   22.9280 C   0  0  0  0  0  3  0  0  0  0  0  0
  -20.9280  -26.3770   22.3540 C   0  0  0  0  0  2  0  0  0  0  0  0
  -19.7950  -25.9890   21.3990 C   0  0  0  0  0  2  0  0  0  0  0  0
  -18.4410  -26.0580   22.1110 C   0  0  0  0  0  2  0  0  0  0  0  0
  -19.3180  -28.2270   23.1570 C   0  0  0  0  0  0  0  0  0  0  0  0
  -19.0610  -29.4810   23.7510 C   0  0  0  0  0  3  0  0  0  0  0  0
  -17.7400  -29.9140   23.9780 C   0  0  0  0  0  3  0  0  0  0  0  0
  -16.6600  -29.0860   23.6250 C   0  0  0  0  0  3  0  0  0  0  0  0
  -16.9020  -27.8310   23.0380 C   0  0  0  0  0  3  0  0  0  0  0  0
  -25.9110  -32.2080   23.2620 C   0  0  0  0  0  3  0  0  0  0  0  0
  -26.6500  -31.3600   24.3700 C   0  0  1  0  0  0  0  0  0  0  0  0
  -25.7180  -30.8700   25.5030 C   0  0  0  0  0  1  0  0  0  0  0  0
  -27.3290  -30.1180   23.7480 C   0  0  0  0  0  1  0  0  0  0  0  0
  -27.7770  -32.2050   25.0110 C   0  0  0  0  0  1  0  0  0  0  0  0
  -25.5270  -33.5260   23.7890 N   0  0  0  0  0  0  0  0  0  0  0  0
  -25.7060  -34.6860   23.1440 C   0  0  0  0  0  0  0  0  0  0  0  0
  -26.2850  -34.7650   22.0570 O   0  0  0  0  0  0  0  0  0  0  0  0
  -25.0020  -33.5330   24.6520 H   0  0  0  0  0  0  0  0  0  0  0  0
  -23.8260  -36.3570   23.1560 C   0  0  0  0  0  1  0  0  0  0  0  0
  -25.1600  -35.9630   23.8100 C   0  0  0  0  0  3  0  0  0  0  0  0
  -27.2860  -36.9220   24.5800 C   0  0  0  0  0  1  0  0  0  0  0  0
  -26.0980  -37.1060   23.7510 N   0  0  0  0  0  0  0  0  0  0  0  0
  -25.6380  -37.9650   24.0400 H   0  0  0  0  0  0  0  0  0  0  0  0
  1  3  1  0
  1 48  2  0
  2  3  1  0
  2  6  1  0
  3  5  1  0
  4  2  2  0
  6 43  1  0
  7  6  1  0
  8 13  1  0
  9 10  1  0
  9  8  1  0
 11 10  1  0
 11 18  1  0
 11 12  1  0
 13  7  1  0
 13 12  1  0
 14  7  2  0
 15 40  1  0
 15 16  2  0
 16 35  1  0
 17 20  1  0
 17 16  1  0
 18 19  1  0
 18 15  1  0
 19 17  2  0
 20 21  1  0
 21 22  2  0
 23 26  1  0
 23 22  1  0
 24 23  2  0
 25 24  1  0
 25 20  2  0
 26 27  1  0
 27 28  1  0
 28 29  2  0
 30 29  1  0
 30 34  1  0
 31 30  2  0
 32 27  2  0
 32 31  1  0
 33 32  1  0
 35 36  1  0
 36 38  1  0
 36 39  1  0
 37 35  2  0
 40 41  1  0
 42 40  1  0
 43 45  1  0
 45 44  1  0
 46 45  1  0
 46 47  1  0
 49 50  1  0
 49 48  1  0
 51 52  1  0
 51 50  2  0
 52 54  1  0
 53 64  2  0
 54 59  1  0
 55 63  1  0
 55 65  1  0
 56 62  1  0
 56 58  1  0
 57 63  1  0
 58 57  1  0
 59 58  2  0
 60 61  1  0
 60 54  2  0
 61 56  2  0
 62 55  1  0
 63 53  1  0
 65 67  2  0
 66 65  1  0
 68 66  1  0
 69 78  2  0
 69 74  1  0
 70 66  1  0
 70 74  1  0
 71 70  1  0
 72 73  1  0
 72 71  1  0
 73 69  1  0
 74 75  2  0
 75 76  1  0
 77 76  2  0
 78 77  1  0
 79 53  1  0
 79 84  1  0
 79 80  1  0
 80 83  1  1
 80 81  1  0
 82 80  1  0
 84 87  1  0
 85 84  1  0
 85 89  1  0
 86 85  2  0
 89 88  1  0
 91 89  1  0
 91 92  1  0
 91 90  1  0
M  ISO  4   6 100   7 100  51 101  52 101
M  END
>  <TORSDO>  (47) 
F 25

>  <SCORE>  (47) 
-7.233

>  <name>  (47) 
46

>  <ligand_id>  (47) 
46

>  <original_smiles>  (47) 
[H]OC([H])(C([H])([H])[H])C([H])([H])C([H])(C(=O)N([H])C([H])([H])C([H])([H])C([H])([H])C([H])([H])C([H])([H])Oc1c([H])c([H])c2c(c1[H])C([H])([H])N(C(=O)C([H])(N([H])C(=O)C([H])(N([H])C([H])([H])[H])C([H])([H])[H])C(C([H])([H])[H])(C([H])([H])[H])C([H])([H])[H])C([H])(C(=O)N([H])C1([H])c3c([H])c([H])c([H])c([H])c3C([H])([H])C([H])([H])C1([H])[H])C2([H])[H])C(=O)N1C([H])([H])C([H])([H])C([H])([H])C([H])(n2nc(-c3c([H])c([H])c(Oc4c([H])c([H])c(F)c([H])c4F)c([H])c3[H])c(C(=O)N([H])[H])c2N([H])[H])C1([H])[H]

>  <smiles>  (47) 
[H]OC([H])(C([H])([H])[H])C([H])([H])C([H])(C(=O)N([H])C([H])([H])C([H])([H])C([H])([H])C([H])([H])C([H])([H])Oc1c([H])c([H])c2c(c1[H])C([H])([H])N(C(=O)C([H])(N([H])C(=O)C([H])(N([H])C([H])([H])[H])C([H])([H])[H])C(C([H])([H])[H])(C([H])([H])[H])C([H])([H])[H])C([H])(C(=O)N([H])C1([H])c3c([H])c([H])c([H])c([H])c3C([H])([H])C([H])([H])C1([H])[H])C2([H])[H])C(=O)N1C([H])([H])C([H])([H])C([H])([H])C([H])(n2nc(-c3c([H])c([H])c(Oc4c([H])c([H])c(F)c([H])c4F)c([H])c3[H])c(C(=O)N([H])[H])c2N([H])[H])C1([H])[H]

$$$$
47:0:0
     RDKit          3D

 95102  0  0  1  0  0  0  0  0999 V2000
  -28.9920  -22.7780   20.7810 C   0  0  0  0  0  3  0  0  0  0  0  0
  -27.6220  -20.9880   19.5940 C   0  0  0  0  0  1  0  0  0  0  0  0
  -28.6710  -21.2650   20.6070 N   0  0  1  0  0  4  0  0  0  0  0  0
  -28.1390  -21.1040   21.4510 H   0  0  0  0  0  0  0  0  0  0  0  0
  -29.7550  -20.1390   20.7360 C   0  0  0  0  0  3  0  0  0  0  0  0
  -29.6840  -18.8120   19.8040 C   0  0  0  0  0  2  0  0  0  0  0  0
  -29.3820  -17.3430   20.4050 C   0  0  0  0  0  2  0  0  0  0  0  0
  -30.4590  -16.4590   21.1950 C   0  0  0  0  0  2  0  0  0  0  0  0
  -31.0830  -15.1600   20.5310 C   0  0  0  0  0  0  0  0  0  0  0  0
  -30.8790  -12.9250   19.4550 C   0  0  0  0  0  2  0  0  0  0  0  0
  -29.9900  -13.0450   18.1980 C   0  0  0  0  0  2  0  0  0  0  0  0
  -28.5010  -12.8960   18.5680 C   0  0  0  0  0  2  0  0  0  0  0  0
  -28.0990  -13.7650   19.7910 C   0  0  0  0  0  3  0  0  0  0  0  0
  -29.1110  -13.6240   20.9500 C   0  0  0  0  0  2  0  0  0  0  0  0
  -30.4410  -13.9540   20.4230 N   0  0  0  0  0  0  0  0  0  0  0  0
  -32.2230  -15.2850   20.0710 O   0  0  0  0  0  0  0  0  0  0  0  0
  -25.6810  -14.3610   20.4120 C   0  0  0  0  0  0  0  0  0  0  0  0
  -24.6030  -13.5900   20.7540 C   0  0  0  0  0  0  0  0  0  0  0  0
  -25.0710  -12.2400   20.7610 C   0  0  0  0  0  0  0  0  0  0  0  0
  -26.7360  -13.4820   20.2270 N   0  0  0  0  0  0  0  0  0  0  0  0
  -26.3720  -12.2020   20.4990 N   0  0  0  0  0  0  0  0  0  0  0  0
  -24.3410  -10.9780   20.9440 C   0  0  0  0  0  0  0  0  0  0  0  0
  -24.7050  -10.0530   21.9460 C   0  0  0  0  0  3  0  0  0  0  0  0
  -23.9770   -8.8550   22.1130 C   0  0  0  0  0  3  0  0  0  0  0  0
  -22.8710   -8.5740   21.2750 C   0  0  0  0  0  0  0  0  0  0  0  0
  -22.5260   -9.4890   20.2650 C   0  0  0  0  0  3  0  0  0  0  0  0
  -23.2560  -10.6790   20.0980 C   0  0  0  0  0  3  0  0  0  0  0  0
  -22.1190   -7.4260   21.3490 O   0  0  0  0  0  0  0  0  0  0  0  0
  -21.9240   -6.7670   22.5370 C   0  0  0  0  0  0  0  0  0  0  0  0
  -21.3500   -7.4060   23.6560 C   0  0  0  0  0  3  0  0  0  0  0  0
  -21.1030   -6.6740   24.8340 C   0  0  0  0  0  3  0  0  0  0  0  0
  -21.4190   -5.3030   24.8910 C   0  0  0  0  0  0  0  0  0  0  0  0
  -21.9860   -4.6640   23.7740 C   0  0  0  0  0  3  0  0  0  0  0  0
  -22.2340   -5.3940   22.5990 C   0  0  0  0  0  0  0  0  0  0  0  0
  -22.7600   -4.7690   21.5190 F   0  0  0  0  0  0  0  0  0  0  0  0
  -21.1760   -4.5980   26.0210 F   0  0  0  0  0  0  0  0  0  0  0  0
  -23.1970  -14.0680   20.9670 C   0  0  0  0  0  0  0  0  0  0  0  0
  -22.4470  -13.4000   21.8380 N   0  0  0  0  0  0  0  0  0  0  0  0
  -22.7670  -15.0700   20.3960 O   0  0  0  0  0  0  0  0  0  0  0  0
  -22.8070  -12.5930   22.3250 H   0  0  0  0  0  0  0  0  0  0  0  0
  -21.5010  -13.7000   22.0200 H   0  0  0  0  0  0  0  0  0  0  0  0
  -25.8500  -15.7290   20.2220 N   0  0  0  0  0  0  0  0  0  0  0  0
  -25.0810  -16.3860   20.3000 H   0  0  0  0  0  0  0  0  0  0  0  0
  -26.7120  -16.1600   19.9160 H   0  0  0  0  0  0  0  0  0  0  0  0
  -31.2070  -20.6880   20.7160 C   0  0  0  0  0  2  0  0  0  0  0  0
  -32.4820  -18.6650   21.7090 C   0  0  0  0  0  1  0  0  0  0  0  0
  -32.3770  -19.6970   20.5740 C   0  0  0  0  0  2  0  0  0  0  0  0
  -28.5750  -23.2730   22.2040 C   0  0  0  0  0  2  0  0  0  0  0  0
  -30.3260  -25.2870   21.9990 C   0  0  0  0  0  1  0  0  0  0  0  0
  -29.2960  -24.5070   22.8450 C   0  0  0  0  0  3  0  0  0  0  0  0
  -28.7730  -26.6630   24.1600 C   0  0  0  0  0  1  0  0  0  0  0  0
  -28.2200  -25.4630   23.3870 C   0  0  0  0  0  2  0  0  0  0  0  0
  -28.3170  -23.8160   19.7200 C   0  0  0  0  0  3  0  0  0  0  0  0
  -28.4290  -25.3970   19.9490 C   0  0  0  0  0  3  0  0  0  0  0  0
  -28.0230  -26.3790   18.9230 O   0  0  0  0  0  0  0  0  0  0  0  0
  -24.7420  -31.5150   22.8200 C   0  0  0  0  0  0  0  0  0  0  0  0
  -26.9130  -27.1960   19.1560 C   0  0  0  0  0  0  0  0  0  0  0  0
  -23.3360  -30.2850   21.2000 C   0  0  0  0  0  3  0  0  0  0  0  0
  -24.5950  -28.8240   19.5160 C   0  0  0  0  0  0  0  0  0  0  0  0
  -25.8470  -30.5770   20.7770 C   0  0  0  0  0  2  0  0  0  0  0  0
  -25.8290  -29.2550   20.0200 C   0  0  0  0  0  0  0  0  0  0  0  0
  -26.9920  -28.4510   19.8300 C   0  0  0  0  0  3  0  0  0  0  0  0
  -25.6610  -26.8030   18.6510 C   0  0  0  0  0  3  0  0  0  0  0  0
  -24.5110  -27.6020   18.8250 C   0  0  0  0  0  3  0  0  0  0  0  0
  -23.3920  -29.7130   19.7570 C   0  0  0  0  0  2  0  0  0  0  0  0
  -24.6660  -30.8050   21.6550 N   0  0  0  0  0  0  0  0  0  0  0  0
  -23.7300  -31.7650   23.4910 O   0  0  0  0  0  0  0  0  0  0  0  0
  -22.7480  -29.2060   22.1390 C   0  0  0  0  0  0  0  0  0  0  0  0
  -21.4160  -29.0300   22.1020 N   0  0  0  0  0  0  0  0  0  0  0  0
  -23.4860  -28.5280   22.8620 O   0  0  0  0  0  0  0  0  0  0  0  0
  -20.8780  -29.6370   21.4970 H   0  0  0  0  0  0  0  0  0  0  0  0
  -18.0950  -27.7340   22.7050 C   0  0  0  0  0  0  0  0  0  0  0  0
  -20.6580  -28.0410   22.8700 C   0  0  0  0  0  3  0  0  0  0  0  0
  -20.7630  -26.6370   22.2290 C   0  0  0  0  0  2  0  0  0  0  0  0
  -19.6230  -26.3350   21.2510 C   0  0  0  0  0  2  0  0  0  0  0  0
  -18.2690  -26.4190   21.9630 C   0  0  0  0  0  2  0  0  0  0  0  0
  -19.2170  -28.5020   23.1170 C   0  0  0  0  0  0  0  0  0  0  0  0
  -18.9980  -29.7320   23.7730 C   0  0  0  0  0  3  0  0  0  0  0  0
  -17.6940  -30.1950   24.0220 C   0  0  0  0  0  3  0  0  0  0  0  0
  -16.5870  -29.4210   23.6290 C   0  0  0  0  0  3  0  0  0  0  0  0
  -16.7890  -28.1940   22.9740 C   0  0  0  0  0  3  0  0  0  0  0  0
  -26.1040  -32.0640   23.3530 C   0  0  0  0  0  3  0  0  0  0  0  0
  -26.8110  -31.0880   24.3720 C   0  0  1  0  0  0  0  0  0  0  0  0
  -25.8940  -30.6290   25.5300 C   0  0  0  0  0  1  0  0  0  0  0  0
  -27.3330  -29.8240   23.6480 C   0  0  0  0  0  1  0  0  0  0  0  0
  -28.0480  -31.7830   24.9910 C   0  0  0  0  0  1  0  0  0  0  0  0
  -25.8410  -33.3650   23.9840 N   0  0  0  0  0  0  0  0  0  0  0  0
  -26.1070  -34.5530   23.4220 C   0  0  0  0  0  0  0  0  0  0  0  0
  -26.6730  -34.6630   22.3320 O   0  0  0  0  0  0  0  0  0  0  0  0
  -25.3340  -33.3490   24.8560 H   0  0  0  0  0  0  0  0  0  0  0  0
  -24.3800  -36.3720   23.5910 C   0  0  0  0  0  1  0  0  0  0  0  0
  -25.6810  -35.8170   24.1920 C   0  0  0  0  0  3  0  0  0  0  0  0
  -27.8910  -36.5230   24.9950 C   0  0  0  0  0  1  0  0  0  0  0  0
  -26.7130  -36.8750   24.2040 N   0  0  0  0  0  0  0  0  0  0  0  0
  -26.3340  -37.7420   24.5760 H   0  0  0  0  0  0  0  0  0  0  0  0
  1 53  1  0
  1 48  1  0
  2  3  1  0
  3  5  1  0
  3  1  1  0
  3  4  1  1
  5  6  1  0
  6  7  1  0
  7  8  1  0
  9  8  1  0
 10 15  1  0
 11 12  1  0
 11 10  1  0
 13 12  1  0
 13 20  1  0
 13 14  1  0
 15  9  1  0
 15 14  1  0
 16  9  2  0
 17 18  2  0
 18 19  1  0
 18 37  1  0
 19 22  1  0
 20 17  1  0
 20 21  1  0
 21 19  2  0
 22 23  1  0
 23 24  2  0
 25 28  1  0
 25 24  1  0
 26 25  2  0
 27 26  1  0
 27 22  2  0
 28 29  1  0
 29 34  2  0
 29 30  1  0
 30 31  2  0
 31 32  1  0
 32 36  1  0
 33 32  2  0
 34 33  1  0
 35 34  1  0
 37 38  1  0
 38 41  1  0
 38 40  1  0
 39 37  2  0
 42 43  1  0
 42 17  1  0
 44 42  1  0
 45  5  1  0
 47 45  1  0
 47 46  1  0
 48 50  1  0
 50 49  1  0
 50 52  1  0
 52 51  1  0
 53 54  2  0
 55 57  1  0
 55 54  1  0
 56 67  2  0
 57 62  1  0
 58 66  1  0
 58 68  1  0
 59 65  1  0
 59 61  1  0
 60 66  1  0
 61 60  1  0
 62 61  2  0
 63 64  1  0
 63 57  2  0
 64 59  2  0
 65 58  1  0
 66 56  1  0
 68 70  2  0
 69 68  1  0
 71 69  1  0
 72 81  2  0
 72 77  1  0
 73 69  1  0
 73 77  1  0
 74 73  1  0
 75 76  1  0
 75 74  1  0
 76 72  1  0
 77 78  2  0
 78 79  1  0
 80 79  2  0
 81 80  1  0
 82 56  1  0
 82 87  1  0
 82 83  1  0
 83 86  1  1
 83 84  1  0
 85 83  1  0
 87 90  1  0
 88 87  1  0
 88 92  1  0
 89 88  2  0
 92 91  1  0
 92 94  1  0
 94 95  1  0
 94 93  1  0
M  ISO  4   8 100   9 100  54 101  55 101
M  END
>  <TORSDO>  (48) 
F 28

>  <SCORE>  (48) 
-9.919

>  <name>  (48) 
47

>  <ligand_id>  (48) 
47

>  <original_smiles>  (48) 
[H]c1c([H])c([H])c2c(c1[H])C([H])([H])C([H])([H])C([H])([H])C2([H])N([H])C(=O)C1([H])N(C(=O)C([H])(N([H])C(=O)C([H])(N([H])C([H])([H])[H])C([H])([H])[H])C(C([H])([H])[H])(C([H])([H])[H])C([H])([H])[H])C([H])([H])c2c([H])c(OC([H])([H])C([H])([H])C([H])(C([H])([H])C([H])(C([H])([H])[H])C([H])([H])C([H])([H])[H])[N+]([H])(C([H])([H])[H])C([H])(C([H])([H])C([H])([H])C([H])([H])[H])C([H])([H])C([H])([H])C([H])([H])C(=O)N3C([H])([H])C([H])([H])C([H])([H])C([H])(n4nc(-c5c([H])c([H])c(Oc6c([H])c([H])c(F)c([H])c6F)c([H])c5[H])c(C(=O)N([H])[H])c4N([H])[H])C3([H])[H])c([H])c([H])c2C1([H])[H]

>  <smiles>  (48) 
[H]c1c([H])c([H])c2c(c1[H])C([H])([H])C([H])([H])C([H])([H])C2([H])N([H])C(=O)C1([H])N(C(=O)C([H])(N([H])C(=O)C([H])(N([H])C([H])([H])[H])C([H])([H])[H])C(C([H])([H])[H])(C([H])([H])[H])C([H])([H])[H])C([H])([H])c2c([H])c(OC([H])([H])C([H])([H])C([H])(C([H])([H])C([H])(C([H])([H])[H])C([H])([H])C([H])([H])[H])[N+]([H])(C([H])([H])[H])C([H])(C([H])([H])C([H])([H])C([H])([H])[H])C([H])([H])C([H])([H])C([H])([H])C(=O)N3C([H])([H])C([H])([H])C([H])([H])C([H])(n4nc(-c5c([H])c([H])c(Oc6c([H])c([H])c(F)c([H])c6F)c([H])c5[H])c(C(=O)N([H])[H])c4N([H])[H])C3([H])[H])c([H])c([H])c2C1([H])[H]

$$$$
48:0:0
     RDKit          3D

 95 96  0  0  1  0  0  0  0  0999 V2000
  -20.8640  -24.5280   22.8270 C   0  0  0  0  0  2  0  0  0  0  0  0
  -21.2550  -23.1890   21.9500 C   0  0  0  0  0  2  0  0  0  0  0  0
  -22.8780  -24.7220   21.2150 C   0  0  0  0  0  1  0  0  0  0  0  0
  -20.8790  -25.7560   21.8260 C   0  0  0  0  0  1  0  0  0  0  0  0
  -18.8330  -27.6440   20.3800 C   0  0  0  0  0  2  0  0  0  0  0  0
  -22.3600  -23.4470   20.9460 N   0  0  2  0  0  4  0  0  0  0  0  0
  -23.0850  -22.8240   21.2830 H   0  0  0  0  0  0  0  0  0  0  0  0
  -24.6040  -23.4430   21.4290 C   0  0  0  0  0  2  0  0  0  0  0  0
  -25.6390  -22.1900   20.8390 N   0  0  0  0  0  2  0  0  0  0  0  0
  -25.0720  -23.6820   22.5450 O   0  0  0  0  0  1  0  0  0  0  0  0
  -26.0510  -22.4480   21.7300 H   0  0  0  0  0  0  0  0  0  0  0  0
  -27.2400  -20.9370   20.7380 C   0  0  0  0  0 15  0  0  0  0  0  0
  -28.3060  -18.9860   20.3020 C   0  0  0  0  0 15  0  0  0  0  0  0
  -29.9180  -17.5610   20.3010 C   0  0  0  0  0  2  0  0  0  0  0  0
  -31.0790  -15.0100   19.6940 C   0  0  0  0  0  2  0  0  0  0  0  0
  -30.5130  -14.1180   18.5110 C   0  0  0  0  0  2  0  0  0  0  0  0
  -29.1370  -13.5340   18.8600 C   0  0  0  0  0  2  0  0  0  0  0  0
  -28.3800  -14.5980   19.6690 C   0  0  0  0  0  3  0  0  0  0  0  0
  -29.1240  -15.1120   20.8940 C   0  0  0  0  0  2  0  0  0  0  0  0
  -30.0530  -16.0480   20.3140 N   0  0  0  0  0  0  0  0  0  0  0  0
  -31.1700  -17.7790   20.1160 O   0  0  0  0  0  1  0  0  0  0  0  0
  -26.0650  -15.1500   20.3640 C   0  0  0  0  0  0  0  0  0  0  0  0
  -25.0090  -14.3770   20.7250 C   0  0  0  0  0  0  0  0  0  0  0  0
  -25.4750  -13.0270   20.6810 C   0  0  0  0  0  0  0  0  0  0  0  0
  -27.0750  -14.2580   20.0920 N   0  0  0  0  0  0  0  0  0  0  0  0
  -26.7580  -12.9780   20.3640 N   0  0  0  0  0  0  0  0  0  0  0  0
  -24.7530  -11.7720   20.8410 C   0  0  0  0  0  0  0  0  0  0  0  0
  -25.1080  -10.8340   21.8350 C   0  0  0  0  0  3  0  0  0  0  0  0
  -24.3760   -9.6380   21.9730 C   0  0  0  0  0  3  0  0  0  0  0  0
  -23.2780   -9.3760   21.1180 C   0  0  0  0  0  0  0  0  0  0  0  0
  -22.9510  -10.3010   20.1110 C   0  0  0  0  0  3  0  0  0  0  0  0
  -23.6850  -11.4890   19.9700 C   0  0  0  0  0  3  0  0  0  0  0  0
  -22.5220   -8.2330   21.1620 O   0  0  0  0  0  0  0  0  0  0  0  0
  -22.2290   -7.6150   22.3500 C   0  0  0  0  0  0  0  0  0  0  0  0
  -21.6350   -8.3100   23.4250 C   0  0  0  0  0  3  0  0  0  0  0  0
  -21.2890   -7.6190   24.6030 C   0  0  0  0  0  3  0  0  0  0  0  0
  -21.5260   -6.2350   24.7030 C   0  0  0  0  0  0  0  0  0  0  0  0
  -22.1160   -5.5410   23.6310 C   0  0  0  0  0  3  0  0  0  0  0  0
  -22.4650   -6.2310   22.4570 C   0  0  0  0  0  0  0  0  0  0  0  0
  -23.0130   -5.5560   21.4180 F   0  0  0  0  0  0  0  0  0  0  0  0
  -21.1850   -5.5670   25.8310 F   0  0  0  0  0  0  0  0  0  0  0  0
  -23.6210  -14.8700   20.9790 C   0  0  0  0  0  0  0  0  0  0  0  0
  -22.8920  -14.1980   21.8570 N   0  0  0  0  0  0  0  0  0  0  0  0
  -23.1970  -15.8840   20.4240 O   0  0  0  0  0  0  0  0  0  0  0  0
  -23.2610  -13.3770   22.3140 H   0  0  0  0  0  0  0  0  0  0  0  0
  -21.9560  -14.5050   22.0740 H   0  0  0  0  0  0  0  0  0  0  0  0
  -26.2370  -16.5260   20.2140 N   0  0  0  0  0  0  0  0  0  0  0  0
  -25.4490  -17.1590   20.3030 H   0  0  0  0  0  0  0  0  0  0  0  0
  -27.0400  -16.9560   19.7720 H   0  0  0  0  0  0  0  0  0  0  0  0
  -22.3860  -23.2130   19.4360 C   0  0  0  0  0  2  0  0  0  0  0  0
  -23.7870  -23.3710   18.5840 C   0  0  0  0  0  2  0  0  0  0  0  0
  -24.7700  -24.6330   18.3620 C   0  0  0  0  0  2  0  0  0  0  0  0
  -26.0700  -24.9860   19.2840 C   0  0  0  0  0  2  0  0  0  0  0  0
  -27.4740  -25.5860   18.6820 C   0  0  0  0  0  2  0  0  0  0  0  0
  -27.9740  -26.9500   19.0010 O   0  0  0  0  0  0  0  0  0  0  0  0
  -24.7070  -31.8230   23.1240 C   0  0  0  0  0  0  0  0  0  0  0  0
  -27.0350  -27.9570   19.0770 C   0  0  0  0  0  0  0  0  0  0  0  0
  -23.4830  -30.8290   21.2640 C   0  0  0  0  0  3  0  0  0  0  0  0
  -24.8220  -29.6640   19.4480 C   0  0  0  0  0  0  0  0  0  0  0  0
  -26.0240  -31.0810   21.1150 C   0  0  0  0  0  2  0  0  0  0  0  0
  -26.0120  -29.9070   20.1480 C   0  0  0  0  0  0  0  0  0  0  0  0
  -27.1330  -29.0460   19.9800 C   0  0  0  0  0  3  0  0  0  0  0  0
  -25.8760  -27.8540   18.2950 C   0  0  0  0  0  3  0  0  0  0  0  0
  -24.7530  -28.6460   18.5010 C   0  0  0  0  0  3  0  0  0  0  0  0
  -23.6360  -30.5400   19.7490 C   0  0  0  0  0  2  0  0  0  0  0  0
  -24.7580  -31.2820   21.8710 N   0  0  0  0  0  0  0  0  0  0  0  0
  -23.6260  -32.0000   23.7140 O   0  0  0  0  0  0  0  0  0  0  0  0
  -23.0060  -29.5750   22.0050 C   0  0  0  0  0  0  0  0  0  0  0  0
  -21.7220  -29.3600   22.0790 N   0  0  0  0  0  0  0  0  0  0  0  0
  -23.7910  -28.7690   22.5050 O   0  0  0  0  0  0  0  0  0  0  0  0
  -21.0790  -30.0710   21.7650 H   0  0  0  0  0  0  0  0  0  0  0  0
  -18.3490  -27.5430   22.5220 C   0  0  0  0  0  0  0  0  0  0  0  0
  -21.2370  -27.9890   22.1430 C   0  0  0  0  0  2  0  0  0  0  0  0
  -21.5160  -27.3970   20.1960 C   0  0  0  0  0 15  0  0  0  0  0  0
  -19.6550  -26.4020   19.5180 C   0  0  0  0  0  1  0  0  0  0  0  0
  -18.2920  -26.4110   21.0960 C   0  0  0  0  0  2  0  0  0  0  0  0
  -19.6610  -28.2100   22.9980 C   0  0  0  0  0  0  0  0  0  0  0  0
  -19.4760  -29.4480   23.7810 C   0  0  0  0  0  3  0  0  0  0  0  0
  -18.2390  -30.0740   24.1080 C   0  0  0  0  0  3  0  0  0  0  0  0
  -17.0500  -29.4850   23.6590 C   0  0  0  0  0  3  0  0  0  0  0  0
  -17.1300  -28.2690   22.9000 C   0  0  0  0  0  3  0  0  0  0  0  0
  -26.0010  -32.2520   23.8630 C   0  0  0  0  0  3  0  0  0  0  0  0
  -25.7720  -33.6140   24.3670 N   0  0  0  0  0  0  0  0  0  0  0  0
  -26.1670  -34.7230   23.7340 C   0  0  0  0  0  0  0  0  0  0  0  0
  -26.8370  -34.7030   22.7000 O   0  0  0  0  0  0  0  0  0  0  0  0
  -25.1890  -33.7010   25.1860 H   0  0  0  0  0  0  0  0  0  0  0  0
  -24.5510  -36.6470   23.5730 C   0  0  0  0  0  1  0  0  0  0  0  0
  -25.7470  -36.0730   24.3500 C   0  0  0  0  0  3  0  0  0  0  0  0
  -27.9180  -36.7060   25.3020 C   0  0  0  0  0  1  0  0  0  0  0  0
  -26.8400  -37.0650   24.3840 N   0  0  0  0  0  0  0  0  0  0  0  0
  -26.4880  -37.9800   24.6500 H   0  0  0  0  0  0  0  0  0  0  0  0
  -26.3970  -31.2810   25.0430 C   0  0  1  0  0  0  0  0  0  0  0  0
  -25.2440  -30.9760   26.0280 C   0  0  0  0  0  1  0  0  0  0  0  0
  -26.9070  -29.9290   24.4920 C   0  0  0  0  0  1  0  0  0  0  0  0
  -27.5630  -31.9010   25.8470 C   0  0  0  0  0  1  0  0  0  0  0  0
  2  1  1  0
  4  1  1  0
  5 76  1  0
  6  3  1  0
  6  7  1  1
  6  2  1  0
  8 10  1  0
  9  8  1  0
  9 11  1  0
 14 20  1  0
 15 20  1  0
 16 17  1  0
 16 15  1  0
 18 17  1  0
 18 25  1  0
 18 19  1  0
 20 19  1  0
 21 14  1  0
 22 23  2  0
 23 42  1  0
 24 23  1  0
 24 27  1  0
 25 26  1  0
 25 22  1  0
 26 24  2  0
 27 28  1  0
 28 29  2  0
 30 33  1  0
 30 29  1  0
 31 30  2  0
 32 31  1  0
 32 27  2  0
 33 34  1  0
 34 39  2  0
 34 35  1  0
 35 36  2  0
 36 37  1  0
 37 41  1  0
 38 37  2  0
 39 38  1  0
 40 39  1  0
 42 43  1  0
 43 46  1  0
 43 45  1  0
 44 42  2  0
 47 48  1  0
 47 22  1  0
 49 47  1  0
 50  6  1  0
 51 50  1  0
 52 51  1  0
 52 53  1  0
 54 55  1  0
 54 53  1  0
 55 57  1  0
 56 67  2  0
 57 62  1  0
 58 66  1  0
 58 68  1  0
 59 65  1  0
 59 61  1  0
 60 66  1  0
 61 60  1  0
 62 61  2  0
 63 64  1  0
 63 57  2  0
 64 59  2  0
 65 58  1  0
 66 56  1  0
 68 69  1  0
 68 70  2  0
 69 73  1  0
 71 69  1  0
 72 81  2  0
 72 77  1  0
 73 77  1  0
 75  5  1  0
 76 72  1  0
 77 78  2  0
 78 79  1  0
 80 79  2  0
 81 80  1  0
 82 56  1  0
 82 83  1  0
 82 92  1  0
 83 86  1  0
 84 88  1  0
 84 83  1  0
 85 84  2  0
 88 87  1  0
 88 90  1  0
 90 91  1  0
 90 89  1  0
 92 95  1  1
 92 93  1  0
 94 92  1  0
M  ISO  4  13 100  14 100  54 101  55 101
M  END
>  <TORSDO>  (49) 
F 24

>  <SCORE>  (49) 
-5.524

>  <name>  (49) 
48

>  <ligand_id>  (49) 
48

>  <original_smiles>  (49) 
[H]c1c([H])c([H])c2c(c1[H])C([H])([H])C([H])([H])C([H])([H])C2([H])N([H])C(=O)C1([H])N(C(=O)C([H])(N([H])C(=O)C([H])(N([H])C([H])([H])[H])C([H])([H])[H])C(C([H])([H])[H])(C([H])([H])[H])C([H])([H])[H])C([H])([H])c2c([H])c(OC([H])([H])C([H])([H])C([H])([H])C([H])([H])C([H])([H])[N+]3([H])C([H])([H])C([H])([H])C([H])(C([H])([H])[H])C3([H])C(=O)N([H])C([H])([H])C([H])([H])C(=O)N3C([H])([H])C([H])([H])C([H])([H])C([H])(n4nc(-c5c([H])c([H])c(Oc6c([H])c([H])c(F)c([H])c6F)c([H])c5[H])c(C(=O)N([H])[H])c4N([H])[H])C3([H])[H])c([H])c([H])c2C1([H])[H]

>  <smiles>  (49) 
[H]c1c([H])c([H])c2c(c1[H])C([H])([H])C([H])([H])C([H])([H])C2([H])N([H])C(=O)C1([H])N(C(=O)C([H])(N([H])C(=O)C([H])(N([H])C([H])([H])[H])C([H])([H])[H])C(C([H])([H])[H])(C([H])([H])[H])C([H])([H])[H])C([H])([H])c2c([H])c(OC([H])([H])C([H])([H])C([H])([H])C([H])([H])C([H])([H])[N+]3([H])C([H])([H])C([H])([H])C([H])(C([H])([H])[H])C3([H])C(=O)N([H])C([H])([H])C([H])([H])C(=O)N3C([H])([H])C([H])([H])C([H])([H])C([H])(n4nc(-c5c([H])c([H])c(Oc6c([H])c([H])c(F)c([H])c6F)c([H])c5[H])c(C(=O)N([H])[H])c4N([H])[H])C3([H])[H])c([H])c([H])c2C1([H])[H]

$$$$
49:0:0
     RDKit          3D

 88 95  0  0  1  0  0  0  0  0999 V2000
  -30.0850  -20.4910   19.5640 C   0  0  0  0  0  3  0  0  0  0  0  0
  -28.4420  -18.5370   18.9220 C   0  0  0  0  0  3  0  0  0  0  0  0
  -29.6660  -18.8970   19.3930 C   0  0  0  0  0  0  0  0  0  0  0  0
  -26.3320  -18.5010   17.5510 C   0  0  0  0  0  1  0  0  0  0  0  0
  -26.4760  -19.9520   19.6030 C   0  0  0  0  0  1  0  0  0  0  0  0
  -27.2620  -19.3590   18.4230 C   0  0  0  0  0  3  0  0  0  0  0  0
  -30.5550  -17.6680   19.7840 C   0  0  0  0  0  3  0  0  0  0  0  0
  -30.2350  -16.3040   20.0380 C   0  0  0  0  0  3  0  0  0  0  0  0
  -31.1390  -15.1220   20.4670 C   0  0  0  0  0  0  0  0  0  0  0  0
  -31.2130  -12.5950   20.6040 C   0  0  0  0  0  2  0  0  0  0  0  0
  -30.5350  -11.9950   19.3490 C   0  0  0  0  0  2  0  0  0  0  0  0
  -29.0130  -11.8630   19.5550 C   0  0  0  0  0  2  0  0  0  0  0  0
  -28.3900  -13.1460   20.1640 C   0  0  0  0  0  3  0  0  0  0  0  0
  -29.2080  -13.6760   21.3590 C   0  0  0  0  0  2  0  0  0  0  0  0
  -30.5780  -13.9140   20.8850 N   0  0  0  0  0  0  0  0  0  0  0  0
  -32.3680  -15.1450   20.3430 O   0  0  0  0  0  0  0  0  0  0  0  0
  -25.9990  -13.9380   20.6230 C   0  0  0  0  0  0  0  0  0  0  0  0
  -24.8350  -13.2600   20.8640 C   0  0  0  0  0  0  0  0  0  0  0  0
  -25.1790  -11.8750   20.8760 C   0  0  0  0  0  0  0  0  0  0  0  0
  -26.9810  -12.9690   20.4980 N   0  0  0  0  0  0  0  0  0  0  0  0
  -26.4880  -11.7230   20.7150 N   0  0  0  0  0  0  0  0  0  0  0  0
  -24.3260  -10.6810   20.9730 C   0  0  0  0  0  0  0  0  0  0  0  0
  -24.5560   -9.6850   21.9480 C   0  0  0  0  0  3  0  0  0  0  0  0
  -23.7100   -8.5580   22.0320 C   0  0  0  0  0  3  0  0  0  0  0  0
  -22.6190   -8.4210   21.1410 C   0  0  0  0  0  0  0  0  0  0  0  0
  -22.4080   -9.4040   20.1590 C   0  0  0  0  0  3  0  0  0  0  0  0
  -23.2540  -10.5230   20.0730 C   0  0  0  0  0  3  0  0  0  0  0  0
  -21.7600   -7.3480   21.1330 O   0  0  0  0  0  0  0  0  0  0  0  0
  -21.4490   -6.6680   22.2830 C   0  0  0  0  0  0  0  0  0  0  0  0
  -20.9000   -7.3190   23.4100 C   0  0  0  0  0  3  0  0  0  0  0  0
  -20.5290   -6.5700   24.5440 C   0  0  0  0  0  3  0  0  0  0  0  0
  -20.6960   -5.1730   24.5520 C   0  0  0  0  0  0  0  0  0  0  0  0
  -21.2360   -4.5210   23.4290 C   0  0  0  0  0  3  0  0  0  0  0  0
  -21.6080   -5.2670   22.2960 C   0  0  0  0  0  0  0  0  0  0  0  0
  -22.1090   -4.6320   21.2080 F   0  0  0  0  0  0  0  0  0  0  0  0
  -20.3330   -4.4510   25.6390 F   0  0  0  0  0  0  0  0  0  0  0  0
  -23.4640  -13.8610   20.9750 C   0  0  0  0  0  0  0  0  0  0  0  0
  -22.5940  -13.2560   21.7750 N   0  0  0  0  0  0  0  0  0  0  0  0
  -23.1720  -14.9010   20.3860 O   0  0  0  0  0  0  0  0  0  0  0  0
  -22.8390  -12.4120   22.2720 H   0  0  0  0  0  0  0  0  0  0  0  0
  -21.6680  -13.6440   21.8930 H   0  0  0  0  0  0  0  0  0  0  0  0
  -26.3030  -15.2880   20.4740 N   0  0  0  0  0  0  0  0  0  0  0  0
  -25.5880  -16.0060   20.4920 H   0  0  0  0  0  0  0  0  0  0  0  0
  -27.2130  -15.6460   20.2160 H   0  0  0  0  0  0  0  0  0  0  0  0
  -29.0680  -21.8360   19.6650 C   0  0  0  0  0  3  0  0  0  0  0  0
  -29.4810  -23.4540   19.8400 C   0  0  0  0  0  3  0  0  0  0  0  0
  -28.3560  -24.6980   19.8280 C   0  0  0  0  0  3  0  0  0  0  0  0
  -28.5760  -26.2240   20.0010 O   0  0  0  0  0  0  0  0  0  0  0  0
  -24.6460  -31.5980   23.1600 C   0  0  0  0  0  0  0  0  0  0  0  0
  -27.4710  -27.1480   19.9760 C   0  0  0  0  0  0  0  0  0  0  0  0
  -23.5350  -30.2390   21.4290 C   0  0  0  0  0  3  0  0  0  0  0  0
  -25.0720  -28.7890   19.9720 C   0  0  0  0  0  0  0  0  0  0  0  0
  -26.0800  -30.6090   21.3380 C   0  0  0  0  0  2  0  0  0  0  0  0
  -26.2200  -29.2540   20.6260 C   0  0  0  0  0  0  0  0  0  0  0  0
  -27.4210  -28.4520   20.6100 C   0  0  0  0  0  3  0  0  0  0  0  0
  -26.2940  -26.7850   19.2840 C   0  0  0  0  0  3  0  0  0  0  0  0
  -25.1220  -27.5680   19.2860 C   0  0  0  0  0  3  0  0  0  0  0  0
  -23.8110  -29.6330   20.0270 C   0  0  0  0  0  2  0  0  0  0  0  0
  -24.7720  -30.8340   22.0320 N   0  0  0  0  0  0  0  0  0  0  0  0
  -23.5390  -31.8180   23.6740 O   0  0  0  0  0  0  0  0  0  0  0  0
  -22.8730  -29.1640   22.3270 C   0  0  0  0  0  0  0  0  0  0  0  0
  -21.5540  -28.9570   22.1630 N   0  0  0  0  0  0  0  0  0  0  0  0
  -23.5470  -28.5220   23.1350 O   0  0  0  0  0  0  0  0  0  0  0  0
  -21.0640  -29.5320   21.4910 H   0  0  0  0  0  0  0  0  0  0  0  0
  -18.2000  -27.6480   22.5570 C   0  0  0  0  0  0  0  0  0  0  0  0
  -20.7490  -27.9540   22.8670 C   0  0  0  0  0  3  0  0  0  0  0  0
  -20.8930  -26.5630   22.2100 C   0  0  0  0  0  2  0  0  0  0  0  0
  -19.8070  -26.2690   21.1700 C   0  0  0  0  0  2  0  0  0  0  0  0
  -18.4160  -26.3450   21.8040 C   0  0  0  0  0  2  0  0  0  0  0  0
  -19.2950  -28.4110   23.0430 C   0  0  0  0  0  0  0  0  0  0  0  0
  -19.0370  -29.6300   23.7060 C   0  0  0  0  0  3  0  0  0  0  0  0
  -17.7180  -30.0870   23.8870 C   0  0  0  0  0  3  0  0  0  0  0  0
  -16.6380  -29.3220   23.4160 C   0  0  0  0  0  3  0  0  0  0  0  0
  -16.8800  -28.1030   22.7570 C   0  0  0  0  0  3  0  0  0  0  0  0
  -25.8870  -32.2470   23.8460 C   0  0  0  0  0  3  0  0  0  0  0  0
  -25.5450  -33.6420   24.1620 N   0  0  0  0  0  0  0  0  0  0  0  0
  -25.8770  -34.6990   23.4100 C   0  0  0  0  0  0  0  0  0  0  0  0
  -26.5710  -34.6040   22.3940 O   0  0  0  0  0  0  0  0  0  0  0  0
  -24.9320  -33.7890   24.9510 H   0  0  0  0  0  0  0  0  0  0  0  0
  -24.1240  -36.4630   23.0230 C   0  0  0  0  0  1  0  0  0  0  0  0
  -25.3600  -36.0830   23.8530 C   0  0  0  0  0  3  0  0  0  0  0  0
  -27.4630  -37.0150   24.7140 C   0  0  0  0  0  1  0  0  0  0  0  0
  -26.3750  -37.1530   23.7490 N   0  0  0  0  0  0  0  0  0  0  0  0
  -25.9500  -38.0670   23.8780 H   0  0  0  0  0  0  0  0  0  0  0  0
  -26.3430  -31.4840   25.1510 C   0  0  1  0  0  0  0  0  0  0  0  0
  -25.1990  -31.2440   26.1650 C   0  0  0  0  0  1  0  0  0  0  0  0
  -26.9520  -30.1070   24.7980 C   0  0  0  0  0  1  0  0  0  0  0  0
  -27.4540  -32.2880   25.8650 C   0  0  0  0  0  1  0  0  0  0  0  0
  1 45  2  0
  2  3  2  0
  3  1  1  0
  3  7  1  0
  4  6  1  0
  6  2  1  0
  6  5  1  0
  7  8  2  0
  8  9  1  0
  9 15  1  0
 10 15  1  0
 11 12  1  0
 11 10  1  0
 13 12  1  0
 13 20  1  0
 13 14  1  0
 15 14  1  0
 16  9  2  0
 17 18  2  0
 18 19  1  0
 18 37  1  0
 19 22  1  0
 20 17  1  0
 20 21  1  0
 21 19  2  0
 22 23  1  0
 23 24  2  0
 25 24  1  0
 26 25  2  0
 27 26  1  0
 27 22  2  0
 28 25  1  0
 28 29  1  0
 29 34  2  0
 29 30  1  0
 30 31  2  0
 31 32  1  0
 32 36  1  0
 33 32  2  0
 34 33  1  0
 35 34  1  0
 37 38  1  0
 38 41  1  0
 38 40  1  0
 39 37  2  0
 42 43  1  0
 42 17  1  0
 44 42  1  0
 45 46  1  0
 47 46  2  0
 47 48  1  0
 49 60  2  0
 50 48  1  0
 50 55  1  0
 51 59  1  0
 51 61  1  0
 52 58  1  0
 52 54  1  0
 53 59  1  0
 54 53  1  0
 55 54  2  0
 56 57  1  0
 56 50  2  0
 57 52  2  0
 58 51  1  0
 59 49  1  0
 61 63  2  0
 62 61  1  0
 64 62  1  0
 65 74  2  0
 65 70  1  0
 66 62  1  0
 66 70  1  0
 67 66  1  0
 68 69  1  0
 68 67  1  0
 69 65  1  0
 70 71  2  0
 71 72  1  0
 73 72  2  0
 74 73  1  0
 75 49  1  0
 75 76  1  0
 75 85  1  0
 76 79  1  0
 77 81  1  0
 77 76  1  0
 78 77  2  0
 81 80  1  0
 83 81  1  0
 83 84  1  0
 83 82  1  0
 85 88  1  1
 85 86  1  0
 87 85  1  0
M  ISO  4   8 100   9 100  47 101  48 101
M  END
>  <TORSDO>  (50) 
F 22

>  <SCORE>  (50) 
-9.756

>  <name>  (50) 
49

>  <ligand_id>  (50) 
49

>  <original_smiles>  (50) 
[H]C(C(=O)N1C([H])([H])C([H])([H])C([H])([H])C([H])(n2nc(-c3c([H])c([H])c(Oc4c([H])c([H])c(F)c([H])c4F)c([H])c3[H])c(C(=O)N([H])[H])c2N([H])[H])C1([H])[H])=C([H])C(=C([H])C([H])(C([H])([H])[H])C([H])([H])[H])C([H])([H])C([H])([H])C([H])([H])C([H])([H])Oc1c([H])c([H])c2c(c1[H])C([H])([H])N(C(=O)C([H])(N([H])C(=O)C([H])(N([H])C([H])([H])[H])C([H])([H])[H])C(C([H])([H])[H])(C([H])([H])[H])C([H])([H])[H])C([H])(C(=O)N([H])C1([H])c3c([H])c([H])c([H])c([H])c3C([H])([H])C([H])([H])C1([H])[H])C2([H])[H]

>  <smiles>  (50) 
[H]C(C(=O)N1C([H])([H])C([H])([H])C([H])([H])C([H])(n2nc(-c3c([H])c([H])c(Oc4c([H])c([H])c(F)c([H])c4F)c([H])c3[H])c(C(=O)N([H])[H])c2N([H])[H])C1([H])[H])=C([H])C(=C([H])C([H])(C([H])([H])[H])C([H])([H])[H])C([H])([H])C([H])([H])C([H])([H])C([H])([H])Oc1c([H])c([H])c2c(c1[H])C([H])([H])N(C(=O)C([H])(N([H])C(=O)C([H])(N([H])C([H])([H])[H])C([H])([H])[H])C(C([H])([H])[H])(C([H])([H])[H])C([H])([H])[H])C([H])(C(=O)N([H])C1([H])c3c([H])c([H])c([H])c([H])c3C([H])([H])C([H])([H])C1([H])[H])C2([H])[H]

$$$$
50:0:0
     RDKit          3D

 93101  0  0  1  0  0  0  0  0999 V2000
  -27.6420  -19.6360   20.1080 C   0  0  0  0  0  2  0  0  0  0  0  0
  -28.2050  -18.0900   19.8880 C   0  0  0  0  0  2  0  0  0  0  0  0
  -30.3440  -19.3870   19.8880 C   0  0  0  0  0  2  0  0  0  0  0  0
  -27.6310  -20.9640   19.1050 C   0  0  0  0  0  2  0  0  0  0  0  0
  -29.9100  -21.0140   19.1460 C   0  0  0  0  0  2  0  0  0  0  0  0
  -29.7610  -17.6940   19.8320 C   0  0  0  0  0  3  0  0  0  0  0  0
  -28.6190  -22.2640   19.3160 C   0  0  1  0  0  0  0  0  0  0  0  0
  -30.4800  -16.0010   20.2660 C   0  0  0  0  0  0  0  0  0  0  0  0
  -30.7020  -13.3640   19.8960 C   0  0  0  0  0  2  0  0  0  0  0  0
  -29.9520  -12.7780   18.6660 C   0  0  0  0  0  2  0  0  0  0  0  0
  -28.4950  -12.4380   19.0180 C   0  0  0  0  0  2  0  0  0  0  0  0
  -27.8580  -13.5520   19.8790 C   0  0  0  0  0  3  0  0  0  0  0  0
  -28.7600  -14.0800   21.0170 C   0  0  0  0  0  2  0  0  0  0  0  0
  -29.9910  -14.6260   20.4000 N   0  0  0  0  0  0  0  0  0  0  0  0
  -31.7230  -15.9190   20.2670 O   0  0  0  0  0  0  0  0  0  0  0  0
  -25.4690  -14.1120   20.5350 C   0  0  0  0  0  0  0  0  0  0  0  0
  -24.3860  -13.3440   20.8530 C   0  0  0  0  0  0  0  0  0  0  0  0
  -24.8400  -11.9890   20.8450 C   0  0  0  0  0  0  0  0  0  0  0  0
  -26.5140  -13.2280   20.3350 N   0  0  0  0  0  0  0  0  0  0  0  0
  -26.1480  -11.9440   20.5930 N   0  0  0  0  0  0  0  0  0  0  0  0
  -24.0870  -10.7350   21.0000 C   0  0  0  0  0  0  0  0  0  0  0  0
  -24.4580   -9.7580   21.9500 C   0  0  0  0  0  3  0  0  0  0  0  0
  -23.7010   -8.5740   22.0940 C   0  0  0  0  0  3  0  0  0  0  0  0
  -22.5600   -8.3580   21.2870 C   0  0  0  0  0  0  0  0  0  0  0  0
  -22.2080   -9.3210   20.3260 C   0  0  0  0  0  3  0  0  0  0  0  0
  -22.9660  -10.4970   20.1800 C   0  0  0  0  0  3  0  0  0  0  0  0
  -21.7820   -7.2260   21.3400 O   0  0  0  0  0  0  0  0  0  0  0  0
  -21.6780   -6.4760   22.4850 C   0  0  0  0  0  0  0  0  0  0  0  0
  -21.2050   -7.0280   23.6950 C   0  0  0  0  0  3  0  0  0  0  0  0
  -21.0430   -6.2040   24.8280 C   0  0  0  0  0  3  0  0  0  0  0  0
  -21.3480   -4.8320   24.7530 C   0  0  0  0  0  0  0  0  0  0  0  0
  -21.8130   -4.2810   23.5460 C   0  0  0  0  0  3  0  0  0  0  0  0
  -21.9740   -5.1000   22.4150 C   0  0  0  0  0  0  0  0  0  0  0  0
  -22.4040   -4.5580   21.2490 F   0  0  0  0  0  0  0  0  0  0  0  0
  -21.1860   -4.0410   25.8380 F   0  0  0  0  0  0  0  0  0  0  0  0
  -22.9820  -13.8400   21.0440 C   0  0  0  0  0  0  0  0  0  0  0  0
  -22.2040  -13.1610   21.8800 N   0  0  0  0  0  0  0  0  0  0  0  0
  -22.5840  -14.8620   20.4860 O   0  0  0  0  0  0  0  0  0  0  0  0
  -22.5380  -12.3330   22.3500 H   0  0  0  0  0  0  0  0  0  0  0  0
  -21.2600  -13.4750   22.0520 H   0  0  0  0  0  0  0  0  0  0  0  0
  -25.6490  -15.4820   20.3710 N   0  0  0  0  0  0  0  0  0  0  0  0
  -24.8720  -16.1320   20.4480 H   0  0  0  0  0  0  0  0  0  0  0  0
  -26.5020  -15.9270   20.0610 H   0  0  0  0  0  0  0  0  0  0  0  0
  -28.1840  -23.8960   18.3310 C   0  0  0  0  0  2  0  0  0  0  0  0
  -28.1620  -25.6620   18.3470 O   0  0  0  0  0  0  0  0  0  0  0  0
  -24.5750  -31.3510   22.1960 C   0  0  0  0  0  0  0  0  0  0  0  0
  -27.1010  -26.7940   18.4580 C   0  0  0  0  0  0  0  0  0  0  0  0
  -23.3090  -30.0030   20.5760 C   0  0  0  0  0  3  0  0  0  0  0  0
  -24.6940  -28.6170   18.8510 C   0  0  0  0  0  0  0  0  0  0  0  0
  -25.8350  -30.3770   20.1810 C   0  0  0  0  0  2  0  0  0  0  0  0
  -25.9250  -29.0190   19.3820 C   0  0  0  0  0  0  0  0  0  0  0  0
  -27.1050  -28.1330   19.1650 C   0  0  0  0  0  3  0  0  0  0  0  0
  -25.8170  -26.6060   17.8830 C   0  0  0  0  0  3  0  0  0  0  0  0
  -24.6750  -27.4420   18.0760 C   0  0  0  0  0  3  0  0  0  0  0  0
  -23.4330  -29.4520   19.1250 C   0  0  0  0  0  2  0  0  0  0  0  0
  -24.6000  -30.6080   21.0360 N   0  0  0  0  0  0  0  0  0  0  0  0
  -23.5320  -31.5170   22.8500 O   0  0  0  0  0  0  0  0  0  0  0  0
  -22.7880  -28.8890   21.5230 C   0  0  0  0  0  0  0  0  0  0  0  0
  -21.4650  -28.6350   21.5370 N   0  0  0  0  0  0  0  0  0  0  0  0
  -23.5820  -28.2530   22.2190 O   0  0  0  0  0  0  0  0  0  0  0  0
  -20.8650  -29.2020   20.9550 H   0  0  0  0  0  0  0  0  0  0  0  0
  -18.2650  -27.0890   22.2960 C   0  0  0  0  0  0  0  0  0  0  0  0
  -20.8080  -27.5680   22.3040 C   0  0  0  0  0  3  0  0  0  0  0  0
  -20.9600  -26.2030   21.5940 C   0  0  0  0  0  2  0  0  0  0  0  0
  -19.7790  -25.8650   20.6790 C   0  0  0  0  0  2  0  0  0  0  0  0
  -18.4730  -25.8260   21.4770 C   0  0  0  0  0  2  0  0  0  0  0  0
  -19.3600  -27.9160   22.6700 C   0  0  0  0  0  0  0  0  0  0  0  0
  -19.1060  -29.0920   23.4070 C   0  0  0  0  0  3  0  0  0  0  0  0
  -17.7940  -29.4490   23.7690 C   0  0  0  0  0  3  0  0  0  0  0  0
  -16.7150  -28.6220   23.4040 C   0  0  0  0  0  3  0  0  0  0  0  0
  -16.9540  -27.4440   22.6760 C   0  0  0  0  0  3  0  0  0  0  0  0
  -25.8560  -32.0470   22.7510 C   0  0  0  0  0  3  0  0  0  0  0  0
  -26.7110  -31.1090   23.6930 C   0  0  1  0  0  0  0  0  0  0  0  0
  -25.8950  -30.4700   24.8410 C   0  0  0  0  0  1  0  0  0  0  0  0
  -27.3680  -29.9610   22.8940 C   0  0  0  0  0  1  0  0  0  0  0  0
  -27.8680  -31.9180   24.3270 C   0  0  0  0  0  1  0  0  0  0  0  0
  -25.4400  -33.2540   23.4910 N   0  0  0  0  0  0  0  0  0  0  0  0
  -25.5490  -34.5110   23.0410 C   0  0  0  0  0  0  0  0  0  0  0  0
  -26.0650  -34.7850   21.9550 O   0  0  0  0  0  0  0  0  0  0  0  0
  -24.9570  -33.1020   24.3650 H   0  0  0  0  0  0  0  0  0  0  0  0
  -23.6220  -36.0920   23.4190 C   0  0  0  0  0  1  0  0  0  0  0  0
  -25.0020  -35.6460   23.9350 C   0  0  0  0  0  3  0  0  0  0  0  0
  -27.1350  -36.5540   24.7480 C   0  0  0  0  0  1  0  0  0  0  0  0
  -25.8990  -36.8200   24.0160 N   0  0  0  0  0  0  0  0  0  0  0  0
  -25.4280  -37.6020   24.4630 H   0  0  0  0  0  0  0  0  0  0  0  0
  -28.5300  -22.7890   20.8090 C   0  0  0  0  0  3  0  0  0  0  0  0
  -28.8740  -21.7530   21.7990 N   0  0  0  0  0  4  0  0  0  0  0  0
  -28.2360  -20.9820   21.7130 H   0  0  0  0  0  0  0  0  0  0  0  0
  -28.7760  -22.1420   22.7220 H   0  0  0  0  0  0  0  0  0  0  0  0
  -29.8170  -21.4240   21.6890 H   0  0  0  0  0  0  0  0  0  0  0  0
  -26.7740  -23.3340   22.7010 C   0  0  0  0  0  1  0  0  0  0  0  0
  -27.1530  -25.0090   20.8750 C   0  0  0  0  0  1  0  0  0  0  0  0
  -27.1850  -23.5080   21.2170 C   0  0  0  0  0  3  0  0  0  0  0  0
  2  1  1  0
  4  7  1  0
  4  1  1  0
  5  7  1  0
  5  3  1  0
  6  2  1  0
  6  3  1  0
  6  8  1  0
  7 44  1  6
  7 86  1  0
  8 15  2  0
  8 14  1  0
  9 14  1  0
 10 11  1  0
 10  9  1  0
 12 11  1  0
 12 19  1  0
 12 13  1  0
 14 13  1  0
 16 17  2  0
 17 36  1  0
 18 17  1  0
 18 21  1  0
 19 16  1  0
 19 20  1  0
 20 18  2  0
 21 22  1  0
 22 23  2  0
 24 27  1  0
 24 23  1  0
 25 24  2  0
 26 25  1  0
 26 21  2  0
 27 28  1  0
 28 29  1  0
 29 30  2  0
 31 30  1  0
 31 35  1  0
 32 31  2  0
 33 28  2  0
 33 32  1  0
 34 33  1  0
 36 37  1  0
 37 40  1  0
 37 39  1  0
 38 36  2  0
 41 42  1  0
 41 16  1  0
 43 41  1  0
 44 45  1  0
 45 47  1  0
 46 57  2  0
 47 52  1  0
 48 56  1  0
 48 58  1  0
 49 55  1  0
 49 51  1  0
 50 56  1  0
 51 50  1  0
 52 51  2  0
 53 54  1  0
 53 47  2  0
 54 49  2  0
 55 48  1  0
 56 46  1  0
 58 59  1  0
 58 60  2  0
 61 59  1  0
 62 67  2  0
 62 71  1  0
 63 59  1  0
 63 67  1  0
 64 63  1  0
 65 66  1  0
 65 64  1  0
 66 62  1  0
 67 68  1  0
 68 69  2  0
 70 69  1  0
 71 70  2  0
 72 46  1  0
 72 77  1  0
 72 73  1  0
 73 76  1  1
 73 74  1  0
 75 73  1  0
 77 80  1  0
 78 77  1  0
 78 82  1  0
 79 78  2  0
 82 81  1  0
 82 84  1  0
 84 85  1  0
 84 83  1  0
 86 93  1  0
 86 87  1  0
 87 89  1  0
 88 87  1  0
 90 87  1  0
 92 93  1  0
 93 91  1  0
M  ISO  4   6 100   8 100  44 101  45 101
M  END
>  <TORSDO>  (51) 
F 20

>  <SCORE>  (51) 
-11.314

>  <name>  (51) 
50

>  <ligand_id>  (51) 
50

>  <original_smiles>  (51) 
[H]c1c([H])c([H])c2c(c1[H])C([H])([H])C([H])([H])C([H])([H])C2([H])N([H])C(=O)C1([H])N(C(=O)C([H])(N([H])C(=O)C([H])(N([H])C([H])([H])[H])C([H])([H])[H])C(C([H])([H])[H])(C([H])([H])[H])C([H])([H])[H])C([H])([H])c2c([H])c(OC([H])([H])C3(C([H])(C([H])(C([H])([H])[H])C([H])([H])[H])[N+]([H])([H])[H])C([H])([H])C([H])([H])C([H])([H])C([H])(C(=O)N4C([H])([H])C([H])([H])C([H])([H])C([H])(n5nc(-c6c([H])c([H])c(Oc7c([H])c([H])c(F)c([H])c7F)c([H])c6[H])c(C(=O)N([H])[H])c5N([H])[H])C4([H])[H])C([H])([H])C3([H])[H])c([H])c([H])c2C1([H])[H]

>  <smiles>  (51) 
[H]c1c([H])c([H])c2c(c1[H])C([H])([H])C([H])([H])C([H])([H])C2([H])N([H])C(=O)C1([H])N(C(=O)C([H])(N([H])C(=O)C([H])(N([H])C([H])([H])[H])C([H])([H])[H])C(C([H])([H])[H])(C([H])([H])[H])C([H])([H])[H])C([H])([H])c2c([H])c(OC([H])([H])C3(C([H])(C([H])(C([H])([H])[H])C([H])([H])[H])[N+]([H])([H])[H])C([H])([H])C([H])([H])C([H])([H])C([H])(C(=O)N4C([H])([H])C([H])([H])C([H])([H])C([H])(n5nc(-c6c([H])c([H])c(Oc7c([H])c([H])c(F)c([H])c7F)c([H])c6[H])c(C(=O)N([H])[H])c5N([H])[H])C4([H])[H])C([H])([H])C3([H])[H])c([H])c([H])c2C1([H])[H]

$$$$
51:0:0
     RDKit          3D

 94102  0  0  1  0  0  0  0  0999 V2000
  -30.1720  -21.7830   23.6450 C   0  0  0  0  0  2  0  0  0  0  0  0
  -30.3710  -21.6400   21.1660 C   0  0  0  0  0  2  0  0  0  0  0  0
  -30.5340  -20.2790   23.7870 C   0  0  0  0  0  2  0  0  0  0  0  0
  -30.8480  -20.1620   21.2340 C   0  0  0  0  0  2  0  0  0  0  0  0
  -30.8110  -22.4620   22.4050 C   0  0  0  0  0  3  0  0  0  0  0  0
  -30.4350  -19.3740   22.5040 C   0  0  0  0  0  3  0  0  0  0  0  0
  -30.5540  -23.9400   22.3790 N   0  0  0  0  0  4  0  0  0  0  0  0
  -31.3550  -24.3620   22.8260 H   0  0  0  0  0  0  0  0  0  0  0  0
  -29.7390  -24.1530   22.9300 H   0  0  0  0  0  0  0  0  0  0  0  0
  -30.3440  -24.6630   21.0920 C   0  0  0  0  0  2  0  0  0  0  0  0
  -30.7510  -26.1680   21.2080 C   0  0  0  0  0  3  0  0  0  0  0  0
  -29.7570  -27.2810   20.7160 C   0  0  0  0  0  3  0  0  0  0  0  0
  -28.5300  -26.8490   20.1190 O   0  0  0  0  0  0  0  0  0  0  0  0
  -24.6200  -31.9800   23.3320 C   0  0  0  0  0  0  0  0  0  0  0  0
  -27.3960  -27.6470   20.1840 C   0  0  0  0  0  0  0  0  0  0  0  0
  -23.4520  -30.5860   21.6530 C   0  0  0  0  0  3  0  0  0  0  0  0
  -24.9540  -29.1090   20.2040 C   0  0  0  0  0  0  0  0  0  0  0  0
  -25.9690  -31.0060   21.4710 C   0  0  0  0  0  2  0  0  0  0  0  0
  -26.0940  -29.6470   20.8140 C   0  0  0  0  0  0  0  0  0  0  0  0
  -27.3210  -28.9320   20.7870 C   0  0  0  0  0  3  0  0  0  0  0  0
  -26.2240  -27.1200   19.6030 C   0  0  0  0  0  3  0  0  0  0  0  0
  -25.0110  -27.8440   19.5940 C   0  0  0  0  0  3  0  0  0  0  0  0
  -23.6830  -29.9330   20.2630 C   0  0  0  0  0  2  0  0  0  0  0  0
  -24.6970  -31.2070   22.2130 N   0  0  0  0  0  0  0  0  0  0  0  0
  -23.5300  -32.2230   23.8670 O   0  0  0  0  0  0  0  0  0  0  0  0
  -22.8010  -29.5410   22.5960 C   0  0  0  0  0  0  0  0  0  0  0  0
  -21.4780  -29.3420   22.4660 N   0  0  0  0  0  0  0  0  0  0  0  0
  -23.4900  -28.9120   23.4040 O   0  0  0  0  0  0  0  0  0  0  0  0
  -20.9780  -29.9110   21.7970 H   0  0  0  0  0  0  0  0  0  0  0  0
  -18.1210  -28.0740   22.9080 C   0  0  0  0  0  0  0  0  0  0  0  0
  -20.6730  -28.3720   23.2110 C   0  0  0  0  0  3  0  0  0  0  0  0
  -20.8050  -26.9540   22.6130 C   0  0  0  0  0  2  0  0  0  0  0  0
  -19.7190  -26.6300   21.5830 C   0  0  0  0  0  2  0  0  0  0  0  0
  -18.3290  -26.7390   22.2170 C   0  0  0  0  0  2  0  0  0  0  0  0
  -19.2230  -28.8470   23.3600 C   0  0  0  0  0  0  0  0  0  0  0  0
  -18.9750  -30.1000   23.9650 C   0  0  0  0  0  3  0  0  0  0  0  0
  -17.6590  -30.5720   24.1300 C   0  0  0  0  0  3  0  0  0  0  0  0
  -16.5720  -29.7960   23.6930 C   0  0  0  0  0  3  0  0  0  0  0  0
  -16.8050  -28.5480   23.0880 C   0  0  0  0  0  3  0  0  0  0  0  0
  -25.8890  -32.6230   23.9660 C   0  0  0  0  0  3  0  0  0  0  0  0
  -25.5720  -34.0190   24.2910 N   0  0  0  0  0  0  0  0  0  0  0  0
  -25.9130  -35.0710   23.5360 C   0  0  0  0  0  0  0  0  0  0  0  0
  -26.6060  -34.9690   22.5200 O   0  0  0  0  0  0  0  0  0  0  0  0
  -24.9660  -34.1690   25.0830 H   0  0  0  0  0  0  0  0  0  0  0  0
  -24.1920  -36.8560   23.1490 C   0  0  0  0  0  1  0  0  0  0  0  0
  -25.4160  -36.4570   23.9840 C   0  0  0  0  0  3  0  0  0  0  0  0
  -27.5430  -37.3460   24.8400 C   0  0  0  0  0  1  0  0  0  0  0  0
  -26.4470  -37.5140   23.8870 N   0  0  0  0  0  0  0  0  0  0  0  0
  -26.0360  -38.4330   24.0360 H   0  0  0  0  0  0  0  0  0  0  0  0
  -26.3940  -31.8530   25.2430 C   0  0  1  0  0  0  0  0  0  0  0  0
  -25.2930  -31.6000   26.2990 C   0  0  0  0  0  1  0  0  0  0  0  0
  -27.0050  -30.4860   24.8480 C   0  0  0  0  0  1  0  0  0  0  0  0
  -27.5240  -32.6620   25.9230 C   0  0  0  0  0  1  0  0  0  0  0  0
  -30.9110  -17.4280   23.9740 C   0  0  0  0  0  1  0  0  0  0  0  0
  -31.2020  -18.0750   22.6660 N   0  0  1  0  0  4  0  0  0  0  0  0
  -32.1580  -18.3950   22.7560 H   0  0  0  0  0  0  0  0  0  0  0  0
  -31.3010  -17.1120   21.4870 C   0  0  0  0  0  3  0  0  0  0  0  0
  -30.9440  -15.5800   21.7000 C   0  0  0  0  0  3  0  0  0  0  0  0
  -31.2460  -14.6190   20.4910 C   0  0  0  0  0  0  0  0  0  0  0  0
  -30.8420  -12.5380   19.1610 C   0  0  0  0  0  2  0  0  0  0  0  0
  -29.9030  -12.7660   17.9590 C   0  0  0  0  0  2  0  0  0  0  0  0
  -28.4280  -12.6390   18.3830 C   0  0  0  0  0  2  0  0  0  0  0  0
  -28.1160  -13.4650   19.6610 C   0  0  0  0  0  3  0  0  0  0  0  0
  -29.1630  -13.1900   20.7680 C   0  0  0  0  0  2  0  0  0  0  0  0
  -30.4970  -13.5010   20.2310 N   0  0  0  0  0  0  0  0  0  0  0  0
  -32.2410  -14.8730   19.8050 O   0  0  0  0  0  0  0  0  0  0  0  0
  -25.7360  -14.1490   20.3650 C   0  0  0  0  0  0  0  0  0  0  0  0
  -24.6440  -13.4110   20.7320 C   0  0  0  0  0  0  0  0  0  0  0  0
  -25.0610  -12.0460   20.6980 C   0  0  0  0  0  0  0  0  0  0  0  0
  -26.7540  -13.2340   20.1340 N   0  0  0  0  0  0  0  0  0  0  0  0
  -26.3480  -11.9630   20.3850 N   0  0  0  0  0  0  0  0  0  0  0  0
  -24.2930  -10.8080   20.8900 C   0  0  0  0  0  0  0  0  0  0  0  0
  -24.6910   -9.8320   21.8280 C   0  0  0  0  0  3  0  0  0  0  0  0
  -23.9270   -8.6550   22.0080 C   0  0  0  0  0  3  0  0  0  0  0  0
  -22.7480   -8.4530   21.2480 C   0  0  0  0  0  0  0  0  0  0  0  0
  -22.3700   -9.4200   20.3010 C   0  0  0  0  0  3  0  0  0  0  0  0
  -23.1330  -10.5870   20.1200 C   0  0  0  0  0  3  0  0  0  0  0  0
  -21.9590   -7.3340   21.3340 O   0  0  0  0  0  0  0  0  0  0  0  0
  -21.8660   -6.6050   22.4960 C   0  0  0  0  0  0  0  0  0  0  0  0
  -21.4540   -7.1930   23.7100 C   0  0  0  0  0  3  0  0  0  0  0  0
  -21.3060   -6.3950   24.8620 C   0  0  0  0  0  3  0  0  0  0  0  0
  -21.5600   -5.0110   24.8010 C   0  0  0  0  0  0  0  0  0  0  0  0
  -21.9610   -4.4240   23.5870 C   0  0  0  0  0  3  0  0  0  0  0  0
  -22.1120   -5.2190   22.4380 C   0  0  0  0  0  0  0  0  0  0  0  0
  -22.4810   -4.6450   21.2670 F   0  0  0  0  0  0  0  0  0  0  0  0
  -21.4090   -4.2430   25.9030 F   0  0  0  0  0  0  0  0  0  0  0  0
  -23.2650  -13.9380   21.0110 C   0  0  0  0  0  0  0  0  0  0  0  0
  -22.5220  -13.2700   21.8900 N   0  0  0  0  0  0  0  0  0  0  0  0
  -22.8550  -14.9670   20.4850 O   0  0  0  0  0  0  0  0  0  0  0  0
  -22.8670  -12.4380   22.3430 H   0  0  0  0  0  0  0  0  0  0  0  0
  -21.5950  -13.6020   22.1150 H   0  0  0  0  0  0  0  0  0  0  0  0
  -25.9480  -15.5140   20.1980 N   0  0  0  0  0  0  0  0  0  0  0  0
  -25.2040  -16.1930   20.3230 H   0  0  0  0  0  0  0  0  0  0  0  0
  -26.8210  -15.9350   19.9050 H   0  0  0  0  0  0  0  0  0  0  0  0
  1  3  1  0
  2  4  1  0
  2  5  1  0
  4  6  1  0
  5  7  1  0
  5  1  1  0
  6 55  1  0
  6  3  1  0
  7  8  1  0
  7  9  1  0
 10 11  1  0
 10  7  1  0
 12 11  2  0
 13 15  1  0
 13 12  1  0
 14 25  2  0
 15 20  1  0
 16 24  1  0
 16 26  1  0
 17 23  1  0
 17 19  1  0
 18 24  1  0
 19 18  1  0
 20 19  2  0
 21 15  2  0
 22 21  1  0
 22 17  2  0
 23 16  1  0
 24 14  1  0
 26 28  2  0
 27 26  1  0
 29 27  1  0
 30 39  2  0
 30 35  1  0
 31 27  1  0
 31 35  1  0
 32 31  1  0
 33 34  1  0
 33 32  1  0
 34 30  1  0
 35 36  2  0
 36 37  1  0
 38 37  2  0
 39 38  1  0
 40 14  1  0
 40 41  1  0
 40 50  1  0
 41 44  1  0
 42 46  1  0
 42 41  1  0
 43 42  2  0
 46 45  1  0
 48 46  1  0
 48 49  1  0
 48 47  1  0
 50 53  1  1
 50 51  1  0
 52 50  1  0
 55 56  1  1
 55 54  1  0
 57 58  2  0
 57 55  1  0
 59 58  1  0
 60 65  1  0
 61 62  1  0
 61 60  1  0
 63 62  1  0
 63 70  1  0
 63 64  1  0
 65 59  1  0
 65 64  1  0
 66 59  2  0
 67 68  2  0
 68 87  1  0
 69 68  1  0
 69 72  1  0
 70 67  1  0
 70 71  1  0
 71 69  2  0
 72 73  1  0
 73 74  2  0
 75 78  1  0
 75 74  1  0
 76 75  2  0
 77 76  1  0
 77 72  2  0
 78 79  1  0
 79 80  1  0
 80 81  2  0
 82 81  1  0
 82 86  1  0
 83 82  2  0
 84 79  2  0
 84 83  1  0
 85 84  1  0
 87 88  1  0
 88 91  1  0
 88 90  1  0
 89 87  2  0
 92 93  1  0
 92 67  1  0
 94 92  1  0
M  ISO  4  12 101  13 101  58 100  59 100
M  END
>  <TORSDO>  (52) 
F 23

>  <SCORE>  (52) 
-11.339

>  <name>  (52) 
51

>  <ligand_id>  (52) 
51

>  <original_smiles>  (52) 
[H]c1c([H])c([H])c2c(c1[H])C([H])([H])C([H])([H])C([H])([H])C2([H])N([H])C(=O)C1([H])N(C(=O)C([H])(N([H])C(=O)C([H])(N([H])C([H])([H])[H])C([H])([H])[H])C(C([H])([H])[H])(C([H])([H])[H])C([H])([H])[H])C([H])([H])c2c([H])c(OC([H])([H])C([H])([H])C([H])([H])[N+]([H])([H])C3([H])C([H])([H])C([H])([H])C([H])([N+]([H])(C([H])([H])[H])C([H])([H])C([H])([H])C(=O)N4C([H])([H])C([H])([H])C([H])([H])C([H])(n5nc(-c6c([H])c([H])c(Oc7c([H])c([H])c(F)c([H])c7F)c([H])c6[H])c(C(=O)N([H])[H])c5N([H])[H])C4([H])[H])C([H])([H])C3([H])[H])c([H])c([H])c2C1([H])[H]

>  <smiles>  (52) 
[H]c1c([H])c([H])c2c(c1[H])C([H])([H])C([H])([H])C([H])([H])C2([H])N([H])C(=O)C1([H])N(C(=O)C([H])(N([H])C(=O)C([H])(N([H])C([H])([H])[H])C([H])([H])[H])C(C([H])([H])[H])(C([H])([H])[H])C([H])([H])[H])C([H])([H])c2c([H])c(OC([H])([H])C([H])([H])C([H])([H])[N+]([H])([H])C3([H])C([H])([H])C([H])([H])C([H])([N+]([H])(C([H])([H])[H])C([H])([H])C([H])([H])C(=O)N4C([H])([H])C([H])([H])C([H])([H])C([H])(n5nc(-c6c([H])c([H])c(Oc7c([H])c([H])c(F)c([H])c7F)c([H])c6[H])c(C(=O)N([H])[H])c5N([H])[H])C4([H])[H])C([H])([H])C3([H])[H])c([H])c([H])c2C1([H])[H]

$$$$
52:0:0
     RDKit          3D

 87 94  0  0  1  0  0  0  0  0999 V2000
  -29.4920  -21.4560   19.6060 C   0  0  0  0  0  2  0  0  0  0  0  0
  -28.7230  -22.9140   20.2310 C   0  0  0  0  0  2  0  0  0  0  0  0
  -28.5630  -24.5370   19.5810 C   0  0  0  0  0  2  0  0  0  0  0  0
  -28.4160  -26.0050   20.2370 O   0  0  0  0  0  0  0  0  0  0  0  0
  -24.5320  -31.6600   23.1760 C   0  0  0  0  0  0  0  0  0  0  0  0
  -27.3420  -27.0040   20.1200 C   0  0  0  0  0  0  0  0  0  0  0  0
  -23.4290  -30.2580   21.4780 C   0  0  0  0  0  3  0  0  0  0  0  0
  -24.9660  -28.7420   20.0610 C   0  0  0  0  0  0  0  0  0  0  0  0
  -25.9820  -30.5760   21.4010 C   0  0  0  0  0  2  0  0  0  0  0  0
  -26.1160  -29.1900   20.7220 C   0  0  0  0  0  0  0  0  0  0  0  0
  -27.2970  -28.3370   20.7350 C   0  0  0  0  0  3  0  0  0  0  0  0
  -26.1610  -26.6860   19.4150 C   0  0  0  0  0  3  0  0  0  0  0  0
  -25.0090  -27.5100   19.3910 C   0  0  0  0  0  3  0  0  0  0  0  0
  -23.7140  -29.6090   20.0950 C   0  0  0  0  0  2  0  0  0  0  0  0
  -24.6660  -30.8570   22.0740 N   0  0  0  0  0  0  0  0  0  0  0  0
  -23.4210  -31.9020   23.6750 O   0  0  0  0  0  0  0  0  0  0  0  0
  -22.7460  -29.2170   22.4030 C   0  0  0  0  0  0  0  0  0  0  0  0
  -21.4250  -29.0190   22.2410 N   0  0  0  0  0  0  0  0  0  0  0  0
  -23.4120  -28.5900   23.2320 O   0  0  0  0  0  0  0  0  0  0  0  0
  -20.9410  -29.5790   21.5520 H   0  0  0  0  0  0  0  0  0  0  0  0
  -18.0590  -27.7360   22.6690 C   0  0  0  0  0  0  0  0  0  0  0  0
  -20.6110  -28.0410   22.9700 C   0  0  0  0  0  3  0  0  0  0  0  0
  -20.7450  -26.6310   22.3490 C   0  0  0  0  0  2  0  0  0  0  0  0
  -19.6600  -26.3220   21.3110 C   0  0  0  0  0  2  0  0  0  0  0  0
  -18.2690  -26.4160   21.9460 C   0  0  0  0  0  2  0  0  0  0  0  0
  -19.1590  -28.5060   23.1350 C   0  0  0  0  0  0  0  0  0  0  0  0
  -18.9080  -29.7400   23.7740 C   0  0  0  0  0  3  0  0  0  0  0  0
  -17.5910  -30.2080   23.9470 C   0  0  0  0  0  3  0  0  0  0  0  0
  -16.5070  -29.4360   23.4950 C   0  0  0  0  0  3  0  0  0  0  0  0
  -16.7420  -28.2010   22.8630 C   0  0  0  0  0  3  0  0  0  0  0  0
  -25.7670  -32.3280   23.8550 C   0  0  0  0  0  3  0  0  0  0  0  0
  -25.4230  -33.7330   24.1370 N   0  0  0  0  0  0  0  0  0  0  0  0
  -25.7790  -34.7750   23.3740 C   0  0  0  0  0  0  0  0  0  0  0  0
  -26.4920  -34.6560   22.3740 O   0  0  0  0  0  0  0  0  0  0  0  0
  -24.7900  -33.8960   24.9050 H   0  0  0  0  0  0  0  0  0  0  0  0
  -24.0420  -36.5400   22.9270 C   0  0  0  0  0  1  0  0  0  0  0  0
  -25.2640  -36.1700   23.7830 C   0  0  0  0  0  3  0  0  0  0  0  0
  -27.3570  -37.1130   24.6570 C   0  0  0  0  0  1  0  0  0  0  0  0
  -26.2890  -37.2320   23.6690 N   0  0  0  0  0  0  0  0  0  0  0  0
  -25.8680  -38.1530   23.7660 H   0  0  0  0  0  0  0  0  0  0  0  0
  -26.2100  -31.5980   25.1840 C   0  0  1  0  0  0  0  0  0  0  0  0
  -25.0540  -31.3770   26.1890 C   0  0  0  0  0  1  0  0  0  0  0  0
  -26.8310  -30.2170   24.8750 C   0  0  0  0  0  1  0  0  0  0  0  0
  -27.3120  -32.4240   25.8900 C   0  0  0  0  0  1  0  0  0  0  0  0
  -29.1220  -19.7340   19.7730 C   0  0  0  0  0  3  0  0  0  0  0  0
  -26.7870  -19.9560   18.8930 C   0  0  0  0  0  1  0  0  0  0  0  0
  -28.6340  -19.4710   17.3350 C   0  0  0  0  0  1  0  0  0  0  0  0
  -28.1310  -19.3600   18.7260 N   0  0  1  0  0  4  0  0  0  0  0  0
  -27.9810  -18.3750   18.8740 H   0  0  0  0  0  0  0  0  0  0  0  0
  -30.1840  -18.3340   19.8840 C   0  0  0  0  0  2  0  0  0  0  0  0
  -29.8050  -16.6470   20.2040 C   0  0  0  0  0  2  0  0  0  0  0  0
  -30.6270  -15.1820   19.8570 C   0  0  0  0  0  0  0  0  0  0  0  0
  -30.5330  -12.7590   18.9870 C   0  0  0  0  0  2  0  0  0  0  0  0
  -29.5300  -12.6470   17.8120 C   0  0  0  0  0  2  0  0  0  0  0  0
  -28.0970  -12.4170   18.3320 C   0  0  0  0  0  2  0  0  0  0  0  0
  -27.7470  -13.3650   19.5060 C   0  0  0  0  0  3  0  0  0  0  0  0
  -28.8650  -13.4330   20.5670 C   0  0  0  0  0  2  0  0  0  0  0  0
  -30.0890  -13.8770   19.8840 N   0  0  0  0  0  0  0  0  0  0  0  0
  -31.8010  -15.2300   19.4630 O   0  0  0  0  0  0  0  0  0  0  0  0
  -25.4410  -13.9570   20.4360 C   0  0  0  0  0  0  0  0  0  0  0  0
  -24.3910  -13.1920   20.8560 C   0  0  0  0  0  0  0  0  0  0  0  0
  -24.8230  -11.8340   20.7490 C   0  0  0  0  0  0  0  0  0  0  0  0
  -26.4440  -13.0680   20.0910 N   0  0  0  0  0  0  0  0  0  0  0  0
  -26.0880  -11.7830   20.3470 N   0  0  0  0  0  0  0  0  0  0  0  0
  -24.0840  -10.5800   20.9480 C   0  0  0  0  0  0  0  0  0  0  0  0
  -24.5240   -9.5990   21.8630 C   0  0  0  0  0  3  0  0  0  0  0  0
  -23.7820   -8.4120   22.0530 C   0  0  0  0  0  3  0  0  0  0  0  0
  -22.5870   -8.1960   21.3260 C   0  0  0  0  0  0  0  0  0  0  0  0
  -22.1660   -9.1660   20.3990 C   0  0  0  0  0  3  0  0  0  0  0  0
  -22.9070  -10.3450   20.2080 C   0  0  0  0  0  3  0  0  0  0  0  0
  -21.8170   -7.0640   21.4240 O   0  0  0  0  0  0  0  0  0  0  0  0
  -21.7380   -6.3470   22.5920 C   0  0  0  0  0  0  0  0  0  0  0  0
  -21.2510   -6.9210   23.7870 C   0  0  0  0  0  3  0  0  0  0  0  0
  -21.1200   -6.1290   24.9460 C   0  0  0  0  0  3  0  0  0  0  0  0
  -21.4660   -4.7660   24.9110 C   0  0  0  0  0  0  0  0  0  0  0  0
  -21.9460   -4.1910   23.7210 C   0  0  0  0  0  3  0  0  0  0  0  0
  -22.0790   -4.9800   22.5640 C   0  0  0  0  0  0  0  0  0  0  0  0
  -22.5210   -4.4150   21.4140 F   0  0  0  0  0  0  0  0  0  0  0  0
  -21.3340   -4.0030   26.0200 F   0  0  0  0  0  0  0  0  0  0  0  0
  -23.0250  -13.6860   21.2350 C   0  0  0  0  0  0  0  0  0  0  0  0
  -22.3470  -12.9860   22.1380 N   0  0  0  0  0  0  0  0  0  0  0  0
  -22.5700  -14.7300   20.7660 O   0  0  0  0  0  0  0  0  0  0  0  0
  -22.7280  -12.1410   22.5380 H   0  0  0  0  0  0  0  0  0  0  0  0
  -21.4350  -13.3000   22.4350 H   0  0  0  0  0  0  0  0  0  0  0  0
  -25.6190  -15.3300   20.2870 N   0  0  0  0  0  0  0  0  0  0  0  0
  -24.8610  -15.9840   20.4470 H   0  0  0  0  0  0  0  0  0  0  0  0
  -26.4220  -15.7460   19.8390 H   0  0  0  0  0  0  0  0  0  0  0  0
  1  2  1  0
  3  2  1  0
  3  4  1  0
  5 16  2  0
  6  4  1  0
  6 11  1  0
  7 15  1  0
  7 17  1  0
  8 14  1  0
  8 10  1  0
  9 15  1  0
 10 11  2  0
 10  9  1  0
 12  6  2  0
 13 12  1  0
 13  8  2  0
 14  7  1  0
 15  5  1  0
 17 19  2  0
 18 17  1  0
 20 18  1  0
 21 30  2  0
 21 26  1  0
 22 18  1  0
 22 26  1  0
 23 22  1  0
 24 25  1  0
 24 23  1  0
 25 21  1  0
 26 27  2  0
 27 28  1  0
 29 28  2  0
 30 29  1  0
 31  5  1  0
 31 32  1  0
 31 41  1  0
 32 35  1  0
 33 37  1  0
 33 32  1  0
 34 33  2  0
 37 36  1  0
 39 40  1  0
 39 37  1  0
 39 38  1  0
 41 44  1  1
 41 42  1  0
 43 41  1  0
 45  1  1  0
 45 50  1  0
 47 48  1  0
 48 49  1  1
 48 46  1  0
 48 45  1  0
 50 51  1  0
 52 58  1  0
 52 51  1  0
 53 58  1  0
 54 55  1  0
 54 53  1  0
 56 55  1  0
 56 63  1  0
 56 57  1  0
 58 57  1  0
 59 52  2  0
 60 61  2  0
 61 80  1  0
 62 61  1  0
 62 65  1  0
 63 64  1  0
 63 60  1  0
 64 62  2  0
 65 66  1  0
 66 67  2  0
 68 71  1  0
 68 67  1  0
 69 68  2  0
 70 69  1  0
 70 65  2  0
 71 72  1  0
 72 73  1  0
 73 74  2  0
 75 74  1  0
 75 79  1  0
 76 75  2  0
 77 72  2  0
 77 76  1  0
 78 77  1  0
 80 81  1  0
 81 84  1  0
 81 83  1  0
 82 80  2  0
 85 60  1  0
 85 86  1  0
 87 85  1  0
M  ISO  4   3 101   4 101  51 100  52 100
M  END
>  <TORSDO>  (53) 
F 22

>  <SCORE>  (53) 
-15.220

>  <name>  (53) 
52

>  <ligand_id>  (53) 
52

>  <original_smiles>  (53) 
[H]c1c([H])c([H])c2c(c1[H])C([H])([H])C([H])([H])C([H])([H])C2([H])N([H])C(=O)C1([H])N(C(=O)C([H])(N([H])C(=O)C([H])(N([H])C([H])([H])[H])C([H])([H])[H])C(C([H])([H])[H])(C([H])([H])[H])C([H])([H])[H])C([H])([H])c2c([H])c(OC([H])([H])C([H])([H])C([H])([H])C([H])(C([H])([H])C([H])([H])C(=O)N3C([H])([H])C([H])([H])C([H])([H])C([H])(n4nc(-c5c([H])c([H])c(Oc6c([H])c([H])c(F)c([H])c6F)c([H])c5[H])c(C(=O)N([H])[H])c4N([H])[H])C3([H])[H])[N+]([H])(C([H])([H])[H])C([H])([H])[H])c([H])c([H])c2C1([H])[H]

>  <smiles>  (53) 
[H]c1c([H])c([H])c2c(c1[H])C([H])([H])C([H])([H])C([H])([H])C2([H])N([H])C(=O)C1([H])N(C(=O)C([H])(N([H])C(=O)C([H])(N([H])C([H])([H])[H])C([H])([H])[H])C(C([H])([H])[H])(C([H])([H])[H])C([H])([H])[H])C([H])([H])c2c([H])c(OC([H])([H])C([H])([H])C([H])([H])C([H])(C([H])([H])C([H])([H])C(=O)N3C([H])([H])C([H])([H])C([H])([H])C([H])(n4nc(-c5c([H])c([H])c(Oc6c([H])c([H])c(F)c([H])c6F)c([H])c5[H])c(C(=O)N([H])[H])c4N([H])[H])C3([H])[H])[N+]([H])(C([H])([H])[H])C([H])([H])[H])c([H])c([H])c2C1([H])[H]

$$$$
53:0:0
     RDKit          3D

 86 94  0  0  1  0  0  0  0  0999 V2000
  -30.4630  -21.0880   18.1360 C   0  0  0  0  0  3  0  0  0  0  0  0
  -31.0800  -22.0620   18.9550 C   0  0  0  0  0  3  0  0  0  0  0  0
  -29.2380  -20.5060   18.5230 C   0  0  0  0  0  3  0  0  0  0  0  0
  -30.3330  -22.6960   19.9740 C   0  0  0  0  0  3  0  0  0  0  0  0
  -28.8710  -20.6860   19.8670 C   0  0  0  0  0  0  0  0  0  0  0  0
  -28.9990  -22.2890   20.1970 C   0  0  0  0  0  0  0  0  0  0  0  0
  -29.4610  -19.0640   20.5260 C   0  0  0  0  0  2  0  0  0  0  0  0
  -29.3630  -17.1980   20.0670 C   0  0  0  0  0  2  0  0  0  0  0  0
  -30.2550  -15.5690   20.1890 C   0  0  0  0  0  0  0  0  0  0  0  0
  -30.4030  -13.0330   19.3970 C   0  0  0  0  0  2  0  0  0  0  0  0
  -29.4970  -12.6710   18.1850 C   0  0  0  0  0  2  0  0  0  0  0  0
  -28.0620  -12.3270   18.6360 C   0  0  0  0  0  2  0  0  0  0  0  0
  -27.5660  -13.3060   19.7230 C   0  0  0  0  0  3  0  0  0  0  0  0
  -28.6120  -13.5640   20.8280 C   0  0  0  0  0  2  0  0  0  0  0  0
  -29.7870  -14.1870   20.1800 N   0  0  0  0  0  0  0  0  0  0  0  0
  -31.4910  -15.5450   20.0320 O   0  0  0  0  0  0  0  0  0  0  0  0
  -25.2170  -13.8220   20.5520 C   0  0  0  0  0  0  0  0  0  0  0  0
  -24.1640  -13.0310   20.9280 C   0  0  0  0  0  0  0  0  0  0  0  0
  -24.6400  -11.6880   20.8610 C   0  0  0  0  0  0  0  0  0  0  0  0
  -26.2580  -12.9590   20.2640 N   0  0  0  0  0  0  0  0  0  0  0  0
  -25.9280  -11.6670   20.5250 N   0  0  0  0  0  0  0  0  0  0  0  0
  -23.9210  -10.4190   21.0470 C   0  0  0  0  0  0  0  0  0  0  0  0
  -24.3740   -9.4400   21.9580 C   0  0  0  0  0  3  0  0  0  0  0  0
  -23.6510   -8.2400   22.1340 C   0  0  0  0  0  3  0  0  0  0  0  0
  -22.4620   -8.0100   21.4000 C   0  0  0  0  0  0  0  0  0  0  0  0
  -22.0310   -8.9780   20.4770 C   0  0  0  0  0  3  0  0  0  0  0  0
  -22.7520  -10.1720   20.2990 C   0  0  0  0  0  3  0  0  0  0  0  0
  -21.7120   -6.8610   21.4840 O   0  0  0  0  0  0  0  0  0  0  0  0
  -21.6900   -6.0980   22.6220 C   0  0  0  0  0  0  0  0  0  0  0  0
  -21.2730   -6.6250   23.8640 C   0  0  0  0  0  3  0  0  0  0  0  0
  -21.1970   -5.7880   24.9940 C   0  0  0  0  0  3  0  0  0  0  0  0
  -21.5250   -4.4240   24.8860 C   0  0  0  0  0  0  0  0  0  0  0  0
  -21.9330   -3.8950   23.6480 C   0  0  0  0  0  3  0  0  0  0  0  0
  -22.0140   -4.7290   22.5200 C   0  0  0  0  0  0  0  0  0  0  0  0
  -22.3890   -4.2070   21.3260 F   0  0  0  0  0  0  0  0  0  0  0  0
  -21.4460   -3.6200   25.9720 F   0  0  0  0  0  0  0  0  0  0  0  0
  -22.7690  -13.5020   21.2200 C   0  0  0  0  0  0  0  0  0  0  0  0
  -22.0490  -12.7940   22.0830 N   0  0  0  0  0  0  0  0  0  0  0  0
  -22.3280  -14.5340   20.7170 O   0  0  0  0  0  0  0  0  0  0  0  0
  -22.4260  -11.9700   22.5260 H   0  0  0  0  0  0  0  0  0  0  0  0
  -21.1090  -13.0890   22.2980 H   0  0  0  0  0  0  0  0  0  0  0  0
  -25.3610  -15.1960   20.3960 N   0  0  0  0  0  0  0  0  0  0  0  0
  -24.5940  -15.8380   20.5560 H   0  0  0  0  0  0  0  0  0  0  0  0
  -26.1830  -15.6660   20.0380 H   0  0  0  0  0  0  0  0  0  0  0  0
  -27.9500  -23.8130   20.1650 C   0  0  0  0  0  2  0  0  0  0  0  0
  -28.1760  -25.5450   20.2670 O   0  0  0  0  0  0  0  0  0  0  0  0
  -24.6330  -31.8120   23.1890 C   0  0  0  0  0  0  0  0  0  0  0  0
  -27.1890  -26.7400   20.2160 C   0  0  0  0  0  0  0  0  0  0  0  0
  -23.4510  -30.3960   21.5600 C   0  0  0  0  0  3  0  0  0  0  0  0
  -24.9070  -28.7430   20.1620 C   0  0  0  0  0  0  0  0  0  0  0  0
  -26.0290  -30.5530   21.4370 C   0  0  0  0  0  2  0  0  0  0  0  0
  -26.1030  -29.1180   20.7880 C   0  0  0  0  0  0  0  0  0  0  0  0
  -27.2300  -28.1430   20.7760 C   0  0  0  0  0  3  0  0  0  0  0  0
  -25.9530  -26.5640   19.5430 C   0  0  0  0  0  3  0  0  0  0  0  0
  -24.8700  -27.4930   19.5200 C   0  0  0  0  0  3  0  0  0  0  0  0
  -23.6960  -29.6850   20.1970 C   0  0  0  0  0  2  0  0  0  0  0  0
  -24.7260  -30.9510   22.1170 N   0  0  0  0  0  0  0  0  0  0  0  0
  -23.5380  -32.1240   23.6910 O   0  0  0  0  0  0  0  0  0  0  0  0
  -22.7300  -29.4300   22.5400 C   0  0  0  0  0  0  0  0  0  0  0  0
  -21.3980  -29.2780   22.4140 N   0  0  0  0  0  0  0  0  0  0  0  0
  -23.3810  -28.8090   23.3830 O   0  0  0  0  0  0  0  0  0  0  0  0
  -20.9240  -29.8240   21.7110 H   0  0  0  0  0  0  0  0  0  0  0  0
  -18.0090  -28.0860   22.9310 C   0  0  0  0  0  0  0  0  0  0  0  0
  -20.5680  -28.3490   23.1880 C   0  0  0  0  0  3  0  0  0  0  0  0
  -20.6660  -26.9150   22.6200 C   0  0  0  0  0  2  0  0  0  0  0  0
  -19.5620  -26.5920   21.6080 C   0  0  0  0  0  2  0  0  0  0  0  0
  -18.1830  -26.7380   22.2550 C   0  0  0  0  0  2  0  0  0  0  0  0
  -19.1280  -28.8520   23.3550 C   0  0  0  0  0  0  0  0  0  0  0  0
  -18.9090  -30.1120   23.9550 C   0  0  0  0  0  3  0  0  0  0  0  0
  -17.6030  -30.6070   24.1320 C   0  0  0  0  0  3  0  0  0  0  0  0
  -16.4980  -29.8410   23.7210 C   0  0  0  0  0  3  0  0  0  0  0  0
  -16.7030  -28.5820   23.1290 C   0  0  0  0  0  3  0  0  0  0  0  0
  -25.9000  -32.4610   23.8250 C   0  0  0  0  0  3  0  0  0  0  0  0
  -26.3930  -31.7090   25.1240 C   0  0  1  0  0  0  0  0  0  0  0  0
  -25.2800  -31.4990   26.1780 C   0  0  0  0  0  1  0  0  0  0  0  0
  -26.9700  -30.3170   24.7790 C   0  0  0  0  0  1  0  0  0  0  0  0
  -27.5410  -32.5030   25.7880 C   0  0  0  0  0  1  0  0  0  0  0  0
  -25.5790  -33.8630   24.1510 N   0  0  0  0  0  0  0  0  0  0  0  0
  -25.9220  -34.9250   23.4060 C   0  0  0  0  0  0  0  0  0  0  0  0
  -26.5960  -34.8250   22.3780 O   0  0  0  0  0  0  0  0  0  0  0  0
  -24.9750  -34.0090   24.9460 H   0  0  0  0  0  0  0  0  0  0  0  0
  -24.2040  -36.7370   23.0650 C   0  0  0  0  0  1  0  0  0  0  0  0
  -25.4430  -36.3160   23.8720 C   0  0  0  0  0  3  0  0  0  0  0  0
  -27.5810  -37.1910   24.7110 C   0  0  0  0  0  1  0  0  0  0  0  0
  -26.4820  -37.3660   23.7640 N   0  0  0  0  0  0  0  0  0  0  0  0
  -26.0790  -38.2870   23.9120 H   0  0  0  0  0  0  0  0  0  0  0  0
  1  3  2  0
  1  2  1  0
  2  4  2  0
  3  5  1  0
  4  6  1  0
  5  6  2  3
  5  7  1  0
  8  9  1  0
  8  7  1  0
 10 15  1  0
 11 12  1  0
 11 10  1  0
 13 12  1  0
 13 20  1  0
 13 14  1  0
 15  9  1  0
 15 14  1  0
 16  9  2  0
 17 18  2  0
 18 37  1  0
 19 18  1  0
 19 22  1  0
 20 21  1  0
 20 17  1  0
 21 19  2  0
 22 23  1  0
 23 24  2  0
 25 28  1  0
 25 24  1  0
 26 25  2  0
 27 26  1  0
 27 22  2  0
 28 29  1  0
 29 30  1  0
 30 31  2  0
 32 31  1  0
 32 36  1  0
 33 32  2  0
 34 29  2  0
 34 33  1  0
 35 34  1  0
 37 38  1  0
 38 41  1  0
 38 40  1  0
 39 37  2  0
 42 17  1  0
 42 43  1  0
 44 42  1  0
 45  6  1  0
 45 46  1  0
 47 58  2  0
 48 46  1  0
 48 53  1  0
 49 57  1  0
 49 59  1  0
 50 56  1  0
 50 52  1  0
 51 57  1  0
 52 51  1  0
 53 52  2  0
 54 48  2  0
 55 54  1  0
 55 50  2  0
 56 49  1  0
 57 47  1  0
 59 61  2  0
 60 59  1  0
 62 60  1  0
 63 72  2  0
 63 68  1  0
 64 60  1  0
 64 68  1  0
 65 64  1  0
 66 67  1  0
 66 65  1  0
 67 63  1  0
 68 69  2  0
 69 70  1  0
 71 70  2  0
 72 71  1  0
 73 47  1  0
 73 78  1  0
 73 74  1  0
 74 77  1  1
 74 75  1  0
 76 74  1  0
 78 81  1  0
 79 83  1  0
 79 78  1  0
 80 79  2  0
 83 82  1  0
 85 83  1  0
 85 86  1  0
 85 84  1  0
M  ISO  4   8 100   9 100  45 101  46 101
M  END
>  <TORSDO>  (54) 
F 19

>  <SCORE>  (54) 
-16.360

>  <name>  (54) 
53

>  <ligand_id>  (54) 
53

>  <original_smiles>  (54) 
[H]c1c([H])c([H])c(C([H])([H])C([H])([H])C(=O)N2C([H])([H])C([H])([H])C([H])([H])C([H])(n3nc(-c4c([H])c([H])c(Oc5c([H])c([H])c(F)c([H])c5F)c([H])c4[H])c(C(=O)N([H])[H])c3N([H])[H])C2([H])[H])c(C([H])([H])Oc2c([H])c([H])c3c(c2[H])C([H])([H])N(C(=O)C([H])(N([H])C(=O)C([H])(N([H])C([H])([H])[H])C([H])([H])[H])C(C([H])([H])[H])(C([H])([H])[H])C([H])([H])[H])C([H])(C(=O)N([H])C2([H])c4c([H])c([H])c([H])c([H])c4C([H])([H])C([H])([H])C2([H])[H])C3([H])[H])c1[H]

>  <smiles>  (54) 
[H]c1c([H])c([H])c(C([H])([H])C([H])([H])C(=O)N2C([H])([H])C([H])([H])C([H])([H])C([H])(n3nc(-c4c([H])c([H])c(Oc5c([H])c([H])c(F)c([H])c5F)c([H])c4[H])c(C(=O)N([H])[H])c3N([H])[H])C2([H])[H])c(C([H])([H])Oc2c([H])c([H])c3c(c2[H])C([H])([H])N(C(=O)C([H])(N([H])C(=O)C([H])(N([H])C([H])([H])[H])C([H])([H])[H])C(C([H])([H])[H])(C([H])([H])[H])C([H])([H])[H])C([H])(C(=O)N([H])C2([H])c4c([H])c([H])c([H])c([H])c4C([H])([H])C([H])([H])C2([H])[H])C3([H])[H])c1[H]

$$$$
54:0:0
     RDKit          3D

 90 98  0  0  1  0  0  0  0  0999 V2000
  -29.0230  -21.4070   20.3250 C   0  0  0  0  0  0  0  0  0  0  0  0
  -29.3150  -22.7190   20.0460 N   0  0  0  0  0  0  0  0  0  0  0  0
  -27.9300  -21.1150   20.8130 O   0  0  0  0  0  0  0  0  0  0  0  0
  -30.2160  -22.8860   19.6150 H   0  0  0  0  0  0  0  0  0  0  0  0
  -31.4570  -20.0930   22.1010 C   0  0  0  0  0  2  0  0  0  0  0  0
  -31.4490  -20.6270   20.6590 C   0  0  0  0  0  2  0  0  0  0  0  0
  -30.2850  -19.1040   22.2020 C   0  0  0  0  0  2  0  0  0  0  0  0
  -30.0840  -20.2410   20.0580 C   0  0  0  0  0  3  0  0  0  0  0  0
  -29.8500  -18.8100   20.7550 C   0  0  0  0  0  3  0  0  0  0  0  0
  -30.6350  -17.5250   20.1770 C   0  0  0  0  0  3  0  0  0  0  0  0
  -30.3030  -16.0660   20.7620 C   0  0  0  0  0  3  0  0  0  0  0  0
  -31.0720  -14.7790   20.2250 C   0  0  0  0  0  0  0  0  0  0  0  0
  -30.8100  -12.5640   19.1000 C   0  0  0  0  0  2  0  0  0  0  0  0
  -29.8450  -12.7370   17.9050 C   0  0  0  0  0  2  0  0  0  0  0  0
  -28.3760  -12.5980   18.3530 C   0  0  0  0  0  2  0  0  0  0  0  0
  -28.0590  -13.4420   19.6130 C   0  0  0  0  0  3  0  0  0  0  0  0
  -29.1320  -13.2440   20.7070 C   0  0  0  0  0  2  0  0  0  0  0  0
  -30.4390  -13.5660   20.1210 N   0  0  0  0  0  0  0  0  0  0  0  0
  -32.2220  -14.9130   19.7940 O   0  0  0  0  0  0  0  0  0  0  0  0
  -25.6970  -14.0930   20.3830 C   0  0  0  0  0  0  0  0  0  0  0  0
  -24.6170  -13.3420   20.7600 C   0  0  0  0  0  0  0  0  0  0  0  0
  -25.0450  -11.9810   20.7070 C   0  0  0  0  0  0  0  0  0  0  0  0
  -26.7130  -13.1890   20.1190 N   0  0  0  0  0  0  0  0  0  0  0  0
  -26.3280  -11.9130   20.3760 N   0  0  0  0  0  0  0  0  0  0  0  0
  -24.2900  -10.7340   20.8960 C   0  0  0  0  0  0  0  0  0  0  0  0
  -24.6710   -9.7780   21.8610 C   0  0  0  0  0  3  0  0  0  0  0  0
  -23.9200   -8.5950   22.0340 C   0  0  0  0  0  3  0  0  0  0  0  0
  -22.7720   -8.3620   21.2410 C   0  0  0  0  0  0  0  0  0  0  0  0
  -22.4120   -9.3060   20.2630 C   0  0  0  0  0  3  0  0  0  0  0  0
  -23.1640  -10.4800   20.0880 C   0  0  0  0  0  3  0  0  0  0  0  0
  -21.9950   -7.2320   21.3220 O   0  0  0  0  0  0  0  0  0  0  0  0
  -21.8290   -6.5570   22.5050 C   0  0  0  0  0  0  0  0  0  0  0  0
  -21.2790   -7.1790   23.6460 C   0  0  0  0  0  3  0  0  0  0  0  0
  -21.0610   -6.4310   24.8200 C   0  0  0  0  0  3  0  0  0  0  0  0
  -21.3800   -5.0600   24.8490 C   0  0  0  0  0  0  0  0  0  0  0  0
  -21.9240   -4.4380   23.7130 C   0  0  0  0  0  3  0  0  0  0  0  0
  -22.1440   -5.1830   22.5420 C   0  0  0  0  0  0  0  0  0  0  0  0
  -22.6470   -4.5730   21.4420 F   0  0  0  0  0  0  0  0  0  0  0  0
  -21.1630   -4.3380   25.9730 F   0  0  0  0  0  0  0  0  0  0  0  0
  -23.2360  -13.8500   21.0600 C   0  0  0  0  0  0  0  0  0  0  0  0
  -22.5130  -13.1690   21.9430 N   0  0  0  0  0  0  0  0  0  0  0  0
  -22.8080  -14.8820   20.5480 O   0  0  0  0  0  0  0  0  0  0  0  0
  -22.8750  -12.3340   22.3770 H   0  0  0  0  0  0  0  0  0  0  0  0
  -21.5870  -13.4880   22.1880 H   0  0  0  0  0  0  0  0  0  0  0  0
  -25.8950  -15.4610   20.2190 N   0  0  0  0  0  0  0  0  0  0  0  0
  -25.1540  -16.1410   20.3530 H   0  0  0  0  0  0  0  0  0  0  0  0
  -26.7530  -15.8790   19.8830 H   0  0  0  0  0  0  0  0  0  0  0  0
  -28.5810  -23.9600   20.5160 C   0  0  0  0  0  2  0  0  0  0  0  0
  -28.5850  -25.2460   19.5740 C   0  0  0  0  0  2  0  0  0  0  0  0
  -28.4280  -26.5930   20.1650 O   0  0  0  0  0  0  0  0  0  0  0  0
  -24.6140  -31.8560   23.2280 C   0  0  0  0  0  0  0  0  0  0  0  0
  -27.2530  -27.3560   20.1190 C   0  0  0  0  0  0  0  0  0  0  0  0
  -23.4080  -30.4580   21.5860 C   0  0  0  0  0  3  0  0  0  0  0  0
  -24.8600  -28.9210   20.1430 C   0  0  0  0  0  0  0  0  0  0  0  0
  -25.9380  -30.8050   21.3800 C   0  0  0  0  0  2  0  0  0  0  0  0
  -26.0240  -29.4300   20.7290 C   0  0  0  0  0  0  0  0  0  0  0  0
  -27.2170  -28.6560   20.7100 C   0  0  0  0  0  3  0  0  0  0  0  0
  -26.0630  -26.8820   19.5250 C   0  0  0  0  0  3  0  0  0  0  0  0
  -24.8800  -27.6520   19.5340 C   0  0  0  0  0  3  0  0  0  0  0  0
  -23.6140  -29.7830   20.2030 C   0  0  0  0  0  2  0  0  0  0  0  0
  -24.6730  -31.0570   22.1230 N   0  0  0  0  0  0  0  0  0  0  0  0
  -23.5340  -32.1210   23.7750 O   0  0  0  0  0  0  0  0  0  0  0  0
  -22.7580  -29.4350   22.5460 C   0  0  0  0  0  0  0  0  0  0  0  0
  -21.4430  -29.2100   22.3890 N   0  0  0  0  0  0  0  0  0  0  0  0
  -23.4370  -28.8430   23.3890 O   0  0  0  0  0  0  0  0  0  0  0  0
  -20.9550  -29.7390   21.6810 H   0  0  0  0  0  0  0  0  0  0  0  0
  -18.1130  -27.8500   22.7730 C   0  0  0  0  0  0  0  0  0  0  0  0
  -20.6380  -28.2560   23.1530 C   0  0  0  0  0  3  0  0  0  0  0  0
  -20.8410  -26.8140   22.6330 C   0  0  0  0  0  2  0  0  0  0  0  0
  -19.8100  -26.4000   21.5800 C   0  0  0  0  0  2  0  0  0  0  0  0
  -18.3920  -26.4910   22.1530 C   0  0  0  0  0  2  0  0  0  0  0  0
  -19.1680  -28.6850   23.2290 C   0  0  0  0  0  0  0  0  0  0  0  0
  -18.8540  -29.9520   23.7670 C   0  0  0  0  0  3  0  0  0  0  0  0
  -17.5180  -30.3870   23.8530 C   0  0  0  0  0  3  0  0  0  0  0  0
  -16.4780  -29.5520   23.4130 C   0  0  0  0  0  3  0  0  0  0  0  0
  -16.7750  -28.2840   22.8800 C   0  0  0  0  0  3  0  0  0  0  0  0
  -25.8980  -32.4910   23.8480 C   0  0  0  0  0  3  0  0  0  0  0  0
  -25.5840  -33.8860   24.1890 N   0  0  0  0  0  0  0  0  0  0  0  0
  -25.8970  -34.9440   23.4290 C   0  0  0  0  0  0  0  0  0  0  0  0
  -26.5500  -34.8480   22.3860 O   0  0  0  0  0  0  0  0  0  0  0  0
  -25.0010  -34.0330   25.0010 H   0  0  0  0  0  0  0  0  0  0  0  0
  -24.1460  -36.7220   23.1100 C   0  0  0  0  0  1  0  0  0  0  0  0
  -25.4070  -36.3280   23.8980 C   0  0  0  0  0  3  0  0  0  0  0  0
  -27.5460  -37.2310   24.6910 C   0  0  0  0  0  1  0  0  0  0  0  0
  -26.4280  -37.3890   23.7660 N   0  0  0  0  0  0  0  0  0  0  0  0
  -26.0170  -38.3070   23.9190 H   0  0  0  0  0  0  0  0  0  0  0  0
  -26.4250  -31.7160   25.1180 C   0  0  1  0  0  0  0  0  0  0  0  0
  -25.3360  -31.4590   26.1870 C   0  0  0  0  0  1  0  0  0  0  0  0
  -27.0200  -30.3470   24.7130 C   0  0  0  0  0  1  0  0  0  0  0  0
  -27.5750  -32.5120   25.7790 C   0  0  0  0  0  1  0  0  0  0  0  0
  1  3  2  0
  2  1  1  0
  2 48  1  0
  4  2  1  0
  5  7  1  0
  6  5  1  0
  8  1  1  0
  8  6  1  0
  8  9  1  0
  9 10  1  0
  9  7  1  0
 10 11  2  0
 12 11  1  0
 13 18  1  0
 14 15  1  0
 14 13  1  0
 16 15  1  0
 16 23  1  0
 16 17  1  0
 18 12  1  0
 18 17  1  0
 19 12  2  0
 20 21  2  0
 21 40  1  0
 22 21  1  0
 22 25  1  0
 23 24  1  0
 23 20  1  0
 24 22  2  0
 25 26  1  0
 26 27  2  0
 28 31  1  0
 28 27  1  0
 29 28  2  0
 30 29  1  0
 30 25  2  0
 31 32  1  0
 32 37  2  0
 32 33  1  0
 33 34  2  0
 34 35  1  0
 35 39  1  0
 36 35  2  0
 37 36  1  0
 38 37  1  0
 40 41  1  0
 41 44  1  0
 41 43  1  0
 42 40  2  0
 45 46  1  0
 45 20  1  0
 47 45  1  0
 49 50  1  0
 49 48  1  0
 51 62  2  0
 52 50  1  0
 52 57  1  0
 53 61  1  0
 53 63  1  0
 54 60  1  0
 54 56  1  0
 55 61  1  0
 56 55  1  0
 57 56  2  0
 58 59  1  0
 58 52  2  0
 59 54  2  0
 60 53  1  0
 61 51  1  0
 63 65  2  0
 64 63  1  0
 66 64  1  0
 67 76  2  0
 67 72  1  0
 68 64  1  0
 68 72  1  0
 69 68  1  0
 70 71  1  0
 70 69  1  0
 71 67  1  0
 72 73  2  0
 73 74  1  0
 75 74  2  0
 76 75  1  0
 77 51  1  0
 77 78  1  0
 77 87  1  0
 78 81  1  0
 79 83  1  0
 79 78  1  0
 80 79  2  0
 83 82  1  0
 85 83  1  0
 85 86  1  0
 85 84  1  0
 87 90  1  1
 87 88  1  0
 89 87  1  0
M  ISO  4  11 100  12 100  49 101  50 101
M  END
>  <TORSDO>  (55) 
F 21

>  <SCORE>  (55) 
-12.802

>  <name>  (55) 
54

>  <ligand_id>  (55) 
54

>  <original_smiles>  (55) 
[H]c1c([H])c([H])c2c(c1[H])C([H])([H])C([H])([H])C([H])([H])C2([H])N([H])C(=O)C1([H])N(C(=O)C([H])(N([H])C(=O)C([H])(N([H])C([H])([H])[H])C([H])([H])[H])C(C([H])([H])[H])(C([H])([H])[H])C([H])([H])[H])C([H])([H])c2c([H])c(OC([H])([H])C([H])([H])N([H])C(=O)C3([H])C([H])([H])C([H])([H])C([H])([H])C3([H])C([H])([H])C([H])([H])C(=O)N3C([H])([H])C([H])([H])C([H])([H])C([H])(n4nc(-c5c([H])c([H])c(Oc6c([H])c([H])c(F)c([H])c6F)c([H])c5[H])c(C(=O)N([H])[H])c4N([H])[H])C3([H])[H])c([H])c([H])c2C1([H])[H]

>  <smiles>  (55) 
[H]c1c([H])c([H])c2c(c1[H])C([H])([H])C([H])([H])C([H])([H])C2([H])N([H])C(=O)C1([H])N(C(=O)C([H])(N([H])C(=O)C([H])(N([H])C([H])([H])[H])C([H])([H])[H])C(C([H])([H])[H])(C([H])([H])[H])C([H])([H])[H])C([H])([H])c2c([H])c(OC([H])([H])C([H])([H])N([H])C(=O)C3([H])C([H])([H])C([H])([H])C([H])([H])C3([H])C([H])([H])C([H])([H])C(=O)N3C([H])([H])C([H])([H])C([H])([H])C([H])(n4nc(-c5c([H])c([H])c(Oc6c([H])c([H])c(F)c([H])c6F)c([H])c5[H])c(C(=O)N([H])[H])c4N([H])[H])C3([H])[H])c([H])c([H])c2C1([H])[H]

$$$$
55:0:0
     RDKit          3D

 92 99  0  0  1  0  0  0  0  0999 V2000
  -28.3960  -23.0910   18.8400 C   0  0  0  0  0  3  0  0  0  0  0  0
  -29.2440  -21.9460   19.2700 N   0  0  0  0  0  4  0  0  0  0  0  0
  -30.1770  -22.1530   18.9470 H   0  0  0  0  0  0  0  0  0  0  0  0
  -29.2570  -21.8910   20.2760 H   0  0  0  0  0  0  0  0  0  0  0  0
  -28.8530  -20.6170   18.7300 C   0  0  0  0  0  2  0  0  0  0  0  0
  -31.1450  -20.2890   17.5850 C   0  0  0  0  0  1  0  0  0  0  0  0
  -30.0590  -19.6720   18.4860 C   0  0  0  0  0  3  0  0  0  0  0  0
  -30.6550  -19.0480   19.7720 C   0  0  0  0  0  2  0  0  0  0  0  0
  -30.1230  -17.6280   20.0340 C   0  0  0  0  0  2  0  0  0  0  0  0
  -30.7320  -16.9550   21.2790 C   0  0  0  0  0  2  0  0  0  0  0  0
  -30.2160  -15.5120   21.5190 C   0  0  0  0  0  2  0  0  0  0  0  0
  -30.7780  -14.4330   20.5630 C   0  0  0  0  0  0  0  0  0  0  0  0
  -30.4460  -12.3350   19.2890 C   0  0  0  0  0  2  0  0  0  0  0  0
  -29.5080  -12.5760   18.0910 C   0  0  0  0  0  2  0  0  0  0  0  0
  -28.0320  -12.4460   18.5110 C   0  0  0  0  0  2  0  0  0  0  0  0
  -27.7020  -13.2650   19.7860 C   0  0  0  0  0  3  0  0  0  0  0  0
  -28.7440  -12.9860   20.8930 C   0  0  0  0  0  2  0  0  0  0  0  0
  -30.0780  -13.2870   20.3480 N   0  0  0  0  0  0  0  0  0  0  0  0
  -31.8480  -14.6600   19.9880 O   0  0  0  0  0  0  0  0  0  0  0  0
  -25.2940  -13.9010   20.4460 C   0  0  0  0  0  0  0  0  0  0  0  0
  -24.2140  -13.1430   20.8130 C   0  0  0  0  0  0  0  0  0  0  0  0
  -24.6660  -11.7880   20.8090 C   0  0  0  0  0  0  0  0  0  0  0  0
  -26.3370  -13.0100   20.2450 N   0  0  0  0  0  0  0  0  0  0  0  0
  -25.9590  -11.7340   20.5160 N   0  0  0  0  0  0  0  0  0  0  0  0
  -23.9300  -10.5330   21.0120 C   0  0  0  0  0  0  0  0  0  0  0  0
  -24.3560   -9.5670   21.9490 C   0  0  0  0  0  3  0  0  0  0  0  0
  -23.6200   -8.3770   22.1360 C   0  0  0  0  0  3  0  0  0  0  0  0
  -22.4430   -8.1450   21.3860 C   0  0  0  0  0  0  0  0  0  0  0  0
  -22.0360   -9.0990   20.4370 C   0  0  0  0  0  3  0  0  0  0  0  0
  -22.7720  -10.2800   20.2470 C   0  0  0  0  0  3  0  0  0  0  0  0
  -21.6780   -7.0070   21.4840 O   0  0  0  0  0  0  0  0  0  0  0  0
  -21.6380   -6.2640   22.6360 C   0  0  0  0  0  0  0  0  0  0  0  0
  -21.2540   -6.8270   23.8740 C   0  0  0  0  0  3  0  0  0  0  0  0
  -21.1610   -6.0120   25.0180 C   0  0  0  0  0  3  0  0  0  0  0  0
  -21.4410   -4.6340   24.9270 C   0  0  0  0  0  0  0  0  0  0  0  0
  -21.8170   -4.0720   23.6950 C   0  0  0  0  0  3  0  0  0  0  0  0
  -21.9130   -4.8850   22.5520 C   0  0  0  0  0  0  0  0  0  0  0  0
  -22.2560   -4.3330   21.3630 F   0  0  0  0  0  0  0  0  0  0  0  0
  -21.3430   -3.8480   26.0250 F   0  0  0  0  0  0  0  0  0  0  0  0
  -22.8170  -13.6330   21.0650 C   0  0  0  0  0  0  0  0  0  0  0  0
  -22.0770  -12.9540   21.9340 N   0  0  0  0  0  0  0  0  0  0  0  0
  -22.3910  -14.6530   20.5240 O   0  0  0  0  0  0  0  0  0  0  0  0
  -22.4360  -12.1290   22.3930 H   0  0  0  0  0  0  0  0  0  0  0  0
  -21.1380  -13.2610   22.1460 H   0  0  0  0  0  0  0  0  0  0  0  0
  -25.4750  -15.2670   20.2500 N   0  0  0  0  0  0  0  0  0  0  0  0
  -24.7180  -15.9370   20.3400 H   0  0  0  0  0  0  0  0  0  0  0  0
  -26.3420  -15.6880   19.9430 H   0  0  0  0  0  0  0  0  0  0  0  0
  -28.8210  -23.4140   17.3960 C   0  0  0  0  0  3  0  0  0  0  0  0
  -29.9960  -23.5480   17.0480 O   0  0  0  0  0  0  0  0  0  0  0  0
  -28.5030  -24.3220   19.8030 C   0  0  0  0  0  2  0  0  0  0  0  0
  -28.6310  -25.7260   19.1580 C   0  0  0  0  0  2  0  0  0  0  0  0
  -28.4240  -26.7700   20.1110 O   0  0  0  0  0  0  0  0  0  0  0  0
  -24.5780  -31.8720   23.2280 C   0  0  0  0  0  0  0  0  0  0  0  0
  -27.2160  -27.4410   20.1290 C   0  0  0  0  0  0  0  0  0  0  0  0
  -23.3670  -30.4760   21.5860 C   0  0  0  0  0  3  0  0  0  0  0  0
  -24.8140  -28.9380   20.1610 C   0  0  0  0  0  0  0  0  0  0  0  0
  -25.8930  -30.8290   21.3870 C   0  0  0  0  0  2  0  0  0  0  0  0
  -25.9730  -29.4600   20.7480 C   0  0  0  0  0  0  0  0  0  0  0  0
  -27.1720  -28.7140   20.7370 C   0  0  0  0  0  3  0  0  0  0  0  0
  -26.0270  -26.9160   19.5690 C   0  0  0  0  0  3  0  0  0  0  0  0
  -24.8330  -27.6600   19.5790 C   0  0  0  0  0  3  0  0  0  0  0  0
  -23.5740  -29.8010   20.2060 C   0  0  0  0  0  2  0  0  0  0  0  0
  -24.6310  -31.0730   22.1250 N   0  0  0  0  0  0  0  0  0  0  0  0
  -23.4980  -32.1460   23.7670 O   0  0  0  0  0  0  0  0  0  0  0  0
  -22.7180  -29.4520   22.5440 C   0  0  0  0  0  0  0  0  0  0  0  0
  -21.3940  -29.2690   22.4130 N   0  0  0  0  0  0  0  0  0  0  0  0
  -23.4010  -28.8250   23.3590 O   0  0  0  0  0  0  0  0  0  0  0  0
  -20.9050  -29.8260   21.7270 H   0  0  0  0  0  0  0  0  0  0  0  0
  -18.0190  -28.0760   22.9020 C   0  0  0  0  0  0  0  0  0  0  0  0
  -20.5760  -28.3330   23.1840 C   0  0  0  0  0  3  0  0  0  0  0  0
  -20.6810  -26.9010   22.6090 C   0  0  0  0  0  2  0  0  0  0  0  0
  -19.5830  -26.5770   21.5920 C   0  0  0  0  0  2  0  0  0  0  0  0
  -18.1990  -26.7250   22.2300 C   0  0  0  0  0  2  0  0  0  0  0  0
  -19.1360  -28.8380   23.3350 C   0  0  0  0  0  0  0  0  0  0  0  0
  -18.9140  -30.1030   23.9220 C   0  0  0  0  0  3  0  0  0  0  0  0
  -17.6100  -30.6050   24.0810 C   0  0  0  0  0  3  0  0  0  0  0  0
  -16.5070  -29.8390   23.6640 C   0  0  0  0  0  3  0  0  0  0  0  0
  -16.7130  -28.5760   23.0810 C   0  0  0  0  0  3  0  0  0  0  0  0
  -25.8670  -32.4990   23.8450 C   0  0  0  0  0  3  0  0  0  0  0  0
  -26.3910  -31.7220   25.1150 C   0  0  1  0  0  0  0  0  0  0  0  0
  -25.3050  -31.4770   26.1870 C   0  0  0  0  0  1  0  0  0  0  0  0
  -26.9740  -30.3480   24.7100 C   0  0  0  0  0  1  0  0  0  0  0  0
  -27.5470  -32.5140   25.7730 C   0  0  0  0  0  1  0  0  0  0  0  0
  -25.5580  -33.8950   24.1820 N   0  0  0  0  0  0  0  0  0  0  0  0
  -25.8910  -34.9500   23.4250 C   0  0  0  0  0  0  0  0  0  0  0  0
  -26.5580  -34.8510   22.3920 O   0  0  0  0  0  0  0  0  0  0  0  0
  -24.9640  -34.0460   24.9850 H   0  0  0  0  0  0  0  0  0  0  0  0
  -24.1590  -36.7420   23.0820 C   0  0  0  0  0  1  0  0  0  0  0  0
  -25.4040  -36.3370   23.8880 C   0  0  0  0  0  3  0  0  0  0  0  0
  -27.5440  -37.2160   24.7120 C   0  0  0  0  0  1  0  0  0  0  0  0
  -26.4360  -37.3910   23.7760 N   0  0  0  0  0  0  0  0  0  0  0  0
  -26.0300  -38.3090   23.9320 H   0  0  0  0  0  0  0  0  0  0  0  0
  1 48  1  0
  1  2  1  0
  1 50  1  0
  2  4  1  0
  3  2  1  0
  5  2  1  0
  7  6  1  0
  7  5  1  0
  7  8  1  0
  8  9  1  0
  9 10  1  0
 10 11  1  0
 12 11  1  0
 13 18  1  0
 14 15  1  0
 14 13  1  0
 16 15  1  0
 16 23  1  0
 16 17  1  0
 18 12  1  0
 18 17  1  0
 19 12  2  0
 20 21  2  0
 21 40  1  0
 22 21  1  0
 22 25  1  0
 23 20  1  0
 23 24  1  0
 24 22  2  0
 25 26  1  0
 26 27  2  0
 28 31  1  0
 28 27  1  0
 29 28  2  0
 30 29  1  0
 30 25  2  0
 31 32  1  0
 32 33  1  0
 33 34  2  0
 35 34  1  0
 35 39  1  0
 36 35  2  0
 37 32  2  0
 37 36  1  0
 38 37  1  0
 40 41  1  0
 41 44  1  0
 41 43  1  0
 42 40  2  0
 45 46  1  0
 45 20  1  0
 47 45  1  0
 49 48  2  0
 51 50  1  0
 51 52  1  0
 52 54  1  0
 53 64  2  0
 54 59  1  0
 55 63  1  0
 55 65  1  0
 56 62  1  0
 56 58  1  0
 57 63  1  0
 58 57  1  0
 59 58  2  0
 60 61  1  0
 60 54  2  0
 61 56  2  0
 62 55  1  0
 63 53  1  0
 65 67  2  0
 66 65  1  0
 68 66  1  0
 69 78  2  0
 69 74  1  0
 70 66  1  0
 70 74  1  0
 71 70  1  0
 72 73  1  0
 72 71  1  0
 73 69  1  0
 74 75  2  0
 75 76  1  0
 77 76  2  0
 78 77  1  0
 79 53  1  0
 79 84  1  0
 79 80  1  0
 80 83  1  1
 80 81  1  0
 82 80  1  0
 84 87  1  0
 85 89  1  0
 85 84  1  0
 86 85  2  0
 89 88  1  0
 91 89  1  0
 91 92  1  0
 91 90  1  0
M  ISO  4  11 100  12 100  51 101  52 101
M  END
>  <TORSDO>  (56) 
F 26

>  <SCORE>  (56) 
-11.811

>  <name>  (56) 
55

>  <ligand_id>  (56) 
55

>  <original_smiles>  (56) 
[H]C(=O)C([H])(C([H])([H])C([H])([H])Oc1c([H])c([H])c2c(c1[H])C([H])([H])N(C(=O)C([H])(N([H])C(=O)C([H])(N([H])C([H])([H])[H])C([H])([H])[H])C(C([H])([H])[H])(C([H])([H])[H])C([H])([H])[H])C([H])(C(=O)N([H])C1([H])c3c([H])c([H])c([H])c([H])c3C([H])([H])C([H])([H])C1([H])[H])C2([H])[H])[N+]([H])([H])C([H])([H])C([H])(C([H])([H])[H])C([H])([H])C([H])([H])C([H])([H])C([H])([H])C(=O)N1C([H])([H])C([H])([H])C([H])([H])C([H])(n2nc(-c3c([H])c([H])c(Oc4c([H])c([H])c(F)c([H])c4F)c([H])c3[H])c(C(=O)N([H])[H])c2N([H])[H])C1([H])[H]

>  <smiles>  (56) 
[H]C(=O)C([H])(C([H])([H])C([H])([H])Oc1c([H])c([H])c2c(c1[H])C([H])([H])N(C(=O)C([H])(N([H])C(=O)C([H])(N([H])C([H])([H])[H])C([H])([H])[H])C(C([H])([H])[H])(C([H])([H])[H])C([H])([H])[H])C([H])(C(=O)N([H])C1([H])c3c([H])c([H])c([H])c([H])c3C([H])([H])C([H])([H])C1([H])[H])C2([H])[H])[N+]([H])([H])C([H])([H])C([H])(C([H])([H])[H])C([H])([H])C([H])([H])C([H])([H])C([H])([H])C(=O)N1C([H])([H])C([H])([H])C([H])([H])C([H])(n2nc(-c3c([H])c([H])c(Oc4c([H])c([H])c(F)c([H])c4F)c([H])c3[H])c(C(=O)N([H])[H])c2N([H])[H])C1([H])[H]

$$$$
56:0:0
     RDKit          3D

 97105  0  0  1  0  0  0  0  0999 V2000
  -39.5280  -28.4370   14.2890 C   0  0  0  0  0  2  0  0  0  0  0  0
  -39.0810  -27.8820   15.7120 C   0  0  0  0  0  2  0  0  0  0  0  0
  -42.6400  -27.1520   17.0570 C   0  0  0  0  0  3  0  0  0  0  0  0
  -42.4280  -26.8710   18.4140 C   0  0  0  0  0  3  0  0  0  0  0  0
  -41.5460  -27.4380   16.2190 C   0  0  0  0  0  3  0  0  0  0  0  0
  -41.1170  -26.8090   18.9060 C   0  0  0  0  0  3  0  0  0  0  0  0
  -40.2070  -27.4200   16.6900 C   0  0  0  0  0  0  0  0  0  0  0  0
  -40.0010  -27.0500   18.0710 C   0  0  0  0  0  0  0  0  0  0  0  0
  -38.7610  -26.8560   18.6550 O   0  0  0  0  0  0  0  0  0  0  0  0
  -39.4730  -19.7340   19.0690 C   0  0  0  0  0  0  0  0  0  0  0  0
  -38.5040  -25.6900   19.3560 C   0  0  0  0  0  0  0  0  0  0  0  0
  -37.7300  -20.7540   20.4950 C   0  0  0  0  0  3  0  0  0  0  0  0
  -37.8150  -23.2970   20.7060 C   0  0  0  0  0  0  0  0  0  0  0  0
  -39.8230  -22.0820   19.8470 C   0  0  0  0  0  2  0  0  0  0  0  0
  -38.9820  -23.3450   19.9330 C   0  0  0  0  0  0  0  0  0  0  0  0
  -39.3350  -24.5420   19.2570 C   0  0  0  0  0  3  0  0  0  0  0  0
  -37.3380  -25.6160   20.1410 C   0  0  0  0  0  3  0  0  0  0  0  0
  -36.9910  -24.4300   20.8160 C   0  0  0  0  0  3  0  0  0  0  0  0
  -37.5000  -21.9920   21.4020 C   0  0  0  0  0  2  0  0  0  0  0  0
  -39.0300  -20.8290   19.7520 N   0  0  0  0  0  0  0  0  0  0  0  0
  -38.8410  -18.6690   19.0870 O   0  0  0  0  0  0  0  0  0  0  0  0
  -36.5050  -20.5800   19.5680 C   0  0  0  0  0  0  0  0  0  0  0  0
  -35.8030  -19.4440   19.7080 N   0  0  0  0  0  0  0  0  0  0  0  0
  -36.1880  -21.4650   18.7670 O   0  0  0  0  0  0  0  0  0  0  0  0
  -36.1290  -18.7680   20.3850 H   0  0  0  0  0  0  0  0  0  0  0  0
  -33.5140  -16.7360   18.9980 C   0  0  0  0  0  0  0  0  0  0  0  0
  -34.5960  -19.0850   18.9650 C   0  0  0  0  0  3  0  0  0  0  0  0
  -33.3280  -19.5670   19.7060 C   0  0  0  0  0  2  0  0  0  0  0  0
  -32.7250  -18.5040   20.6290 C   0  0  0  0  0  2  0  0  0  0  0  0
  -32.3540  -17.2490   19.8350 C   0  0  0  0  0  2  0  0  0  0  0  0
  -34.5740  -17.5960   18.6020 C   0  0  0  0  0  0  0  0  0  0  0  0
  -35.6450  -17.0630   17.8500 C   0  0  0  0  0  3  0  0  0  0  0  0
  -35.6680  -15.7000   17.4950 C   0  0  0  0  0  3  0  0  0  0  0  0
  -34.6120  -14.8580   17.8800 C   0  0  0  0  0  3  0  0  0  0  0  0
  -33.5350  -15.3770   18.6220 C   0  0  0  0  0  3  0  0  0  0  0  0
  -40.8080  -19.7590   18.2610 C   0  0  0  0  0  3  0  0  0  0  0  0
  -40.5870  -19.8970   16.7050 C   0  0  1  0  0  0  0  0  0  0  0  0
  -39.1280  -20.2280   16.3140 C   0  0  0  0  0  1  0  0  0  0  0  0
  -41.4970  -20.9990   16.1170 C   0  0  0  0  0  1  0  0  0  0  0  0
  -40.9830  -18.5770   15.9990 C   0  0  0  0  0  1  0  0  0  0  0  0
  -41.5400  -18.5250   18.5760 N   0  0  0  0  0  0  0  0  0  0  0  0
  -42.1020  -18.2530   19.7620 C   0  0  0  0  0  0  0  0  0  0  0  0
  -42.1170  -19.0630   20.6940 O   0  0  0  0  0  0  0  0  0  0  0  0
  -41.5250  -17.7990   17.8730 H   0  0  0  0  0  0  0  0  0  0  0  0
  -41.6580  -15.7850   19.9120 C   0  0  0  0  0  1  0  0  0  0  0  0
  -42.7470  -16.8670   19.9420 C   0  0  0  0  0  3  0  0  0  0  0  0
  -42.8780  -15.9500   22.2170 C   0  0  0  0  0  1  0  0  0  0  0  0
  -43.5390  -16.7450   21.1850 N   0  0  0  0  0  0  0  0  0  0  0  0
  -43.7400  -17.6620   21.5740 H   0  0  0  0  0  0  0  0  0  0  0  0
  -39.1360  -29.9020   13.8490 C   0  0  0  0  0  3  0  0  0  0  0  0
  -40.2700  -30.8640   14.1160 N   0  0  0  0  0  4  0  0  0  0  0  0
  -41.1080  -30.4590   13.7230 H   0  0  0  0  0  0  0  0  0  0  0  0
  -40.0980  -31.7190   13.6120 H   0  0  0  0  0  0  0  0  0  0  0  0
  -40.5760  -31.2230   15.5400 C   0  0  0  0  0  2  0  0  0  0  0  0
  -39.9070  -32.5420   16.0600 C   0  0  0  0  0  2  0  0  0  0  0  0
  -40.5680  -33.1370   17.3480 C   0  0  0  0  0  2  0  0  0  0  0  0
  -39.9460  -34.4590   17.9030 C   0  0  0  0  0  0  0  0  0  0  0  0
  -38.7810  -35.4140   19.8660 C   0  0  0  0  0  2  0  0  0  0  0  0
  -39.4900  -34.8880   21.1310 C   0  0  0  0  0  2  0  0  0  0  0  0
  -38.9190  -33.5210   21.5580 C   0  0  0  0  0  2  0  0  0  0  0  0
  -38.8260  -32.5200   20.3760 C   0  0  0  0  0  3  0  0  0  0  0  0
  -38.1760  -33.1810   19.1400 C   0  0  0  0  0  2  0  0  0  0  0  0
  -38.9400  -34.3930   18.8180 N   0  0  0  0  0  0  0  0  0  0  0  0
  -40.4840  -35.5290   17.6050 O   0  0  0  0  0  0  0  0  0  0  0  0
  -36.9060  -30.8080   20.3510 C   0  0  0  0  0  0  0  0  0  0  0  0
  -36.7760  -29.5780   20.9430 C   0  0  0  0  0  0  0  0  0  0  0  0
  -37.9730  -29.3740   21.6940 C   0  0  0  0  0  0  0  0  0  0  0  0
  -38.1430  -31.2910   20.7580 N   0  0  0  0  0  0  0  0  0  0  0  0
  -38.7560  -30.4390   21.6180 N   0  0  0  0  0  0  0  0  0  0  0  0
  -38.4430  -28.1940   22.4350 C   0  0  0  0  0  0  0  0  0  0  0  0
  -37.5540  -27.3830   23.1760 C   0  0  0  0  0  3  0  0  0  0  0  0
  -38.0280  -26.2440   23.8610 C   0  0  0  0  0  3  0  0  0  0  0  0
  -39.4030  -25.9070   23.8110 C   0  0  0  0  0  0  0  0  0  0  0  0
  -40.2870  -26.7320   23.0930 C   0  0  0  0  0  3  0  0  0  0  0  0
  -39.8140  -27.8690   22.4150 C   0  0  0  0  0  3  0  0  0  0  0  0
  -39.9540  -24.8310   24.4620 O   0  0  0  0  0  0  0  0  0  0  0  0
  -41.0820  -24.2080   23.9920 C   0  0  0  0  0  0  0  0  0  0  0  0
  -42.3500  -24.8250   24.0480 C   0  0  0  0  0  3  0  0  0  0  0  0
  -43.4940  -24.1220   23.6220 C   0  0  0  0  0  3  0  0  0  0  0  0
  -43.3730  -22.8010   23.1500 C   0  0  0  0  0  0  0  0  0  0  0  0
  -42.1100  -22.1820   23.0960 C   0  0  0  0  0  3  0  0  0  0  0  0
  -40.9690  -22.8830   23.5200 C   0  0  0  0  0  0  0  0  0  0  0  0
  -39.7580  -22.2780   23.4870 F   0  0  0  0  0  0  0  0  0  0  0  0
  -44.4720  -22.1190   22.7500 F   0  0  0  0  0  0  0  0  0  0  0  0
  -35.6470  -28.6090   20.7460 C   0  0  0  0  0  0  0  0  0  0  0  0
  -34.6430  -28.6690   21.6130 N   0  0  0  0  0  0  0  0  0  0  0  0
  -35.6290  -27.8280   19.7970 O   0  0  0  0  0  0  0  0  0  0  0  0
  -34.6640  -29.3180   22.3850 H   0  0  0  0  0  0  0  0  0  0  0  0
  -33.8470  -28.0560   21.5150 H   0  0  0  0  0  0  0  0  0  0  0  0
  -36.0900  -31.5370   19.4920 N   0  0  0  0  0  0  0  0  0  0  0  0
  -35.2200  -31.1560   19.1360 H   0  0  0  0  0  0  0  0  0  0  0  0
  -36.3380  -32.4230   19.0700 H   0  0  0  0  0  0  0  0  0  0  0  0
  -38.6380  -29.9720   12.3750 C   0  0  0  0  0  2  0  0  0  0  0  0
  -36.9750  -31.6100   13.4230 C   0  0  0  0  0  1  0  0  0  0  0  0
  -37.3520  -30.8180   12.1580 C   0  0  0  0  0  3  0  0  0  0  0  0
  -36.2080  -29.5880   10.1430 C   0  0  0  0  0  1  0  0  0  0  0  0
  -36.1370  -30.0180   11.6210 C   0  0  0  0  0  2  0  0  0  0  0  0
  1  2  1  0
  2  7  1  0
  3  4  1  0
  4  6  2  0
  5  7  1  0
  5  3  2  0
  7  8  2  0
  8  9  1  0
  8  6  1  0
  9 11  1  0
 10 21  2  0
 10 20  1  0
 11 17  1  0
 12 22  1  0
 12 19  1  0
 13 18  1  0
 13 19  1  0
 14 15  1  0
 15 13  2  0
 16 11  2  0
 16 15  1  0
 17 18  2  0
 20 14  1  0
 20 12  1  0
 22 23  1  0
 23 25  1  0
 24 22  2  0
 26 30  1  0
 27 28  1  0
 27 23  1  0
 28 29  1  0
 30 29  1  0
 31 27  1  0
 31 26  2  0
 32 31  1  0
 33 32  2  0
 33 34  1  0
 34 35  2  0
 35 26  1  0
 36 41  1  0
 36 10  1  0
 37 36  1  0
 37 38  1  1
 39 37  1  0
 40 37  1  0
 41 42  1  0
 42 46  1  0
 42 43  2  0
 44 41  1  0
 46 45  1  0
 46 48  1  0
 48 49  1  0
 48 47  1  0
 50 93  1  0
 50 51  1  0
 50  1  1  0
 51 54  1  0
 52 51  1  0
 53 51  1  0
 54 55  1  0
 55 56  1  0
 56 57  1  0
 57 63  1  0
 58 59  1  0
 59 60  1  0
 61 62  1  0
 61 68  1  0
 61 60  1  0
 63 62  1  0
 63 58  1  0
 64 57  2  0
 65 68  1  0
 65 66  2  0
 66 67  1  0
 67 70  1  0
 68 69  1  0
 69 67  2  0
 70 71  1  0
 71 72  2  0
 73 72  1  0
 73 76  1  0
 74 73  2  0
 75 70  2  0
 75 74  1  0
 77 78  1  0
 77 76  1  0
 79 78  2  0
 80 79  1  0
 81 80  2  0
 81 82  1  0
 82 77  2  0
 83 82  1  0
 84 80  1  0
 85 66  1  0
 85 86  1  0
 86 88  1  0
 87 85  2  0
 89 86  1  0
 90 65  1  0
 91 90  1  0
 92 90  1  0
 95 93  1  0
 95 94  1  0
 96 97  1  0
 97 95  1  0
M  ISO  4   8 101   9 101  56 100  57 100
M  END
>  <TORSDO>  (57) 
F 26

>  <SCORE>  (57) 
-1.838

>  <name>  (57) 
56

>  <ligand_id>  (57) 
56

>  <original_smiles>  (57) 
[H]c1c([H])c([H])c(C([H])([H])C([H])([H])C([H])(C([H])([H])C([H])(C([H])([H])[H])C([H])([H])C([H])([H])[H])[N+]([H])([H])C([H])([H])C([H])([H])C([H])([H])C(=O)N2C([H])([H])C([H])([H])C([H])([H])C([H])(n3nc(-c4c([H])c([H])c(Oc5c([H])c([H])c(F)c([H])c5F)c([H])c4[H])c(C(=O)N([H])[H])c3N([H])[H])C2([H])[H])c(Oc2c([H])c([H])c3c(c2[H])C([H])([H])N(C(=O)C([H])(N([H])C(=O)C([H])(N([H])C([H])([H])[H])C([H])([H])[H])C(C([H])([H])[H])(C([H])([H])[H])C([H])([H])[H])C([H])(C(=O)N([H])C2([H])c4c([H])c([H])c([H])c([H])c4C([H])([H])C([H])([H])C2([H])[H])C3([H])[H])c1[H]

>  <smiles>  (57) 
[H]c1c([H])c([H])c(C([H])([H])C([H])([H])C([H])(C([H])([H])C([H])(C([H])([H])[H])C([H])([H])C([H])([H])[H])[N+]([H])([H])C([H])([H])C([H])([H])C([H])([H])C(=O)N2C([H])([H])C([H])([H])C([H])([H])C([H])(n3nc(-c4c([H])c([H])c(Oc5c([H])c([H])c(F)c([H])c5F)c([H])c4[H])c(C(=O)N([H])[H])c3N([H])[H])C2([H])[H])c(Oc2c([H])c([H])c3c(c2[H])C([H])([H])N(C(=O)C([H])(N([H])C(=O)C([H])(N([H])C([H])([H])[H])C([H])([H])[H])C(C([H])([H])[H])(C([H])([H])[H])C([H])([H])[H])C([H])(C(=O)N([H])C2([H])c4c([H])c([H])c([H])c([H])c4C([H])([H])C([H])([H])C2([H])[H])C3([H])[H])c1[H]

$$$$
57:0:0
     RDKit          3D

 90 98  0  0  1  0  0  0  0  0999 V2000
  -29.5590  -18.7100   20.7410 C   0  0  0  0  0  0  0  0  0  0  0  0
  -30.2170  -17.7850   18.7130 C   0  0  0  0  0  2  0  0  0  0  0  0
  -29.7720  -19.9950   19.8770 C   0  0  0  0  0  3  0  0  0  0  0  0
  -30.1220  -19.3340   18.5050 C   0  0  0  0  0  3  0  0  0  0  0  0
  -30.3900  -17.4870   20.2200 C   0  0  1  0  0  0  0  0  0  0  0  0
  -31.4170  -19.8910   17.8730 C   0  0  0  0  0  1  0  0  0  0  0  0
  -31.8740  -17.7130   20.6250 C   0  0  0  0  0  1  0  0  0  0  0  0
  -28.8210  -18.6650   21.7270 O   0  0  0  0  0  0  0  0  0  0  0  0
  -29.9040  -16.0160   20.6860 C   0  0  0  0  0  2  0  0  0  0  0  0
  -30.6340  -14.6970   20.1700 C   0  0  0  0  0  0  0  0  0  0  0  0
  -30.3560  -12.4730   19.0880 C   0  0  0  0  0  2  0  0  0  0  0  0
  -29.3850  -12.6320   17.8990 C   0  0  0  0  0  2  0  0  0  0  0  0
  -27.9280  -12.4650   18.3690 C   0  0  0  0  0  2  0  0  0  0  0  0
  -27.6060  -13.3160   19.6270 C   0  0  0  0  0  3  0  0  0  0  0  0
  -28.6960  -13.1610   20.7110 C   0  0  0  0  0  2  0  0  0  0  0  0
  -29.9900  -13.4870   20.0980 N   0  0  0  0  0  0  0  0  0  0  0  0
  -31.7820  -14.7960   19.7310 O   0  0  0  0  0  0  0  0  0  0  0  0
  -25.2340  -13.9020   20.4120 C   0  0  0  0  0  0  0  0  0  0  0  0
  -24.1790  -13.1230   20.8080 C   0  0  0  0  0  0  0  0  0  0  0  0
  -24.6450  -11.7740   20.7660 C   0  0  0  0  0  0  0  0  0  0  0  0
  -26.2740  -13.0250   20.1490 N   0  0  0  0  0  0  0  0  0  0  0  0
  -25.9280  -11.7410   20.4260 N   0  0  0  0  0  0  0  0  0  0  0  0
  -23.9290  -10.5080   20.9740 C   0  0  0  0  0  0  0  0  0  0  0  0
  -24.3800   -9.5490   21.9060 C   0  0  0  0  0  3  0  0  0  0  0  0
  -23.6600   -8.3490   22.1010 C   0  0  0  0  0  3  0  0  0  0  0  0
  -22.4800   -8.1010   21.3640 C   0  0  0  0  0  0  0  0  0  0  0  0
  -22.0480   -9.0500   20.4220 C   0  0  0  0  0  3  0  0  0  0  0  0
  -22.7660  -10.2420   20.2240 C   0  0  0  0  0  3  0  0  0  0  0  0
  -21.7320   -6.9510   21.4670 O   0  0  0  0  0  0  0  0  0  0  0  0
  -21.6950   -6.2190   22.6260 C   0  0  0  0  0  0  0  0  0  0  0  0
  -21.2620   -6.7800   23.8480 C   0  0  0  0  0  3  0  0  0  0  0  0
  -21.1730   -5.9750   25.0010 C   0  0  0  0  0  3  0  0  0  0  0  0
  -21.5070   -4.6070   24.9330 C   0  0  0  0  0  0  0  0  0  0  0  0
  -21.9330   -4.0460   23.7150 C   0  0  0  0  0  3  0  0  0  0  0  0
  -22.0240   -4.8500   22.5660 C   0  0  0  0  0  0  0  0  0  0  0  0
  -22.4160   -4.3010   21.3910 F   0  0  0  0  0  0  0  0  0  0  0  0
  -21.4140   -3.8310   26.0360 F   0  0  0  0  0  0  0  0  0  0  0  0
  -22.7870  -13.5950   21.1120 C   0  0  0  0  0  0  0  0  0  0  0  0
  -22.0820  -12.8940   21.9930 N   0  0  0  0  0  0  0  0  0  0  0  0
  -22.3350  -14.6200   20.6060 O   0  0  0  0  0  0  0  0  0  0  0  0
  -22.4590  -12.0630   22.4220 H   0  0  0  0  0  0  0  0  0  0  0  0
  -21.1490  -13.1950   22.2400 H   0  0  0  0  0  0  0  0  0  0  0  0
  -25.3900  -15.2730   20.2310 N   0  0  0  0  0  0  0  0  0  0  0  0
  -24.6310  -15.9320   20.3680 H   0  0  0  0  0  0  0  0  0  0  0  0
  -26.2370  -15.7130   19.8880 H   0  0  0  0  0  0  0  0  0  0  0  0
  -28.6630  -21.1620   19.8270 C   0  0  0  0  0  2  0  0  0  0  0  0
  -28.9200  -22.5580   20.5700 C   0  0  0  0  0  3  0  0  0  0  0  0
  -28.2890  -23.9030   19.9700 C   0  0  0  0  0  3  0  0  0  0  0  0
  -28.3810  -25.2310   20.8480 C   0  0  0  0  0  2  0  0  0  0  0  0
  -28.4160  -26.5620   20.2160 O   0  0  0  0  0  0  0  0  0  0  0  0
  -24.5990  -31.8820   23.2390 C   0  0  0  0  0  0  0  0  0  0  0  0
  -27.2730  -27.3580   20.2300 C   0  0  0  0  0  0  0  0  0  0  0  0
  -23.4160  -30.4710   21.5910 C   0  0  0  0  0  3  0  0  0  0  0  0
  -24.8940  -28.9250   20.1840 C   0  0  0  0  0  0  0  0  0  0  0  0
  -25.9470  -30.8200   21.4190 C   0  0  0  0  0  2  0  0  0  0  0  0
  -26.0510  -29.4370   20.7840 C   0  0  0  0  0  0  0  0  0  0  0  0
  -27.2500  -28.6680   20.7950 C   0  0  0  0  0  3  0  0  0  0  0  0
  -26.1000  -26.8820   19.6120 C   0  0  0  0  0  3  0  0  0  0  0  0
  -24.9200  -27.6540   19.5840 C   0  0  0  0  0  3  0  0  0  0  0  0
  -23.6490  -29.7890   20.2180 C   0  0  0  0  0  2  0  0  0  0  0  0
  -24.6720  -31.0730   22.1420 N   0  0  0  0  0  0  0  0  0  0  0  0
  -23.5100  -32.1550   23.7640 O   0  0  0  0  0  0  0  0  0  0  0  0
  -22.7540  -29.4540   22.5460 C   0  0  0  0  0  0  0  0  0  0  0  0
  -21.4280  -29.2830   22.4140 N   0  0  0  0  0  0  0  0  0  0  0  0
  -23.4290  -28.8240   23.3620 O   0  0  0  0  0  0  0  0  0  0  0  0
  -20.9400  -29.8430   21.7280 H   0  0  0  0  0  0  0  0  0  0  0  0
  -18.0460  -28.1030   22.9140 C   0  0  0  0  0  0  0  0  0  0  0  0
  -20.6050  -28.3450   23.1780 C   0  0  0  0  0  3  0  0  0  0  0  0
  -20.6980  -26.9160   22.5930 C   0  0  0  0  0  2  0  0  0  0  0  0
  -19.5950  -26.6070   21.5770 C   0  0  0  0  0  2  0  0  0  0  0  0
  -18.2140  -26.7570   22.2250 C   0  0  0  0  0  2  0  0  0  0  0  0
  -19.1700  -28.8540   23.3460 C   0  0  0  0  0  0  0  0  0  0  0  0
  -18.9620  -30.1120   23.9480 C   0  0  0  0  0  3  0  0  0  0  0  0
  -17.6620  -30.6260   24.1180 C   0  0  0  0  0  3  0  0  0  0  0  0
  -16.5520  -29.8690   23.7030 C   0  0  0  0  0  3  0  0  0  0  0  0
  -16.7440  -28.6110   23.1080 C   0  0  0  0  0  3  0  0  0  0  0  0
  -25.8740  -32.5220   23.8690 C   0  0  0  0  0  3  0  0  0  0  0  0
  -25.5570  -33.9180   24.1910 N   0  0  0  0  0  0  0  0  0  0  0  0
  -25.8930  -34.9700   23.4300 C   0  0  0  0  0  0  0  0  0  0  0  0
  -26.5730  -34.8650   22.4050 O   0  0  0  0  0  0  0  0  0  0  0  0
  -24.9480  -34.0700   24.9840 H   0  0  0  0  0  0  0  0  0  0  0  0
  -24.1660  -36.7600   23.0540 C   0  0  0  0  0  1  0  0  0  0  0  0
  -25.4020  -36.3580   23.8770 C   0  0  0  0  0  3  0  0  0  0  0  0
  -27.5260  -37.2550   24.7260 C   0  0  0  0  0  1  0  0  0  0  0  0
  -26.4330  -37.4130   23.7700 N   0  0  0  0  0  0  0  0  0  0  0  0
  -26.0230  -38.3310   23.9100 H   0  0  0  0  0  0  0  0  0  0  0  0
  -26.3850  -31.7540   25.1500 C   0  0  1  0  0  0  0  0  0  0  0  0
  -25.2810  -31.5110   26.2080 C   0  0  0  0  0  1  0  0  0  0  0  0
  -26.9760  -30.3770   24.7630 C   0  0  0  0  0  1  0  0  0  0  0  0
  -27.5250  -32.5540   25.8200 C   0  0  0  0  0  1  0  0  0  0  0  0
  1  8  2  0
  2  5  1  0
  3 46  1  0
  3  1  1  0
  4  6  1  0
  4  2  1  0
  4  3  1  0
  5  7  1  1
  5  9  1  0
  5  1  1  0
 10  9  1  0
 11 16  1  0
 12 13  1  0
 12 11  1  0
 14 13  1  0
 14 21  1  0
 14 15  1  0
 16 10  1  0
 16 15  1  0
 17 10  2  0
 18 19  2  0
 19 38  1  0
 20 19  1  0
 20 23  1  0
 21 18  1  0
 21 22  1  0
 22 20  2  0
 23 24  1  0
 24 25  2  0
 26 29  1  0
 26 25  1  0
 27 26  2  0
 28 27  1  0
 28 23  2  0
 29 30  1  0
 30 31  1  0
 31 32  2  0
 33 32  1  0
 33 37  1  0
 34 33  2  0
 35 30  2  0
 35 34  1  0
 36 35  1  0
 38 39  1  0
 39 42  1  0
 39 41  1  0
 40 38  2  0
 43 44  1  0
 43 18  1  0
 45 43  1  0
 46 47  1  0
 48 47  2  0
 48 49  1  0
 50 52  1  0
 50 49  1  0
 51 62  2  0
 52 57  1  0
 53 61  1  0
 53 63  1  0
 54 60  1  0
 54 56  1  0
 55 61  1  0
 56 57  2  0
 56 55  1  0
 58 52  2  0
 59 58  1  0
 59 54  2  0
 60 53  1  0
 61 51  1  0
 63 65  2  0
 64 63  1  0
 66 64  1  0
 67 76  2  0
 67 72  1  0
 68 64  1  0
 68 72  1  0
 69 68  1  0
 70 71  1  0
 70 69  1  0
 71 67  1  0
 72 73  2  0
 73 74  1  0
 75 74  2  0
 76 75  1  0
 77 51  1  0
 77 78  1  0
 77 87  1  0
 78 81  1  0
 79 83  1  0
 79 78  1  0
 80 79  2  0
 83 82  1  0
 85 83  1  0
 85 86  1  0
 85 84  1  0
 87 90  1  1
 87 88  1  0
 89 87  1  0
M  ISO  4   9 100  10 100  49 101  50 101
M  END
>  <TORSDO>  (58) 
F 21

>  <SCORE>  (58) 
-12.753

>  <name>  (58) 
57

>  <ligand_id>  (58) 
57

>  <original_smiles>  (58) 
[H]c1c([H])c([H])c2c(c1[H])C([H])([H])C([H])([H])C([H])([H])C2([H])N([H])C(=O)C1([H])N(C(=O)C([H])(N([H])C(=O)C([H])(N([H])C([H])([H])[H])C([H])([H])[H])C(C([H])([H])[H])(C([H])([H])[H])C([H])([H])[H])C([H])([H])c2c([H])c(OC([H])([H])C([H])([H])C([H])([H])C([H])([H])C3([H])C(=O)C(C([H])([H])[H])(C([H])([H])C(=O)N4C([H])([H])C([H])([H])C([H])([H])C([H])(n5nc(-c6c([H])c([H])c(Oc7c([H])c([H])c(F)c([H])c7F)c([H])c6[H])c(C(=O)N([H])[H])c5N([H])[H])C4([H])[H])C([H])([H])C3([H])C([H])([H])[H])c([H])c([H])c2C1([H])[H]

>  <smiles>  (58) 
[H]c1c([H])c([H])c2c(c1[H])C([H])([H])C([H])([H])C([H])([H])C2([H])N([H])C(=O)C1([H])N(C(=O)C([H])(N([H])C(=O)C([H])(N([H])C([H])([H])[H])C([H])([H])[H])C(C([H])([H])[H])(C([H])([H])[H])C([H])([H])[H])C([H])([H])c2c([H])c(OC([H])([H])C([H])([H])C([H])([H])C([H])([H])C3([H])C(=O)C(C([H])([H])[H])(C([H])([H])C(=O)N4C([H])([H])C([H])([H])C([H])([H])C([H])(n5nc(-c6c([H])c([H])c(Oc7c([H])c([H])c(F)c([H])c7F)c([H])c6[H])c(C(=O)N([H])[H])c5N([H])[H])C4([H])[H])C([H])([H])C3([H])C([H])([H])[H])c([H])c([H])c2C1([H])[H]

$$$$
58:0:0
     RDKit          3D

 91 99  0  0  1  0  0  0  0  0999 V2000
  -29.6790  -22.3970   20.5100 C   0  0  0  0  0  3  0  0  0  0  0  0
  -29.8740  -18.5810   21.6590 C   0  0  0  0  0  3  0  0  0  0  0  0
  -29.7080  -20.0040   21.6670 C   0  0  0  0  0  3  0  0  0  0  0  0
  -29.7640  -18.6490   19.3070 C   0  0  0  0  0  3  0  0  0  0  0  0
  -29.9020  -17.8110   20.4600 C   0  0  0  0  0  0  0  0  0  0  0  0
  -29.5590  -20.7710   20.4790 C   0  0  0  0  0  0  0  0  0  0  0  0
  -29.6350  -20.0410   19.3130 N   0  0  0  0  0  0  0  0  0  0  0  0
  -29.7520  -16.1890   20.5480 C   0  0  0  0  0  2  0  0  0  0  0  0
  -30.6820  -14.9520   20.0190 C   0  0  0  0  0  0  0  0  0  0  0  0
  -30.5560  -12.6710   18.9280 C   0  0  0  0  0  2  0  0  0  0  0  0
  -29.5250  -12.7300   17.7720 C   0  0  0  0  0  2  0  0  0  0  0  0
  -28.0890  -12.4950   18.2880 C   0  0  0  0  0  2  0  0  0  0  0  0
  -27.7750  -13.3430   19.5460 C   0  0  0  0  0  3  0  0  0  0  0  0
  -28.9050  -13.2330   20.5920 C   0  0  0  0  0  2  0  0  0  0  0  0
  -30.1550  -13.6700   19.9490 N   0  0  0  0  0  0  0  0  0  0  0  0
  -31.8200  -15.1480   19.5760 O   0  0  0  0  0  0  0  0  0  0  0  0
  -25.4450  -13.9020   20.4640 C   0  0  0  0  0  0  0  0  0  0  0  0
  -24.4070  -13.1110   20.8760 C   0  0  0  0  0  0  0  0  0  0  0  0
  -24.8680  -11.7630   20.7590 C   0  0  0  0  0  0  0  0  0  0  0  0
  -26.4680  -13.0340   20.1170 N   0  0  0  0  0  0  0  0  0  0  0  0
  -26.1330  -11.7410   20.3580 N   0  0  0  0  0  0  0  0  0  0  0  0
  -24.1570  -10.4930   20.9480 C   0  0  0  0  0  0  0  0  0  0  0  0
  -24.5800   -9.5470   21.9070 C   0  0  0  0  0  3  0  0  0  0  0  0
  -23.8700   -8.3390   22.0830 C   0  0  0  0  0  3  0  0  0  0  0  0
  -22.7230   -8.0710   21.2980 C   0  0  0  0  0  0  0  0  0  0  0  0
  -22.3200   -9.0060   20.3290 C   0  0  0  0  0  3  0  0  0  0  0  0
  -23.0310  -10.2040   20.1520 C   0  0  0  0  0  3  0  0  0  0  0  0
  -21.9870   -6.9140   21.3820 O   0  0  0  0  0  0  0  0  0  0  0  0
  -21.8150   -6.2540   22.5720 C   0  0  0  0  0  0  0  0  0  0  0  0
  -21.1990   -6.8690   23.6840 C   0  0  0  0  0  3  0  0  0  0  0  0
  -20.9800   -6.1330   24.8650 C   0  0  0  0  0  3  0  0  0  0  0  0
  -21.3670   -4.7810   24.9340 C   0  0  0  0  0  0  0  0  0  0  0  0
  -21.9750   -4.1650   23.8260 C   0  0  0  0  0  3  0  0  0  0  0  0
  -22.1960   -4.8990   22.6470 C   0  0  0  0  0  0  0  0  0  0  0  0
  -22.7630   -4.2950   21.5760 F   0  0  0  0  0  0  0  0  0  0  0  0
  -21.1500   -4.0700   26.0650 F   0  0  0  0  0  0  0  0  0  0  0  0
  -23.0310  -13.5730   21.2600 C   0  0  0  0  0  0  0  0  0  0  0  0
  -22.3610  -12.8360   22.1400 N   0  0  0  0  0  0  0  0  0  0  0  0
  -22.5600  -14.6200   20.8180 O   0  0  0  0  0  0  0  0  0  0  0  0
  -22.7570  -11.9890   22.5210 H   0  0  0  0  0  0  0  0  0  0  0  0
  -21.4390  -13.1230   22.4380 H   0  0  0  0  0  0  0  0  0  0  0  0
  -25.5950  -15.2800   20.3320 N   0  0  0  0  0  0  0  0  0  0  0  0
  -24.8340  -15.9240   20.5230 H   0  0  0  0  0  0  0  0  0  0  0  0
  -26.4140  -15.7370   19.9540 H   0  0  0  0  0  0  0  0  0  0  0  0
  -30.9690  -22.6760   19.8720 N   0  0  0  0  0  4  0  0  0  0  0  0
  -30.9140  -22.3970   18.9100 H   0  0  0  0  0  0  0  0  0  0  0  0
  -31.6710  -22.1100   20.3130 H   0  0  0  0  0  0  0  0  0  0  0  0
  -31.2220  -23.6430   19.9440 H   0  0  0  0  0  0  0  0  0  0  0  0
  -28.5730  -23.5210   20.0110 C   0  0  0  0  0  2  0  0  0  0  0  0
  -28.3850  -24.9960   20.7520 C   0  0  0  0  0  2  0  0  0  0  0  0
  -28.4550  -26.3970   20.1550 O   0  0  0  0  0  0  0  0  0  0  0  0
  -24.6530  -31.8810   23.1930 C   0  0  0  0  0  0  0  0  0  0  0  0
  -27.3380  -27.2790   20.1770 C   0  0  0  0  0  0  0  0  0  0  0  0
  -23.4790  -30.4650   21.5470 C   0  0  0  0  0  3  0  0  0  0  0  0
  -24.9610  -28.9140   20.1370 C   0  0  0  0  0  0  0  0  0  0  0  0
  -26.0220  -30.7960   21.3840 C   0  0  0  0  0  2  0  0  0  0  0  0
  -26.1250  -29.4080   20.7400 C   0  0  0  0  0  0  0  0  0  0  0  0
  -27.3190  -28.6070   20.7390 C   0  0  0  0  0  3  0  0  0  0  0  0
  -26.1460  -26.8530   19.5540 C   0  0  0  0  0  3  0  0  0  0  0  0
  -24.9790  -27.6470   19.5310 C   0  0  0  0  0  3  0  0  0  0  0  0
  -23.7160  -29.7840   20.1720 C   0  0  0  0  0  2  0  0  0  0  0  0
  -24.7370  -31.0680   22.0970 N   0  0  0  0  0  0  0  0  0  0  0  0
  -23.5620  -32.1470   23.7190 O   0  0  0  0  0  0  0  0  0  0  0  0
  -22.8180  -29.4460   22.5070 C   0  0  0  0  0  0  0  0  0  0  0  0
  -21.4980  -29.2360   22.3560 N   0  0  0  0  0  0  0  0  0  0  0  0
  -23.4930  -28.8470   23.3470 O   0  0  0  0  0  0  0  0  0  0  0  0
  -21.0100  -29.7720   21.6540 H   0  0  0  0  0  0  0  0  0  0  0  0
  -18.1480  -27.9300   22.7830 C   0  0  0  0  0  0  0  0  0  0  0  0
  -20.6880  -28.2840   23.1200 C   0  0  0  0  0  3  0  0  0  0  0  0
  -20.8550  -26.8470   22.5740 C   0  0  0  0  0  2  0  0  0  0  0  0
  -19.7950  -26.4690   21.5340 C   0  0  0  0  0  2  0  0  0  0  0  0
  -18.3910  -26.5770   22.1360 C   0  0  0  0  0  2  0  0  0  0  0  0
  -19.2280  -28.7380   23.2310 C   0  0  0  0  0  0  0  0  0  0  0  0
  -18.9480  -30.0010   23.7950 C   0  0  0  0  0  3  0  0  0  0  0  0
  -17.6220  -30.4590   23.9170 C   0  0  0  0  0  3  0  0  0  0  0  0
  -16.5570  -29.6480   23.4850 C   0  0  0  0  0  3  0  0  0  0  0  0
  -16.8210  -28.3860   22.9250 C   0  0  0  0  0  3  0  0  0  0  0  0
  -25.9210  -32.5330   23.8250 C   0  0  0  0  0  3  0  0  0  0  0  0
  -25.5900  -33.9270   24.1550 N   0  0  0  0  0  0  0  0  0  0  0  0
  -25.9180  -34.9870   23.4070 C   0  0  0  0  0  0  0  0  0  0  0  0
  -26.6000  -34.8970   22.3830 O   0  0  0  0  0  0  0  0  0  0  0  0
  -24.9850  -34.0700   24.9510 H   0  0  0  0  0  0  0  0  0  0  0  0
  -24.1840  -36.7730   23.0320 C   0  0  0  0  0  1  0  0  0  0  0  0
  -25.4110  -36.3690   23.8660 C   0  0  0  0  0  3  0  0  0  0  0  0
  -27.5170  -37.2680   24.7550 C   0  0  0  0  0  1  0  0  0  0  0  0
  -26.4380  -37.4310   23.7850 N   0  0  0  0  0  0  0  0  0  0  0  0
  -26.0200  -38.3470   23.9270 H   0  0  0  0  0  0  0  0  0  0  0  0
  -26.4380  -31.7690   25.1060 C   0  0  1  0  0  0  0  0  0  0  0  0
  -25.3380  -31.5140   26.1650 C   0  0  0  0  0  1  0  0  0  0  0  0
  -27.0470  -30.4010   24.7230 C   0  0  0  0  0  1  0  0  0  0  0  0
  -27.5690  -32.5820   25.7800 C   0  0  0  0  0  1  0  0  0  0  0  0
  1 49  1  0
  2  3  1  0
  4  7  2  0
  4  5  1  0
  5  8  1  0
  5  2  2  0
  6  1  1  0
  6  3  2  0
  7  6  1  0
  9  8  1  0
 10 15  1  0
 11 12  1  0
 11 10  1  0
 13 12  1  0
 13 20  1  0
 13 14  1  0
 15  9  1  0
 15 14  1  0
 16  9  2  0
 17 18  2  0
 18 37  1  0
 19 18  1  0
 19 22  1  0
 20 21  1  0
 20 17  1  0
 21 19  2  0
 22 23  1  0
 23 24  2  0
 25 28  1  0
 25 24  1  0
 26 25  2  0
 27 26  1  0
 27 22  2  0
 28 29  1  0
 29 34  2  0
 29 30  1  0
 30 31  2  0
 31 32  1  0
 32 36  1  0
 33 32  2  0
 34 33  1  0
 35 34  1  0
 37 38  1  0
 38 41  1  0
 38 40  1  0
 39 37  2  0
 42 17  1  0
 42 43  1  0
 44 42  1  0
 45 48  1  0
 45 47  1  0
 45  1  1  0
 46 45  1  0
 49 50  1  0
 51 53  1  0
 51 50  1  0
 52 63  2  0
 53 58  1  0
 54 62  1  0
 54 64  1  0
 55 61  1  0
 55 57  1  0
 56 62  1  0
 57 56  1  0
 58 57  2  0
 59 53  2  0
 60 59  1  0
 60 55  2  0
 61 54  1  0
 62 52  1  0
 64 66  2  0
 65 64  1  0
 67 65  1  0
 68 77  2  0
 68 73  1  0
 69 65  1  0
 69 73  1  0
 70 69  1  0
 71 72  1  0
 71 70  1  0
 72 68  1  0
 73 74  2  0
 74 75  1  0
 76 75  2  0
 77 76  1  0
 78 52  1  0
 78 79  1  0
 78 88  1  0
 79 82  1  0
 80 84  1  0
 80 79  1  0
 81 80  2  0
 84 83  1  0
 86 84  1  0
 86 87  1  0
 86 85  1  0
 88 91  1  1
 88 89  1  0
 90 88  1  0
M  ISO  4   8 100   9 100  50 101  51 101
M  END
>  <TORSDO>  (59) 
F 21

>  <SCORE>  (59) 
-12.668

>  <name>  (59) 
58

>  <ligand_id>  (59) 
58

>  <original_smiles>  (59) 
[H]c1nc(C([H])(C([H])([H])C([H])([H])Oc2c([H])c([H])c3c(c2[H])C([H])([H])N(C(=O)C([H])(N([H])C(=O)C([H])(N([H])C([H])([H])[H])C([H])([H])[H])C(C([H])([H])[H])(C([H])([H])[H])C([H])([H])[H])C([H])(C(=O)N([H])C2([H])c4c([H])c([H])c([H])c([H])c4C([H])([H])C([H])([H])C2([H])[H])C3([H])[H])[N+]([H])([H])[H])c([H])c([H])c1C([H])([H])C(=O)N1C([H])([H])C([H])([H])C([H])([H])C([H])(n2nc(-c3c([H])c([H])c(Oc4c([H])c([H])c(F)c([H])c4F)c([H])c3[H])c(C(=O)N([H])[H])c2N([H])[H])C1([H])[H]

>  <smiles>  (59) 
[H]c1nc(C([H])(C([H])([H])C([H])([H])Oc2c([H])c([H])c3c(c2[H])C([H])([H])N(C(=O)C([H])(N([H])C(=O)C([H])(N([H])C([H])([H])[H])C([H])([H])[H])C(C([H])([H])[H])(C([H])([H])[H])C([H])([H])[H])C([H])(C(=O)N([H])C2([H])c4c([H])c([H])c([H])c([H])c4C([H])([H])C([H])([H])C2([H])[H])C3([H])[H])[N+]([H])([H])[H])c([H])c([H])c1C([H])([H])C(=O)N1C([H])([H])C([H])([H])C([H])([H])C([H])(n2nc(-c3c([H])c([H])c(Oc4c([H])c([H])c(F)c([H])c4F)c([H])c3[H])c(C(=O)N([H])[H])c2N([H])[H])C1([H])[H]

$$$$
59:0:0
     RDKit          3D

 92100  0  0  1  0  0  0  0  0999 V2000
  -31.6850  -23.1130   17.8680 C   0  0  0  0  0  2  0  0  0  0  0  0
  -30.6740  -22.1290   18.4550 C   0  0  0  0  0  2  0  0  0  0  0  0
  -31.0000  -24.4300   17.5260 C   0  0  0  0  0  2  0  0  0  0  0  0
  -29.9040  -22.6330   19.7210 C   0  0  0  0  0  3  0  0  0  0  0  0
  -30.3240  -25.0360   18.7610 C   0  0  0  0  0  3  0  0  0  0  0  0
  -29.2310  -24.0990   19.3750 C   0  0  0  0  0  3  0  0  0  0  0  0
  -31.3730  -25.5300   19.7860 C   0  0  0  0  0  1  0  0  0  0  0  0
  -29.1030  -21.3540   20.2430 C   0  0  0  0  0  0  0  0  0  0  0  0
  -29.7380  -20.1220   20.2680 N   0  0  0  0  0  0  0  0  0  0  0  0
  -27.9370  -21.4810   20.6180 O   0  0  0  0  0  0  0  0  0  0  0  0
  -30.6950  -20.1510   19.9450 H   0  0  0  0  0  0  0  0  0  0  0  0
  -29.2630  -18.7430   20.6820 C   0  0  0  0  0  3  0  0  0  0  0  0
  -30.2000  -17.4750   20.3330 C   0  0  0  0  0  3  0  0  0  0  0  0
  -29.7730  -16.0080   20.8470 C   0  0  0  0  0  2  0  0  0  0  0  0
  -30.5780  -14.7030   20.3880 C   0  0  0  0  0  0  0  0  0  0  0  0
  -30.3870  -12.4500   19.3210 C   0  0  0  0  0  2  0  0  0  0  0  0
  -29.4440  -12.5690   18.1010 C   0  0  0  0  0  2  0  0  0  0  0  0
  -27.9710  -12.4000   18.5270 C   0  0  0  0  0  2  0  0  0  0  0  0
  -27.6090  -13.2680   19.7600 C   0  0  0  0  0  3  0  0  0  0  0  0
  -28.6650  -13.1290   20.8790 C   0  0  0  0  0  2  0  0  0  0  0  0
  -29.9740  -13.4710   20.3070 N   0  0  0  0  0  0  0  0  0  0  0  0
  -31.7400  -14.8380   19.9900 O   0  0  0  0  0  0  0  0  0  0  0  0
  -25.2180  -13.8760   20.4740 C   0  0  0  0  0  0  0  0  0  0  0  0
  -24.1490  -13.1080   20.8470 C   0  0  0  0  0  0  0  0  0  0  0  0
  -24.6100  -11.7560   20.8290 C   0  0  0  0  0  0  0  0  0  0  0  0
  -26.2610  -12.9920   20.2470 N   0  0  0  0  0  0  0  0  0  0  0  0
  -25.9010  -11.7130   20.5230 N   0  0  0  0  0  0  0  0  0  0  0  0
  -23.8820  -10.4970   21.0270 C   0  0  0  0  0  0  0  0  0  0  0  0
  -24.3170   -9.5300   21.9600 C   0  0  0  0  0  3  0  0  0  0  0  0
  -23.5890   -8.3350   22.1460 C   0  0  0  0  0  3  0  0  0  0  0  0
  -22.4110   -8.0990   21.3970 C   0  0  0  0  0  0  0  0  0  0  0  0
  -21.9940   -9.0540   20.4540 C   0  0  0  0  0  3  0  0  0  0  0  0
  -22.7230  -10.2400   20.2670 C   0  0  0  0  0  3  0  0  0  0  0  0
  -21.6540   -6.9560   21.4920 O   0  0  0  0  0  0  0  0  0  0  0  0
  -21.6210   -6.2080   22.6420 C   0  0  0  0  0  0  0  0  0  0  0  0
  -21.2290   -6.7610   23.8810 C   0  0  0  0  0  3  0  0  0  0  0  0
  -21.1410   -5.9400   25.0230 C   0  0  0  0  0  3  0  0  0  0  0  0
  -21.4370   -4.5680   24.9270 C   0  0  0  0  0  0  0  0  0  0  0  0
  -21.8240   -4.0140   23.6940 C   0  0  0  0  0  3  0  0  0  0  0  0
  -21.9120   -4.8320   22.5540 C   0  0  0  0  0  0  0  0  0  0  0  0
  -22.2650   -4.2900   21.3640 F   0  0  0  0  0  0  0  0  0  0  0  0
  -21.3460   -3.7770   26.0220 F   0  0  0  0  0  0  0  0  0  0  0  0
  -22.7520  -13.5900   21.1090 C   0  0  0  0  0  0  0  0  0  0  0  0
  -22.0190  -12.9040   21.9790 N   0  0  0  0  0  0  0  0  0  0  0  0
  -22.3170  -14.6100   20.5770 O   0  0  0  0  0  0  0  0  0  0  0  0
  -22.3820  -12.0790   22.4320 H   0  0  0  0  0  0  0  0  0  0  0  0
  -21.0810  -13.2110   22.1960 H   0  0  0  0  0  0  0  0  0  0  0  0
  -25.3860  -15.2450   20.2850 N   0  0  0  0  0  0  0  0  0  0  0  0
  -24.6210  -15.9030   20.3930 H   0  0  0  0  0  0  0  0  0  0  0  0
  -26.2380  -15.6810   19.9590 H   0  0  0  0  0  0  0  0  0  0  0  0
  -28.3980  -25.0130   20.4060 C   0  0  0  0  0  2  0  0  0  0  0  0
  -28.4220  -26.4980   20.1930 O   0  0  0  0  0  0  0  0  0  0  0  0
  -24.6480  -31.8720   23.2250 C   0  0  0  0  0  0  0  0  0  0  0  0
  -27.2680  -27.2980   20.1900 C   0  0  0  0  0  0  0  0  0  0  0  0
  -23.4420  -30.4610   21.5950 C   0  0  0  0  0  3  0  0  0  0  0  0
  -24.8930  -28.8990   20.1750 C   0  0  0  0  0  0  0  0  0  0  0  0
  -25.9780  -30.7870   21.3990 C   0  0  0  0  0  2  0  0  0  0  0  0
  -26.0600  -29.4020   20.7620 C   0  0  0  0  0  0  0  0  0  0  0  0
  -27.2500  -28.6150   20.7520 C   0  0  0  0  0  3  0  0  0  0  0  0
  -26.0770  -26.8420   19.5850 C   0  0  0  0  0  3  0  0  0  0  0  0
  -24.9040  -27.6270   19.5770 C   0  0  0  0  0  3  0  0  0  0  0  0
  -23.6530  -29.7720   20.2190 C   0  0  0  0  0  2  0  0  0  0  0  0
  -24.7090  -31.0590   22.1290 N   0  0  0  0  0  0  0  0  0  0  0  0
  -23.5660  -32.1480   23.7640 O   0  0  0  0  0  0  0  0  0  0  0  0
  -22.7860  -29.4510   22.5650 C   0  0  0  0  0  0  0  0  0  0  0  0
  -21.4590  -29.2700   22.4450 N   0  0  0  0  0  0  0  0  0  0  0  0
  -23.4690  -28.8290   23.3830 O   0  0  0  0  0  0  0  0  0  0  0  0
  -20.9670  -29.8220   21.7560 H   0  0  0  0  0  0  0  0  0  0  0  0
  -18.0890  -28.0610   22.9560 C   0  0  0  0  0  0  0  0  0  0  0  0
  -20.6460  -28.3340   23.2230 C   0  0  0  0  0  3  0  0  0  0  0  0
  -20.7550  -26.8990   22.6570 C   0  0  0  0  0  2  0  0  0  0  0  0
  -19.6550  -26.5650   21.6460 C   0  0  0  0  0  2  0  0  0  0  0  0
  -18.2720  -26.7070   22.2890 C   0  0  0  0  0  2  0  0  0  0  0  0
  -19.2030  -28.8310   23.3790 C   0  0  0  0  0  0  0  0  0  0  0  0
  -18.9780  -30.0970   23.9630 C   0  0  0  0  0  3  0  0  0  0  0  0
  -17.6710  -30.5930   24.1250 C   0  0  0  0  0  3  0  0  0  0  0  0
  -16.5700  -29.8190   23.7170 C   0  0  0  0  0  3  0  0  0  0  0  0
  -16.7800  -28.5540   23.1380 C   0  0  0  0  0  3  0  0  0  0  0  0
  -25.9300  -32.5120   23.8410 C   0  0  0  0  0  3  0  0  0  0  0  0
  -25.6140  -33.9070   24.1790 N   0  0  0  0  0  0  0  0  0  0  0  0
  -25.9330  -34.9660   23.4230 C   0  0  0  0  0  0  0  0  0  0  0  0
  -26.5940  -34.8720   22.3860 O   0  0  0  0  0  0  0  0  0  0  0  0
  -25.0270  -34.0540   24.9870 H   0  0  0  0  0  0  0  0  0  0  0  0
  -24.1890  -36.7490   23.0970 C   0  0  0  0  0  1  0  0  0  0  0  0
  -25.4420  -36.3490   23.8930 C   0  0  0  0  0  3  0  0  0  0  0  0
  -27.5820  -37.2440   24.7000 C   0  0  0  0  0  1  0  0  0  0  0  0
  -26.4660  -37.4100   23.7720 N   0  0  0  0  0  0  0  0  0  0  0  0
  -26.0560  -38.3270   23.9290 H   0  0  0  0  0  0  0  0  0  0  0  0
  -26.4620  -31.7400   25.1110 C   0  0  1  0  0  0  0  0  0  0  0  0
  -25.3780  -31.4950   26.1880 C   0  0  0  0  0  1  0  0  0  0  0  0
  -27.0480  -30.3660   24.7120 C   0  0  0  0  0  1  0  0  0  0  0  0
  -27.6150  -32.5380   25.7660 C   0  0  0  0  0  1  0  0  0  0  0  0
  1  2  1  0
  2  4  1  0
  3  1  1  0
  3  5  1  0
  4  8  1  0
  5  6  1  0
  5  7  1  0
  6  4  1  0
  6 51  1  0
  8  9  1  0
  8 10  2  0
  9 12  1  0
 11  9  1  0
 13 12  2  0
 13 14  1  0
 15 14  1  0
 16 21  1  0
 17 18  1  0
 17 16  1  0
 19 18  1  0
 19 26  1  0
 19 20  1  0
 21 15  1  0
 21 20  1  0
 22 15  2  0
 23 24  2  0
 24 43  1  0
 25 24  1  0
 25 28  1  0
 26 23  1  0
 26 27  1  0
 27 25  2  0
 28 29  1  0
 29 30  2  0
 31 34  1  0
 31 30  1  0
 32 31  2  0
 33 32  1  0
 33 28  2  0
 34 35  1  0
 35 36  1  0
 36 37  2  0
 38 37  1  0
 38 42  1  0
 39 38  2  0
 40 35  2  0
 40 39  1  0
 41 40  1  0
 43 44  1  0
 44 47  1  0
 44 46  1  0
 45 43  2  0
 48 49  1  0
 48 23  1  0
 50 48  1  0
 52 51  1  0
 53 64  2  0
 54 52  1  0
 54 59  1  0
 55 63  1  0
 55 65  1  0
 56 62  1  0
 56 58  1  0
 57 63  1  0
 58 57  1  0
 59 58  2  0
 60 54  2  0
 61 60  1  0
 61 56  2  0
 62 55  1  0
 63 53  1  0
 65 67  2  0
 66 65  1  0
 68 66  1  0
 69 78  2  0
 69 74  1  0
 70 66  1  0
 70 74  1  0
 71 70  1  0
 72 73  1  0
 72 71  1  0
 73 69  1  0
 74 75  2  0
 75 76  1  0
 77 76  2  0
 78 77  1  0
 79 53  1  0
 79 80  1  0
 79 89  1  0
 80 83  1  0
 81 85  1  0
 81 80  1  0
 82 81  2  0
 85 84  1  0
 87 85  1  0
 87 88  1  0
 87 86  1  0
 89 92  1  1
 89 90  1  0
 91 89  1  0
M  ISO  4  14 100  15 100  51 101  52 101
M  END
>  <TORSDO>  (60) 
F 21

>  <SCORE>  (60) 
-13.352

>  <name>  (60) 
59

>  <ligand_id>  (60) 
59

>  <original_smiles>  (60) 
[H]c1c([H])c([H])c2c(c1[H])C([H])([H])C([H])([H])C([H])([H])C2([H])N([H])C(=O)C1([H])N(C(=O)C([H])(N([H])C(=O)C([H])(N([H])C([H])([H])[H])C([H])([H])[H])C(C([H])([H])[H])(C([H])([H])[H])C([H])([H])[H])C([H])([H])c2c([H])c(OC([H])([H])C3([H])C([H])(C(=O)N([H])C([H])([H])C([H])([H])C([H])([H])C(=O)N4C([H])([H])C([H])([H])C([H])([H])C([H])(n5nc(-c6c([H])c([H])c(Oc7c([H])c([H])c(F)c([H])c7F)c([H])c6[H])c(C(=O)N([H])[H])c5N([H])[H])C4([H])[H])C([H])([H])C([H])([H])C([H])([H])C3([H])C([H])([H])[H])c([H])c([H])c2C1([H])[H]

>  <smiles>  (60) 
[H]c1c([H])c([H])c2c(c1[H])C([H])([H])C([H])([H])C([H])([H])C2([H])N([H])C(=O)C1([H])N(C(=O)C([H])(N([H])C(=O)C([H])(N([H])C([H])([H])[H])C([H])([H])[H])C(C([H])([H])[H])(C([H])([H])[H])C([H])([H])[H])C([H])([H])c2c([H])c(OC([H])([H])C3([H])C([H])(C(=O)N([H])C([H])([H])C([H])([H])C([H])([H])C(=O)N4C([H])([H])C([H])([H])C([H])([H])C([H])(n5nc(-c6c([H])c([H])c(Oc7c([H])c([H])c(F)c([H])c7F)c([H])c6[H])c(C(=O)N([H])[H])c5N([H])[H])C4([H])[H])C([H])([H])C([H])([H])C([H])([H])C3([H])C([H])([H])[H])c([H])c([H])c2C1([H])[H]

$$$$
60:0:0
     RDKit          3D

 88 95  0  0  1  0  0  0  0  0999 V2000
  -27.2080  -22.0880   20.5520 C   0  0  0  0  0  1  0  0  0  0  0  0
  -28.6810  -22.3760   20.1990 C   0  0  0  0  0  3  0  0  0  0  0  0
  -29.5590  -21.2190   20.8270 C   0  0  0  0  0  0  0  0  0  0  0  0
  -29.4210  -19.9260   20.3860 N   0  0  0  0  0  0  0  0  0  0  0  0
  -30.3300  -21.4900   21.7490 O   0  0  0  0  0  0  0  0  0  0  0  0
  -28.7850  -19.7920   19.6110 H   0  0  0  0  0  0  0  0  0  0  0  0
  -29.9190  -18.6790   21.0630 C   0  0  0  0  0  3  0  0  0  0  0  0
  -29.8930  -17.3050   20.2540 C   0  0  0  0  0  3  0  0  0  0  0  0
  -30.0040  -15.9570   21.1070 C   0  0  0  0  0  2  0  0  0  0  0  0
  -30.6490  -14.6650   20.4560 C   0  0  0  0  0  0  0  0  0  0  0  0
  -30.3960  -12.4350   19.3680 C   0  0  0  0  0  2  0  0  0  0  0  0
  -29.4580  -12.5720   18.1500 C   0  0  0  0  0  2  0  0  0  0  0  0
  -27.9810  -12.4400   18.5730 C   0  0  0  0  0  2  0  0  0  0  0  0
  -27.6330  -13.3040   19.8170 C   0  0  0  0  0  3  0  0  0  0  0  0
  -28.6880  -13.1250   20.9320 C   0  0  0  0  0  2  0  0  0  0  0  0
  -30.0000  -13.4570   20.3610 N   0  0  0  0  0  0  0  0  0  0  0  0
  -31.7790  -14.7930   19.9720 O   0  0  0  0  0  0  0  0  0  0  0  0
  -25.2370  -13.9260   20.5100 C   0  0  0  0  0  0  0  0  0  0  0  0
  -24.1610  -13.1650   20.8760 C   0  0  0  0  0  0  0  0  0  0  0  0
  -24.6110  -11.8090   20.8590 C   0  0  0  0  0  0  0  0  0  0  0  0
  -26.2780  -13.0360   20.2930 N   0  0  0  0  0  0  0  0  0  0  0  0
  -25.9040  -11.7580   20.5610 N   0  0  0  0  0  0  0  0  0  0  0  0
  -23.8690  -10.5550   21.0510 C   0  0  0  0  0  0  0  0  0  0  0  0
  -24.2990   -9.5760   21.9740 C   0  0  0  0  0  3  0  0  0  0  0  0
  -23.5570   -8.3890   22.1570 C   0  0  0  0  0  3  0  0  0  0  0  0
  -22.3710   -8.1720   21.4160 C   0  0  0  0  0  0  0  0  0  0  0  0
  -21.9600   -9.1390   20.4820 C   0  0  0  0  0  3  0  0  0  0  0  0
  -22.7020  -10.3180   20.2980 C   0  0  0  0  0  3  0  0  0  0  0  0
  -21.6030   -7.0350   21.5070 O   0  0  0  0  0  0  0  0  0  0  0  0
  -21.5750   -6.2760   22.6490 C   0  0  0  0  0  0  0  0  0  0  0  0
  -21.2140   -6.8240   23.8990 C   0  0  0  0  0  3  0  0  0  0  0  0
  -21.1280   -5.9930   25.0340 C   0  0  0  0  0  3  0  0  0  0  0  0
  -21.3940   -4.6160   24.9210 C   0  0  0  0  0  0  0  0  0  0  0  0
  -21.7500   -4.0670   23.6760 C   0  0  0  0  0  3  0  0  0  0  0  0
  -21.8360   -4.8950   22.5430 C   0  0  0  0  0  0  0  0  0  0  0  0
  -22.1560   -4.3580   21.3410 F   0  0  0  0  0  0  0  0  0  0  0  0
  -21.3050   -3.8150   26.0090 F   0  0  0  0  0  0  0  0  0  0  0  0
  -22.7660  -13.6580   21.1320 C   0  0  0  0  0  0  0  0  0  0  0  0
  -22.0250  -12.9820   22.0020 N   0  0  0  0  0  0  0  0  0  0  0  0
  -22.3410  -14.6820   20.5970 O   0  0  0  0  0  0  0  0  0  0  0  0
  -22.3770  -12.1550   22.4610 H   0  0  0  0  0  0  0  0  0  0  0  0
  -21.0900  -13.3010   22.2130 H   0  0  0  0  0  0  0  0  0  0  0  0
  -25.4100  -15.2950   20.3240 N   0  0  0  0  0  0  0  0  0  0  0  0
  -24.6430  -15.9490   20.4280 H   0  0  0  0  0  0  0  0  0  0  0  0
  -26.2700  -15.7370   20.0210 H   0  0  0  0  0  0  0  0  0  0  0  0
  -29.0550  -23.9000   20.5470 C   0  0  0  0  0  3  0  0  0  0  0  0
  -28.0490  -25.0270   20.0360 C   0  0  0  0  0  3  0  0  0  0  0  0
  -28.3050  -26.4760   20.2160 O   0  0  0  0  0  0  0  0  0  0  0  0
  -24.6150  -31.8960   23.2270 C   0  0  0  0  0  0  0  0  0  0  0  0
  -27.1950  -27.3380   20.1480 C   0  0  0  0  0  0  0  0  0  0  0  0
  -23.3970  -30.5000   21.5990 C   0  0  0  0  0  3  0  0  0  0  0  0
  -24.8320  -28.9520   20.1590 C   0  0  0  0  0  0  0  0  0  0  0  0
  -25.9350  -30.8160   21.3930 C   0  0  0  0  0  2  0  0  0  0  0  0
  -26.0070  -29.4390   20.7440 C   0  0  0  0  0  0  0  0  0  0  0  0
  -27.1920  -28.6420   20.7300 C   0  0  0  0  0  3  0  0  0  0  0  0
  -25.9970  -26.9160   19.5200 C   0  0  0  0  0  3  0  0  0  0  0  0
  -24.8280  -27.6950   19.5400 C   0  0  0  0  0  3  0  0  0  0  0  0
  -23.5990  -29.8290   20.2150 C   0  0  0  0  0  2  0  0  0  0  0  0
  -24.6690  -31.0860   22.1300 N   0  0  0  0  0  0  0  0  0  0  0  0
  -23.5360  -32.1770   23.7700 O   0  0  0  0  0  0  0  0  0  0  0  0
  -22.7410  -29.4810   22.5620 C   0  0  0  0  0  0  0  0  0  0  0  0
  -21.4130  -29.3070   22.4440 N   0  0  0  0  0  0  0  0  0  0  0  0
  -23.4260  -28.8530   23.3740 O   0  0  0  0  0  0  0  0  0  0  0  0
  -20.9210  -29.8660   21.7620 H   0  0  0  0  0  0  0  0  0  0  0  0
  -18.0390  -28.1090   22.9570 C   0  0  0  0  0  0  0  0  0  0  0  0
  -20.5990  -28.3710   23.2210 C   0  0  0  0  0  3  0  0  0  0  0  0
  -20.7020  -26.9370   22.6520 C   0  0  0  0  0  2  0  0  0  0  0  0
  -19.5980  -26.6070   21.6420 C   0  0  0  0  0  2  0  0  0  0  0  0
  -18.2170  -26.7560   22.2880 C   0  0  0  0  0  2  0  0  0  0  0  0
  -19.1590  -28.8730   23.3820 C   0  0  0  0  0  0  0  0  0  0  0  0
  -18.9400  -30.1380   23.9680 C   0  0  0  0  0  3  0  0  0  0  0  0
  -17.6360  -30.6390   24.1350 C   0  0  0  0  0  3  0  0  0  0  0  0
  -16.5310  -29.8700   23.7280 C   0  0  0  0  0  3  0  0  0  0  0  0
  -16.7340  -28.6070   23.1450 C   0  0  0  0  0  3  0  0  0  0  0  0
  -25.9050  -32.5280   23.8380 C   0  0  0  0  0  3  0  0  0  0  0  0
  -25.5970  -33.9230   24.1820 N   0  0  0  0  0  0  0  0  0  0  0  0
  -25.9160  -34.9820   23.4270 C   0  0  0  0  0  0  0  0  0  0  0  0
  -26.5710  -34.8860   22.3840 O   0  0  0  0  0  0  0  0  0  0  0  0
  -25.0140  -34.0740   24.9930 H   0  0  0  0  0  0  0  0  0  0  0  0
  -24.1750  -36.7710   23.1150 C   0  0  0  0  0  1  0  0  0  0  0  0
  -25.4330  -36.3660   23.9010 C   0  0  0  0  0  3  0  0  0  0  0  0
  -27.5820  -37.2490   24.6930 C   0  0  0  0  0  1  0  0  0  0  0  0
  -26.4600  -37.4230   23.7750 N   0  0  0  0  0  0  0  0  0  0  0  0
  -26.0560  -38.3410   23.9400 H   0  0  0  0  0  0  0  0  0  0  0  0
  -26.4380  -31.7480   25.1020 C   0  0  1  0  0  0  0  0  0  0  0  0
  -25.3580  -31.5000   26.1810 C   0  0  0  0  0  1  0  0  0  0  0  0
  -27.0150  -30.3730   24.6910 C   0  0  0  0  0  1  0  0  0  0  0  0
  -27.5980  -32.5370   25.7520 C   0  0  0  0  0  1  0  0  0  0  0  0
  2 46  1  0
  2  1  1  0
  2  3  1  0
  3  5  2  0
  4  3  1  0
  4  7  1  0
  6  4  1  0
  8  7  2  0
  8  9  1  0
 10  9  1  0
 11 16  1  0
 12 13  1  0
 12 11  1  0
 14 13  1  0
 14 21  1  0
 14 15  1  0
 16 10  1  0
 16 15  1  0
 17 10  2  0
 18 19  2  0
 19 38  1  0
 20 19  1  0
 20 23  1  0
 21 18  1  0
 21 22  1  0
 22 20  2  0
 23 24  1  0
 24 25  2  0
 26 29  1  0
 26 25  1  0
 27 26  2  0
 28 27  1  0
 28 23  2  0
 29 30  1  0
 30 31  1  0
 31 32  2  0
 33 32  1  0
 33 37  1  0
 34 33  2  0
 35 30  2  0
 35 34  1  0
 36 35  1  0
 38 39  1  0
 39 42  1  0
 39 41  1  0
 40 38  2  0
 43 44  1  0
 43 18  1  0
 45 43  1  0
 47 48  1  0
 47 46  2  0
 49 60  2  0
 50 48  1  0
 50 55  1  0
 51 59  1  0
 51 61  1  0
 52 58  1  0
 52 54  1  0
 53 59  1  0
 54 53  1  0
 55 54  2  0
 56 57  1  0
 56 50  2  0
 57 52  2  0
 58 51  1  0
 59 49  1  0
 61 63  2  0
 62 61  1  0
 64 62  1  0
 65 74  2  0
 65 70  1  0
 66 62  1  0
 66 70  1  0
 67 66  1  0
 68 69  1  0
 68 67  1  0
 69 65  1  0
 70 71  2  0
 71 72  1  0
 73 72  2  0
 74 73  1  0
 75 49  1  0
 75 76  1  0
 75 85  1  0
 76 79  1  0
 77 81  1  0
 77 76  1  0
 78 77  2  0
 81 80  1  0
 83 81  1  0
 83 84  1  0
 83 82  1  0
 85 88  1  1
 85 86  1  0
 87 85  1  0
M  ISO  4   9 100  10 100  47 101  48 101
M  END
>  <TORSDO>  (61) 
F 22

>  <SCORE>  (61) 
-12.866

>  <name>  (61) 
60

>  <ligand_id>  (61) 
60

>  <original_smiles>  (61) 
[H]c1c([H])c([H])c2c(c1[H])C([H])([H])C([H])([H])C([H])([H])C2([H])N([H])C(=O)C1([H])N(C(=O)C([H])(N([H])C(=O)C([H])(N([H])C([H])([H])[H])C([H])([H])[H])C(C([H])([H])[H])(C([H])([H])[H])C([H])([H])[H])C([H])([H])c2c([H])c(OC([H])([H])C([H])([H])C([H])(C(=O)N([H])C([H])([H])C([H])([H])C([H])([H])C(=O)N3C([H])([H])C([H])([H])C([H])([H])C([H])(n4nc(-c5c([H])c([H])c(Oc6c([H])c([H])c(F)c([H])c6F)c([H])c5[H])c(C(=O)N([H])[H])c4N([H])[H])C3([H])[H])C([H])([H])[H])c([H])c([H])c2C1([H])[H]

>  <smiles>  (61) 
[H]c1c([H])c([H])c2c(c1[H])C([H])([H])C([H])([H])C([H])([H])C2([H])N([H])C(=O)C1([H])N(C(=O)C([H])(N([H])C(=O)C([H])(N([H])C([H])([H])[H])C([H])([H])[H])C(C([H])([H])[H])(C([H])([H])[H])C([H])([H])[H])C([H])([H])c2c([H])c(OC([H])([H])C([H])([H])C([H])(C(=O)N([H])C([H])([H])C([H])([H])C([H])([H])C(=O)N3C([H])([H])C([H])([H])C([H])([H])C([H])(n4nc(-c5c([H])c([H])c(Oc6c([H])c([H])c(F)c([H])c6F)c([H])c5[H])c(C(=O)N([H])[H])c4N([H])[H])C3([H])[H])C([H])([H])[H])c([H])c([H])c2C1([H])[H]

$$$$
61:0:0
     RDKit          3D

 96104  0  0  1  0  0  0  0  0999 V2000
  -30.0670  -19.4210   20.5580 C   0  0  0  0  0  3  0  0  0  0  0  0
  -31.8020  -15.9250   21.3830 C   0  0  0  0  0  2  0  0  0  0  0  0
  -33.2040  -16.2670   20.7920 C   0  0  0  0  0  2  0  0  0  0  0  0
  -32.0930  -18.1060   19.2680 C   0  0  0  0  0  2  0  0  0  0  0  0
  -30.6470  -16.2210   20.3540 C   0  0  0  0  0  3  0  0  0  0  0  0
  -30.7180  -17.8970   19.9920 C   0  0  0  0  0  3  0  0  0  0  0  0
  -33.3240  -17.6800   20.1490 C   0  0  0  0  0  3  0  0  0  0  0  0
  -30.9580  -14.9810   19.3100 C   0  0  0  0  0  0  0  0  0  0  0  0
  -30.4130  -12.8010   18.1440 C   0  0  0  0  0  2  0  0  0  0  0  0
  -29.2440  -13.0060   17.1520 C   0  0  0  0  0  2  0  0  0  0  0  0
  -27.9010  -12.8250   17.8810 C   0  0  0  0  0  2  0  0  0  0  0  0
  -27.8430  -13.6130   19.2130 C   0  0  0  0  0  3  0  0  0  0  0  0
  -29.1030  -13.3880   20.0750 C   0  0  0  0  0  2  0  0  0  0  0  0
  -30.2600  -13.7810   19.2570 N   0  0  0  0  0  0  0  0  0  0  0  0
  -31.9360  -15.0840   18.5630 O   0  0  0  0  0  0  0  0  0  0  0  0
  -25.7270  -14.2240   20.5190 C   0  0  0  0  0  0  0  0  0  0  0  0
  -24.6970  -13.4640   21.0060 C   0  0  0  0  0  0  0  0  0  0  0  0
  -25.0240  -12.1070   20.6970 C   0  0  0  0  0  0  0  0  0  0  0  0
  -26.6160  -13.3290   19.9480 N   0  0  0  0  0  0  0  0  0  0  0  0
  -26.2150  -12.0410   20.1120 N   0  0  0  0  0  0  0  0  0  0  0  0
  -24.2450  -10.8760   20.8680 C   0  0  0  0  0  0  0  0  0  0  0  0
  -24.6890   -9.8340   21.7100 C   0  0  0  0  0  3  0  0  0  0  0  0
  -23.9110   -8.6680   21.8750 C   0  0  0  0  0  3  0  0  0  0  0  0
  -22.6740   -8.5370   21.1970 C   0  0  0  0  0  0  0  0  0  0  0  0
  -22.2510   -9.5690   20.3410 C   0  0  0  0  0  3  0  0  0  0  0  0
  -23.0300  -10.7250   20.1740 C   0  0  0  0  0  3  0  0  0  0  0  0
  -21.8650   -7.4290   21.2790 O   0  0  0  0  0  0  0  0  0  0  0  0
  -21.7280   -6.7240   22.4490 C   0  0  0  0  0  0  0  0  0  0  0  0
  -21.2750   -7.3330   23.6390 C   0  0  0  0  0  3  0  0  0  0  0  0
  -21.0820   -6.5550   24.7980 C   0  0  0  0  0  3  0  0  0  0  0  0
  -21.3320   -5.1700   24.7680 C   0  0  0  0  0  0  0  0  0  0  0  0
  -21.7810   -4.5620   23.5810 C   0  0  0  0  0  3  0  0  0  0  0  0
  -21.9760   -5.3370   22.4260 C   0  0  0  0  0  0  0  0  0  0  0  0
  -22.3860   -4.7410   21.2810 F   0  0  0  0  0  0  0  0  0  0  0  0
  -21.1410   -4.4230   25.8790 F   0  0  0  0  0  0  0  0  0  0  0  0
  -23.4370  -13.9790   21.6320 C   0  0  0  0  0  0  0  0  0  0  0  0
  -22.8850  -13.2340   22.5850 N   0  0  0  0  0  0  0  0  0  0  0  0
  -22.9640  -15.0710   21.3200 O   0  0  0  0  0  0  0  0  0  0  0  0
  -23.2860  -12.3490   22.8540 H   0  0  0  0  0  0  0  0  0  0  0  0
  -22.0500  -13.5550   23.0490 H   0  0  0  0  0  0  0  0  0  0  0  0
  -25.9700  -15.5930   20.4830 N   0  0  0  0  0  0  0  0  0  0  0  0
  -25.2920  -16.2630   20.8320 H   0  0  0  0  0  0  0  0  0  0  0  0
  -26.7300  -16.0280   19.9800 H   0  0  0  0  0  0  0  0  0  0  0  0
  -34.6140  -17.8300   19.4410 N   0  0  0  0  0  4  0  0  0  0  0  0
  -34.7260  -17.1760   18.6820 H   0  0  0  0  0  0  0  0  0  0  0  0
  -35.3770  -17.6930   20.0810 H   0  0  0  0  0  0  0  0  0  0  0  0
  -34.7120  -18.7590   19.0710 H   0  0  0  0  0  0  0  0  0  0  0  0
  -28.7140  -20.1910   20.2620 N   0  0  0  0  0  4  0  0  0  0  0  0
  -28.4700  -20.0150   19.2980 H   0  0  0  0  0  0  0  0  0  0  0  0
  -27.9870  -19.7500   20.8100 H   0  0  0  0  0  0  0  0  0  0  0  0
  -28.6310  -21.7660   20.5230 C   0  0  0  0  0  3  0  0  0  0  0  0
  -27.8250  -22.9540   19.6480 C   0  0  0  0  0  3  0  0  0  0  0  0
  -27.6170  -24.5120   20.2570 C   0  0  0  0  0  2  0  0  0  0  0  0
  -27.6640  -25.8980   19.5630 O   0  0  0  0  0  0  0  0  0  0  0  0
  -24.2800  -31.5530   22.9150 C   0  0  0  0  0  0  0  0  0  0  0  0
  -26.5990  -26.8550   19.6690 C   0  0  0  0  0  0  0  0  0  0  0  0
  -22.9550  -30.1620   21.3690 C   0  0  0  0  0  3  0  0  0  0  0  0
  -24.2820  -28.5920   19.8290 C   0  0  0  0  0  0  0  0  0  0  0  0
  -25.4840  -30.4320   20.9990 C   0  0  0  0  0  2  0  0  0  0  0  0
  -25.5050  -29.0400   20.3400 C   0  0  0  0  0  0  0  0  0  0  0  0
  -26.6700  -28.1900   20.2350 C   0  0  0  0  0  3  0  0  0  0  0  0
  -25.3420  -26.4910   19.1440 C   0  0  0  0  0  3  0  0  0  0  0  0
  -24.2060  -27.3290   19.2180 C   0  0  0  0  0  3  0  0  0  0  0  0
  -23.0630  -29.4940   19.9720 C   0  0  0  0  0  2  0  0  0  0  0  0
  -24.2640  -30.7340   21.8160 N   0  0  0  0  0  0  0  0  0  0  0  0
  -23.2390  -31.8430   23.5250 O   0  0  0  0  0  0  0  0  0  0  0  0
  -22.3450  -29.1580   22.3770 C   0  0  0  0  0  0  0  0  0  0  0  0
  -21.0250  -28.9260   22.2930 N   0  0  0  0  0  0  0  0  0  0  0  0
  -23.0600  -28.5850   23.2030 O   0  0  0  0  0  0  0  0  0  0  0  0
  -20.4950  -29.4510   21.6120 H   0  0  0  0  0  0  0  0  0  0  0  0
  -17.7320  -27.5240   22.8430 C   0  0  0  0  0  0  0  0  0  0  0  0
  -20.2640  -27.9780   23.1090 C   0  0  0  0  0  3  0  0  0  0  0  0
  -20.4680  -26.5250   22.6160 C   0  0  0  0  0  2  0  0  0  0  0  0
  -19.4010  -26.0740   21.6130 C   0  0  0  0  0  2  0  0  0  0  0  0
  -18.0070  -26.1560   22.2410 C   0  0  0  0  0  2  0  0  0  0  0  0
  -18.7920  -28.3850   23.2330 C   0  0  0  0  0  0  0  0  0  0  0  0
  -18.4810  -29.6580   23.7540 C   0  0  0  0  0  3  0  0  0  0  0  0
  -17.1430  -30.0750   23.8900 C   0  0  0  0  0  3  0  0  0  0  0  0
  -16.0960  -29.2110   23.5180 C   0  0  0  0  0  3  0  0  0  0  0  0
  -16.3930  -27.9390   22.9980 C   0  0  0  0  0  3  0  0  0  0  0  0
  -25.6040  -32.1830   23.4420 C   0  0  0  0  0  3  0  0  0  0  0  0
  -25.3030  -33.5500   23.8990 N   0  0  0  0  0  0  0  0  0  0  0  0
  -25.5470  -34.6620   23.1930 C   0  0  0  0  0  0  0  0  0  0  0  0
  -26.1130  -34.6430   22.0960 O   0  0  0  0  0  0  0  0  0  0  0  0
  -24.7910  -33.6320   24.7650 H   0  0  0  0  0  0  0  0  0  0  0  0
  -23.7600  -36.4380   23.1510 C   0  0  0  0  0  1  0  0  0  0  0  0
  -25.0870  -36.0050   23.7930 C   0  0  0  0  0  3  0  0  0  0  0  0
  -27.2830  -36.8810   24.4590 C   0  0  0  0  0  1  0  0  0  0  0  0
  -26.0880  -37.0850   23.6480 N   0  0  0  0  0  0  0  0  0  0  0  0
  -25.6850  -37.9830   23.9070 H   0  0  0  0  0  0  0  0  0  0  0  0
  -26.2660  -31.3470   24.6050 C   0  0  1  0  0  0  0  0  0  0  0  0
  -25.2820  -30.9650   25.7350 C   0  0  0  0  0  1  0  0  0  0  0  0
  -26.8830  -30.0390   24.0600 C   0  0  0  0  0  1  0  0  0  0  0  0
  -27.4290  -32.1500   25.2340 C   0  0  0  0  0  1  0  0  0  0  0  0
  -30.3320  -19.3820   23.2000 C   0  0  0  0  0  1  0  0  0  0  0  0
  -30.7710  -19.9760   21.8580 C   0  0  0  0  0  2  0  0  0  0  0  0
  1 96  1  0
  3  2  1  0
  4  6  1  0
  4  7  1  0
  5  8  1  0
  5  2  1  0
  6  5  1  0
  6  1  1  0
  7 44  1  0
  7  3  1  0
  9 14  1  0
 10 11  1  0
 10  9  1  0
 12 11  1  0
 12 19  1  0
 12 13  1  0
 14  8  1  0
 14 13  1  0
 15  8  2  0
 16 17  2  0
 17 36  1  0
 18 21  1  0
 18 17  1  0
 19 20  1  0
 19 16  1  0
 20 18  2  0
 21 22  1  0
 22 23  2  0
 24 27  1  0
 24 23  1  0
 25 24  2  0
 26 25  1  0
 26 21  2  0
 27 28  1  0
 28 29  1  0
 29 30  2  0
 31 30  1  0
 31 35  1  0
 32 31  2  0
 33 28  2  0
 33 32  1  0
 34 33  1  0
 36 37  1  0
 37 39  1  0
 37 40  1  0
 38 36  2  0
 41 16  1  0
 41 42  1  0
 43 41  1  0
 44 46  1  0
 45 44  1  0
 47 44  1  0
 48 51  1  0
 48  1  1  0
 48 50  1  0
 49 48  1  0
 52 53  1  0
 52 51  2  0
 54 56  1  0
 54 53  1  0
 55 66  2  0
 56 61  1  0
 57 65  1  0
 57 67  1  0
 58 64  1  0
 58 60  1  0
 59 65  1  0
 60 59  1  0
 61 60  2  0
 62 63  1  0
 62 56  2  0
 63 58  2  0
 64 57  1  0
 65 55  1  0
 67 69  2  0
 68 67  1  0
 70 68  1  0
 71 80  2  0
 71 76  1  0
 72 68  1  0
 72 76  1  0
 73 72  1  0
 74 75  1  0
 74 73  1  0
 75 71  1  0
 76 77  2  0
 77 78  1  0
 79 78  2  0
 80 79  1  0
 81 55  1  0
 81 82  1  0
 81 91  1  0
 82 85  1  0
 83 87  1  0
 83 82  1  0
 84 83  2  0
 87 86  1  0
 89 87  1  0
 89 90  1  0
 89 88  1  0
 91 94  1  1
 91 92  1  0
 93 91  1  0
 96 95  1  0
M  ISO  4   5 100   8 100  53 101  54 101
M  END
>  <TORSDO>  (62) 
F 23

>  <SCORE>  (62) 
-7.527

>  <name>  (62) 
61

>  <ligand_id>  (62) 
61

>  <original_smiles>  (62) 
[H]c1c([H])c([H])c2c(c1[H])C([H])([H])C([H])([H])C([H])([H])C2([H])N([H])C(=O)C1([H])N(C(=O)C([H])(N([H])C(=O)C([H])(N([H])C([H])([H])[H])C([H])([H])[H])C(C([H])([H])[H])(C([H])([H])[H])C([H])([H])[H])C([H])([H])c2c([H])c(OC([H])([H])C([H])([H])C([H])([H])[N+]([H])([H])C([H])(C([H])([H])C([H])([H])[H])C3([H])C([H])([H])C([H])([N+]([H])([H])[H])C([H])([H])C([H])([H])C3([H])C(=O)N3C([H])([H])C([H])([H])C([H])([H])C([H])(n4nc(-c5c([H])c([H])c(Oc6c([H])c([H])c(F)c([H])c6F)c([H])c5[H])c(C(=O)N([H])[H])c4N([H])[H])C3([H])[H])c([H])c([H])c2C1([H])[H]

>  <smiles>  (62) 
[H]c1c([H])c([H])c2c(c1[H])C([H])([H])C([H])([H])C([H])([H])C2([H])N([H])C(=O)C1([H])N(C(=O)C([H])(N([H])C(=O)C([H])(N([H])C([H])([H])[H])C([H])([H])[H])C(C([H])([H])[H])(C([H])([H])[H])C([H])([H])[H])C([H])([H])c2c([H])c(OC([H])([H])C([H])([H])C([H])([H])[N+]([H])([H])C([H])(C([H])([H])C([H])([H])[H])C3([H])C([H])([H])C([H])([N+]([H])([H])[H])C([H])([H])C([H])([H])C3([H])C(=O)N3C([H])([H])C([H])([H])C([H])([H])C([H])(n4nc(-c5c([H])c([H])c(Oc6c([H])c([H])c(F)c([H])c6F)c([H])c5[H])c(C(=O)N([H])[H])c4N([H])[H])C3([H])[H])c([H])c([H])c2C1([H])[H]

$$$$
62:0:0
     RDKit          3D

 98103  0  0  1  0  0  0  0  0999 V2000
  -26.8070  -16.9760   19.6780 C   0  0  0  0  0  1  0  0  0  0  0  0
  -28.1400  -17.5360   19.1460 C   0  0  0  0  0  3  0  0  0  0  0  0
  -28.1690  -19.1010   19.3360 C   0  0  0  0  0  2  0  0  0  0  0  0
  -29.4590  -19.9920   19.6350 C   0  0  0  0  0  3  0  0  0  0  0  0
  -30.6390  -20.1420   18.6800 N   0  0  0  0  0  4  0  0  0  0  0  0
  -31.4460  -19.9310   19.2520 H   0  0  0  0  0  0  0  0  0  0  0  0
  -30.5580  -19.4000   17.9980 H   0  0  0  0  0  0  0  0  0  0  0  0
  -30.9650  -21.4190   17.9600 C   0  0  0  0  0  2  0  0  0  0  0  0
  -32.3680  -21.5000   17.1430 C   0  0  0  0  0  2  0  0  0  0  0  0
  -33.0870  -22.9540   16.9820 C   0  0  0  0  0  1  0  0  0  0  0  0
  -31.9850  -24.4470   16.0310 C   0  0  0  0  0  2  0  0  0  0  0  0
  -31.2110  -24.2950   13.6700 C   0  0  0  0  0  2  0  0  0  0  0  0
  -31.1940  -22.7860   13.8690 C   0  0  0  0  0  2  0  0  0  0  0  0
  -32.7150  -22.3890   13.9020 C   0  0  0  0  0  2  0  0  0  0  0  0
  -33.7870  -23.5550   14.4200 C   0  0  0  0  0  3  0  0  0  0  0  0
  -33.4190  -24.9470   14.2490 C   0  0  0  0  0  2  0  0  0  0  0  0
  -32.1270  -24.8310   14.7070 N   0  0  0  0  0  0  0  0  0  0  0  0
  -30.9750  -25.2020   16.2240 O   0  0  0  0  0  1  0  0  0  0  0  0
  -35.8760  -22.6770   16.9960 C   0  0  0  0  0  2  0  0  0  0  0  0
  -37.3650  -23.4130   16.6310 C   0  0  0  0  0  3  0  0  0  0  0  0
  -37.2210  -24.6060   15.3940 C   0  0  0  0  0  3  0  0  0  0  0  0
  -34.6190  -23.6040   15.6020 N   0  0  0  0  0  2  0  0  0  0  0  0
  -35.7720  -24.6030   14.7580 N   0  0  0  0  0  2  0  0  0  0  0  0
  -37.3650  -26.1560   15.7140 C   0  0  0  0  0  0  0  0  0  0  0  0
  -36.3780  -27.0060   16.3540 C   0  0  0  0  0  3  0  0  0  0  0  0
  -36.5090  -28.4390   16.4970 C   0  0  0  0  0  3  0  0  0  0  0  0
  -37.6810  -29.0790   16.0290 C   0  0  0  0  0  0  0  0  0  0  0  0
  -38.6900  -28.2440   15.4990 C   0  0  0  0  0  3  0  0  0  0  0  0
  -38.5460  -26.8450   15.3600 C   0  0  0  0  0  3  0  0  0  0  0  0
  -37.9230  -30.4490   15.9720 O   0  0  0  0  0  0  0  0  0  0  0  0
  -37.6650  -31.3440   16.9900 C   0  0  0  0  0  0  0  0  0  0  0  0
  -38.3600  -31.3030   18.2210 C   0  0  0  0  0  3  0  0  0  0  0  0
  -38.1330  -32.2980   19.1970 C   0  0  0  0  0  3  0  0  0  0  0  0
  -37.2310  -33.3420   18.9560 C   0  0  0  0  0  0  0  0  0  0  0  0
  -36.5520  -33.4070   17.7170 C   0  0  0  0  0  3  0  0  0  0  0  0
  -36.7770  -32.4250   16.7430 C   0  0  0  0  0  0  0  0  0  0  0  0
  -36.1450  -32.5200   15.5470 F   0  0  0  0  0  0  0  0  0  0  0  0
  -37.0010  -34.2890   19.8930 F   0  0  0  0  0  0  0  0  0  0  0  0
  -38.4430  -23.6810   17.6450 C   0  0  0  0  0  0  0  0  0  0  0  0
  -38.2740  -24.5720   18.6390 N   0  0  0  0  0  0  0  0  0  0  0  0
  -39.4890  -23.0990   17.4830 O   0  0  0  0  0  0  0  0  0  0  0  0
  -37.3660  -24.9620   18.8380 H   0  0  0  0  0  0  0  0  0  0  0  0
  -39.0280  -24.7210   19.2960 H   0  0  0  0  0  0  0  0  0  0  0  0
  -35.8590  -21.4090   17.5290 N   0  0  0  0  0  0  0  0  0  0  0  0
  -36.4270  -21.2060   18.3420 H   0  0  0  0  0  0  0  0  0  0  0  0
  -34.9690  -20.9330   17.5710 H   0  0  0  0  0  0  0  0  0  0  0  0
  -29.5800  -20.7990   21.0090 C   0  0  0  0  0  2  0  0  0  0  0  0
  -29.3500  -22.8170   22.6060 C   0  0  0  0  0  1  0  0  0  0  0  0
  -30.9480  -23.0590   20.7740 C   0  0  0  0  0  1  0  0  0  0  0  0
  -29.6040  -22.3710   21.1450 C   0  0  0  0  0  3  0  0  0  0  0  0
  -29.4260  -16.8490   19.8340 C   0  0  0  0  0  2  0  0  0  0  0  0
  -31.1160  -16.7320   17.9980 C   0  0  0  0  0  1  0  0  0  0  0  0
  -30.3730  -15.9660   19.0230 N   0  0  1  0  0  4  0  0  0  0  0  0
  -29.7910  -15.3140   18.5170 H   0  0  0  0  0  0  0  0  0  0  0  0
  -31.2910  -15.1200   19.8960 C   0  0  0  0  0  2  0  0  0  0  0  0
  -32.8900  -15.2550   19.8520 C   0  0  0  0  0  2  0  0  0  0  0  0
  -33.4870  -13.8420   19.4920 C   0  0  0  0  0  2  0  0  0  0  0  0
  -34.8680  -13.2670   19.3540 O   0  0  0  0  0  0  0  0  0  0  0  0
  -38.4490  -17.3940   14.7140 C   0  0  0  0  0  0  0  0  0  0  0  0
  -35.2920  -13.4220   18.0270 C   0  0  0  0  0  0  0  0  0  0  0  0
  -36.3450  -16.3450   13.9920 C   0  0  0  0  0  3  0  0  0  0  0  0
  -35.5480  -14.3750   15.3730 C   0  0  0  0  0  0  0  0  0  0  0  0
  -37.8660  -15.1810   15.7040 C   0  0  0  0  0  2  0  0  0  0  0  0
  -36.6210  -14.5110   16.2620 C   0  0  0  0  0  0  0  0  0  0  0  0
  -36.4980  -14.0650   17.6130 C   0  0  0  0  0  3  0  0  0  0  0  0
  -34.3660  -13.0870   17.0080 C   0  0  0  0  0  3  0  0  0  0  0  0
  -34.4160  -13.6630   15.7470 C   0  0  0  0  0  3  0  0  0  0  0  0
  -35.6580  -14.9630   13.9960 C   0  0  0  0  0  2  0  0  0  0  0  0
  -37.5880  -16.3440   14.8250 N   0  0  0  0  0  0  0  0  0  0  0  0
  -38.2290  -18.3210   13.9250 O   0  0  0  0  0  0  0  0  0  0  0  0
  -35.3240  -17.4350   14.4050 C   0  0  0  0  0  0  0  0  0  0  0  0
  -34.4390  -17.8230   13.4730 N   0  0  0  0  0  0  0  0  0  0  0  0
  -35.3260  -17.9020   15.5480 O   0  0  0  0  0  0  0  0  0  0  0  0
  -34.5000  -17.3970   12.5600 H   0  0  0  0  0  0  0  0  0  0  0  0
  -31.7200  -19.5160   11.7850 C   0  0  0  0  0  0  0  0  0  0  0  0
  -33.3850  -18.8270   13.6430 C   0  0  0  0  0  3  0  0  0  0  0  0
  -32.1630  -18.2290   14.3780 C   0  0  0  0  0  2  0  0  0  0  0  0
  -31.0910  -17.6920   13.4250 C   0  0  0  0  0  2  0  0  0  0  0  0
  -30.5840  -18.8030   12.5010 C   0  0  0  0  0  2  0  0  0  0  0  0
  -33.0380  -19.5130   12.3160 C   0  0  0  0  0  0  0  0  0  0  0  0
  -34.0650  -20.1620   11.5950 C   0  0  0  0  0  3  0  0  0  0  0  0
  -33.7960  -20.8070   10.3730 C   0  0  0  0  0  3  0  0  0  0  0  0
  -32.4860  -20.8220    9.8630 C   0  0  0  0  0  3  0  0  0  0  0  0
  -31.4510  -20.1820   10.5690 C   0  0  0  0  0  3  0  0  0  0  0  0
  -39.7570  -17.4560   15.5570 C   0  0  0  0  0  3  0  0  0  0  0  0
  -40.8820  -17.5290   14.6160 N   0  0  0  0  0  0  0  0  0  0  0  0
  -41.4840  -16.4640   14.0680 C   0  0  0  0  0  0  0  0  0  0  0  0
  -41.1940  -15.3050   14.3650 O   0  0  0  0  0  0  0  0  0  0  0  0
  -41.1430  -18.4460   14.2870 H   0  0  0  0  0  0  0  0  0  0  0  0
  -42.0160  -16.5270   11.6130 C   0  0  0  0  0  1  0  0  0  0  0  0
  -42.5830  -16.7350   13.0250 C   0  0  0  0  0  3  0  0  0  0  0  0
  -44.5470  -16.2280   14.4100 C   0  0  0  0  0  1  0  0  0  0  0  0
  -43.7870  -15.8960   13.2080 N   0  0  0  0  0  0  0  0  0  0  0  0
  -44.4100  -15.9770   12.4070 H   0  0  0  0  0  0  0  0  0  0  0  0
  -39.7890  -18.6700   16.5640 C   0  0  1  0  0  0  0  0  0  0  0  0
  -39.8370  -20.0510   15.8730 C   0  0  0  0  0  1  0  0  0  0  0  0
  -38.5560  -18.6520   17.4960 C   0  0  0  0  0  1  0  0  0  0  0  0
  -41.0300  -18.5530   17.4810 C   0  0  0  0  0  1  0  0  0  0  0  0
  2  3  1  0
  2  1  1  0
  2 51  1  0
  4  3  1  0
  4 47  1  0
  5  6  1  0
  5  4  1  0
  7  5  1  0
  8  5  1  0
  9  8  1  0
 10  9  1  0
 11 18  1  0
 12 13  1  0
 12 17  1  0
 13 14  1  0
 14 15  1  0
 15 22  1  0
 16 15  1  0
 16 17  1  0
 17 11  1  0
 19 44  1  0
 20 19  1  0
 20 39  1  0
 21 23  1  0
 21 24  1  0
 21 20  1  0
 23 22  1  0
 24 25  1  0
 25 26  2  0
 27 26  1  0
 28 27  2  0
 29 28  1  0
 29 24  2  0
 30 27  1  0
 30 31  1  0
 31 32  1  0
 32 33  2  0
 34 33  1  0
 34 38  1  0
 35 34  2  0
 36 31  2  0
 36 35  1  0
 37 36  1  0
 39 40  1  0
 40 42  1  0
 40 43  1  0
 41 39  2  0
 44 46  1  0
 44 45  1  0
 47 50  1  0
 49 50  1  0
 50 48  1  0
 52 53  1  0
 53 51  1  0
 53 55  1  0
 53 54  1  6
 56 55  1  0
 57 56  1  0
 58 57  1  0
 59 69  1  0
 60 58  1  0
 61 68  1  0
 61 71  1  0
 61 69  1  0
 62 67  2  0
 62 64  1  0
 63 64  1  0
 64 65  2  0
 65 60  1  0
 66 60  2  0
 67 66  1  0
 68 62  1  0
 69 63  1  0
 70 59  2  0
 71 73  2  0
 72 71  1  0
 74 72  1  0
 75 80  1  0
 75 79  1  0
 76 72  1  0
 76 77  1  0
 78 77  1  0
 79 78  1  0
 80 76  1  0
 81 80  2  0
 82 81  1  0
 83 82  2  0
 83 84  1  0
 84 75  2  0
 85 59  1  0
 85 95  1  0
 86 85  1  0
 87 88  2  0
 87 86  1  0
 89 86  1  0
 91 90  1  0
 91 93  1  0
 91 87  1  0
 93 92  1  0
 94 93  1  0
 95 98  1  1
 95 97  1  0
 96 95  1  0
M  ISO  4  10 100  11 100  57 101  58 101
M  END
>  <TORSDO>  (63) 
F 29

>  <SCORE>  (63) 
-2.061

>  <name>  (63) 
62

>  <ligand_id>  (63) 
62

>  <original_smiles>  (63) 
[H]c1c([H])c([H])c2c(c1[H])C([H])([H])C([H])([H])C([H])([H])C2([H])N([H])C(=O)C1([H])N(C(=O)C([H])(N([H])C(=O)C([H])(N([H])C([H])([H])[H])C([H])([H])[H])C(C([H])([H])[H])(C([H])([H])[H])C([H])([H])[H])C([H])([H])c2c([H])c(OC([H])([H])C([H])([H])C([H])([H])[N+]([H])(C([H])([H])[H])C([H])([H])C([H])(C([H])([H])[H])C([H])([H])C([H])(C([H])([H])C([H])(C([H])([H])[H])C([H])([H])[H])[N+]([H])([H])C([H])([H])C([H])([H])C([H])([H])C(=O)N3C([H])([H])C([H])([H])C([H])([H])C([H])(n4nc(-c5c([H])c([H])c(Oc6c([H])c([H])c(F)c([H])c6F)c([H])c5[H])c(C(=O)N([H])[H])c4N([H])[H])C3([H])[H])c([H])c([H])c2C1([H])[H]

>  <smiles>  (63) 
[H]c1c([H])c([H])c2c(c1[H])C([H])([H])C([H])([H])C([H])([H])C2([H])N([H])C(=O)C1([H])N(C(=O)C([H])(N([H])C(=O)C([H])(N([H])C([H])([H])[H])C([H])([H])[H])C(C([H])([H])[H])(C([H])([H])[H])C([H])([H])[H])C([H])([H])c2c([H])c(OC([H])([H])C([H])([H])C([H])([H])[N+]([H])(C([H])([H])[H])C([H])([H])C([H])(C([H])([H])[H])C([H])([H])C([H])(C([H])([H])C([H])(C([H])([H])[H])C([H])([H])[H])[N+]([H])([H])C([H])([H])C([H])([H])C([H])([H])C(=O)N3C([H])([H])C([H])([H])C([H])([H])C([H])(n4nc(-c5c([H])c([H])c(Oc6c([H])c([H])c(F)c([H])c6F)c([H])c5[H])c(C(=O)N([H])[H])c4N([H])[H])C3([H])[H])c([H])c([H])c2C1([H])[H]

$$$$
63:0:0
     RDKit          3D

 89 96  0  0  1  0  0  0  0  0999 V2000
  -29.5880  -20.6700   20.0010 C   0  0  0  0  0  3  0  0  0  0  0  0
  -27.9470  -18.9490   20.8150 C   0  0  0  0  0  1  0  0  0  0  0  0
  -29.1020  -19.1690   19.9080 N   0  0  2  0  0  4  0  0  0  0  0  0
  -28.7030  -19.1080   18.9830 H   0  0  0  0  0  0  0  0  0  0  0  0
  -30.1350  -17.9630   19.9610 C   0  0  0  0  0  3  0  0  0  0  0  0
  -32.5740  -18.3340   20.7320 C   0  0  0  0  0  1  0  0  0  0  0  0
  -30.9980  -17.0770   22.2710 C   0  0  0  0  0  1  0  0  0  0  0  0
  -31.1120  -18.1540   21.1710 C   0  0  0  0  0  3  0  0  0  0  0  0
  -29.6100  -16.3680   19.8350 C   0  0  0  0  0  2  0  0  0  0  0  0
  -30.5270  -14.9930   19.7670 C   0  0  0  0  0  0  0  0  0  0  0  0
  -30.4100  -12.6030   18.9730 C   0  0  0  0  0  2  0  0  0  0  0  0
  -29.4280  -12.5440   17.7800 C   0  0  0  0  0  2  0  0  0  0  0  0
  -27.9760  -12.3640   18.2730 C   0  0  0  0  0  2  0  0  0  0  0  0
  -27.6180  -13.3270   19.4360 C   0  0  0  0  0  3  0  0  0  0  0  0
  -28.7200  -13.3630   20.5160 C   0  0  0  0  0  2  0  0  0  0  0  0
  -29.9810  -13.7210   19.8540 N   0  0  0  0  0  0  0  0  0  0  0  0
  -31.7120  -15.0740   19.4310 O   0  0  0  0  0  0  0  0  0  0  0  0
  -25.2990  -13.9470   20.3300 C   0  0  0  0  0  0  0  0  0  0  0  0
  -24.2350  -13.1890   20.7420 C   0  0  0  0  0  0  0  0  0  0  0  0
  -24.6610  -11.8290   20.6490 C   0  0  0  0  0  0  0  0  0  0  0  0
  -26.3020  -13.0490   20.0070 N   0  0  0  0  0  0  0  0  0  0  0  0
  -25.9320  -11.7680   20.2660 N   0  0  0  0  0  0  0  0  0  0  0  0
  -23.9150  -10.5790   20.8520 C   0  0  0  0  0  0  0  0  0  0  0  0
  -24.3350   -9.6120   21.7920 C   0  0  0  0  0  3  0  0  0  0  0  0
  -23.5900   -8.4280   21.9820 C   0  0  0  0  0  3  0  0  0  0  0  0
  -22.4120   -8.2030   21.2310 C   0  0  0  0  0  0  0  0  0  0  0  0
  -22.0110   -9.1580   20.2780 C   0  0  0  0  0  3  0  0  0  0  0  0
  -22.7560  -10.3330   20.0890 C   0  0  0  0  0  3  0  0  0  0  0  0
  -21.6400   -7.0700   21.3260 O   0  0  0  0  0  0  0  0  0  0  0  0
  -21.5280   -6.3720   22.5010 C   0  0  0  0  0  0  0  0  0  0  0  0
  -21.0320   -6.9710   23.6800 C   0  0  0  0  0  3  0  0  0  0  0  0
  -20.8700   -6.2000   24.8470 C   0  0  0  0  0  3  0  0  0  0  0  0
  -21.1940   -4.8300   24.8380 C   0  0  0  0  0  0  0  0  0  0  0  0
  -21.6830   -4.2310   23.6640 C   0  0  0  0  0  3  0  0  0  0  0  0
  -21.8470   -5.0000   22.4990 C   0  0  0  0  0  0  0  0  0  0  0  0
  -22.3020   -4.4120   21.3660 F   0  0  0  0  0  0  0  0  0  0  0  0
  -21.0310   -4.0870   25.9570 F   0  0  0  0  0  0  0  0  0  0  0  0
  -22.8680  -13.6930   21.1020 C   0  0  0  0  0  0  0  0  0  0  0  0
  -22.1690  -12.9930   21.9880 N   0  0  0  0  0  0  0  0  0  0  0  0
  -22.4270  -14.7410   20.6320 O   0  0  0  0  0  0  0  0  0  0  0  0
  -22.5340  -12.1390   22.3790 H   0  0  0  0  0  0  0  0  0  0  0  0
  -21.2550  -13.3170   22.2740 H   0  0  0  0  0  0  0  0  0  0  0  0
  -25.4900  -15.3180   20.1780 N   0  0  0  0  0  0  0  0  0  0  0  0
  -24.7450  -15.9910   20.3270 H   0  0  0  0  0  0  0  0  0  0  0  0
  -26.3200  -15.7270   19.7640 H   0  0  0  0  0  0  0  0  0  0  0  0
  -28.5420  -21.9760   20.0110 C   0  0  0  0  0  3  0  0  0  0  0  0
  -28.9750  -23.5810   20.1820 C   0  0  0  0  0  3  0  0  0  0  0  0
  -27.9280  -24.8420   19.9200 C   0  0  0  0  0  3  0  0  0  0  0  0
  -28.1860  -26.3340   20.1850 O   0  0  0  0  0  0  0  0  0  0  0  0
  -24.5000  -31.9160   23.2160 C   0  0  0  0  0  0  0  0  0  0  0  0
  -27.1090  -27.2780   20.1360 C   0  0  0  0  0  0  0  0  0  0  0  0
  -23.3050  -30.5240   21.5710 C   0  0  0  0  0  3  0  0  0  0  0  0
  -24.7590  -28.9730   20.1360 C   0  0  0  0  0  0  0  0  0  0  0  0
  -25.8580  -30.8080   21.4140 C   0  0  0  0  0  2  0  0  0  0  0  0
  -25.9360  -29.4330   20.7410 C   0  0  0  0  0  0  0  0  0  0  0  0
  -27.1120  -28.6000   20.7270 C   0  0  0  0  0  3  0  0  0  0  0  0
  -25.9030  -26.9110   19.4960 C   0  0  0  0  0  3  0  0  0  0  0  0
  -24.7520  -27.7230   19.5050 C   0  0  0  0  0  3  0  0  0  0  0  0
  -23.5230  -29.8550   20.1910 C   0  0  0  0  0  2  0  0  0  0  0  0
  -24.5730  -31.1040   22.1190 N   0  0  0  0  0  0  0  0  0  0  0  0
  -23.4130  -32.1940   23.7440 O   0  0  0  0  0  0  0  0  0  0  0  0
  -22.6320  -29.5090   22.5260 C   0  0  0  0  0  0  0  0  0  0  0  0
  -21.3140  -29.2940   22.3620 N   0  0  0  0  0  0  0  0  0  0  0  0
  -23.2980  -28.9120   23.3760 O   0  0  0  0  0  0  0  0  0  0  0  0
  -20.8330  -29.8190   21.6450 H   0  0  0  0  0  0  0  0  0  0  0  0
  -17.9570  -28.0080   22.7860 C   0  0  0  0  0  0  0  0  0  0  0  0
  -20.4980  -28.3480   23.1240 C   0  0  0  0  0  3  0  0  0  0  0  0
  -20.6600  -26.9120   22.5730 C   0  0  0  0  0  2  0  0  0  0  0  0
  -19.5990  -26.5430   21.5320 C   0  0  0  0  0  2  0  0  0  0  0  0
  -18.1940  -26.6570   22.1320 C   0  0  0  0  0  2  0  0  0  0  0  0
  -19.0400  -28.8080   23.2360 C   0  0  0  0  0  0  0  0  0  0  0  0
  -18.7680  -30.0720   23.8050 C   0  0  0  0  0  3  0  0  0  0  0  0
  -17.4450  -30.5390   23.9220 C   0  0  0  0  0  3  0  0  0  0  0  0
  -16.3750  -29.7340   23.4930 C   0  0  0  0  0  3  0  0  0  0  0  0
  -16.6320  -28.4710   22.9320 C   0  0  0  0  0  3  0  0  0  0  0  0
  -25.7760  -32.5520   23.8460 C   0  0  0  0  0  3  0  0  0  0  0  0
  -25.4680  -33.9560   24.1570 N   0  0  0  0  0  0  0  0  0  0  0  0
  -25.7910  -35.0010   23.3830 C   0  0  0  0  0  0  0  0  0  0  0  0
  -26.4480  -34.8820   22.3440 O   0  0  0  0  0  0  0  0  0  0  0  0
  -24.8780  -34.1220   24.9610 H   0  0  0  0  0  0  0  0  0  0  0  0
  -24.0500  -36.7810   23.0430 C   0  0  0  0  0  1  0  0  0  0  0  0
  -25.3110  -36.3940   23.8330 C   0  0  0  0  0  3  0  0  0  0  0  0
  -27.4600  -37.3000   24.6060 C   0  0  0  0  0  1  0  0  0  0  0  0
  -26.3390  -37.4490   23.6810 N   0  0  0  0  0  0  0  0  0  0  0  0
  -25.9320  -38.3700   23.8180 H   0  0  0  0  0  0  0  0  0  0  0  0
  -26.2710  -31.7970   25.1410 C   0  0  1  0  0  0  0  0  0  0  0  0
  -25.1610  -31.5760   26.1930 C   0  0  0  0  0  1  0  0  0  0  0  0
  -26.8630  -30.4140   24.7870 C   0  0  0  0  0  1  0  0  0  0  0  0
  -27.4100  -32.6050   25.8090 C   0  0  0  0  0  1  0  0  0  0  0  0
  1 46  2  0
  3  5  1  0
  3  1  1  0
  3  2  1  0
  3  4  1  6
  5  9  1  0
  5  8  1  0
  6  8  1  0
  8  7  1  0
 10  9  1  0
 10 16  1  0
 11 16  1  0
 12 13  1  0
 12 11  1  0
 14 13  1  0
 14 21  1  0
 14 15  1  0
 16 15  1  0
 17 10  2  0
 18 19  2  0
 19 38  1  0
 20 19  1  0
 20 23  1  0
 21 22  1  0
 21 18  1  0
 22 20  2  0
 23 24  1  0
 24 25  2  0
 26 29  1  0
 26 25  1  0
 27 26  2  0
 28 27  1  0
 28 23  2  0
 29 30  1  0
 30 31  1  0
 31 32  2  0
 33 32  1  0
 33 37  1  0
 34 33  2  0
 35 30  2  0
 35 34  1  0
 36 35  1  0
 38 39  1  0
 39 42  1  0
 39 41  1  0
 40 38  2  0
 43 44  1  0
 43 18  1  0
 45 43  1  0
 46 47  1  0
 48 47  2  0
 48 49  1  0
 50 61  2  0
 51 49  1  0
 51 56  1  0
 52 60  1  0
 52 62  1  0
 53 59  1  0
 53 55  1  0
 54 60  1  0
 55 54  1  0
 56 55  2  0
 57 58  1  0
 57 51  2  0
 58 53  2  0
 59 52  1  0
 60 50  1  0
 62 64  2  0
 63 62  1  0
 65 63  1  0
 66 75  2  0
 66 71  1  0
 67 63  1  0
 67 71  1  0
 68 67  1  0
 69 70  1  0
 69 68  1  0
 70 66  1  0
 71 72  2  0
 72 73  1  0
 74 73  2  0
 75 74  1  0
 76 50  1  0
 76 77  1  0
 76 86  1  0
 77 80  1  0
 78 82  1  0
 78 77  1  0
 79 78  2  0
 82 81  1  0
 84 85  1  0
 84 82  1  0
 84 83  1  0
 86 89  1  1
 86 87  1  0
 88 86  1  0
M  ISO  4   9 100  10 100  48 101  49 101
M  END
>  <TORSDO>  (64) 
F 23

>  <SCORE>  (64) 
-12.221

>  <name>  (64) 
63

>  <ligand_id>  (64) 
63

>  <original_smiles>  (64) 
[H]c1c([H])c([H])c2c(c1[H])C([H])([H])C([H])([H])C([H])([H])C2([H])N([H])C(=O)C1([H])N(C(=O)C([H])(N([H])C(=O)C([H])(N([H])C([H])([H])[H])C([H])([H])[H])C(C([H])([H])[H])(C([H])([H])[H])C([H])([H])[H])C([H])([H])c2c([H])c(OC([H])([H])C([H])([H])C([H])([H])C([H])([H])[N+]([H])(C([H])([H])[H])C([H])(C([H])([H])C(=O)N3C([H])([H])C([H])([H])C([H])([H])C([H])(n4nc(-c5c([H])c([H])c(Oc6c([H])c([H])c(F)c([H])c6F)c([H])c5[H])c(C(=O)N([H])[H])c4N([H])[H])C3([H])[H])C([H])(C([H])([H])[H])C([H])([H])[H])c([H])c([H])c2C1([H])[H]

>  <smiles>  (64) 
[H]c1c([H])c([H])c2c(c1[H])C([H])([H])C([H])([H])C([H])([H])C2([H])N([H])C(=O)C1([H])N(C(=O)C([H])(N([H])C(=O)C([H])(N([H])C([H])([H])[H])C([H])([H])[H])C(C([H])([H])[H])(C([H])([H])[H])C([H])([H])[H])C([H])([H])c2c([H])c(OC([H])([H])C([H])([H])C([H])([H])C([H])([H])[N+]([H])(C([H])([H])[H])C([H])(C([H])([H])C(=O)N3C([H])([H])C([H])([H])C([H])([H])C([H])(n4nc(-c5c([H])c([H])c(Oc6c([H])c([H])c(F)c([H])c6F)c([H])c5[H])c(C(=O)N([H])[H])c4N([H])[H])C3([H])[H])C([H])(C([H])([H])[H])C([H])([H])[H])c([H])c([H])c2C1([H])[H]

$$$$
64:0:0
     RDKit          3D

 92 99  0  0  1  0  0  0  0  0999 V2000
  -28.2730  -20.7240   18.9360 N   0  0  0  0  0  4  0  0  0  0  0  0
  -28.0440  -20.7500   17.9560 H   0  0  0  0  0  0  0  0  0  0  0  0
  -27.4040  -20.7710   19.4400 H   0  0  0  0  0  0  0  0  0  0  0  0
  -29.0430  -21.9680   19.2000 C   0  0  0  0  0  2  0  0  0  0  0  0
  -28.2460  -23.1750   18.6220 C   0  0  0  0  0  2  0  0  0  0  0  0
  -28.7850  -24.6150   18.8250 C   0  0  0  0  0  2  0  0  0  0  0  0
  -28.3420  -25.3210   20.1270 C   0  0  0  0  0  2  0  0  0  0  0  0
  -28.4250  -26.7540   20.0110 O   0  0  0  0  0  0  0  0  0  0  0  0
  -24.6690  -31.8410   23.2890 C   0  0  0  0  0  0  0  0  0  0  0  0
  -27.2470  -27.4830   20.0270 C   0  0  0  0  0  0  0  0  0  0  0  0
  -23.4350  -30.5140   21.6050 C   0  0  0  0  0  3  0  0  0  0  0  0
  -24.8640  -29.0150   20.1080 C   0  0  0  0  0  0  0  0  0  0  0  0
  -25.9620  -30.8550   21.3980 C   0  0  0  0  0  2  0  0  0  0  0  0
  -26.0310  -29.5050   20.7080 C   0  0  0  0  0  0  0  0  0  0  0  0
  -27.2240  -28.7470   20.6610 C   0  0  0  0  0  3  0  0  0  0  0  0
  -26.0640  -27.0140   19.4110 C   0  0  0  0  0  3  0  0  0  0  0  0
  -24.8760  -27.7700   19.4560 C   0  0  0  0  0  3  0  0  0  0  0  0
  -23.6280  -29.8820   20.1980 C   0  0  0  0  0  2  0  0  0  0  0  0
  -24.7080  -31.0810   22.1570 N   0  0  0  0  0  0  0  0  0  0  0  0
  -23.5940  -32.1050   23.8460 O   0  0  0  0  0  0  0  0  0  0  0  0
  -22.7800  -29.4640   22.5310 C   0  0  0  0  0  0  0  0  0  0  0  0
  -21.4530  -29.3010   22.4070 N   0  0  0  0  0  0  0  0  0  0  0  0
  -23.4610  -28.8020   23.3170 O   0  0  0  0  0  0  0  0  0  0  0  0
  -20.9630  -29.8910   21.7500 H   0  0  0  0  0  0  0  0  0  0  0  0
  -18.0720  -28.1110   22.8630 C   0  0  0  0  0  0  0  0  0  0  0  0
  -20.6300  -28.3430   23.1480 C   0  0  0  0  0  3  0  0  0  0  0  0
  -20.7260  -26.9320   22.5260 C   0  0  0  0  0  2  0  0  0  0  0  0
  -19.6230  -26.6480   21.5000 C   0  0  0  0  0  2  0  0  0  0  0  0
  -18.2420  -26.7820   22.1470 C   0  0  0  0  0  2  0  0  0  0  0  0
  -19.1950  -28.8510   23.3190 C   0  0  0  0  0  0  0  0  0  0  0  0
  -18.9830  -30.0980   23.9470 C   0  0  0  0  0  3  0  0  0  0  0  0
  -17.6820  -30.6040   24.1240 C   0  0  0  0  0  3  0  0  0  0  0  0
  -16.5730  -29.8590   23.6860 C   0  0  0  0  0  3  0  0  0  0  0  0
  -16.7700  -28.6140   23.0630 C   0  0  0  0  0  3  0  0  0  0  0  0
  -25.9660  -32.4350   23.9200 C   0  0  0  0  0  3  0  0  0  0  0  0
  -26.4980  -31.6000   25.1500 C   0  0  1  0  0  0  0  0  0  0  0  0
  -25.4220  -31.3160   26.2230 C   0  0  0  0  0  1  0  0  0  0  0  0
  -27.0660  -30.2420   24.6790 C   0  0  0  0  0  1  0  0  0  0  0  0
  -27.6640  -32.3540   25.8320 C   0  0  0  0  0  1  0  0  0  0  0  0
  -25.6710  -33.8180   24.3180 N   0  0  0  0  0  0  0  0  0  0  0  0
  -26.0110  -34.9020   23.6080 C   0  0  0  0  0  0  0  0  0  0  0  0
  -26.6750  -34.8420   22.5700 O   0  0  0  0  0  0  0  0  0  0  0  0
  -25.0780  -33.9400   25.1270 H   0  0  0  0  0  0  0  0  0  0  0  0
  -24.2970  -36.7250   23.3460 C   0  0  0  0  0  1  0  0  0  0  0  0
  -25.5370  -36.2720   24.1330 C   0  0  0  0  0  3  0  0  0  0  0  0
  -27.6830  -37.0950   24.9950 C   0  0  0  0  0  1  0  0  0  0  0  0
  -26.5780  -37.3200   24.0680 N   0  0  0  0  0  0  0  0  0  0  0  0
  -26.1800  -38.2340   24.2650 H   0  0  0  0  0  0  0  0  0  0  0  0
  -28.8590  -19.3700   19.1630 C   0  0  0  0  0  3  0  0  0  0  0  0
  -29.9780  -18.1590   21.1600 C   0  0  0  0  0  3  0  0  0  0  0  0
  -29.0910  -19.0560   20.6580 C   0  0  0  0  0  0  0  0  0  0  0  0
  -28.2020  -19.8130   21.6360 C   0  0  0  0  0  1  0  0  0  0  0  0
  -30.8750  -17.1470   20.4480 C   0  0  0  0  0  2  0  0  0  0  0  0
  -30.5280  -15.7070   20.9290 C   0  0  0  0  0  2  0  0  0  0  0  0
  -31.1380  -14.5280   20.1270 C   0  0  0  0  0  0  0  0  0  0  0  0
  -30.7420  -12.3870   18.9430 C   0  0  0  0  0  2  0  0  0  0  0  0
  -29.7720  -12.6200   17.7660 C   0  0  0  0  0  2  0  0  0  0  0  0
  -28.3030  -12.5430   18.2270 C   0  0  0  0  0  2  0  0  0  0  0  0
  -28.0330  -13.3840   19.5010 C   0  0  0  0  0  3  0  0  0  0  0  0
  -29.1060  -13.1060   20.5790 C   0  0  0  0  0  2  0  0  0  0  0  0
  -30.4270  -13.3740   19.9860 N   0  0  0  0  0  0  0  0  0  0  0  0
  -32.2270  -14.6980   19.5720 O   0  0  0  0  0  0  0  0  0  0  0  0
  -25.6740  -14.1010   20.2400 C   0  0  0  0  0  0  0  0  0  0  0  0
  -24.5820  -13.3760   20.6380 C   0  0  0  0  0  0  0  0  0  0  0  0
  -24.9880  -12.0070   20.6180 C   0  0  0  0  0  0  0  0  0  0  0  0
  -26.6790  -13.1730   20.0080 N   0  0  0  0  0  0  0  0  0  0  0  0
  -26.2700  -11.9110   20.2890 N   0  0  0  0  0  0  0  0  0  0  0  0
  -24.2150  -10.7770   20.8400 C   0  0  0  0  0  0  0  0  0  0  0  0
  -24.6170   -9.8160   21.7930 C   0  0  0  0  0  3  0  0  0  0  0  0
  -23.8480   -8.6500   22.0030 C   0  0  0  0  0  3  0  0  0  0  0  0
  -22.6640   -8.4380   21.2570 C   0  0  0  0  0  0  0  0  0  0  0  0
  -22.2820   -9.3870   20.2910 C   0  0  0  0  0  3  0  0  0  0  0  0
  -23.0500  -10.5440   20.0810 C   0  0  0  0  0  3  0  0  0  0  0  0
  -21.8690   -7.3240   21.3730 O   0  0  0  0  0  0  0  0  0  0  0  0
  -21.7770   -6.6270   22.5500 C   0  0  0  0  0  0  0  0  0  0  0  0
  -21.3650   -7.2430   23.7520 C   0  0  0  0  0  3  0  0  0  0  0  0
  -21.2150   -6.4760   24.9230 C   0  0  0  0  0  3  0  0  0  0  0  0
  -21.4690   -5.0910   24.8940 C   0  0  0  0  0  0  0  0  0  0  0  0
  -21.8750   -4.4730   23.6990 C   0  0  0  0  0  3  0  0  0  0  0  0
  -22.0250   -5.2400   22.5290 C   0  0  0  0  0  0  0  0  0  0  0  0
  -22.3960   -4.6360   21.3740 F   0  0  0  0  0  0  0  0  0  0  0  0
  -21.3180   -4.3500   26.0170 F   0  0  0  0  0  0  0  0  0  0  0  0
  -23.2100  -13.9130   20.9290 C   0  0  0  0  0  0  0  0  0  0  0  0
  -22.4770  -13.2600   21.8250 N   0  0  0  0  0  0  0  0  0  0  0  0
  -22.7960  -14.9410   20.3970 O   0  0  0  0  0  0  0  0  0  0  0  0
  -22.8290  -12.4280   22.2740 H   0  0  0  0  0  0  0  0  0  0  0  0
  -21.5560  -13.5970   22.0660 H   0  0  0  0  0  0  0  0  0  0  0  0
  -25.8890  -15.4610   20.0390 N   0  0  0  0  0  0  0  0  0  0  0  0
  -25.1560  -16.1510   20.1720 H   0  0  0  0  0  0  0  0  0  0  0  0
  -26.7500  -15.8590   19.6880 H   0  0  0  0  0  0  0  0  0  0  0  0
  -28.3640  -16.9300   18.3390 C   0  0  0  0  0  1  0  0  0  0  0  0
  -27.8660  -18.3670   18.5200 C   0  0  0  0  0  2  0  0  0  0  0  0
  1 49  1  0
  1  4  1  0
  1  3  1  0
  2  1  1  0
  5  6  1  0
  5  4  1  0
  6  7  1  0
  8 10  1  0
  8  7  1  0
  9 20  2  0
 10 15  1  0
 11 19  1  0
 11 21  1  0
 12 18  1  0
 12 14  1  0
 13 19  1  0
 14 13  1  0
 15 14  2  0
 16 17  1  0
 16 10  2  0
 17 12  2  0
 18 11  1  0
 19  9  1  0
 21 23  2  0
 22 21  1  0
 24 22  1  0
 25 34  2  0
 25 30  1  0
 26 22  1  0
 26 30  1  0
 27 26  1  0
 28 29  1  0
 28 27  1  0
 29 25  1  0
 30 31  2  0
 31 32  1  0
 33 32  2  0
 34 33  1  0
 35  9  1  0
 35 40  1  0
 35 36  1  0
 36 39  1  1
 36 37  1  0
 38 36  1  0
 40 43  1  0
 41 45  1  0
 41 40  1  0
 42 41  2  0
 45 44  1  0
 47 45  1  0
 47 48  1  0
 47 46  1  0
 49 92  1  0
 49 51  1  0
 51 50  2  0
 51 52  1  0
 53 54  1  0
 53 50  1  0
 55 54  1  0
 56 61  1  0
 57 58  1  0
 57 56  1  0
 59 58  1  0
 59 66  1  0
 59 60  1  0
 61 55  1  0
 61 60  1  0
 62 55  2  0
 63 64  2  0
 64 83  1  0
 65 64  1  0
 65 68  1  0
 66 63  1  0
 66 67  1  0
 67 65  2  0
 68 69  1  0
 69 70  2  0
 71 74  1  0
 71 70  1  0
 72 71  2  0
 73 72  1  0
 73 68  2  0
 74 75  1  0
 75 76  1  0
 76 77  2  0
 78 77  1  0
 78 82  1  0
 79 78  2  0
 80 75  2  0
 80 79  1  0
 81 80  1  0
 83 84  1  0
 84 87  1  0
 84 86  1  0
 85 83  2  0
 88 89  1  0
 88 63  1  0
 90 88  1  0
 91 92  1  0
M  ISO  4   7 101   8 101  54 100  55 100
M  END
>  <TORSDO>  (65) 
F 25

>  <SCORE>  (65) 
-10.294

>  <name>  (65) 
64

>  <ligand_id>  (65) 
64

>  <original_smiles>  (65) 
[H]C(=C(C([H])([H])[H])C([H])(C([H])([H])C([H])([H])[H])[N+]([H])([H])C([H])([H])C([H])([H])C([H])([H])C([H])([H])Oc1c([H])c([H])c2c(c1[H])C([H])([H])N(C(=O)C([H])(N([H])C(=O)C([H])(N([H])C([H])([H])[H])C([H])([H])[H])C(C([H])([H])[H])(C([H])([H])[H])C([H])([H])[H])C([H])(C(=O)N([H])C1([H])c3c([H])c([H])c([H])c([H])c3C([H])([H])C([H])([H])C1([H])[H])C2([H])[H])C([H])([H])C([H])([H])C(=O)N1C([H])([H])C([H])([H])C([H])([H])C([H])(n2nc(-c3c([H])c([H])c(Oc4c([H])c([H])c(F)c([H])c4F)c([H])c3[H])c(C(=O)N([H])[H])c2N([H])[H])C1([H])[H]

>  <smiles>  (65) 
[H]C(=C(C([H])([H])[H])C([H])(C([H])([H])C([H])([H])[H])[N+]([H])([H])C([H])([H])C([H])([H])C([H])([H])C([H])([H])Oc1c([H])c([H])c2c(c1[H])C([H])([H])N(C(=O)C([H])(N([H])C(=O)C([H])(N([H])C([H])([H])[H])C([H])([H])[H])C(C([H])([H])[H])(C([H])([H])[H])C([H])([H])[H])C([H])(C(=O)N([H])C1([H])c3c([H])c([H])c([H])c([H])c3C([H])([H])C([H])([H])C1([H])[H])C2([H])[H])C([H])([H])C([H])([H])C(=O)N1C([H])([H])C([H])([H])C([H])([H])C([H])(n2nc(-c3c([H])c([H])c(Oc4c([H])c([H])c(F)c([H])c4F)c([H])c3[H])c(C(=O)N([H])[H])c2N([H])[H])C1([H])[H]

$$$$
65:0:0
     RDKit          3D

 93101  0  0  1  0  0  0  0  0999 V2000
  -25.7170  -23.6140   22.2360 C   0  0  0  0  0  2  0  0  0  0  0  0
  -24.7410  -24.0730   21.1450 C   0  0  0  0  0  2  0  0  0  0  0  0
  -26.6980  -22.6610   21.5330 C   0  0  0  0  0  2  0  0  0  0  0  0
  -25.4110  -23.6700   19.8250 C   0  0  0  0  0  3  0  0  0  0  0  0
  -26.1340  -22.4350   20.1860 N   0  0  1  0  0  4  0  0  0  0  0  0
  -25.4240  -21.7310   20.3150 H   0  0  0  0  0  0  0  0  0  0  0  0
  -24.4270  -23.4740   18.6480 C   0  0  0  0  0  2  0  0  0  0  0  0
  -23.9220  -24.7660   17.9680 C   0  0  0  0  0  2  0  0  0  0  0  0
  -24.9120  -25.5040   17.0370 C   0  0  0  0  0  2  0  0  0  0  0  0
  -26.1870  -26.0390   17.7140 C   0  0  0  0  0  2  0  0  0  0  0  0
  -26.3630  -27.4430   17.5150 O   0  0  0  0  0  0  0  0  0  0  0  0
  -25.6310  -30.0410   24.0750 C   0  0  0  0  0  0  0  0  0  0  0  0
  -25.6150  -28.2360   18.3540 C   0  0  0  0  0  0  0  0  0  0  0  0
  -23.6860  -30.3500   22.5790 C   0  0  0  0  0  3  0  0  0  0  0  0
  -24.0930  -29.8310   20.1160 C   0  0  0  0  0  0  0  0  0  0  0  0
  -26.0550  -30.1970   21.6250 C   0  0  0  0  0  2  0  0  0  0  0  0
  -25.4480  -29.5890   20.3780 C   0  0  0  0  0  0  0  0  0  0  0  0
  -26.2160  -28.8010   19.4970 C   0  0  0  0  0  3  0  0  0  0  0  0
  -24.2480  -28.4870   18.0990 C   0  0  0  0  0  3  0  0  0  0  0  0
  -23.4850  -29.2770   18.9760 C   0  0  0  0  0  3  0  0  0  0  0  0
  -23.3510  -30.7020   21.1040 C   0  0  0  0  0  2  0  0  0  0  0  0
  -25.1580  -30.1630   22.8030 N   0  0  0  0  0  0  0  0  0  0  0  0
  -24.8740  -30.1240   25.0500 O   0  0  0  0  0  0  0  0  0  0  0  0
  -22.8410  -29.1250   22.9960 C   0  0  0  0  0  0  0  0  0  0  0  0
  -21.5130  -29.2360   22.8370 N   0  0  0  0  0  0  0  0  0  0  0  0
  -23.3790  -28.1010   23.4230 O   0  0  0  0  0  0  0  0  0  0  0  0
  -21.1530  -30.1120   22.4860 H   0  0  0  0  0  0  0  0  0  0  0  0
  -18.0850  -28.2480   22.2600 C   0  0  0  0  0  0  0  0  0  0  0  0
  -20.5200  -28.2010   23.1240 C   0  0  0  0  0  3  0  0  0  0  0  0
  -20.7160  -26.9720   22.2070 C   0  0  0  0  0  2  0  0  0  0  0  0
  -19.8620  -27.0250   20.9370 C   0  0  0  0  0  2  0  0  0  0  0  0
  -18.3750  -27.1150   21.2900 C   0  0  0  0  0  2  0  0  0  0  0  0
  -19.0950  -28.7670   23.1100 C   0  0  0  0  0  0  0  0  0  0  0  0
  -18.7830  -29.8430   23.9700 C   0  0  0  0  0  3  0  0  0  0  0  0
  -17.4890  -30.3940   23.9910 C   0  0  0  0  0  3  0  0  0  0  0  0
  -16.4870  -29.8650   23.1590 C   0  0  0  0  0  3  0  0  0  0  0  0
  -16.7850  -28.7950   22.2980 C   0  0  0  0  0  3  0  0  0  0  0  0
  -27.1490  -29.8140   24.3640 C   0  0  0  0  0  3  0  0  0  0  0  0
  -27.4590  -28.3950   24.9800 C   0  0  1  0  0  0  0  0  0  0  0  0
  -26.5870  -28.0420   26.2080 C   0  0  0  0  0  1  0  0  0  0  0  0
  -27.2540  -27.2880   23.9190 C   0  0  0  0  0  1  0  0  0  0  0  0
  -28.9430  -28.3250   25.4090 C   0  0  0  0  0  1  0  0  0  0  0  0
  -27.5870  -30.8820   25.2740 N   0  0  0  0  0  0  0  0  0  0  0  0
  -28.2420  -31.9850   24.8890 C   0  0  0  0  0  0  0  0  0  0  0  0
  -28.6080  -32.1760   23.7270 O   0  0  0  0  0  0  0  0  0  0  0  0
  -27.2740  -30.8200   26.2310 H   0  0  0  0  0  0  0  0  0  0  0  0
  -27.5410  -34.2060   25.8400 C   0  0  0  0  0  1  0  0  0  0  0  0
  -28.5400  -33.0450   25.9690 C   0  0  0  0  0  3  0  0  0  0  0  0
  -30.9270  -32.5820   26.2990 C   0  0  0  0  0  1  0  0  0  0  0  0
  -29.9220  -33.5690   25.9150 N   0  0  0  0  0  0  0  0  0  0  0  0
  -30.0240  -34.3780   26.5210 H   0  0  0  0  0  0  0  0  0  0  0  0
  -27.0690  -21.8940   19.1700 C   0  0  0  0  0  2  0  0  0  0  0  0
  -26.9320  -20.3640   19.1260 C   0  0  0  0  0  2  0  0  0  0  0  0
  -28.0480  -19.6400   18.3600 C   0  0  0  0  0  2  0  0  0  0  0  0
  -28.3980  -18.3240   19.0600 C   0  0  0  0  0  2  0  0  0  0  0  0
  -29.6620  -17.6250   18.5290 C   0  0  0  0  0  2  0  0  0  0  0  0
  -30.1550  -16.5590   19.5320 C   0  0  0  0  0  2  0  0  0  0  0  0
  -30.7590  -15.2650   18.9410 C   0  0  0  0  0  0  0  0  0  0  0  0
  -30.9770  -12.7980   19.0720 C   0  0  0  0  0  2  0  0  0  0  0  0
  -30.0570  -12.0590   18.0830 C   0  0  0  0  0  2  0  0  0  0  0  0
  -28.6270  -11.9010   18.6410 C   0  0  0  0  0  2  0  0  0  0  0  0
  -28.0690  -13.2280   19.2170 C   0  0  0  0  0  3  0  0  0  0  0  0
  -29.0990  -13.8270   20.1950 C   0  0  0  0  0  2  0  0  0  0  0  0
  -30.3420  -14.0710   19.4390 N   0  0  0  0  0  0  0  0  0  0  0  0
  -31.6660  -15.3490   18.1020 O   0  0  0  0  0  0  0  0  0  0  0  0
  -25.8330  -13.9670   20.2680 C   0  0  0  0  0  0  0  0  0  0  0  0
  -24.7660  -13.2490   20.7390 C   0  0  0  0  0  0  0  0  0  0  0  0
  -25.1120  -11.8740   20.5700 C   0  0  0  0  0  0  0  0  0  0  0  0
  -26.7680  -13.0290   19.8530 N   0  0  0  0  0  0  0  0  0  0  0  0
  -26.3400  -11.7620   20.0830 N   0  0  0  0  0  0  0  0  0  0  0  0
  -24.3250  -10.6560   20.7930 C   0  0  0  0  0  0  0  0  0  0  0  0
  -24.7800   -9.6300   21.6510 C   0  0  0  0  0  3  0  0  0  0  0  0
  -23.9990   -8.4730   21.8620 C   0  0  0  0  0  3  0  0  0  0  0  0
  -22.7470   -8.3360   21.2170 C   0  0  0  0  0  0  0  0  0  0  0  0
  -22.3090   -9.3500   20.3460 C   0  0  0  0  0  3  0  0  0  0  0  0
  -23.0900  -10.4980   20.1330 C   0  0  0  0  0  3  0  0  0  0  0  0
  -21.9320   -7.2370   21.3410 O   0  0  0  0  0  0  0  0  0  0  0  0
  -21.8030   -6.5680   22.5320 C   0  0  0  0  0  0  0  0  0  0  0  0
  -21.4010   -7.2260   23.7160 C   0  0  0  0  0  3  0  0  0  0  0  0
  -21.2140   -6.4880   24.9020 C   0  0  0  0  0  3  0  0  0  0  0  0
  -21.4180   -5.0950   24.9060 C   0  0  0  0  0  0  0  0  0  0  0  0
  -21.8130   -4.4390   23.7270 C   0  0  0  0  0  3  0  0  0  0  0  0
  -22.0020   -5.1730   22.5430 C   0  0  0  0  0  0  0  0  0  0  0  0
  -22.3630   -4.5330   21.4060 F   0  0  0  0  0  0  0  0  0  0  0  0
  -21.2310   -4.3860   26.0420 F   0  0  0  0  0  0  0  0  0  0  0  0
  -23.4600  -13.8040   21.2320 C   0  0  0  0  0  0  0  0  0  0  0  0
  -22.8460  -13.1480   22.2110 N   0  0  0  0  0  0  0  0  0  0  0  0
  -22.9990  -14.8520   20.7820 O   0  0  0  0  0  0  0  0  0  0  0  0
  -23.2360  -12.3000   22.5950 H   0  0  0  0  0  0  0  0  0  0  0  0
  -21.9760  -13.5000   22.5830 H   0  0  0  0  0  0  0  0  0  0  0  0
  -26.0770  -15.3310   20.1410 N   0  0  0  0  0  0  0  0  0  0  0  0
  -25.3880  -16.0300   20.3970 H   0  0  0  0  0  0  0  0  0  0  0  0
  -26.9070  -15.7280   19.7160 H   0  0  0  0  0  0  0  0  0  0  0  0
  2  1  1  0
  3  1  1  0
  4  7  1  0
  4  5  1  0
  4  2  1  0
  5  6  1  1
  5  3  1  0
  8  7  1  0
  9 10  1  0
  9  8  1  0
 11 10  1  0
 11 13  1  0
 12 23  2  0
 13 18  1  0
 14 22  1  0
 14 24  1  0
 15 17  1  0
 15 21  1  0
 16 22  1  0
 17 16  1  0
 18 17  2  0
 19 13  2  0
 19 20  1  0
 20 15  2  0
 21 14  1  0
 22 12  1  0
 24 26  2  0
 25 24  1  0
 27 25  1  0
 28 37  2  0
 28 33  1  0
 29 25  1  0
 30 29  1  0
 31 32  1  0
 31 30  1  0
 32 28  1  0
 33 29  1  0
 33 34  2  0
 34 35  1  0
 36 35  2  0
 37 36  1  0
 38 12  1  0
 38 39  1  0
 38 43  1  0
 39 42  1  1
 39 40  1  0
 41 39  1  0
 43 46  1  0
 44 43  1  0
 44 48  1  0
 45 44  2  0
 48 47  1  0
 50 48  1  0
 50 49  1  0
 50 51  1  0
 52  5  1  0
 53 52  1  0
 54 55  1  0
 54 53  1  0
 56 55  1  0
 56 57  1  0
 58 64  1  0
 58 57  1  0
 59 64  1  0
 60 61  1  0
 60 59  1  0
 62 61  1  0
 62 69  1  0
 62 63  1  0
 64 63  1  0
 65 58  2  0
 66 67  2  0
 67 86  1  0
 68 67  1  0
 68 71  1  0
 69 70  1  0
 69 66  1  0
 70 68  2  0
 71 72  1  0
 72 73  2  0
 74 77  1  0
 74 73  1  0
 75 74  2  0
 76 75  1  0
 76 71  2  0
 77 78  1  0
 78 83  2  0
 78 79  1  0
 79 80  2  0
 80 81  1  0
 81 85  1  0
 82 81  2  0
 83 82  1  0
 84 83  1  0
 86 87  1  0
 87 90  1  0
 87 89  1  0
 88 86  2  0
 91 66  1  0
 91 92  1  0
 93 91  1  0
M  ISO  4  10 101  11 101  57 100  58 100
M  END
>  <TORSDO>  (66) 
F 26

>  <SCORE>  (66) 
-9.715

>  <name>  (66) 
65

>  <ligand_id>  (66) 
65

>  <original_smiles>  (66) 
[H]c1c([H])c([H])c2c(c1[H])C([H])([H])C([H])([H])C([H])([H])C2([H])N([H])C(=O)C1([H])N(C(=O)C([H])(N([H])C(=O)C([H])(N([H])C([H])([H])[H])C([H])([H])[H])C(C([H])([H])[H])(C([H])([H])[H])C([H])([H])[H])C([H])([H])c2c([H])c(OC([H])([H])C([H])([H])C([H])([H])C([H])([H])C3([H])C([H])([H])C([H])([H])C([H])([H])[N+]3([H])C([H])([H])C([H])([H])C([H])([H])C([H])([H])C([H])([H])C([H])([H])C(=O)N3C([H])([H])C([H])([H])C([H])([H])C([H])(n4nc(-c5c([H])c([H])c(Oc6c([H])c([H])c(F)c([H])c6F)c([H])c5[H])c(C(=O)N([H])[H])c4N([H])[H])C3([H])[H])c([H])c([H])c2C1([H])[H]

>  <smiles>  (66) 
[H]c1c([H])c([H])c2c(c1[H])C([H])([H])C([H])([H])C([H])([H])C2([H])N([H])C(=O)C1([H])N(C(=O)C([H])(N([H])C(=O)C([H])(N([H])C([H])([H])[H])C([H])([H])[H])C(C([H])([H])[H])(C([H])([H])[H])C([H])([H])[H])C([H])([H])c2c([H])c(OC([H])([H])C([H])([H])C([H])([H])C([H])([H])C3([H])C([H])([H])C([H])([H])C([H])([H])[N+]3([H])C([H])([H])C([H])([H])C([H])([H])C([H])([H])C([H])([H])C([H])([H])C(=O)N3C([H])([H])C([H])([H])C([H])([H])C([H])(n4nc(-c5c([H])c([H])c(Oc6c([H])c([H])c(F)c([H])c6F)c([H])c5[H])c(C(=O)N([H])[H])c4N([H])[H])C3([H])[H])c([H])c([H])c2C1([H])[H]

$$$$
66:0:0
     RDKit          3D

 92100  0  0  1  0  0  0  0  0999 V2000
  -30.3850  -17.9540   21.0460 C   0  0  0  0  0  0  0  0  0  0  0  0
  -30.1750  -19.3630   20.2750 C   0  0  0  0  0  3  0  0  0  0  0  0
  -30.7970  -16.7970   20.0270 C   0  0  1  0  0  0  0  0  0  0  0  0
  -29.8710  -17.3340   18.8220 C   0  0  1  0  0  0  0  0  0  0  0  0
  -32.2620  -17.2380   19.6450 C   0  0  0  0  0  1  0  0  0  0  0  0
  -30.4950  -17.1590   17.4070 C   0  0  0  0  0  1  0  0  0  0  0  0
  -28.4910  -16.6830   18.7560 C   0  0  0  0  0  1  0  0  0  0  0  0
  -29.5600  -18.8030   19.0490 N   0  0  0  0  0  4  0  0  0  0  0  0
  -30.2830  -17.7790   22.2640 O   0  0  0  0  0  0  0  0  0  0  0  0
  -28.5590  -18.8810   19.1480 H   0  0  0  0  0  0  0  0  0  0  0  0
  -29.8260  -19.3540   18.2480 H   0  0  0  0  0  0  0  0  0  0  0  0
  -31.0350  -15.1640   20.4740 C   0  0  0  0  0  0  0  0  0  0  0  0
  -30.7720  -12.8330   19.5660 C   0  0  0  0  0  2  0  0  0  0  0  0
  -29.8830  -12.7180   18.3180 C   0  0  0  0  0  2  0  0  0  0  0  0
  -28.4250  -12.4700   18.7360 C   0  0  0  0  0  2  0  0  0  0  0  0
  -27.9610  -13.4080   19.8770 C   0  0  0  0  0  3  0  0  0  0  0  0
  -29.0040  -13.6050   20.9980 C   0  0  0  0  0  2  0  0  0  0  0  0
  -30.2690  -13.9990   20.3490 N   0  0  0  0  0  0  0  0  0  0  0  0
  -32.2210  -14.8890   20.6620 O   0  0  0  0  0  0  0  0  0  0  0  0
  -25.5720  -14.0140   20.5560 C   0  0  0  0  0  0  0  0  0  0  0  0
  -24.4860  -13.2410   20.8550 C   0  0  0  0  0  0  0  0  0  0  0  0
  -24.9450  -11.8900   20.8130 C   0  0  0  0  0  0  0  0  0  0  0  0
  -26.6170  -13.1260   20.3480 N   0  0  0  0  0  0  0  0  0  0  0  0
  -26.2480  -11.8450   20.5700 N   0  0  0  0  0  0  0  0  0  0  0  0
  -24.2080  -10.6290   20.9330 C   0  0  0  0  0  0  0  0  0  0  0  0
  -24.5790   -9.6500   21.8810 C   0  0  0  0  0  3  0  0  0  0  0  0
  -23.8430   -8.4520   21.9960 C   0  0  0  0  0  3  0  0  0  0  0  0
  -22.7220   -8.2260   21.1620 C   0  0  0  0  0  0  0  0  0  0  0  0
  -22.3710   -9.1940   20.2040 C   0  0  0  0  0  3  0  0  0  0  0  0
  -23.1090  -10.3840   20.0860 C   0  0  0  0  0  3  0  0  0  0  0  0
  -21.9620   -7.0820   21.1860 O   0  0  0  0  0  0  0  0  0  0  0  0
  -21.8110   -6.3470   22.3340 C   0  0  0  0  0  0  0  0  0  0  0  0
  -21.2340   -6.8930   23.5000 C   0  0  0  0  0  3  0  0  0  0  0  0
  -21.0400   -6.0790   24.6350 C   0  0  0  0  0  3  0  0  0  0  0  0
  -21.4080   -4.7220   24.6010 C   0  0  0  0  0  0  0  0  0  0  0  0
  -21.9790   -4.1760   23.4380 C   0  0  0  0  0  3  0  0  0  0  0  0
  -22.1780   -4.9850   22.3060 C   0  0  0  0  0  0  0  0  0  0  0  0
  -22.7090   -4.4500   21.1810 F   0  0  0  0  0  0  0  0  0  0  0  0
  -21.2120   -3.9390   25.6880 F   0  0  0  0  0  0  0  0  0  0  0  0
  -23.0820  -13.7240   21.0660 C   0  0  0  0  0  0  0  0  0  0  0  0
  -22.3140  -13.0220   21.8900 N   0  0  0  0  0  0  0  0  0  0  0  0
  -22.6740  -14.7570   20.5390 O   0  0  0  0  0  0  0  0  0  0  0  0
  -22.6600  -12.1860   22.3390 H   0  0  0  0  0  0  0  0  0  0  0  0
  -21.3690  -13.3230   22.0770 H   0  0  0  0  0  0  0  0  0  0  0  0
  -25.7430  -15.3860   20.4100 N   0  0  0  0  0  0  0  0  0  0  0  0
  -24.9660  -16.0350   20.4830 H   0  0  0  0  0  0  0  0  0  0  0  0
  -26.6050  -15.8260   20.1220 H   0  0  0  0  0  0  0  0  0  0  0  0
  -29.4780  -20.7230   20.9370 C   0  0  0  0  0  2  0  0  0  0  0  0
  -29.1810  -22.1300   20.1060 C   0  0  0  0  0  2  0  0  0  0  0  0
  -28.9780  -23.6290   20.7920 C   0  0  0  0  0  3  0  0  0  0  0  0
  -28.2430  -24.8910   20.0140 C   0  0  0  0  0  3  0  0  0  0  0  0
  -28.3160  -26.3730   20.4060 O   0  0  0  0  0  0  0  0  0  0  0  0
  -24.5020  -31.9660   23.1570 C   0  0  0  0  0  0  0  0  0  0  0  0
  -27.2140  -27.2760   20.2720 C   0  0  0  0  0  0  0  0  0  0  0  0
  -23.3400  -30.4930   21.5540 C   0  0  0  0  0  3  0  0  0  0  0  0
  -24.8350  -28.9220   20.1820 C   0  0  0  0  0  0  0  0  0  0  0  0
  -25.8850  -30.8280   21.3920 C   0  0  0  0  0  2  0  0  0  0  0  0
  -25.9940  -29.4250   20.7860 C   0  0  0  0  0  0  0  0  0  0  0  0
  -27.1820  -28.6110   20.8220 C   0  0  0  0  0  3  0  0  0  0  0  0
  -26.0340  -26.8690   19.6080 C   0  0  0  0  0  3  0  0  0  0  0  0
  -24.8650  -27.6570   19.5780 C   0  0  0  0  0  3  0  0  0  0  0  0
  -23.5840  -29.7800   20.1960 C   0  0  0  0  0  2  0  0  0  0  0  0
  -24.5930  -31.1190   22.0890 N   0  0  0  0  0  0  0  0  0  0  0  0
  -23.4070  -32.2410   23.6730 O   0  0  0  0  0  0  0  0  0  0  0  0
  -22.6840  -29.5000   22.5430 C   0  0  0  0  0  0  0  0  0  0  0  0
  -21.3630  -29.2870   22.4100 N   0  0  0  0  0  0  0  0  0  0  0  0
  -23.3650  -28.9200   23.3930 O   0  0  0  0  0  0  0  0  0  0  0  0
  -20.8660  -29.8080   21.7000 H   0  0  0  0  0  0  0  0  0  0  0  0
  -18.0020  -28.0660   22.9620 C   0  0  0  0  0  0  0  0  0  0  0  0
  -20.5600  -28.3540   23.2030 C   0  0  0  0  0  3  0  0  0  0  0  0
  -20.6680  -26.9130   22.6490 C   0  0  0  0  0  2  0  0  0  0  0  0
  -19.5610  -26.5690   21.6480 C   0  0  0  0  0  2  0  0  0  0  0  0
  -18.1830  -26.7120   22.2980 C   0  0  0  0  0  2  0  0  0  0  0  0
  -19.1170  -28.8450   23.3720 C   0  0  0  0  0  0  0  0  0  0  0  0
  -18.8950  -30.1130   23.9480 C   0  0  0  0  0  3  0  0  0  0  0  0
  -17.5870  -30.6030   24.1250 C   0  0  0  0  0  3  0  0  0  0  0  0
  -16.4850  -29.8220   23.7340 C   0  0  0  0  0  3  0  0  0  0  0  0
  -16.6940  -28.5560   23.1580 C   0  0  0  0  0  3  0  0  0  0  0  0
  -25.7650  -32.6480   23.7680 C   0  0  0  0  0  3  0  0  0  0  0  0
  -26.3050  -31.9130   25.0560 C   0  0  1  0  0  0  0  0  0  0  0  0
  -25.2090  -31.5980   26.0990 C   0  0  0  0  0  1  0  0  0  0  0  0
  -26.9920  -30.5790   24.6820 C   0  0  0  0  0  1  0  0  0  0  0  0
  -27.3820  -32.7840   25.7450 C   0  0  0  0  0  1  0  0  0  0  0  0
  -25.4130  -34.0410   24.0820 N   0  0  0  0  0  0  0  0  0  0  0  0
  -25.7030  -35.0950   23.3080 C   0  0  0  0  0  0  0  0  0  0  0  0
  -26.3640  -34.9990   22.2690 O   0  0  0  0  0  0  0  0  0  0  0  0
  -24.8240  -34.1870   24.8890 H   0  0  0  0  0  0  0  0  0  0  0  0
  -23.9200  -36.8360   22.9540 C   0  0  0  0  0  1  0  0  0  0  0  0
  -25.1800  -36.4740   23.7560 C   0  0  0  0  0  3  0  0  0  0  0  0
  -27.2850  -37.4430   24.5710 C   0  0  0  0  0  1  0  0  0  0  0  0
  -26.1790  -37.5570   23.6240 N   0  0  0  0  0  0  0  0  0  0  0  0
  -25.7430  -38.4660   23.7520 H   0  0  0  0  0  0  0  0  0  0  0  0
  1  9  2  0
  2 48  1  0
  2  1  1  0
  3  5  1  6
  3 12  1  0
  3  1  1  0
  4  8  1  0
  4  3  1  0
  4  6  1  6
  7  4  1  0
  8 10  1  0
  8  2  1  0
 11  8  1  0
 12 19  2  0
 13 18  1  0
 14 15  1  0
 14 13  1  0
 16 15  1  0
 16 23  1  0
 16 17  1  0
 18 12  1  0
 18 17  1  0
 20 21  2  0
 21 40  1  0
 22 21  1  0
 22 25  1  0
 23 20  1  0
 23 24  1  0
 24 22  2  0
 25 26  1  0
 26 27  2  0
 28 31  1  0
 28 27  1  0
 29 28  2  0
 30 29  1  0
 30 25  2  0
 31 32  1  0
 32 33  1  0
 33 34  2  0
 35 34  1  0
 35 39  1  0
 36 35  2  0
 37 32  2  0
 37 36  1  0
 38 37  1  0
 40 41  1  0
 41 44  1  0
 41 43  1  0
 42 40  2  0
 45 46  1  0
 45 20  1  0
 47 45  1  0
 49 50  1  0
 49 48  1  0
 51 52  1  0
 51 50  2  0
 53 64  2  0
 54 52  1  0
 54 59  1  0
 55 63  1  0
 55 65  1  0
 56 62  1  0
 56 58  1  0
 57 63  1  0
 58 59  2  0
 58 57  1  0
 60 54  2  0
 61 60  1  0
 61 56  2  0
 62 55  1  0
 63 53  1  0
 65 67  2  0
 66 65  1  0
 68 66  1  0
 69 78  2  0
 69 74  1  0
 70 66  1  0
 70 74  1  0
 71 70  1  0
 72 73  1  0
 72 71  1  0
 73 69  1  0
 74 75  2  0
 75 76  1  0
 77 76  2  0
 78 77  1  0
 79 53  1  0
 79 84  1  0
 79 80  1  0
 80 83  1  1
 80 81  1  0
 82 80  1  0
 84 87  1  0
 85 89  1  0
 85 84  1  0
 86 85  2  0
 89 88  1  0
 91 92  1  0
 91 89  1  0
 91 90  1  0
M  ISO  4   3 100  12 100  51 101  52 101
M  END
>  <TORSDO>  (67) 
F 20

>  <SCORE>  (67) 
-13.344

>  <name>  (67) 
66

>  <ligand_id>  (67) 
66

>  <original_smiles>  (67) 
[H]c1c([H])c([H])c2c(c1[H])C([H])([H])C([H])([H])C([H])([H])C2([H])N([H])C(=O)C1([H])N(C(=O)C([H])(N([H])C(=O)C([H])(N([H])C([H])([H])[H])C([H])([H])[H])C(C([H])([H])[H])(C([H])([H])[H])C([H])([H])[H])C([H])([H])c2c([H])c(OC([H])([H])C([H])([H])C([H])([H])C([H])([H])C3([H])C(=O)C(C(=O)N4C([H])([H])C([H])([H])C([H])([H])C([H])(n5nc(-c6c([H])c([H])c(Oc7c([H])c([H])c(F)c([H])c7F)c([H])c6[H])c(C(=O)N([H])[H])c5N([H])[H])C4([H])[H])(C([H])([H])[H])C(C([H])([H])[H])(C([H])([H])[H])[N+]3([H])[H])c([H])c([H])c2C1([H])[H]

>  <smiles>  (67) 
[H]c1c([H])c([H])c2c(c1[H])C([H])([H])C([H])([H])C([H])([H])C2([H])N([H])C(=O)C1([H])N(C(=O)C([H])(N([H])C(=O)C([H])(N([H])C([H])([H])[H])C([H])([H])[H])C(C([H])([H])[H])(C([H])([H])[H])C([H])([H])[H])C([H])([H])c2c([H])c(OC([H])([H])C([H])([H])C([H])([H])C([H])([H])C3([H])C(=O)C(C(=O)N4C([H])([H])C([H])([H])C([H])([H])C([H])(n5nc(-c6c([H])c([H])c(Oc7c([H])c([H])c(F)c([H])c7F)c([H])c6[H])c(C(=O)N([H])[H])c5N([H])[H])C4([H])[H])(C([H])([H])[H])C(C([H])([H])[H])(C([H])([H])[H])[N+]3([H])[H])c([H])c([H])c2C1([H])[H]

$$$$
67:0:0
     RDKit          3D

 86 94  0  0  1  0  0  0  0  0999 V2000
  -28.7290  -21.3490   20.7780 C   0  0  0  0  0  2  0  0  0  0  0  0
  -29.8550  -18.4120   21.2230 C   0  0  0  0  0  2  0  0  0  0  0  0
  -29.5430  -16.8950   20.5580 C   0  0  0  0  0  3  0  0  0  0  0  0
  -29.4560  -19.7890   20.3120 C   0  0  0  0  0  3  0  0  0  0  0  0
  -29.2820  -17.6080   19.1830 C   0  0  0  0  0  3  0  0  0  0  0  0
  -28.3430  -16.8340   18.2520 C   0  0  0  0  0  1  0  0  0  0  0  0
  -28.7190  -18.9660   19.3770 O   0  0  0  0  0  0  0  0  0  0  0  0
  -30.4280  -15.3910   20.5410 C   0  0  0  0  0  0  0  0  0  0  0  0
  -30.4710  -12.9690   19.6500 C   0  0  0  0  0  2  0  0  0  0  0  0
  -29.5850  -12.8260   18.3850 C   0  0  0  0  0  2  0  0  0  0  0  0
  -28.1180  -12.5540   18.7680 C   0  0  0  0  0  2  0  0  0  0  0  0
  -27.6340  -13.4790   19.9130 C   0  0  0  0  0  3  0  0  0  0  0  0
  -28.6480  -13.5750   21.0690 C   0  0  0  0  0  2  0  0  0  0  0  0
  -29.9120  -14.0720   20.5040 N   0  0  0  0  0  0  0  0  0  0  0  0
  -31.6550  -15.4260   20.3600 O   0  0  0  0  0  0  0  0  0  0  0  0
  -25.2310  -14.0000   20.5960 C   0  0  0  0  0  0  0  0  0  0  0  0
  -24.1700  -13.2040   20.9280 C   0  0  0  0  0  0  0  0  0  0  0  0
  -24.6610  -11.8610   20.9060 C   0  0  0  0  0  0  0  0  0  0  0  0
  -26.2950  -13.1420   20.3780 N   0  0  0  0  0  0  0  0  0  0  0  0
  -25.9620  -11.8510   20.6350 N   0  0  0  0  0  0  0  0  0  0  0  0
  -23.9490  -10.5860   21.0680 C   0  0  0  0  0  0  0  0  0  0  0  0
  -24.3590   -9.6250   22.0200 C   0  0  0  0  0  3  0  0  0  0  0  0
  -23.6450   -8.4170   22.1700 C   0  0  0  0  0  3  0  0  0  0  0  0
  -22.5070   -8.1600   21.3700 C   0  0  0  0  0  0  0  0  0  0  0  0
  -22.1170   -9.1090   20.4090 C   0  0  0  0  0  3  0  0  0  0  0  0
  -22.8310  -10.3090   20.2570 C   0  0  0  0  0  3  0  0  0  0  0  0
  -21.7680   -7.0030   21.4280 O   0  0  0  0  0  0  0  0  0  0  0  0
  -21.6730   -6.2680   22.5820 C   0  0  0  0  0  0  0  0  0  0  0  0
  -21.1240   -6.8060   23.7660 C   0  0  0  0  0  3  0  0  0  0  0  0
  -20.9820   -5.9930   24.9090 C   0  0  0  0  0  3  0  0  0  0  0  0
  -21.3780   -4.6430   24.8680 C   0  0  0  0  0  0  0  0  0  0  0  0
  -21.9190   -4.1030   23.6880 C   0  0  0  0  0  3  0  0  0  0  0  0
  -22.0630   -4.9130   22.5470 C   0  0  0  0  0  0  0  0  0  0  0  0
  -22.5650   -4.3830   21.4060 F   0  0  0  0  0  0  0  0  0  0  0  0
  -21.2330   -3.8600   25.9630 F   0  0  0  0  0  0  0  0  0  0  0  0
  -22.7570  -13.6560   21.1550 C   0  0  0  0  0  0  0  0  0  0  0  0
  -22.0140  -12.9490   21.9980 N   0  0  0  0  0  0  0  0  0  0  0  0
  -22.3200  -14.6740   20.6200 O   0  0  0  0  0  0  0  0  0  0  0  0
  -22.3800  -12.1250   22.4520 H   0  0  0  0  0  0  0  0  0  0  0  0
  -21.0650  -13.2340   22.1910 H   0  0  0  0  0  0  0  0  0  0  0  0
  -25.3760  -15.3740   20.4340 N   0  0  0  0  0  0  0  0  0  0  0  0
  -24.5960  -16.0150   20.5320 H   0  0  0  0  0  0  0  0  0  0  0  0
  -26.2290  -15.8340   20.1410 H   0  0  0  0  0  0  0  0  0  0  0  0
  -28.8870  -23.0270   20.2050 C   0  0  0  0  0  3  0  0  0  0  0  0
  -27.9580  -24.5080   20.5380 C   0  0  0  0  0  3  0  0  0  0  0  0
  -28.1900  -26.1020   20.2810 O   0  0  0  0  0  0  0  0  0  0  0  0
  -24.5820  -31.9960   23.2590 C   0  0  0  0  0  0  0  0  0  0  0  0
  -27.1510  -27.1550   20.2620 C   0  0  0  0  0  0  0  0  0  0  0  0
  -23.3850  -30.5830   21.6380 C   0  0  0  0  0  3  0  0  0  0  0  0
  -24.8330  -28.9860   20.2200 C   0  0  0  0  0  0  0  0  0  0  0  0
  -25.9460  -30.8230   21.4690 C   0  0  0  0  0  2  0  0  0  0  0  0
  -26.0210  -29.4140   20.8240 C   0  0  0  0  0  0  0  0  0  0  0  0
  -27.1790  -28.5200   20.8180 C   0  0  0  0  0  3  0  0  0  0  0  0
  -25.9310  -26.8650   19.6110 C   0  0  0  0  0  3  0  0  0  0  0  0
  -24.8090  -27.7290   19.5940 C   0  0  0  0  0  3  0  0  0  0  0  0
  -23.6080  -29.8940   20.2660 C   0  0  0  0  0  2  0  0  0  0  0  0
  -24.6590  -31.1600   22.1760 N   0  0  0  0  0  0  0  0  0  0  0  0
  -23.4950  -32.2830   23.7870 O   0  0  0  0  0  0  0  0  0  0  0  0
  -22.7060  -29.5880   22.6140 C   0  0  0  0  0  0  0  0  0  0  0  0
  -21.3840  -29.3810   22.4720 N   0  0  0  0  0  0  0  0  0  0  0  0
  -23.3750  -28.9990   23.4670 O   0  0  0  0  0  0  0  0  0  0  0  0
  -20.8960  -29.9090   21.7610 H   0  0  0  0  0  0  0  0  0  0  0  0
  -18.0300  -28.0840   22.9480 C   0  0  0  0  0  0  0  0  0  0  0  0
  -20.5740  -28.4390   23.2520 C   0  0  0  0  0  3  0  0  0  0  0  0
  -20.7320  -26.9960   22.7170 C   0  0  0  0  0  2  0  0  0  0  0  0
  -19.6600  -26.6130   21.6920 C   0  0  0  0  0  2  0  0  0  0  0  0
  -18.2630  -26.7270   22.3070 C   0  0  0  0  0  2  0  0  0  0  0  0
  -19.1160  -28.8950   23.3760 C   0  0  0  0  0  0  0  0  0  0  0  0
  -18.8430  -30.1610   23.9380 C   0  0  0  0  0  3  0  0  0  0  0  0
  -17.5180  -30.6200   24.0730 C   0  0  0  0  0  3  0  0  0  0  0  0
  -16.4480  -29.8080   23.6590 C   0  0  0  0  0  3  0  0  0  0  0  0
  -16.7050  -28.5420   23.1030 C   0  0  0  0  0  3  0  0  0  0  0  0
  -25.8550  -32.6500   23.8780 C   0  0  0  0  0  3  0  0  0  0  0  0
  -26.3620  -31.9090   25.1780 C   0  0  1  0  0  0  0  0  0  0  0  0
  -25.2600  -31.6900   26.2410 C   0  0  0  0  0  1  0  0  0  0  0  0
  -26.9570  -30.5250   24.8280 C   0  0  0  0  0  1  0  0  0  0  0  0
  -27.5040  -32.7230   25.8330 C   0  0  0  0  0  1  0  0  0  0  0  0
  -25.5380  -34.0550   24.1870 N   0  0  0  0  0  0  0  0  0  0  0  0
  -25.8750  -35.1040   23.4250 C   0  0  0  0  0  0  0  0  0  0  0  0
  -26.5510  -34.9900   22.4000 O   0  0  0  0  0  0  0  0  0  0  0  0
  -24.9400  -34.2160   24.9850 H   0  0  0  0  0  0  0  0  0  0  0  0
  -24.1680  -36.9120   23.0350 C   0  0  0  0  0  1  0  0  0  0  0  0
  -25.3910  -36.4980   23.8690 C   0  0  0  0  0  3  0  0  0  0  0  0
  -27.5090  -37.3800   24.7460 C   0  0  0  0  0  1  0  0  0  0  0  0
  -26.4320  -37.5450   23.7730 N   0  0  0  0  0  0  0  0  0  0  0  0
  -26.0280  -38.4690   23.9030 H   0  0  0  0  0  0  0  0  0  0  0  0
  3  8  1  0
  3  2  1  0
  4  1  1  0
  4  2  1  0
  5  6  1  0
  5  7  1  0
  5  3  1  0
  7  4  1  0
  9 14  1  0
 10 11  1  0
 10  9  1  0
 12 11  1  0
 12 19  1  0
 12 13  1  0
 14  8  1  0
 14 13  1  0
 15  8  2  0
 16 17  2  0
 17 36  1  0
 18 17  1  0
 18 21  1  0
 19 16  1  0
 19 20  1  0
 20 18  2  0
 21 22  1  0
 22 23  2  0
 24 27  1  0
 24 23  1  0
 25 24  2  0
 26 25  1  0
 26 21  2  0
 27 28  1  0
 28 29  1  0
 29 30  2  0
 31 30  1  0
 31 35  1  0
 32 31  2  0
 33 28  2  0
 33 32  1  0
 34 33  1  0
 36 37  1  0
 37 40  1  0
 37 39  1  0
 38 36  2  0
 41 42  1  0
 41 16  1  0
 43 41  1  0
 44 45  2  0
 44  1  1  0
 46 45  1  0
 47 58  2  0
 48 46  1  0
 48 53  1  0
 49 57  1  0
 49 59  1  0
 50 56  1  0
 50 52  1  0
 51 57  1  0
 52 51  1  0
 53 52  2  0
 54 48  2  0
 55 54  1  0
 55 50  2  0
 56 49  1  0
 57 47  1  0
 59 61  2  0
 60 59  1  0
 62 60  1  0
 63 72  2  0
 63 68  1  0
 64 60  1  0
 64 68  1  0
 65 64  1  0
 66 67  1  0
 66 65  1  0
 67 63  1  0
 68 69  2  0
 69 70  1  0
 71 70  2  0
 72 71  1  0
 73 47  1  0
 73 78  1  0
 73 74  1  0
 74 77  1  1
 74 75  1  0
 76 74  1  0
 78 81  1  0
 79 83  1  0
 79 78  1  0
 80 79  2  0
 83 82  1  0
 85 83  1  0
 85 86  1  0
 85 84  1  0
M  ISO  4   3 100   8 100  45 101  46 101
M  END
>  <TORSDO>  (68) 
F 19

>  <SCORE>  (68) 
-15.582

>  <name>  (68) 
67

>  <ligand_id>  (68) 
67

>  <original_smiles>  (68) 
[H]c1c([H])c([H])c2c(c1[H])C([H])([H])C([H])([H])C([H])([H])C2([H])N([H])C(=O)C1([H])N(C(=O)C([H])(N([H])C(=O)C([H])(N([H])C([H])([H])[H])C([H])([H])[H])C(C([H])([H])[H])(C([H])([H])[H])C([H])([H])[H])C([H])([H])c2c([H])c(OC([H])([H])C([H])([H])C([H])([H])C3([H])OC([H])(C([H])([H])[H])C([H])(C(=O)N4C([H])([H])C([H])([H])C([H])([H])C([H])(n5nc(-c6c([H])c([H])c(Oc7c([H])c([H])c(F)c([H])c7F)c([H])c6[H])c(C(=O)N([H])[H])c5N([H])[H])C4([H])[H])C3([H])[H])c([H])c([H])c2C1([H])[H]

>  <smiles>  (68) 
[H]c1c([H])c([H])c2c(c1[H])C([H])([H])C([H])([H])C([H])([H])C2([H])N([H])C(=O)C1([H])N(C(=O)C([H])(N([H])C(=O)C([H])(N([H])C([H])([H])[H])C([H])([H])[H])C(C([H])([H])[H])(C([H])([H])[H])C([H])([H])[H])C([H])([H])c2c([H])c(OC([H])([H])C([H])([H])C([H])([H])C3([H])OC([H])(C([H])([H])[H])C([H])(C(=O)N4C([H])([H])C([H])([H])C([H])([H])C([H])(n5nc(-c6c([H])c([H])c(Oc7c([H])c([H])c(F)c([H])c7F)c([H])c6[H])c(C(=O)N([H])[H])c5N([H])[H])C4([H])[H])C3([H])[H])c([H])c([H])c2C1([H])[H]

$$$$
69:0:0
     RDKit          3D

 91 99  0  0  1  0  0  0  0  0999 V2000
  -29.9250  -18.6980   22.7080 C   0  0  0  0  0  2  0  0  0  0  0  0
  -31.3460  -18.4020   22.1570 C   0  0  0  0  0  2  0  0  0  0  0  0
  -29.1710  -19.8260   21.9450 C   0  0  0  0  0  2  0  0  0  0  0  0
  -31.2610  -18.2760   20.6320 C   0  0  0  0  0  0  0  0  0  0  0  0
  -29.3080  -19.8560   20.3800 C   0  0  0  0  0  3  0  0  0  0  0  0
  -30.7590  -19.7420   20.0070 N   0  0  1  0  0  4  0  0  0  0  0  0
  -30.7920  -19.6420   19.0040 H   0  0  0  0  0  0  0  0  0  0  0  0
  -26.9440  -18.8020   20.0960 C   0  0  0  0  0  1  0  0  0  0  0  0
  -28.2670  -19.4720   18.0690 C   0  0  0  0  0  1  0  0  0  0  0  0
  -28.3610  -18.9480   19.5140 C   0  0  0  0  0  3  0  0  0  0  0  0
  -31.7470  -16.7460   19.8970 C   0  0  0  0  0  3  0  0  0  0  0  0
  -32.3790  -15.2380   20.4720 C   0  0  0  0  0  0  0  0  0  0  0  0
  -32.1630  -12.7090   20.0390 C   0  0  0  0  0  2  0  0  0  0  0  0
  -31.3270  -12.4260   18.7650 C   0  0  0  0  0  2  0  0  0  0  0  0
  -29.8220  -12.3830   19.0930 C   0  0  0  0  0  2  0  0  0  0  0  0
  -29.3920  -13.5580   20.0060 C   0  0  0  0  0  3  0  0  0  0  0  0
  -30.3580  -13.7780   21.1870 C   0  0  0  0  0  2  0  0  0  0  0  0
  -31.6950  -14.0100   20.6260 N   0  0  0  0  0  0  0  0  0  0  0  0
  -33.6090  -15.1020   20.4560 O   0  0  0  0  0  0  0  0  0  0  0  0
  -27.1290  -14.4820   20.7350 C   0  0  0  0  0  0  0  0  0  0  0  0
  -25.9240  -13.8880   20.9890 C   0  0  0  0  0  0  0  0  0  0  0  0
  -26.1390  -12.4820   20.8430 C   0  0  0  0  0  0  0  0  0  0  0  0
  -28.0040  -13.4550   20.4390 N   0  0  0  0  0  0  0  0  0  0  0  0
  -27.4180  -12.2370   20.5750 N   0  0  0  0  0  0  0  0  0  0  0  0
  -25.1860  -11.3640   20.8820 C   0  0  0  0  0  0  0  0  0  0  0  0
  -25.4260  -10.2120   21.6630 C   0  0  0  0  0  3  0  0  0  0  0  0
  -24.4830   -9.1620   21.7010 C   0  0  0  0  0  3  0  0  0  0  0  0
  -23.2840   -9.2590   20.9540 C   0  0  0  0  0  0  0  0  0  0  0  0
  -23.0610  -10.3970   20.1600 C   0  0  0  0  0  3  0  0  0  0  0  0
  -24.0020  -11.4390   20.1210 C   0  0  0  0  0  3  0  0  0  0  0  0
  -22.3240   -8.2760   20.9080 O   0  0  0  0  0  0  0  0  0  0  0  0
  -22.1230   -7.4160   21.9570 C   0  0  0  0  0  0  0  0  0  0  0  0
  -21.8240   -7.8810   23.2570 C   0  0  0  0  0  3  0  0  0  0  0  0
  -21.5590   -6.9610   24.2910 C   0  0  0  0  0  3  0  0  0  0  0  0
  -21.5810   -5.5780   24.0260 C   0  0  0  0  0  0  0  0  0  0  0  0
  -21.8710   -5.1140   22.7300 C   0  0  0  0  0  3  0  0  0  0  0  0
  -22.1400   -6.0310   21.7000 C   0  0  0  0  0  0  0  0  0  0  0  0
  -22.3990   -5.5780   20.4500 F   0  0  0  0  0  0  0  0  0  0  0  0
  -21.3180   -4.6940   25.0160 F   0  0  0  0  0  0  0  0  0  0  0  0
  -24.6250  -14.5900   21.2470 C   0  0  0  0  0  0  0  0  0  0  0  0
  -23.7410  -13.9800   22.0290 N   0  0  0  0  0  0  0  0  0  0  0  0
  -24.4050  -15.7130   20.7950 O   0  0  0  0  0  0  0  0  0  0  0  0
  -23.9310  -13.0670   22.4170 H   0  0  0  0  0  0  0  0  0  0  0  0
  -22.8650  -14.4330   22.2430 H   0  0  0  0  0  0  0  0  0  0  0  0
  -27.5470  -15.8080   20.6970 N   0  0  0  0  0  0  0  0  0  0  0  0
  -26.9010  -16.5770   20.8330 H   0  0  0  0  0  0  0  0  0  0  0  0
  -28.4690  -16.1070   20.4130 H   0  0  0  0  0  0  0  0  0  0  0  0
  -31.3750  -21.2470   20.3020 C   0  0  0  0  0  2  0  0  0  0  0  0
  -30.6860  -22.8920   20.0640 C   0  0  0  0  0  2  0  0  0  0  0  0
  -30.0310  -24.4000   20.7710 C   0  0  0  0  0  2  0  0  0  0  0  0
  -30.1500  -26.0030   20.5560 O   0  0  0  0  0  0  0  0  0  0  0  0
  -25.8630  -31.3130   23.7320 C   0  0  0  0  0  0  0  0  0  0  0  0
  -29.0520  -26.9880   20.5630 C   0  0  0  0  0  0  0  0  0  0  0  0
  -24.9600  -30.0650   21.8110 C   0  0  0  0  0  3  0  0  0  0  0  0
  -26.6610  -28.7050   20.4260 C   0  0  0  0  0  0  0  0  0  0  0  0
  -27.5040  -30.4250   22.0130 C   0  0  0  0  0  2  0  0  0  0  0  0
  -27.7380  -29.1090   21.2250 C   0  0  0  0  0  0  0  0  0  0  0  0
  -28.9380  -28.2760   21.2650 C   0  0  0  0  0  3  0  0  0  0  0  0
  -27.9400  -26.7140   19.7390 C   0  0  0  0  0  3  0  0  0  0  0  0
  -26.7820  -27.5290   19.6680 C   0  0  0  0  0  3  0  0  0  0  0  0
  -25.3930  -29.5550   20.4110 C   0  0  0  0  0  2  0  0  0  0  0  0
  -26.1220  -30.6210   22.5780 N   0  0  0  0  0  0  0  0  0  0  0  0
  -24.7040  -31.4910   24.1400 O   0  0  0  0  0  0  0  0  0  0  0  0
  -24.2180  -28.9310   22.5670 C   0  0  0  0  0  0  0  0  0  0  0  0
  -22.9100  -28.7620   22.3010 N   0  0  0  0  0  0  0  0  0  0  0  0
  -24.8290  -28.2080   23.3580 O   0  0  0  0  0  0  0  0  0  0  0  0
  -22.4740  -29.3980   21.6480 H   0  0  0  0  0  0  0  0  0  0  0  0
  -19.5220  -27.4690   22.3700 C   0  0  0  0  0  0  0  0  0  0  0  0
  -22.0500  -27.7140   22.8620 C   0  0  0  0  0  3  0  0  0  0  0  0
  -22.2200  -26.3840   22.0910 C   0  0  0  0  0  2  0  0  0  0  0  0
  -21.2030  -26.2070   20.9600 C   0  0  0  0  0  2  0  0  0  0  0  0
  -19.7760  -26.2390   21.5140 C   0  0  0  0  0  2  0  0  0  0  0  0
  -20.5900  -28.1700   22.9890 C   0  0  0  0  0  0  0  0  0  0  0  0
  -20.3010  -29.3240   23.7490 C   0  0  0  0  0  3  0  0  0  0  0  0
  -18.9760  -29.7780   23.8940 C   0  0  0  0  0  3  0  0  0  0  0  0
  -17.9210  -29.0730   23.2890 C   0  0  0  0  0  3  0  0  0  0  0  0
  -18.1950  -27.9190   22.5330 C   0  0  0  0  0  3  0  0  0  0  0  0
  -27.0110  -31.9320   24.5870 C   0  0  0  0  0  3  0  0  0  0  0  0
  -26.6110  -33.3030   24.9540 N   0  0  0  0  0  0  0  0  0  0  0  0
  -27.0320  -34.4150   24.3380 C   0  0  0  0  0  0  0  0  0  0  0  0
  -27.8570  -34.3970   23.4220 O   0  0  0  0  0  0  0  0  0  0  0  0
  -25.8930  -33.3860   25.6590 H   0  0  0  0  0  0  0  0  0  0  0  0
  -25.3460  -36.2190   23.8400 C   0  0  0  0  0  1  0  0  0  0  0  0
  -26.4450  -35.7620   24.8120 C   0  0  0  0  0  3  0  0  0  0  0  0
  -28.3960  -36.5990   26.0490 C   0  0  0  0  0  1  0  0  0  0  0  0
  -27.4590  -36.8300   24.9520 N   0  0  0  0  0  0  0  0  0  0  0  0
  -27.0150  -37.7310   25.1010 H   0  0  0  0  0  0  0  0  0  0  0  0
  -27.3380  -31.0940   25.8830 C   0  0  1  0  0  0  0  0  0  0  0  0
  -26.1000  -30.7880   26.7580 C   0  0  0  0  0  1  0  0  0  0  0  0
  -27.9960  -29.7440   25.5180 C   0  0  0  0  0  1  0  0  0  0  0  0
  -28.3630  -31.8590   26.7550 C   0  0  0  0  0  1  0  0  0  0  0  0
  2  1  1  0
  3  1  1  0
  4  2  1  0
  5 10  1  0
  5  3  1  0
  6 48  1  0
  6  5  1  0
  6  4  1  0
  6  7  1  6
  9 10  1  0
 10  8  1  0
 11 12  1  0
 11  4  2  0
 12 18  1  0
 13 18  1  0
 14 15  1  0
 14 13  1  0
 16 15  1  0
 16 23  1  0
 16 17  1  0
 18 17  1  0
 19 12  2  0
 20 21  2  0
 21 40  1  0
 22 25  1  0
 22 21  1  0
 23 24  1  0
 23 20  1  0
 24 22  2  0
 25 26  1  0
 26 27  2  0
 28 27  1  0
 29 28  2  0
 30 29  1  0
 30 25  2  0
 31 28  1  0
 31 32  1  0
 32 33  1  0
 33 34  2  0
 35 34  1  0
 35 39  1  0
 36 35  2  0
 37 32  2  0
 37 36  1  0
 38 37  1  0
 40 41  1  0
 41 44  1  0
 41 43  1  0
 42 40  2  0
 45 20  1  0
 45 46  1  0
 47 45  1  0
 49 48  1  0
 49 50  1  0
 51 53  1  0
 51 50  1  0
 52 63  2  0
 53 58  1  0
 54 64  1  0
 54 62  1  0
 55 57  1  0
 56 62  1  0
 57 58  2  0
 57 56  1  0
 59 53  2  0
 60 59  1  0
 60 55  2  0
 61 55  1  0
 61 54  1  0
 62 52  1  0
 64 66  2  0
 65 64  1  0
 67 65  1  0
 68 77  2  0
 68 73  1  0
 69 65  1  0
 69 73  1  0
 70 69  1  0
 71 72  1  0
 71 70  1  0
 72 68  1  0
 73 74  2  0
 74 75  1  0
 76 75  2  0
 77 76  1  0
 78 52  1  0
 78 79  1  0
 78 88  1  0
 79 82  1  0
 80 84  1  0
 80 79  1  0
 81 80  2  0
 84 83  1  0
 84 86  1  0
 86 87  1  0
 86 85  1  0
 88 91  1  1
 88 89  1  0
 90 88  1  0
M  ISO  4  11 100  12 100  50 101  51 101
M  END
>  <TORSDO>  (69) 
F 21

>  <SCORE>  (69) 
-7.472

>  <name>  (69) 
69

>  <ligand_id>  (69) 
69

>  <original_smiles>  (69) 
[H]c1c([H])c([H])c2c(c1[H])C([H])([H])C([H])([H])C([H])([H])C2([H])N([H])C(=O)C1([H])N(C(=O)C([H])(N([H])C(=O)C([H])(N([H])C([H])([H])[H])C([H])([H])[H])C(C([H])([H])[H])(C([H])([H])[H])C([H])([H])[H])C([H])([H])c2c([H])c(OC([H])([H])C([H])([H])C([H])([H])[N+]3([H])C([H])(C([H])([H])C(=O)N4C([H])([H])C([H])([H])C([H])([H])C([H])(n5nc(-c6c([H])c([H])c(Oc7c([H])c([H])c(F)c([H])c7F)c([H])c6[H])c(C(=O)N([H])[H])c5N([H])[H])C4([H])[H])C([H])([H])C([H])([H])C([H])([H])C3([H])C([H])(C([H])([H])[H])C([H])([H])[H])c([H])c([H])c2C1([H])[H]

>  <smiles>  (69) 
[H]c1c([H])c([H])c2c(c1[H])C([H])([H])C([H])([H])C([H])([H])C2([H])N([H])C(=O)C1([H])N(C(=O)C([H])(N([H])C(=O)C([H])(N([H])C([H])([H])[H])C([H])([H])[H])C(C([H])([H])[H])(C([H])([H])[H])C([H])([H])[H])C([H])([H])c2c([H])c(OC([H])([H])C([H])([H])C([H])([H])[N+]3([H])C([H])(C([H])([H])C(=O)N4C([H])([H])C([H])([H])C([H])([H])C([H])(n5nc(-c6c([H])c([H])c(Oc7c([H])c([H])c(F)c([H])c7F)c([H])c6[H])c(C(=O)N([H])[H])c5N([H])[H])C4([H])[H])C([H])([H])C([H])([H])C([H])([H])C3([H])C([H])(C([H])([H])[H])C([H])([H])[H])c([H])c([H])c2C1([H])[H]

$$$$
70:0:0
     RDKit          3D

 94102  0  0  1  0  0  0  0  0999 V2000
  -30.3270  -20.9820   22.6980 C   0  0  0  0  0  2  0  0  0  0  0  0
  -29.9400  -23.4600   22.4070 C   0  0  0  0  0  2  0  0  0  0  0  0
  -30.0080  -22.0800   20.4410 C   0  0  0  0  0  2  0  0  0  0  0  0
  -29.7070  -22.2430   23.3270 C   0  0  0  0  0  3  0  0  0  0  0  0
  -29.7950  -20.7710   21.2640 C   0  0  0  0  0  3  0  0  0  0  0  0
  -29.3480  -23.2360   21.0800 N   0  0  0  0  0  0  0  0  0  0  0  0
  -30.4200  -19.5870   20.6100 N   0  0  0  0  0  4  0  0  0  0  0  0
  -31.4230  -19.6650   20.6780 H   0  0  0  0  0  0  0  0  0  0  0  0
  -30.1830  -19.6230   19.6310 H   0  0  0  0  0  0  0  0  0  0  0  0
  -29.9900  -18.2570   21.1270 C   0  0  0  0  0  2  0  0  0  0  0  0
  -30.7000  -17.0700   20.4300 C   0  0  0  0  0  2  0  0  0  0  0  0
  -30.2310  -15.6720   20.9250 C   0  0  0  0  0  2  0  0  0  0  0  0
  -30.8690  -14.4900   20.1570 C   0  0  0  0  0  0  0  0  0  0  0  0
  -30.5390  -12.3410   18.9800 C   0  0  0  0  0  2  0  0  0  0  0  0
  -29.5500  -12.5500   17.8160 C   0  0  0  0  0  2  0  0  0  0  0  0
  -28.0930  -12.4030   18.3000 C   0  0  0  0  0  2  0  0  0  0  0  0
  -27.8020  -13.2320   19.5810 C   0  0  0  0  0  3  0  0  0  0  0  0
  -28.9000  -13.0010   20.6440 C   0  0  0  0  0  2  0  0  0  0  0  0
  -30.2000  -13.3110   20.0320 N   0  0  0  0  0  0  0  0  0  0  0  0
  -31.9510  -14.6860   19.5950 O   0  0  0  0  0  0  0  0  0  0  0  0
  -25.4260  -13.8310   20.3710 C   0  0  0  0  0  0  0  0  0  0  0  0
  -24.3740  -13.0550   20.7780 C   0  0  0  0  0  0  0  0  0  0  0  0
  -24.8400  -11.7040   20.7300 C   0  0  0  0  0  0  0  0  0  0  0  0
  -26.4670  -12.9540   20.1060 N   0  0  0  0  0  0  0  0  0  0  0  0
  -26.1180  -11.6700   20.3760 N   0  0  0  0  0  0  0  0  0  0  0  0
  -24.1260  -10.4390   20.9460 C   0  0  0  0  0  0  0  0  0  0  0  0
  -24.5720   -9.4930   21.8950 C   0  0  0  0  0  3  0  0  0  0  0  0
  -23.8590   -8.2910   22.0970 C   0  0  0  0  0  3  0  0  0  0  0  0
  -22.6870   -8.0280   21.3500 C   0  0  0  0  0  0  0  0  0  0  0  0
  -22.2600   -8.9620   20.3910 C   0  0  0  0  0  3  0  0  0  0  0  0
  -22.9730  -10.1550   20.1860 C   0  0  0  0  0  3  0  0  0  0  0  0
  -21.9450   -6.8770   21.4610 O   0  0  0  0  0  0  0  0  0  0  0  0
  -21.8850   -6.1690   22.6350 C   0  0  0  0  0  0  0  0  0  0  0  0
  -21.4010   -6.7460   23.8290 C   0  0  0  0  0  3  0  0  0  0  0  0
  -21.2920   -5.9620   24.9950 C   0  0  0  0  0  3  0  0  0  0  0  0
  -21.6570   -4.6030   24.9680 C   0  0  0  0  0  0  0  0  0  0  0  0
  -22.1330   -4.0250   23.7780 C   0  0  0  0  0  3  0  0  0  0  0  0
  -22.2440   -4.8050   22.6140 C   0  0  0  0  0  0  0  0  0  0  0  0
  -22.6840   -4.2390   21.4650 F   0  0  0  0  0  0  0  0  0  0  0  0
  -21.5440   -3.8480   26.0860 F   0  0  0  0  0  0  0  0  0  0  0  0
  -22.9850  -13.5250   21.1010 C   0  0  0  0  0  0  0  0  0  0  0  0
  -22.2900  -12.8220   21.9880 N   0  0  0  0  0  0  0  0  0  0  0  0
  -22.5250  -14.5510   20.6010 O   0  0  0  0  0  0  0  0  0  0  0  0
  -22.6750  -11.9920   22.4150 H   0  0  0  0  0  0  0  0  0  0  0  0
  -21.3600  -13.1200   22.2470 H   0  0  0  0  0  0  0  0  0  0  0  0
  -25.5790  -15.2020   20.1870 N   0  0  0  0  0  0  0  0  0  0  0  0
  -24.8130  -15.8540   20.3180 H   0  0  0  0  0  0  0  0  0  0  0  0
  -26.4150  -15.6410   19.8240 H   0  0  0  0  0  0  0  0  0  0  0  0
  -30.2600  -22.5140   24.7420 C   0  0  0  0  0  2  0  0  0  0  0  0
  -30.0000  -21.4240   25.6100 O   0  0  0  0  0  0  0  0  0  0  0  0
  -29.0580  -21.3630   25.7350 H   0  0  0  0  0  0  0  0  0  0  0  0
  -29.4560  -24.4530   20.2530 C   0  0  0  0  0  2  0  0  0  0  0  0
  -28.4280  -25.5390   20.6720 C   0  0  0  0  0  2  0  0  0  0  0  0
  -28.5010  -26.7260   19.8700 O   0  0  0  0  0  0  0  0  0  0  0  0
  -24.6710  -31.7380   23.1790 C   0  0  0  0  0  0  0  0  0  0  0  0
  -27.3440  -27.4710   19.8970 C   0  0  0  0  0  0  0  0  0  0  0  0
  -23.4720  -30.4030   21.4750 C   0  0  0  0  0  3  0  0  0  0  0  0
  -24.9370  -28.9480   19.9770 C   0  0  0  0  0  0  0  0  0  0  0  0
  -25.9940  -30.7960   21.2890 C   0  0  0  0  0  2  0  0  0  0  0  0
  -26.0920  -29.4580   20.5860 C   0  0  0  0  0  0  0  0  0  0  0  0
  -27.3020  -28.7270   20.5420 C   0  0  0  0  0  3  0  0  0  0  0  0
  -26.1770  -26.9770   19.2770 C   0  0  0  0  0  3  0  0  0  0  0  0
  -24.9750  -27.7060   19.3190 C   0  0  0  0  0  3  0  0  0  0  0  0
  -23.6850  -29.7900   20.0660 C   0  0  0  0  0  2  0  0  0  0  0  0
  -24.7300  -30.9910   22.0400 N   0  0  0  0  0  0  0  0  0  0  0  0
  -23.5890  -31.9760   23.7340 O   0  0  0  0  0  0  0  0  0  0  0  0
  -22.8310  -29.3340   22.3900 C   0  0  0  0  0  0  0  0  0  0  0  0
  -21.5090  -29.1450   22.2540 N   0  0  0  0  0  0  0  0  0  0  0  0
  -23.5210  -28.6790   23.1750 O   0  0  0  0  0  0  0  0  0  0  0  0
  -21.0140  -29.7280   21.5930 H   0  0  0  0  0  0  0  0  0  0  0  0
  -18.1450  -27.9040   22.6970 C   0  0  0  0  0  0  0  0  0  0  0  0
  -20.7000  -28.1670   22.9800 C   0  0  0  0  0  3  0  0  0  0  0  0
  -20.8130  -26.7650   22.3380 C   0  0  0  0  0  2  0  0  0  0  0  0
  -19.7140  -26.4810   21.3100 C   0  0  0  0  0  2  0  0  0  0  0  0
  -18.3310  -26.5870   21.9600 C   0  0  0  0  0  2  0  0  0  0  0  0
  -19.2580  -28.6530   23.1610 C   0  0  0  0  0  0  0  0  0  0  0  0
  -19.0310  -29.8860   23.8090 C   0  0  0  0  0  3  0  0  0  0  0  0
  -17.7240  -30.3710   23.9960 C   0  0  0  0  0  3  0  0  0  0  0  0
  -16.6250  -29.6180   23.5490 C   0  0  0  0  0  3  0  0  0  0  0  0
  -16.8350  -28.3870   22.9040 C   0  0  0  0  0  3  0  0  0  0  0  0
  -25.9540  -32.3500   23.8240 C   0  0  0  0  0  3  0  0  0  0  0  0
  -25.6400  -33.7320   24.2080 N   0  0  0  0  0  0  0  0  0  0  0  0
  -25.9790  -34.8140   23.4930 C   0  0  0  0  0  0  0  0  0  0  0  0
  -26.6580  -34.7520   22.4640 O   0  0  0  0  0  0  0  0  0  0  0  0
  -25.0400  -33.8550   25.0090 H   0  0  0  0  0  0  0  0  0  0  0  0
  -24.2590  -36.6210   23.1810 C   0  0  0  0  0  1  0  0  0  0  0  0
  -25.4830  -36.1830   23.9980 C   0  0  0  0  0  3  0  0  0  0  0  0
  -27.6000  -37.0310   24.9100 C   0  0  0  0  0  1  0  0  0  0  0  0
  -26.5190  -37.2380   23.9480 N   0  0  0  0  0  0  0  0  0  0  0  0
  -26.1110  -38.1520   24.1210 H   0  0  0  0  0  0  0  0  0  0  0  0
  -26.4760  -31.5300   25.0680 C   0  0  1  0  0  0  0  0  0  0  0  0
  -25.3840  -31.2430   26.1260 C   0  0  0  0  0  1  0  0  0  0  0  0
  -27.0660  -30.1730   24.6170 C   0  0  0  0  0  1  0  0  0  0  0  0
  -27.6220  -32.3020   25.7620 C   0  0  0  0  0  1  0  0  0  0  0  0
  1  4  1  0
  2  4  1  0
  3  6  1  0
  3  5  1  0
  4 49  1  0
  5  7  1  0
  5  1  1  0
  6  2  1  0
  7  8  1  0
  7 10  1  0
  9  7  1  0
 11 12  1  0
 11 10  1  0
 13 12  1  0
 14 19  1  0
 15 16  1  0
 15 14  1  0
 17 16  1  0
 17 24  1  0
 17 18  1  0
 19 13  1  0
 19 18  1  0
 20 13  2  0
 21 22  2  0
 22 41  1  0
 23 22  1  0
 23 26  1  0
 24 21  1  0
 24 25  1  0
 25 23  2  0
 26 27  1  0
 27 28  2  0
 29 32  1  0
 29 28  1  0
 30 29  2  0
 31 30  1  0
 31 26  2  0
 32 33  1  0
 33 34  1  0
 34 35  2  0
 36 35  1  0
 36 40  1  0
 37 36  2  0
 38 33  2  0
 38 37  1  0
 39 38  1  0
 41 42  1  0
 42 45  1  0
 42 44  1  0
 43 41  2  0
 46 47  1  0
 46 21  1  0
 48 46  1  0
 49 50  1  0
 50 51  1  0
 52 53  1  0
 52  6  1  0
 54 56  1  0
 54 53  1  0
 55 66  2  0
 56 61  1  0
 57 65  1  0
 57 67  1  0
 58 64  1  0
 58 60  1  0
 59 65  1  0
 60 59  1  0
 61 60  2  0
 62 63  1  0
 62 56  2  0
 63 58  2  0
 64 57  1  0
 65 55  1  0
 67 69  2  0
 68 67  1  0
 70 68  1  0
 71 80  2  0
 71 76  1  0
 72 68  1  0
 72 76  1  0
 73 72  1  0
 74 75  1  0
 74 73  1  0
 75 71  1  0
 76 77  2  0
 77 78  1  0
 79 78  2  0
 80 79  1  0
 81 55  1  0
 81 82  1  0
 81 91  1  0
 82 85  1  0
 83 87  1  0
 83 82  1  0
 84 83  2  0
 87 86  1  0
 89 87  1  0
 89 90  1  0
 89 88  1  0
 91 94  1  1
 91 92  1  0
 93 91  1  0
M  ISO  4  12 100  13 100  53 101  54 101
M  END
>  <TORSDO>  (70) 
F 24

>  <SCORE>  (70) 
-11.755

>  <name>  (70) 
70

>  <ligand_id>  (70) 
70

>  <original_smiles>  (70) 
[H]OC([H])([H])C1([H])C([H])([H])N(C([H])([H])C([H])([H])Oc2c([H])c([H])c3c(c2[H])C([H])([H])N(C(=O)C([H])(N([H])C(=O)C([H])(N([H])C([H])([H])[H])C([H])([H])[H])C(C([H])([H])[H])(C([H])([H])[H])C([H])([H])[H])C([H])(C(=O)N([H])C2([H])c4c([H])c([H])c([H])c([H])c4C([H])([H])C([H])([H])C2([H])[H])C3([H])[H])C([H])([H])C([H])([N+]([H])([H])C([H])([H])C([H])([H])C([H])([H])C(=O)N2C([H])([H])C([H])([H])C([H])([H])C([H])(n3nc(-c4c([H])c([H])c(Oc5c([H])c([H])c(F)c([H])c5F)c([H])c4[H])c(C(=O)N([H])[H])c3N([H])[H])C2([H])[H])C1([H])[H]

>  <smiles>  (70) 
[H]OC([H])([H])C1([H])C([H])([H])N(C([H])([H])C([H])([H])Oc2c([H])c([H])c3c(c2[H])C([H])([H])N(C(=O)C([H])(N([H])C(=O)C([H])(N([H])C([H])([H])[H])C([H])([H])[H])C(C([H])([H])[H])(C([H])([H])[H])C([H])([H])[H])C([H])(C(=O)N([H])C2([H])c4c([H])c([H])c([H])c([H])c4C([H])([H])C([H])([H])C2([H])[H])C3([H])[H])C([H])([H])C([H])([N+]([H])([H])C([H])([H])C([H])([H])C([H])([H])C(=O)N2C([H])([H])C([H])([H])C([H])([H])C([H])(n3nc(-c4c([H])c([H])c(Oc5c([H])c([H])c(F)c([H])c5F)c([H])c4[H])c(C(=O)N([H])[H])c3N([H])[H])C2([H])[H])C1([H])[H]

$$$$
71:0:0
     RDKit          3D

 96103  0  0  1  0  0  0  0  0999 V2000
  -24.1390  -23.6230   19.4650 C   0  0  0  0  0  1  0  0  0  0  0  0
  -25.6390  -23.2680   19.4430 C   0  0  0  0  0  3  0  0  0  0  0  0
  -25.8770  -24.0660   21.8090 C   0  0  0  0  0  1  0  0  0  0  0  0
  -26.4080  -24.0960   20.4230 N   0  0  1  0  0  4  0  0  0  0  0  0
  -26.2660  -25.0460   20.1200 H   0  0  0  0  0  0  0  0  0  0  0  0
  -27.8870  -23.8870   20.3710 C   0  0  0  0  0  2  0  0  0  0  0  0
  -28.6110  -24.9580   19.5290 C   0  0  0  0  0  2  0  0  0  0  0  0
  -28.9000  -26.2560   20.3140 C   0  0  0  0  0  2  0  0  0  0  0  0
  -28.7120  -27.4330   19.5300 O   0  0  0  0  0  0  0  0  0  0  0  0
  -24.5900  -31.8070   23.3290 C   0  0  0  0  0  0  0  0  0  0  0  0
  -27.4760  -28.0150   19.6710 C   0  0  0  0  0  0  0  0  0  0  0  0
  -23.4310  -30.4340   21.6280 C   0  0  0  0  0  3  0  0  0  0  0  0
  -24.9400  -29.2100   19.9800 C   0  0  0  0  0  0  0  0  0  0  0  0
  -25.8810  -31.0980   21.3200 C   0  0  0  0  0  2  0  0  0  0  0  0
  -26.0710  -29.8090   20.5490 C   0  0  0  0  0  0  0  0  0  0  0  0
  -27.3420  -29.2170   20.3950 C   0  0  0  0  0  3  0  0  0  0  0  0
  -26.3300  -27.4270   19.0920 C   0  0  0  0  0  3  0  0  0  0  0  0
  -25.0630  -28.0150   19.2490 C   0  0  0  0  0  3  0  0  0  0  0  0
  -23.6160  -29.9120   20.1790 C   0  0  0  0  0  2  0  0  0  0  0  0
  -24.6540  -31.1220   22.1530 N   0  0  0  0  0  0  0  0  0  0  0  0
  -23.5250  -31.9070   23.9550 O   0  0  0  0  0  0  0  0  0  0  0  0
  -22.9580  -29.2630   22.5180 C   0  0  0  0  0  0  0  0  0  0  0  0
  -21.6950  -28.8480   22.3370 N   0  0  0  0  0  0  0  0  0  0  0  0
  -23.7260  -28.7300   23.3240 O   0  0  0  0  0  0  0  0  0  0  0  0
  -21.1270  -29.3410   21.6620 H   0  0  0  0  0  0  0  0  0  0  0  0
  -18.6370  -26.9360   22.5520 C   0  0  0  0  0  0  0  0  0  0  0  0
  -21.0460  -27.7380   23.0340 C   0  0  0  0  0  3  0  0  0  0  0  0
  -21.5050  -26.3760   22.4620 C   0  0  0  0  0  2  0  0  0  0  0  0
  -20.5840  -25.8450   21.3590 C   0  0  0  0  0  2  0  0  0  0  0  0
  -19.1570  -25.6710   21.8880 C   0  0  0  0  0  2  0  0  0  0  0  0
  -19.5240  -27.9130   23.0760 C   0  0  0  0  0  0  0  0  0  0  0  0
  -18.9890  -29.0860   23.6510 C   0  0  0  0  0  3  0  0  0  0  0  0
  -17.5980  -29.2900   23.7080 C   0  0  0  0  0  3  0  0  0  0  0  0
  -16.7230  -28.3120   23.2020 C   0  0  0  0  0  3  0  0  0  0  0  0
  -17.2420  -27.1360   22.6310 C   0  0  0  0  0  3  0  0  0  0  0  0
  -25.8420  -32.5170   23.9330 C   0  0  0  0  0  3  0  0  0  0  0  0
  -25.4610  -33.9010   24.2380 N   0  0  0  0  0  0  0  0  0  0  0  0
  -25.7500  -34.9570   23.4650 C   0  0  0  0  0  0  0  0  0  0  0  0
  -26.4390  -34.8710   22.4450 O   0  0  0  0  0  0  0  0  0  0  0  0
  -24.8490  -34.0390   25.0310 H   0  0  0  0  0  0  0  0  0  0  0  0
  -23.9330  -36.6470   23.0640 C   0  0  0  0  0  1  0  0  0  0  0  0
  -25.1870  -36.3250   23.8910 C   0  0  0  0  0  3  0  0  0  0  0  0
  -27.2700  -37.3310   24.7150 C   0  0  0  0  0  1  0  0  0  0  0  0
  -26.1650  -37.4280   23.7670 N   0  0  0  0  0  0  0  0  0  0  0  0
  -25.7110  -38.3270   23.9010 H   0  0  0  0  0  0  0  0  0  0  0  0
  -26.4060  -31.7950   25.2180 C   0  0  1  0  0  0  0  0  0  0  0  0
  -25.3230  -31.4740   26.2740 C   0  0  0  0  0  1  0  0  0  0  0  0
  -27.1020  -30.4680   24.8350 C   0  0  0  0  0  1  0  0  0  0  0  0
  -27.4810  -32.6820   25.8890 C   0  0  0  0  0  1  0  0  0  0  0  0
  -25.8770  -21.7440   19.6170 C   0  0  0  0  0  2  0  0  0  0  0  0
  -25.9360  -20.9630   18.2890 C   0  0  0  0  0  2  0  0  0  0  0  0
  -26.4660  -19.5250   18.4400 C   0  0  0  0  0  2  0  0  0  0  0  0
  -27.9560  -19.4900   18.8350 C   0  0  0  0  0  2  0  0  0  0  0  0
  -28.6670  -17.6440   17.3540 C   0  0  0  0  0  1  0  0  0  0  0  0
  -28.5620  -18.1360   18.7500 N   0  0  1  0  0  4  0  0  0  0  0  0
  -27.9500  -17.4690   19.2120 H   0  0  0  0  0  0  0  0  0  0  0  0
  -29.8630  -18.0460   19.4660 C   0  0  0  0  0  2  0  0  0  0  0  0
  -29.7280  -17.5140   20.9160 C   0  0  0  0  0  2  0  0  0  0  0  0
  -30.9420  -16.6750   21.3690 C   0  0  0  0  0  2  0  0  0  0  0  0
  -30.5950  -15.3220   22.0510 C   0  0  0  0  0  2  0  0  0  0  0  0
  -31.2550  -14.1570   21.2920 C   0  0  0  0  0  0  0  0  0  0  0  0
  -30.8050  -12.4890   19.5540 C   0  0  0  0  0  2  0  0  0  0  0  0
  -29.9260  -13.1760   18.4850 C   0  0  0  0  0  2  0  0  0  0  0  0
  -28.4290  -13.0740   18.8510 C   0  0  0  0  0  2  0  0  0  0  0  0
  -28.1360  -13.4820   20.3210 C   0  0  0  0  0  3  0  0  0  0  0  0
  -29.1330  -12.7980   21.2830 C   0  0  0  0  0  2  0  0  0  0  0  0
  -30.4990  -13.1210   20.8430 N   0  0  0  0  0  0  0  0  0  0  0  0
  -32.4250  -14.3280   20.9410 O   0  0  0  0  0  0  0  0  0  0  0  0
  -25.6900  -14.0940   20.8620 C   0  0  0  0  0  0  0  0  0  0  0  0
  -24.5920  -13.3200   21.1190 C   0  0  0  0  0  0  0  0  0  0  0  0
  -25.0460  -11.9670   21.0900 C   0  0  0  0  0  0  0  0  0  0  0  0
  -26.7470  -13.2100   20.6890 N   0  0  0  0  0  0  0  0  0  0  0  0
  -26.3550  -11.9250   20.8800 N   0  0  0  0  0  0  0  0  0  0  0  0
  -24.3020  -10.7070   21.1980 C   0  0  0  0  0  0  0  0  0  0  0  0
  -24.6560   -9.7170   22.1410 C   0  0  0  0  0  3  0  0  0  0  0  0
  -23.9150   -8.5200   22.2330 C   0  0  0  0  0  3  0  0  0  0  0  0
  -22.8020   -8.3080   21.3830 C   0  0  0  0  0  0  0  0  0  0  0  0
  -22.4670   -9.2880   20.4330 C   0  0  0  0  0  3  0  0  0  0  0  0
  -23.2110  -10.4760   20.3380 C   0  0  0  0  0  3  0  0  0  0  0  0
  -22.0380   -7.1670   21.3840 O   0  0  0  0  0  0  0  0  0  0  0  0
  -21.7690   -6.4830   22.5420 C   0  0  0  0  0  0  0  0  0  0  0  0
  -21.1850   -7.1150   23.6610 C   0  0  0  0  0  3  0  0  0  0  0  0
  -20.8610   -6.3570   24.8050 C   0  0  0  0  0  3  0  0  0  0  0  0
  -21.1080   -4.9730   24.8290 C   0  0  0  0  0  0  0  0  0  0  0  0
  -21.6830   -4.3410   23.7120 C   0  0  0  0  0  3  0  0  0  0  0  0
  -22.0100   -5.0950   22.5710 C   0  0  0  0  0  0  0  0  0  0  0  0
  -22.5440   -4.4760   21.4890 F   0  0  0  0  0  0  0  0  0  0  0  0
  -20.7900   -4.2450   25.9250 F   0  0  0  0  0  0  0  0  0  0  0  0
  -23.1830  -13.8050   21.3090 C   0  0  0  0  0  0  0  0  0  0  0  0
  -22.4020  -13.1180   22.1340 N   0  0  0  0  0  0  0  0  0  0  0  0
  -22.7870  -14.8350   20.7650 O   0  0  0  0  0  0  0  0  0  0  0  0
  -22.7330  -12.2830   22.5930 H   0  0  0  0  0  0  0  0  0  0  0  0
  -21.4540  -13.4270   22.3000 H   0  0  0  0  0  0  0  0  0  0  0  0
  -25.8750  -15.4710   20.7630 N   0  0  0  0  0  0  0  0  0  0  0  0
  -25.0590  -15.9370   21.1500 H   0  0  0  0  0  0  0  0  0  0  0  0
  -26.6960  -15.7230   21.3000 H   0  0  0  0  0  0  0  0  0  0  0  0
  2  1  1  0
  2 50  1  0
  2  4  1  0
  4  3  1  0
  4  5  1  6
  6  4  1  0
  7  8  1  0
  7  6  1  0
  9 11  1  0
  9  8  1  0
 10 21  2  0
 11 16  1  0
 12 20  1  0
 12 22  1  0
 13 19  1  0
 13 15  1  0
 14 20  1  0
 15 14  1  0
 16 15  2  0
 17 18  1  0
 17 11  2  0
 18 13  2  0
 19 12  1  0
 20 10  1  0
 22 24  2  0
 23 22  1  0
 25 23  1  0
 26 35  2  0
 26 31  1  0
 27 23  1  0
 27 31  1  0
 28 27  1  0
 29 30  1  0
 29 28  1  0
 30 26  1  0
 31 32  2  0
 32 33  1  0
 34 33  2  0
 35 34  1  0
 36 10  1  0
 36 37  1  0
 36 46  1  0
 37 40  1  0
 38 42  1  0
 38 37  1  0
 39 38  2  0
 42 41  1  0
 44 42  1  0
 44 45  1  0
 44 43  1  0
 46 49  1  1
 46 47  1  0
 48 46  1  0
 51 52  1  0
 51 50  1  0
 52 53  1  0
 54 55  1  0
 55 53  1  0
 55 56  1  1
 55 57  1  0
 57 58  1  0
 58 59  1  0
 59 60  1  0
 61 60  1  0
 62 67  1  0
 63 64  1  0
 63 62  1  0
 65 64  1  0
 65 72  1  0
 65 66  1  0
 67 66  1  0
 67 61  1  0
 68 61  2  0
 69 70  2  0
 70 89  1  0
 71 70  1  0
 71 74  1  0
 72 69  1  0
 72 73  1  0
 73 71  2  0
 74 75  1  0
 75 76  2  0
 77 80  1  0
 77 76  1  0
 78 77  2  0
 79 78  1  0
 79 74  2  0
 80 81  1  0
 81 86  2  0
 81 82  1  0
 82 83  2  0
 83 84  1  0
 84 88  1  0
 85 84  2  0
 86 85  1  0
 87 86  1  0
 89 90  1  0
 90 93  1  0
 90 92  1  0
 91 89  2  0
 94 69  1  0
 94 95  1  0
 94 96  1  0
M  ISO  4   8 101   9 101  60 100  61 100
M  END
>  <TORSDO>  (71) 
F 29

>  <SCORE>  (71) 
-8.711

>  <name>  (71) 
71

>  <ligand_id>  (71) 
71

>  <original_smiles>  (71) 
[H]c1c([H])c([H])c2c(c1[H])C([H])([H])C([H])([H])C([H])([H])C2([H])N([H])C(=O)C1([H])N(C(=O)C([H])(N([H])C(=O)C([H])(N([H])C([H])([H])[H])C([H])([H])[H])C(C([H])([H])[H])(C([H])([H])[H])C([H])([H])[H])C([H])([H])c2c([H])c(OC([H])([H])C([H])([H])C([H])([H])[N+]([H])(C([H])([H])[H])C([H])(C([H])([H])[H])C([H])([H])C([H])([H])C([H])([H])C([H])([H])[N+]([H])(C([H])([H])[H])C([H])([H])C([H])([H])C([H])([H])C([H])([H])C(=O)N3C([H])([H])C([H])([H])C([H])([H])C([H])(n4nc(-c5c([H])c([H])c(Oc6c([H])c([H])c(F)c([H])c6F)c([H])c5[H])c(C(=O)N([H])[H])c4N([H])[H])C3([H])[H])c([H])c([H])c2C1([H])[H]

>  <smiles>  (71) 
[H]c1c([H])c([H])c2c(c1[H])C([H])([H])C([H])([H])C([H])([H])C2([H])N([H])C(=O)C1([H])N(C(=O)C([H])(N([H])C(=O)C([H])(N([H])C([H])([H])[H])C([H])([H])[H])C(C([H])([H])[H])(C([H])([H])[H])C([H])([H])[H])C([H])([H])c2c([H])c(OC([H])([H])C([H])([H])C([H])([H])[N+]([H])(C([H])([H])[H])C([H])(C([H])([H])[H])C([H])([H])C([H])([H])C([H])([H])C([H])([H])[N+]([H])(C([H])([H])[H])C([H])([H])C([H])([H])C([H])([H])C([H])([H])C(=O)N3C([H])([H])C([H])([H])C([H])([H])C([H])(n4nc(-c5c([H])c([H])c(Oc6c([H])c([H])c(F)c([H])c6F)c([H])c5[H])c(C(=O)N([H])[H])c4N([H])[H])C3([H])[H])c([H])c([H])c2C1([H])[H]

$$$$
72:0:0
     RDKit          3D

 87 95  0  0  1  0  0  0  0  0999 V2000
  -28.7930  -21.1790   20.6540 C   0  0  0  0  0  2  0  0  0  0  0  0
  -29.6950  -19.3100   18.9260 C   0  0  0  0  0  0  0  0  0  0  0  0
  -30.0680  -17.7810   18.7620 C   0  0  0  0  0  2  0  0  0  0  0  0
  -29.7040  -18.3350   20.9360 C   0  0  0  0  0  2  0  0  0  0  0  0
  -29.5980  -16.9210   19.9900 C   0  0  1  0  0  0  0  0  0  0  0  0
  -28.0850  -16.7210   19.8540 C   0  0  0  0  0  1  0  0  0  0  0  0
  -29.4780  -19.7350   20.1920 N   0  0  0  0  0  0  0  0  0  0  0  0
  -29.5870  -20.0410   17.9400 O   0  0  0  0  0  0  0  0  0  0  0  0
  -30.3820  -15.3280   20.0660 C   0  0  0  0  0  0  0  0  0  0  0  0
  -30.3250  -12.8820   19.1950 C   0  0  0  0  0  2  0  0  0  0  0  0
  -29.3510  -12.6840   18.0040 C   0  0  0  0  0  2  0  0  0  0  0  0
  -27.9250  -12.3850   18.5030 C   0  0  0  0  0  2  0  0  0  0  0  0
  -27.5130  -13.3370   19.6480 C   0  0  0  0  0  3  0  0  0  0  0  0
  -28.6120  -13.4920   20.7240 C   0  0  0  0  0  2  0  0  0  0  0  0
  -29.8220  -14.0140   20.0570 N   0  0  0  0  0  0  0  0  0  0  0  0
  -31.6040  -15.2920   19.8590 O   0  0  0  0  0  0  0  0  0  0  0  0
  -25.1680  -13.9110   20.4910 C   0  0  0  0  0  0  0  0  0  0  0  0
  -24.1210  -13.1370   20.8960 C   0  0  0  0  0  0  0  0  0  0  0  0
  -24.5830  -11.7880   20.8340 C   0  0  0  0  0  0  0  0  0  0  0  0
  -26.2030  -13.0340   20.2070 N   0  0  0  0  0  0  0  0  0  0  0  0
  -25.8630  -11.7500   20.4780 N   0  0  0  0  0  0  0  0  0  0  0  0
  -23.8600  -10.5290   21.0320 C   0  0  0  0  0  0  0  0  0  0  0  0
  -24.3170   -9.5520   21.9420 C   0  0  0  0  0  3  0  0  0  0  0  0
  -23.5900   -8.3560   22.1290 C   0  0  0  0  0  3  0  0  0  0  0  0
  -22.3930   -8.1330   21.4080 C   0  0  0  0  0  0  0  0  0  0  0  0
  -21.9560   -9.1000   20.4860 C   0  0  0  0  0  3  0  0  0  0  0  0
  -22.6830  -10.2860   20.2960 C   0  0  0  0  0  3  0  0  0  0  0  0
  -21.6360   -6.9910   21.5080 O   0  0  0  0  0  0  0  0  0  0  0  0
  -21.6250   -6.2350   22.6520 C   0  0  0  0  0  0  0  0  0  0  0  0
  -21.2410   -6.7750   23.8980 C   0  0  0  0  0  3  0  0  0  0  0  0
  -21.1770   -5.9450   25.0350 C   0  0  0  0  0  3  0  0  0  0  0  0
  -21.4850   -4.5750   24.9260 C   0  0  0  0  0  0  0  0  0  0  0  0
  -21.8630   -4.0340   23.6840 C   0  0  0  0  0  3  0  0  0  0  0  0
  -21.9290   -4.8620   22.5490 C   0  0  0  0  0  0  0  0  0  0  0  0
  -22.2730   -4.3320   21.3510 F   0  0  0  0  0  0  0  0  0  0  0  0
  -21.4150   -3.7760   26.0150 F   0  0  0  0  0  0  0  0  0  0  0  0
  -22.7370  -13.6200   21.2200 C   0  0  0  0  0  0  0  0  0  0  0  0
  -22.0400  -12.9230   22.1090 N   0  0  0  0  0  0  0  0  0  0  0  0
  -22.2870  -14.6520   20.7230 O   0  0  0  0  0  0  0  0  0  0  0  0
  -22.4200  -12.0890   22.5320 H   0  0  0  0  0  0  0  0  0  0  0  0
  -21.1140  -13.2280   22.3720 H   0  0  0  0  0  0  0  0  0  0  0  0
  -25.3040  -15.2810   20.3090 N   0  0  0  0  0  0  0  0  0  0  0  0
  -24.5300  -15.9210   20.4490 H   0  0  0  0  0  0  0  0  0  0  0  0
  -26.1300  -15.7340   19.9420 H   0  0  0  0  0  0  0  0  0  0  0  0
  -28.9980  -22.8860   20.1640 C   0  0  0  0  0  3  0  0  0  0  0  0
  -28.0370  -24.3560   20.5110 C   0  0  0  0  0  3  0  0  0  0  0  0
  -28.2610  -25.9700   20.3470 O   0  0  0  0  0  0  0  0  0  0  0  0
  -24.6360  -31.9000   23.2580 C   0  0  0  0  0  0  0  0  0  0  0  0
  -27.2200  -27.0260   20.3090 C   0  0  0  0  0  0  0  0  0  0  0  0
  -23.4490  -30.4860   21.6300 C   0  0  0  0  0  3  0  0  0  0  0  0
  -24.9060  -28.8710   20.2340 C   0  0  0  0  0  0  0  0  0  0  0  0
  -26.0120  -30.7100   21.4860 C   0  0  0  0  0  2  0  0  0  0  0  0
  -26.0890  -29.2970   20.8490 C   0  0  0  0  0  0  0  0  0  0  0  0
  -27.2440  -28.3960   20.8570 C   0  0  0  0  0  3  0  0  0  0  0  0
  -26.0040  -26.7400   19.6490 C   0  0  0  0  0  3  0  0  0  0  0  0
  -24.8850  -27.6120   19.6130 C   0  0  0  0  0  3  0  0  0  0  0  0
  -23.6820  -29.7850   20.2630 C   0  0  0  0  0  2  0  0  0  0  0  0
  -24.7200  -31.0590   22.1780 N   0  0  0  0  0  0  0  0  0  0  0  0
  -23.5450  -32.1940   23.7740 O   0  0  0  0  0  0  0  0  0  0  0  0
  -22.7540  -29.4980   22.6040 C   0  0  0  0  0  0  0  0  0  0  0  0
  -21.4270  -29.3260   22.4720 N   0  0  0  0  0  0  0  0  0  0  0  0
  -23.4170  -28.8880   23.4460 O   0  0  0  0  0  0  0  0  0  0  0  0
  -20.9460  -29.8670   21.7670 H   0  0  0  0  0  0  0  0  0  0  0  0
  -18.0490  -28.0950   22.9580 C   0  0  0  0  0  0  0  0  0  0  0  0
  -20.6030  -28.3960   23.2510 C   0  0  0  0  0  3  0  0  0  0  0  0
  -20.7280  -26.9540   22.7070 C   0  0  0  0  0  2  0  0  0  0  0  0
  -19.6430  -26.5980   21.6850 C   0  0  0  0  0  2  0  0  0  0  0  0
  -18.2510  -26.7370   22.3070 C   0  0  0  0  0  2  0  0  0  0  0  0
  -19.1520  -28.8800   23.3870 C   0  0  0  0  0  0  0  0  0  0  0  0
  -18.9090  -30.1480   23.9590 C   0  0  0  0  0  3  0  0  0  0  0  0
  -17.5950  -30.6310   24.1060 C   0  0  0  0  0  3  0  0  0  0  0  0
  -16.5060  -29.8460   23.6910 C   0  0  0  0  0  3  0  0  0  0  0  0
  -16.7330  -28.5790   23.1220 C   0  0  0  0  0  3  0  0  0  0  0  0
  -25.9070  -32.5490   23.8880 C   0  0  0  0  0  3  0  0  0  0  0  0
  -26.4080  -31.7980   25.1840 C   0  0  1  0  0  0  0  0  0  0  0  0
  -25.3030  -31.5810   26.2440 C   0  0  0  0  0  1  0  0  0  0  0  0
  -26.9920  -30.4120   24.8280 C   0  0  0  0  0  1  0  0  0  0  0  0
  -27.5530  -32.6020   25.8440 C   0  0  0  0  0  1  0  0  0  0  0  0
  -25.5870  -33.9510   24.2070 N   0  0  0  0  0  0  0  0  0  0  0  0
  -25.9140  -35.0050   23.4470 C   0  0  0  0  0  0  0  0  0  0  0  0
  -26.5800  -34.8990   22.4140 O   0  0  0  0  0  0  0  0  0  0  0  0
  -24.9920  -34.1070   25.0090 H   0  0  0  0  0  0  0  0  0  0  0  0
  -24.1760  -36.7970   23.1090 C   0  0  0  0  0  1  0  0  0  0  0  0
  -25.4280  -36.3960   23.9050 C   0  0  0  0  0  3  0  0  0  0  0  0
  -27.5690  -37.2970   24.7050 C   0  0  0  0  0  1  0  0  0  0  0  0
  -26.4560  -37.4530   23.7720 N   0  0  0  0  0  0  0  0  0  0  0  0
  -26.0470  -38.3720   23.9180 H   0  0  0  0  0  0  0  0  0  0  0  0
  2  7  1  0
  3  2  1  0
  3  5  1  0
  5  6  1  6
  5  9  1  0
  5  4  1  0
  7  1  1  0
  7  4  1  0
  8  2  2  0
 10 15  1  0
 11 12  1  0
 11 10  1  0
 13 12  1  0
 13 20  1  0
 13 14  1  0
 15  9  1  0
 15 14  1  0
 16  9  2  0
 17 18  2  0
 18 37  1  0
 19 18  1  0
 19 22  1  0
 20 21  1  0
 20 17  1  0
 21 19  2  0
 22 23  1  0
 23 24  2  0
 25 28  1  0
 25 24  1  0
 26 25  2  0
 27 26  1  0
 27 22  2  0
 28 29  1  0
 29 30  1  0
 30 31  2  0
 32 31  1  0
 32 36  1  0
 33 32  2  0
 34 29  2  0
 34 33  1  0
 35 34  1  0
 37 38  1  0
 38 41  1  0
 38 40  1  0
 39 37  2  0
 42 43  1  0
 42 17  1  0
 44 42  1  0
 45 46  2  0
 45  1  1  0
 47 46  1  0
 48 59  2  0
 49 47  1  0
 49 54  1  0
 50 58  1  0
 50 60  1  0
 51 57  1  0
 51 53  1  0
 52 58  1  0
 53 54  2  0
 53 52  1  0
 55 49  2  0
 56 55  1  0
 56 51  2  0
 57 50  1  0
 58 48  1  0
 60 62  2  0
 61 60  1  0
 63 61  1  0
 64 73  2  0
 64 69  1  0
 65 61  1  0
 65 69  1  0
 66 65  1  0
 67 68  1  0
 67 66  1  0
 68 64  1  0
 69 70  2  0
 70 71  1  0
 72 71  2  0
 73 72  1  0
 74 48  1  0
 74 79  1  0
 74 75  1  0
 75 78  1  1
 75 76  1  0
 77 75  1  0
 79 82  1  0
 80 84  1  0
 80 79  1  0
 81 80  2  0
 84 83  1  0
 86 84  1  0
 86 87  1  0
 86 85  1  0
M  ISO  4   5 100   9 100  46 101  47 101
M  END
>  <TORSDO>  (72) 
F 19

>  <SCORE>  (72) 
-16.016

>  <name>  (72) 
72

>  <ligand_id>  (72) 
72

>  <original_smiles>  (72) 
[H]c1c([H])c([H])c2c(c1[H])C([H])([H])C([H])([H])C([H])([H])C2([H])N([H])C(=O)C1([H])N(C(=O)C([H])(N([H])C(=O)C([H])(N([H])C([H])([H])[H])C([H])([H])[H])C(C([H])([H])[H])(C([H])([H])[H])C([H])([H])[H])C([H])([H])c2c([H])c(OC([H])([H])C([H])([H])C([H])([H])N3C(=O)C([H])([H])C(C(=O)N4C([H])([H])C([H])([H])C([H])([H])C([H])(n5nc(-c6c([H])c([H])c(Oc7c([H])c([H])c(F)c([H])c7F)c([H])c6[H])c(C(=O)N([H])[H])c5N([H])[H])C4([H])[H])(C([H])([H])[H])C3([H])[H])c([H])c([H])c2C1([H])[H]

>  <smiles>  (72) 
[H]c1c([H])c([H])c2c(c1[H])C([H])([H])C([H])([H])C([H])([H])C2([H])N([H])C(=O)C1([H])N(C(=O)C([H])(N([H])C(=O)C([H])(N([H])C([H])([H])[H])C([H])([H])[H])C(C([H])([H])[H])(C([H])([H])[H])C([H])([H])[H])C([H])([H])c2c([H])c(OC([H])([H])C([H])([H])C([H])([H])N3C(=O)C([H])([H])C(C(=O)N4C([H])([H])C([H])([H])C([H])([H])C([H])(n5nc(-c6c([H])c([H])c(Oc7c([H])c([H])c(F)c([H])c7F)c([H])c6[H])c(C(=O)N([H])[H])c5N([H])[H])C4([H])[H])(C([H])([H])[H])C3([H])[H])c([H])c([H])c2C1([H])[H]

$$$$
73:0:0
     RDKit          3D

 94103  0  0  1  0  0  0  0  0999 V2000
  -34.0170  -23.4210   19.2210 C   0  0  0  0  0  2  0  0  0  0  0  0
  -33.5370  -20.8590   19.0790 C   0  0  0  0  0  2  0  0  0  0  0  0
  -33.1380  -24.5600   19.7570 C   0  0  0  0  0  2  0  0  0  0  0  0
  -32.3430  -19.8840   19.0150 C   0  0  0  0  0  2  0  0  0  0  0  0
  -30.8400  -21.5540   20.0710 C   0  0  0  0  0  2  0  0  0  0  0  0
  -33.0150  -22.2960   19.0340 C   0  0  0  0  0  3  0  0  0  0  0  0
  -32.0090  -22.5770   20.1490 C   0  0  0  0  0  3  0  0  0  0  0  0
  -31.7790  -23.9960   19.8300 N   0  0  0  0  0  0  0  0  0  0  0  0
  -31.3510  -20.1450   20.0990 N   0  0  1  0  0  4  0  0  0  0  0  0
  -31.8590  -20.0600   20.9670 H   0  0  0  0  0  0  0  0  0  0  0  0
  -30.9390  -24.8140   20.7140 C   0  0  0  0  0  2  0  0  0  0  0  0
  -29.4350  -24.5440   20.5060 C   0  0  0  0  0  2  0  0  0  0  0  0
  -28.4970  -25.6510   21.0280 C   0  0  0  0  0  2  0  0  0  0  0  0
  -28.4320  -26.7420   20.1090 O   0  0  0  0  0  0  0  0  0  0  0  0
  -24.6060  -31.8650   23.2230 C   0  0  0  0  0  0  0  0  0  0  0  0
  -27.2550  -27.4490   20.1450 C   0  0  0  0  0  0  0  0  0  0  0  0
  -23.3910  -30.4620   21.5830 C   0  0  0  0  0  3  0  0  0  0  0  0
  -24.8440  -28.9190   20.1640 C   0  0  0  0  0  0  0  0  0  0  0  0
  -25.9110  -30.8350   21.3690 C   0  0  0  0  0  2  0  0  0  0  0  0
  -26.0010  -29.4610   20.7410 C   0  0  0  0  0  0  0  0  0  0  0  0
  -27.2100  -28.7320   20.7270 C   0  0  0  0  0  3  0  0  0  0  0  0
  -26.0860  -26.9110   19.5630 C   0  0  0  0  0  3  0  0  0  0  0  0
  -24.8820  -27.6400   19.5760 C   0  0  0  0  0  3  0  0  0  0  0  0
  -23.5970  -29.7760   20.2070 C   0  0  0  0  0  2  0  0  0  0  0  0
  -24.6550  -31.0690   22.1180 N   0  0  0  0  0  0  0  0  0  0  0  0
  -23.5290  -32.1350   23.7740 O   0  0  0  0  0  0  0  0  0  0  0  0
  -22.7440  -29.4450   22.5530 C   0  0  0  0  0  0  0  0  0  0  0  0
  -21.4180  -29.2670   22.4350 N   0  0  0  0  0  0  0  0  0  0  0  0
  -23.4330  -28.8170   23.3590 O   0  0  0  0  0  0  0  0  0  0  0  0
  -20.9240  -29.8290   21.7570 H   0  0  0  0  0  0  0  0  0  0  0  0
  -18.0460  -28.0820   22.9590 C   0  0  0  0  0  0  0  0  0  0  0  0
  -20.6060  -28.3300   23.2130 C   0  0  0  0  0  3  0  0  0  0  0  0
  -20.7010  -26.8990   22.6380 C   0  0  0  0  0  2  0  0  0  0  0  0
  -19.5910  -26.5820   21.6300 C   0  0  0  0  0  2  0  0  0  0  0  0
  -18.2140  -26.7320   22.2820 C   0  0  0  0  0  2  0  0  0  0  0  0
  -19.1710  -28.8380   23.3830 C   0  0  0  0  0  0  0  0  0  0  0  0
  -18.9600  -30.1020   23.9770 C   0  0  0  0  0  3  0  0  0  0  0  0
  -17.6610  -30.6110   24.1460 C   0  0  0  0  0  3  0  0  0  0  0  0
  -16.5510  -29.8530   23.7370 C   0  0  0  0  0  3  0  0  0  0  0  0
  -16.7450  -28.5910   23.1510 C   0  0  0  0  0  3  0  0  0  0  0  0
  -25.8970  -32.4930   23.8350 C   0  0  0  0  0  3  0  0  0  0  0  0
  -25.5890  -33.8880   24.1740 N   0  0  0  0  0  0  0  0  0  0  0  0
  -25.9200  -34.9440   23.4200 C   0  0  0  0  0  0  0  0  0  0  0  0
  -26.5870  -34.8470   22.3860 O   0  0  0  0  0  0  0  0  0  0  0  0
  -24.9910  -34.0350   24.9750 H   0  0  0  0  0  0  0  0  0  0  0  0
  -24.1880  -36.7350   23.0800 C   0  0  0  0  0  1  0  0  0  0  0  0
  -25.4320  -36.3290   23.8860 C   0  0  0  0  0  3  0  0  0  0  0  0
  -27.5740  -37.2100   24.7040 C   0  0  0  0  0  1  0  0  0  0  0  0
  -26.4640  -37.3840   23.7710 N   0  0  0  0  0  0  0  0  0  0  0  0
  -26.0600  -38.3030   23.9280 H   0  0  0  0  0  0  0  0  0  0  0  0
  -26.4330  -31.7130   25.0990 C   0  0  1  0  0  0  0  0  0  0  0  0
  -25.3560  -31.4680   26.1810 C   0  0  0  0  0  1  0  0  0  0  0  0
  -27.0060  -30.3380   24.6840 C   0  0  0  0  0  1  0  0  0  0  0  0
  -27.5880  -32.5060   25.7530 C   0  0  0  0  0  1  0  0  0  0  0  0
  -30.2580  -19.1290   20.1810 C   0  0  0  0  0  2  0  0  0  0  0  0
  -30.7790  -17.6850   20.4130 C   0  0  0  0  0  2  0  0  0  0  0  0
  -29.7570  -16.6880   21.0080 C   0  0  0  0  0  2  0  0  0  0  0  0
  -30.3870  -15.3640   21.5180 C   0  0  0  0  0  2  0  0  0  0  0  0
  -30.7440  -14.3600   20.4050 C   0  0  0  0  0  0  0  0  0  0  0  0
  -30.3150  -12.3070   19.0980 C   0  0  0  0  0  2  0  0  0  0  0  0
  -29.3450  -12.5880   17.9360 C   0  0  0  0  0  2  0  0  0  0  0  0
  -27.8820  -12.4460   18.3980 C   0  0  0  0  0  2  0  0  0  0  0  0
  -27.5960  -13.2340   19.7020 C   0  0  0  0  0  3  0  0  0  0  0  0
  -28.6750  -12.9430   20.7660 C   0  0  0  0  0  2  0  0  0  0  0  0
  -29.9990  -13.2400   20.1920 N   0  0  0  0  0  0  0  0  0  0  0  0
  -31.7480  -14.6110   19.7350 O   0  0  0  0  0  0  0  0  0  0  0  0
  -25.2120  -13.8490   20.4610 C   0  0  0  0  0  0  0  0  0  0  0  0
  -24.1510  -13.0800   20.8530 C   0  0  0  0  0  0  0  0  0  0  0  0
  -24.6050  -11.7270   20.8110 C   0  0  0  0  0  0  0  0  0  0  0  0
  -26.2500  -12.9630   20.2080 N   0  0  0  0  0  0  0  0  0  0  0  0
  -25.8870  -11.6810   20.4700 N   0  0  0  0  0  0  0  0  0  0  0  0
  -23.8770  -10.4680   21.0200 C   0  0  0  0  0  0  0  0  0  0  0  0
  -24.3400   -9.4880   21.9250 C   0  0  0  0  0  3  0  0  0  0  0  0
  -23.6160   -8.2920   22.1180 C   0  0  0  0  0  3  0  0  0  0  0  0
  -22.4140   -8.0670   21.4070 C   0  0  0  0  0  0  0  0  0  0  0  0
  -21.9720   -9.0340   20.4880 C   0  0  0  0  0  3  0  0  0  0  0  0
  -22.6960  -10.2210   20.2940 C   0  0  0  0  0  3  0  0  0  0  0  0
  -21.6550   -6.9260   21.5140 O   0  0  0  0  0  0  0  0  0  0  0  0
  -21.6600   -6.1620   22.6520 C   0  0  0  0  0  0  0  0  0  0  0  0
  -21.3190   -6.7000   23.9130 C   0  0  0  0  0  3  0  0  0  0  0  0
  -21.2710   -5.8640   25.0450 C   0  0  0  0  0  3  0  0  0  0  0  0
  -21.5500   -4.4890   24.9210 C   0  0  0  0  0  0  0  0  0  0  0  0
  -21.8840   -3.9500   23.6650 C   0  0  0  0  0  3  0  0  0  0  0  0
  -21.9340   -4.7840   22.5340 C   0  0  0  0  0  0  0  0  0  0  0  0
  -22.2360   -4.2560   21.3240 F   0  0  0  0  0  0  0  0  0  0  0  0
  -21.4950   -3.6840   26.0060 F   0  0  0  0  0  0  0  0  0  0  0  0
  -22.7610  -13.5600   21.1600 C   0  0  0  0  0  0  0  0  0  0  0  0
  -22.0540  -12.8660   22.0460 N   0  0  0  0  0  0  0  0  0  0  0  0
  -22.3100  -14.5850   20.6510 O   0  0  0  0  0  0  0  0  0  0  0  0
  -22.4300  -12.0370   22.4820 H   0  0  0  0  0  0  0  0  0  0  0  0
  -21.1200  -13.1610   22.2900 H   0  0  0  0  0  0  0  0  0  0  0  0
  -25.3820  -15.2200   20.2800 N   0  0  0  0  0  0  0  0  0  0  0  0
  -24.6330  -15.8910   20.4060 H   0  0  0  0  0  0  0  0  0  0  0  0
  -26.2430  -15.6450   19.9540 H   0  0  0  0  0  0  0  0  0  0  0  0
  1  3  1  0
  3  8  1  0
  4  2  1  0
  4  9  1  0
  5  9  1  0
  6  2  1  0
  6  1  1  0
  6  7  1  0
  7  5  1  0
  8  7  1  0
  8 11  1  0
  9 55  1  0
  9 10  1  1
 12 11  1  0
 12 13  1  0
 14 16  1  0
 14 13  1  0
 15 26  2  0
 16 21  1  0
 17 25  1  0
 17 27  1  0
 18 24  1  0
 18 20  1  0
 19 25  1  0
 20 19  1  0
 21 20  2  0
 22 23  1  0
 22 16  2  0
 23 18  2  0
 24 17  1  0
 25 15  1  0
 27 29  2  0
 28 27  1  0
 30 28  1  0
 31 40  2  0
 31 36  1  0
 32 28  1  0
 32 36  1  0
 33 32  1  0
 34 35  1  0
 34 33  1  0
 35 31  1  0
 36 37  2  0
 37 38  1  0
 39 38  2  0
 40 39  1  0
 41 15  1  0
 41 42  1  0
 41 51  1  0
 42 45  1  0
 43 47  1  0
 43 42  1  0
 44 43  2  0
 47 46  1  0
 49 47  1  0
 49 50  1  0
 49 48  1  0
 51 54  1  1
 51 52  1  0
 53 51  1  0
 55 56  1  0
 56 57  1  0
 57 58  1  0
 59 58  1  0
 60 65  1  0
 61 62  1  0
 61 60  1  0
 63 62  1  0
 63 70  1  0
 63 64  1  0
 65 59  1  0
 65 64  1  0
 66 59  2  0
 67 68  2  0
 68 87  1  0
 69 68  1  0
 69 72  1  0
 70 67  1  0
 70 71  1  0
 71 69  2  0
 72 73  1  0
 73 74  2  0
 75 78  1  0
 75 74  1  0
 76 75  2  0
 77 76  1  0
 77 72  2  0
 78 79  1  0
 79 80  1  0
 80 81  2  0
 82 81  1  0
 82 86  1  0
 83 82  2  0
 84 79  2  0
 84 83  1  0
 85 84  1  0
 87 88  1  0
 88 91  1  0
 88 90  1  0
 89 87  2  0
 92 93  1  0
 92 67  1  0
 94 92  1  0
M  ISO  4  13 101  14 101  58 100  59 100
M  END
>  <TORSDO>  (73) 
F 23

>  <SCORE>  (73) 
-12.763

>  <name>  (73) 
73

>  <ligand_id>  (73) 
73

>  <original_smiles>  (73) 
[H]c1c([H])c([H])c2c(c1[H])C([H])([H])C([H])([H])C([H])([H])C2([H])N([H])C(=O)C1([H])N(C(=O)C([H])(N([H])C(=O)C([H])(N([H])C([H])([H])[H])C([H])([H])[H])C(C([H])([H])[H])(C([H])([H])[H])C([H])([H])[H])C([H])([H])c2c([H])c(OC([H])([H])C([H])([H])C([H])([H])N3C([H])([H])C([H])([H])C4([H])C([H])([H])C([H])([H])[N+]([H])(C([H])([H])C([H])([H])C([H])([H])C([H])([H])C(=O)N5C([H])([H])C([H])([H])C([H])([H])C([H])(n6nc(-c7c([H])c([H])c(Oc8c([H])c([H])c(F)c([H])c8F)c([H])c7[H])c(C(=O)N([H])[H])c6N([H])[H])C5([H])[H])C([H])([H])C34[H])c([H])c([H])c2C1([H])[H]

>  <smiles>  (73) 
[H]c1c([H])c([H])c2c(c1[H])C([H])([H])C([H])([H])C([H])([H])C2([H])N([H])C(=O)C1([H])N(C(=O)C([H])(N([H])C(=O)C([H])(N([H])C([H])([H])[H])C([H])([H])[H])C(C([H])([H])[H])(C([H])([H])[H])C([H])([H])[H])C([H])([H])c2c([H])c(OC([H])([H])C([H])([H])C([H])([H])N3C([H])([H])C([H])([H])C4([H])C([H])([H])C([H])([H])[N+]([H])(C([H])([H])C([H])([H])C([H])([H])C([H])([H])C(=O)N5C([H])([H])C([H])([H])C([H])([H])C([H])(n6nc(-c7c([H])c([H])c(Oc8c([H])c([H])c(F)c([H])c8F)c([H])c7[H])c(C(=O)N([H])[H])c6N([H])[H])C5([H])[H])C([H])([H])C34[H])c([H])c([H])c2C1([H])[H]

$$$$
74:0:0
     RDKit          3D

 87 94  0  0  1  0  0  0  0  0999 V2000
  -28.9470  -22.6840   20.6420 C   0  0  0  0  0  2  0  0  0  0  0  0
  -29.6460  -21.4060   19.9700 C   0  0  0  0  0  0  0  0  0  0  0  0
  -27.8300  -19.8430   20.5370 C   0  0  0  0  0  1  0  0  0  0  0  0
  -29.2330  -20.0970   20.2010 N   0  0  0  0  0  0  0  0  0  0  0  0
  -30.6910  -21.6170   19.3500 O   0  0  0  0  0  0  0  0  0  0  0  0
  -30.1290  -18.8900   20.4960 C   0  0  0  0  0  2  0  0  0  0  0  0
  -30.0030  -17.4740   19.7250 C   0  0  0  0  0  2  0  0  0  0  0  0
  -30.1940  -16.1010   20.5680 C   0  0  0  0  0  2  0  0  0  0  0  0
  -30.8590  -14.7730   19.9590 C   0  0  0  0  0  0  0  0  0  0  0  0
  -30.6280  -12.4720   18.9940 C   0  0  0  0  0  2  0  0  0  0  0  0
  -29.6340  -12.5370   17.8110 C   0  0  0  0  0  2  0  0  0  0  0  0
  -28.1810  -12.3940   18.3080 C   0  0  0  0  0  2  0  0  0  0  0  0
  -27.8760  -13.3060   19.5290 C   0  0  0  0  0  3  0  0  0  0  0  0
  -28.9790  -13.1910   20.6010 C   0  0  0  0  0  2  0  0  0  0  0  0
  -30.2520  -13.5350   19.9550 N   0  0  0  0  0  0  0  0  0  0  0  0
  -31.9760  -14.8890   19.4430 O   0  0  0  0  0  0  0  0  0  0  0  0
  -25.5420  -13.9520   20.3750 C   0  0  0  0  0  0  0  0  0  0  0  0
  -24.4730  -13.2000   20.7870 C   0  0  0  0  0  0  0  0  0  0  0  0
  -24.8970  -11.8380   20.7120 C   0  0  0  0  0  0  0  0  0  0  0  0
  -26.5480  -13.0470   20.0770 N   0  0  0  0  0  0  0  0  0  0  0  0
  -26.1690  -11.7700   20.3400 N   0  0  0  0  0  0  0  0  0  0  0  0
  -24.1460  -10.5930   20.9230 C   0  0  0  0  0  0  0  0  0  0  0  0
  -24.5520   -9.6410   21.8810 C   0  0  0  0  0  3  0  0  0  0  0  0
  -23.8060   -8.4590   22.0820 C   0  0  0  0  0  3  0  0  0  0  0  0
  -22.6380   -8.2220   21.3190 C   0  0  0  0  0  0  0  0  0  0  0  0
  -22.2490   -9.1640   20.3490 C   0  0  0  0  0  3  0  0  0  0  0  0
  -22.9970  -10.3380   20.1490 C   0  0  0  0  0  3  0  0  0  0  0  0
  -21.8640   -7.0910   21.4240 O   0  0  0  0  0  0  0  0  0  0  0  0
  -21.7320   -6.4170   22.6100 C   0  0  0  0  0  0  0  0  0  0  0  0
  -21.2020   -7.0350   23.7640 C   0  0  0  0  0  3  0  0  0  0  0  0
  -21.0170   -6.2870   24.9430 C   0  0  0  0  0  3  0  0  0  0  0  0
  -21.3530   -4.9200   24.9700 C   0  0  0  0  0  0  0  0  0  0  0  0
  -21.8790   -4.3000   23.8220 C   0  0  0  0  0  3  0  0  0  0  0  0
  -22.0660   -5.0470   22.6460 C   0  0  0  0  0  0  0  0  0  0  0  0
  -22.5490   -4.4410   21.5350 F   0  0  0  0  0  0  0  0  0  0  0  0
  -21.1700   -4.1960   26.1000 F   0  0  0  0  0  0  0  0  0  0  0  0
  -23.1080  -13.7120   21.1370 C   0  0  0  0  0  0  0  0  0  0  0  0
  -22.4130  -13.0290   22.0390 N   0  0  0  0  0  0  0  0  0  0  0  0
  -22.6720  -14.7530   20.6490 O   0  0  0  0  0  0  0  0  0  0  0  0
  -22.7850  -12.1900   22.4560 H   0  0  0  0  0  0  0  0  0  0  0  0
  -21.4960  -13.3540   22.3150 H   0  0  0  0  0  0  0  0  0  0  0  0
  -25.7320  -15.3190   20.2080 N   0  0  0  0  0  0  0  0  0  0  0  0
  -24.9880  -15.9930   20.3570 H   0  0  0  0  0  0  0  0  0  0  0  0
  -26.5770  -15.7350   19.8350 H   0  0  0  0  0  0  0  0  0  0  0  0
  -28.1160  -23.7930   19.8200 C   0  0  0  0  0  2  0  0  0  0  0  0
  -28.6750  -25.2610   19.4650 C   0  0  0  0  0  2  0  0  0  0  0  0
  -28.4640  -26.4940   20.2700 O   0  0  0  0  0  0  0  0  0  0  0  0
  -24.5540  -31.7380   23.3160 C   0  0  0  0  0  0  0  0  0  0  0  0
  -27.3270  -27.3180   20.1720 C   0  0  0  0  0  0  0  0  0  0  0  0
  -23.4270  -30.3920   21.5780 C   0  0  0  0  0  3  0  0  0  0  0  0
  -24.9450  -28.9110   20.1400 C   0  0  0  0  0  0  0  0  0  0  0  0
  -25.9650  -30.7390   21.4980 C   0  0  0  0  0  2  0  0  0  0  0  0
  -26.0820  -29.3860   20.8020 C   0  0  0  0  0  0  0  0  0  0  0  0
  -27.2710  -28.5980   20.8120 C   0  0  0  0  0  3  0  0  0  0  0  0
  -26.1660  -26.8960   19.4890 C   0  0  0  0  0  3  0  0  0  0  0  0
  -24.9910  -27.6740   19.4740 C   0  0  0  0  0  3  0  0  0  0  0  0
  -23.6950  -29.7680   20.1820 C   0  0  0  0  0  2  0  0  0  0  0  0
  -24.6660  -30.9740   22.1870 N   0  0  0  0  0  0  0  0  0  0  0  0
  -23.4510  -31.9810   23.8230 O   0  0  0  0  0  0  0  0  0  0  0  0
  -22.7430  -29.3350   22.4770 C   0  0  0  0  0  0  0  0  0  0  0  0
  -21.4200  -29.1650   22.3090 N   0  0  0  0  0  0  0  0  0  0  0  0
  -23.4000  -28.6740   23.2860 O   0  0  0  0  0  0  0  0  0  0  0  0
  -20.9490  -29.7480   21.6300 H   0  0  0  0  0  0  0  0  0  0  0  0
  -18.0260  -27.9750   22.7000 C   0  0  0  0  0  0  0  0  0  0  0  0
  -20.5830  -28.1930   23.0130 C   0  0  0  0  0  3  0  0  0  0  0  0
  -20.6800  -26.7970   22.3550 C   0  0  0  0  0  2  0  0  0  0  0  0
  -19.5860  -26.5450   21.3110 C   0  0  0  0  0  2  0  0  0  0  0  0
  -18.1970  -26.6680   21.9460 C   0  0  0  0  0  2  0  0  0  0  0  0
  -19.1470  -28.6990   23.1880 C   0  0  0  0  0  0  0  0  0  0  0  0
  -18.9330  -29.9260   23.8520 C   0  0  0  0  0  3  0  0  0  0  0  0
  -17.6310  -30.4320   24.0300 C   0  0  0  0  0  3  0  0  0  0  0  0
  -16.5240  -29.7030   23.5590 C   0  0  0  0  0  3  0  0  0  0  0  0
  -16.7220  -28.4760   22.9020 C   0  0  0  0  0  3  0  0  0  0  0  0
  -25.8060  -32.3570   24.0090 C   0  0  0  0  0  3  0  0  0  0  0  0
  -25.4760  -33.7440   24.3640 N   0  0  0  0  0  0  0  0  0  0  0  0
  -25.8510  -34.8210   23.6620 C   0  0  0  0  0  0  0  0  0  0  0  0
  -26.5790  -34.7510   22.6680 O   0  0  0  0  0  0  0  0  0  0  0  0
  -24.8310  -33.8720   25.1290 H   0  0  0  0  0  0  0  0  0  0  0  0
  -24.1630  -36.6420   23.2530 C   0  0  0  0  0  1  0  0  0  0  0  0
  -25.3380  -36.1940   24.1380 C   0  0  0  0  0  3  0  0  0  0  0  0
  -27.4030  -37.0360   25.1660 C   0  0  0  0  0  1  0  0  0  0  0  0
  -26.3810  -37.2420   24.1420 N   0  0  0  0  0  0  0  0  0  0  0  0
  -25.9700  -38.1620   24.2830 H   0  0  0  0  0  0  0  0  0  0  0  0
  -26.2730  -31.5530   25.2860 C   0  0  1  0  0  0  0  0  0  0  0  0
  -25.1350  -31.2760   26.2960 C   0  0  0  0  0  1  0  0  0  0  0  0
  -26.8840  -30.1910   24.8830 C   0  0  0  0  0  1  0  0  0  0  0  0
  -27.3840  -32.3380   26.0210 C   0  0  0  0  0  1  0  0  0  0  0  0
  2  4  1  0
  2  1  1  0
  4  6  1  0
  4  3  1  0
  5  2  2  0
  7  6  1  0
  7  8  1  0
  9  8  1  0
 10 15  1  0
 11 12  1  0
 11 10  1  0
 13 12  1  0
 13 20  1  0
 13 14  1  0
 15  9  1  0
 15 14  1  0
 16  9  2  0
 17 18  2  0
 18 37  1  0
 19 18  1  0
 19 22  1  0
 20 21  1  0
 20 17  1  0
 21 19  2  0
 22 23  1  0
 23 24  2  0
 25 28  1  0
 25 24  1  0
 26 25  2  0
 27 26  1  0
 27 22  2  0
 28 29  1  0
 29 34  2  0
 29 30  1  0
 30 31  2  0
 31 32  1  0
 32 36  1  0
 33 32  2  0
 34 33  1  0
 35 34  1  0
 37 38  1  0
 38 41  1  0
 38 40  1  0
 39 37  2  0
 42 43  1  0
 42 17  1  0
 44 42  1  0
 45  1  1  0
 46 45  1  0
 46 47  1  0
 48 59  2  0
 49 47  1  0
 49 54  1  0
 50 58  1  0
 50 60  1  0
 51 57  1  0
 51 53  1  0
 52 58  1  0
 53 54  2  0
 53 52  1  0
 55 49  2  0
 56 55  1  0
 56 51  2  0
 57 50  1  0
 58 48  1  0
 60 62  2  0
 61 60  1  0
 63 61  1  0
 64 73  2  0
 64 69  1  0
 65 61  1  0
 65 69  1  0
 66 65  1  0
 67 68  1  0
 67 66  1  0
 68 64  1  0
 69 70  2  0
 70 71  1  0
 72 71  2  0
 73 72  1  0
 74 48  1  0
 74 75  1  0
 74 84  1  0
 75 78  1  0
 76 80  1  0
 76 75  1  0
 77 76  2  0
 80 79  1  0
 80 82  1  0
 82 83  1  0
 82 81  1  0
 84 87  1  1
 84 85  1  0
 86 84  1  0
M  ISO  4   8 100   9 100  46 101  47 101
M  END
>  <TORSDO>  (74) 
F 22

>  <SCORE>  (74) 
-12.388

>  <name>  (74) 
74

>  <ligand_id>  (74) 
74

>  <original_smiles>  (74) 
[H]c1c([H])c([H])c2c(c1[H])C([H])([H])C([H])([H])C([H])([H])C2([H])N([H])C(=O)C1([H])N(C(=O)C([H])(N([H])C(=O)C([H])(N([H])C([H])([H])[H])C([H])([H])[H])C(C([H])([H])[H])(C([H])([H])[H])C([H])([H])[H])C([H])([H])c2c([H])c(OC([H])([H])C([H])([H])C([H])([H])C(=O)N(C([H])([H])[H])C([H])([H])C([H])([H])C([H])([H])C(=O)N3C([H])([H])C([H])([H])C([H])([H])C([H])(n4nc(-c5c([H])c([H])c(Oc6c([H])c([H])c(F)c([H])c6F)c([H])c5[H])c(C(=O)N([H])[H])c4N([H])[H])C3([H])[H])c([H])c([H])c2C1([H])[H]

>  <smiles>  (74) 
[H]c1c([H])c([H])c2c(c1[H])C([H])([H])C([H])([H])C([H])([H])C2([H])N([H])C(=O)C1([H])N(C(=O)C([H])(N([H])C(=O)C([H])(N([H])C([H])([H])[H])C([H])([H])[H])C(C([H])([H])[H])(C([H])([H])[H])C([H])([H])[H])C([H])([H])c2c([H])c(OC([H])([H])C([H])([H])C([H])([H])C(=O)N(C([H])([H])[H])C([H])([H])C([H])([H])C([H])([H])C(=O)N3C([H])([H])C([H])([H])C([H])([H])C([H])(n4nc(-c5c([H])c([H])c(Oc6c([H])c([H])c(F)c([H])c6F)c([H])c5[H])c(C(=O)N([H])[H])c4N([H])[H])C3([H])[H])c([H])c([H])c2C1([H])[H]

$$$$
75:0:0
     RDKit          3D

 92 99  0  0  1  0  0  0  0  0999 V2000
  -25.8280  -22.1690   20.1790 C   0  0  0  0  0  1  0  0  0  0  0  0
  -27.2660  -22.5080   20.3000 N   0  0  2  0  0  4  0  0  0  0  0  0
  -27.6300  -22.3330   19.3770 H   0  0  0  0  0  0  0  0  0  0  0  0
  -29.0000  -22.0940   22.1670 C   0  0  0  0  0  1  0  0  0  0  0  0
  -27.9820  -21.5020   21.1740 C   0  0  0  0  0  3  0  0  0  0  0  0
  -28.6250  -20.3740   20.3100 C   0  0  0  0  0  2  0  0  0  0  0  0
  -28.7410  -18.9490   20.9480 C   0  0  0  0  0  2  0  0  0  0  0  0
  -31.1370  -19.1480   21.7230 C   0  0  0  0  0  1  0  0  0  0  0  0
  -30.1770  -18.3730   20.8090 C   0  0  0  0  0  3  0  0  0  0  0  0
  -30.4210  -16.8590   20.9620 C   0  0  0  0  0  2  0  0  0  0  0  0
  -30.3790  -15.9420   19.9680 C   0  0  0  0  0  3  0  0  0  0  0  0
  -29.8040  -16.2540   18.5930 C   0  0  0  0  0  1  0  0  0  0  0  0
  -31.1160  -14.6770   20.0750 C   0  0  0  0  0  0  0  0  0  0  0  0
  -30.8170  -12.3560   19.3480 C   0  0  0  0  0  2  0  0  0  0  0  0
  -29.9140  -12.3470   18.0980 C   0  0  0  0  0  2  0  0  0  0  0  0
  -28.4350  -12.2570   18.5190 C   0  0  0  0  0  2  0  0  0  0  0  0
  -28.0530  -13.2920   19.6120 C   0  0  0  0  0  3  0  0  0  0  0  0
  -29.0880  -13.3240   20.7550 C   0  0  0  0  0  2  0  0  0  0  0  0
  -30.4190  -13.5120   20.1700 N   0  0  0  0  0  0  0  0  0  0  0  0
  -32.3110  -14.6880   19.7820 O   0  0  0  0  0  0  0  0  0  0  0  0
  -25.6940  -13.9780   20.3510 C   0  0  0  0  0  0  0  0  0  0  0  0
  -24.6030  -13.2440   20.7310 C   0  0  0  0  0  0  0  0  0  0  0  0
  -25.0160  -11.8780   20.7050 C   0  0  0  0  0  0  0  0  0  0  0  0
  -26.7040  -13.0600   20.1140 N   0  0  0  0  0  0  0  0  0  0  0  0
  -26.3020  -11.7920   20.3890 N   0  0  0  0  0  0  0  0  0  0  0  0
  -24.2510  -10.6400   20.9050 C   0  0  0  0  0  0  0  0  0  0  0  0
  -24.6290   -9.6840   21.8720 C   0  0  0  0  0  3  0  0  0  0  0  0
  -23.8630   -8.5150   22.0600 C   0  0  0  0  0  3  0  0  0  0  0  0
  -22.7050   -8.2920   21.2780 C   0  0  0  0  0  0  0  0  0  0  0  0
  -22.3440   -9.2380   20.3020 C   0  0  0  0  0  3  0  0  0  0  0  0
  -23.1110  -10.3980   20.1120 C   0  0  0  0  0  3  0  0  0  0  0  0
  -21.9150   -7.1730   21.3710 O   0  0  0  0  0  0  0  0  0  0  0  0
  -21.7810   -6.4820   22.5480 C   0  0  0  0  0  0  0  0  0  0  0  0
  -21.3200   -7.1040   23.7290 C   0  0  0  0  0  3  0  0  0  0  0  0
  -21.1310   -6.3410   24.8980 C   0  0  0  0  0  3  0  0  0  0  0  0
  -21.3970   -4.9600   24.8890 C   0  0  0  0  0  0  0  0  0  0  0  0
  -21.8540   -4.3380   23.7130 C   0  0  0  0  0  3  0  0  0  0  0  0
  -22.0430   -5.0970   22.5450 C   0  0  0  0  0  0  0  0  0  0  0  0
  -22.4610   -4.4890   21.4090 F   0  0  0  0  0  0  0  0  0  0  0  0
  -21.2100   -4.2250   26.0100 F   0  0  0  0  0  0  0  0  0  0  0  0
  -23.2280  -13.7740   21.0130 C   0  0  0  0  0  0  0  0  0  0  0  0
  -22.4940  -13.1150   21.9040 N   0  0  0  0  0  0  0  0  0  0  0  0
  -22.8120  -14.7990   20.4750 O   0  0  0  0  0  0  0  0  0  0  0  0
  -22.8450  -12.2820   22.3530 H   0  0  0  0  0  0  0  0  0  0  0  0
  -21.5730  -13.4520   22.1410 H   0  0  0  0  0  0  0  0  0  0  0  0
  -25.9050  -15.3410   20.1680 N   0  0  0  0  0  0  0  0  0  0  0  0
  -25.1700  -16.0260   20.2990 H   0  0  0  0  0  0  0  0  0  0  0  0
  -26.7810  -15.7500   19.8630 H   0  0  0  0  0  0  0  0  0  0  0  0
  -27.4650  -23.9890   20.5110 C   0  0  0  0  0  2  0  0  0  0  0  0
  -28.5960  -24.6060   19.6430 C   0  0  0  0  0  2  0  0  0  0  0  0
  -28.1970  -25.7170   18.6220 C   0  0  0  0  0  2  0  0  0  0  0  0
  -28.1290  -27.0550   19.1600 O   0  0  0  0  0  0  0  0  0  0  0  0
  -24.5160  -31.8030   23.0340 C   0  0  0  0  0  0  0  0  0  0  0  0
  -26.9290  -27.7370   19.2940 C   0  0  0  0  0  0  0  0  0  0  0  0
  -23.1940  -30.5600   21.3580 C   0  0  0  0  0  3  0  0  0  0  0  0
  -24.5310  -29.2110   19.6630 C   0  0  0  0  0  0  0  0  0  0  0  0
  -25.6890  -30.9820   20.9890 C   0  0  0  0  0  2  0  0  0  0  0  0
  -25.7330  -29.6870   20.2010 C   0  0  0  0  0  0  0  0  0  0  0  0
  -26.9310  -28.9600   20.0090 C   0  0  0  0  0  3  0  0  0  0  0  0
  -25.7020  -27.2790   18.7560 C   0  0  0  0  0  3  0  0  0  0  0  0
  -24.5140  -28.0100   18.9340 C   0  0  0  0  0  3  0  0  0  0  0  0
  -23.2900  -30.0390   19.9000 C   0  0  0  0  0  2  0  0  0  0  0  0
  -24.4910  -31.1250   21.8530 N   0  0  0  0  0  0  0  0  0  0  0  0
  -23.4830  -31.9940   23.6880 O   0  0  0  0  0  0  0  0  0  0  0  0
  -22.6400  -29.4290   22.2550 C   0  0  0  0  0  0  0  0  0  0  0  0
  -21.3140  -29.2160   22.1980 N   0  0  0  0  0  0  0  0  0  0  0  0
  -23.3970  -28.7520   22.9570 O   0  0  0  0  0  0  0  0  0  0  0  0
  -20.7620  -29.8250   21.6090 H   0  0  0  0  0  0  0  0  0  0  0  0
  -18.0260  -27.8120   22.7330 C   0  0  0  0  0  0  0  0  0  0  0  0
  -20.5780  -28.1810   22.9220 C   0  0  0  0  0  3  0  0  0  0  0  0
  -20.7270  -26.8060   22.2290 C   0  0  0  0  0  2  0  0  0  0  0  0
  -19.5930  -26.4970   21.2440 C   0  0  0  0  0  2  0  0  0  0  0  0
  -18.2390  -26.5230   21.9590 C   0  0  0  0  0  2  0  0  0  0  0  0
  -19.1240  -28.5970   23.1750 C   0  0  0  0  0  0  0  0  0  0  0  0
  -18.8690  -29.8010   23.8670 C   0  0  0  0  0  3  0  0  0  0  0  0
  -17.5500  -30.2160   24.1260 C   0  0  0  0  0  3  0  0  0  0  0  0
  -16.4680  -29.4280   23.6980 C   0  0  0  0  0  3  0  0  0  0  0  0
  -16.7060  -28.2280   23.0060 C   0  0  0  0  0  3  0  0  0  0  0  0
  -25.8410  -32.3940   23.6090 C   0  0  0  0  0  3  0  0  0  0  0  0
  -26.4810  -31.4970   24.7390 C   0  0  1  0  0  0  0  0  0  0  0  0
  -25.4920  -31.1190   25.8670 C   0  0  0  0  0  1  0  0  0  0  0  0
  -27.0340  -30.1820   24.1410 C   0  0  0  0  0  1  0  0  0  0  0  0
  -27.6830  -32.2320   25.3780 C   0  0  0  0  0  1  0  0  0  0  0  0
  -25.5420  -33.7390   24.1190 N   0  0  0  0  0  0  0  0  0  0  0  0
  -25.8070  -34.8750   23.4640 C   0  0  0  0  0  0  0  0  0  0  0  0
  -26.4040  -34.9030   22.3860 O   0  0  0  0  0  0  0  0  0  0  0  0
  -24.9980  -33.7870   24.9690 H   0  0  0  0  0  0  0  0  0  0  0  0
  -24.0380  -36.6630   23.4350 C   0  0  0  0  0  1  0  0  0  0  0  0
  -25.3370  -36.1950   24.1080 C   0  0  0  0  0  3  0  0  0  0  0  0
  -27.5180  -37.0170   24.8810 C   0  0  0  0  0  1  0  0  0  0  0  0
  -26.3490  -37.2730   24.0460 N   0  0  0  0  0  0  0  0  0  0  0  0
  -25.9450  -38.1630   24.3290 H   0  0  0  0  0  0  0  0  0  0  0  0
  1  2  1  0
  2 49  1  0
  2  5  1  0
  2  3  1  6
  5  4  1  0
  6  7  1  0
  6  5  1  0
  9  7  1  0
  9 10  1  0
  9  8  1  0
 11 12  1  0
 11 13  1  0
 11 10  1  0
 13 19  1  0
 14 19  1  0
 15 16  1  0
 15 14  1  0
 17 16  1  0
 17 24  1  0
 17 18  1  0
 19 18  1  0
 20 13  2  0
 21 22  2  0
 22 41  1  0
 23 22  1  0
 23 26  1  0
 24 21  1  0
 24 25  1  0
 25 23  2  0
 26 27  1  0
 27 28  2  0
 29 32  1  0
 29 28  1  0
 30 29  2  0
 31 30  1  0
 31 26  2  0
 32 33  1  0
 33 34  1  0
 34 35  2  0
 36 35  1  0
 36 40  1  0
 37 36  2  0
 38 33  2  0
 38 37  1  0
 39 38  1  0
 41 42  1  0
 42 45  1  0
 42 44  1  0
 43 41  2  0
 46 47  1  0
 46 21  1  0
 48 46  1  0
 50 49  1  0
 51 52  1  0
 51 50  1  0
 52 54  1  0
 53 64  2  0
 54 59  1  0
 55 63  1  0
 55 65  1  0
 56 62  1  0
 56 58  1  0
 57 63  1  0
 58 57  1  0
 59 58  2  0
 60 61  1  0
 60 54  2  0
 61 56  2  0
 62 55  1  0
 63 53  1  0
 65 67  2  0
 66 65  1  0
 68 66  1  0
 69 78  2  0
 69 74  1  0
 70 66  1  0
 70 74  1  0
 71 70  1  0
 72 73  1  0
 72 71  1  0
 73 69  1  0
 74 75  2  0
 75 76  1  0
 77 76  2  0
 78 77  1  0
 79 53  1  0
 79 84  1  0
 79 80  1  0
 80 83  1  1
 80 81  1  0
 82 80  1  0
 84 87  1  0
 85 89  1  0
 85 84  1  0
 86 85  2  0
 89 88  1  0
 91 89  1  0
 91 92  1  0
 91 90  1  0
M  ISO  4  11 100  13 100  51 101  52 101
M  END
>  <TORSDO>  (75) 
F 24

>  <SCORE>  (75) 
-10.726

>  <name>  (75) 
75

>  <ligand_id>  (75) 
75

>  <original_smiles>  (75) 
[H]C(=C(C(=O)N1C([H])([H])C([H])([H])C([H])([H])C([H])(n2nc(-c3c([H])c([H])c(Oc4c([H])c([H])c(F)c([H])c4F)c([H])c3[H])c(C(=O)N([H])[H])c2N([H])[H])C1([H])[H])C([H])([H])[H])C([H])(C([H])([H])[H])C([H])([H])C([H])([H])C([H])(C([H])([H])[H])[N+]([H])(C([H])([H])[H])C([H])([H])C([H])([H])C([H])([H])Oc1c([H])c([H])c2c(c1[H])C([H])([H])N(C(=O)C([H])(N([H])C(=O)C([H])(N([H])C([H])([H])[H])C([H])([H])[H])C(C([H])([H])[H])(C([H])([H])[H])C([H])([H])[H])C([H])(C(=O)N([H])C1([H])c3c([H])c([H])c([H])c([H])c3C([H])([H])C([H])([H])C1([H])[H])C2([H])[H]

>  <smiles>  (75) 
[H]C(=C(C(=O)N1C([H])([H])C([H])([H])C([H])([H])C([H])(n2nc(-c3c([H])c([H])c(Oc4c([H])c([H])c(F)c([H])c4F)c([H])c3[H])c(C(=O)N([H])[H])c2N([H])[H])C1([H])[H])C([H])([H])[H])C([H])(C([H])([H])[H])C([H])([H])C([H])([H])C([H])(C([H])([H])[H])[N+]([H])(C([H])([H])[H])C([H])([H])C([H])([H])C([H])([H])Oc1c([H])c([H])c2c(c1[H])C([H])([H])N(C(=O)C([H])(N([H])C(=O)C([H])(N([H])C([H])([H])[H])C([H])([H])[H])C(C([H])([H])[H])(C([H])([H])[H])C([H])([H])[H])C([H])(C(=O)N([H])C1([H])c3c([H])c([H])c([H])c([H])c3C([H])([H])C([H])([H])C1([H])[H])C2([H])[H]

$$$$
76:0:0
     RDKit          3D

 95102  0  0  1  0  0  0  0  0999 V2000
  -29.9550  -21.9710   19.2450 C   0  0  0  0  0  3  0  0  0  0  0  0
  -32.2670  -23.1740   18.8920 C   0  0  0  0  0  1  0  0  0  0  0  0
  -31.8740  -20.9470   17.8680 C   0  0  0  0  0  1  0  0  0  0  0  0
  -31.5140  -21.8400   19.0770 C   0  0  0  0  0  3  0  0  0  0  0  0
  -30.0710  -22.8740   21.5660 C   0  0  0  0  0  1  0  0  0  0  0  0
  -29.4760  -22.9800   20.2350 N   0  0  0  0  0  0  0  0  0  0  0  0
  -29.4530  -24.3950   19.7730 C   0  0  0  0  0  2  0  0  0  0  0  0
  -28.3600  -25.2810   20.4510 C   0  0  0  0  0  2  0  0  0  0  0  0
  -28.4220  -26.6740   20.0590 O   0  0  0  0  0  0  0  0  0  0  0  0
  -24.6180  -31.8660   23.2050 C   0  0  0  0  0  0  0  0  0  0  0  0
  -27.2470  -27.4070   20.0980 C   0  0  0  0  0  0  0  0  0  0  0  0
  -23.4070  -30.4820   21.5520 C   0  0  0  0  0  3  0  0  0  0  0  0
  -24.8550  -28.9390   20.1220 C   0  0  0  0  0  0  0  0  0  0  0  0
  -25.9360  -30.8240   21.3540 C   0  0  0  0  0  2  0  0  0  0  0  0
  -26.0170  -29.4500   20.7130 C   0  0  0  0  0  0  0  0  0  0  0  0
  -27.2150  -28.6930   20.6960 C   0  0  0  0  0  3  0  0  0  0  0  0
  -26.0640  -26.9210   19.4950 C   0  0  0  0  0  3  0  0  0  0  0  0
  -24.8750  -27.6730   19.5100 C   0  0  0  0  0  3  0  0  0  0  0  0
  -23.6150  -29.8020   20.1730 C   0  0  0  0  0  2  0  0  0  0  0  0
  -24.6740  -31.0720   22.0970 N   0  0  0  0  0  0  0  0  0  0  0  0
  -23.5360  -32.1390   23.7440 O   0  0  0  0  0  0  0  0  0  0  0  0
  -22.7430  -29.4630   22.5050 C   0  0  0  0  0  0  0  0  0  0  0  0
  -21.4160  -29.3020   22.3800 N   0  0  0  0  0  0  0  0  0  0  0  0
  -23.4200  -28.8160   23.3090 O   0  0  0  0  0  0  0  0  0  0  0  0
  -20.9340  -29.8760   21.7030 H   0  0  0  0  0  0  0  0  0  0  0  0
  -18.0260  -28.1370   22.8490 C   0  0  0  0  0  0  0  0  0  0  0  0
  -20.5840  -28.3650   23.1350 C   0  0  0  0  0  3  0  0  0  0  0  0
  -20.6750  -26.9390   22.5440 C   0  0  0  0  0  2  0  0  0  0  0  0
  -19.5740  -26.6370   21.5220 C   0  0  0  0  0  2  0  0  0  0  0  0
  -18.1910  -26.7910   22.1630 C   0  0  0  0  0  2  0  0  0  0  0  0
  -19.1510  -28.8830   23.2910 C   0  0  0  0  0  0  0  0  0  0  0  0
  -18.9440  -30.1430   23.8920 C   0  0  0  0  0  3  0  0  0  0  0  0
  -17.6440  -30.6590   24.0560 C   0  0  0  0  0  3  0  0  0  0  0  0
  -16.5330  -29.9100   23.6320 C   0  0  0  0  0  3  0  0  0  0  0  0
  -16.7240  -28.6510   23.0340 C   0  0  0  0  0  3  0  0  0  0  0  0
  -25.9040  -32.4830   23.8370 C   0  0  0  0  0  3  0  0  0  0  0  0
  -25.5860  -33.8620   24.2310 N   0  0  0  0  0  0  0  0  0  0  0  0
  -25.9020  -34.9500   23.5150 C   0  0  0  0  0  0  0  0  0  0  0  0
  -26.5600  -34.8950   22.4720 O   0  0  0  0  0  0  0  0  0  0  0  0
  -25.0010  -33.9750   25.0460 H   0  0  0  0  0  0  0  0  0  0  0  0
  -24.1470  -36.7330   23.2640 C   0  0  0  0  0  1  0  0  0  0  0  0
  -25.4090  -36.3140   24.0360 C   0  0  0  0  0  3  0  0  0  0  0  0
  -27.5580  -37.1820   24.8460 C   0  0  0  0  0  1  0  0  0  0  0  0
  -26.4280  -37.3830   23.9420 N   0  0  0  0  0  0  0  0  0  0  0  0
  -26.0200  -38.2920   24.1430 H   0  0  0  0  0  0  0  0  0  0  0  0
  -26.4420  -31.6620   25.0710 C   0  0  1  0  0  0  0  0  0  0  0  0
  -25.3660  -31.3720   26.1460 C   0  0  0  0  0  1  0  0  0  0  0  0
  -27.0230  -30.3080   24.6030 C   0  0  0  0  0  1  0  0  0  0  0  0
  -27.6030  -32.4300   25.7460 C   0  0  0  0  0  1  0  0  0  0  0  0
  -29.2230  -20.5670   19.3860 C   0  0  0  0  0  3  0  0  0  0  0  0
  -29.8590  -19.6530   20.3950 N   0  0  0  0  0  4  0  0  0  0  0  0
  -30.8450  -19.6340   20.1910 H   0  0  0  0  0  0  0  0  0  0  0  0
  -29.7580  -20.0620   21.3110 H   0  0  0  0  0  0  0  0  0  0  0  0
  -29.3760  -18.2330   20.4370 C   0  0  0  0  0  3  0  0  0  0  0  0
  -30.4550  -17.1710   20.8320 C   0  0  0  0  0  3  0  0  0  0  0  0
  -29.9020  -15.7340   21.1600 C   0  0  0  0  0  2  0  0  0  0  0  0
  -30.6670  -14.5130   20.5650 C   0  0  0  0  0  0  0  0  0  0  0  0
  -30.4360  -12.3310   19.4150 C   0  0  0  0  0  2  0  0  0  0  0  0
  -29.4980  -12.5070   18.2010 C   0  0  0  0  0  2  0  0  0  0  0  0
  -28.0200  -12.3620   18.6170 C   0  0  0  0  0  2  0  0  0  0  0  0
  -27.6630  -13.1990   19.8720 C   0  0  0  0  0  3  0  0  0  0  0  0
  -28.7120  -12.9870   20.9870 C   0  0  0  0  0  2  0  0  0  0  0  0
  -30.0340  -13.3130   20.4360 N   0  0  0  0  0  0  0  0  0  0  0  0
  -31.8020  -14.6950   20.1120 O   0  0  0  0  0  0  0  0  0  0  0  0
  -25.2640  -13.8110   20.5720 C   0  0  0  0  0  0  0  0  0  0  0  0
  -24.1870  -13.0410   20.9230 C   0  0  0  0  0  0  0  0  0  0  0  0
  -24.6420  -11.6890   20.8750 C   0  0  0  0  0  0  0  0  0  0  0  0
  -26.3050  -12.9260   20.3370 N   0  0  0  0  0  0  0  0  0  0  0  0
  -25.9340  -11.6440   20.5750 N   0  0  0  0  0  0  0  0  0  0  0  0
  -23.9060  -10.4280   21.0390 C   0  0  0  0  0  0  0  0  0  0  0  0
  -24.3610   -9.4190   21.9170 C   0  0  0  0  0  3  0  0  0  0  0  0
  -23.6270   -8.2250   22.0750 C   0  0  0  0  0  3  0  0  0  0  0  0
  -22.4250   -8.0290   21.3550 C   0  0  0  0  0  0  0  0  0  0  0  0
  -21.9880   -9.0270   20.4650 C   0  0  0  0  0  3  0  0  0  0  0  0
  -22.7220  -10.2140   20.3050 C   0  0  0  0  0  3  0  0  0  0  0  0
  -21.6630   -6.8880   21.4250 O   0  0  0  0  0  0  0  0  0  0  0  0
  -21.6850   -6.0750   22.5300 C   0  0  0  0  0  0  0  0  0  0  0  0
  -21.4010   -6.5660   23.8230 C   0  0  0  0  0  3  0  0  0  0  0  0
  -21.3640   -5.6810   24.9200 C   0  0  0  0  0  3  0  0  0  0  0  0
  -21.6030   -4.3070   24.7230 C   0  0  0  0  0  0  0  0  0  0  0  0
  -21.8820   -3.8170   23.4350 C   0  0  0  0  0  3  0  0  0  0  0  0
  -21.9190   -4.6990   22.3400 C   0  0  0  0  0  0  0  0  0  0  0  0
  -22.1660   -4.2180   21.0990 F   0  0  0  0  0  0  0  0  0  0  0  0
  -21.5620   -3.4540   25.7730 F   0  0  0  0  0  0  0  0  0  0  0  0
  -22.7890  -13.5230   21.1880 C   0  0  0  0  0  0  0  0  0  0  0  0
  -22.0480  -12.8230   22.0410 N   0  0  0  0  0  0  0  0  0  0  0  0
  -22.3560  -14.5540   20.6740 O   0  0  0  0  0  0  0  0  0  0  0  0
  -22.4010  -11.9850   22.4790 H   0  0  0  0  0  0  0  0  0  0  0  0
  -21.1090  -13.1290   22.2530 H   0  0  0  0  0  0  0  0  0  0  0  0
  -25.4440  -15.1800   20.4150 N   0  0  0  0  0  0  0  0  0  0  0  0
  -24.7100  -15.8500   20.6180 H   0  0  0  0  0  0  0  0  0  0  0  0
  -26.2920  -15.6100   20.0680 H   0  0  0  0  0  0  0  0  0  0  0  0
  -27.6770  -20.6710   19.5480 C   0  0  0  0  0  2  0  0  0  0  0  0
  -26.6910  -22.6120   18.1050 C   0  0  0  0  0  1  0  0  0  0  0  0
  -26.8980  -21.1010   18.2820 C   0  0  0  0  0  2  0  0  0  0  0  0
  1  4  1  0
  1 50  1  0
  1  6  1  0
  2  4  1  0
  3  4  1  0
  6  5  1  0
  7  6  1  0
  7  8  1  0
  9 11  1  0
  9  8  1  0
 10 21  2  0
 11 16  1  0
 12 20  1  0
 12 22  1  0
 13 19  1  0
 13 15  1  0
 14 20  1  0
 15 14  1  0
 16 15  2  0
 17 18  1  0
 17 11  2  0
 18 13  2  0
 19 12  1  0
 20 10  1  0
 22 24  2  0
 23 22  1  0
 25 23  1  0
 26 35  2  0
 26 31  1  0
 27 23  1  0
 27 31  1  0
 28 27  1  0
 29 30  1  0
 29 28  1  0
 30 26  1  0
 31 32  2  0
 32 33  1  0
 34 33  2  0
 35 34  1  0
 36 10  1  0
 36 37  1  0
 36 46  1  0
 37 40  1  0
 38 42  1  0
 38 37  1  0
 39 38  2  0
 42 41  1  0
 44 42  1  0
 44 45  1  0
 44 43  1  0
 46 49  1  1
 46 47  1  0
 48 46  1  0
 50 93  1  0
 50 51  1  0
 51 54  1  0
 51 53  1  0
 52 51  1  0
 54 55  2  0
 55 56  1  0
 57 56  1  0
 58 63  1  0
 59 60  1  0
 59 58  1  0
 61 60  1  0
 61 68  1  0
 61 62  1  0
 63 57  1  0
 63 62  1  0
 64 57  2  0
 65 66  2  0
 66 85  1  0
 67 66  1  0
 67 70  1  0
 68 65  1  0
 68 69  1  0
 69 67  2  0
 70 71  1  0
 71 72  2  0
 73 76  1  0
 73 72  1  0
 74 73  2  0
 75 74  1  0
 75 70  2  0
 76 77  1  0
 77 78  1  0
 78 79  2  0
 80 79  1  0
 80 84  1  0
 81 80  2  0
 82 77  2  0
 82 81  1  0
 83 82  1  0
 85 86  1  0
 86 89  1  0
 86 88  1  0
 87 85  2  0
 90 65  1  0
 90 91  1  0
 92 90  1  0
 94 95  1  0
 95 93  1  0
M  ISO  4   8 101   9 101  56 100  57 100
M  END
>  <TORSDO>  (76) 
F 27

>  <SCORE>  (76) 
-11.622

>  <name>  (76) 
76

>  <ligand_id>  (76) 
76

>  <original_smiles>  (76) 
[H]c1c([H])c([H])c2c(c1[H])C([H])([H])C([H])([H])C([H])([H])C2([H])N([H])C(=O)C1([H])N(C(=O)C([H])(N([H])C(=O)C([H])(N([H])C([H])([H])[H])C([H])([H])[H])C(C([H])([H])[H])(C([H])([H])[H])C([H])([H])[H])C([H])([H])c2c([H])c(OC([H])([H])C([H])([H])N(C([H])([H])[H])C([H])(C([H])(C([H])([H])[H])C([H])([H])[H])C([H])(C([H])([H])C([H])([H])C([H])([H])[H])[N+]([H])([H])C([H])([H])C([H])([H])C([H])([H])C(=O)N3C([H])([H])C([H])([H])C([H])([H])C([H])(n4nc(-c5c([H])c([H])c(Oc6c([H])c([H])c(F)c([H])c6F)c([H])c5[H])c(C(=O)N([H])[H])c4N([H])[H])C3([H])[H])c([H])c([H])c2C1([H])[H]

>  <smiles>  (76) 
[H]c1c([H])c([H])c2c(c1[H])C([H])([H])C([H])([H])C([H])([H])C2([H])N([H])C(=O)C1([H])N(C(=O)C([H])(N([H])C(=O)C([H])(N([H])C([H])([H])[H])C([H])([H])[H])C(C([H])([H])[H])(C([H])([H])[H])C([H])([H])[H])C([H])([H])c2c([H])c(OC([H])([H])C([H])([H])N(C([H])([H])[H])C([H])(C([H])(C([H])([H])[H])C([H])([H])[H])C([H])(C([H])([H])C([H])([H])C([H])([H])[H])[N+]([H])([H])C([H])([H])C([H])([H])C([H])([H])C(=O)N3C([H])([H])C([H])([H])C([H])([H])C([H])(n4nc(-c5c([H])c([H])c(Oc6c([H])c([H])c(F)c([H])c6F)c([H])c5[H])c(C(=O)N([H])[H])c4N([H])[H])C3([H])[H])c([H])c([H])c2C1([H])[H]

$$$$
77:0:0
     RDKit          3D

100108  0  0  1  0  0  0  0  0999 V2000
  -28.1640  -21.1840   20.4060 C   0  0  0  0  0  3  0  0  0  0  0  0
  -28.8660  -20.0040   19.7740 N   0  0  0  0  0  4  0  0  0  0  0  0
  -28.5150  -19.9050   18.8370 H   0  0  0  0  0  0  0  0  0  0  0  0
  -29.8450  -20.2280   19.6930 H   0  0  0  0  0  0  0  0  0  0  0  0
  -28.7250  -18.6770   20.4880 C   0  0  0  0  0  2  0  0  0  0  0  0
  -29.4420  -17.4280   19.8620 C   0  0  0  0  0  2  0  0  0  0  0  0
  -29.4530  -16.1830   20.8280 C   0  0  0  0  0  2  0  0  0  0  0  0
  -30.2790  -14.9350   20.3820 C   0  0  0  0  0  0  0  0  0  0  0  0
  -30.3280  -12.5490   19.7060 C   0  0  0  0  0  2  0  0  0  0  0  0
  -29.4100  -12.3630   18.4790 C   0  0  0  0  0  2  0  0  0  0  0  0
  -27.9450  -12.1320   18.9110 C   0  0  0  0  0  2  0  0  0  0  0  0
  -27.4660  -13.1550   19.9750 C   0  0  0  0  0  3  0  0  0  0  0  0
  -28.5050  -13.2820   21.1130 C   0  0  0  0  0  2  0  0  0  0  0  0
  -29.7880  -13.6640   20.5030 N   0  0  0  0  0  0  0  0  0  0  0  0
  -31.3750  -15.1440   19.8560 O   0  0  0  0  0  0  0  0  0  0  0  0
  -25.0620  -13.6580   20.7460 C   0  0  0  0  0  0  0  0  0  0  0  0
  -24.0340  -12.8380   21.1290 C   0  0  0  0  0  0  0  0  0  0  0  0
  -24.5450  -11.5050   21.0620 C   0  0  0  0  0  0  0  0  0  0  0  0
  -26.1350  -12.8210   20.4800 N   0  0  0  0  0  0  0  0  0  0  0  0
  -25.8280  -11.5200   20.7240 N   0  0  0  0  0  0  0  0  0  0  0  0
  -23.8710  -10.2120   21.2430 C   0  0  0  0  0  0  0  0  0  0  0  0
  -24.3370   -9.2650   22.1800 C   0  0  0  0  0  3  0  0  0  0  0  0
  -23.6600   -8.0380   22.3520 C   0  0  0  0  0  3  0  0  0  0  0  0
  -22.5050   -7.7510   21.5860 C   0  0  0  0  0  0  0  0  0  0  0  0
  -22.0630   -8.6890   20.6370 C   0  0  0  0  0  3  0  0  0  0  0  0
  -22.7390   -9.9060   20.4620 C   0  0  0  0  0  3  0  0  0  0  0  0
  -21.7980   -6.5750   21.6680 O   0  0  0  0  0  0  0  0  0  0  0  0
  -21.7440   -5.8470   22.8290 C   0  0  0  0  0  0  0  0  0  0  0  0
  -21.2540   -6.3980   24.0340 C   0  0  0  0  0  3  0  0  0  0  0  0
  -21.1500   -5.5940   25.1860 C   0  0  0  0  0  3  0  0  0  0  0  0
  -21.5270   -4.2380   25.1350 C   0  0  0  0  0  0  0  0  0  0  0  0
  -22.0090   -3.6870   23.9350 C   0  0  0  0  0  3  0  0  0  0  0  0
  -22.1140   -4.4880   22.7850 C   0  0  0  0  0  0  0  0  0  0  0  0
  -22.5580   -3.9450   21.6260 F   0  0  0  0  0  0  0  0  0  0  0  0
  -21.4220   -3.4630   26.2390 F   0  0  0  0  0  0  0  0  0  0  0  0
  -22.6270  -13.2560   21.4440 C   0  0  0  0  0  0  0  0  0  0  0  0
  -21.9610  -12.5360   22.3410 N   0  0  0  0  0  0  0  0  0  0  0  0
  -22.1270  -14.2550   20.9290 O   0  0  0  0  0  0  0  0  0  0  0  0
  -22.3790  -11.7280   22.7800 H   0  0  0  0  0  0  0  0  0  0  0  0
  -21.0160  -12.7940   22.5930 H   0  0  0  0  0  0  0  0  0  0  0  0
  -25.1690  -15.0360   20.5790 N   0  0  0  0  0  0  0  0  0  0  0  0
  -24.3710  -15.6510   20.6940 H   0  0  0  0  0  0  0  0  0  0  0  0
  -25.9830  -15.5030   20.2050 H   0  0  0  0  0  0  0  0  0  0  0  0
  -26.6760  -21.2240   19.9020 C   0  0  0  0  0  2  0  0  0  0  0  0
  -25.2720  -24.8970   19.9200 C   0  0  0  0  0  2  0  0  0  0  0  0
  -23.9400  -24.6330   19.1970 C   0  0  0  0  0  2  0  0  0  0  0  0
  -25.8730  -23.6020   20.4900 C   0  0  0  0  0  2  0  0  0  0  0  0
  -24.6930  -22.2700   18.7130 C   0  0  0  0  0  2  0  0  0  0  0  0
  -24.0910  -23.5510   18.1110 C   0  0  0  0  0  3  0  0  0  0  0  0
  -26.0550  -22.5440   19.3840 C   0  0  0  0  0  3  0  0  0  0  0  0
  -22.7530  -23.2630   17.4160 C   0  0  0  0  0  1  0  0  0  0  0  0
  -28.8860  -22.5880   20.2050 C   0  0  0  0  0  3  0  0  0  0  0  0
  -29.7080  -23.1190   21.3170 N   0  0  0  0  0  0  0  0  0  0  0  0
  -29.6390  -22.5130   22.1300 H   0  0  0  0  0  0  0  0  0  0  0  0
  -29.3010  -24.4770   21.7720 C   0  0  0  0  0  2  0  0  0  0  0  0
  -30.4020  -25.5780   21.6050 C   0  0  0  0  0  2  0  0  0  0  0  0
  -30.0390  -26.9310   21.9840 O   0  0  0  0  0  0  0  0  0  0  0  0
  -25.0900  -31.7780   23.7140 C   0  0  0  0  0  0  0  0  0  0  0  0
  -28.8120  -27.4850   21.6510 C   0  0  0  0  0  0  0  0  0  0  0  0
  -24.4190  -30.1060   22.0210 C   0  0  0  0  0  3  0  0  0  0  0  0
  -26.3020  -28.6780   21.0570 C   0  0  0  0  0  0  0  0  0  0  0  0
  -26.8740  -30.7830   22.2740 C   0  0  0  0  0  2  0  0  0  0  0  0
  -27.2500  -29.3910   21.7970 C   0  0  0  0  0  0  0  0  0  0  0  0
  -28.5070  -28.8010   22.0880 C   0  0  0  0  0  3  0  0  0  0  0  0
  -27.8390  -26.7900   20.8960 C   0  0  0  0  0  3  0  0  0  0  0  0
  -26.5930  -27.3790   20.6050 C   0  0  0  0  0  3  0  0  0  0  0  0
  -24.9820  -29.3640   20.7810 C   0  0  0  0  0  2  0  0  0  0  0  0
  -25.4650  -30.9130   22.7280 N   0  0  0  0  0  0  0  0  0  0  0  0
  -23.8970  -31.9380   24.0110 O   0  0  0  0  0  0  0  0  0  0  0  0
  -23.7160  -29.0790   22.9390 C   0  0  0  0  0  0  0  0  0  0  0  0
  -22.4910  -28.6710   22.5610 N   0  0  0  0  0  0  0  0  0  0  0  0
  -24.2770  -28.6470   23.9490 O   0  0  0  0  0  0  0  0  0  0  0  0
  -22.0960  -29.0780   21.7240 H   0  0  0  0  0  0  0  0  0  0  0  0
  -19.2490  -27.0710   22.5530 C   0  0  0  0  0  0  0  0  0  0  0  0
  -21.6620  -27.6830   23.2510 C   0  0  0  0  0  3  0  0  0  0  0  0
  -22.0390  -26.2440   22.8270 C   0  0  0  0  0  2  0  0  0  0  0  0
  -21.1940  -25.7120   21.6660 C   0  0  0  0  0  2  0  0  0  0  0  0
  -19.7090  -25.7160   22.0390 C   0  0  0  0  0  2  0  0  0  0  0  0
  -20.1690  -28.0010   23.1070 C   0  0  0  0  0  0  0  0  0  0  0  0
  -19.6960  -29.2600   23.5360 C   0  0  0  0  0  3  0  0  0  0  0  0
  -18.3320  -29.5920   23.4280 C   0  0  0  0  0  3  0  0  0  0  0  0
  -17.4240  -28.6620   22.8950 C   0  0  0  0  0  3  0  0  0  0  0  0
  -17.8820  -27.4050   22.4600 C   0  0  0  0  0  3  0  0  0  0  0  0
  -26.1360  -32.6300   24.4990 C   0  0  0  0  0  3  0  0  0  0  0  0
  -25.6620  -34.0210   24.5080 N   0  0  0  0  0  0  0  0  0  0  0  0
  -26.0920  -34.9770   23.6720 C   0  0  0  0  0  0  0  0  0  0  0  0
  -26.9960  -34.7930   22.8530 O   0  0  0  0  0  0  0  0  0  0  0  0
  -24.8840  -34.2300   25.1160 H   0  0  0  0  0  0  0  0  0  0  0  0
  -24.3840  -36.5010   22.6330 C   0  0  0  0  0  1  0  0  0  0  0  0
  -25.4150  -36.3590   23.7620 C   0  0  0  0  0  3  0  0  0  0  0  0
  -27.2170  -37.5830   24.8940 C   0  0  0  0  0  1  0  0  0  0  0  0
  -26.3690  -37.4880   23.7090 N   0  0  0  0  0  0  0  0  0  0  0  0
  -25.8800  -38.3710   23.5960 H   0  0  0  0  0  0  0  0  0  0  0  0
  -26.3750  -32.1170   25.9730 C   0  0  1  0  0  0  0  0  0  0  0  0
  -25.0730  -31.8930   26.7770 C   0  0  0  0  0  1  0  0  0  0  0  0
  -27.1570  -30.7820   25.9640 C   0  0  0  0  0  1  0  0  0  0  0  0
  -27.2450  -33.1350   26.7470 C   0  0  0  0  0  1  0  0  0  0  0  0
  -29.6720  -22.6850   18.8760 C   0  0  0  0  0  2  0  0  0  0  0  0
  -30.0770  -24.0950   16.7810 C   0  0  0  0  0  1  0  0  0  0  0  0
  -29.6990  -24.1010   18.2660 C   0  0  0  0  0  2  0  0  0  0  0  0
  1 44  1  0
  2  1  1  0
  2  5  1  0
  3  2  1  0
  4  2  1  0
  6  5  1  0
  6  7  1  0
  8 14  1  0
  8  7  1  0
  9 14  1  0
 10 11  1  0
 10  9  1  0
 12 11  1  0
 12 19  1  0
 12 13  1  0
 14 13  1  0
 15  8  2  0
 16 17  2  0
 17 36  1  0
 18 17  1  0
 18 21  1  0
 19 20  1  0
 19 16  1  0
 20 18  2  0
 21 22  1  0
 22 23  2  0
 24 27  1  0
 24 23  1  0
 25 24  2  0
 26 25  1  0
 26 21  2  0
 27 28  1  0
 28 29  1  0
 29 30  2  0
 31 30  1  0
 31 35  1  0
 32 31  2  0
 33 28  2  0
 33 32  1  0
 34 33  1  0
 36 37  1  0
 37 40  1  0
 37 39  1  0
 38 36  2  0
 41 42  1  0
 41 16  1  0
 43 41  1  0
 45 47  1  0
 46 45  1  0
 48 50  1  0
 49 51  1  0
 49 48  1  0
 49 46  1  0
 50 44  1  0
 50 47  1  0
 52 98  1  0
 52  1  1  0
 52 53  1  0
 53 55  1  0
 53 54  1  0
 56 55  1  0
 56 57  1  0
 58 69  2  0
 59 57  1  0
 59 64  1  0
 60 68  1  0
 60 70  1  0
 61 63  1  0
 62 68  1  0
 63 64  2  0
 63 62  1  0
 65 59  2  0
 66 65  1  0
 66 61  2  0
 67 61  1  0
 67 60  1  0
 68 58  1  0
 70 72  2  0
 71 70  1  0
 73 71  1  0
 74 79  1  0
 75 71  1  0
 76 75  1  0
 77 78  1  0
 77 76  1  0
 78 74  1  0
 79 75  1  0
 79 80  2  0
 81 80  1  0
 82 81  2  0
 83 74  2  0
 83 82  1  0
 84 58  1  0
 84 85  1  0
 84 94  1  0
 85 88  1  0
 86 90  1  0
 86 85  1  0
 87 86  2  0
 90 89  1  0
 92 90  1  0
 92 91  1  0
 93 92  1  0
 94 97  1  1
 94 95  1  0
 96 94  1  0
 99100  1  0
100 98  1  0
M  ISO  4   7 100   8 100  56 101  57 101
M  END
>  <TORSDO>  (77) 
F 28

>  <SCORE>  (77) 
-9.436

>  <name>  (77) 
77

>  <ligand_id>  (77) 
77

>  <original_smiles>  (77) 
[H]c1c([H])c([H])c2c(c1[H])C([H])([H])C([H])([H])C([H])([H])C2([H])N([H])C(=O)C1([H])N(C(=O)C([H])(N([H])C(=O)C([H])(N([H])C([H])([H])[H])C([H])([H])[H])C(C([H])([H])[H])(C([H])([H])[H])C([H])([H])[H])C([H])([H])c2c([H])c(OC([H])([H])C([H])([H])N([H])C([H])(C([H])([H])C([H])([H])C([H])([H])[H])C([H])(C([H])([H])C3([H])C([H])([H])C([H])([H])C([H])([H])C([H])(C([H])([H])[H])C3([H])[H])[N+]([H])([H])C([H])([H])C([H])([H])C([H])([H])C(=O)N3C([H])([H])C([H])([H])C([H])([H])C([H])(n4nc(-c5c([H])c([H])c(Oc6c([H])c([H])c(F)c([H])c6F)c([H])c5[H])c(C(=O)N([H])[H])c4N([H])[H])C3([H])[H])c([H])c([H])c2C1([H])[H]

>  <smiles>  (77) 
[H]c1c([H])c([H])c2c(c1[H])C([H])([H])C([H])([H])C([H])([H])C2([H])N([H])C(=O)C1([H])N(C(=O)C([H])(N([H])C(=O)C([H])(N([H])C([H])([H])[H])C([H])([H])[H])C(C([H])([H])[H])(C([H])([H])[H])C([H])([H])[H])C([H])([H])c2c([H])c(OC([H])([H])C([H])([H])N([H])C([H])(C([H])([H])C([H])([H])C([H])([H])[H])C([H])(C([H])([H])C3([H])C([H])([H])C([H])([H])C([H])([H])C([H])(C([H])([H])[H])C3([H])[H])[N+]([H])([H])C([H])([H])C([H])([H])C([H])([H])C(=O)N3C([H])([H])C([H])([H])C([H])([H])C([H])(n4nc(-c5c([H])c([H])c(Oc6c([H])c([H])c(F)c([H])c6F)c([H])c5[H])c(C(=O)N([H])[H])c4N([H])[H])C3([H])[H])c([H])c([H])c2C1([H])[H]

$$$$
78:0:0
     RDKit          3D

 89 97  0  0  1  0  0  0  0  0999 V2000
  -29.3950  -20.5850   19.8640 C   0  0  0  0  0  3  0  0  0  0  0  0
  -30.0720  -17.8200   17.0950 C   0  0  0  0  0  2  0  0  0  0  0  0
  -28.8170  -18.7300   17.0430 C   0  0  0  0  0  2  0  0  0  0  0  0
  -30.8550  -18.1700   18.3620 C   0  0  0  0  0  2  0  0  0  0  0  0
  -28.0700  -18.7710   18.4210 C   0  0  0  0  0  2  0  0  0  0  0  0
  -30.0260  -17.9700   19.6650 C   0  0  0  0  0  3  0  0  0  0  0  0
  -28.9310  -19.0850   19.6140 N   0  0  1  0  0  4  0  0  0  0  0  0
  -28.3030  -18.9140   20.3890 H   0  0  0  0  0  0  0  0  0  0  0  0
  -29.5760  -16.3720   19.9320 C   0  0  0  0  0  2  0  0  0  0  0  0
  -30.5350  -15.0330   20.0440 C   0  0  0  0  0  0  0  0  0  0  0  0
  -30.4570  -12.6810   19.2130 C   0  0  0  0  0  2  0  0  0  0  0  0
  -29.4760  -12.6570   18.0180 C   0  0  0  0  0  2  0  0  0  0  0  0
  -28.0230  -12.4520   18.4900 C   0  0  0  0  0  2  0  0  0  0  0  0
  -27.6390  -13.3740   19.6780 C   0  0  0  0  0  3  0  0  0  0  0  0
  -28.7370  -13.3630   20.7630 C   0  0  0  0  0  2  0  0  0  0  0  0
  -30.0110  -13.7540   20.1310 N   0  0  0  0  0  0  0  0  0  0  0  0
  -31.7490  -15.1360   19.8110 O   0  0  0  0  0  0  0  0  0  0  0  0
  -25.2860  -13.9680   20.5080 C   0  0  0  0  0  0  0  0  0  0  0  0
  -24.2200  -13.1900   20.8940 C   0  0  0  0  0  0  0  0  0  0  0  0
  -24.6790  -11.8420   20.8330 C   0  0  0  0  0  0  0  0  0  0  0  0
  -26.3130  -13.0810   20.2220 N   0  0  0  0  0  0  0  0  0  0  0  0
  -25.9620  -11.7970   20.4940 N   0  0  0  0  0  0  0  0  0  0  0  0
  -23.9530  -10.5780   21.0230 C   0  0  0  0  0  0  0  0  0  0  0  0
  -24.3960   -9.6080   21.9430 C   0  0  0  0  0  3  0  0  0  0  0  0
  -23.6720   -8.4100   22.1240 C   0  0  0  0  0  3  0  0  0  0  0  0
  -22.4890   -8.1760   21.3820 C   0  0  0  0  0  0  0  0  0  0  0  0
  -22.0650   -9.1380   20.4530 C   0  0  0  0  0  3  0  0  0  0  0  0
  -22.7890  -10.3290   20.2700 C   0  0  0  0  0  3  0  0  0  0  0  0
  -21.7410   -7.0230   21.4680 O   0  0  0  0  0  0  0  0  0  0  0  0
  -21.6980   -6.2760   22.6150 C   0  0  0  0  0  0  0  0  0  0  0  0
  -21.2590   -6.8220   23.8410 C   0  0  0  0  0  3  0  0  0  0  0  0
  -21.1600   -6.0010   24.9810 C   0  0  0  0  0  3  0  0  0  0  0  0
  -21.4920   -4.6350   24.9000 C   0  0  0  0  0  0  0  0  0  0  0  0
  -21.9250   -4.0890   23.6790 C   0  0  0  0  0  3  0  0  0  0  0  0
  -22.0240   -4.9050   22.5400 C   0  0  0  0  0  0  0  0  0  0  0  0
  -22.4210   -4.3710   21.3600 F   0  0  0  0  0  0  0  0  0  0  0  0
  -21.3930   -3.8460   25.9960 F   0  0  0  0  0  0  0  0  0  0  0  0
  -22.8300  -13.6740   21.1850 C   0  0  0  0  0  0  0  0  0  0  0  0
  -22.1080  -12.9770   22.0600 N   0  0  0  0  0  0  0  0  0  0  0  0
  -22.3870  -14.6980   20.6700 O   0  0  0  0  0  0  0  0  0  0  0  0
  -22.4850  -12.1670   22.5180 H   0  0  0  0  0  0  0  0  0  0  0  0
  -21.1680  -13.2770   22.2810 H   0  0  0  0  0  0  0  0  0  0  0  0
  -25.4480  -15.3370   20.3510 N   0  0  0  0  0  0  0  0  0  0  0  0
  -24.6900  -15.9860   20.5400 H   0  0  0  0  0  0  0  0  0  0  0  0
  -26.2880  -15.7850   20.0120 H   0  0  0  0  0  0  0  0  0  0  0  0
  -28.4000  -21.9180   19.9820 C   0  0  0  0  0  3  0  0  0  0  0  0
  -28.9220  -23.4910   20.2550 C   0  0  0  0  0  3  0  0  0  0  0  0
  -27.9030  -24.8050   20.1700 C   0  0  0  0  0  3  0  0  0  0  0  0
  -28.2240  -26.3090   20.2940 O   0  0  0  0  0  0  0  0  0  0  0  0
  -24.5820  -31.9710   23.2450 C   0  0  0  0  0  0  0  0  0  0  0  0
  -27.1590  -27.2690   20.2410 C   0  0  0  0  0  0  0  0  0  0  0  0
  -23.3770  -30.5630   21.6190 C   0  0  0  0  0  3  0  0  0  0  0  0
  -24.8190  -28.9780   20.2140 C   0  0  0  0  0  0  0  0  0  0  0  0
  -25.9320  -30.8320   21.4430 C   0  0  0  0  0  2  0  0  0  0  0  0
  -26.0010  -29.4410   20.8050 C   0  0  0  0  0  0  0  0  0  0  0  0
  -27.1760  -28.6050   20.7980 C   0  0  0  0  0  3  0  0  0  0  0  0
  -25.9450  -26.8980   19.6170 C   0  0  0  0  0  3  0  0  0  0  0  0
  -24.8000  -27.7160   19.6080 C   0  0  0  0  0  3  0  0  0  0  0  0
  -23.5930  -29.8740   20.2470 C   0  0  0  0  0  2  0  0  0  0  0  0
  -24.6520  -31.1460   22.1540 N   0  0  0  0  0  0  0  0  0  0  0  0
  -23.4980  -32.2570   23.7770 O   0  0  0  0  0  0  0  0  0  0  0  0
  -22.7090  -29.5610   22.5940 C   0  0  0  0  0  0  0  0  0  0  0  0
  -21.3830  -29.3720   22.4640 N   0  0  0  0  0  0  0  0  0  0  0  0
  -23.3820  -28.9520   23.4280 O   0  0  0  0  0  0  0  0  0  0  0  0
  -20.8950  -29.9210   21.7710 H   0  0  0  0  0  0  0  0  0  0  0  0
  -18.0100  -28.1500   22.9730 C   0  0  0  0  0  0  0  0  0  0  0  0
  -20.5670  -28.4370   23.2410 C   0  0  0  0  0  3  0  0  0  0  0  0
  -20.6800  -26.9970   22.6860 C   0  0  0  0  0  2  0  0  0  0  0  0
  -19.5830  -26.6520   21.6730 C   0  0  0  0  0  2  0  0  0  0  0  0
  -18.1980  -26.7930   22.3140 C   0  0  0  0  0  2  0  0  0  0  0  0
  -19.1220  -28.9280   23.3940 C   0  0  0  0  0  0  0  0  0  0  0  0
  -18.8930  -30.1950   23.9720 C   0  0  0  0  0  3  0  0  0  0  0  0
  -17.5820  -30.6840   24.1350 C   0  0  0  0  0  3  0  0  0  0  0  0
  -16.4840  -29.9070   23.7290 C   0  0  0  0  0  3  0  0  0  0  0  0
  -16.7000  -28.6410   23.1550 C   0  0  0  0  0  3  0  0  0  0  0  0
  -25.8640  -32.6140   23.8610 C   0  0  0  0  0  3  0  0  0  0  0  0
  -25.5460  -34.0150   24.1820 N   0  0  0  0  0  0  0  0  0  0  0  0
  -25.8620  -35.0690   23.4180 C   0  0  0  0  0  0  0  0  0  0  0  0
  -26.5270  -34.9660   22.3830 O   0  0  0  0  0  0  0  0  0  0  0  0
  -24.9600  -34.1680   24.9900 H   0  0  0  0  0  0  0  0  0  0  0  0
  -24.1310  -36.8660   23.0710 C   0  0  0  0  0  1  0  0  0  0  0  0
  -25.3720  -36.4570   23.8780 C   0  0  0  0  0  3  0  0  0  0  0  0
  -27.5020  -37.3570   24.7090 C   0  0  0  0  0  1  0  0  0  0  0  0
  -26.3990  -37.5160   23.7640 N   0  0  0  0  0  0  0  0  0  0  0  0
  -25.9850  -38.4320   23.9110 H   0  0  0  0  0  0  0  0  0  0  0  0
  -26.3780  -31.8640   25.1520 C   0  0  1  0  0  0  0  0  0  0  0  0
  -25.2840  -31.6400   26.2210 C   0  0  0  0  0  1  0  0  0  0  0  0
  -26.9720  -30.4840   24.7850 C   0  0  0  0  0  1  0  0  0  0  0  0
  -27.5100  -32.6810   25.8160 C   0  0  0  0  0  1  0  0  0  0  0  0
  1 46  2  0
  2  4  1  0
  3  2  1  0
  3  5  1  0
  4  6  1  0
  5  7  1  0
  6  9  1  0
  7  6  1  0
  7  1  1  0
  7  8  1  1
  9 10  1  0
 10 16  1  0
 11 16  1  0
 12 13  1  0
 12 11  1  0
 14 13  1  0
 14 21  1  0
 14 15  1  0
 16 15  1  0
 17 10  2  0
 18 19  2  0
 19 38  1  0
 20 19  1  0
 20 23  1  0
 21 22  1  0
 21 18  1  0
 22 20  2  0
 23 24  1  0
 24 25  2  0
 26 29  1  0
 26 25  1  0
 27 26  2  0
 28 27  1  0
 28 23  2  0
 29 30  1  0
 30 31  1  0
 31 32  2  0
 33 32  1  0
 33 37  1  0
 34 33  2  0
 35 30  2  0
 35 34  1  0
 36 35  1  0
 38 39  1  0
 39 42  1  0
 39 41  1  0
 40 38  2  0
 43 18  1  0
 43 44  1  0
 45 43  1  0
 46 47  1  0
 48 47  2  0
 48 49  1  0
 50 61  2  0
 51 49  1  0
 51 56  1  0
 52 60  1  0
 52 62  1  0
 53 59  1  0
 53 55  1  0
 54 60  1  0
 55 54  1  0
 56 55  2  0
 57 51  2  0
 58 57  1  0
 58 53  2  0
 59 52  1  0
 60 50  1  0
 62 64  2  0
 63 62  1  0
 65 63  1  0
 66 75  2  0
 66 71  1  0
 67 63  1  0
 67 71  1  0
 68 67  1  0
 69 70  1  0
 69 68  1  0
 70 66  1  0
 71 72  2  0
 72 73  1  0
 74 73  2  0
 75 74  1  0
 76 50  1  0
 76 77  1  0
 76 86  1  0
 77 80  1  0
 78 82  1  0
 78 77  1  0
 79 78  2  0
 82 81  1  0
 84 82  1  0
 84 85  1  0
 84 83  1  0
 86 89  1  1
 86 87  1  0
 88 86  1  0
M  ISO  4   9 100  10 100  48 101  49 101
M  END
>  <TORSDO>  (78) 
F 21

>  <SCORE>  (78) 
-13.201

>  <name>  (78) 
78

>  <ligand_id>  (78) 
78

>  <original_smiles>  (78) 
[H]c1c([H])c([H])c2c(c1[H])C([H])([H])C([H])([H])C([H])([H])C2([H])N([H])C(=O)C1([H])N(C(=O)C([H])(N([H])C(=O)C([H])(N([H])C([H])([H])[H])C([H])([H])[H])C(C([H])([H])[H])(C([H])([H])[H])C([H])([H])[H])C([H])([H])c2c([H])c(OC([H])([H])C([H])([H])C([H])([H])C([H])([H])[N+]3([H])C([H])([H])C([H])([H])C([H])([H])C([H])([H])C3([H])C([H])([H])C(=O)N3C([H])([H])C([H])([H])C([H])([H])C([H])(n4nc(-c5c([H])c([H])c(Oc6c([H])c([H])c(F)c([H])c6F)c([H])c5[H])c(C(=O)N([H])[H])c4N([H])[H])C3([H])[H])c([H])c([H])c2C1([H])[H]

>  <smiles>  (78) 
[H]c1c([H])c([H])c2c(c1[H])C([H])([H])C([H])([H])C([H])([H])C2([H])N([H])C(=O)C1([H])N(C(=O)C([H])(N([H])C(=O)C([H])(N([H])C([H])([H])[H])C([H])([H])[H])C(C([H])([H])[H])(C([H])([H])[H])C([H])([H])[H])C([H])([H])c2c([H])c(OC([H])([H])C([H])([H])C([H])([H])C([H])([H])[N+]3([H])C([H])([H])C([H])([H])C([H])([H])C([H])([H])C3([H])C([H])([H])C(=O)N3C([H])([H])C([H])([H])C([H])([H])C([H])(n4nc(-c5c([H])c([H])c(Oc6c([H])c([H])c(F)c([H])c6F)c([H])c5[H])c(C(=O)N([H])[H])c4N([H])[H])C3([H])[H])c([H])c([H])c2C1([H])[H]

$$$$
79:0:0
     RDKit          3D

 90 97  0  0  1  0  0  0  0  0999 V2000
  -27.5370  -21.6210   19.5900 C   0  0  0  0  0  1  0  0  0  0  0  0
  -28.6660  -21.9420   20.5900 C   0  0  0  0  0  3  0  0  0  0  0  0
  -28.6830  -20.9050   21.7450 C   0  0  0  0  0  2  0  0  0  0  0  0
  -29.9810  -20.0970   21.8290 C   0  0  0  0  0  0  0  0  0  0  0  0
  -29.8690  -18.7640   21.7860 N   0  0  0  0  0  0  0  0  0  0  0  0
  -31.0620  -20.6760   21.9500 O   0  0  0  0  0  0  0  0  0  0  0  0
  -28.9370  -18.3830   21.6920 H   0  0  0  0  0  0  0  0  0  0  0  0
  -30.9680  -17.8130   21.9090 C   0  0  0  0  0  2  0  0  0  0  0  0
  -30.7930  -16.6470   20.9270 C   0  0  0  0  0  2  0  0  0  0  0  0
  -31.6810  -15.4480   21.3020 C   0  0  0  0  0  2  0  0  0  0  0  0
  -31.8800  -14.4720   20.1360 C   0  0  0  0  0  0  0  0  0  0  0  0
  -31.2850  -12.3830   18.9620 C   0  0  0  0  0  2  0  0  0  0  0  0
  -30.3230  -12.6280   17.7870 C   0  0  0  0  0  2  0  0  0  0  0  0
  -28.8620  -12.6250   18.2750 C   0  0  0  0  0  2  0  0  0  0  0  0
  -28.6450  -13.5500   19.5010 C   0  0  0  0  0  3  0  0  0  0  0  0
  -29.7100  -13.2840   20.5890 C   0  0  0  0  0  2  0  0  0  0  0  0
  -31.0460  -13.4140   19.9820 N   0  0  0  0  0  0  0  0  0  0  0  0
  -32.8570  -14.6610   19.4030 O   0  0  0  0  0  0  0  0  0  0  0  0
  -26.3780  -14.4110   20.3680 C   0  0  0  0  0  0  0  0  0  0  0  0
  -25.2350  -13.7560   20.7450 C   0  0  0  0  0  0  0  0  0  0  0  0
  -25.5160  -12.3630   20.6080 C   0  0  0  0  0  0  0  0  0  0  0  0
  -27.2890  -13.4210   20.0300 N   0  0  0  0  0  0  0  0  0  0  0  0
  -26.7740  -12.1810   20.2290 N   0  0  0  0  0  0  0  0  0  0  0  0
  -24.6400  -11.1930   20.7610 C   0  0  0  0  0  0  0  0  0  0  0  0
  -24.9560  -10.1460   21.6550 C   0  0  0  0  0  3  0  0  0  0  0  0
  -24.0900   -9.0390   21.7950 C   0  0  0  0  0  3  0  0  0  0  0  0
  -22.8960   -8.9720   21.0420 C   0  0  0  0  0  0  0  0  0  0  0  0
  -22.5980  -10.0050   20.1360 C   0  0  0  0  0  3  0  0  0  0  0  0
  -23.4620  -11.1040   19.9930 C   0  0  0  0  0  3  0  0  0  0  0  0
  -22.0080   -7.9250   21.0950 O   0  0  0  0  0  0  0  0  0  0  0  0
  -21.8170   -7.2000   22.2430 C   0  0  0  0  0  0  0  0  0  0  0  0
  -21.4280   -7.8120   23.4550 C   0  0  0  0  0  3  0  0  0  0  0  0
  -21.1750   -7.0210   24.5920 C   0  0  0  0  0  3  0  0  0  0  0  0
  -21.3020   -5.6210   24.5200 C   0  0  0  0  0  0  0  0  0  0  0  0
  -21.6850   -5.0100   23.3130 C   0  0  0  0  0  3  0  0  0  0  0  0
  -21.9390   -5.7980   22.1770 C   0  0  0  0  0  0  0  0  0  0  0  0
  -22.2880   -5.2020   21.0100 F   0  0  0  0  0  0  0  0  0  0  0  0
  -21.0500   -4.8600   25.6110 F   0  0  0  0  0  0  0  0  0  0  0  0
  -23.9250  -14.3870   21.1220 C   0  0  0  0  0  0  0  0  0  0  0  0
  -23.1610  -13.7410   21.9980 N   0  0  0  0  0  0  0  0  0  0  0  0
  -23.5920  -15.4830   20.6750 O   0  0  0  0  0  0  0  0  0  0  0  0
  -23.4410  -12.8490   22.3790 H   0  0  0  0  0  0  0  0  0  0  0  0
  -22.2810  -14.1440   22.2870 H   0  0  0  0  0  0  0  0  0  0  0  0
  -26.7120  -15.7570   20.2640 N   0  0  0  0  0  0  0  0  0  0  0  0
  -26.0440  -16.4960   20.4540 H   0  0  0  0  0  0  0  0  0  0  0  0
  -27.5960  -16.1040   19.9130 H   0  0  0  0  0  0  0  0  0  0  0  0
  -28.5830  -23.3800   21.1450 C   0  0  0  0  0  2  0  0  0  0  0  0
  -28.6900  -24.4910   20.0850 C   0  0  0  0  0  2  0  0  0  0  0  0
  -28.6740  -25.8900   20.7130 C   0  0  0  0  0  2  0  0  0  0  0  0
  -28.5540  -26.8780   19.6940 O   0  0  0  0  0  0  0  0  0  0  0  0
  -24.7040  -31.7080   23.1820 C   0  0  0  0  0  0  0  0  0  0  0  0
  -27.3770  -27.5760   19.7570 C   0  0  0  0  0  0  0  0  0  0  0  0
  -23.4940  -30.4110   21.4540 C   0  0  0  0  0  3  0  0  0  0  0  0
  -24.9530  -29.0010   19.9090 C   0  0  0  0  0  0  0  0  0  0  0  0
  -26.0080  -30.8300   21.2530 C   0  0  0  0  0  2  0  0  0  0  0  0
  -26.1060  -29.5130   20.5170 C   0  0  0  0  0  0  0  0  0  0  0  0
  -27.3240  -28.8070   20.4410 C   0  0  0  0  0  3  0  0  0  0  0  0
  -26.2120  -27.0610   19.1530 C   0  0  0  0  0  3  0  0  0  0  0  0
  -24.9980  -27.7710   19.2260 C   0  0  0  0  0  3  0  0  0  0  0  0
  -23.6940  -29.8310   20.0280 C   0  0  0  0  0  2  0  0  0  0  0  0
  -24.7530  -30.9930   22.0230 N   0  0  0  0  0  0  0  0  0  0  0  0
  -23.6260  -31.9250   23.7550 O   0  0  0  0  0  0  0  0  0  0  0  0
  -22.8690  -29.3170   22.3460 C   0  0  0  0  0  0  0  0  0  0  0  0
  -21.5420  -29.1400   22.2330 N   0  0  0  0  0  0  0  0  0  0  0  0
  -23.5710  -28.6320   23.0950 O   0  0  0  0  0  0  0  0  0  0  0  0
  -21.0380  -29.7460   21.6020 H   0  0  0  0  0  0  0  0  0  0  0  0
  -18.1820  -27.8970   22.6940 C   0  0  0  0  0  0  0  0  0  0  0  0
  -20.7430  -28.1430   22.9440 C   0  0  0  0  0  3  0  0  0  0  0  0
  -20.8420  -26.7610   22.2590 C   0  0  0  0  0  2  0  0  0  0  0  0
  -19.7240  -26.5120   21.2410 C   0  0  0  0  0  2  0  0  0  0  0  0
  -18.3530  -26.6030   21.9160 C   0  0  0  0  0  2  0  0  0  0  0  0
  -19.3050  -28.6280   23.1620 C   0  0  0  0  0  0  0  0  0  0  0  0
  -19.0940  -29.8440   23.8480 C   0  0  0  0  0  3  0  0  0  0  0  0
  -17.7910  -30.3270   24.0710 C   0  0  0  0  0  3  0  0  0  0  0  0
  -16.6820  -29.5910   23.6190 C   0  0  0  0  0  3  0  0  0  0  0  0
  -16.8780  -28.3780   22.9350 C   0  0  0  0  0  3  0  0  0  0  0  0
  -25.9910  -32.3060   23.8320 C   0  0  0  0  0  3  0  0  0  0  0  0
  -25.6640  -33.6620   24.2930 N   0  0  0  0  0  0  0  0  0  0  0  0
  -25.9760  -34.7850   23.6300 C   0  0  0  0  0  0  0  0  0  0  0  0
  -26.6420  -34.7870   22.5910 O   0  0  0  0  0  0  0  0  0  0  0  0
  -25.0740  -33.7340   25.1080 H   0  0  0  0  0  0  0  0  0  0  0  0
  -24.2250  -36.5790   23.4390 C   0  0  0  0  0  1  0  0  0  0  0  0
  -25.4690  -36.1170   24.2150 C   0  0  0  0  0  3  0  0  0  0  0  0
  -27.5910  -36.9440   25.1330 C   0  0  0  0  0  1  0  0  0  0  0  0
  -26.4880  -37.1890   24.2070 N   0  0  0  0  0  0  0  0  0  0  0  0
  -26.0700  -38.0850   24.4420 H   0  0  0  0  0  0  0  0  0  0  0  0
  -26.5540  -31.4330   25.0200 C   0  0  1  0  0  0  0  0  0  0  0  0
  -25.4950  -31.0800   26.0890 C   0  0  0  0  0  1  0  0  0  0  0  0
  -27.1480  -30.1080   24.4870 C   0  0  0  0  0  1  0  0  0  0  0  0
  -27.7080  -32.1850   25.7230 C   0  0  0  0  0  1  0  0  0  0  0  0
  2  1  1  0
  2 47  1  0
  2  3  1  0
  3  4  1  0
  4  6  2  0
  5  4  1  0
  5  8  1  0
  7  5  1  0
  9 10  1  0
  9  8  1  0
 11 10  1  0
 12 17  1  0
 13 14  1  0
 13 12  1  0
 15 14  1  0
 15 22  1  0
 15 16  1  0
 17 11  1  0
 17 16  1  0
 18 11  2  0
 19 20  2  0
 20 39  1  0
 21 20  1  0
 21 24  1  0
 22 23  1  0
 22 19  1  0
 23 21  2  0
 24 25  1  0
 25 26  2  0
 27 30  1  0
 27 26  1  0
 28 27  2  0
 29 28  1  0
 29 24  2  0
 30 31  1  0
 31 32  1  0
 32 33  2  0
 34 33  1  0
 34 38  1  0
 35 34  2  0
 36 31  2  0
 36 35  1  0
 37 36  1  0
 39 40  1  0
 40 43  1  0
 40 42  1  0
 41 39  2  0
 44 19  1  0
 44 45  1  0
 46 44  1  0
 48 49  1  0
 48 47  1  0
 50 52  1  0
 50 49  1  0
 51 62  2  0
 52 57  1  0
 53 61  1  0
 53 63  1  0
 54 60  1  0
 54 56  1  0
 55 61  1  0
 56 55  1  0
 57 56  2  0
 58 59  1  0
 58 52  2  0
 59 54  2  0
 60 53  1  0
 61 51  1  0
 63 65  2  0
 64 63  1  0
 66 64  1  0
 67 76  2  0
 67 72  1  0
 68 64  1  0
 68 72  1  0
 69 68  1  0
 70 71  1  0
 70 69  1  0
 71 67  1  0
 72 73  2  0
 73 74  1  0
 75 74  2  0
 76 75  1  0
 77 51  1  0
 77 78  1  0
 77 87  1  0
 78 81  1  0
 79 83  1  0
 79 78  1  0
 80 79  2  0
 83 82  1  0
 85 83  1  0
 85 86  1  0
 85 84  1  0
 87 90  1  1
 87 88  1  0
 89 87  1  0
M  ISO  4  10 100  11 100  49 101  50 101
M  END
>  <TORSDO>  (79) 
F 24

>  <SCORE>  (79) 
-10.221

>  <name>  (79) 
79

>  <ligand_id>  (79) 
79

>  <original_smiles>  (79) 
[H]c1c([H])c([H])c2c(c1[H])C([H])([H])C([H])([H])C([H])([H])C2([H])N([H])C(=O)C1([H])N(C(=O)C([H])(N([H])C(=O)C([H])(N([H])C([H])([H])[H])C([H])([H])[H])C(C([H])([H])[H])(C([H])([H])[H])C([H])([H])[H])C([H])([H])c2c([H])c(OC([H])([H])C([H])([H])C([H])([H])C([H])(C([H])([H])[H])C([H])([H])C(=O)N([H])C([H])([H])C([H])([H])C([H])([H])C(=O)N3C([H])([H])C([H])([H])C([H])([H])C([H])(n4nc(-c5c([H])c([H])c(Oc6c([H])c([H])c(F)c([H])c6F)c([H])c5[H])c(C(=O)N([H])[H])c4N([H])[H])C3([H])[H])c([H])c([H])c2C1([H])[H]

>  <smiles>  (79) 
[H]c1c([H])c([H])c2c(c1[H])C([H])([H])C([H])([H])C([H])([H])C2([H])N([H])C(=O)C1([H])N(C(=O)C([H])(N([H])C(=O)C([H])(N([H])C([H])([H])[H])C([H])([H])[H])C(C([H])([H])[H])(C([H])([H])[H])C([H])([H])[H])C([H])([H])c2c([H])c(OC([H])([H])C([H])([H])C([H])([H])C([H])(C([H])([H])[H])C([H])([H])C(=O)N([H])C([H])([H])C([H])([H])C([H])([H])C(=O)N3C([H])([H])C([H])([H])C([H])([H])C([H])(n4nc(-c5c([H])c([H])c(Oc6c([H])c([H])c(F)c([H])c6F)c([H])c5[H])c(C(=O)N([H])[H])c4N([H])[H])C3([H])[H])c([H])c([H])c2C1([H])[H]

$$$$
80:0:0
     RDKit          3D

 98106  0  0  1  0  0  0  0  0999 V2000
  -28.0650  -18.6610   20.1160 C   0  0  0  0  0  2  0  0  0  0  0  0
  -28.7650  -20.6890   19.2200 C   0  0  0  0  0  2  0  0  0  0  0  0
  -27.4530  -19.9960   19.6370 C   0  0  0  0  0  3  0  0  0  0  0  0
  -29.4140  -18.9840   20.8220 C   0  0  0  0  0  3  0  0  0  0  0  0
  -29.7560  -20.4590   20.3160 N   0  0  2  0  0  4  0  0  0  0  0  0
  -30.6610  -20.4310   19.8860 H   0  0  0  0  0  0  0  0  0  0  0  0
  -30.4230  -17.6460   20.6110 C   0  0  0  0  0  3  0  0  0  0  0  0
  -30.0850  -16.0840   21.1660 C   0  0  0  0  0  3  0  0  0  0  0  0
  -30.9530  -14.6800   20.9470 C   0  0  0  0  0  0  0  0  0  0  0  0
  -30.9750  -12.2190   20.3160 C   0  0  0  0  0  2  0  0  0  0  0  0
  -30.2010  -12.0080   18.9960 C   0  0  0  0  0  2  0  0  0  0  0  0
  -28.6850  -11.8920   19.2490 C   0  0  0  0  0  2  0  0  0  0  0  0
  -28.1690  -12.9770   20.2220 C   0  0  0  0  0  3  0  0  0  0  0  0
  -29.0560  -13.0830   21.4770 C   0  0  0  0  0  2  0  0  0  0  0  0
  -30.4070  -13.4050   21.0120 N   0  0  0  0  0  0  0  0  0  0  0  0
  -32.1630  -14.7390   20.6760 O   0  0  0  0  0  0  0  0  0  0  0  0
  -25.7880  -13.7760   20.6780 C   0  0  0  0  0  0  0  0  0  0  0  0
  -24.6260  -13.1150   20.9780 C   0  0  0  0  0  0  0  0  0  0  0  0
  -24.9680  -11.7290   21.0040 C   0  0  0  0  0  0  0  0  0  0  0  0
  -26.7650  -12.8050   20.5710 N   0  0  0  0  0  0  0  0  0  0  0  0
  -26.2750  -11.5680   20.8220 N   0  0  0  0  0  0  0  0  0  0  0  0
  -24.1170  -10.5390   21.1230 C   0  0  0  0  0  0  0  0  0  0  0  0
  -24.4380   -9.4860   22.0060 C   0  0  0  0  0  3  0  0  0  0  0  0
  -23.6000   -8.3550   22.1070 C   0  0  0  0  0  3  0  0  0  0  0  0
  -22.4250   -8.2700   21.3220 C   0  0  0  0  0  0  0  0  0  0  0  0
  -22.1210   -9.3130   20.4240 C   0  0  0  0  0  3  0  0  0  0  0  0
  -22.9600  -10.4340   20.3250 C   0  0  0  0  0  3  0  0  0  0  0  0
  -21.5620   -7.2020   21.3350 O   0  0  0  0  0  0  0  0  0  0  0  0
  -21.5020   -6.3420   22.4040 C   0  0  0  0  0  0  0  0  0  0  0  0
  -21.2390   -6.8010   23.7110 C   0  0  0  0  0  3  0  0  0  0  0  0
  -21.1200   -5.8760   24.7710 C   0  0  0  0  0  3  0  0  0  0  0  0
  -21.2500   -4.4980   24.5180 C   0  0  0  0  0  0  0  0  0  0  0  0
  -21.5030   -4.0380   23.2150 C   0  0  0  0  0  3  0  0  0  0  0  0
  -21.6270   -4.9610   22.1570 C   0  0  0  0  0  0  0  0  0  0  0  0
  -21.8520   -4.5150   20.8990 F   0  0  0  0  0  0  0  0  0  0  0  0
  -21.1240   -3.6070   25.5300 F   0  0  0  0  0  0  0  0  0  0  0  0
  -23.2550  -13.7200   21.1130 C   0  0  0  0  0  0  0  0  0  0  0  0
  -22.4010  -13.1360   21.9440 N   0  0  0  0  0  0  0  0  0  0  0  0
  -22.9500  -14.7490   20.5160 O   0  0  0  0  0  0  0  0  0  0  0  0
  -22.6500  -12.3070   22.4640 H   0  0  0  0  0  0  0  0  0  0  0  0
  -21.4850  -13.5400   22.0720 H   0  0  0  0  0  0  0  0  0  0  0  0
  -26.1100  -15.0990   20.4460 N   0  0  0  0  0  0  0  0  0  0  0  0
  -25.4110  -15.8240   20.5080 H   0  0  0  0  0  0  0  0  0  0  0  0
  -27.0300  -15.4390   20.2080 H   0  0  0  0  0  0  0  0  0  0  0  0
  -29.7620  -21.7210   21.2750 C   0  0  0  0  0  2  0  0  0  0  0  0
  -29.8000  -23.3180   20.7380 C   0  0  0  0  0  3  0  0  0  0  0  0
  -29.2810  -24.6400   21.6270 C   0  0  0  0  0  3  0  0  0  0  0  0
  -29.3350  -26.1450   21.2810 O   0  0  0  0  0  0  0  0  0  0  0  0
  -24.7660  -31.4760   23.4180 C   0  0  0  0  0  0  0  0  0  0  0  0
  -28.1820  -26.9600   21.0780 C   0  0  0  0  0  0  0  0  0  0  0  0
  -23.9510  -29.8890   21.7150 C   0  0  0  0  0  3  0  0  0  0  0  0
  -25.7330  -28.4150   20.5930 C   0  0  0  0  0  0  0  0  0  0  0  0
  -26.4570  -30.4320   21.8740 C   0  0  0  0  0  2  0  0  0  0  0  0
  -26.7630  -29.0300   21.3200 C   0  0  0  0  0  0  0  0  0  0  0  0
  -27.9960  -28.3170   21.5380 C   0  0  0  0  0  3  0  0  0  0  0  0
  -27.1340  -26.4190   20.3100 C   0  0  0  0  0  3  0  0  0  0  0  0
  -25.9360  -27.1290   20.0650 C   0  0  0  0  0  3  0  0  0  0  0  0
  -24.4230  -29.1640   20.4200 C   0  0  0  0  0  2  0  0  0  0  0  0
  -25.0660  -30.6300   22.3860 N   0  0  0  0  0  0  0  0  0  0  0  0
  -23.5940  -31.6680   23.7790 O   0  0  0  0  0  0  0  0  0  0  0  0
  -23.2390  -28.8620   22.6320 C   0  0  0  0  0  0  0  0  0  0  0  0
  -21.9800  -28.5300   22.3080 N   0  0  0  0  0  0  0  0  0  0  0  0
  -23.8240  -28.3720   23.6000 O   0  0  0  0  0  0  0  0  0  0  0  0
  -21.5730  -28.9730   21.4910 H   0  0  0  0  0  0  0  0  0  0  0  0
  -18.6990  -27.0290   22.3630 C   0  0  0  0  0  0  0  0  0  0  0  0
  -21.1560  -27.5380   22.9970 C   0  0  0  0  0  3  0  0  0  0  0  0
  -21.4710  -26.1080   22.4980 C   0  0  0  0  0  2  0  0  0  0  0  0
  -20.5830  -25.6800   21.3320 C   0  0  0  0  0  2  0  0  0  0  0  0
  -19.1070  -25.7120   21.7280 C   0  0  0  0  0  2  0  0  0  0  0  0
  -19.6650  -27.9000   22.9310 C   0  0  0  0  0  0  0  0  0  0  0  0
  -19.2520  -29.1420   23.4430 C   0  0  0  0  0  3  0  0  0  0  0  0
  -17.8930  -29.5140   23.4240 C   0  0  0  0  0  3  0  0  0  0  0  0
  -16.9350  -28.6370   22.8860 C   0  0  0  0  0  3  0  0  0  0  0  0
  -17.3410  -27.3950   22.3590 C   0  0  0  0  0  3  0  0  0  0  0  0
  -25.8840  -32.2640   24.1760 C   0  0  0  0  0  3  0  0  0  0  0  0
  -26.2050  -31.6700   25.6040 C   0  0  1  0  0  0  0  0  0  0  0  0
  -24.9490  -31.4370   26.4740 C   0  0  0  0  0  1  0  0  0  0  0  0
  -26.9510  -30.3230   25.4830 C   0  0  0  0  0  1  0  0  0  0  0  0
  -27.1400  -32.6270   26.3740 C   0  0  0  0  0  1  0  0  0  0  0  0
  -25.4460  -33.6650   24.2900 N   0  0  0  0  0  0  0  0  0  0  0  0
  -25.8500  -34.6630   23.4950 C   0  0  0  0  0  0  0  0  0  0  0  0
  -26.6910  -34.5100   22.6040 O   0  0  0  0  0  0  0  0  0  0  0  0
  -24.7190  -33.8470   24.9690 H   0  0  0  0  0  0  0  0  0  0  0  0
  -24.1080  -36.2760   22.6620 C   0  0  0  0  0  1  0  0  0  0  0  0
  -25.2120  -36.0470   23.7060 C   0  0  0  0  0  3  0  0  0  0  0  0
  -27.1250  -37.1620   24.7730 C   0  0  0  0  0  1  0  0  0  0  0  0
  -26.1850  -37.1580   23.6550 N   0  0  0  0  0  0  0  0  0  0  0  0
  -25.7010  -38.0530   23.6460 H   0  0  0  0  0  0  0  0  0  0  0  0
  -26.3390  -19.9290   18.5150 C   0  0  0  0  0  3  0  0  0  0  0  0
  -25.6350  -17.5150   17.9590 C   0  0  0  0  0  1  0  0  0  0  0  0
  -24.7740  -18.4870   20.0890 C   0  0  0  0  0  1  0  0  0  0  0  0
  -25.2430  -18.8090   18.6630 C   0  0  0  0  0  3  0  0  0  0  0  0
  -25.7110  -21.2580   18.1800 N   0  0  2  0  0  4  0  0  0  0  0  0
  -26.4820  -21.8130   17.8400 H   0  0  0  0  0  0  0  0  0  0  0  0
  -23.6770  -22.2820   19.4370 C   0  0  0  0  0  1  0  0  0  0  0  0
  -25.2000  -22.0450   19.3490 C   0  0  0  0  0  2  0  0  0  0  0  0
  -24.4640  -22.5490   16.3530 C   0  0  0  0  0  1  0  0  0  0  0  0
  -24.8290  -21.1910   16.9690 C   0  0  0  0  0  2  0  0  0  0  0  0
  1  4  1  0
  2  3  1  0
  2  5  1  0
  3 89  1  0
  3  1  1  0
  4  7  1  0
  5  4  1  0
  5 45  1  0
  5  6  1  6
  7  8  2  0
  9 15  1  0
  9  8  1  0
 10 15  1  0
 11 12  1  0
 11 10  1  0
 13 12  1  0
 13 20  1  0
 13 14  1  0
 15 14  1  0
 16  9  2  0
 17 18  2  0
 18 19  1  0
 18 37  1  0
 19 22  1  0
 20 17  1  0
 20 21  1  0
 21 19  2  0
 22 23  1  0
 23 24  2  0
 25 28  1  0
 25 24  1  0
 26 25  2  0
 27 26  1  0
 27 22  2  0
 28 29  1  0
 29 30  1  0
 30 31  2  0
 32 31  1  0
 32 36  1  0
 33 32  2  0
 34 29  2  0
 34 33  1  0
 35 34  1  0
 37 38  1  0
 38 41  1  0
 38 40  1  0
 39 37  2  0
 42 43  1  0
 42 17  1  0
 44 42  1  0
 46 45  1  0
 46 47  2  0
 48 47  1  0
 49 60  2  0
 50 48  1  0
 50 55  1  0
 51 59  1  0
 51 61  1  0
 52 54  1  0
 53 59  1  0
 54 55  2  0
 54 53  1  0
 56 50  2  0
 57 56  1  0
 57 52  2  0
 58 52  1  0
 58 51  1  0
 59 49  1  0
 61 63  2  0
 62 61  1  0
 64 62  1  0
 65 70  1  0
 66 62  1  0
 67 66  1  0
 68 69  1  0
 68 67  1  0
 69 65  1  0
 70 66  1  0
 70 71  2  0
 72 71  1  0
 73 72  2  0
 74 65  2  0
 74 73  1  0
 75 49  1  0
 75 80  1  0
 75 76  1  0
 76 79  1  1
 76 77  1  0
 78 76  1  0
 80 83  1  0
 81 85  1  0
 81 80  1  0
 82 81  2  0
 85 84  1  0
 87 85  1  0
 87 86  1  0
 88 87  1  0
 89 92  1  0
 90 92  1  0
 92 91  1  0
 93 89  1  0
 93 96  1  0
 93 94  1  6
 96 95  1  0
 97 98  1  0
 98 93  1  0
M  ISO  4   8 100   9 100  47 101  48 101
M  END
>  <TORSDO>  (80) 
F 26

>  <SCORE>  (80) 
-4.879

>  <name>  (80) 
80

>  <ligand_id>  (80) 
80

>  <original_smiles>  (80) 
[H]c1c([H])c([H])c2c(c1[H])C([H])([H])C([H])([H])C([H])([H])C2([H])N([H])C(=O)C1([H])N(C(=O)C([H])(N([H])C(=O)C([H])(N([H])C([H])([H])[H])C([H])([H])[H])C(C([H])([H])[H])(C([H])([H])[H])C([H])([H])[H])C([H])([H])c2c([H])c(OC([H])([H])C([H])([H])C([H])([H])[N+]3([H])C([H])([H])C([H])(C([H])(C([H])(C([H])([H])[H])C([H])([H])[H])[N+]([H])(C([H])([H])C([H])([H])[H])C([H])([H])C([H])([H])[H])C([H])([H])C3([H])C([H])([H])C([H])([H])C(=O)N3C([H])([H])C([H])([H])C([H])([H])C([H])(n4nc(-c5c([H])c([H])c(Oc6c([H])c([H])c(F)c([H])c6F)c([H])c5[H])c(C(=O)N([H])[H])c4N([H])[H])C3([H])[H])c([H])c([H])c2C1([H])[H]

>  <smiles>  (80) 
[H]c1c([H])c([H])c2c(c1[H])C([H])([H])C([H])([H])C([H])([H])C2([H])N([H])C(=O)C1([H])N(C(=O)C([H])(N([H])C(=O)C([H])(N([H])C([H])([H])[H])C([H])([H])[H])C(C([H])([H])[H])(C([H])([H])[H])C([H])([H])[H])C([H])([H])c2c([H])c(OC([H])([H])C([H])([H])C([H])([H])[N+]3([H])C([H])([H])C([H])(C([H])(C([H])(C([H])([H])[H])C([H])([H])[H])[N+]([H])(C([H])([H])C([H])([H])[H])C([H])([H])C([H])([H])[H])C([H])([H])C3([H])C([H])([H])C([H])([H])C(=O)N3C([H])([H])C([H])([H])C([H])([H])C([H])(n4nc(-c5c([H])c([H])c(Oc6c([H])c([H])c(F)c([H])c6F)c([H])c5[H])c(C(=O)N([H])[H])c4N([H])[H])C3([H])[H])c([H])c([H])c2C1([H])[H]

$$$$
81:0:0
     RDKit          3D

 93101  0  0  1  0  0  0  0  0999 V2000
  -29.5370  -22.0710   18.8770 C   0  0  0  0  0  0  0  0  0  0  0  0
  -29.3440  -21.8010   17.4020 C   0  0  0  0  0  1  0  0  0  0  0  0
  -30.5210  -21.5410   19.4970 N   0  0  0  0  0  0  0  0  0  0  0  0
  -33.0730  -20.7020   20.8480 C   0  0  0  0  0  2  0  0  0  0  0  0
  -32.2660  -21.9740   21.1600 C   0  0  0  0  0  2  0  0  0  0  0  0
  -32.4880  -19.4700   21.5620 C   0  0  0  0  0  2  0  0  0  0  0  0
  -30.2770  -20.5210   21.7140 C   0  0  0  0  0  2  0  0  0  0  0  0
  -30.7600  -21.7570   20.9240 C   0  0  0  0  0  3  0  0  0  0  0  0
  -31.0350  -19.3240   21.2680 N   0  0  2  0  0  4  0  0  0  0  0  0
  -30.9400  -19.3650   20.2620 H   0  0  0  0  0  0  0  0  0  0  0  0
  -30.4380  -18.0390   21.7230 C   0  0  0  0  0  2  0  0  0  0  0  0
  -30.9510  -16.8360   20.9040 C   0  0  0  0  0  2  0  0  0  0  0  0
  -30.2070  -15.5020   21.1540 C   0  0  0  0  0  2  0  0  0  0  0  0
  -30.7290  -14.3750   20.2410 C   0  0  0  0  0  0  0  0  0  0  0  0
  -30.2770  -12.3220   18.9520 C   0  0  0  0  0  2  0  0  0  0  0  0
  -29.2820  -12.6360   17.8180 C   0  0  0  0  0  2  0  0  0  0  0  0
  -27.8300  -12.5150   18.3200 C   0  0  0  0  0  2  0  0  0  0  0  0
  -27.5890  -13.2870   19.6450 C   0  0  0  0  0  3  0  0  0  0  0  0
  -28.6930  -12.9710   20.6800 C   0  0  0  0  0  2  0  0  0  0  0  0
  -29.9960  -13.2470   20.0590 N   0  0  0  0  0  0  0  0  0  0  0  0
  -31.7860  -14.5690   19.6330 O   0  0  0  0  0  0  0  0  0  0  0  0
  -25.2280  -13.9120   20.4670 C   0  0  0  0  0  0  0  0  0  0  0  0
  -24.1690  -13.1450   20.8730 C   0  0  0  0  0  0  0  0  0  0  0  0
  -24.6130  -11.7900   20.8050 C   0  0  0  0  0  0  0  0  0  0  0  0
  -26.2530  -13.0230   20.1800 N   0  0  0  0  0  0  0  0  0  0  0  0
  -25.8880  -11.7410   20.4390 N   0  0  0  0  0  0  0  0  0  0  0  0
  -23.8830  -10.5320   21.0120 C   0  0  0  0  0  0  0  0  0  0  0  0
  -24.3520   -9.5440   21.9050 C   0  0  0  0  0  3  0  0  0  0  0  0
  -23.6240   -8.3520   22.1010 C   0  0  0  0  0  3  0  0  0  0  0  0
  -22.4100   -8.1390   21.4050 C   0  0  0  0  0  0  0  0  0  0  0  0
  -21.9600   -9.1150   20.5000 C   0  0  0  0  0  3  0  0  0  0  0  0
  -22.6880  -10.2990   20.3010 C   0  0  0  0  0  3  0  0  0  0  0  0
  -21.6490   -7.0000   21.5130 O   0  0  0  0  0  0  0  0  0  0  0  0
  -21.6580   -6.2330   22.6500 C   0  0  0  0  0  0  0  0  0  0  0  0
  -21.3210   -6.7680   23.9120 C   0  0  0  0  0  3  0  0  0  0  0  0
  -21.2760   -5.9290   25.0430 C   0  0  0  0  0  3  0  0  0  0  0  0
  -21.5570   -4.5560   24.9140 C   0  0  0  0  0  0  0  0  0  0  0  0
  -21.8860   -4.0190   23.6560 C   0  0  0  0  0  3  0  0  0  0  0  0
  -21.9340   -4.8560   22.5270 C   0  0  0  0  0  0  0  0  0  0  0  0
  -22.2310   -4.3310   21.3140 F   0  0  0  0  0  0  0  0  0  0  0  0
  -21.5060   -3.7470   25.9980 F   0  0  0  0  0  0  0  0  0  0  0  0
  -22.7900  -13.6330   21.2160 C   0  0  0  0  0  0  0  0  0  0  0  0
  -22.0950  -12.9340   22.1070 N   0  0  0  0  0  0  0  0  0  0  0  0
  -22.3390  -14.6690   20.7290 O   0  0  0  0  0  0  0  0  0  0  0  0
  -22.4720  -12.0950   22.5220 H   0  0  0  0  0  0  0  0  0  0  0  0
  -21.1720  -13.2430   22.3780 H   0  0  0  0  0  0  0  0  0  0  0  0
  -25.4000  -15.2830   20.2980 N   0  0  0  0  0  0  0  0  0  0  0  0
  -24.6470  -15.9450   20.4460 H   0  0  0  0  0  0  0  0  0  0  0  0
  -26.2440  -15.7150   19.9420 H   0  0  0  0  0  0  0  0  0  0  0  0
  -28.4840  -23.0010   19.4750 C   0  0  0  0  0  2  0  0  0  0  0  0
  -28.8680  -24.4890   19.3440 C   0  0  0  0  0  2  0  0  0  0  0  0
  -28.3600  -25.3380   20.5140 C   0  0  0  0  0  2  0  0  0  0  0  0
  -28.4640  -26.7300   20.2060 O   0  0  0  0  0  0  0  0  0  0  0  0
  -24.6260  -31.8650   23.2370 C   0  0  0  0  0  0  0  0  0  0  0  0
  -27.2840  -27.4360   20.1800 C   0  0  0  0  0  0  0  0  0  0  0  0
  -23.4250  -30.4590   21.5940 C   0  0  0  0  0  3  0  0  0  0  0  0
  -24.8830  -28.9200   20.1760 C   0  0  0  0  0  0  0  0  0  0  0  0
  -25.9470  -30.8260   21.4000 C   0  0  0  0  0  2  0  0  0  0  0  0
  -26.0360  -29.4550   20.7650 C   0  0  0  0  0  0  0  0  0  0  0  0
  -27.2410  -28.7210   20.7590 C   0  0  0  0  0  3  0  0  0  0  0  0
  -26.1170  -26.9130   19.5780 C   0  0  0  0  0  3  0  0  0  0  0  0
  -24.9170  -27.6480   19.5800 C   0  0  0  0  0  3  0  0  0  0  0  0
  -23.6360  -29.7730   20.2170 C   0  0  0  0  0  2  0  0  0  0  0  0
  -24.6840  -31.0640   22.1360 N   0  0  0  0  0  0  0  0  0  0  0  0
  -23.5430  -32.1390   23.7740 O   0  0  0  0  0  0  0  0  0  0  0  0
  -22.7730  -29.4380   22.5560 C   0  0  0  0  0  0  0  0  0  0  0  0
  -21.4510  -29.2520   22.4220 N   0  0  0  0  0  0  0  0  0  0  0  0
  -23.4540  -28.8170   23.3760 O   0  0  0  0  0  0  0  0  0  0  0  0
  -20.9630  -29.8050   21.7300 H   0  0  0  0  0  0  0  0  0  0  0  0
  -18.0770  -28.0530   22.8950 C   0  0  0  0  0  0  0  0  0  0  0  0
  -20.6300  -28.3170   23.1900 C   0  0  0  0  0  3  0  0  0  0  0  0
  -20.7420  -26.8830   22.6220 C   0  0  0  0  0  2  0  0  0  0  0  0
  -19.6510  -26.5530   21.5990 C   0  0  0  0  0  2  0  0  0  0  0  0
  -18.2620  -26.6990   22.2290 C   0  0  0  0  0  2  0  0  0  0  0  0
  -19.1900  -28.8190   23.3320 C   0  0  0  0  0  0  0  0  0  0  0  0
  -18.9630  -30.0860   23.9120 C   0  0  0  0  0  3  0  0  0  0  0  0
  -17.6570  -30.5870   24.0610 C   0  0  0  0  0  3  0  0  0  0  0  0
  -16.5570  -29.8160   23.6430 C   0  0  0  0  0  3  0  0  0  0  0  0
  -16.7680  -28.5510   23.0650 C   0  0  0  0  0  3  0  0  0  0  0  0
  -25.9120  -32.4960   23.8590 C   0  0  0  0  0  3  0  0  0  0  0  0
  -25.6050  -33.8960   24.1800 N   0  0  0  0  0  0  0  0  0  0  0  0
  -25.9440  -34.9420   23.4140 C   0  0  0  0  0  0  0  0  0  0  0  0
  -26.6190  -34.8310   22.3870 O   0  0  0  0  0  0  0  0  0  0  0  0
  -25.0080  -34.0580   24.9770 H   0  0  0  0  0  0  0  0  0  0  0  0
  -24.2200  -36.7330   23.0370 C   0  0  0  0  0  1  0  0  0  0  0  0
  -25.4560  -36.3340   23.8580 C   0  0  0  0  0  3  0  0  0  0  0  0
  -27.5900  -37.2210   24.6910 C   0  0  0  0  0  1  0  0  0  0  0  0
  -26.4910  -37.3850   23.7430 N   0  0  0  0  0  0  0  0  0  0  0  0
  -26.0860  -38.3070   23.8830 H   0  0  0  0  0  0  0  0  0  0  0  0
  -26.4250  -31.7280   25.1390 C   0  0  1  0  0  0  0  0  0  0  0  0
  -25.3310  -31.4970   26.2050 C   0  0  0  0  0  1  0  0  0  0  0  0
  -27.0050  -30.3480   24.7500 C   0  0  0  0  0  1  0  0  0  0  0  0
  -27.5770  -32.5220   25.8000 C   0  0  0  0  0  1  0  0  0  0  0  0
  1 50  1  0
  1  3  2  0
  2  1  1  0
  4  5  1  0
  4  6  1  0
  8  3  1  0
  8  5  1  0
  8  7  1  0
  9  6  1  0
  9  7  1  0
  9 11  1  0
  9 10  1  6
 12 13  1  0
 12 11  1  0
 14 13  1  0
 15 20  1  0
 16 17  1  0
 16 15  1  0
 18 17  1  0
 18 25  1  0
 18 19  1  0
 20 14  1  0
 20 19  1  0
 21 14  2  0
 22 23  2  0
 23 42  1  0
 24 23  1  0
 24 27  1  0
 25 26  1  0
 25 22  1  0
 26 24  2  0
 27 28  1  0
 28 29  2  0
 30 33  1  0
 30 29  1  0
 31 30  2  0
 32 31  1  0
 32 27  2  0
 33 34  1  0
 34 35  1  0
 35 36  2  0
 37 36  1  0
 37 41  1  0
 38 37  2  0
 39 34  2  0
 39 38  1  0
 40 39  1  0
 42 43  1  0
 43 46  1  0
 43 45  1  0
 44 42  2  0
 47 48  1  0
 47 22  1  0
 49 47  1  0
 51 50  1  0
 51 52  1  0
 53 52  1  0
 54 65  2  0
 55 53  1  0
 55 60  1  0
 56 64  1  0
 56 66  1  0
 57 63  1  0
 57 59  1  0
 58 64  1  0
 59 58  1  0
 60 59  2  0
 61 62  1  0
 61 55  2  0
 62 57  2  0
 63 56  1  0
 64 54  1  0
 66 68  2  0
 67 66  1  0
 69 67  1  0
 70 79  2  0
 70 75  1  0
 71 67  1  0
 71 75  1  0
 72 71  1  0
 73 74  1  0
 73 72  1  0
 74 70  1  0
 75 76  2  0
 76 77  1  0
 78 77  2  0
 79 78  1  0
 80 54  1  0
 80 81  1  0
 80 90  1  0
 81 84  1  0
 82 86  1  0
 82 81  1  0
 83 82  2  0
 86 85  1  0
 88 86  1  0
 88 89  1  0
 88 87  1  0
 90 93  1  1
 90 91  1  0
 92 90  1  0
M  ISO  4  13 100  14 100  52 101  53 101
M  END
>  <TORSDO>  (81) 
F 23

>  <SCORE>  (81) 
-12.690

>  <name>  (81) 
81

>  <ligand_id>  (81) 
81

>  <original_smiles>  (81) 
[H]c1c([H])c([H])c2c(c1[H])C([H])([H])C([H])([H])C([H])([H])C2([H])N([H])C(=O)C1([H])N(C(=O)C([H])(N([H])C(=O)C([H])(N([H])C([H])([H])[H])C([H])([H])[H])C(C([H])([H])[H])(C([H])([H])[H])C([H])([H])[H])C([H])([H])c2c([H])c(OC([H])([H])C([H])([H])C([H])([H])C(=NC3([H])C([H])([H])C([H])([H])C([H])([H])[N+]([H])(C([H])([H])C([H])([H])C([H])([H])C(=O)N4C([H])([H])C([H])([H])C([H])([H])C([H])(n5nc(-c6c([H])c([H])c(Oc7c([H])c([H])c(F)c([H])c7F)c([H])c6[H])c(C(=O)N([H])[H])c5N([H])[H])C4([H])[H])C3([H])[H])C([H])([H])[H])c([H])c([H])c2C1([H])[H]

>  <smiles>  (81) 
[H]c1c([H])c([H])c2c(c1[H])C([H])([H])C([H])([H])C([H])([H])C2([H])N([H])C(=O)C1([H])N(C(=O)C([H])(N([H])C(=O)C([H])(N([H])C([H])([H])[H])C([H])([H])[H])C(C([H])([H])[H])(C([H])([H])[H])C([H])([H])[H])C([H])([H])c2c([H])c(OC([H])([H])C([H])([H])C([H])([H])C(=NC3([H])C([H])([H])C([H])([H])C([H])([H])[N+]([H])(C([H])([H])C([H])([H])C([H])([H])C(=O)N4C([H])([H])C([H])([H])C([H])([H])C([H])(n5nc(-c6c([H])c([H])c(Oc7c([H])c([H])c(F)c([H])c7F)c([H])c6[H])c(C(=O)N([H])[H])c5N([H])[H])C4([H])[H])C3([H])[H])C([H])([H])[H])c([H])c([H])c2C1([H])[H]

$$$$
82:0:0
     RDKit          3D

 89 97  0  0  1  0  0  0  0  0999 V2000
  -29.1820  -21.5550   21.6500 C   0  0  0  0  0  3  0  0  0  0  0  0
  -28.8160  -21.8500   19.2990 C   0  0  0  0  0  3  0  0  0  0  0  0
  -28.9580  -22.9520   21.8430 C   0  0  0  0  0  3  0  0  0  0  0  0
  -28.5860  -23.2520   19.4940 C   0  0  0  0  0  3  0  0  0  0  0  0
  -29.0900  -20.9480   20.3710 C   0  0  0  0  0  0  0  0  0  0  0  0
  -28.6270  -23.8460   20.7830 C   0  0  0  0  0  0  0  0  0  0  0  0
  -29.1620  -19.3790   20.1420 C   0  0  0  0  0  2  0  0  0  0  0  0
  -30.2460  -17.3090   21.1040 C   0  0  0  0  0  0  0  0  0  0  0  0
  -31.2480  -16.8580   22.1560 C   0  0  0  0  0  1  0  0  0  0  0  0
  -30.0840  -18.6100   21.0180 N   0  0  0  0  0  0  0  0  0  0  0  0
  -29.5440  -16.0990   20.3520 C   0  0  0  0  0  2  0  0  0  0  0  0
  -30.3800  -14.7590   20.0610 C   0  0  0  0  0  0  0  0  0  0  0  0
  -30.1590  -12.5250   18.9880 C   0  0  0  0  0  2  0  0  0  0  0  0
  -29.1490  -12.6530   17.8250 C   0  0  0  0  0  2  0  0  0  0  0  0
  -27.7040  -12.4550   18.3260 C   0  0  0  0  0  2  0  0  0  0  0  0
  -27.3940  -13.2800   19.6030 C   0  0  0  0  0  3  0  0  0  0  0  0
  -28.5180  -13.1380   20.6520 C   0  0  0  0  0  2  0  0  0  0  0  0
  -29.7850  -13.5200   20.0160 N   0  0  0  0  0  0  0  0  0  0  0  0
  -31.5370  -14.8800   19.6480 O   0  0  0  0  0  0  0  0  0  0  0  0
  -25.0310  -13.7940   20.4690 C   0  0  0  0  0  0  0  0  0  0  0  0
  -24.0060  -12.9850   20.8780 C   0  0  0  0  0  0  0  0  0  0  0  0
  -24.5000  -11.6470   20.7920 C   0  0  0  0  0  0  0  0  0  0  0  0
  -26.0840  -12.9480   20.1570 N   0  0  0  0  0  0  0  0  0  0  0  0
  -25.7730  -11.6510   20.4130 N   0  0  0  0  0  0  0  0  0  0  0  0
  -23.8170  -10.3630   20.9910 C   0  0  0  0  0  0  0  0  0  0  0  0
  -24.2960   -9.4050   21.9120 C   0  0  0  0  0  3  0  0  0  0  0  0
  -23.6100   -8.1860   22.1000 C   0  0  0  0  0  3  0  0  0  0  0  0
  -22.4300   -7.9150   21.3670 C   0  0  0  0  0  0  0  0  0  0  0  0
  -21.9690   -8.8620   20.4350 C   0  0  0  0  0  3  0  0  0  0  0  0
  -22.6570  -10.0730   20.2450 C   0  0  0  0  0  3  0  0  0  0  0  0
  -21.7130   -6.7480   21.4660 O   0  0  0  0  0  0  0  0  0  0  0  0
  -21.6900   -6.0100   22.6230 C   0  0  0  0  0  0  0  0  0  0  0  0
  -21.2350   -6.5530   23.8450 C   0  0  0  0  0  3  0  0  0  0  0  0
  -21.1650   -5.7410   24.9930 C   0  0  0  0  0  3  0  0  0  0  0  0
  -21.5400   -4.3860   24.9230 C   0  0  0  0  0  0  0  0  0  0  0  0
  -21.9880   -3.8420   23.7050 C   0  0  0  0  0  3  0  0  0  0  0  0
  -22.0610   -4.6520   22.5590 C   0  0  0  0  0  0  0  0  0  0  0  0
  -22.4740   -4.1180   21.3840 F   0  0  0  0  0  0  0  0  0  0  0  0
  -21.4650   -3.6030   26.0230 F   0  0  0  0  0  0  0  0  0  0  0  0
  -22.6140  -13.4190   21.2350 C   0  0  0  0  0  0  0  0  0  0  0  0
  -21.9510  -12.6840   22.1220 N   0  0  0  0  0  0  0  0  0  0  0  0
  -22.1230  -14.4440   20.7630 O   0  0  0  0  0  0  0  0  0  0  0  0
  -22.3630  -11.8540   22.5220 H   0  0  0  0  0  0  0  0  0  0  0  0
  -21.0190  -12.9550   22.4030 H   0  0  0  0  0  0  0  0  0  0  0  0
  -25.1510  -15.1720   20.3140 N   0  0  0  0  0  0  0  0  0  0  0  0
  -24.3710  -15.8000   20.4770 H   0  0  0  0  0  0  0  0  0  0  0  0
  -25.9680  -15.6430   19.9480 H   0  0  0  0  0  0  0  0  0  0  0  0
  -28.1030  -25.3000   21.1310 C   0  0  0  0  0  2  0  0  0  0  0  0
  -28.3770  -26.5110   20.3210 O   0  0  0  0  0  0  0  0  0  0  0  0
  -24.5990  -31.9470   23.2460 C   0  0  0  0  0  0  0  0  0  0  0  0
  -27.2950  -27.4020   20.2560 C   0  0  0  0  0  0  0  0  0  0  0  0
  -23.4340  -30.5320   21.5900 C   0  0  0  0  0  3  0  0  0  0  0  0
  -24.9220  -28.9900   20.1920 C   0  0  0  0  0  0  0  0  0  0  0  0
  -25.9710  -30.8740   21.4450 C   0  0  0  0  0  2  0  0  0  0  0  0
  -26.0760  -29.4940   20.8060 C   0  0  0  0  0  0  0  0  0  0  0  0
  -27.2700  -28.7100   20.8310 C   0  0  0  0  0  3  0  0  0  0  0  0
  -26.1250  -26.9550   19.6090 C   0  0  0  0  0  3  0  0  0  0  0  0
  -24.9480  -27.7260   19.5820 C   0  0  0  0  0  3  0  0  0  0  0  0
  -23.6760  -29.8530   20.2170 C   0  0  0  0  0  2  0  0  0  0  0  0
  -24.6860  -31.1360   22.1510 N   0  0  0  0  0  0  0  0  0  0  0  0
  -23.5060  -32.2170   23.7640 O   0  0  0  0  0  0  0  0  0  0  0  0
  -22.7630  -29.5160   22.5450 C   0  0  0  0  0  0  0  0  0  0  0  0
  -21.4400  -29.3300   22.4000 N   0  0  0  0  0  0  0  0  0  0  0  0
  -23.4340  -28.8950   23.3720 O   0  0  0  0  0  0  0  0  0  0  0  0
  -20.9560  -29.8830   21.7060 H   0  0  0  0  0  0  0  0  0  0  0  0
  -18.0580  -28.1370   22.8760 C   0  0  0  0  0  0  0  0  0  0  0  0
  -20.6150  -28.3910   23.1630 C   0  0  0  0  0  3  0  0  0  0  0  0
  -20.7180  -26.9620   22.5850 C   0  0  0  0  0  2  0  0  0  0  0  0
  -19.6230  -26.6440   21.5620 C   0  0  0  0  0  2  0  0  0  0  0  0
  -18.2360  -26.7900   22.1960 C   0  0  0  0  0  2  0  0  0  0  0  0
  -19.1750  -28.8960   23.3160 C   0  0  0  0  0  0  0  0  0  0  0  0
  -18.9530  -30.1580   23.9100 C   0  0  0  0  0  3  0  0  0  0  0  0
  -17.6480  -30.6600   24.0700 C   0  0  0  0  0  3  0  0  0  0  0  0
  -16.5460  -29.8980   23.6460 C   0  0  0  0  0  3  0  0  0  0  0  0
  -16.7500  -28.6390   23.0540 C   0  0  0  0  0  3  0  0  0  0  0  0
  -25.8690  -32.5910   23.8860 C   0  0  0  0  0  3  0  0  0  0  0  0
  -26.3660  -31.8330   25.1770 C   0  0  1  0  0  0  0  0  0  0  0  0
  -25.2520  -31.5950   26.2240 C   0  0  0  0  0  1  0  0  0  0  0  0
  -26.9690  -30.4580   24.8080 C   0  0  0  0  0  1  0  0  0  0  0  0
  -27.4940  -32.6430   25.8600 C   0  0  0  0  0  1  0  0  0  0  0  0
  -25.5480  -33.9910   24.1990 N   0  0  0  0  0  0  0  0  0  0  0  0
  -25.8870  -35.0390   23.4370 C   0  0  0  0  0  0  0  0  0  0  0  0
  -26.5720  -34.9320   22.4180 O   0  0  0  0  0  0  0  0  0  0  0  0
  -24.9450  -34.1490   24.9930 H   0  0  0  0  0  0  0  0  0  0  0  0
  -24.1580  -36.8210   23.0370 C   0  0  0  0  0  1  0  0  0  0  0  0
  -25.3850  -36.4280   23.8770 C   0  0  0  0  0  3  0  0  0  0  0  0
  -27.4980  -37.3280   24.7440 C   0  0  0  0  0  1  0  0  0  0  0  0
  -26.4140  -37.4860   23.7770 N   0  0  0  0  0  0  0  0  0  0  0  0
  -26.0010  -38.4060   23.9130 H   0  0  0  0  0  0  0  0  0  0  0  0
  1  3  1  0
  2  4  2  0
  2  5  1  0
  4  6  1  0
  5  1  2  0
  6 48  1  0
  6  3  2  0
  7  5  1  0
  7 10  1  0
  8  9  1  0
 10  8  2  0
 11  8  1  0
 12 11  1  0
 13 18  1  0
 14 15  1  0
 14 13  1  0
 16 15  1  0
 16 23  1  0
 16 17  1  0
 18 12  1  0
 18 17  1  0
 19 12  2  0
 20 21  2  0
 21 40  1  0
 22 21  1  0
 22 25  1  0
 23 24  1  0
 23 20  1  0
 24 22  2  0
 25 26  1  0
 26 27  2  0
 28 31  1  0
 28 27  1  0
 29 28  2  0
 30 29  1  0
 30 25  2  0
 31 32  1  0
 32 33  1  0
 33 34  2  0
 35 34  1  0
 35 39  1  0
 36 35  2  0
 37 32  2  0
 37 36  1  0
 38 37  1  0
 40 41  1  0
 41 44  1  0
 41 43  1  0
 42 40  2  0
 45 20  1  0
 45 46  1  0
 47 45  1  0
 49 48  1  0
 50 61  2  0
 51 49  1  0
 51 56  1  0
 52 60  1  0
 52 62  1  0
 53 59  1  0
 53 55  1  0
 54 60  1  0
 55 56  2  0
 55 54  1  0
 57 51  2  0
 58 57  1  0
 58 53  2  0
 59 52  1  0
 60 50  1  0
 62 64  2  0
 63 62  1  0
 65 63  1  0
 66 75  2  0
 66 71  1  0
 67 63  1  0
 67 71  1  0
 68 67  1  0
 69 70  1  0
 69 68  1  0
 70 66  1  0
 71 72  2  0
 72 73  1  0
 74 73  2  0
 75 74  1  0
 76 50  1  0
 76 81  1  0
 76 77  1  0
 77 80  1  1
 77 78  1  0
 79 77  1  0
 81 84  1  0
 82 86  1  0
 82 81  1  0
 83 82  2  0
 86 85  1  0
 88 86  1  0
 88 89  1  0
 88 87  1  0
M  ISO  4  11 100  12 100  48 101  49 101
M  END
>  <TORSDO>  (82) 
F 20

>  <SCORE>  (82) 
-13.709

>  <name>  (82) 
82

>  <ligand_id>  (82) 
82

>  <original_smiles>  (82) 
[H]c1c([H])c([H])c2c(c1[H])C([H])([H])C([H])([H])C([H])([H])C2([H])N([H])C(=O)C1([H])N(C(=O)C([H])(N([H])C(=O)C([H])(N([H])C([H])([H])[H])C([H])([H])[H])C(C([H])([H])[H])(C([H])([H])[H])C([H])([H])[H])C([H])([H])c2c([H])c(OC([H])([H])c3c([H])c([H])c(C([H])([H])N=C(C([H])([H])[H])C([H])([H])C(=O)N4C([H])([H])C([H])([H])C([H])([H])C([H])(n5nc(-c6c([H])c([H])c(Oc7c([H])c([H])c(F)c([H])c7F)c([H])c6[H])c(C(=O)N([H])[H])c5N([H])[H])C4([H])[H])c([H])c3[H])c([H])c([H])c2C1([H])[H]

>  <smiles>  (82) 
[H]c1c([H])c([H])c2c(c1[H])C([H])([H])C([H])([H])C([H])([H])C2([H])N([H])C(=O)C1([H])N(C(=O)C([H])(N([H])C(=O)C([H])(N([H])C([H])([H])[H])C([H])([H])[H])C(C([H])([H])[H])(C([H])([H])[H])C([H])([H])[H])C([H])([H])c2c([H])c(OC([H])([H])c3c([H])c([H])c(C([H])([H])N=C(C([H])([H])[H])C([H])([H])C(=O)N4C([H])([H])C([H])([H])C([H])([H])C([H])(n5nc(-c6c([H])c([H])c(Oc7c([H])c([H])c(F)c([H])c7F)c([H])c6[H])c(C(=O)N([H])[H])c5N([H])[H])C4([H])[H])c([H])c3[H])c([H])c([H])c2C1([H])[H]

$$$$
83:0:0
     RDKit          3D

 89 97  0  0  1  0  0  0  0  0999 V2000
  -27.9270  -20.3040   19.9020 C   0  0  0  0  0  2  0  0  0  0  0  0
  -29.0730  -18.9440   19.6730 C   0  0  0  0  0  3  0  0  0  0  0  0
  -28.3600  -22.0420   19.8800 C   0  0  0  0  0  3  0  0  0  0  0  0
  -30.2230  -20.0380   19.7820 C   0  0  0  0  0  3  0  0  0  0  0  0
  -29.7630  -21.5600   19.3080 C   0  0  0  0  0  3  0  0  0  0  0  0
  -31.4650  -19.5430   19.0240 C   0  0  0  0  0  1  0  0  0  0  0  0
  -29.2040  -17.1210   20.2730 C   0  0  0  0  0  2  0  0  0  0  0  0
  -30.1010  -15.5140   20.0290 C   0  0  0  0  0  0  0  0  0  0  0  0
  -30.2750  -12.9460   19.3330 C   0  0  0  0  0  2  0  0  0  0  0  0
  -29.3480  -12.5370   18.1540 C   0  0  0  0  0  2  0  0  0  0  0  0
  -27.9400  -12.1740   18.6570 C   0  0  0  0  0  2  0  0  0  0  0  0
  -27.4500  -13.1870   19.7210 C   0  0  0  0  0  3  0  0  0  0  0  0
  -28.5110  -13.5260   20.7920 C   0  0  0  0  0  2  0  0  0  0  0  0
  -29.6690  -14.1240   20.0960 N   0  0  0  0  0  0  0  0  0  0  0  0
  -31.3060  -15.5170   19.7140 O   0  0  0  0  0  0  0  0  0  0  0  0
  -25.1630  -13.6880   20.7100 C   0  0  0  0  0  0  0  0  0  0  0  0
  -24.1140  -12.8970   21.0830 C   0  0  0  0  0  0  0  0  0  0  0  0
  -24.5490  -11.5480   20.8920 C   0  0  0  0  0  0  0  0  0  0  0  0
  -26.1640  -12.8270   20.3020 N   0  0  0  0  0  0  0  0  0  0  0  0
  -25.8130  -11.5240   20.4780 N   0  0  0  0  0  0  0  0  0  0  0  0
  -23.8040  -10.2860   21.0180 C   0  0  0  0  0  0  0  0  0  0  0  0
  -24.2390   -9.2540   21.8780 C   0  0  0  0  0  3  0  0  0  0  0  0
  -23.4930   -8.0620   22.0010 C   0  0  0  0  0  3  0  0  0  0  0  0
  -22.2970   -7.8930   21.2620 C   0  0  0  0  0  0  0  0  0  0  0  0
  -21.8790   -8.9140   20.3910 C   0  0  0  0  0  3  0  0  0  0  0  0
  -22.6250  -10.0990   20.2670 C   0  0  0  0  0  3  0  0  0  0  0  0
  -21.5220   -6.7590   21.2980 O   0  0  0  0  0  0  0  0  0  0  0  0
  -21.4390   -5.9760   22.4220 C   0  0  0  0  0  0  0  0  0  0  0  0
  -21.0130   -6.4980   23.6630 C   0  0  0  0  0  3  0  0  0  0  0  0
  -20.8790   -5.6450   24.7760 C   0  0  0  0  0  3  0  0  0  0  0  0
  -21.1570   -4.2700   24.6490 C   0  0  0  0  0  0  0  0  0  0  0  0
  -21.5740   -3.7470   23.4120 C   0  0  0  0  0  3  0  0  0  0  0  0
  -21.7100   -4.5980   22.3010 C   0  0  0  0  0  0  0  0  0  0  0  0
  -22.0930   -4.0860   21.1060 F   0  0  0  0  0  0  0  0  0  0  0  0
  -21.0170   -3.4480   25.7160 F   0  0  0  0  0  0  0  0  0  0  0  0
  -22.7510  -13.3720   21.4930 C   0  0  0  0  0  0  0  0  0  0  0  0
  -22.0740  -12.6250   22.3570 N   0  0  0  0  0  0  0  0  0  0  0  0
  -22.2990  -14.4420   21.0860 O   0  0  0  0  0  0  0  0  0  0  0  0
  -22.4550  -11.7600   22.7100 H   0  0  0  0  0  0  0  0  0  0  0  0
  -21.1590  -12.9220   22.6690 H   0  0  0  0  0  0  0  0  0  0  0  0
  -25.3410  -15.0680   20.6540 N   0  0  0  0  0  0  0  0  0  0  0  0
  -24.5950  -15.7120   20.9010 H   0  0  0  0  0  0  0  0  0  0  0  0
  -26.1700  -15.5350   20.3100 H   0  0  0  0  0  0  0  0  0  0  0  0
  -30.8500  -22.6430   19.4990 C   0  0  0  0  0  2  0  0  0  0  0  0
  -30.6940  -23.5490   20.7350 C   0  0  0  0  0  2  0  0  0  0  0  0
  -31.2080  -25.9060   21.6260 C   0  0  0  0  0  1  0  0  0  0  0  0
  -31.5990  -24.7900   20.6500 C   0  0  0  0  0  2  0  0  0  0  0  0
  -27.4910  -23.7010   19.4400 C   0  0  0  0  0  2  0  0  0  0  0  0
  -27.6950  -25.4260   19.4270 O   0  0  0  0  0  0  0  0  0  0  0  0
  -24.3940  -31.5240   22.8020 C   0  0  0  0  0  0  0  0  0  0  0  0
  -26.7160  -26.6160   19.4510 C   0  0  0  0  0  0  0  0  0  0  0  0
  -23.0950  -30.1870   21.2000 C   0  0  0  0  0  3  0  0  0  0  0  0
  -24.4410  -28.6070   19.6250 C   0  0  0  0  0  0  0  0  0  0  0  0
  -25.6560  -30.3580   20.9010 C   0  0  0  0  0  2  0  0  0  0  0  0
  -25.6750  -28.9560   20.1880 C   0  0  0  0  0  0  0  0  0  0  0  0
  -26.7960  -27.9860   20.0740 C   0  0  0  0  0  3  0  0  0  0  0  0
  -25.4460  -26.4680   18.8410 C   0  0  0  0  0  3  0  0  0  0  0  0
  -24.3610  -27.3890   18.9290 C   0  0  0  0  0  3  0  0  0  0  0  0
  -23.2360  -29.5440   19.7900 C   0  0  0  0  0  2  0  0  0  0  0  0
  -24.4090  -30.7180   21.6860 N   0  0  0  0  0  0  0  0  0  0  0  0
  -23.3400  -31.8000   23.4000 O   0  0  0  0  0  0  0  0  0  0  0  0
  -22.4530  -29.1680   22.1790 C   0  0  0  0  0  0  0  0  0  0  0  0
  -21.1170  -28.9990   22.1270 N   0  0  0  0  0  0  0  0  0  0  0  0
  -23.1650  -28.5270   22.9550 O   0  0  0  0  0  0  0  0  0  0  0  0
  -20.5920  -29.5650   21.4750 H   0  0  0  0  0  0  0  0  0  0  0  0
  -17.7840  -27.7020   22.7650 C   0  0  0  0  0  0  0  0  0  0  0  0
  -20.3470  -28.0300   22.9160 C   0  0  0  0  0  3  0  0  0  0  0  0
  -20.4550  -26.6100   22.3120 C   0  0  0  0  0  2  0  0  0  0  0  0
  -19.3170  -26.2790   21.3410 C   0  0  0  0  0  2  0  0  0  0  0  0
  -17.9630  -26.3740   22.0500 C   0  0  0  0  0  2  0  0  0  0  0  0
  -18.9030  -28.4880   23.1580 C   0  0  0  0  0  0  0  0  0  0  0  0
  -18.6760  -29.7270   23.7940 C   0  0  0  0  0  3  0  0  0  0  0  0
  -17.3670  -30.1850   24.0370 C   0  0  0  0  0  3  0  0  0  0  0  0
  -16.2660  -29.3990   23.6570 C   0  0  0  0  0  3  0  0  0  0  0  0
  -16.4760  -28.1590   23.0280 C   0  0  0  0  0  3  0  0  0  0  0  0
  -25.7000  -32.1530   23.3770 C   0  0  0  0  0  3  0  0  0  0  0  0
  -25.3780  -33.5060   23.8740 N   0  0  0  0  0  0  0  0  0  0  0  0
  -25.7360  -34.6530   23.2780 C   0  0  0  0  0  0  0  0  0  0  0  0
  -26.4290  -34.6810   22.2590 O   0  0  0  0  0  0  0  0  0  0  0  0
  -24.7630  -33.5560   24.6710 H   0  0  0  0  0  0  0  0  0  0  0  0
  -24.0430  -36.5130   23.1270 C   0  0  0  0  0  1  0  0  0  0  0  0
  -25.2530  -35.9760   23.9100 C   0  0  0  0  0  3  0  0  0  0  0  0
  -27.3670  -36.7070   24.9240 C   0  0  0  0  0  1  0  0  0  0  0  0
  -26.3010  -37.0180   23.9750 N   0  0  0  0  0  0  0  0  0  0  0  0
  -25.9020  -37.9170   24.2290 H   0  0  0  0  0  0  0  0  0  0  0  0
  -26.3390  -31.2940   24.5390 C   0  0  1  0  0  0  0  0  0  0  0  0
  -25.3430  -30.9260   25.6640 C   0  0  0  0  0  1  0  0  0  0  0  0
  -26.9270  -29.9740   23.9910 C   0  0  0  0  0  1  0  0  0  0  0  0
  -27.5180  -32.0650   25.1760 C   0  0  0  0  0  1  0  0  0  0  0  0
  2  4  1  0
  2  1  1  0
  2  7  1  0
  3 48  1  0
  3  1  1  0
  4  6  1  0
  5 44  1  0
  5  4  1  0
  5  3  1  0
  8 14  1  0
  8  7  1  0
  9 14  1  0
 10 11  1  0
 10  9  1  0
 12 11  1  0
 12 19  1  0
 12 13  1  0
 14 13  1  0
 15  8  2  0
 16 17  2  0
 17 36  1  0
 18 21  1  0
 18 17  1  0
 19 20  1  0
 19 16  1  0
 20 18  2  0
 21 22  1  0
 22 23  2  0
 24 27  1  0
 24 23  1  0
 25 24  2  0
 26 25  1  0
 26 21  2  0
 27 28  1  0
 28 29  1  0
 29 30  2  0
 31 30  1  0
 31 35  1  0
 32 31  2  0
 33 28  2  0
 33 32  1  0
 34 33  1  0
 36 37  1  0
 37 40  1  0
 37 39  1  0
 38 36  2  0
 41 16  1  0
 41 42  1  0
 43 41  1  0
 44 45  1  0
 47 45  1  0
 47 46  1  0
 49 48  1  0
 49 51  1  0
 50 61  2  0
 51 56  1  0
 52 60  1  0
 52 62  1  0
 53 59  1  0
 53 55  1  0
 54 60  1  0
 55 54  1  0
 56 55  2  0
 57 58  1  0
 57 51  2  0
 58 53  2  0
 59 52  1  0
 60 50  1  0
 62 64  2  0
 63 62  1  0
 65 63  1  0
 66 75  2  0
 66 71  1  0
 67 63  1  0
 67 71  1  0
 68 67  1  0
 69 70  1  0
 69 68  1  0
 70 66  1  0
 71 72  2  0
 72 73  1  0
 74 73  2  0
 75 74  1  0
 76 50  1  0
 76 77  1  0
 76 86  1  0
 77 80  1  0
 78 77  1  0
 78 82  1  0
 79 78  2  0
 82 81  1  0
 82 84  1  0
 84 85  1  0
 84 83  1  0
 86 89  1  1
 86 87  1  0
 88 86  1  0
M  ISO  4   7 100   8 100  48 101  49 101
M  END
>  <TORSDO>  (83) 
F 21

>  <SCORE>  (83) 
-13.582

>  <name>  (83) 
83

>  <ligand_id>  (83) 
83

>  <original_smiles>  (83) 
[H]c1c([H])c([H])c2c(c1[H])C([H])([H])C([H])([H])C([H])([H])C2([H])N([H])C(=O)C1([H])N(C(=O)C([H])(N([H])C(=O)C([H])(N([H])C([H])([H])[H])C([H])([H])[H])C(C([H])([H])[H])(C([H])([H])[H])C([H])([H])[H])C([H])([H])c2c([H])c(OC([H])([H])C3([H])C([H])([H])C([H])(C([H])([H])C(=O)N4C([H])([H])C([H])([H])C([H])([H])C([H])(n5nc(-c6c([H])c([H])c(Oc7c([H])c([H])c(F)c([H])c7F)c([H])c6[H])c(C(=O)N([H])[H])c5N([H])[H])C4([H])[H])C([H])(C([H])([H])[H])C3([H])C([H])([H])C([H])([H])C([H])([H])C([H])([H])[H])c([H])c([H])c2C1([H])[H]

>  <smiles>  (83) 
[H]c1c([H])c([H])c2c(c1[H])C([H])([H])C([H])([H])C([H])([H])C2([H])N([H])C(=O)C1([H])N(C(=O)C([H])(N([H])C(=O)C([H])(N([H])C([H])([H])[H])C([H])([H])[H])C(C([H])([H])[H])(C([H])([H])[H])C([H])([H])[H])C([H])([H])c2c([H])c(OC([H])([H])C3([H])C([H])([H])C([H])(C([H])([H])C(=O)N4C([H])([H])C([H])([H])C([H])([H])C([H])(n5nc(-c6c([H])c([H])c(Oc7c([H])c([H])c(F)c([H])c7F)c([H])c6[H])c(C(=O)N([H])[H])c5N([H])[H])C4([H])[H])C([H])(C([H])([H])[H])C3([H])C([H])([H])C([H])([H])C([H])([H])C([H])([H])[H])c([H])c([H])c2C1([H])[H]

$$$$
84:0:0
     RDKit          3D

 97105  0  0  1  0  0  0  0  0999 V2000
  -29.8350  -19.1950   21.6220 C   0  0  0  0  0  2  0  0  0  0  0  0
  -29.8810  -20.9420   23.3400 C   0  0  0  0  0  1  0  0  0  0  0  0
  -29.3380  -20.5770   21.9980 N   0  0  1  0  0  4  0  0  0  0  0  0
  -28.3390  -20.5050   22.1230 H   0  0  0  0  0  0  0  0  0  0  0  0
  -29.5800  -21.6700   20.9870 C   0  0  0  0  0  3  0  0  0  0  0  0
  -28.8770  -23.0470   21.2960 C   0  0  0  0  0  3  0  0  0  0  0  0
  -29.2540  -24.2790   20.4030 C   0  0  0  0  0  2  0  0  0  0  0  0
  -28.5360  -25.6070   20.8310 C   0  0  0  0  0  2  0  0  0  0  0  0
  -28.6000  -26.7430   19.9200 O   0  0  0  0  0  0  0  0  0  0  0  0
  -24.5290  -31.7060   23.0610 C   0  0  0  0  0  0  0  0  0  0  0  0
  -27.4440  -27.5070   19.8760 C   0  0  0  0  0  0  0  0  0  0  0  0
  -23.4310  -30.3440   21.3130 C   0  0  0  0  0  3  0  0  0  0  0  0
  -24.9930  -28.9370   19.8560 C   0  0  0  0  0  0  0  0  0  0  0  0
  -25.9410  -30.8140   21.2060 C   0  0  0  0  0  2  0  0  0  0  0  0
  -26.1110  -29.4760   20.5060 C   0  0  0  0  0  0  0  0  0  0  0  0
  -27.3380  -28.7670   20.5190 C   0  0  0  0  0  3  0  0  0  0  0  0
  -26.3160  -26.9970   19.1990 C   0  0  0  0  0  3  0  0  0  0  0  0
  -25.0920  -27.6980   19.1950 C   0  0  0  0  0  3  0  0  0  0  0  0
  -23.7070  -29.7370   19.9110 C   0  0  0  0  0  2  0  0  0  0  0  0
  -24.6510  -30.9680   21.9200 N   0  0  0  0  0  0  0  0  0  0  0  0
  -23.4230  -31.9070   23.5820 O   0  0  0  0  0  0  0  0  0  0  0  0
  -22.7890  -29.2530   22.2030 C   0  0  0  0  0  0  0  0  0  0  0  0
  -21.4670  -29.0640   22.0670 N   0  0  0  0  0  0  0  0  0  0  0  0
  -23.4820  -28.5820   22.9720 O   0  0  0  0  0  0  0  0  0  0  0  0
  -20.9660  -29.6590   21.4240 H   0  0  0  0  0  0  0  0  0  0  0  0
  -18.1080  -27.8160   22.5320 C   0  0  0  0  0  0  0  0  0  0  0  0
  -20.6700  -28.0620   22.7720 C   0  0  0  0  0  3  0  0  0  0  0  0
  -20.7630  -26.6850   22.0730 C   0  0  0  0  0  2  0  0  0  0  0  0
  -19.6410  -26.4440   21.0580 C   0  0  0  0  0  2  0  0  0  0  0  0
  -18.2720  -26.5310   21.7380 C   0  0  0  0  0  2  0  0  0  0  0  0
  -19.2320  -28.5440   23.0030 C   0  0  0  0  0  0  0  0  0  0  0  0
  -19.0240  -29.7490   23.7060 C   0  0  0  0  0  3  0  0  0  0  0  0
  -17.7230  -30.2310   23.9400 C   0  0  0  0  0  3  0  0  0  0  0  0
  -16.6120  -29.5010   23.4830 C   0  0  0  0  0  3  0  0  0  0  0  0
  -16.8030  -28.2910   22.7900 C   0  0  0  0  0  3  0  0  0  0  0  0
  -25.7700  -32.3570   23.7510 C   0  0  0  0  0  3  0  0  0  0  0  0
  -26.2710  -31.5570   25.0150 C   0  0  1  0  0  0  0  0  0  0  0  0
  -25.1540  -31.2590   26.0420 C   0  0  0  0  0  1  0  0  0  0  0  0
  -26.9000  -30.2080   24.5960 C   0  0  0  0  0  1  0  0  0  0  0  0
  -27.3830  -32.3570   25.7330 C   0  0  0  0  0  1  0  0  0  0  0  0
  -25.4060  -33.7320   24.1160 N   0  0  0  0  0  0  0  0  0  0  0  0
  -25.7440  -34.8190   23.4090 C   0  0  0  0  0  0  0  0  0  0  0  0
  -26.4610  -34.7730   22.4050 O   0  0  0  0  0  0  0  0  0  0  0  0
  -24.7780  -33.8420   24.8970 H   0  0  0  0  0  0  0  0  0  0  0  0
  -23.9890  -36.5820   23.0290 C   0  0  0  0  0  1  0  0  0  0  0  0
  -25.1960  -36.1770   23.8910 C   0  0  0  0  0  3  0  0  0  0  0  0
  -27.2480  -37.0870   24.8840 C   0  0  0  0  0  1  0  0  0  0  0  0
  -26.2060  -37.2580   23.8760 N   0  0  0  0  0  0  0  0  0  0  0  0
  -25.7650  -38.1630   24.0280 H   0  0  0  0  0  0  0  0  0  0  0  0
  -29.7280  -18.7160   20.1240 C   0  0  0  0  0  3  0  0  0  0  0  0
  -31.6090  -16.7700   17.3640 C   0  0  0  0  0  2  0  0  0  0  0  0
  -32.8610  -16.6060   18.2470 C   0  0  0  0  0  2  0  0  0  0  0  0
  -30.3600  -17.3740   18.0610 C   0  0  0  0  0  2  0  0  0  0  0  0
  -32.6020  -17.0340   19.7130 C   0  0  0  0  0  2  0  0  0  0  0  0
  -30.1280  -17.2010   19.6280 C   0  0  0  0  0  3  0  0  0  0  0  0
  -31.3270  -16.3440   20.3140 C   0  0  2  0  0  0  0  0  0  0  0  0
  -31.3770  -16.5280   21.8730 C   0  0  0  0  0  1  0  0  0  0  0  0
  -31.5940  -14.7550   20.0790 C   0  0  0  0  0  0  0  0  0  0  0  0
  -31.0150  -12.5600   19.0500 C   0  0  0  0  0  2  0  0  0  0  0  0
  -30.0900  -12.6750   17.8230 C   0  0  0  0  0  2  0  0  0  0  0  0
  -28.6140  -12.8020   18.2470 C   0  0  0  0  0  2  0  0  0  0  0  0
  -28.3680  -13.6250   19.5420 C   0  0  0  0  0  3  0  0  0  0  0  0
  -29.4460  -13.4810   20.6290 C   0  0  0  0  0  2  0  0  0  0  0  0
  -30.7350  -13.6860   19.9780 N   0  0  0  0  0  0  0  0  0  0  0  0
  -32.7700  -14.5320   19.7840 O   0  0  0  0  0  0  0  0  0  0  0  0
  -26.0500  -14.3550   20.3580 C   0  0  0  0  0  0  0  0  0  0  0  0
  -24.9360  -13.6460   20.7200 C   0  0  0  0  0  0  0  0  0  0  0  0
  -25.2980  -12.2710   20.6220 C   0  0  0  0  0  0  0  0  0  0  0  0
  -27.0180  -13.4130   20.0550 N   0  0  0  0  0  0  0  0  0  0  0  0
  -26.5740  -12.1490   20.2790 N   0  0  0  0  0  0  0  0  0  0  0  0
  -24.4820  -11.0540   20.7950 C   0  0  0  0  0  0  0  0  0  0  0  0
  -24.8850  -10.0060   21.6500 C   0  0  0  0  0  3  0  0  0  0  0  0
  -24.0720   -8.8630   21.8190 C   0  0  0  0  0  3  0  0  0  0  0  0
  -22.8410   -8.7630   21.1280 C   0  0  0  0  0  0  0  0  0  0  0  0
  -22.4540   -9.8010   20.2630 C   0  0  0  0  0  3  0  0  0  0  0  0
  -23.2640  -10.9360   20.0940 C   0  0  0  0  0  3  0  0  0  0  0  0
  -22.0040   -7.6750   21.2010 O   0  0  0  0  0  0  0  0  0  0  0  0
  -21.9100   -6.9120   22.3360 C   0  0  0  0  0  0  0  0  0  0  0  0
  -21.5540   -7.4780   23.5820 C   0  0  0  0  0  3  0  0  0  0  0  0
  -21.4000   -6.6520   24.7110 C   0  0  0  0  0  3  0  0  0  0  0  0
  -21.5930   -5.2630   24.5990 C   0  0  0  0  0  0  0  0  0  0  0  0
  -21.9400   -4.6960   23.3610 C   0  0  0  0  0  3  0  0  0  0  0  0
  -22.0910   -5.5160   22.2340 C   0  0  0  0  0  0  0  0  0  0  0  0
  -22.4000   -4.9630   21.0340 F   0  0  0  0  0  0  0  0  0  0  0  0
  -21.4430   -4.4690   25.6860 F   0  0  0  0  0  0  0  0  0  0  0  0
  -23.5920  -14.2150   21.0710 C   0  0  0  0  0  0  0  0  0  0  0  0
  -22.8870  -13.5510   21.9830 N   0  0  0  0  0  0  0  0  0  0  0  0
  -23.1820  -15.2620   20.5790 O   0  0  0  0  0  0  0  0  0  0  0  0
  -23.2480  -12.6880   22.3550 H   0  0  0  0  0  0  0  0  0  0  0  0
  -21.9940  -13.8950   22.3080 H   0  0  0  0  0  0  0  0  0  0  0  0
  -26.3140  -15.7110   20.2550 N   0  0  0  0  0  0  0  0  0  0  0  0
  -25.6360  -16.4120   20.5280 H   0  0  0  0  0  0  0  0  0  0  0  0
  -27.2370  -16.0940   20.0940 H   0  0  0  0  0  0  0  0  0  0  0  0
  -28.3410  -19.1880   19.5400 C   0  0  0  0  0  2  0  0  0  0  0  0
  -27.0960  -18.3180   19.8640 C   0  0  0  0  0  2  0  0  0  0  0  0
  -24.5560  -18.0590   19.5340 C   0  0  0  0  0  1  0  0  0  0  0  0
  -25.8560  -18.7120   19.0310 C   0  0  0  0  0  2  0  0  0  0  0  0
  1  3  1  0
  3  4  1  1
  3  2  1  0
  5  6  2  0
  5  3  1  0
  7  8  1  0
  7  6  1  0
  9  8  1  0
 10 21  2  0
 11  9  1  0
 11 16  1  0
 12 20  1  0
 12 22  1  0
 13 19  1  0
 13 15  1  0
 14 20  1  0
 15 16  2  0
 15 14  1  0
 17 11  2  0
 18 17  1  0
 18 13  2  0
 19 12  1  0
 20 10  1  0
 22 24  2  0
 23 22  1  0
 25 23  1  0
 26 35  2  0
 26 31  1  0
 27 23  1  0
 27 31  1  0
 28 27  1  0
 29 30  1  0
 29 28  1  0
 30 26  1  0
 31 32  2  0
 32 33  1  0
 34 33  2  0
 35 34  1  0
 36 10  1  0
 36 41  1  0
 36 37  1  0
 37 40  1  1
 37 38  1  0
 39 37  1  0
 41 44  1  0
 42 46  1  0
 42 41  1  0
 43 42  2  0
 46 45  1  0
 48 46  1  0
 48 49  1  0
 48 47  1  0
 50 94  1  0
 50  1  1  0
 51 53  1  0
 51 52  1  0
 52 54  1  0
 53 55  1  0
 54 56  1  0
 55 50  1  0
 55 56  1  0
 56 57  1  1
 58 56  1  0
 59 64  1  0
 60 61  1  0
 60 59  1  0
 62 61  1  0
 62 69  1  0
 62 63  1  0
 64 58  1  0
 64 63  1  0
 65 58  2  0
 66 67  2  0
 67 86  1  0
 68 67  1  0
 68 71  1  0
 69 70  1  0
 69 66  1  0
 70 68  2  0
 71 72  1  0
 72 73  2  0
 74 77  1  0
 74 73  1  0
 75 74  2  0
 76 75  1  0
 76 71  2  0
 77 78  1  0
 78 79  1  0
 79 80  2  0
 81 80  1  0
 81 85  1  0
 82 81  2  0
 83 78  2  0
 83 82  1  0
 84 83  1  0
 86 87  1  0
 87 90  1  0
 87 89  1  0
 88 86  2  0
 91 66  1  0
 91 92  1  0
 93 91  1  0
 94 95  1  0
 97 96  1  0
 97 95  1  0
M  ISO  4   8 101   9 101  56 100  58 100
M  END
>  <TORSDO>  (84) 
F 26

>  <SCORE>  (84) 
-9.573

>  <name>  (84) 
84

>  <ligand_id>  (84) 
84

>  <original_smiles>  (84) 
[H]c1c([H])c([H])c2c(c1[H])C([H])([H])C([H])([H])C([H])([H])C2([H])N([H])C(=O)C1([H])N(C(=O)C([H])(N([H])C(=O)C([H])(N([H])C([H])([H])[H])C([H])([H])[H])C(C([H])([H])[H])(C([H])([H])[H])C([H])([H])[H])C([H])([H])c2c([H])c(OC([H])([H])C([H])([H])C([H])([H])C([H])([H])[N+]([H])(C([H])([H])[H])C([H])([H])C([H])(C([H])([H])C([H])([H])C([H])([H])C([H])([H])[H])C3([H])C([H])([H])C([H])([H])C([H])([H])C([H])([H])C3(C(=O)N3C([H])([H])C([H])([H])C([H])([H])C([H])(n4nc(-c5c([H])c([H])c(Oc6c([H])c([H])c(F)c([H])c6F)c([H])c5[H])c(C(=O)N([H])[H])c4N([H])[H])C3([H])[H])C([H])([H])[H])c([H])c([H])c2C1([H])[H]

>  <smiles>  (84) 
[H]c1c([H])c([H])c2c(c1[H])C([H])([H])C([H])([H])C([H])([H])C2([H])N([H])C(=O)C1([H])N(C(=O)C([H])(N([H])C(=O)C([H])(N([H])C([H])([H])[H])C([H])([H])[H])C(C([H])([H])[H])(C([H])([H])[H])C([H])([H])[H])C([H])([H])c2c([H])c(OC([H])([H])C([H])([H])C([H])([H])C([H])([H])[N+]([H])(C([H])([H])[H])C([H])([H])C([H])(C([H])([H])C([H])([H])C([H])([H])C([H])([H])[H])C3([H])C([H])([H])C([H])([H])C([H])([H])C([H])([H])C3(C(=O)N3C([H])([H])C([H])([H])C([H])([H])C([H])(n4nc(-c5c([H])c([H])c(Oc6c([H])c([H])c(F)c([H])c6F)c([H])c5[H])c(C(=O)N([H])[H])c4N([H])[H])C3([H])[H])C([H])([H])[H])c([H])c([H])c2C1([H])[H]

$$$$
85:0:0
     RDKit          3D

 95 94  0  0  1  0  0  0  0  0999 V2000
  -20.5890  -27.6430   20.7720 C   0  0  0  0  0  2  0  0  0  0  0  0
  -21.4410  -28.8510   20.4200 N   0  0  0  0  0  0  0  0  0  0  0  0
  -19.5890  -27.9910   21.4260 O   0  0  0  0  0  1  0  0  0  0  0  0
  -22.1080  -28.4030   19.8060 H   0  0  0  0  0  0  0  0  0  0  0  0
  -22.5150  -23.8630   20.5870 C   0  0  0  0  0  2  0  0  0  0  0  0
  -24.2000  -23.8360   20.4340 C   0  0  0  0  0  2  0  0  0  0  0  0
  -21.5190  -25.0490   19.8660 C   0  0  0  0  0  2  0  0  0  0  0  0
  -24.7520  -24.3510   19.0370 C   0  0  0  0  0  2  0  0  0  0  0  0
  -22.6330  -24.2720   17.5380 C   0  0  0  0  0  1  0  0  0  0  0  0
  -23.0710  -24.8880   18.8190 N   0  0  1  0  0  4  0  0  0  0  0  0
  -23.2100  -25.8570   18.5750 H   0  0  0  0  0  0  0  0  0  0  0  0
  -26.7530  -24.8730   18.5090 C   0  0  0  0  0 15  0  0  0  0  0  0
  -28.7000  -24.3300   17.8300 C   0  0  0  0  0 15  0  0  0  0  0  0
  -30.7950  -24.7290   17.7470 C   0  0  0  0  0 15  0  0  0  0  0  0
  -32.7140  -24.2630   16.9500 C   0  0  0  0  0 15  0  0  0  0  0  0
  -34.7570  -24.3060   16.9670 C   0  0  0  0  0  2  0  0  0  0  0  0
  -37.2900  -25.2020   16.1880 C   0  0  0  0  0  2  0  0  0  0  0  0
  -37.5400  -26.7520   16.3010 C   0  0  0  0  0  2  0  0  0  0  0  0
  -36.7360  -27.5330   15.2470 C   0  0  0  0  0  2  0  0  0  0  0  0
  -35.3710  -26.8430   15.0630 C   0  0  0  0  0  3  0  0  0  0  0  0
  -35.4770  -25.3570   14.7500 C   0  0  0  0  0  2  0  0  0  0  0  0
  -35.7800  -24.8250   16.0390 N   0  0  0  0  0  0  0  0  0  0  0  0
  -35.5360  -23.7710   17.8240 O   0  0  0  0  0  1  0  0  0  0  0  0
  -33.1610  -27.6250   14.2180 C   0  0  0  0  0  0  0  0  0  0  0  0
  -32.7820  -28.1610   13.0290 C   0  0  0  0  0  0  0  0  0  0  0  0
  -33.9590  -28.2080   12.2210 C   0  0  0  0  0  0  0  0  0  0  0  0
  -34.5130  -27.4100   14.0890 N   0  0  0  0  0  0  0  0  0  0  0  0
  -34.9900  -27.6780   12.8580 N   0  0  0  0  0  0  0  0  0  0  0  0
  -34.1900  -28.8010   10.9100 C   0  0  0  0  0  0  0  0  0  0  0  0
  -34.7450  -28.0540    9.8500 C   0  0  0  0  0  3  0  0  0  0  0  0
  -34.9420  -28.6530    8.5900 C   0  0  0  0  0  3  0  0  0  0  0  0
  -34.5810  -30.0070    8.3860 C   0  0  0  0  0  0  0  0  0  0  0  0
  -34.0540  -30.7510    9.4560 C   0  0  0  0  0  3  0  0  0  0  0  0
  -33.8630  -30.1540   10.7120 C   0  0  0  0  0  3  0  0  0  0  0  0
  -34.7550  -30.6800    7.2040 O   0  0  0  0  0  0  0  0  0  0  0  0
  -34.7630  -30.0250    5.9980 C   0  0  0  0  0  0  0  0  0  0  0  0
  -33.6660  -29.2520    5.5620 C   0  0  0  0  0  3  0  0  0  0  0  0
  -33.6900  -28.6530    4.2870 C   0  0  0  0  0  3  0  0  0  0  0  0
  -34.8060  -28.8340    3.4460 C   0  0  0  0  0  0  0  0  0  0  0  0
  -35.8980  -29.6060    3.8790 C   0  0  0  0  0  3  0  0  0  0  0  0
  -35.8750  -30.2030    5.1510 C   0  0  0  0  0  0  0  0  0  0  0  0
  -36.9190  -30.9650    5.5560 F   0  0  0  0  0  0  0  0  0  0  0  0
  -34.8280  -28.2650    2.2180 F   0  0  0  0  0  0  0  0  0  0  0  0
  -31.4280  -28.7090   12.7160 C   0  0  0  0  0  0  0  0  0  0  0  0
  -31.0220  -28.6290   11.4570 N   0  0  0  0  0  0  0  0  0  0  0  0
  -30.7090  -29.1700   13.6010 O   0  0  0  0  0  0  0  0  0  0  0  0
  -31.6200  -28.2290   10.7480 H   0  0  0  0  0  0  0  0  0  0  0  0
  -30.1070  -28.9710   11.2000 H   0  0  0  0  0  0  0  0  0  0  0  0
  -32.4860  -27.3440   15.4010 N   0  0  0  0  0  0  0  0  0  0  0  0
  -31.5590  -27.7370   15.5290 H   0  0  0  0  0  0  0  0  0  0  0  0
  -32.9910  -27.2340   16.2700 H   0  0  0  0  0  0  0  0  0  0  0  0
  -22.0060  -30.3650   20.5120 C   0  0  0  0  0  2  0  0  0  0  0  0
  -23.6370  -30.9480   20.1250 C   0  0  0  0  0  2  0  0  0  0  0  0
  -25.1270  -31.4100   20.9960 C   0  0  0  0  0  2  0  0  0  0  0  0
  -26.6540  -30.8300   21.1280 O   0  0  0  0  0  0  0  0  0  0  0  0
  -23.6790  -27.6390   26.4860 C   0  0  0  0  0  0  0  0  0  0  0  0
  -26.9270  -29.6820   21.8190 C   0  0  0  0  0  3  0  0  0  0  0  0
  -22.7800  -28.3980   24.3980 C   0  0  0  0  0  3  0  0  0  0  0  0
  -24.4360  -29.2420   22.7790 C   0  0  0  0  0  3  0  0  0  0  0  0
  -25.0450  -29.3190   25.1750 C   0  0  0  0  0  2  0  0  0  0  0  0
  -25.4440  -29.4130   23.7140 C   0  0  0  0  0  0  0  0  0  0  0  0
  -26.7490  -29.6510   23.2290 C   0  0  0  0  0  3  0  0  0  0  0  0
  -26.1390  -28.8780   21.0530 C   0  0  0  0  0  2  0  0  0  0  0  0
  -24.8240  -28.8140   21.4910 C   0  0  0  0  0  2  0  0  0  0  0  0
  -23.0320  -29.4080   23.3090 C   0  0  0  0  0  2  0  0  0  0  0  0
  -23.8610  -28.4310   25.4040 N   0  0  0  0  0  0  0  0  0  0  0  0
  -22.6200  -27.0170   26.6690 O   0  0  0  0  0  0  0  0  0  0  0  0
  -22.7130  -27.0280   23.7060 C   0  0  0  0  0  0  0  0  0  0  0  0
  -21.6710  -26.7720   22.9610 N   0  0  0  0  0  0  0  0  0  0  0  0
  -23.6480  -26.2330   23.7370 O   0  0  0  0  0  0  0  0  0  0  0  0
  -20.8950  -27.4230   22.9370 H   0  0  0  0  0  0  0  0  0  0  0  0
  -19.2250  -25.5790   20.3190 C   0  0  0  0  0  0  0  0  0  0  0  0
  -21.7790  -25.8100   21.8640 C   0  0  0  0  0  2  0  0  0  0  0  0
  -23.0280  -26.6480   20.3890 C   0  0  0  0  0 15  0  0  0  0  0  0
  -21.7540  -26.9830   18.4140 C   0  0  0  0  0 15  0  0  0  0  0  0
  -19.8560  -26.2090   18.7170 C   0  0  0  0  0  1  0  0  0  0  0  0
  -20.0410  -25.4270   21.6330 C   0  0  0  0  0  0  0  0  0  0  0  0
  -19.2510  -25.3020   22.8590 C   0  0  0  0  0  3  0  0  0  0  0  0
  -17.8320  -25.2440   22.9460 C   0  0  0  0  0  3  0  0  0  0  0  0
  -17.0970  -25.2840   21.7560 C   0  0  0  0  0  3  0  0  0  0  0  0
  -17.7800  -25.4490   20.5090 C   0  0  0  0  0  3  0  0  0  0  0  0
  -24.7940  -27.4810   27.5380 C   0  0  0  0  0  3  0  0  0  0  0  0
  -24.1210  -27.3020   28.8250 N   0  0  0  0  0  0  0  0  0  0  0  0
  -23.8470  -28.3060   29.6660 C   0  0  0  0  0  0  0  0  0  0  0  0
  -24.2280  -29.4640   29.4750 O   0  0  0  0  0  0  0  0  0  0  0  0
  -23.7340  -26.3890   29.0140 H   0  0  0  0  0  0  0  0  0  0  0  0
  -21.5410  -28.2480   30.6690 C   0  0  0  0  0  1  0  0  0  0  0  0
  -23.0310  -27.9690   30.9260 C   0  0  0  0  0  3  0  0  0  0  0  0
  -24.8180  -28.3160   32.5720 C   0  0  0  0  0  1  0  0  0  0  0  0
  -23.4820  -28.7050   32.1250 N   0  0  0  0  0  0  0  0  0  0  0  0
  -22.8370  -28.5620   32.8980 H   0  0  0  0  0  0  0  0  0  0  0  0
  -25.7600  -26.2800   27.2190 C   0  0  1  0  0  0  0  0  0  0  0  0
  -25.0360  -24.9480   26.9090 C   0  0  0  0  0  1  0  0  0  0  0  0
  -26.6630  -26.6260   26.0110 C   0  0  0  0  0  1  0  0  0  0  0  0
  -26.6950  -26.0570   28.4280 C   0  0  0  0  0  1  0  0  0  0  0  0
  1  3  1  0
  2 52  1  0
  2  1  1  0
  4  2  1  0
  6  5  1  0
  7  5  1  0
  8  6  1  0
  9 10  1  0
 10  8  1  0
 10  7  1  0
 10 11  1  6
 16 23  1  0
 17 18  1  0
 19 18  1  0
 20 27  1  0
 20 19  1  0
 21 20  1  0
 21 22  1  0
 22 17  1  0
 22 16  1  0
 24 49  1  0
 25 24  2  0
 26 28  2  0
 26 25  1  0
 27 24  1  0
 28 27  1  0
 29 26  1  0
 30 29  2  0
 31 30  1  0
 32 31  2  0
 32 33  1  0
 33 34  2  0
 34 29  1  0
 35 32  1  0
 36 35  1  0
 37 36  1  0
 38 37  2  0
 39 40  2  0
 39 38  1  0
 40 41  1  0
 41 42  1  0
 41 36  2  0
 43 39  1  0
 44 25  1  0
 44 46  2  0
 45 44  1  0
 47 45  1  0
 48 45  1  0
 49 50  1  0
 49 51  1  0
 53 52  1  0
 53 54  1  0
 54 55  1  0
 56 67  2  0
 57 55  1  0
 57 62  1  0
 58 68  1  0
 58 66  1  0
 59 64  1  0
 59 65  1  0
 59 61  1  0
 60 66  1  0
 61 60  1  0
 62 61  2  0
 63 64  1  0
 63 57  1  0
 65 58  1  0
 66 56  1  0
 68 70  2  0
 69 68  1  0
 71 69  1  0
 72 81  2  0
 72 77  1  0
 73 69  1  0
 76 72  1  0
 77 73  1  0
 77 78  2  0
 78 79  1  0
 80 79  2  0
 81 80  1  0
 82 56  1  0
 82 83  1  0
 83 86  1  0
 83 84  1  0
 84 88  1  0
 85 84  2  0
 88 87  1  0
 88 90  1  0
 90 89  1  0
 90 91  1  0
 92 82  1  0
 92 95  1  1
 93 92  1  0
 94 92  1  0
M  ISO  4  15 100  16 100  54 101  55 101
M  END
>  <TORSDO>  (85) 
F 24

>  <SCORE>  (85) 
-0.189

>  <name>  (85) 
85

>  <ligand_id>  (85) 
85

>  <original_smiles>  (85) 
[H]c1c([H])c([H])c2c(c1[H])C([H])([H])C([H])([H])C([H])([H])C2([H])N([H])C(=O)C1([H])N(C(=O)C([H])(N([H])C(=O)C([H])(N([H])C([H])([H])[H])C([H])([H])[H])C(C([H])([H])[H])(C([H])([H])[H])C([H])([H])[H])C([H])([H])c2c([H])c(OC([H])([H])C([H])([H])C([H])([H])N([H])C(=O)C3([H])C([H])([H])C([H])([H])C([H])(C([H])([H])C([H])([H])C([H])([H])C([H])([H])C(=O)N4C([H])([H])C([H])([H])C([H])([H])C([H])(n5nc(-c6c([H])c([H])c(Oc7c([H])c([H])c(F)c([H])c7F)c([H])c6[H])c(C(=O)N([H])[H])c5N([H])[H])C4([H])[H])[N+]3([H])C([H])([H])[H])c([H])c([H])c2C1([H])[H]

>  <smiles>  (85) 
[H]c1c([H])c([H])c2c(c1[H])C([H])([H])C([H])([H])C([H])([H])C2([H])N([H])C(=O)C1([H])N(C(=O)C([H])(N([H])C(=O)C([H])(N([H])C([H])([H])[H])C([H])([H])[H])C(C([H])([H])[H])(C([H])([H])[H])C([H])([H])[H])C([H])([H])c2c([H])c(OC([H])([H])C([H])([H])C([H])([H])N([H])C(=O)C3([H])C([H])([H])C([H])([H])C([H])(C([H])([H])C([H])([H])C([H])([H])C([H])([H])C(=O)N4C([H])([H])C([H])([H])C([H])([H])C([H])(n5nc(-c6c([H])c([H])c(Oc7c([H])c([H])c(F)c([H])c7F)c([H])c6[H])c(C(=O)N([H])[H])c5N([H])[H])C4([H])[H])[N+]3([H])C([H])([H])[H])c([H])c([H])c2C1([H])[H]

$$$$
86:0:0
     RDKit          3D

 95103  0  0  1  0  0  0  0  0999 V2000
  -29.3610  -20.6490   20.1750 C   0  0  0  0  0  2  0  0  0  0  0  0
  -29.1000  -17.2600   18.9170 C   0  0  0  0  0  0  0  0  0  0  0  0
  -27.9090  -17.7930   18.1560 C   0  0  0  0  0  2  0  0  0  0  0  0
  -27.7400  -19.1960   18.7160 C   0  0  0  0  0  2  0  0  0  0  0  0
  -28.5820  -19.2730   20.0160 C   0  0  0  0  0  3  0  0  0  0  0  0
  -29.4120  -18.0130   19.9900 N   0  0  0  0  0  0  0  0  0  0  0  0
  -29.6490  -16.2110   18.5720 O   0  0  0  0  0  0  0  0  0  0  0  0
  -30.2430  -17.5110   21.1370 C   0  0  0  0  0  3  0  0  0  0  0  0
  -32.3410  -18.0920   19.6810 C   0  0  0  0  0  1  0  0  0  0  0  0
  -32.0400  -19.2330   21.9080 C   0  0  0  0  0  1  0  0  0  0  0  0
  -31.7360  -17.9690   21.0900 C   0  0  0  0  0  3  0  0  0  0  0  0
  -30.0590  -15.9800   21.5910 C   0  0  0  0  0  2  0  0  0  0  0  0
  -30.8560  -14.7610   20.9710 C   0  0  0  0  0  0  0  0  0  0  0  0
  -30.7270  -12.5610   19.8150 C   0  0  0  0  0  2  0  0  0  0  0  0
  -29.8620  -12.7160   18.5480 C   0  0  0  0  0  2  0  0  0  0  0  0
  -28.3660  -12.5440   18.8740 C   0  0  0  0  0  2  0  0  0  0  0  0
  -27.9270  -13.3960   20.0940 C   0  0  0  0  0  3  0  0  0  0  0  0
  -28.9040  -13.2000   21.2730 C   0  0  0  0  0  2  0  0  0  0  0  0
  -30.2470  -13.5490   20.7990 N   0  0  0  0  0  0  0  0  0  0  0  0
  -32.0240  -14.9200   20.6020 O   0  0  0  0  0  0  0  0  0  0  0  0
  -25.4830  -13.9940   20.6240 C   0  0  0  0  0  0  0  0  0  0  0  0
  -24.3970  -13.2180   20.9250 C   0  0  0  0  0  0  0  0  0  0  0  0
  -24.8680  -11.8700   20.9500 C   0  0  0  0  0  0  0  0  0  0  0  0
  -26.5480  -13.1150   20.4820 N   0  0  0  0  0  0  0  0  0  0  0  0
  -26.1770  -11.8350   20.7360 N   0  0  0  0  0  0  0  0  0  0  0  0
  -24.1350  -10.6070   21.1070 C   0  0  0  0  0  0  0  0  0  0  0  0
  -24.5070   -9.6560   22.0820 C   0  0  0  0  0  3  0  0  0  0  0  0
  -23.7790   -8.4550   22.2260 C   0  0  0  0  0  3  0  0  0  0  0  0
  -22.6650   -8.1980   21.3940 C   0  0  0  0  0  0  0  0  0  0  0  0
  -22.3110   -9.1380   20.4080 C   0  0  0  0  0  3  0  0  0  0  0  0
  -23.0390  -10.3290   20.2640 C   0  0  0  0  0  3  0  0  0  0  0  0
  -21.9110   -7.0510   21.4440 O   0  0  0  0  0  0  0  0  0  0  0  0
  -21.7850   -6.3250   22.5990 C   0  0  0  0  0  0  0  0  0  0  0  0
  -21.2590   -6.8900   23.7820 C   0  0  0  0  0  3  0  0  0  0  0  0
  -21.0840   -6.0900   24.9270 C   0  0  0  0  0  3  0  0  0  0  0  0
  -21.4190   -4.7220   24.8900 C   0  0  0  0  0  0  0  0  0  0  0  0
  -21.9290   -4.1540   23.7110 C   0  0  0  0  0  3  0  0  0  0  0  0
  -22.1100   -4.9540   22.5690 C   0  0  0  0  0  0  0  0  0  0  0  0
  -22.5870   -4.3970   21.4290 F   0  0  0  0  0  0  0  0  0  0  0  0
  -21.2400   -3.9510   25.9900 F   0  0  0  0  0  0  0  0  0  0  0  0
  -22.9790  -13.6870   21.0860 C   0  0  0  0  0  0  0  0  0  0  0  0
  -22.1960  -13.0030   21.9110 N   0  0  0  0  0  0  0  0  0  0  0  0
  -22.5700  -14.6990   20.5170 O   0  0  0  0  0  0  0  0  0  0  0  0
  -22.5380  -12.1880   22.4000 H   0  0  0  0  0  0  0  0  0  0  0  0
  -21.2390  -13.2930   22.0530 H   0  0  0  0  0  0  0  0  0  0  0  0
  -25.6530  -15.3640   20.4420 N   0  0  0  0  0  0  0  0  0  0  0  0
  -24.8730  -16.0140   20.4660 H   0  0  0  0  0  0  0  0  0  0  0  0
  -26.5290  -15.8020   20.1910 H   0  0  0  0  0  0  0  0  0  0  0  0
  -28.8370  -22.4620   18.5570 C   0  0  0  0  0  1  0  0  0  0  0  0
  -28.5840  -21.9320   19.9210 N   0  0  2  0  0  4  0  0  0  0  0  0
  -27.6060  -21.6860   19.9750 H   0  0  0  0  0  0  0  0  0  0  0  0
  -28.7860  -23.0260   20.9390 C   0  0  0  0  0  2  0  0  0  0  0  0
  -27.9470  -24.3550   20.7650 C   0  0  0  0  0  2  0  0  0  0  0  0
  -28.4710  -25.4270   19.7570 C   0  0  0  0  0  2  0  0  0  0  0  0
  -28.3600  -26.7990   20.1930 O   0  0  0  0  0  0  0  0  0  0  0  0
  -24.5390  -31.9460   23.2650 C   0  0  0  0  0  0  0  0  0  0  0  0
  -27.1640  -27.4950   20.1650 C   0  0  0  0  0  0  0  0  0  0  0  0
  -23.3190  -30.5480   21.6290 C   0  0  0  0  0  3  0  0  0  0  0  0
  -24.7630  -29.0090   20.1900 C   0  0  0  0  0  0  0  0  0  0  0  0
  -25.8410  -30.9090   21.4060 C   0  0  0  0  0  2  0  0  0  0  0  0
  -25.9230  -29.5360   20.7660 C   0  0  0  0  0  0  0  0  0  0  0  0
  -27.1230  -28.7870   20.7480 C   0  0  0  0  0  3  0  0  0  0  0  0
  -25.9790  -26.9820   19.5900 C   0  0  0  0  0  3  0  0  0  0  0  0
  -24.7850  -27.7300   19.6040 C   0  0  0  0  0  3  0  0  0  0  0  0
  -23.5180  -29.8710   20.2460 C   0  0  0  0  0  2  0  0  0  0  0  0
  -24.5860  -31.1480   22.1590 N   0  0  0  0  0  0  0  0  0  0  0  0
  -23.4630  -32.2190   23.8130 O   0  0  0  0  0  0  0  0  0  0  0  0
  -22.6730  -29.5280   22.5920 C   0  0  0  0  0  0  0  0  0  0  0  0
  -21.3490  -29.3410   22.4670 N   0  0  0  0  0  0  0  0  0  0  0  0
  -23.3600  -28.9050   23.4070 O   0  0  0  0  0  0  0  0  0  0  0  0
  -20.8540  -29.8940   21.7810 H   0  0  0  0  0  0  0  0  0  0  0  0
  -17.9810  -28.1370   22.9640 C   0  0  0  0  0  0  0  0  0  0  0  0
  -20.5370  -28.4000   23.2380 C   0  0  0  0  0  3  0  0  0  0  0  0
  -20.6480  -26.9710   22.6600 C   0  0  0  0  0  2  0  0  0  0  0  0
  -19.5470  -26.6450   21.6470 C   0  0  0  0  0  2  0  0  0  0  0  0
  -18.1640  -26.7880   22.2880 C   0  0  0  0  0  2  0  0  0  0  0  0
  -19.0960  -28.9020   23.3940 C   0  0  0  0  0  0  0  0  0  0  0  0
  -18.8730  -30.1670   23.9810 C   0  0  0  0  0  3  0  0  0  0  0  0
  -17.5680  -30.6640   24.1480 C   0  0  0  0  0  3  0  0  0  0  0  0
  -16.4660  -29.8940   23.7360 C   0  0  0  0  0  3  0  0  0  0  0  0
  -16.6730  -28.6340   23.1470 C   0  0  0  0  0  3  0  0  0  0  0  0
  -25.8320  -32.5720   23.8780 C   0  0  0  0  0  3  0  0  0  0  0  0
  -25.5390  -33.9760   24.1900 N   0  0  0  0  0  0  0  0  0  0  0  0
  -25.8880  -35.0160   23.4210 C   0  0  0  0  0  0  0  0  0  0  0  0
  -26.5640  -34.8940   22.3960 O   0  0  0  0  0  0  0  0  0  0  0  0
  -24.9460  -34.1490   24.9890 H   0  0  0  0  0  0  0  0  0  0  0  0
  -24.1910  -36.8290   23.0280 C   0  0  0  0  0  1  0  0  0  0  0  0
  -25.4130  -36.4120   23.8620 C   0  0  0  0  0  3  0  0  0  0  0  0
  -27.5440  -37.2750   24.7250 C   0  0  0  0  0  1  0  0  0  0  0  0
  -26.4620  -37.4510   23.7600 N   0  0  0  0  0  0  0  0  0  0  0  0
  -26.0640  -38.3770   23.8970 H   0  0  0  0  0  0  0  0  0  0  0  0
  -26.3440  -31.8110   25.1620 C   0  0  1  0  0  0  0  0  0  0  0  0
  -25.2480  -31.5960   26.2310 C   0  0  0  0  0  1  0  0  0  0  0  0
  -26.9130  -30.4250   24.7790 C   0  0  0  0  0  1  0  0  0  0  0  0
  -27.5000  -32.6010   25.8190 C   0  0  0  0  0  1  0  0  0  0  0  0
  2  6  1  0
  3  4  1  0
  3  2  1  0
  4  5  1  0
  5  1  1  0
  6  5  1  0
  6  8  1  0
  7  2  2  0
  8 12  1  0
  9 11  1  0
 11  8  1  0
 11 10  1  0
 13 12  1  0
 14 19  1  0
 15 16  1  0
 15 14  1  0
 17 16  1  0
 17 24  1  0
 17 18  1  0
 19 13  1  0
 19 18  1  0
 20 13  2  0
 21 22  2  0
 22 23  1  0
 22 41  1  0
 23 26  1  0
 24 21  1  0
 24 25  1  0
 25 23  2  0
 26 27  1  0
 27 28  2  0
 29 32  1  0
 29 28  1  0
 30 29  2  0
 31 30  1  0
 31 26  2  0
 32 33  1  0
 33 34  1  0
 34 35  2  0
 36 35  1  0
 36 40  1  0
 37 36  2  0
 38 33  2  0
 38 37  1  0
 39 38  1  0
 41 42  1  0
 42 45  1  0
 42 44  1  0
 43 41  2  0
 46 47  1  0
 46 21  1  0
 48 46  1  0
 49 50  1  0
 50 51  1  6
 50  1  1  0
 50 52  1  0
 53 52  1  0
 54 55  1  0
 54 53  1  0
 56 67  2  0
 57 55  1  0
 57 62  1  0
 58 66  1  0
 58 68  1  0
 59 65  1  0
 59 61  1  0
 60 66  1  0
 61 60  1  0
 62 61  2  0
 63 64  1  0
 63 57  2  0
 64 59  2  0
 65 58  1  0
 66 56  1  0
 68 70  2  0
 69 68  1  0
 71 69  1  0
 72 81  2  0
 72 77  1  0
 73 69  1  0
 73 77  1  0
 74 73  1  0
 75 76  1  0
 75 74  1  0
 76 72  1  0
 77 78  2  0
 78 79  1  0
 80 79  2  0
 81 80  1  0
 82 56  1  0
 82 83  1  0
 82 92  1  0
 83 86  1  0
 84 88  1  0
 84 83  1  0
 85 84  2  0
 88 87  1  0
 90 88  1  0
 90 91  1  0
 90 89  1  0
 92 95  1  1
 92 93  1  0
 94 92  1  0
M  ISO  4  12 100  13 100  54 101  55 101
M  END
>  <TORSDO>  (86) 
F 24

>  <SCORE>  (86) 
-12.595

>  <name>  (86) 
86

>  <ligand_id>  (86) 
86

>  <original_smiles>  (86) 
[H]c1c([H])c([H])c2c(c1[H])C([H])([H])C([H])([H])C([H])([H])C2([H])N([H])C(=O)C1([H])N(C(=O)C([H])(N([H])C(=O)C([H])(N([H])C([H])([H])[H])C([H])([H])[H])C(C([H])([H])[H])(C([H])([H])[H])C([H])([H])[H])C([H])([H])c2c([H])c(OC([H])([H])C([H])([H])C([H])([H])[N+]([H])(C([H])([H])[H])C([H])([H])C3([H])N(C([H])(C([H])([H])C(=O)N4C([H])([H])C([H])([H])C([H])([H])C([H])(n5nc(-c6c([H])c([H])c(Oc7c([H])c([H])c(F)c([H])c7F)c([H])c6[H])c(C(=O)N([H])[H])c5N([H])[H])C4([H])[H])C([H])(C([H])([H])[H])C([H])([H])[H])C(=O)C([H])([H])C3([H])[H])c([H])c([H])c2C1([H])[H]

>  <smiles>  (86) 
[H]c1c([H])c([H])c2c(c1[H])C([H])([H])C([H])([H])C([H])([H])C2([H])N([H])C(=O)C1([H])N(C(=O)C([H])(N([H])C(=O)C([H])(N([H])C([H])([H])[H])C([H])([H])[H])C(C([H])([H])[H])(C([H])([H])[H])C([H])([H])[H])C([H])([H])c2c([H])c(OC([H])([H])C([H])([H])C([H])([H])[N+]([H])(C([H])([H])[H])C([H])([H])C3([H])N(C([H])(C([H])([H])C(=O)N4C([H])([H])C([H])([H])C([H])([H])C([H])(n5nc(-c6c([H])c([H])c(Oc7c([H])c([H])c(F)c([H])c7F)c([H])c6[H])c(C(=O)N([H])[H])c5N([H])[H])C4([H])[H])C([H])(C([H])([H])[H])C([H])([H])[H])C(=O)C([H])([H])C3([H])[H])c([H])c([H])c2C1([H])[H]

$$$$
87:0:0
     RDKit          3D

 88 96  0  0  1  0  0  0  0  0999 V2000
  -30.3510  -18.3620   20.7120 C   0  0  0  0  0  2  0  0  0  0  0  0
  -29.7340  -19.8930   21.1860 C   0  0  0  0  0  2  0  0  0  0  0  0
  -28.2710  -17.4340   19.8400 C   0  0  0  0  0  2  0  0  0  0  0  0
  -28.2930  -18.8250   18.9760 C   0  0  0  0  0  2  0  0  0  0  0  0
  -29.5620  -16.8840   20.6240 C   0  0  0  0  0  3  0  0  0  0  0  0
  -28.6680  -21.0200   20.4950 C   0  0  0  0  0  3  0  0  0  0  0  0
  -27.2840  -21.0500   18.4120 C   0  0  0  0  0  1  0  0  0  0  0  0
  -27.8160  -20.2040   19.5120 N   0  0  1  0  0  4  0  0  0  0  0  0
  -26.9830  -19.9910   20.0430 H   0  0  0  0  0  0  0  0  0  0  0  0
  -30.3160  -15.3200   20.2910 C   0  0  0  0  0  0  0  0  0  0  0  0
  -30.3160  -12.8740   19.4080 C   0  0  0  0  0  2  0  0  0  0  0  0
  -29.3930  -12.7210   18.1660 C   0  0  0  0  0  2  0  0  0  0  0  0
  -27.9410  -12.4530   18.6060 C   0  0  0  0  0  2  0  0  0  0  0  0
  -27.5040  -13.3910   19.7610 C   0  0  0  0  0  3  0  0  0  0  0  0
  -28.5520  -13.4990   20.8860 C   0  0  0  0  0  2  0  0  0  0  0  0
  -29.7870  -13.9980   20.2720 N   0  0  0  0  0  0  0  0  0  0  0  0
  -31.5170  -15.3250   19.9770 O   0  0  0  0  0  0  0  0  0  0  0  0
  -25.1390  -13.9390   20.5400 C   0  0  0  0  0  0  0  0  0  0  0  0
  -24.0830  -13.1560   20.9100 C   0  0  0  0  0  0  0  0  0  0  0  0
  -24.5510  -11.8060   20.8600 C   0  0  0  0  0  0  0  0  0  0  0  0
  -26.1790  -13.0680   20.2750 N   0  0  0  0  0  0  0  0  0  0  0  0
  -25.8400  -11.7780   20.5390 N   0  0  0  0  0  0  0  0  0  0  0  0
  -23.8260  -10.5420   21.0460 C   0  0  0  0  0  0  0  0  0  0  0  0
  -24.2590   -9.5710   21.9750 C   0  0  0  0  0  3  0  0  0  0  0  0
  -23.5340   -8.3730   22.1510 C   0  0  0  0  0  3  0  0  0  0  0  0
  -22.3600   -8.1380   21.3970 C   0  0  0  0  0  0  0  0  0  0  0  0
  -21.9430   -9.0990   20.4620 C   0  0  0  0  0  3  0  0  0  0  0  0
  -22.6690  -10.2880   20.2820 C   0  0  0  0  0  3  0  0  0  0  0  0
  -21.6080   -6.9900   21.4810 O   0  0  0  0  0  0  0  0  0  0  0  0
  -21.5590   -6.2450   22.6320 C   0  0  0  0  0  0  0  0  0  0  0  0
  -21.1180   -6.7950   23.8560 C   0  0  0  0  0  3  0  0  0  0  0  0
  -21.0090   -5.9760   24.9970 C   0  0  0  0  0  3  0  0  0  0  0  0
  -21.3350   -4.6090   24.9190 C   0  0  0  0  0  0  0  0  0  0  0  0
  -21.7710   -4.0600   23.7000 C   0  0  0  0  0  3  0  0  0  0  0  0
  -21.8780   -4.8750   22.5600 C   0  0  0  0  0  0  0  0  0  0  0  0
  -22.2760   -4.3340   21.3850 F   0  0  0  0  0  0  0  0  0  0  0  0
  -21.2240   -3.8230   26.0160 F   0  0  0  0  0  0  0  0  0  0  0  0
  -22.6870  -13.6290   21.1860 C   0  0  0  0  0  0  0  0  0  0  0  0
  -21.9620  -12.9350   22.0550 N   0  0  0  0  0  0  0  0  0  0  0  0
  -22.2460  -14.6520   20.6610 O   0  0  0  0  0  0  0  0  0  0  0  0
  -22.3330  -12.1100   22.5040 H   0  0  0  0  0  0  0  0  0  0  0  0
  -21.0260  -13.2410   22.2800 H   0  0  0  0  0  0  0  0  0  0  0  0
  -25.2900  -15.3160   20.3770 N   0  0  0  0  0  0  0  0  0  0  0  0
  -24.5170  -15.9510   20.5320 H   0  0  0  0  0  0  0  0  0  0  0  0
  -26.1140  -15.7730   20.0110 H   0  0  0  0  0  0  0  0  0  0  0  0
  -28.9100  -22.8090   20.2980 C   0  0  0  0  0  3  0  0  0  0  0  0
  -27.9020  -24.2950   20.4140 C   0  0  0  0  0  3  0  0  0  0  0  0
  -28.1780  -25.9200   20.3590 O   0  0  0  0  0  0  0  0  0  0  0  0
  -24.6320  -31.9280   23.2610 C   0  0  0  0  0  0  0  0  0  0  0  0
  -27.1670  -27.0130   20.3060 C   0  0  0  0  0  0  0  0  0  0  0  0
  -23.4320  -30.5210   21.6340 C   0  0  0  0  0  3  0  0  0  0  0  0
  -24.8770  -28.8960   20.2360 C   0  0  0  0  0  0  0  0  0  0  0  0
  -25.9990  -30.7190   21.4950 C   0  0  0  0  0  2  0  0  0  0  0  0
  -26.0650  -29.3020   20.8580 C   0  0  0  0  0  0  0  0  0  0  0  0
  -27.2040  -28.3810   20.8680 C   0  0  0  0  0  3  0  0  0  0  0  0
  -25.9500  -26.7570   19.6320 C   0  0  0  0  0  3  0  0  0  0  0  0
  -24.8460  -27.6420   19.6080 C   0  0  0  0  0  3  0  0  0  0  0  0
  -23.6630  -29.8200   20.2690 C   0  0  0  0  0  2  0  0  0  0  0  0
  -24.7080  -31.0830   22.1850 N   0  0  0  0  0  0  0  0  0  0  0  0
  -23.5410  -32.2310   23.7770 O   0  0  0  0  0  0  0  0  0  0  0  0
  -22.7320  -29.5410   22.6090 C   0  0  0  0  0  0  0  0  0  0  0  0
  -21.4030  -29.3770   22.4780 N   0  0  0  0  0  0  0  0  0  0  0  0
  -23.3920  -28.9280   23.4530 O   0  0  0  0  0  0  0  0  0  0  0  0
  -20.9220  -29.9350   21.7870 H   0  0  0  0  0  0  0  0  0  0  0  0
  -18.0200  -28.1680   22.9790 C   0  0  0  0  0  0  0  0  0  0  0  0
  -20.5770  -28.4430   23.2520 C   0  0  0  0  0  3  0  0  0  0  0  0
  -20.6890  -27.0080   22.6850 C   0  0  0  0  0  2  0  0  0  0  0  0
  -19.5840  -26.6610   21.6830 C   0  0  0  0  0  2  0  0  0  0  0  0
  -18.2050  -26.8110   22.3260 C   0  0  0  0  0  2  0  0  0  0  0  0
  -19.1340  -28.9410   23.4020 C   0  0  0  0  0  0  0  0  0  0  0  0
  -18.9060  -30.2070   23.9830 C   0  0  0  0  0  3  0  0  0  0  0  0
  -17.6000  -30.7040   24.1400 C   0  0  0  0  0  3  0  0  0  0  0  0
  -16.5020  -29.9310   23.7290 C   0  0  0  0  0  3  0  0  0  0  0  0
  -16.7120  -28.6620   23.1550 C   0  0  0  0  0  3  0  0  0  0  0  0
  -25.9070  -32.5690   23.8880 C   0  0  0  0  0  3  0  0  0  0  0  0
  -25.5930  -33.9730   24.2110 N   0  0  0  0  0  0  0  0  0  0  0  0
  -25.9170  -35.0270   23.4490 C   0  0  0  0  0  0  0  0  0  0  0  0
  -26.5720  -34.9220   22.4110 O   0  0  0  0  0  0  0  0  0  0  0  0
  -25.0090  -34.1270   25.0180 H   0  0  0  0  0  0  0  0  0  0  0  0
  -24.1800  -36.8210   23.1240 C   0  0  0  0  0  1  0  0  0  0  0  0
  -25.4380  -36.4200   23.9110 C   0  0  0  0  0  3  0  0  0  0  0  0
  -27.5850  -37.3140   24.6990 C   0  0  0  0  0  1  0  0  0  0  0  0
  -26.4660  -37.4740   23.7710 N   0  0  0  0  0  0  0  0  0  0  0  0
  -26.0630  -38.3940   23.9180 H   0  0  0  0  0  0  0  0  0  0  0  0
  -26.4050  -31.8160   25.1830 C   0  0  1  0  0  0  0  0  0  0  0  0
  -25.2990  -31.6000   26.2430 C   0  0  0  0  0  1  0  0  0  0  0  0
  -26.9850  -30.4290   24.8250 C   0  0  0  0  0  1  0  0  0  0  0  0
  -27.5530  -32.6130   25.8440 C   0  0  0  0  0  1  0  0  0  0  0  0
  1  2  1  0
  3  5  1  0
  4  8  1  0
  4  3  1  0
  5 10  1  0
  5  1  1  0
  6 46  1  0
  6  2  1  0
  7  8  1  0
  8  9  1  1
  8  6  1  0
 11 16  1  0
 12 13  1  0
 12 11  1  0
 14 13  1  0
 14 21  1  0
 14 15  1  0
 16 10  1  0
 16 15  1  0
 17 10  2  0
 18 19  2  0
 19 38  1  0
 20 19  1  0
 20 23  1  0
 21 22  1  0
 21 18  1  0
 22 20  2  0
 23 24  1  0
 24 25  2  0
 26 29  1  0
 26 25  1  0
 27 26  2  0
 28 27  1  0
 28 23  2  0
 29 30  1  0
 30 31  1  0
 31 32  2  0
 33 32  1  0
 33 37  1  0
 34 33  2  0
 35 30  2  0
 35 34  1  0
 36 35  1  0
 38 39  1  0
 39 42  1  0
 39 41  1  0
 40 38  2  0
 43 44  1  0
 43 18  1  0
 45 43  1  0
 46 47  2  0
 48 47  1  0
 49 60  2  0
 50 48  1  0
 50 55  1  0
 51 59  1  0
 51 61  1  0
 52 58  1  0
 52 54  1  0
 53 59  1  0
 54 55  2  0
 54 53  1  0
 56 50  2  0
 57 56  1  0
 57 52  2  0
 58 51  1  0
 59 49  1  0
 61 63  2  0
 62 61  1  0
 64 62  1  0
 65 74  2  0
 65 70  1  0
 66 62  1  0
 66 70  1  0
 67 66  1  0
 68 69  1  0
 68 67  1  0
 69 65  1  0
 70 71  2  0
 71 72  1  0
 73 72  2  0
 74 73  1  0
 75 49  1  0
 75 76  1  0
 75 85  1  0
 76 79  1  0
 77 81  1  0
 77 76  1  0
 78 77  2  0
 81 80  1  0
 83 81  1  0
 83 84  1  0
 83 82  1  0
 85 88  1  1
 85 86  1  0
 87 85  1  0
M  ISO  4   5 100  10 100  47 101  48 101
M  END
>  <TORSDO>  (87) 
F 18

>  <SCORE>  (87) 
-16.339

>  <name>  (87) 
87

>  <ligand_id>  (87) 
87

>  <original_smiles>  (87) 
[H]c1c([H])c([H])c2c(c1[H])C([H])([H])C([H])([H])C([H])([H])C2([H])N([H])C(=O)C1([H])N(C(=O)C([H])(N([H])C(=O)C([H])(N([H])C([H])([H])[H])C([H])([H])[H])C(C([H])([H])[H])(C([H])([H])[H])C([H])([H])[H])C([H])([H])c2c([H])c(OC([H])([H])C([H])([H])C3([H])C([H])([H])C([H])([H])C([H])(C(=O)N4C([H])([H])C([H])([H])C([H])([H])C([H])(n5nc(-c6c([H])c([H])c(Oc7c([H])c([H])c(F)c([H])c7F)c([H])c6[H])c(C(=O)N([H])[H])c5N([H])[H])C4([H])[H])C([H])([H])C([H])([H])[N+]3([H])C([H])([H])[H])c([H])c([H])c2C1([H])[H]

>  <smiles>  (87) 
[H]c1c([H])c([H])c2c(c1[H])C([H])([H])C([H])([H])C([H])([H])C2([H])N([H])C(=O)C1([H])N(C(=O)C([H])(N([H])C(=O)C([H])(N([H])C([H])([H])[H])C([H])([H])[H])C(C([H])([H])[H])(C([H])([H])[H])C([H])([H])[H])C([H])([H])c2c([H])c(OC([H])([H])C([H])([H])C3([H])C([H])([H])C([H])([H])C([H])(C(=O)N4C([H])([H])C([H])([H])C([H])([H])C([H])(n5nc(-c6c([H])c([H])c(Oc7c([H])c([H])c(F)c([H])c7F)c([H])c6[H])c(C(=O)N([H])[H])c5N([H])[H])C4([H])[H])C([H])([H])C([H])([H])[N+]3([H])C([H])([H])[H])c([H])c([H])c2C1([H])[H]

$$$$
88:0:0
     RDKit          3D

 90 98  0  0  1  0  0  0  0  0999 V2000
  -28.5950  -21.1710   20.5760 N   0  0  0  0  0  4  0  0  0  0  0  0
  -29.2370  -21.2650   21.3460 H   0  0  0  0  0  0  0  0  0  0  0  0
  -27.6720  -21.2180   20.9760 H   0  0  0  0  0  0  0  0  0  0  0  0
  -29.7690  -18.2180   18.1810 C   0  0  0  0  0  2  0  0  0  0  0  0
  -30.5590  -16.9780   18.6870 C   0  0  0  0  0  2  0  0  0  0  0  0
  -28.8810  -16.9700   20.6670 C   0  0  0  0  0  2  0  0  0  0  0  0
  -29.8910  -19.5440   18.9840 C   0  0  0  0  0  2  0  0  0  0  0  0
  -28.8620  -18.5430   21.0730 C   0  0  0  0  0  2  0  0  0  0  0  0
  -30.2210  -16.3570   20.0780 C   0  0  0  0  0  3  0  0  0  0  0  0
  -28.7400  -19.7340   20.0020 C   0  0  0  0  0  3  0  0  0  0  0  0
  -30.7390  -14.8160   20.1140 C   0  0  0  0  0  0  0  0  0  0  0  0
  -30.4260  -12.5380   19.1710 C   0  0  0  0  0  2  0  0  0  0  0  0
  -29.4810  -12.6040   17.9550 C   0  0  0  0  0  2  0  0  0  0  0  0
  -28.0240  -12.4300   18.4150 C   0  0  0  0  0  2  0  0  0  0  0  0
  -27.6660  -13.3360   19.6250 C   0  0  0  0  0  3  0  0  0  0  0  0
  -28.7480  -13.3220   20.7230 C   0  0  0  0  0  2  0  0  0  0  0  0
  -30.0320  -13.6330   20.0930 N   0  0  0  0  0  0  0  0  0  0  0  0
  -31.9460  -14.7410   19.8700 O   0  0  0  0  0  0  0  0  0  0  0  0
  -25.3080  -13.8920   20.4510 C   0  0  0  0  0  0  0  0  0  0  0  0
  -24.2610  -13.1050   20.8420 C   0  0  0  0  0  0  0  0  0  0  0  0
  -24.7310  -11.7580   20.7810 C   0  0  0  0  0  0  0  0  0  0  0  0
  -26.3460  -13.0240   20.1640 N   0  0  0  0  0  0  0  0  0  0  0  0
  -26.0120  -11.7340   20.4310 N   0  0  0  0  0  0  0  0  0  0  0  0
  -24.0160  -10.4880   20.9740 C   0  0  0  0  0  0  0  0  0  0  0  0
  -24.4550   -9.5280   21.9120 C   0  0  0  0  0  3  0  0  0  0  0  0
  -23.7370   -8.3260   22.0930 C   0  0  0  0  0  3  0  0  0  0  0  0
  -22.5680   -8.0750   21.3370 C   0  0  0  0  0  0  0  0  0  0  0  0
  -22.1500   -9.0230   20.3860 C   0  0  0  0  0  3  0  0  0  0  0  0
  -22.8690  -10.2170   20.2030 C   0  0  0  0  0  3  0  0  0  0  0  0
  -21.8240   -6.9230   21.4270 O   0  0  0  0  0  0  0  0  0  0  0  0
  -21.7430   -6.2070   22.5940 C   0  0  0  0  0  0  0  0  0  0  0  0
  -21.2580   -6.7820   23.7900 C   0  0  0  0  0  3  0  0  0  0  0  0
  -21.1270   -5.9910   24.9490 C   0  0  0  0  0  3  0  0  0  0  0  0
  -21.4700   -4.6260   24.9120 C   0  0  0  0  0  0  0  0  0  0  0  0
  -21.9470   -4.0510   23.7210 C   0  0  0  0  0  3  0  0  0  0  0  0
  -22.0790   -4.8390   22.5650 C   0  0  0  0  0  0  0  0  0  0  0  0
  -22.5190   -4.2750   21.4150 F   0  0  0  0  0  0  0  0  0  0  0  0
  -21.3380   -3.8630   26.0230 F   0  0  0  0  0  0  0  0  0  0  0  0
  -22.8690  -13.5710   21.1570 C   0  0  0  0  0  0  0  0  0  0  0  0
  -22.1680  -12.8620   22.0330 N   0  0  0  0  0  0  0  0  0  0  0  0
  -22.4120  -14.5990   20.6570 O   0  0  0  0  0  0  0  0  0  0  0  0
  -22.5500  -12.0310   22.4610 H   0  0  0  0  0  0  0  0  0  0  0  0
  -21.2350  -13.1570   22.2830 H   0  0  0  0  0  0  0  0  0  0  0  0
  -25.4580  -15.2660   20.2880 N   0  0  0  0  0  0  0  0  0  0  0  0
  -24.6910  -15.9130   20.4360 H   0  0  0  0  0  0  0  0  0  0  0  0
  -26.2960  -15.7150   19.9450 H   0  0  0  0  0  0  0  0  0  0  0  0
  -28.7780  -22.4240   19.6980 C   0  0  0  0  0  2  0  0  0  0  0  0
  -27.9110  -23.7960   19.8930 C   0  0  0  0  0  2  0  0  0  0  0  0
  -28.4250  -25.1040   20.6850 C   0  0  0  0  0  2  0  0  0  0  0  0
  -28.3800  -26.5140   20.1730 O   0  0  0  0  0  0  0  0  0  0  0  0
  -24.6150  -31.9340   23.2260 C   0  0  0  0  0  0  0  0  0  0  0  0
  -27.2370  -27.3280   20.2260 C   0  0  0  0  0  0  0  0  0  0  0  0
  -23.4200  -30.5200   21.5930 C   0  0  0  0  0  3  0  0  0  0  0  0
  -24.8750  -28.9490   20.1890 C   0  0  0  0  0  0  0  0  0  0  0  0
  -25.9600  -30.8370   21.4110 C   0  0  0  0  0  2  0  0  0  0  0  0
  -26.0430  -29.4480   20.7810 C   0  0  0  0  0  0  0  0  0  0  0  0
  -27.2300  -28.6510   20.7780 C   0  0  0  0  0  3  0  0  0  0  0  0
  -26.0460  -26.8780   19.6250 C   0  0  0  0  0  3  0  0  0  0  0  0
  -24.8810  -27.6720   19.6010 C   0  0  0  0  0  3  0  0  0  0  0  0
  -23.6390  -29.8280   20.2210 C   0  0  0  0  0  2  0  0  0  0  0  0
  -24.6850  -31.1170   22.1340 N   0  0  0  0  0  0  0  0  0  0  0  0
  -23.5300  -32.2130   23.7560 O   0  0  0  0  0  0  0  0  0  0  0  0
  -22.7560  -29.5120   22.5610 C   0  0  0  0  0  0  0  0  0  0  0  0
  -21.4290  -29.3410   22.4390 N   0  0  0  0  0  0  0  0  0  0  0  0
  -23.4340  -28.8850   23.3780 O   0  0  0  0  0  0  0  0  0  0  0  0
  -20.9380  -29.8990   21.7550 H   0  0  0  0  0  0  0  0  0  0  0  0
  -18.0460  -28.1700   22.9600 C   0  0  0  0  0  0  0  0  0  0  0  0
  -20.6090  -28.4060   23.2140 C   0  0  0  0  0  3  0  0  0  0  0  0
  -20.6950  -26.9760   22.6330 C   0  0  0  0  0  2  0  0  0  0  0  0
  -19.5830  -26.6690   21.6240 C   0  0  0  0  0  2  0  0  0  0  0  0
  -18.2060  -26.8210   22.2770 C   0  0  0  0  0  2  0  0  0  0  0  0
  -19.1740  -28.9210   23.3850 C   0  0  0  0  0  0  0  0  0  0  0  0
  -18.9690  -30.1850   23.9820 C   0  0  0  0  0  3  0  0  0  0  0  0
  -17.6700  -30.6940   24.1580 C   0  0  0  0  0  3  0  0  0  0  0  0
  -16.5560  -29.9390   23.7500 C   0  0  0  0  0  3  0  0  0  0  0  0
  -16.7450  -28.6790   23.1560 C   0  0  0  0  0  3  0  0  0  0  0  0
  -25.8940  -32.5750   23.8520 C   0  0  0  0  0  3  0  0  0  0  0  0
  -26.4060  -31.8110   25.1350 C   0  0  1  0  0  0  0  0  0  0  0  0
  -25.3100  -31.5750   26.1980 C   0  0  0  0  0  1  0  0  0  0  0  0
  -26.9940  -30.4340   24.7510 C   0  0  0  0  0  1  0  0  0  0  0  0
  -27.5530  -32.6110   25.7960 C   0  0  0  0  0  1  0  0  0  0  0  0
  -25.5780  -33.9740   24.1760 N   0  0  0  0  0  0  0  0  0  0  0  0
  -25.9110  -35.0250   23.4160 C   0  0  0  0  0  0  0  0  0  0  0  0
  -26.5820  -34.9200   22.3870 O   0  0  0  0  0  0  0  0  0  0  0  0
  -24.9810  -34.1290   24.9750 H   0  0  0  0  0  0  0  0  0  0  0  0
  -24.1820  -36.8170   23.0480 C   0  0  0  0  0  1  0  0  0  0  0  0
  -25.4190  -36.4140   23.8680 C   0  0  0  0  0  3  0  0  0  0  0  0
  -27.5480  -37.3030   24.7120 C   0  0  0  0  0  1  0  0  0  0  0  0
  -26.4510  -37.4690   23.7610 N   0  0  0  0  0  0  0  0  0  0  0  0
  -26.0440  -38.3890   23.9040 H   0  0  0  0  0  0  0  0  0  0  0  0
  1  3  1  0
  1  2  1  0
  4  5  1  0
  4  7  1  0
  5  9  1  0
  6  8  1  0
  7 10  1  0
  9 11  1  0
  9  6  1  0
 10  1  1  0
 10  8  1  0
 12 17  1  0
 13 14  1  0
 13 12  1  0
 15 14  1  0
 15 22  1  0
 15 16  1  0
 17 11  1  0
 17 16  1  0
 18 11  2  0
 19 20  2  0
 20 39  1  0
 21 20  1  0
 21 24  1  0
 22 23  1  0
 22 19  1  0
 23 21  2  0
 24 25  1  0
 25 26  2  0
 27 30  1  0
 27 26  1  0
 28 27  2  0
 29 28  1  0
 29 24  2  0
 30 31  1  0
 31 32  1  0
 32 33  2  0
 34 33  1  0
 34 38  1  0
 35 34  2  0
 36 31  2  0
 36 35  1  0
 37 36  1  0
 39 40  1  0
 40 43  1  0
 40 42  1  0
 41 39  2  0
 44 45  1  0
 44 19  1  0
 46 44  1  0
 47 48  1  0
 47  1  1  0
 48 49  1  0
 50 52  1  0
 50 49  1  0
 51 62  2  0
 52 57  1  0
 53 61  1  0
 53 63  1  0
 54 60  1  0
 54 56  1  0
 55 61  1  0
 56 55  1  0
 57 56  2  0
 58 52  2  0
 59 58  1  0
 59 54  2  0
 60 53  1  0
 61 51  1  0
 63 65  2  0
 64 63  1  0
 66 64  1  0
 67 76  2  0
 67 72  1  0
 68 64  1  0
 68 72  1  0
 69 68  1  0
 70 71  1  0
 70 69  1  0
 71 67  1  0
 72 73  2  0
 73 74  1  0
 75 74  2  0
 76 75  1  0
 77 51  1  0
 77 82  1  0
 77 78  1  0
 78 81  1  1
 78 79  1  0
 80 78  1  0
 82 85  1  0
 83 87  1  0
 83 82  1  0
 84 83  2  0
 87 86  1  0
 89 87  1  0
 89 90  1  0
 89 88  1  0
M  ISO  4   9 100  11 100  49 101  50 101
M  END
>  <TORSDO>  (88) 
F 20

>  <SCORE>  (88) 
-13.497

>  <name>  (88) 
88

>  <ligand_id>  (88) 
88

>  <original_smiles>  (88) 
[H]c1c([H])c([H])c2c(c1[H])C([H])([H])C([H])([H])C([H])([H])C2([H])N([H])C(=O)C1([H])N(C(=O)C([H])(N([H])C(=O)C([H])(N([H])C([H])([H])[H])C([H])([H])[H])C(C([H])([H])[H])(C([H])([H])[H])C([H])([H])[H])C([H])([H])c2c([H])c(OC([H])([H])C([H])([H])C([H])([H])[N+]([H])([H])C3([H])C([H])([H])C([H])([H])C([H])([H])C([H])(C(=O)N4C([H])([H])C([H])([H])C([H])([H])C([H])(n5nc(-c6c([H])c([H])c(Oc7c([H])c([H])c(F)c([H])c7F)c([H])c6[H])c(C(=O)N([H])[H])c5N([H])[H])C4([H])[H])C([H])([H])C3([H])[H])c([H])c([H])c2C1([H])[H]

>  <smiles>  (88) 
[H]c1c([H])c([H])c2c(c1[H])C([H])([H])C([H])([H])C([H])([H])C2([H])N([H])C(=O)C1([H])N(C(=O)C([H])(N([H])C(=O)C([H])(N([H])C([H])([H])[H])C([H])([H])[H])C(C([H])([H])[H])(C([H])([H])[H])C([H])([H])[H])C([H])([H])c2c([H])c(OC([H])([H])C([H])([H])C([H])([H])[N+]([H])([H])C3([H])C([H])([H])C([H])([H])C([H])([H])C([H])(C(=O)N4C([H])([H])C([H])([H])C([H])([H])C([H])(n5nc(-c6c([H])c([H])c(Oc7c([H])c([H])c(F)c([H])c7F)c([H])c6[H])c(C(=O)N([H])[H])c5N([H])[H])C4([H])[H])C([H])([H])C3([H])[H])c([H])c([H])c2C1([H])[H]

$$$$
89:0:0
     RDKit          3D

 90 97  0  0  1  0  0  0  0  0999 V2000
  -29.1990  -20.6560   20.3700 N   0  0  1  0  0  4  0  0  0  0  0  0
  -28.2680  -20.4960   20.0130 H   0  0  0  0  0  0  0  0  0  0  0  0
  -29.0650  -20.6470   21.8680 C   0  0  0  0  0  2  0  0  0  0  0  0
  -30.5690  -22.5000   22.9460 C   0  0  0  0  0  1  0  0  0  0  0  0
  -29.1460  -21.9810   22.6550 C   0  0  0  0  0  2  0  0  0  0  0  0
  -29.5820  -22.0840   19.7690 C   0  0  0  0  0  2  0  0  0  0  0  0
  -28.5820  -23.4390   19.5520 C   0  0  0  0  0  2  0  0  0  0  0  0
  -28.5960  -24.9480   20.3030 C   0  0  0  0  0  2  0  0  0  0  0  0
  -28.4840  -26.3630   19.6810 O   0  0  0  0  0  0  0  0  0  0  0  0
  -24.7190  -31.6920   23.1080 C   0  0  0  0  0  0  0  0  0  0  0  0
  -27.3570  -27.2460   19.7940 C   0  0  0  0  0  0  0  0  0  0  0  0
  -23.5110  -30.3570   21.4220 C   0  0  0  0  0  3  0  0  0  0  0  0
  -24.9660  -28.8940   19.8880 C   0  0  0  0  0  0  0  0  0  0  0  0
  -26.0450  -30.7170   21.2020 C   0  0  0  0  0  2  0  0  0  0  0  0
  -26.1440  -29.3580   20.4870 C   0  0  0  0  0  0  0  0  0  0  0  0
  -27.3380  -28.5530   20.4200 C   0  0  0  0  0  3  0  0  0  0  0  0
  -26.1470  -26.8610   19.1800 C   0  0  0  0  0  3  0  0  0  0  0  0
  -24.9770  -27.6570   19.2190 C   0  0  0  0  0  3  0  0  0  0  0  0
  -23.7140  -29.7520   20.0060 C   0  0  0  0  0  2  0  0  0  0  0  0
  -24.7800  -30.9390   21.9690 N   0  0  0  0  0  0  0  0  0  0  0  0
  -23.6410  -31.9180   23.6800 O   0  0  0  0  0  0  0  0  0  0  0  0
  -22.8830  -29.2840   22.3430 C   0  0  0  0  0  0  0  0  0  0  0  0
  -21.5610  -29.0740   22.2190 N   0  0  0  0  0  0  0  0  0  0  0  0
  -23.5850  -28.6430   23.1280 O   0  0  0  0  0  0  0  0  0  0  0  0
  -21.0480  -29.6410   21.5580 H   0  0  0  0  0  0  0  0  0  0  0  0
  -18.2310  -27.7220   22.6650 C   0  0  0  0  0  0  0  0  0  0  0  0
  -20.7780  -28.0750   22.9520 C   0  0  0  0  0  3  0  0  0  0  0  0
  -20.9380  -26.6740   22.3190 C   0  0  0  0  0  2  0  0  0  0  0  0
  -19.8510  -26.3470   21.2900 C   0  0  0  0  0  2  0  0  0  0  0  0
  -18.4650  -26.4100   21.9360 C   0  0  0  0  0  2  0  0  0  0  0  0
  -19.3180  -28.5120   23.1280 C   0  0  0  0  0  0  0  0  0  0  0  0
  -19.0470  -29.7400   23.7700 C   0  0  0  0  0  3  0  0  0  0  0  0
  -17.7220  -30.1790   23.9540 C   0  0  0  0  0  3  0  0  0  0  0  0
  -16.6510  -29.3860   23.5080 C   0  0  0  0  0  3  0  0  0  0  0  0
  -16.9060  -28.1600   22.8690 C   0  0  0  0  0  3  0  0  0  0  0  0
  -26.0000  -32.3170   23.7420 C   0  0  0  0  0  3  0  0  0  0  0  0
  -26.5700  -31.4700   24.9480 C   0  0  1  0  0  0  0  0  0  0  0  0
  -25.5110  -31.1370   26.0250 C   0  0  0  0  0  1  0  0  0  0  0  0
  -27.1670  -30.1350   24.4450 C   0  0  0  0  0  1  0  0  0  0  0  0
  -27.7230  -32.2440   25.6330 C   0  0  0  0  0  1  0  0  0  0  0  0
  -25.6590  -33.6790   24.1820 N   0  0  0  0  0  0  0  0  0  0  0  0
  -25.9460  -34.7960   23.4990 C   0  0  0  0  0  0  0  0  0  0  0  0
  -26.5920  -34.7890   22.4480 O   0  0  0  0  0  0  0  0  0  0  0  0
  -25.0720  -33.7540   24.9990 H   0  0  0  0  0  0  0  0  0  0  0  0
  -24.1550  -36.5580   23.3420 C   0  0  0  0  0  1  0  0  0  0  0  0
  -25.4380  -36.1330   24.0740 C   0  0  0  0  0  3  0  0  0  0  0  0
  -27.5760  -37.0230   24.8930 C   0  0  0  0  0  1  0  0  0  0  0  0
  -26.4350  -37.2230   24.0020 N   0  0  0  0  0  0  0  0  0  0  0  0
  -26.0100  -38.1190   24.2290 H   0  0  0  0  0  0  0  0  0  0  0  0
  -30.0080  -19.3180   19.9870 C   0  0  0  0  0  3  0  0  0  0  0  0
  -31.9620  -19.9710   18.3410 C   0  0  0  0  0  1  0  0  0  0  0  0
  -30.5810  -19.3160   18.5400 C   0  0  0  0  0  2  0  0  0  0  0  0
  -29.3420  -17.7900   20.2250 C   0  0  0  0  0  2  0  0  0  0  0  0
  -30.0440  -16.4540   20.9490 C   0  0  0  0  0  2  0  0  0  0  0  0
  -30.6740  -15.0810   20.2840 C   0  0  0  0  0  0  0  0  0  0  0  0
  -30.5360  -12.7630   19.2810 C   0  0  0  0  0  2  0  0  0  0  0  0
  -29.5920  -12.7780   18.0510 C   0  0  0  0  0  2  0  0  0  0  0  0
  -28.1270  -12.5640   18.4770 C   0  0  0  0  0  2  0  0  0  0  0  0
  -27.7450  -13.4480   19.6960 C   0  0  0  0  0  3  0  0  0  0  0  0
  -28.8020  -13.4030   20.8200 C   0  0  0  0  0  2  0  0  0  0  0  0
  -30.0790  -13.8210   20.2250 N   0  0  0  0  0  0  0  0  0  0  0  0
  -31.8170  -15.1700   19.8200 O   0  0  0  0  0  0  0  0  0  0  0  0
  -25.3630  -14.0140   20.4450 C   0  0  0  0  0  0  0  0  0  0  0  0
  -24.3050  -13.2310   20.8260 C   0  0  0  0  0  0  0  0  0  0  0  0
  -24.7760  -11.8850   20.7920 C   0  0  0  0  0  0  0  0  0  0  0  0
  -26.4080  -13.1410   20.1960 N   0  0  0  0  0  0  0  0  0  0  0  0
  -26.0640  -11.8550   20.4680 N   0  0  0  0  0  0  0  0  0  0  0  0
  -24.0570  -10.6200   20.9910 C   0  0  0  0  0  0  0  0  0  0  0  0
  -24.4890   -9.6640   21.9360 C   0  0  0  0  0  3  0  0  0  0  0  0
  -23.7700   -8.4640   22.1220 C   0  0  0  0  0  3  0  0  0  0  0  0
  -22.6020   -8.2120   21.3610 C   0  0  0  0  0  0  0  0  0  0  0  0
  -22.1920   -9.1540   20.4030 C   0  0  0  0  0  3  0  0  0  0  0  0
  -22.9130  -10.3470   20.2170 C   0  0  0  0  0  3  0  0  0  0  0  0
  -21.8510   -7.0640   21.4540 O   0  0  0  0  0  0  0  0  0  0  0  0
  -21.7930   -6.3350   22.6150 C   0  0  0  0  0  0  0  0  0  0  0  0
  -21.3480   -6.9000   23.8290 C   0  0  0  0  0  3  0  0  0  0  0  0
  -21.2390   -6.0950   24.9810 C   0  0  0  0  0  3  0  0  0  0  0  0
  -21.5620   -4.7270   24.9200 C   0  0  0  0  0  0  0  0  0  0  0  0
  -21.9980   -4.1610   23.7080 C   0  0  0  0  0  3  0  0  0  0  0  0
  -22.1090   -4.9630   22.5570 C   0  0  0  0  0  0  0  0  0  0  0  0
  -22.5120   -4.4040   21.3890 F   0  0  0  0  0  0  0  0  0  0  0  0
  -21.4470   -3.9530   26.0240 F   0  0  0  0  0  0  0  0  0  0  0  0
  -22.9070  -13.7030   21.1000 C   0  0  0  0  0  0  0  0  0  0  0  0
  -22.1900  -13.0100   21.9800 N   0  0  0  0  0  0  0  0  0  0  0  0
  -22.4590  -14.7190   20.5710 O   0  0  0  0  0  0  0  0  0  0  0  0
  -22.5730  -12.1950   22.4360 H   0  0  0  0  0  0  0  0  0  0  0  0
  -21.2470  -13.2970   22.1930 H   0  0  0  0  0  0  0  0  0  0  0  0
  -25.5180  -15.3840   20.2710 N   0  0  0  0  0  0  0  0  0  0  0  0
  -24.7490  -16.0360   20.3940 H   0  0  0  0  0  0  0  0  0  0  0  0
  -26.3630  -15.8300   19.9390 H   0  0  0  0  0  0  0  0  0  0  0  0
  1  3  1  0
  1  2  1  6
  3  5  1  0
  5  4  1  0
  6  1  1  0
  7  6  1  0
  7  8  1  0
  9 11  1  0
  9  8  1  0
 10 21  2  0
 11 16  1  0
 12 20  1  0
 12 22  1  0
 13 19  1  0
 13 15  1  0
 14 20  1  0
 15 14  1  0
 16 15  2  0
 17 18  1  0
 17 11  2  0
 18 13  2  0
 19 12  1  0
 20 10  1  0
 22 24  2  0
 23 22  1  0
 25 23  1  0
 26 35  2  0
 26 31  1  0
 27 23  1  0
 27 31  1  0
 28 27  1  0
 29 30  1  0
 29 28  1  0
 30 26  1  0
 31 32  2  0
 32 33  1  0
 34 33  2  0
 35 34  1  0
 36 10  1  0
 36 41  1  0
 36 37  1  0
 37 40  1  1
 37 38  1  0
 39 37  1  0
 41 44  1  0
 42 46  1  0
 42 41  1  0
 43 42  2  0
 46 45  1  0
 48 46  1  0
 48 49  1  0
 48 47  1  0
 50 52  1  0
 50 53  1  0
 50  1  1  0
 51 52  1  0
 53 54  1  0
 55 54  1  0
 56 61  1  0
 57 58  1  0
 57 56  1  0
 59 58  1  0
 59 66  1  0
 59 60  1  0
 61 55  1  0
 61 60  1  0
 62 55  2  0
 63 64  2  0
 64 83  1  0
 65 64  1  0
 65 68  1  0
 66 63  1  0
 66 67  1  0
 67 65  2  0
 68 69  1  0
 69 70  2  0
 71 74  1  0
 71 70  1  0
 72 71  2  0
 73 72  1  0
 73 68  2  0
 74 75  1  0
 75 76  1  0
 76 77  2  0
 78 77  1  0
 78 82  1  0
 79 78  2  0
 80 75  2  0
 80 79  1  0
 81 80  1  0
 83 84  1  0
 84 87  1  0
 84 86  1  0
 85 83  2  0
 88 89  1  0
 88 63  1  0
 90 88  1  0
M  ISO  4   8 101   9 101  54 100  55 100
M  END
>  <TORSDO>  (89) 
F 25

>  <SCORE>  (89) 
-11.988

>  <name>  (89) 
89

>  <ligand_id>  (89) 
89

>  <original_smiles>  (89) 
[H]c1c([H])c([H])c2c(c1[H])C([H])([H])C([H])([H])C([H])([H])C2([H])N([H])C(=O)C1([H])N(C(=O)C([H])(N([H])C(=O)C([H])(N([H])C([H])([H])[H])C([H])([H])[H])C(C([H])([H])[H])(C([H])([H])[H])C([H])([H])[H])C([H])([H])c2c([H])c(OC([H])([H])C([H])([H])C([H])([H])[N+]([H])(C([H])([H])C([H])([H])C([H])([H])[H])C([H])(C([H])([H])C([H])([H])[H])C([H])([H])C([H])([H])C(=O)N3C([H])([H])C([H])([H])C([H])([H])C([H])(n4nc(-c5c([H])c([H])c(Oc6c([H])c([H])c(F)c([H])c6F)c([H])c5[H])c(C(=O)N([H])[H])c4N([H])[H])C3([H])[H])c([H])c([H])c2C1([H])[H]

>  <smiles>  (89) 
[H]c1c([H])c([H])c2c(c1[H])C([H])([H])C([H])([H])C([H])([H])C2([H])N([H])C(=O)C1([H])N(C(=O)C([H])(N([H])C(=O)C([H])(N([H])C([H])([H])[H])C([H])([H])[H])C(C([H])([H])[H])(C([H])([H])[H])C([H])([H])[H])C([H])([H])c2c([H])c(OC([H])([H])C([H])([H])C([H])([H])[N+]([H])(C([H])([H])C([H])([H])C([H])([H])[H])C([H])(C([H])([H])C([H])([H])[H])C([H])([H])C([H])([H])C(=O)N3C([H])([H])C([H])([H])C([H])([H])C([H])(n4nc(-c5c([H])c([H])c(Oc6c([H])c([H])c(F)c([H])c6F)c([H])c5[H])c(C(=O)N([H])[H])c4N([H])[H])C3([H])[H])c([H])c([H])c2C1([H])[H]

$$$$
90:0:0
     RDKit          3D

 99108  0  0  1  0  0  0  0  0999 V2000
  -28.4880  -21.8690   23.4310 C   0  0  0  0  0  2  0  0  0  0  0  0
  -29.9650  -22.2580   23.4280 C   0  0  0  0  0  2  0  0  0  0  0  0
  -28.6360  -20.2880   21.2720 C   0  0  0  0  0  2  0  0  0  0  0  0
  -30.8670  -21.4650   21.0270 C   0  0  0  0  0  3  0  0  0  0  0  0
  -28.5470  -21.6710   21.9030 C   0  0  0  0  0  3  0  0  0  0  0  0
  -29.9270  -22.3100   21.8870 C   0  0  0  0  0  3  0  0  0  0  0  0
  -30.1130  -20.1010   20.7570 C   0  0  0  0  0  3  0  0  0  0  0  0
  -32.3430  -21.4800   21.4770 C   0  0  0  0  0  0  0  0  0  0  0  0
  -33.1690  -22.4730   21.0930 N   0  0  0  0  0  0  0  0  0  0  0  0
  -32.7890  -20.5190   22.1070 O   0  0  0  0  0  0  0  0  0  0  0  0
  -34.1430  -22.2940   21.2990 H   0  0  0  0  0  0  0  0  0  0  0  0
  -32.8900  -23.8750   20.7250 C   0  0  0  0  0  2  0  0  0  0  0  0
  -32.2580  -24.1100   19.3300 C   0  0  0  0  0  2  0  0  0  0  0  0
  -31.8970  -25.6050   19.1020 C   0  0  0  0  0  2  0  0  0  0  0  0
  -30.8630  -25.7580   18.1250 O   0  0  0  0  0  0  0  0  0  0  0  0
  -27.2630  -28.9920   23.3940 C   0  0  0  0  0  0  0  0  0  0  0  0
  -29.7080  -26.3630   18.5710 C   0  0  0  0  0  0  0  0  0  0  0  0
  -25.9330  -28.2980   21.4280 C   0  0  0  0  0  3  0  0  0  0  0  0
  -27.2830  -27.5720   19.3800 C   0  0  0  0  0  0  0  0  0  0  0  0
  -28.4140  -28.8780   21.1860 C   0  0  0  0  0  2  0  0  0  0  0  0
  -28.4780  -27.8850   20.0440 C   0  0  0  0  0  0  0  0  0  0  0  0
  -29.6930  -27.2790   19.6500 C   0  0  0  0  0  3  0  0  0  0  0  0
  -28.5030  -26.0700   17.9050 C   0  0  0  0  0  3  0  0  0  0  0  0
  -27.2870  -26.6550   18.3140 C   0  0  0  0  0  3  0  0  0  0  0  0
  -26.0240  -28.2520   19.8780 C   0  0  0  0  0  2  0  0  0  0  0  0
  -27.2260  -28.7150   22.0620 N   0  0  0  0  0  0  0  0  0  0  0  0
  -26.2360  -28.9460   24.0870 O   0  0  0  0  0  0  0  0  0  0  0  0
  -25.4090  -26.9320   21.9320 C   0  0  0  0  0  0  0  0  0  0  0  0
  -24.1500  -26.6040   21.5960 N   0  0  0  0  0  0  0  0  0  0  0  0
  -26.1380  -26.1830   22.5860 O   0  0  0  0  0  0  0  0  0  0  0  0
  -23.6020  -27.2820   21.0880 H   0  0  0  0  0  0  0  0  0  0  0  0
  -21.1290  -24.7260   21.0070 C   0  0  0  0  0  0  0  0  0  0  0  0
  -23.4670  -25.3490   21.9170 C   0  0  0  0  0  3  0  0  0  0  0  0
  -24.0030  -24.1790   21.0570 C   0  0  0  0  0  2  0  0  0  0  0  0
  -23.1990  -23.9500   19.7710 C   0  0  0  0  0  2  0  0  0  0  0  0
  -21.7290  -23.6660   20.0970 C   0  0  0  0  0  2  0  0  0  0  0  0
  -21.9470  -25.5250   21.8490 C   0  0  0  0  0  0  0  0  0  0  0  0
  -21.3460  -26.5220   22.6460 C   0  0  0  0  0  3  0  0  0  0  0  0
  -19.9520  -26.7140   22.6190 C   0  0  0  0  0  3  0  0  0  0  0  0
  -19.1450  -25.9050   21.8000 C   0  0  0  0  0  3  0  0  0  0  0  0
  -19.7330  -24.9120   20.9960 C   0  0  0  0  0  3  0  0  0  0  0  0
  -28.5900  -29.3980   24.1100 C   0  0  0  0  0  3  0  0  0  0  0  0
  -29.0820  -28.3160   25.1490 C   0  0  1  0  0  0  0  0  0  0  0  0
  -27.9600  -27.7870   26.0730 C   0  0  0  0  0  1  0  0  0  0  0  0
  -29.7110  -27.1040   24.4210 C   0  0  0  0  0  1  0  0  0  0  0  0
  -30.2010  -28.9150   26.0360 C   0  0  0  0  0  1  0  0  0  0  0  0
  -28.3590  -30.6860   24.7740 N   0  0  0  0  0  0  0  0  0  0  0  0
  -28.8680  -31.8540   24.3610 C   0  0  0  0  0  0  0  0  0  0  0  0
  -29.6510  -31.9460   23.4120 O   0  0  0  0  0  0  0  0  0  0  0  0
  -27.6940  -30.6980   25.5330 H   0  0  0  0  0  0  0  0  0  0  0  0
  -27.4390  -33.9250   24.2700 C   0  0  0  0  0  1  0  0  0  0  0  0
  -28.4430  -33.1260   25.1200 C   0  0  0  0  0  3  0  0  0  0  0  0
  -30.4880  -33.3770   26.4520 C   0  0  0  0  0  1  0  0  0  0  0  0
  -29.5760  -34.0030   25.4980 N   0  0  0  0  0  0  0  0  0  0  0  0
  -29.2360  -34.8720   25.9030 H   0  0  0  0  0  0  0  0  0  0  0  0
  -30.8180  -18.7810   21.0660 N   0  0  1  0  0  4  0  0  0  0  0  0
  -31.8040  -18.9640   20.8880 H   0  0  0  0  0  0  0  0  0  0  0  0
  -30.6890  -18.2840   22.4760 C   0  0  0  0  0  2  0  0  0  0  0  0
  -31.1820  -18.7890   24.9450 C   0  0  0  0  0  1  0  0  0  0  0  0
  -31.6690  -18.9160   23.4900 C   0  0  0  0  0  2  0  0  0  0  0  0
  -30.4130  -17.7310   20.0620 C   0  0  0  0  0  2  0  0  0  0  0  0
  -31.0600  -16.3020   20.1040 C   0  0  0  0  0  2  0  0  0  0  0  0
  -30.2430  -15.3690   19.1770 C   0  0  0  0  0  2  0  0  0  0  0  0
  -30.8200  -13.9870   18.7860 C   0  0  0  0  0  0  0  0  0  0  0  0
  -30.0210  -11.9100   17.7360 C   0  0  0  0  0  2  0  0  0  0  0  0
  -28.8610  -12.2760   16.7840 C   0  0  0  0  0  2  0  0  0  0  0  0
  -27.5160  -12.2830   17.5420 C   0  0  0  0  0  2  0  0  0  0  0  0
  -27.5740  -13.1050   18.8540 C   0  0  0  0  0  3  0  0  0  0  0  0
  -28.8310  -12.7460   19.6840 C   0  0  0  0  0  2  0  0  0  0  0  0
  -30.0200  -12.8890   18.8320 N   0  0  0  0  0  0  0  0  0  0  0  0
  -31.8990  -13.9980   18.1860 O   0  0  0  0  0  0  0  0  0  0  0  0
  -25.5530  -13.9630   20.1950 C   0  0  0  0  0  0  0  0  0  0  0  0
  -24.4850  -13.3110   20.7570 C   0  0  0  0  0  0  0  0  0  0  0  0
  -24.6950  -11.9220   20.5050 C   0  0  0  0  0  0  0  0  0  0  0  0
  -26.3480  -12.9740   19.6380 N   0  0  0  0  0  0  0  0  0  0  0  0
  -25.8520  -11.7350   19.8850 N   0  0  0  0  0  0  0  0  0  0  0  0
  -23.8350  -10.7620   20.7690 C   0  0  0  0  0  0  0  0  0  0  0  0
  -24.3290   -9.6100   21.4220 C   0  0  0  0  0  3  0  0  0  0  0  0
  -23.4780   -8.5140   21.6780 C   0  0  0  0  0  3  0  0  0  0  0  0
  -22.1190   -8.5620   21.2840 C   0  0  0  0  0  0  0  0  0  0  0  0
  -21.6410   -9.7000   20.6110 C   0  0  0  0  0  3  0  0  0  0  0  0
  -22.4900  -10.7880   20.3520 C   0  0  0  0  0  3  0  0  0  0  0  0
  -21.2280   -7.5330   21.4650 O   0  0  0  0  0  0  0  0  0  0  0  0
  -21.3230   -6.6810   22.5370 C   0  0  0  0  0  0  0  0  0  0  0  0
  -21.3320   -7.1560   23.8660 C   0  0  0  0  0  3  0  0  0  0  0  0
  -21.3610   -6.2450   24.9390 C   0  0  0  0  0  3  0  0  0  0  0  0
  -21.3720   -4.8600   24.6870 C   0  0  0  0  0  0  0  0  0  0  0  0
  -21.3550   -4.3840   23.3650 C   0  0  0  0  0  3  0  0  0  0  0  0
  -21.3290   -5.2940   22.2920 C   0  0  0  0  0  0  0  0  0  0  0  0
  -21.2940   -4.8310   21.0190 F   0  0  0  0  0  0  0  0  0  0  0  0
  -21.3910   -3.9810   25.7170 F   0  0  0  0  0  0  0  0  0  0  0  0
  -23.2890  -13.9490   21.4020 C   0  0  0  0  0  0  0  0  0  0  0  0
  -22.6780  -13.2660   22.3660 N   0  0  0  0  0  0  0  0  0  0  0  0
  -22.9150  -15.0770   21.0870 O   0  0  0  0  0  0  0  0  0  0  0  0
  -22.9960  -12.3470   22.6380 H   0  0  0  0  0  0  0  0  0  0  0  0
  -21.8800  -13.6680   22.8370 H   0  0  0  0  0  0  0  0  0  0  0  0
  -25.8990  -15.3060   20.0900 N   0  0  0  0  0  0  0  0  0  0  0  0
  -25.2850  -16.0480   20.4090 H   0  0  0  0  0  0  0  0  0  0  0  0
  -26.6820  -15.6490   19.5430 H   0  0  0  0  0  0  0  0  0  0  0  0
  2  1  1  0
  4  8  1  0
  4  6  1  0
  5  3  1  0
  5  1  1  0
  6  5  1  0
  6  2  1  0
  7  4  1  0
  7 56  1  0
  7  3  1  0
  8 10  2  0
  9 11  1  0
  9  8  1  0
 12  9  1  0
 13 12  1  0
 14 13  1  0
 15 17  1  0
 15 14  1  0
 16 27  2  0
 17 22  1  0
 18 28  1  0
 18 26  1  0
 19 25  1  0
 19 21  1  0
 20 26  1  0
 21 20  1  0
 22 21  2  0
 23 24  1  0
 23 17  2  0
 24 19  2  0
 25 18  1  0
 26 16  1  0
 28 30  2  0
 29 28  1  0
 31 29  1  0
 32 37  1  0
 33 29  1  0
 34 33  1  0
 35 36  1  0
 35 34  1  0
 36 32  1  0
 37 33  1  0
 37 38  2  0
 39 38  1  0
 40 39  2  0
 41 32  2  0
 41 40  1  0
 42 16  1  0
 42 47  1  0
 42 43  1  0
 43 46  1  1
 43 44  1  0
 45 43  1  0
 47 50  1  0
 48 47  1  0
 48 52  1  0
 49 48  2  0
 52 51  1  0
 52 54  1  0
 54 55  1  0
 54 53  1  0
 56 58  1  0
 56 57  1  6
 58 60  1  0
 60 59  1  0
 61 62  1  0
 61 56  1  0
 63 62  1  0
 64 70  1  0
 64 63  1  0
 65 70  1  0
 66 67  1  0
 66 65  1  0
 68 67  1  0
 68 75  1  0
 68 69  1  0
 70 69  1  0
 71 64  2  0
 72 73  2  0
 73 92  1  0
 74 73  1  0
 74 77  1  0
 75 76  1  0
 75 72  1  0
 76 74  2  0
 77 78  1  0
 78 79  2  0
 80 83  1  0
 80 79  1  0
 81 80  2  0
 82 81  1  0
 82 77  2  0
 83 84  1  0
 84 85  1  0
 85 86  2  0
 87 86  1  0
 87 91  1  0
 88 87  2  0
 89 84  2  0
 89 88  1  0
 90 89  1  0
 92 93  1  0
 93 95  1  0
 93 96  1  0
 94 92  2  0
 97 72  1  0
 97 98  1  0
 99 97  1  0
M  ISO  4  14 101  15 101  63 100  64 100
M  END
>  <TORSDO>  (90) 
F 26

>  <SCORE>  (90) 
-1.615

>  <name>  (90) 
90

>  <ligand_id>  (90) 
90

>  <original_smiles>  (90) 
[H]c1c([H])c([H])c2c(c1[H])C([H])([H])C([H])([H])C([H])([H])C2([H])N([H])C(=O)C1([H])N(C(=O)C([H])(N([H])C(=O)C([H])(N([H])C([H])([H])[H])C([H])([H])[H])C(C([H])([H])[H])(C([H])([H])[H])C([H])([H])[H])C([H])([H])c2c([H])c(OC([H])([H])C([H])([H])C([H])([H])N([H])C(=O)C3([H])C4([H])C([H])([H])C([H])([H])C4([H])C([H])([H])C3([H])[N+]([H])(C([H])([H])C([H])([H])C([H])([H])[H])C([H])([H])C([H])([H])C([H])([H])C(=O)N3C([H])([H])C([H])([H])C([H])([H])C([H])(n4nc(-c5c([H])c([H])c(Oc6c([H])c([H])c(F)c([H])c6F)c([H])c5[H])c(C(=O)N([H])[H])c4N([H])[H])C3([H])[H])c([H])c([H])c2C1([H])[H]

>  <smiles>  (90) 
[H]c1c([H])c([H])c2c(c1[H])C([H])([H])C([H])([H])C([H])([H])C2([H])N([H])C(=O)C1([H])N(C(=O)C([H])(N([H])C(=O)C([H])(N([H])C([H])([H])[H])C([H])([H])[H])C(C([H])([H])[H])(C([H])([H])[H])C([H])([H])[H])C([H])([H])c2c([H])c(OC([H])([H])C([H])([H])C([H])([H])N([H])C(=O)C3([H])C4([H])C([H])([H])C([H])([H])C4([H])C([H])([H])C3([H])[N+]([H])(C([H])([H])C([H])([H])C([H])([H])[H])C([H])([H])C([H])([H])C([H])([H])C(=O)N3C([H])([H])C([H])([H])C([H])([H])C([H])(n4nc(-c5c([H])c([H])c(Oc6c([H])c([H])c(F)c([H])c6F)c([H])c5[H])c(C(=O)N([H])[H])c4N([H])[H])C3([H])[H])c([H])c([H])c2C1([H])[H]

$$$$
91:0:0
     RDKit          3D

 86 93  0  0  1  0  0  0  0  0999 V2000
  -28.7880  -22.7530   20.2670 C   0  0  0  0  0  3  0  0  0  0  0  0
  -28.5710  -20.8790   18.2750 C   0  0  0  0  0  1  0  0  0  0  0  0
  -28.5610  -21.0290   19.8060 C   0  0  0  0  0  3  0  0  0  0  0  0
  -29.1860  -19.5160   20.5200 C   0  0  0  0  0  2  0  0  0  0  0  0
  -29.5930  -16.5910   20.4100 C   0  0  0  0  0  3  0  0  0  0  0  0
  -29.7780  -17.9820   19.9790 C   0  0  0  0  0  0  0  0  0  0  0  0
  -30.4000  -15.2120   20.1680 C   0  0  0  0  0  0  0  0  0  0  0  0
  -30.3810  -12.7610   19.3890 C   0  0  0  0  0  2  0  0  0  0  0  0
  -29.4670  -12.6190   18.1440 C   0  0  0  0  0  2  0  0  0  0  0  0
  -28.0000  -12.3920   18.5610 C   0  0  0  0  0  2  0  0  0  0  0  0
  -27.5640  -13.3410   19.7080 C   0  0  0  0  0  3  0  0  0  0  0  0
  -28.6080  -13.4240   20.8340 C   0  0  0  0  0  2  0  0  0  0  0  0
  -29.8550  -13.9020   20.2180 N   0  0  0  0  0  0  0  0  0  0  0  0
  -31.6020  -15.1980   19.8680 O   0  0  0  0  0  0  0  0  0  0  0  0
  -25.1950  -13.9060   20.4620 C   0  0  0  0  0  0  0  0  0  0  0  0
  -24.1310  -13.1260   20.8400 C   0  0  0  0  0  0  0  0  0  0  0  0
  -24.6040  -11.7790   20.8170 C   0  0  0  0  0  0  0  0  0  0  0  0
  -26.2360  -13.0260   20.2190 N   0  0  0  0  0  0  0  0  0  0  0  0
  -25.8930  -11.7430   20.4990 N   0  0  0  0  0  0  0  0  0  0  0  0
  -23.8820  -10.5160   21.0170 C   0  0  0  0  0  0  0  0  0  0  0  0
  -24.3220   -9.5510   21.9480 C   0  0  0  0  0  3  0  0  0  0  0  0
  -23.5970   -8.3540   22.1370 C   0  0  0  0  0  3  0  0  0  0  0  0
  -22.4160   -8.1190   21.3990 C   0  0  0  0  0  0  0  0  0  0  0  0
  -21.9930   -9.0710   20.4570 C   0  0  0  0  0  3  0  0  0  0  0  0
  -22.7180  -10.2580   20.2640 C   0  0  0  0  0  3  0  0  0  0  0  0
  -21.6620   -6.9730   21.4970 O   0  0  0  0  0  0  0  0  0  0  0  0
  -21.6300   -6.2260   22.6470 C   0  0  0  0  0  0  0  0  0  0  0  0
  -21.2360   -6.7800   23.8870 C   0  0  0  0  0  3  0  0  0  0  0  0
  -21.1540   -5.9620   25.0280 C   0  0  0  0  0  3  0  0  0  0  0  0
  -21.4560   -4.5880   24.9370 C   0  0  0  0  0  0  0  0  0  0  0  0
  -21.8450   -4.0350   23.7050 C   0  0  0  0  0  3  0  0  0  0  0  0
  -21.9300   -4.8520   22.5640 C   0  0  0  0  0  0  0  0  0  0  0  0
  -22.2820   -4.3080   21.3740 F   0  0  0  0  0  0  0  0  0  0  0  0
  -21.3710   -3.8010   26.0330 F   0  0  0  0  0  0  0  0  0  0  0  0
  -22.7370  -13.6060   21.1080 C   0  0  0  0  0  0  0  0  0  0  0  0
  -22.0100  -12.9210   21.9840 N   0  0  0  0  0  0  0  0  0  0  0  0
  -22.2990  -14.6240   20.5760 O   0  0  0  0  0  0  0  0  0  0  0  0
  -22.3760  -12.0970   22.4350 H   0  0  0  0  0  0  0  0  0  0  0  0
  -21.0770  -13.2250   22.2060 H   0  0  0  0  0  0  0  0  0  0  0  0
  -25.3580  -15.2740   20.2760 N   0  0  0  0  0  0  0  0  0  0  0  0
  -24.5970  -15.9370   20.3880 H   0  0  0  0  0  0  0  0  0  0  0  0
  -26.2060  -15.7020   19.9180 H   0  0  0  0  0  0  0  0  0  0  0  0
  -30.6750  -18.2110   19.0020 O   0  0  0  0  0  0  0  0  0  0  0  0
  -30.3800  -18.9360   18.4620 H   0  0  0  0  0  0  0  0  0  0  0  0
  -27.8980  -24.2780   19.9410 C   0  0  0  0  0  3  0  0  0  0  0  0
  -28.1550  -25.8710   20.2390 O   0  0  0  0  0  0  0  0  0  0  0  0
  -24.6260  -31.8620   23.2010 C   0  0  0  0  0  0  0  0  0  0  0  0
  -27.1620  -26.9760   20.1810 C   0  0  0  0  0  0  0  0  0  0  0  0
  -23.4300  -30.4590   21.5680 C   0  0  0  0  0  3  0  0  0  0  0  0
  -24.8730  -28.8540   20.1520 C   0  0  0  0  0  0  0  0  0  0  0  0
  -25.9990  -30.6610   21.4280 C   0  0  0  0  0  2  0  0  0  0  0  0
  -26.0630  -29.2520   20.7700 C   0  0  0  0  0  0  0  0  0  0  0  0
  -27.2070  -28.3340   20.7630 C   0  0  0  0  0  3  0  0  0  0  0  0
  -25.9430  -26.7250   19.5200 C   0  0  0  0  0  3  0  0  0  0  0  0
  -24.8380  -27.6100   19.5070 C   0  0  0  0  0  3  0  0  0  0  0  0
  -23.6560  -29.7750   20.1970 C   0  0  0  0  0  2  0  0  0  0  0  0
  -24.7070  -31.0270   22.1160 N   0  0  0  0  0  0  0  0  0  0  0  0
  -23.5360  -32.1490   23.7260 O   0  0  0  0  0  0  0  0  0  0  0  0
  -22.7390  -29.4640   22.5370 C   0  0  0  0  0  0  0  0  0  0  0  0
  -21.4060  -29.2990   22.4200 N   0  0  0  0  0  0  0  0  0  0  0  0
  -23.4060  -28.8350   23.3650 O   0  0  0  0  0  0  0  0  0  0  0  0
  -20.9170  -29.8500   21.7280 H   0  0  0  0  0  0  0  0  0  0  0  0
  -18.0230  -28.1010   22.9380 C   0  0  0  0  0  0  0  0  0  0  0  0
  -20.5850  -28.3690   23.2030 C   0  0  0  0  0  3  0  0  0  0  0  0
  -20.6840  -26.9310   22.6380 C   0  0  0  0  0  2  0  0  0  0  0  0
  -19.5800  -26.6040   21.6280 C   0  0  0  0  0  2  0  0  0  0  0  0
  -18.1990  -26.7500   22.2700 C   0  0  0  0  0  2  0  0  0  0  0  0
  -19.1390  -28.8690   23.3630 C   0  0  0  0  0  0  0  0  0  0  0  0
  -18.9140  -30.1340   23.9490 C   0  0  0  0  0  3  0  0  0  0  0  0
  -17.6060  -30.6300   24.1140 C   0  0  0  0  0  3  0  0  0  0  0  0
  -16.5050  -29.8570   23.7030 C   0  0  0  0  0  3  0  0  0  0  0  0
  -16.7140  -28.5930   23.1240 C   0  0  0  0  0  3  0  0  0  0  0  0
  -25.8990  -32.5060   23.8280 C   0  0  0  0  0  3  0  0  0  0  0  0
  -25.5840  -33.9020   24.1580 N   0  0  0  0  0  0  0  0  0  0  0  0
  -25.9110  -34.9620   23.4050 C   0  0  0  0  0  0  0  0  0  0  0  0
  -26.5760  -34.8630   22.3710 O   0  0  0  0  0  0  0  0  0  0  0  0
  -24.9940  -34.0550   24.9650 H   0  0  0  0  0  0  0  0  0  0  0  0
  -24.1750  -36.7580   23.0830 C   0  0  0  0  0  1  0  0  0  0  0  0
  -25.4300  -36.3490   23.8730 C   0  0  0  0  0  3  0  0  0  0  0  0
  -27.5710  -37.2440   24.6750 C   0  0  0  0  0  1  0  0  0  0  0  0
  -26.4580  -37.4080   23.7440 N   0  0  0  0  0  0  0  0  0  0  0  0
  -26.0480  -38.3250   23.9040 H   0  0  0  0  0  0  0  0  0  0  0  0
  -26.4060  -31.7460   25.1170 C   0  0  1  0  0  0  0  0  0  0  0  0
  -25.3080  -31.5290   26.1840 C   0  0  0  0  0  1  0  0  0  0  0  0
  -26.9880  -30.3610   24.7550 C   0  0  0  0  0  1  0  0  0  0  0  0
  -27.5520  -32.5490   25.7770 C   0  0  0  0  0  1  0  0  0  0  0  0
  3  2  1  0
  3  1  1  0
  3  4  1  0
  6  5  2  0
  6  4  1  0
  7 13  1  0
  7  5  1  0
  8 13  1  0
  9 10  1  0
  9  8  1  0
 11 10  1  0
 11 18  1  0
 11 12  1  0
 13 12  1  0
 14  7  2  0
 15 16  2  0
 16 35  1  0
 17 16  1  0
 17 20  1  0
 18 15  1  0
 18 19  1  0
 19 17  2  0
 20 21  1  0
 21 22  2  0
 23 26  1  0
 23 22  1  0
 24 23  2  0
 25 24  1  0
 25 20  2  0
 26 27  1  0
 27 28  1  0
 28 29  2  0
 30 29  1  0
 30 34  1  0
 31 30  2  0
 32 27  2  0
 32 31  1  0
 33 32  1  0
 35 36  1  0
 36 39  1  0
 36 38  1  0
 37 35  2  0
 40 41  1  0
 40 15  1  0
 42 40  1  0
 43  6  1  0
 44 43  1  0
 45 46  1  0
 45  1  2  0
 47 58  2  0
 48 46  1  0
 48 53  1  0
 49 57  1  0
 49 59  1  0
 50 56  1  0
 50 52  1  0
 51 57  1  0
 52 51  1  0
 53 52  2  0
 54 48  2  0
 55 54  1  0
 55 50  2  0
 56 49  1  0
 57 47  1  0
 59 61  2  0
 60 59  1  0
 62 60  1  0
 63 72  2  0
 63 68  1  0
 64 60  1  0
 64 68  1  0
 65 64  1  0
 66 67  1  0
 66 65  1  0
 67 63  1  0
 68 69  2  0
 69 70  1  0
 71 70  2  0
 72 71  1  0
 73 47  1  0
 73 74  1  0
 73 83  1  0
 74 77  1  0
 75 79  1  0
 75 74  1  0
 76 75  2  0
 79 78  1  0
 81 79  1  0
 81 82  1  0
 81 80  1  0
 83 86  1  1
 83 84  1  0
 85 83  1  0
M  ISO  4   5 100   7 100  45 101  46 101
M  END
>  <TORSDO>  (91) 
F 21

>  <SCORE>  (91) 
-15.247

>  <name>  (91) 
91

>  <ligand_id>  (91) 
91

>  <original_smiles>  (91) 
[H]OC(=C([H])C(=O)N1C([H])([H])C([H])([H])C([H])([H])C([H])(n2nc(-c3c([H])c([H])c(Oc4c([H])c([H])c(F)c([H])c4F)c([H])c3[H])c(C(=O)N([H])[H])c2N([H])[H])C1([H])[H])C([H])([H])C([H])(C([H])([H])[H])C([H])([H])C([H])([H])Oc1c([H])c([H])c2c(c1[H])C([H])([H])N(C(=O)C([H])(N([H])C(=O)C([H])(N([H])C([H])([H])[H])C([H])([H])[H])C(C([H])([H])[H])(C([H])([H])[H])C([H])([H])[H])C([H])(C(=O)N([H])C1([H])c3c([H])c([H])c([H])c([H])c3C([H])([H])C([H])([H])C1([H])[H])C2([H])[H]

>  <smiles>  (91) 
[H]OC(=C([H])C(=O)N1C([H])([H])C([H])([H])C([H])([H])C([H])(n2nc(-c3c([H])c([H])c(Oc4c([H])c([H])c(F)c([H])c4F)c([H])c3[H])c(C(=O)N([H])[H])c2N([H])[H])C1([H])[H])C([H])([H])C([H])(C([H])([H])[H])C([H])([H])C([H])([H])Oc1c([H])c([H])c2c(c1[H])C([H])([H])N(C(=O)C([H])(N([H])C(=O)C([H])(N([H])C([H])([H])[H])C([H])([H])[H])C(C([H])([H])[H])(C([H])([H])[H])C([H])([H])[H])C([H])(C(=O)N([H])C1([H])c3c([H])c([H])c([H])c([H])c3C([H])([H])C([H])([H])C1([H])[H])C2([H])[H]

$$$$
92:0:0
     RDKit          3D

 92 96  0  0  1  0  0  0  0  0999 V2000
  -20.5010  -26.3330   22.8580 C   0  0  0  0  0  1  0  0  0  0  0  0
  -20.3840  -27.8090   20.3730 C   0  0  0  0  0  1  0  0  0  0  0  0
  -22.2830  -25.4140   22.8520 C   0  0  0  0  0  1  0  0  0  0  0  0
  -22.2360  -27.4630   19.7200 C   0  0  0  0  0  1  0  0  0  0  0  0
  -23.5210  -24.8270   21.4620 C   0  0  0  0  0  2  0  0  0  0  0  0
  -23.4400  -26.0360   20.1390 C   0  0  0  0  0  3  0  0  0  0  0  0
  -24.3300  -22.9920   21.0730 C   0  0  0  0  0  1  0  0  0  0  0  0
  -25.9390  -22.0020   20.6290 C   0  0  0  0  0  0  0  0  0  0  0  0
  -26.5160  -20.5080   20.5330 N   0  0  0  0  0  0  0  0  0  0  0  0
  -26.8180  -22.8090   20.3260 O   0  0  0  0  0  0  0  0  0  0  0  0
  -25.7840  -19.9010   20.8830 H   0  0  0  0  0  0  0  0  0  0  0  0
  -27.9850  -19.4660   20.0690 C   0  0  0  0  0  1  0  0  0  0  0  0
  -28.7640  -17.5930   20.1420 C   0  0  0  0  0  1  0  0  0  0  0  0
  -30.2270  -16.3550   19.7350 C   0  0  0  0  0  0  0  0  0  0  0  0
  -31.0890  -13.8590   18.9940 C   0  0  0  0  0  2  0  0  0  0  0  0
  -30.2560  -13.1970   17.8380 C   0  0  0  0  0  2  0  0  0  0  0  0
  -28.8720  -12.7270   18.3260 C   0  0  0  0  0  2  0  0  0  0  0  0
  -28.2910  -13.7580   19.3140 C   0  0  0  0  0  3  0  0  0  0  0  0
  -29.2610  -14.0890   20.4410 C   0  0  0  0  0  2  0  0  0  0  0  0
  -30.2550  -14.8980   19.7790 N   0  0  0  0  0  0  0  0  0  0  0  0
  -31.3850  -16.6420   19.3040 O   0  0  0  0  0  0  0  0  0  0  0  0
  -26.0160  -14.2810   20.2530 C   0  0  0  0  0  0  0  0  0  0  0  0
  -25.0060  -13.4870   20.7030 C   0  0  0  0  0  0  0  0  0  0  0  0
  -25.4770  -12.1450   20.5700 C   0  0  0  0  0  0  0  0  0  0  0  0
  -27.0170  -13.4140   19.8700 N   0  0  0  0  0  0  0  0  0  0  0  0
  -26.7240  -12.1220   20.1270 N   0  0  0  0  0  0  0  0  0  0  0  0
  -24.7870  -10.8730   20.7730 C   0  0  0  0  0  0  0  0  0  0  0  0
  -25.2160   -9.9530   21.7530 C   0  0  0  0  0  3  0  0  0  0  0  0
  -24.5200   -8.7400   21.9370 C   0  0  0  0  0  3  0  0  0  0  0  0
  -23.3900   -8.4460   21.1390 C   0  0  0  0  0  0  0  0  0  0  0  0
  -22.9850   -9.3580   20.1490 C   0  0  0  0  0  3  0  0  0  0  0  0
  -23.6800  -10.5620   19.9630 C   0  0  0  0  0  3  0  0  0  0  0  0
  -22.6620   -7.2860   21.2300 O   0  0  0  0  0  0  0  0  0  0  0  0
  -22.2950   -6.7660   22.4440 C   0  0  0  0  0  0  0  0  0  0  0  0
  -21.6080   -7.5350   23.4090 C   0  0  0  0  0  3  0  0  0  0  0  0
  -21.1870   -6.9400   24.6140 C   0  0  0  0  0  3  0  0  0  0  0  0
  -21.4420   -5.5750   24.8520 C   0  0  0  0  0  0  0  0  0  0  0  0
  -22.1200   -4.8070   23.8910 C   0  0  0  0  0  3  0  0  0  0  0  0
  -22.5440   -5.4010   22.6890 C   0  0  0  0  0  0  0  0  0  0  0  0
  -23.1790   -4.6510   21.7560 F   0  0  0  0  0  0  0  0  0  0  0  0
  -21.0290   -5.0010   26.0060 F   0  0  0  0  0  0  0  0  0  0  0  0
  -23.6470  -13.9470   21.1320 C   0  0  0  0  0  0  0  0  0  0  0  0
  -23.0500  -13.2630   22.1010 N   0  0  0  0  0  0  0  0  0  0  0  0
  -23.1320  -14.9530   20.6440 O   0  0  0  0  0  0  0  0  0  0  0  0
  -23.4910  -12.4530   22.5120 H   0  0  0  0  0  0  0  0  0  0  0  0
  -22.1460  -13.5540   22.4460 H   0  0  0  0  0  0  0  0  0  0  0  0
  -26.1530  -15.6580   20.1020 N   0  0  0  0  0  0  0  0  0  0  0  0
  -25.3850  -16.2930   20.2840 H   0  0  0  0  0  0  0  0  0  0  0  0
  -26.8920  -16.0770   19.5530 H   0  0  0  0  0  0  0  0  0  0  0  0
  -24.8820  -25.9360   19.3990 C   0  0  0  0  0  2  0  0  0  0  0  0
  -26.3420  -26.3720   19.9710 C   0  0  0  0  0  2  0  0  0  0  0  0
  -27.4350  -26.9730   19.1010 O   0  0  0  0  0  0  0  0  0  0  0  0
  -24.7560  -31.5890   23.2990 C   0  0  0  0  0  0  0  0  0  0  0  0
  -27.0530  -28.2520   18.8920 C   0  0  0  0  0  0  0  0  0  0  0  0
  -23.5120  -30.7490   21.3770 C   0  0  0  0  0  3  0  0  0  0  0  0
  -24.8670  -29.8720   19.3910 C   0  0  0  0  0  0  0  0  0  0  0  0
  -26.0310  -31.1000   21.2200 C   0  0  0  0  0  2  0  0  0  0  0  0
  -26.0330  -30.0370   20.1480 C   0  0  0  0  0  0  0  0  0  0  0  0
  -27.1460  -29.1990   19.9300 C   0  0  0  0  0  3  0  0  0  0  0  0
  -26.0470  -28.3450   17.9360 C   0  0  0  0  0  3  0  0  0  0  0  0
  -24.8780  -29.0460   18.2580 C   0  0  0  0  0  3  0  0  0  0  0  0
  -23.6550  -30.6670   19.8260 C   0  0  0  0  0  2  0  0  0  0  0  0
  -24.7820  -31.1780   22.0070 N   0  0  0  0  0  0  0  0  0  0  0  0
  -23.6900  -31.6930   23.9220 O   0  0  0  0  0  0  0  0  0  0  0  0
  -23.0870  -29.4080   22.0130 C   0  0  0  0  0  0  0  0  0  0  0  0
  -21.8130  -29.1950   22.1680 N   0  0  0  0  0  4  0  0  0  0  0  0
  -23.8760  -28.5130   22.2870 O   0  0  0  0  0  0  0  0  0  0  0  0
  -21.1760  -29.9460   21.9460 H   0  0  0  0  0  0  0  0  0  0  0  0
  -18.2560  -28.4300   22.6260 C   0  0  0  0  0  0  0  0  0  0  0  0
  -21.1850  -27.8490   22.3670 C   0  0  0  0  0  0  0  0  0  0  0  0
  -20.2330  -26.0870   20.4020 C   0  0  0  0  0  2  0  0  0  0  0  0
  -18.5030  -26.3680   20.4140 C   0  0  0  0  0  3  0  0  0  0  0  0
  -17.7060  -27.4100   21.4850 C   0  0  0  0  0  3  0  0  0  0  0  0
  -19.6800  -28.6870   23.0730 C   0  0  0  0  0  0  0  0  0  0  0  0
  -19.6910  -29.7840   24.0400 C   0  0  0  0  0  3  0  0  0  0  0  0
  -18.5440  -30.4900   24.5510 C   0  0  0  0  0  3  0  0  0  0  0  0
  -17.2470  -30.1540   24.1470 C   0  0  0  0  0  3  0  0  0  0  0  0
  -17.1330  -29.1360   23.1930 C   0  0  0  0  0  3  0  0  0  0  0  0
  -26.0710  -31.9550   24.0380 C   0  0  0  0  0  3  0  0  0  0  0  0
  -25.9280  -33.3430   24.4840 N   0  0  0  0  0  0  0  0  0  0  0  0
  -26.3990  -34.3980   23.8090 C   0  0  0  0  0  0  0  0  0  0  0  0
  -27.0770  -34.2940   22.7840 O   0  0  0  0  0  0  0  0  0  0  0  0
  -25.3370  -33.5050   25.2870 H   0  0  0  0  0  0  0  0  0  0  0  0
  -24.9240  -36.4160   23.5540 C   0  0  0  0  0  1  0  0  0  0  0  0
  -26.0680  -35.7930   24.3680 C   0  0  0  0  0  3  0  0  0  0  0  0
  -28.2680  -36.3050   25.3290 C   0  0  0  0  0  1  0  0  0  0  0  0
  -27.2300  -36.7090   24.3820 N   0  0  0  0  0  0  0  0  0  0  0  0
  -26.9380  -37.6530   24.6190 H   0  0  0  0  0  0  0  0  0  0  0  0
  -26.3890  -30.9930   25.2450 C   0  0  1  0  0  0  0  0  0  0  0  0
  -25.2170  -30.8300   26.2400 C   0  0  0  0  0  1  0  0  0  0  0  0
  -26.7750  -29.5810   24.7430 C   0  0  0  0  0  1  0  0  0  0  0  0
  -27.6120  -31.5370   26.0180 C   0  0  0  0  0  1  0  0  0  0  0  0
  2 71  1  0
  5  3  1  0
  6  4  1  0
  6  5  1  0
  8  7  1  0
  9  8  1  0
  9 11  1  0
 10  8  2  0
 12  9  1  0
 14 20  1  0
 14 13  1  0
 15 20  1  0
 16 17  1  0
 16 15  1  0
 18 17  1  0
 18 25  1  0
 18 19  1  0
 20 19  1  0
 21 14  2  0
 22 23  2  0
 23 42  1  0
 24 23  1  0
 24 27  1  0
 25 26  1  0
 25 22  1  0
 26 24  2  0
 27 28  1  0
 28 29  2  0
 30 33  1  0
 30 29  1  0
 31 30  2  0
 32 31  1  0
 32 27  2  0
 33 34  1  0
 34 39  2  0
 34 35  1  0
 35 36  2  0
 36 37  1  0
 37 41  1  0
 38 37  2  0
 39 38  1  0
 40 39  1  0
 42 43  1  0
 43 46  1  0
 43 45  1  0
 44 42  2  0
 47 22  1  0
 47 48  1  0
 49 47  1  0
 50 51  1  0
 50  6  1  0
 52 51  1  0
 53 64  2  0
 54 52  1  0
 54 59  1  0
 55 63  1  0
 55 65  1  0
 56 62  1  0
 56 58  1  0
 57 63  1  0
 58 57  1  0
 59 58  2  0
 60 61  1  0
 60 54  2  0
 61 56  2  0
 62 55  1  0
 63 53  1  0
 65 66  1  0
 65 67  2  0
 66 70  2  0
 68 66  1  0
 69 74  2  0
 69 78  1  0
 70  1  1  0
 70 74  1  0
 71 72  1  0
 72 73  2  0
 73 69  1  0
 74 75  1  0
 75 76  2  0
 77 76  1  0
 78 77  2  0
 79 53  1  0
 79 80  1  0
 79 89  1  0
 80 83  1  0
 81 85  1  0
 81 80  1  0
 82 81  2  0
 85 84  1  0
 85 87  1  0
 87 88  1  0
 87 86  1  0
 89 92  1  1
 89 90  1  0
 91 89  1  0
M  ISO  4  13 100  14 100  51 101  52 101
M  END
>  <TORSDO>  (92) 
F 22

>  <SCORE>  (92) 
-8.245

>  <name>  (92) 
92

>  <ligand_id>  (92) 
92

>  <original_smiles>  (92) 
[H]c1c([H])c([H])c2c(c1[H])C([H])([H])C([H])([H])C([H])([H])C2([H])N([H])C(=O)C1([H])N(C(=O)C([H])(N([H])C(=O)C([H])(N([H])C([H])([H])[H])C([H])([H])[H])C(C([H])([H])[H])(C([H])([H])[H])C([H])([H])[H])C([H])([H])c2c([H])c(OC([H])([H])C([H])([H])C3([H])C([H])([H])C([H])([H])C([H])([H])C([H])([H])C3([H])C([H])([H])C(=O)N([H])C([H])([H])C([H])([H])C(=O)N3C([H])([H])C([H])([H])C([H])([H])C([H])(n4nc(-c5c([H])c([H])c(Oc6c([H])c([H])c(F)c([H])c6F)c([H])c5[H])c(C(=O)N([H])[H])c4N([H])[H])C3([H])[H])c([H])c([H])c2C1([H])[H]

>  <smiles>  (92) 
[H]c1c([H])c([H])c2c(c1[H])C([H])([H])C([H])([H])C([H])([H])C2([H])N([H])C(=O)C1([H])N(C(=O)C([H])(N([H])C(=O)C([H])(N([H])C([H])([H])[H])C([H])([H])[H])C(C([H])([H])[H])(C([H])([H])[H])C([H])([H])[H])C([H])([H])c2c([H])c(OC([H])([H])C([H])([H])C3([H])C([H])([H])C([H])([H])C([H])([H])C([H])([H])C3([H])C([H])([H])C(=O)N([H])C([H])([H])C([H])([H])C(=O)N3C([H])([H])C([H])([H])C([H])([H])C([H])(n4nc(-c5c([H])c([H])c(Oc6c([H])c([H])c(F)c([H])c6F)c([H])c5[H])c(C(=O)N([H])[H])c4N([H])[H])C3([H])[H])c([H])c([H])c2C1([H])[H]

$$$$
93:0:0
     RDKit          3D

 89 97  0  0  1  0  0  0  0  0999 V2000
  -28.8880  -20.5370   20.2480 N   0  0  0  0  0  4  0  0  0  0  0  0
  -28.4760  -20.5570   19.3290 H   0  0  0  0  0  0  0  0  0  0  0  0
  -28.1470  -20.2420   20.8620 H   0  0  0  0  0  0  0  0  0  0  0  0
  -31.7970  -18.4490   21.5820 C   0  0  0  0  0  2  0  0  0  0  0  0
  -30.5630  -17.6350   21.9440 C   0  0  0  0  0  2  0  0  0  0  0  0
  -31.2210  -19.7380   20.9960 C   0  0  0  0  0  2  0  0  0  0  0  0
  -29.6370  -17.7810   20.7290 C   0  0  0  0  0  3  0  0  0  0  0  0
  -29.9440  -19.3550   20.2120 C   0  0  0  0  0  3  0  0  0  0  0  0
  -29.7070  -16.3820   19.8080 C   0  0  0  0  0  2  0  0  0  0  0  0
  -30.5510  -14.9660   19.9960 C   0  0  0  0  0  0  0  0  0  0  0  0
  -30.3860  -12.6330   19.0580 C   0  0  0  0  0  2  0  0  0  0  0  0
  -29.4010  -12.6410   17.8650 C   0  0  0  0  0  2  0  0  0  0  0  0
  -27.9530  -12.4340   18.3500 C   0  0  0  0  0  2  0  0  0  0  0  0
  -27.6000  -13.3350   19.5580 C   0  0  0  0  0  3  0  0  0  0  0  0
  -28.7030  -13.3230   20.6350 C   0  0  0  0  0  2  0  0  0  0  0  0
  -29.9650  -13.7060   19.9960 N   0  0  0  0  0  0  0  0  0  0  0  0
  -31.7660  -15.0110   19.7820 O   0  0  0  0  0  0  0  0  0  0  0  0
  -25.2580  -13.9110   20.4170 C   0  0  0  0  0  0  0  0  0  0  0  0
  -24.2090  -13.1320   20.8220 C   0  0  0  0  0  0  0  0  0  0  0  0
  -24.6730  -11.7820   20.7560 C   0  0  0  0  0  0  0  0  0  0  0  0
  -26.2880  -13.0350   20.1170 N   0  0  0  0  0  0  0  0  0  0  0  0
  -25.9480  -11.7480   20.3910 N   0  0  0  0  0  0  0  0  0  0  0  0
  -23.9550  -10.5170   20.9610 C   0  0  0  0  0  0  0  0  0  0  0  0
  -24.4070   -9.5520   21.8880 C   0  0  0  0  0  3  0  0  0  0  0  0
  -23.6890   -8.3530   22.0810 C   0  0  0  0  0  3  0  0  0  0  0  0
  -22.5050   -8.1090   21.3460 C   0  0  0  0  0  0  0  0  0  0  0  0
  -22.0720   -9.0620   20.4060 C   0  0  0  0  0  3  0  0  0  0  0  0
  -22.7910  -10.2530   20.2120 C   0  0  0  0  0  3  0  0  0  0  0  0
  -21.7560   -6.9620   21.4480 O   0  0  0  0  0  0  0  0  0  0  0  0
  -21.7080   -6.2340   22.6100 C   0  0  0  0  0  0  0  0  0  0  0  0
  -21.2560   -6.7980   23.8240 C   0  0  0  0  0  3  0  0  0  0  0  0
  -21.1580   -5.9960   24.9790 C   0  0  0  0  0  3  0  0  0  0  0  0
  -21.5010   -4.6320   24.9210 C   0  0  0  0  0  0  0  0  0  0  0  0
  -21.9460   -4.0680   23.7120 C   0  0  0  0  0  3  0  0  0  0  0  0
  -22.0460   -4.8670   22.5600 C   0  0  0  0  0  0  0  0  0  0  0  0
  -22.4550   -4.3140   21.3920 F   0  0  0  0  0  0  0  0  0  0  0  0
  -21.3990   -3.8590   26.0280 F   0  0  0  0  0  0  0  0  0  0  0  0
  -22.8240  -13.6040   21.1530 C   0  0  0  0  0  0  0  0  0  0  0  0
  -22.1300  -12.8970   22.0360 N   0  0  0  0  0  0  0  0  0  0  0  0
  -22.3670  -14.6370   20.6620 O   0  0  0  0  0  0  0  0  0  0  0  0
  -22.5120  -12.0610   22.4540 H   0  0  0  0  0  0  0  0  0  0  0  0
  -21.1990  -13.1920   22.2960 H   0  0  0  0  0  0  0  0  0  0  0  0
  -25.4150  -15.2840   20.2510 N   0  0  0  0  0  0  0  0  0  0  0  0
  -24.6550  -15.9380   20.4110 H   0  0  0  0  0  0  0  0  0  0  0  0
  -26.2510  -15.7290   19.8950 H   0  0  0  0  0  0  0  0  0  0  0  0
  -29.2070  -22.0380   20.6440 C   0  0  0  0  0  2  0  0  0  0  0  0
  -28.4650  -23.3940   19.9860 C   0  0  0  0  0  2  0  0  0  0  0  0
  -28.2430  -24.8490   20.7860 C   0  0  0  0  0  2  0  0  0  0  0  0
  -28.3410  -26.2970   20.2630 O   0  0  0  0  0  0  0  0  0  0  0  0
  -24.6070  -31.9150   23.2230 C   0  0  0  0  0  0  0  0  0  0  0  0
  -27.2460  -27.2170   20.2730 C   0  0  0  0  0  0  0  0  0  0  0  0
  -23.4320  -30.5030   21.5760 C   0  0  0  0  0  3  0  0  0  0  0  0
  -24.9040  -28.9160   20.1950 C   0  0  0  0  0  0  0  0  0  0  0  0
  -25.9830  -30.7870   21.4400 C   0  0  0  0  0  2  0  0  0  0  0  0
  -26.0720  -29.3890   20.8070 C   0  0  0  0  0  0  0  0  0  0  0  0
  -27.2480  -28.5570   20.8220 C   0  0  0  0  0  3  0  0  0  0  0  0
  -26.0490  -26.8220   19.6430 C   0  0  0  0  0  3  0  0  0  0  0  0
  -24.9010  -27.6440   19.6000 C   0  0  0  0  0  3  0  0  0  0  0  0
  -23.6720  -29.8090   20.2090 C   0  0  0  0  0  2  0  0  0  0  0  0
  -24.6920  -31.0890   22.1350 N   0  0  0  0  0  0  0  0  0  0  0  0
  -23.5140  -32.2000   23.7350 O   0  0  0  0  0  0  0  0  0  0  0  0
  -22.7430  -29.5030   22.5380 C   0  0  0  0  0  0  0  0  0  0  0  0
  -21.4150  -29.3370   22.4010 N   0  0  0  0  0  0  0  0  0  0  0  0
  -23.4050  -28.8760   23.3690 O   0  0  0  0  0  0  0  0  0  0  0  0
  -20.9390  -29.8930   21.7040 H   0  0  0  0  0  0  0  0  0  0  0  0
  -18.0220  -28.1750   22.8930 C   0  0  0  0  0  0  0  0  0  0  0  0
  -20.5830  -28.4090   23.1670 C   0  0  0  0  0  3  0  0  0  0  0  0
  -20.6700  -26.9760   22.5900 C   0  0  0  0  0  2  0  0  0  0  0  0
  -19.5670  -26.6680   21.5720 C   0  0  0  0  0  2  0  0  0  0  0  0
  -18.1860  -26.8260   22.2140 C   0  0  0  0  0  2  0  0  0  0  0  0
  -19.1470  -28.9250   23.3270 C   0  0  0  0  0  0  0  0  0  0  0  0
  -18.9410  -30.1860   23.9250 C   0  0  0  0  0  3  0  0  0  0  0  0
  -17.6400  -30.6990   24.0910 C   0  0  0  0  0  3  0  0  0  0  0  0
  -16.5280  -29.9480   23.6720 C   0  0  0  0  0  3  0  0  0  0  0  0
  -16.7210  -28.6870   23.0800 C   0  0  0  0  0  3  0  0  0  0  0  0
  -25.8750  -32.5560   23.8640 C   0  0  0  0  0  3  0  0  0  0  0  0
  -25.5580  -33.9570   24.1800 N   0  0  0  0  0  0  0  0  0  0  0  0
  -25.9000  -35.0070   23.4220 C   0  0  0  0  0  0  0  0  0  0  0  0
  -26.5830  -34.8980   22.4000 O   0  0  0  0  0  0  0  0  0  0  0  0
  -24.9510  -34.1150   24.9720 H   0  0  0  0  0  0  0  0  0  0  0  0
  -24.1810  -36.8030   23.0370 C   0  0  0  0  0  1  0  0  0  0  0  0
  -25.4090  -36.3980   23.8680 C   0  0  0  0  0  3  0  0  0  0  0  0
  -27.5300  -37.2880   24.7290 C   0  0  0  0  0  1  0  0  0  0  0  0
  -26.4460  -37.4490   23.7650 N   0  0  0  0  0  0  0  0  0  0  0  0
  -26.0380  -38.3710   23.8980 H   0  0  0  0  0  0  0  0  0  0  0  0
  -26.3660  -31.7970   25.1590 C   0  0  1  0  0  0  0  0  0  0  0  0
  -25.2510  -31.5710   26.2070 C   0  0  0  0  0  1  0  0  0  0  0  0
  -26.9560  -30.4150   24.7960 C   0  0  0  0  0  1  0  0  0  0  0  0
  -27.5030  -32.5970   25.8370 C   0  0  0  0  0  1  0  0  0  0  0  0
  1 46  1  0
  1  3  1  0
  2  1  1  0
  4  5  1  0
  6  4  1  0
  7  9  1  0
  7  5  1  0
  8  1  1  0
  8  7  1  0
  8  6  1  0
  9 10  1  0
 10 16  1  0
 11 16  1  0
 12 13  1  0
 12 11  1  0
 14 13  1  0
 14 21  1  0
 14 15  1  0
 16 15  1  0
 17 10  2  0
 18 19  2  0
 19 38  1  0
 20 19  1  0
 20 23  1  0
 21 22  1  0
 21 18  1  0
 22 20  2  0
 23 24  1  0
 24 25  2  0
 26 29  1  0
 26 25  1  0
 27 26  2  0
 28 27  1  0
 28 23  2  0
 29 30  1  0
 30 31  1  0
 31 32  2  0
 33 32  1  0
 33 37  1  0
 34 33  2  0
 35 30  2  0
 35 34  1  0
 36 35  1  0
 38 39  1  0
 39 42  1  0
 39 41  1  0
 40 38  2  0
 43 44  1  0
 43 18  1  0
 45 43  1  0
 47 46  1  0
 47 48  1  0
 49 51  1  0
 49 48  1  0
 50 61  2  0
 51 56  1  0
 52 60  1  0
 52 62  1  0
 53 59  1  0
 53 55  1  0
 54 60  1  0
 55 56  2  0
 55 54  1  0
 57 51  2  0
 58 57  1  0
 58 53  2  0
 59 52  1  0
 60 50  1  0
 62 64  2  0
 63 62  1  0
 65 63  1  0
 66 75  2  0
 66 71  1  0
 67 63  1  0
 67 71  1  0
 68 67  1  0
 69 70  1  0
 69 68  1  0
 70 66  1  0
 71 72  2  0
 72 73  1  0
 74 73  2  0
 75 74  1  0
 76 50  1  0
 76 77  1  0
 76 86  1  0
 77 80  1  0
 78 82  1  0
 78 77  1  0
 79 78  2  0
 82 81  1  0
 84 82  1  0
 84 85  1  0
 84 83  1  0
 86 89  1  1
 86 87  1  0
 88 86  1  0
M  ISO  4   9 100  10 100  48 101  49 101
M  END
>  <TORSDO>  (93) 
F 21

>  <SCORE>  (93) 
-13.489

>  <name>  (93) 
93

>  <ligand_id>  (93) 
93

>  <original_smiles>  (93) 
[H]c1c([H])c([H])c2c(c1[H])C([H])([H])C([H])([H])C([H])([H])C2([H])N([H])C(=O)C1([H])N(C(=O)C([H])(N([H])C(=O)C([H])(N([H])C([H])([H])[H])C([H])([H])[H])C(C([H])([H])[H])(C([H])([H])[H])C([H])([H])[H])C([H])([H])c2c([H])c(OC([H])([H])C([H])([H])C([H])([H])[N+]([H])([H])C3([H])C([H])([H])C([H])([H])C([H])([H])C3([H])C([H])([H])C(=O)N3C([H])([H])C([H])([H])C([H])([H])C([H])(n4nc(-c5c([H])c([H])c(Oc6c([H])c([H])c(F)c([H])c6F)c([H])c5[H])c(C(=O)N([H])[H])c4N([H])[H])C3([H])[H])c([H])c([H])c2C1([H])[H]

>  <smiles>  (93) 
[H]c1c([H])c([H])c2c(c1[H])C([H])([H])C([H])([H])C([H])([H])C2([H])N([H])C(=O)C1([H])N(C(=O)C([H])(N([H])C(=O)C([H])(N([H])C([H])([H])[H])C([H])([H])[H])C(C([H])([H])[H])(C([H])([H])[H])C([H])([H])[H])C([H])([H])c2c([H])c(OC([H])([H])C([H])([H])C([H])([H])[N+]([H])([H])C3([H])C([H])([H])C([H])([H])C([H])([H])C3([H])C([H])([H])C(=O)N3C([H])([H])C([H])([H])C([H])([H])C([H])(n4nc(-c5c([H])c([H])c(Oc6c([H])c([H])c(F)c([H])c6F)c([H])c5[H])c(C(=O)N([H])[H])c4N([H])[H])C3([H])[H])c([H])c([H])c2C1([H])[H]

$$$$
94:0:0
     RDKit          3D

 94102  0  0  1  0  0  0  0  0999 V2000
  -28.1000  -20.6470   19.0720 C   0  0  0  0  0  3  0  0  0  0  0  0
  -29.3260  -22.3820   17.8110 C   0  0  0  0  0  1  0  0  0  0  0  0
  -28.9460  -21.8860   19.1610 N   0  0  1  0  0  4  0  0  0  0  0  0
  -29.8210  -21.5810   19.5630 H   0  0  0  0  0  0  0  0  0  0  0  0
  -28.4140  -22.9500   20.0770 C   0  0  0  0  0  2  0  0  0  0  0  0
  -29.0610  -24.3520   19.9470 C   0  0  0  0  0  2  0  0  0  0  0  0
  -28.5250  -25.3330   21.0060 C   0  0  0  0  0  2  0  0  0  0  0  0
  -28.6590  -26.6960   20.5920 O   0  0  0  0  0  0  0  0  0  0  0  0
  -24.5580  -31.8150   23.3200 C   0  0  0  0  0  0  0  0  0  0  0  0
  -27.4750  -27.3880   20.5010 C   0  0  0  0  0  0  0  0  0  0  0  0
  -23.4800  -30.3610   21.6320 C   0  0  0  0  0  3  0  0  0  0  0  0
  -25.0500  -28.8230   20.3340 C   0  0  0  0  0  0  0  0  0  0  0  0
  -26.0040  -30.7710   21.5810 C   0  0  0  0  0  2  0  0  0  0  0  0
  -26.1560  -29.3920   20.9770 C   0  0  0  0  0  0  0  0  0  0  0  0
  -27.3740  -28.6820   21.0540 C   0  0  0  0  0  3  0  0  0  0  0  0
  -26.3510  -26.8230   19.8580 C   0  0  0  0  0  3  0  0  0  0  0  0
  -25.1400  -27.5370   19.7730 C   0  0  0  0  0  3  0  0  0  0  0  0
  -23.7880  -29.6560   20.2830 C   0  0  0  0  0  2  0  0  0  0  0  0
  -24.6950  -30.9970   22.2370 N   0  0  0  0  0  0  0  0  0  0  0  0
  -23.4410  -32.0770   23.7870 O   0  0  0  0  0  0  0  0  0  0  0  0
  -22.7870  -29.3480   22.5690 C   0  0  0  0  0  0  0  0  0  0  0  0
  -21.4770  -29.1420   22.3620 N   0  0  0  0  0  0  0  0  0  0  0  0
  -23.4280  -28.7490   23.4370 O   0  0  0  0  0  0  0  0  0  0  0  0
  -21.0230  -29.6760   21.6340 H   0  0  0  0  0  0  0  0  0  0  0  0
  -18.0850  -27.9490   22.7060 C   0  0  0  0  0  0  0  0  0  0  0  0
  -20.6280  -28.2050   23.0950 C   0  0  0  0  0  3  0  0  0  0  0  0
  -20.7560  -26.7730   22.5250 C   0  0  0  0  0  2  0  0  0  0  0  0
  -19.7010  -26.4500   21.4620 C   0  0  0  0  0  2  0  0  0  0  0  0
  -18.2920  -26.5970   22.0420 C   0  0  0  0  0  2  0  0  0  0  0  0
  -19.1830  -28.7100   23.1870 C   0  0  0  0  0  0  0  0  0  0  0  0
  -18.9390  -29.9750   23.7640 C   0  0  0  0  0  3  0  0  0  0  0  0
  -17.6290  -30.4790   23.8660 C   0  0  0  0  0  3  0  0  0  0  0  0
  -16.5440  -29.7130   23.4040 C   0  0  0  0  0  3  0  0  0  0  0  0
  -16.7730  -28.4500   22.8300 C   0  0  0  0  0  3  0  0  0  0  0  0
  -25.7930  -32.4770   24.0080 C   0  0  0  0  0  3  0  0  0  0  0  0
  -25.4450  -33.8760   24.2890 N   0  0  0  0  0  0  0  0  0  0  0  0
  -25.7940  -34.9160   23.5200 C   0  0  0  0  0  0  0  0  0  0  0  0
  -26.5140  -34.8000   22.5250 O   0  0  0  0  0  0  0  0  0  0  0  0
  -24.8110  -34.0380   25.0590 H   0  0  0  0  0  0  0  0  0  0  0  0
  -24.0470  -36.6600   23.0450 C   0  0  0  0  0  1  0  0  0  0  0  0
  -25.2600  -36.3050   23.9190 C   0  0  0  0  0  3  0  0  0  0  0  0
  -27.3350  -37.2570   24.8200 C   0  0  0  0  0  1  0  0  0  0  0  0
  -26.2750  -37.3760   23.8230 N   0  0  0  0  0  0  0  0  0  0  0  0
  -25.8440  -38.2910   23.9240 H   0  0  0  0  0  0  0  0  0  0  0  0
  -26.2440  -31.7360   25.3250 C   0  0  1  0  0  0  0  0  0  0  0  0
  -25.0830  -31.4530   26.3070 C   0  0  0  0  0  1  0  0  0  0  0  0
  -26.9170  -30.3850   24.9880 C   0  0  0  0  0  1  0  0  0  0  0  0
  -27.3020  -32.5850   26.0700 C   0  0  0  0  0  1  0  0  0  0  0  0
  -28.3580  -19.6520   20.2470 C   0  0  0  0  0  2  0  0  0  0  0  0
  -30.6070  -16.5730   21.2880 C   0  0  0  0  0  2  0  0  0  0  0  0
  -29.8530  -16.2260   18.9530 C   0  0  0  0  0  2  0  0  0  0  0  0
  -29.7270  -17.8410   21.3930 C   0  0  0  0  0  2  0  0  0  0  0  0
  -28.9160  -17.4390   19.0180 C   0  0  0  0  0  2  0  0  0  0  0  0
  -29.9770  -15.5430   20.3280 C   0  0  0  0  0  3  0  0  0  0  0  0
  -29.3960  -18.5110   20.0280 C   0  0  0  0  0  3  0  0  0  0  0  0
  -30.7870  -14.2290   20.1800 C   0  0  0  0  0  0  0  0  0  0  0  0
  -30.5590  -11.8940   19.4460 C   0  0  0  0  0  2  0  0  0  0  0  0
  -29.6300  -11.8940   18.2110 C   0  0  0  0  0  2  0  0  0  0  0  0
  -28.1470  -11.8180   18.6320 C   0  0  0  0  0  2  0  0  0  0  0  0
  -27.7840  -12.8390   19.7430 C   0  0  0  0  0  3  0  0  0  0  0  0
  -28.8300  -12.7970   20.8810 C   0  0  0  0  0  2  0  0  0  0  0  0
  -30.1590  -13.0260   20.2940 N   0  0  0  0  0  0  0  0  0  0  0  0
  -31.9440  -14.3260   19.7590 O   0  0  0  0  0  0  0  0  0  0  0  0
  -25.4240  -13.5680   20.4690 C   0  0  0  0  0  0  0  0  0  0  0  0
  -24.3260  -12.8520   20.8580 C   0  0  0  0  0  0  0  0  0  0  0  0
  -24.7240  -11.4790   20.8350 C   0  0  0  0  0  0  0  0  0  0  0  0
  -26.4260  -12.6360   20.2390 N   0  0  0  0  0  0  0  0  0  0  0  0
  -26.0060  -11.3750   20.5130 N   0  0  0  0  0  0  0  0  0  0  0  0
  -23.9430  -10.2550   21.0470 C   0  0  0  0  0  0  0  0  0  0  0  0
  -24.3610   -9.2610   21.9590 C   0  0  0  0  0  3  0  0  0  0  0  0
  -23.5850   -8.1000   22.1580 C   0  0  0  0  0  3  0  0  0  0  0  0
  -22.3760   -7.9240   21.4450 C   0  0  0  0  0  0  0  0  0  0  0  0
  -21.9750   -8.9060   20.5210 C   0  0  0  0  0  3  0  0  0  0  0  0
  -22.7520  -10.0590   20.3200 C   0  0  0  0  0  3  0  0  0  0  0  0
  -21.5690   -6.8170   21.5560 O   0  0  0  0  0  0  0  0  0  0  0  0
  -21.5380   -6.0610   22.7010 C   0  0  0  0  0  0  0  0  0  0  0  0
  -21.1520   -6.6080   23.9450 C   0  0  0  0  0  3  0  0  0  0  0  0
  -21.0660   -5.7790   25.0810 C   0  0  0  0  0  3  0  0  0  0  0  0
  -21.3560   -4.4060   24.9750 C   0  0  0  0  0  0  0  0  0  0  0  0
  -21.7360   -3.8590   23.7370 C   0  0  0  0  0  3  0  0  0  0  0  0
  -21.8230   -4.6850   22.6030 C   0  0  0  0  0  0  0  0  0  0  0  0
  -22.1690   -4.1480   21.4060 F   0  0  0  0  0  0  0  0  0  0  0  0
  -21.2650   -3.6080   26.0650 F   0  0  0  0  0  0  0  0  0  0  0  0
  -22.9560  -13.3960   21.1450 C   0  0  0  0  0  0  0  0  0  0  0  0
  -22.2170  -12.7530   22.0410 N   0  0  0  0  0  0  0  0  0  0  0  0
  -22.5520  -14.4250   20.6070 O   0  0  0  0  0  0  0  0  0  0  0  0
  -22.5580  -11.9190   22.4970 H   0  0  0  0  0  0  0  0  0  0  0  0
  -21.2980  -13.0980   22.2760 H   0  0  0  0  0  0  0  0  0  0  0  0
  -25.6500  -14.9280   20.2760 N   0  0  0  0  0  0  0  0  0  0  0  0
  -24.9150  -15.6180   20.3890 H   0  0  0  0  0  0  0  0  0  0  0  0
  -26.5200  -15.3240   19.9450 H   0  0  0  0  0  0  0  0  0  0  0  0
  -26.5860  -20.9490   18.8860 C   0  0  0  0  0  2  0  0  0  0  0  0
  -24.7590  -21.2780   17.1340 C   0  0  0  0  0  1  0  0  0  0  0  0
  -26.0020  -20.4760   17.5400 C   0  0  0  0  0  2  0  0  0  0  0  0
  1 92  1  0
  1  3  1  0
  1 49  1  0
  2  3  1  0
  3  4  1  1
  3  5  1  0
  6  5  1  0
  6  7  1  0
  8  7  1  0
  9 20  2  0
 10  8  1  0
 10 15  1  0
 11 19  1  0
 11 21  1  0
 12 14  1  0
 13 19  1  0
 14 15  2  0
 14 13  1  0
 16 10  2  0
 17 16  1  0
 17 12  2  0
 18 12  1  0
 18 11  1  0
 19  9  1  0
 21 23  2  0
 22 21  1  0
 24 22  1  0
 25 34  2  0
 25 30  1  0
 26 22  1  0
 26 30  1  0
 27 26  1  0
 28 29  1  0
 28 27  1  0
 29 25  1  0
 30 31  2  0
 31 32  1  0
 33 32  2  0
 34 33  1  0
 35  9  1  0
 35 36  1  0
 35 45  1  0
 36 39  1  0
 37 41  1  0
 37 36  1  0
 38 37  2  0
 41 40  1  0
 43 41  1  0
 43 44  1  0
 43 42  1  0
 45 48  1  1
 45 46  1  0
 47 45  1  0
 50 52  1  0
 51 53  1  0
 51 54  1  0
 53 55  1  0
 54 56  1  0
 54 50  1  0
 55 49  1  0
 55 52  1  0
 56 62  1  0
 57 62  1  0
 58 59  1  0
 58 57  1  0
 60 59  1  0
 60 67  1  0
 60 61  1  0
 62 61  1  0
 63 56  2  0
 64 65  2  0
 65 84  1  0
 66 65  1  0
 66 69  1  0
 67 64  1  0
 67 68  1  0
 68 66  2  0
 69 70  1  0
 70 71  2  0
 72 75  1  0
 72 71  1  0
 73 72  2  0
 74 73  1  0
 74 69  2  0
 75 76  1  0
 76 77  1  0
 77 78  2  0
 79 78  1  0
 79 83  1  0
 80 79  2  0
 81 76  2  0
 81 80  1  0
 82 81  1  0
 84 85  1  0
 85 88  1  0
 85 87  1  0
 86 84  2  0
 89 90  1  0
 89 64  1  0
 91 89  1  0
 93 94  1  0
 94 92  1  0
M  ISO  4   7 101   8 101  54 100  56 100
M  END
>  <TORSDO>  (94) 
F 24

>  <SCORE>  (94) 
-12.183

>  <name>  (94) 
94

>  <ligand_id>  (94) 
94

>  <original_smiles>  (94) 
[H]c1c([H])c([H])c2c(c1[H])C([H])([H])C([H])([H])C([H])([H])C2([H])N([H])C(=O)C1([H])N(C(=O)C([H])(N([H])C(=O)C([H])(N([H])C([H])([H])[H])C([H])([H])[H])C(C([H])([H])[H])(C([H])([H])[H])C([H])([H])[H])C([H])([H])c2c([H])c(OC([H])([H])C([H])([H])C([H])([H])[N+]([H])(C([H])([H])[H])C([H])(C([H])([H])C([H])([H])C([H])([H])[H])C([H])([H])C3([H])C([H])([H])C([H])([H])C([H])(C(=O)N4C([H])([H])C([H])([H])C([H])([H])C([H])(n5nc(-c6c([H])c([H])c(Oc7c([H])c([H])c(F)c([H])c7F)c([H])c6[H])c(C(=O)N([H])[H])c5N([H])[H])C4([H])[H])C([H])([H])C3([H])[H])c([H])c([H])c2C1([H])[H]

>  <smiles>  (94) 
[H]c1c([H])c([H])c2c(c1[H])C([H])([H])C([H])([H])C([H])([H])C2([H])N([H])C(=O)C1([H])N(C(=O)C([H])(N([H])C(=O)C([H])(N([H])C([H])([H])[H])C([H])([H])[H])C(C([H])([H])[H])(C([H])([H])[H])C([H])([H])[H])C([H])([H])c2c([H])c(OC([H])([H])C([H])([H])C([H])([H])[N+]([H])(C([H])([H])[H])C([H])(C([H])([H])C([H])([H])C([H])([H])[H])C([H])([H])C3([H])C([H])([H])C([H])([H])C([H])(C(=O)N4C([H])([H])C([H])([H])C([H])([H])C([H])(n5nc(-c6c([H])c([H])c(Oc7c([H])c([H])c(F)c([H])c7F)c([H])c6[H])c(C(=O)N([H])[H])c5N([H])[H])C4([H])[H])C([H])([H])C3([H])[H])c([H])c([H])c2C1([H])[H]

$$$$
95:0:0
     RDKit          3D

 94101  0  0  1  0  0  0  0  0999 V2000
  -29.9060  -18.5120   19.9550 C   0  0  0  0  0  3  0  0  0  0  0  0
  -31.3920  -15.8890   19.3510 C   0  0  0  0  0  0  0  0  0  0  0  0
  -30.7680  -13.9670   17.7870 C   0  0  0  0  0  2  0  0  0  0  0  0
  -29.2760  -13.1900   16.9130 C   0  0  0  0  0  3  0  0  0  0  0  0
  -27.6360  -12.7280   17.6430 C   0  0  0  0  0  3  0  0  0  0  0  0
  -27.0370  -13.2490   19.2760 C   0  0  0  0  0  3  0  0  0  0  0  0
  -28.0950  -13.9250   20.6560 C   0  0  0  0  0  2  0  0  0  0  0  0
  -30.6650  -14.6730   19.4940 N   0  0  0  0  0  2  0  0  0  0  0  0
  -32.4980  -15.5230   18.9720 O   0  0  0  0  0  0  0  0  0  0  0  0
  -30.9420  -17.3690   19.2380 N   0  0  0  0  0  0  0  0  0  0  0  0
  -25.0420  -13.9630   20.2790 C   0  0  0  0  0  0  0  0  0  0  0  0
  -24.0820  -13.1900   20.7990 C   0  0  0  0  0  0  0  0  0  0  0  0
  -24.5350  -11.8370   20.6490 C   0  0  0  0  0  0  0  0  0  0  0  0
  -25.9120  -12.9960   19.8420 N   0  0  0  0  0  0  0  0  0  0  0  0
  -25.7230  -11.7440   20.1330 N   0  0  0  0  0  0  0  0  0  0  0  0
  -23.8970  -10.5810   20.8450 C   0  0  0  0  0  0  0  0  0  0  0  0
  -24.4850   -9.6000   21.6680 C   0  0  0  0  0  3  0  0  0  0  0  0
  -23.8330   -8.3730   21.8440 C   0  0  0  0  0  3  0  0  0  0  0  0
  -22.6010   -8.1510   21.1870 C   0  0  0  0  0  0  0  0  0  0  0  0
  -22.0580   -9.1180   20.3230 C   0  0  0  0  0  3  0  0  0  0  0  0
  -22.7110  -10.3360   20.1400 C   0  0  0  0  0  3  0  0  0  0  0  0
  -21.8710   -7.0040   21.3110 O   0  0  0  0  0  0  0  0  0  0  0  0
  -21.8980   -6.2740   22.4610 C   0  0  0  0  0  0  0  0  0  0  0  0
  -21.5580   -6.8350   23.7130 C   0  0  0  0  0  3  0  0  0  0  0  0
  -21.5390   -6.0190   24.8600 C   0  0  0  0  0  3  0  0  0  0  0  0
  -21.8480   -4.6500   24.7560 C   0  0  0  0  0  0  0  0  0  0  0  0
  -22.1800   -4.0940   23.5110 C   0  0  0  0  0  3  0  0  0  0  0  0
  -22.2060   -4.9060   22.3660 C   0  0  0  0  0  0  0  0  0  0  0  0
  -22.5160   -4.3700   21.1600 F   0  0  0  0  0  0  0  0  0  0  0  0
  -21.8080   -3.8610   25.8550 F   0  0  0  0  0  0  0  0  0  0  0  0
  -22.7730  -13.6920   21.2590 C   0  0  0  0  0  0  0  0  0  0  0  0
  -22.1790  -12.9840   22.2010 N   0  0  0  0  0  0  0  0  0  0  0  0
  -22.3020  -14.7370   20.8110 O   0  0  0  0  0  0  0  0  0  0  0  0
  -22.5810  -12.1250   22.5420 H   0  0  0  0  0  0  0  0  0  0  0  0
  -21.2870  -13.2880   22.5650 H   0  0  0  0  0  0  0  0  0  0  0  0
  -25.2300  -15.3480   20.0930 N   0  0  0  0  0  0  0  0  0  0  0  0
  -24.5710  -16.0730   20.3590 H   0  0  0  0  0  0  0  0  0  0  0  0
  -26.1120  -15.7120   19.7480 H   0  0  0  0  0  0  0  0  0  0  0  0
  -31.6360  -18.1690   18.1800 C   0  0  0  0  0  2  0  0  0  0  0  0
  -31.3720  -18.7280   15.5970 C   0  0  0  0  0  1  0  0  0  0  0  0
  -30.6900  -18.5780   16.9900 C   0  0  0  0  0  2  0  0  0  0  0  0
  -28.7420  -17.4480   20.3300 C   0  0  0  0  0  2  0  0  0  0  0  0
  -31.3420  -13.6190   22.6780 C   0  0  0  0  0  2  0  0  0  0  0  0
  -30.0010  -12.9990   21.8890 C   0  0  0  0  0  1  0  0  0  0  0  0
  -31.5990  -15.2520   22.7240 C   0  0  0  0  0  3  0  0  0  0  0  0
  -28.7320  -14.5050   20.8370 C   0  0  0  0  0  2  0  0  0  0  0  0
  -30.6420  -16.4320   22.0450 C   0  0  0  0  0  0  0  0  0  0  0  0
  -29.2520  -16.1600   21.1060 C   0  0  0  0  0  3  0  0  0  0  0  0
  -30.9450  -17.9680   24.0760 C   0  0  0  0  0  1  0  0  0  0  0  0
  -30.9910  -17.8350   22.5350 C   0  0  0  0  0  2  0  0  0  0  0  0
  -29.3250  -20.3020   19.4500 C   0  0  0  0  0  3  0  0  0  0  0  0
  -28.9860  -22.0950   20.1130 C   0  0  0  0  0  3  0  0  0  0  0  0
  -28.1100  -23.7710   19.6700 C   0  0  0  0  0  2  0  0  0  0  0  0
  -28.1290  -25.5070   20.0000 O   0  0  0  0  0  0  0  0  0  0  0  0
  -24.5580  -31.7120   23.0590 C   0  0  0  0  0  0  0  0  0  0  0  0
  -27.1130  -26.6890   19.9650 C   0  0  0  0  0  0  0  0  0  0  0  0
  -23.3530  -30.3030   21.4410 C   0  0  0  0  0  3  0  0  0  0  0  0
  -24.7940  -28.6740   19.9890 C   0  0  0  0  0  0  0  0  0  0  0  0
  -25.9250  -30.4780   21.2640 C   0  0  0  0  0  2  0  0  0  0  0  0
  -25.9950  -29.0480   20.6030 C   0  0  0  0  0  0  0  0  0  0  0  0
  -27.1330  -28.0800   20.5670 C   0  0  0  0  0  3  0  0  0  0  0  0
  -25.8650  -26.5180   19.3130 C   0  0  0  0  0  3  0  0  0  0  0  0
  -24.7660  -27.4330   19.3260 C   0  0  0  0  0  3  0  0  0  0  0  0
  -23.5740  -29.6070   20.0650 C   0  0  0  0  0  2  0  0  0  0  0  0
  -24.6380  -30.8590   21.9780 N   0  0  0  0  0  0  0  0  0  0  0  0
  -23.4720  -32.0040   23.5890 O   0  0  0  0  0  0  0  0  0  0  0  0
  -22.6580  -29.3250   22.4250 C   0  0  0  0  0  0  0  0  0  0  0  0
  -21.3290  -29.1420   22.3120 N   0  0  0  0  0  0  0  0  0  0  0  0
  -23.3340  -28.7280   23.2670 O   0  0  0  0  0  0  0  0  0  0  0  0
  -20.8260  -29.6840   21.6210 H   0  0  0  0  0  0  0  0  0  0  0  0
  -17.9910  -27.7910   22.8180 C   0  0  0  0  0  0  0  0  0  0  0  0
  -20.5360  -28.1920   23.1020 C   0  0  0  0  0  3  0  0  0  0  0  0
  -20.7060  -26.7470   22.5800 C   0  0  0  0  0  2  0  0  0  0  0  0
  -19.6360  -26.3420   21.5570 C   0  0  0  0  0  2  0  0  0  0  0  0
  -18.2400  -26.4360   22.1790 C   0  0  0  0  0  2  0  0  0  0  0  0
  -19.0680  -28.6190   23.2400 C   0  0  0  0  0  0  0  0  0  0  0  0
  -18.7790  -29.8800   23.8040 C   0  0  0  0  0  3  0  0  0  0  0  0
  -17.4480  -30.3210   23.9460 C   0  0  0  0  0  3  0  0  0  0  0  0
  -16.3880  -29.4950   23.5350 C   0  0  0  0  0  3  0  0  0  0  0  0
  -16.6590  -28.2320   22.9800 C   0  0  0  0  0  3  0  0  0  0  0  0
  -25.8240  -32.3750   23.6790 C   0  0  0  0  0  3  0  0  0  0  0  0
  -25.4810  -33.7570   24.0740 N   0  0  0  0  0  0  0  0  0  0  0  0
  -25.7830  -34.8590   23.3720 C   0  0  0  0  0  0  0  0  0  0  0  0
  -26.4360  -34.8230   22.3250 O   0  0  0  0  0  0  0  0  0  0  0  0
  -24.8900  -33.8580   24.8860 H   0  0  0  0  0  0  0  0  0  0  0  0
  -24.0180  -36.6470   23.1520 C   0  0  0  0  0  1  0  0  0  0  0  0
  -25.2840  -36.2180   23.9090 C   0  0  0  0  0  3  0  0  0  0  0  0
  -27.4250  -37.1100   24.7200 C   0  0  0  0  0  1  0  0  0  0  0  0
  -26.2940  -37.2950   23.8170 N   0  0  0  0  0  0  0  0  0  0  0  0
  -25.8740  -38.1990   24.0170 H   0  0  0  0  0  0  0  0  0  0  0  0
  -26.3860  -31.5850   24.9260 C   0  0  1  0  0  0  0  0  0  0  0  0
  -25.3350  -31.3030   26.0270 C   0  0  0  0  0  1  0  0  0  0  0  0
  -26.9800  -30.2240   24.5010 C   0  0  0  0  0  1  0  0  0  0  0  0
  -27.5430  -32.3870   25.5690 C   0  0  0  0  0  1  0  0  0  0  0  0
  1 51  1  0
  1 42  1  0
  2  8  1  0
  3  8  1  0
  4  5  2  0
  4  3  1  0
  6  5  1  0
  6 14  1  0
  6  7  1  0
  7 46  1  0
  9  2  2  0
 10  2  1  0
 10  1  1  0
 11 12  2  0
 12 31  1  0
 13 12  1  0
 13 16  1  0
 14 15  1  0
 14 11  1  0
 15 13  2  0
 16 17  1  0
 17 18  2  0
 19 22  1  0
 19 18  1  0
 20 19  2  0
 21 20  1  0
 21 16  2  0
 22 23  1  0
 23 24  1  0
 24 25  2  0
 26 25  1  0
 26 30  1  0
 27 26  2  0
 28 23  2  0
 28 27  1  0
 29 28  1  0
 31 32  1  0
 32 34  1  0
 32 35  1  0
 33 31  2  0
 36 11  1  0
 36 37  1  0
 38 36  1  0
 39 10  1  0
 40 41  1  0
 41 39  1  0
 42 48  1  0
 43 45  1  0
 44 43  1  0
 46 48  1  0
 47 50  1  0
 47 45  2  0
 48 47  1  0
 50 49  1  0
 51 52  2  0
 53 54  1  0
 53 52  1  0
 55 66  2  0
 56 54  1  0
 56 61  1  0
 57 65  1  0
 57 67  1  0
 58 64  1  0
 58 60  1  0
 59 65  1  0
 60 59  1  0
 61 60  2  0
 62 63  1  0
 62 56  2  0
 63 58  2  0
 64 57  1  0
 65 55  1  0
 67 69  2  0
 68 67  1  0
 70 68  1  0
 71 80  2  0
 71 76  1  0
 72 68  1  0
 72 76  1  0
 73 72  1  0
 74 75  1  0
 74 73  1  0
 75 71  1  0
 76 77  2  0
 77 78  1  0
 79 78  2  0
 80 79  1  0
 81 55  1  0
 81 82  1  0
 81 91  1  0
 82 85  1  0
 83 87  1  0
 83 82  1  0
 84 83  2  0
 87 86  1  0
 89 87  1  0
 89 90  1  0
 89 88  1  0
 91 94  1  1
 91 92  1  0
 93 91  1  0
M  ISO  4   2 100  10 100  53 101  54 101
M  END
>  <TORSDO>  (95) 
F 24

>  <SCORE>  (95) 
-7.090

>  <name>  (95) 
95

>  <ligand_id>  (95) 
95

>  <original_smiles>  (95) 
[H]c1c([H])c([H])c(C([H])([H])C([H])(N(C(=O)N2C([H])([H])C([H])([H])C([H])([H])C([H])(n3nc(-c4c([H])c([H])c(Oc5c([H])c([H])c(F)c([H])c5F)c([H])c4[H])c(C(=O)N([H])[H])c3N([H])[H])C2([H])[H])C([H])([H])C([H])([H])C([H])([H])[H])C([H])([H])C([H])([H])C([H])([H])Oc2c([H])c([H])c3c(c2[H])C([H])([H])N(C(=O)C([H])(N([H])C(=O)C([H])(N([H])C([H])([H])[H])C([H])([H])[H])C(C([H])([H])[H])(C([H])([H])[H])C([H])([H])[H])C([H])(C(=O)N([H])C2([H])c4c([H])c([H])c([H])c([H])c4C([H])([H])C([H])([H])C2([H])[H])C3([H])[H])c(C([H])([H])C([H])([H])[H])c1[H]

>  <smiles>  (95) 
[H]c1c([H])c([H])c(C([H])([H])C([H])(N(C(=O)N2C([H])([H])C([H])([H])C([H])([H])C([H])(n3nc(-c4c([H])c([H])c(Oc5c([H])c([H])c(F)c([H])c5F)c([H])c4[H])c(C(=O)N([H])[H])c3N([H])[H])C2([H])[H])C([H])([H])C([H])([H])C([H])([H])[H])C([H])([H])C([H])([H])C([H])([H])Oc2c([H])c([H])c3c(c2[H])C([H])([H])N(C(=O)C([H])(N([H])C(=O)C([H])(N([H])C([H])([H])[H])C([H])([H])[H])C(C([H])([H])[H])(C([H])([H])[H])C([H])([H])[H])C([H])(C(=O)N([H])C2([H])c4c([H])c([H])c([H])c([H])c4C([H])([H])C([H])([H])C2([H])[H])C3([H])[H])c(C([H])([H])C([H])([H])[H])c1[H]

$$$$
96:0:0
     RDKit          3D

 99107  0  0  1  0  0  0  0  0999 V2000
  -29.4760  -22.5550   21.0080 C   0  0  0  0  0  2  0  0  0  0  0  0
  -29.7010  -20.3630   22.3650 C   0  0  0  0  0  2  0  0  0  0  0  0
  -30.2880  -20.4260   19.9400 C   0  0  0  0  0  2  0  0  0  0  0  0
  -30.5850  -19.1230   22.5670 C   0  0  0  0  0  2  0  0  0  0  0  0
  -31.1810  -19.1940   20.0970 C   0  0  0  0  0  2  0  0  0  0  0  0
  -30.2550  -21.2480   21.2340 C   0  0  0  0  0  3  0  0  0  0  0  0
  -30.7600  -18.2810   21.2740 C   0  0  0  0  0  3  0  0  0  0  0  0
  -31.7860  -17.1260   21.4810 C   0  0  0  0  0  3  0  0  0  0  0  0
  -31.5230  -16.3900   22.7340 N   0  0  0  0  0  4  0  0  0  0  0  0
  -30.6020  -15.9870   22.7440 H   0  0  0  0  0  0  0  0  0  0  0  0
  -31.5950  -17.0150   23.5180 H   0  0  0  0  0  0  0  0  0  0  0  0
  -32.1980  -15.6590   22.8680 H   0  0  0  0  0  0  0  0  0  0  0  0
  -31.9210  -16.1560   20.2770 C   0  0  0  0  0  2  0  0  0  0  0  0
  -30.7430  -15.1700   20.0970 C   0  0  0  0  0  2  0  0  0  0  0  0
  -30.9960  -14.0530   19.0670 C   0  0  0  0  0  0  0  0  0  0  0  0
  -30.5500  -11.7430   18.2960 C   0  0  0  0  0  2  0  0  0  0  0  0
  -29.4230  -11.6610   17.2510 C   0  0  0  0  0  2  0  0  0  0  0  0
  -28.0430  -11.5860   17.9320 C   0  0  0  0  0  2  0  0  0  0  0  0
  -27.8580  -12.6830   19.0130 C   0  0  0  0  0  3  0  0  0  0  0  0
  -29.0680  -12.7110   19.9700 C   0  0  0  0  0  2  0  0  0  0  0  0
  -30.2920  -12.8970   19.1700 N   0  0  0  0  0  0  0  0  0  0  0  0
  -31.8580  -14.2230   18.1980 O   0  0  0  0  0  0  0  0  0  0  0  0
  -25.7580  -13.4690   20.2830 C   0  0  0  0  0  0  0  0  0  0  0  0
  -24.6900  -12.7840   20.7940 C   0  0  0  0  0  0  0  0  0  0  0  0
  -24.9420  -11.4030   20.5260 C   0  0  0  0  0  0  0  0  0  0  0  0
  -26.6020  -12.5120   19.7400 N   0  0  0  0  0  0  0  0  0  0  0  0
  -26.1230  -11.2580   19.9400 N   0  0  0  0  0  0  0  0  0  0  0  0
  -24.1030  -10.2190   20.7410 C   0  0  0  0  0  0  0  0  0  0  0  0
  -24.4900   -9.1920   21.6300 C   0  0  0  0  0  3  0  0  0  0  0  0
  -23.6600   -8.0690   21.8330 C   0  0  0  0  0  3  0  0  0  0  0  0
  -22.4260   -7.9670   21.1480 C   0  0  0  0  0  0  0  0  0  0  0  0
  -22.0560   -8.9800   20.2460 C   0  0  0  0  0  3  0  0  0  0  0  0
  -22.8860  -10.0950   20.0420 C   0  0  0  0  0  3  0  0  0  0  0  0
  -21.5670   -6.9000   21.2620 O   0  0  0  0  0  0  0  0  0  0  0  0
  -21.3510   -6.2730   22.4630 C   0  0  0  0  0  0  0  0  0  0  0  0
  -20.8560   -6.9690   23.5870 C   0  0  0  0  0  3  0  0  0  0  0  0
  -20.5850   -6.2720   24.7820 C   0  0  0  0  0  3  0  0  0  0  0  0
  -20.7980   -4.8820   24.8510 C   0  0  0  0  0  0  0  0  0  0  0  0
  -21.2870   -4.1880   23.7300 C   0  0  0  0  0  3  0  0  0  0  0  0
  -21.5610   -4.8830   22.5390 C   0  0  0  0  0  0  0  0  0  0  0  0
  -22.0100   -4.2050   21.4550 F   0  0  0  0  0  0  0  0  0  0  0  0
  -20.5310   -4.2100   25.9970 F   0  0  0  0  0  0  0  0  0  0  0  0
  -23.4560  -13.3770   21.4140 C   0  0  0  0  0  0  0  0  0  0  0  0
  -22.8350  -12.6650   22.3470 N   0  0  0  0  0  0  0  0  0  0  0  0
  -23.0630  -14.5010   21.1030 O   0  0  0  0  0  0  0  0  0  0  0  0
  -23.1690  -11.7510   22.6170 H   0  0  0  0  0  0  0  0  0  0  0  0
  -22.0110  -13.0380   22.7980 H   0  0  0  0  0  0  0  0  0  0  0  0
  -26.0730  -14.8240   20.2140 N   0  0  0  0  0  0  0  0  0  0  0  0
  -25.4490  -15.5460   20.5560 H   0  0  0  0  0  0  0  0  0  0  0  0
  -26.8990  -15.1970   19.7620 H   0  0  0  0  0  0  0  0  0  0  0  0
  -29.0970  -23.3480   22.2790 C   0  0  0  0  0  3  0  0  0  0  0  0
  -28.8450  -24.7680   21.9380 N   0  0  0  0  0  4  0  0  0  0  0  0
  -28.0660  -24.8110   21.2990 H   0  0  0  0  0  0  0  0  0  0  0  0
  -28.5440  -25.2300   22.7830 H   0  0  0  0  0  0  0  0  0  0  0  0
  -29.9710  -25.5470   21.3580 C   0  0  0  0  0  2  0  0  0  0  0  0
  -29.4900  -26.9540   21.0290 C   0  0  0  0  0  2  0  0  0  0  0  0
  -28.5150  -26.8060   20.0030 O   0  0  0  0  0  0  0  0  0  0  0  0
  -24.6740  -31.7770   23.3830 C   0  0  0  0  0  0  0  0  0  0  0  0
  -27.3710  -27.5630   20.0880 C   0  0  0  0  0  0  0  0  0  0  0  0
  -23.4760  -30.4380   21.6800 C   0  0  0  0  0  3  0  0  0  0  0  0
  -24.9400  -28.9950   20.1740 C   0  0  0  0  0  0  0  0  0  0  0  0
  -25.9840  -30.8610   21.4750 C   0  0  0  0  0  2  0  0  0  0  0  0
  -26.0870  -29.5230   20.7790 C   0  0  0  0  0  0  0  0  0  0  0  0
  -27.3030  -28.8190   20.7340 C   0  0  0  0  0  3  0  0  0  0  0  0
  -26.2100  -27.0420   19.4820 C   0  0  0  0  0  3  0  0  0  0  0  0
  -24.9950  -27.7520   19.5190 C   0  0  0  0  0  3  0  0  0  0  0  0
  -23.6810  -29.8230   20.2680 C   0  0  0  0  0  2  0  0  0  0  0  0
  -24.7310  -31.0340   22.2410 N   0  0  0  0  0  0  0  0  0  0  0  0
  -23.5930  -32.0080   23.9420 O   0  0  0  0  0  0  0  0  0  0  0  0
  -22.8470  -29.3630   22.5910 C   0  0  0  0  0  0  0  0  0  0  0  0
  -21.5420  -29.1110   22.4000 N   0  0  0  0  0  0  0  0  0  0  0  0
  -23.5310  -28.7580   23.4210 O   0  0  0  0  0  0  0  0  0  0  0  0
  -21.0530  -29.6520   21.7010 H   0  0  0  0  0  0  0  0  0  0  0  0
  -18.2330  -27.6930   22.6680 C   0  0  0  0  0  0  0  0  0  0  0  0
  -20.7430  -28.1150   23.1120 C   0  0  0  0  0  3  0  0  0  0  0  0
  -20.9810  -26.6980   22.5400 C   0  0  0  0  0  2  0  0  0  0  0  0
  -19.9720  -26.3110   21.4550 C   0  0  0  0  0  2  0  0  0  0  0  0
  -18.5430  -26.3620   22.0040 C   0  0  0  0  0  2  0  0  0  0  0  0
  -19.2680  -28.5230   23.1740 C   0  0  0  0  0  0  0  0  0  0  0  0
  -18.9290  -29.7680   23.7490 C   0  0  0  0  0  3  0  0  0  0  0  0
  -17.5890  -30.1870   23.8210 C   0  0  0  0  0  3  0  0  0  0  0  0
  -16.5660  -29.3510   23.3360 C   0  0  0  0  0  3  0  0  0  0  0  0
  -16.8890  -28.1060   22.7670 C   0  0  0  0  0  3  0  0  0  0  0  0
  -25.9570  -32.3920   24.0260 C   0  0  0  0  0  3  0  0  0  0  0  0
  -26.4070  -31.6520   25.3440 C   0  0  1  0  0  0  0  0  0  0  0  0
  -25.2580  -31.4280   26.3580 C   0  0  0  0  0  1  0  0  0  0  0  0
  -27.0110  -30.2700   25.0020 C   0  0  0  0  0  1  0  0  0  0  0  0
  -27.5200  -32.4610   26.0500 C   0  0  0  0  0  1  0  0  0  0  0  0
  -25.6810  -33.8090   24.2900 N   0  0  0  0  0  0  0  0  0  0  0  0
  -26.0790  -34.8180   23.5060 C   0  0  0  0  0  0  0  0  0  0  0  0
  -26.7840  -34.6530   22.5070 O   0  0  0  0  0  0  0  0  0  0  0  0
  -25.0560  -34.0110   25.0570 H   0  0  0  0  0  0  0  0  0  0  0  0
  -24.4100  -36.6370   23.0270 C   0  0  0  0  0  1  0  0  0  0  0  0
  -25.6200  -36.2380   23.8860 C   0  0  0  0  0  3  0  0  0  0  0  0
  -27.7560  -37.1030   24.7330 C   0  0  0  0  0  1  0  0  0  0  0  0
  -26.6840  -37.2570   23.7530 N   0  0  0  0  0  0  0  0  0  0  0  0
  -26.3010  -38.1940   23.8490 H   0  0  0  0  0  0  0  0  0  0  0  0
  -29.7570  -24.0470   24.6780 C   0  0  0  0  0  1  0  0  0  0  0  0
  -30.1030  -23.1930   23.4470 C   0  0  0  0  0  2  0  0  0  0  0  0
  2  4  1  0
  3  5  1  0
  3  6  1  0
  5  7  1  0
  6  1  1  0
  6  2  1  0
  7  8  1  0
  7  4  1  0
  8 13  1  0
  8  9  1  0
  9 10  1  0
  9 12  1  0
  9 11  1  0
 14 13  1  0
 15 21  1  0
 15 14  1  0
 16 21  1  0
 17 18  1  0
 17 16  1  0
 19 18  1  0
 19 26  1  0
 19 20  1  0
 21 20  1  0
 22 15  2  0
 23 24  2  0
 24 43  1  0
 25 28  1  0
 25 24  1  0
 26 27  1  0
 26 23  1  0
 27 25  2  0
 28 29  1  0
 29 30  2  0
 31 34  1  0
 31 30  1  0
 32 31  2  0
 33 32  1  0
 33 28  2  0
 34 35  1  0
 35 40  2  0
 35 36  1  0
 36 37  2  0
 37 38  1  0
 38 42  1  0
 39 38  2  0
 40 39  1  0
 41 40  1  0
 43 44  1  0
 44 46  1  0
 44 47  1  0
 45 43  2  0
 48 23  1  0
 48 49  1  0
 50 48  1  0
 51  1  1  0
 51 99  1  0
 52 51  1  0
 52 54  1  0
 53 52  1  0
 55 52  1  0
 56 55  1  0
 57 59  1  0
 57 56  1  0
 58 69  2  0
 59 64  1  0
 60 68  1  0
 60 70  1  0
 61 67  1  0
 61 63  1  0
 62 68  1  0
 63 62  1  0
 64 63  2  0
 65 66  1  0
 65 59  2  0
 66 61  2  0
 67 60  1  0
 68 58  1  0
 70 72  2  0
 71 70  1  0
 73 71  1  0
 74 83  2  0
 74 79  1  0
 75 71  1  0
 75 79  1  0
 76 75  1  0
 77 78  1  0
 77 76  1  0
 78 74  1  0
 79 80  2  0
 80 81  1  0
 82 81  2  0
 83 82  1  0
 84 58  1  0
 84 89  1  0
 84 85  1  0
 85 88  1  1
 85 86  1  0
 87 85  1  0
 89 92  1  0
 90 94  1  0
 90 89  1  0
 91 90  2  0
 94 93  1  0
 96 97  1  0
 96 94  1  0
 96 95  1  0
 99 98  1  0
M  ISO  4  14 100  15 100  56 101  57 101
M  END
>  <TORSDO>  (96) 
F 26

>  <SCORE>  (96) 
-7.704

>  <name>  (96) 
96

>  <ligand_id>  (96) 
96

>  <original_smiles>  (96) 
[H]c1c([H])c([H])c2c(c1[H])C([H])([H])C([H])([H])C([H])([H])C2([H])N([H])C(=O)C1([H])N(C(=O)C([H])(N([H])C(=O)C([H])(N([H])C([H])([H])[H])C([H])([H])[H])C(C([H])([H])[H])(C([H])([H])[H])C([H])([H])[H])C([H])([H])c2c([H])c(OC([H])([H])C([H])([H])[N+]([H])([H])C([H])(C([H])([H])C([H])([H])[H])C([H])([H])C3([H])C([H])([H])C([H])([H])C([H])(C([H])(C([H])([H])C([H])([H])C(=O)N4C([H])([H])C([H])([H])C([H])([H])C([H])(n5nc(-c6c([H])c([H])c(Oc7c([H])c([H])c(F)c([H])c7F)c([H])c6[H])c(C(=O)N([H])[H])c5N([H])[H])C4([H])[H])[N+]([H])([H])[H])C([H])([H])C3([H])[H])c([H])c([H])c2C1([H])[H]

>  <smiles>  (96) 
[H]c1c([H])c([H])c2c(c1[H])C([H])([H])C([H])([H])C([H])([H])C2([H])N([H])C(=O)C1([H])N(C(=O)C([H])(N([H])C(=O)C([H])(N([H])C([H])([H])[H])C([H])([H])[H])C(C([H])([H])[H])(C([H])([H])[H])C([H])([H])[H])C([H])([H])c2c([H])c(OC([H])([H])C([H])([H])[N+]([H])([H])C([H])(C([H])([H])C([H])([H])[H])C([H])([H])C3([H])C([H])([H])C([H])([H])C([H])(C([H])(C([H])([H])C([H])([H])C(=O)N4C([H])([H])C([H])([H])C([H])([H])C([H])(n5nc(-c6c([H])c([H])c(Oc7c([H])c([H])c(F)c([H])c7F)c([H])c6[H])c(C(=O)N([H])[H])c5N([H])[H])C4([H])[H])[N+]([H])([H])[H])C([H])([H])C3([H])[H])c([H])c([H])c2C1([H])[H]

$$$$
97:0:0
     RDKit          3D

 94102  0  0  1  0  0  0  0  0999 V2000
  -28.3610  -19.9710   21.6590 C   0  0  0  0  0  2  0  0  0  0  0  0
  -29.1190  -18.7590   21.3380 N   0  0  0  0  0  0  0  0  0  0  0  0
  -29.7560  -18.3950   22.0400 H   0  0  0  0  0  0  0  0  0  0  0  0
  -29.3410  -17.3890   17.3410 C   0  0  0  0  0  3  0  0  0  0  0  0
  -28.3300  -18.2730   17.7270 C   0  0  0  0  0  3  0  0  0  0  0  0
  -30.2100  -16.8670   18.3110 C   0  0  0  0  0  3  0  0  0  0  0  0
  -28.2460  -18.6780   19.0650 C   0  0  0  0  0  3  0  0  0  0  0  0
  -30.0860  -17.1640   19.6980 C   0  0  0  0  0  0  0  0  0  0  0  0
  -29.1440  -18.1890   20.0500 C   0  0  0  0  0  0  0  0  0  0  0  0
  -30.2840  -16.2410   22.1170 C   0  0  0  0  0  1  0  0  0  0  0  0
  -32.2410  -17.2880   21.0140 C   0  0  0  0  0  1  0  0  0  0  0  0
  -30.9860  -16.4060   20.7410 C   0  0  2  0  0  0  0  0  0  0  0  0
  -31.5160  -15.0130   20.1910 C   0  0  0  0  0  0  0  0  0  0  0  0
  -31.1210  -12.8330   19.0790 C   0  0  0  0  0  2  0  0  0  0  0  0
  -30.1760  -12.9760   17.8640 C   0  0  0  0  0  2  0  0  0  0  0  0
  -28.6930  -12.9480   18.2870 C   0  0  0  0  0  2  0  0  0  0  0  0
  -28.3910  -13.8100   19.5400 C   0  0  0  0  0  3  0  0  0  0  0  0
  -29.4460  -13.5590   20.6340 C   0  0  0  0  0  2  0  0  0  0  0  0
  -30.7700  -13.8670   20.0760 N   0  0  0  0  0  0  0  0  0  0  0  0
  -32.6440  -15.0400   19.6870 O   0  0  0  0  0  0  0  0  0  0  0  0
  -26.0170  -14.4990   20.2420 C   0  0  0  0  0  0  0  0  0  0  0  0
  -24.9270  -13.7610   20.6210 C   0  0  0  0  0  0  0  0  0  0  0  0
  -25.3510  -12.3960   20.6100 C   0  0  0  0  0  0  0  0  0  0  0  0
  -27.0360  -13.5850   20.0270 N   0  0  0  0  0  0  0  0  0  0  0  0
  -26.6390  -12.3160   20.3060 N   0  0  0  0  0  0  0  0  0  0  0  0
  -24.5920  -11.1580   20.8170 C   0  0  0  0  0  0  0  0  0  0  0  0
  -24.9630  -10.2220   21.8090 C   0  0  0  0  0  3  0  0  0  0  0  0
  -24.2070   -9.0460   22.0010 C   0  0  0  0  0  3  0  0  0  0  0  0
  -23.0660   -8.7980   21.2010 C   0  0  0  0  0  0  0  0  0  0  0  0
  -22.7180   -9.7210   20.1980 C   0  0  0  0  0  3  0  0  0  0  0  0
  -23.4750  -10.8870   20.0040 C   0  0  0  0  0  3  0  0  0  0  0  0
  -22.2860   -7.6720   21.3010 O   0  0  0  0  0  0  0  0  0  0  0  0
  -22.1090   -7.0230   22.4960 C   0  0  0  0  0  0  0  0  0  0  0  0
  -21.5820   -7.6790   23.6300 C   0  0  0  0  0  3  0  0  0  0  0  0
  -21.3500   -6.9570   24.8170 C   0  0  0  0  0  3  0  0  0  0  0  0
  -21.6380   -5.5790   24.8720 C   0  0  0  0  0  0  0  0  0  0  0  0
  -22.1600   -4.9240   23.7430 C   0  0  0  0  0  3  0  0  0  0  0  0
  -22.3910   -5.6440   22.5580 C   0  0  0  0  0  0  0  0  0  0  0  0
  -22.8740   -5.0030   21.4660 F   0  0  0  0  0  0  0  0  0  0  0  0
  -21.4100   -4.8830   26.0110 F   0  0  0  0  0  0  0  0  0  0  0  0
  -23.5440  -14.2780   20.8890 C   0  0  0  0  0  0  0  0  0  0  0  0
  -22.8070  -13.6170   21.7740 N   0  0  0  0  0  0  0  0  0  0  0  0
  -23.1270  -15.3030   20.3520 O   0  0  0  0  0  0  0  0  0  0  0  0
  -23.1570  -12.7830   22.2220 H   0  0  0  0  0  0  0  0  0  0  0  0
  -21.8830  -13.9470   22.0090 H   0  0  0  0  0  0  0  0  0  0  0  0
  -26.2220  -15.8610   20.0480 N   0  0  0  0  0  0  0  0  0  0  0  0
  -25.4850  -16.5490   20.1610 H   0  0  0  0  0  0  0  0  0  0  0  0
  -27.1020  -16.2680   19.7550 H   0  0  0  0  0  0  0  0  0  0  0  0
  -28.8710  -21.2520   20.9460 C   0  0  0  0  0  2  0  0  0  0  0  0
  -27.8440  -22.4050   21.0170 C   0  0  0  0  0  2  0  0  0  0  0  0
  -27.7970  -23.3260   19.7750 C   0  0  0  0  0  2  0  0  0  0  0  0
  -28.7680  -24.5240   19.7560 C   0  0  0  0  0  2  0  0  0  0  0  0
  -28.4150  -25.6410   20.7600 C   0  0  0  0  0  2  0  0  0  0  0  0
  -28.5440  -26.9470   20.1750 O   0  0  0  0  0  0  0  0  0  0  0  0
  -24.6340  -31.9970   23.2740 C   0  0  0  0  0  0  0  0  0  0  0  0
  -27.3740  -27.6710   20.1410 C   0  0  0  0  0  0  0  0  0  0  0  0
  -23.4630  -30.5990   21.6030 C   0  0  0  0  0  3  0  0  0  0  0  0
  -24.9520  -29.1190   20.1550 C   0  0  0  0  0  0  0  0  0  0  0  0
  -25.9780  -31.0180   21.4190 C   0  0  0  0  0  2  0  0  0  0  0  0
  -26.0960  -29.6630   20.7550 C   0  0  0  0  0  0  0  0  0  0  0  0
  -27.3130  -28.9470   20.7410 C   0  0  0  0  0  3  0  0  0  0  0  0
  -26.2190  -27.1410   19.5270 C   0  0  0  0  0  3  0  0  0  0  0  0
  -25.0080  -27.8570   19.5380 C   0  0  0  0  0  3  0  0  0  0  0  0
  -23.6890  -29.9470   20.2130 C   0  0  0  0  0  2  0  0  0  0  0  0
  -24.7090  -31.2190   22.1570 N   0  0  0  0  0  0  0  0  0  0  0  0
  -23.5460  -32.2380   23.8140 O   0  0  0  0  0  0  0  0  0  0  0  0
  -22.8300  -29.5480   22.5440 C   0  0  0  0  0  0  0  0  0  0  0  0
  -21.5180  -29.3110   22.3780 N   0  0  0  0  0  0  0  0  0  0  0  0
  -23.5160  -28.9490   23.3760 O   0  0  0  0  0  0  0  0  0  0  0  0
  -21.0270  -29.8450   21.6740 H   0  0  0  0  0  0  0  0  0  0  0  0
  -18.1920  -27.9520   22.7480 C   0  0  0  0  0  0  0  0  0  0  0  0
  -20.7200  -28.3390   23.1240 C   0  0  0  0  0  3  0  0  0  0  0  0
  -20.9190  -26.9120   22.5660 C   0  0  0  0  0  2  0  0  0  0  0  0
  -19.8780  -26.5280   21.5100 C   0  0  0  0  0  2  0  0  0  0  0  0
  -18.4650  -26.6080   22.0950 C   0  0  0  0  0  2  0  0  0  0  0  0
  -19.2520  -28.7720   23.2180 C   0  0  0  0  0  0  0  0  0  0  0  0
  -18.9470  -30.0270   23.7870 C   0  0  0  0  0  3  0  0  0  0  0  0
  -17.6130  -30.4630   23.8950 C   0  0  0  0  0  3  0  0  0  0  0  0
  -16.5660  -29.6400   23.4430 C   0  0  0  0  0  3  0  0  0  0  0  0
  -16.8570  -28.3880   22.8760 C   0  0  0  0  0  3  0  0  0  0  0  0
  -25.9070  -32.6410   23.9090 C   0  0  0  0  0  3  0  0  0  0  0  0
  -25.5860  -34.0400   24.2170 N   0  0  0  0  0  0  0  0  0  0  0  0
  -25.9230  -35.0840   23.4470 C   0  0  0  0  0  0  0  0  0  0  0  0
  -26.6080  -34.9700   22.4270 O   0  0  0  0  0  0  0  0  0  0  0  0
  -24.9780  -34.2030   25.0060 H   0  0  0  0  0  0  0  0  0  0  0  0
  -24.1810  -36.8530   23.0500 C   0  0  0  0  0  1  0  0  0  0  0  0
  -25.4190  -36.4750   23.8780 C   0  0  0  0  0  3  0  0  0  0  0  0
  -27.5390  -37.3910   24.7110 C   0  0  0  0  0  1  0  0  0  0  0  0
  -26.4430  -37.5350   23.7570 N   0  0  0  0  0  0  0  0  0  0  0  0
  -26.0280  -38.4530   23.8870 H   0  0  0  0  0  0  0  0  0  0  0  0
  -26.4090  -31.8850   25.2000 C   0  0  1  0  0  0  0  0  0  0  0  0
  -25.2960  -31.6330   26.2440 C   0  0  0  0  0  1  0  0  0  0  0  0
  -27.0230  -30.5140   24.8270 C   0  0  0  0  0  1  0  0  0  0  0  0
  -27.5320  -32.7020   25.8820 C   0  0  0  0  0  1  0  0  0  0  0  0
  2  1  1  0
  2  3  1  0
  4  5  2  0
  4  6  1  0
  5  7  1  0
  6  8  2  0
  7  9  2  0
  8  9  1  0
  8 12  1  0
  9  2  1  0
 12 11  1  1
 12 10  1  0
 13 12  1  0
 14 19  1  0
 15 16  1  0
 15 14  1  0
 17 16  1  0
 17 24  1  0
 17 18  1  0
 19 13  1  0
 19 18  1  0
 20 13  2  0
 21 22  2  0
 22 41  1  0
 23 22  1  0
 23 26  1  0
 24 21  1  0
 24 25  1  0
 25 23  2  0
 26 27  1  0
 27 28  2  0
 29 32  1  0
 29 28  1  0
 30 29  2  0
 31 30  1  0
 31 26  2  0
 32 33  1  0
 33 38  2  0
 33 34  1  0
 34 35  2  0
 35 36  1  0
 36 40  1  0
 37 36  2  0
 38 37  1  0
 39 38  1  0
 41 42  1  0
 42 45  1  0
 42 44  1  0
 43 41  2  0
 46 47  1  0
 46 21  1  0
 48 46  1  0
 49 50  1  0
 49  1  1  0
 51 50  1  0
 52 51  1  0
 52 53  1  0
 54 53  1  0
 55 66  2  0
 56 54  1  0
 56 61  1  0
 57 65  1  0
 57 67  1  0
 58 64  1  0
 58 60  1  0
 59 65  1  0
 60 59  1  0
 61 60  2  0
 62 63  1  0
 62 56  2  0
 63 58  2  0
 64 57  1  0
 65 55  1  0
 67 69  2  0
 68 67  1  0
 70 68  1  0
 71 80  2  0
 71 76  1  0
 72 68  1  0
 72 76  1  0
 73 72  1  0
 74 75  1  0
 74 73  1  0
 75 71  1  0
 76 77  2  0
 77 78  1  0
 79 78  2  0
 80 79  1  0
 81 55  1  0
 81 82  1  0
 81 91  1  0
 82 85  1  0
 83 87  1  0
 83 82  1  0
 84 83  2  0
 87 86  1  0
 89 87  1  0
 89 90  1  0
 89 88  1  0
 91 94  1  1
 91 92  1  0
 93 91  1  0
M  ISO  4  12 100  13 100  53 101  54 101
M  END
>  <TORSDO>  (97) 
F 24

>  <SCORE>  (97) 
-9.285

>  <name>  (97) 
97

>  <ligand_id>  (97) 
97

>  <original_smiles>  (97) 
[H]c1c([H])c([H])c(C(C(=O)N2C([H])([H])C([H])([H])C([H])([H])C([H])(n3nc(-c4c([H])c([H])c(Oc5c([H])c([H])c(F)c([H])c5F)c([H])c4[H])c(C(=O)N([H])[H])c3N([H])[H])C2([H])[H])(C([H])([H])[H])C([H])([H])[H])c(N([H])C([H])([H])C([H])([H])C([H])([H])C([H])([H])C([H])([H])C([H])([H])Oc2c([H])c([H])c3c(c2[H])C([H])([H])N(C(=O)C([H])(N([H])C(=O)C([H])(N([H])C([H])([H])[H])C([H])([H])[H])C(C([H])([H])[H])(C([H])([H])[H])C([H])([H])[H])C([H])(C(=O)N([H])C2([H])c4c([H])c([H])c([H])c([H])c4C([H])([H])C([H])([H])C2([H])[H])C3([H])[H])c1[H]

>  <smiles>  (97) 
[H]c1c([H])c([H])c(C(C(=O)N2C([H])([H])C([H])([H])C([H])([H])C([H])(n3nc(-c4c([H])c([H])c(Oc5c([H])c([H])c(F)c([H])c5F)c([H])c4[H])c(C(=O)N([H])[H])c3N([H])[H])C2([H])[H])(C([H])([H])[H])C([H])([H])[H])c(N([H])C([H])([H])C([H])([H])C([H])([H])C([H])([H])C([H])([H])C([H])([H])Oc2c([H])c([H])c3c(c2[H])C([H])([H])N(C(=O)C([H])(N([H])C(=O)C([H])(N([H])C([H])([H])[H])C([H])([H])[H])C(C([H])([H])[H])(C([H])([H])[H])C([H])([H])[H])C([H])(C(=O)N([H])C2([H])c4c([H])c([H])c([H])c([H])c4C([H])([H])C([H])([H])C2([H])[H])C3([H])[H])c1[H]

$$$$
98:0:0
     RDKit          3D

 96104  0  0  1  0  0  0  0  0999 V2000
  -29.7370  -24.6340   23.3110 C   0  0  0  0  0  2  0  0  0  0  0  0
  -30.6680  -25.8790   21.5050 C   0  0  0  0  0  2  0  0  0  0  0  0
  -29.7910  -23.7010   22.0800 C   0  0  0  0  0  3  0  0  0  0  0  0
  -30.7820  -25.7150   23.0240 C   0  0  0  0  0  3  0  0  0  0  0  0
  -30.6000  -27.0240   23.8070 C   0  0  0  0  0  1  0  0  0  0  0  0
  -30.3860  -24.5220   20.9930 N   0  0  1  0  0  4  0  0  0  0  0  0
  -31.2950  -24.0730   20.9240 H   0  0  0  0  0  0  0  0  0  0  0  0
  -30.6680  -22.4600   22.3110 C   0  0  0  0  0  0  0  0  0  0  0  0
  -30.0590  -21.3600   22.7790 N   0  0  0  0  0  0  0  0  0  0  0  0
  -31.8770  -22.5080   22.0590 O   0  0  0  0  0  0  0  0  0  0  0  0
  -29.0720  -21.4400   22.9840 H   0  0  0  0  0  0  0  0  0  0  0  0
  -30.6820  -20.0730   23.0800 C   0  0  0  0  0  2  0  0  0  0  0  0
  -30.2360  -18.9960   22.0730 C   0  0  0  0  0  2  0  0  0  0  0  0
  -30.7280  -17.5840   22.4450 C   0  0  0  0  0  2  0  0  0  0  0  0
  -30.3860  -16.5220   21.3820 C   0  0  0  0  0  2  0  0  0  0  0  0
  -30.3730  -15.0700   21.9280 C   0  0  0  0  0  2  0  0  0  0  0  0
  -30.8400  -14.0010   20.9140 C   0  0  0  0  0  0  0  0  0  0  0  0
  -30.4710  -11.9250   19.6200 C   0  0  0  0  0  2  0  0  0  0  0  0
  -29.5850  -12.1820   18.3860 C   0  0  0  0  0  2  0  0  0  0  0  0
  -28.0880  -12.1160   18.7510 C   0  0  0  0  0  2  0  0  0  0  0  0
  -27.7430  -12.9440   20.0190 C   0  0  0  0  0  3  0  0  0  0  0  0
  -28.7330  -12.6180   21.1580 C   0  0  0  0  0  2  0  0  0  0  0  0
  -30.0940  -12.8890   20.6650 N   0  0  0  0  0  0  0  0  0  0  0  0
  -31.9210  -14.1940   20.3470 O   0  0  0  0  0  0  0  0  0  0  0  0
  -25.3530  -13.6660   20.6550 C   0  0  0  0  0  0  0  0  0  0  0  0
  -24.2250  -12.9420   20.9380 C   0  0  0  0  0  0  0  0  0  0  0  0
  -24.6050  -11.5690   20.8520 C   0  0  0  0  0  0  0  0  0  0  0  0
  -26.3540  -12.7330   20.4270 N   0  0  0  0  0  0  0  0  0  0  0  0
  -25.9020  -11.4650   20.5990 N   0  0  0  0  0  0  0  0  0  0  0  0
  -23.7960  -10.3460   20.9470 C   0  0  0  0  0  0  0  0  0  0  0  0
  -24.1000   -9.3280   21.8790 C   0  0  0  0  0  3  0  0  0  0  0  0
  -23.2970   -8.1710   21.9630 C   0  0  0  0  0  3  0  0  0  0  0  0
  -22.1730   -8.0230   21.1170 C   0  0  0  0  0  0  0  0  0  0  0  0
  -21.8880   -9.0280   20.1760 C   0  0  0  0  0  3  0  0  0  0  0  0
  -22.6910  -10.1770   20.0880 C   0  0  0  0  0  3  0  0  0  0  0  0
  -21.3500   -6.9220   21.1120 O   0  0  0  0  0  0  0  0  0  0  0  0
  -21.1450   -6.1750   22.2430 C   0  0  0  0  0  0  0  0  0  0  0  0
  -20.5830   -6.7300   23.4130 C   0  0  0  0  0  3  0  0  0  0  0  0
  -20.3220   -5.9080   24.5270 C   0  0  0  0  0  3  0  0  0  0  0  0
  -20.6140   -4.5320   24.4720 C   0  0  0  0  0  0  0  0  0  0  0  0
  -21.1680   -3.9760   23.3050 C   0  0  0  0  0  3  0  0  0  0  0  0
  -21.4290   -4.7960   22.1940 C   0  0  0  0  0  0  0  0  0  0  0  0
  -21.9420   -4.2510   21.0630 F   0  0  0  0  0  0  0  0  0  0  0  0
  -20.3580   -3.7390   25.5390 F   0  0  0  0  0  0  0  0  0  0  0  0
  -22.8470  -13.4910   21.1820 C   0  0  0  0  0  0  0  0  0  0  0  0
  -22.0440  -12.7950   21.9790 N   0  0  0  0  0  0  0  0  0  0  0  0
  -22.4900  -14.5650   20.7020 O   0  0  0  0  0  0  0  0  0  0  0  0
  -22.3430  -11.9250   22.3950 H   0  0  0  0  0  0  0  0  0  0  0  0
  -21.1140  -13.1370   22.1750 H   0  0  0  0  0  0  0  0  0  0  0  0
  -25.6070  -15.0300   20.5530 N   0  0  0  0  0  0  0  0  0  0  0  0
  -24.8840  -15.7290   20.6770 H   0  0  0  0  0  0  0  0  0  0  0  0
  -26.5020  -15.4300   20.2970 H   0  0  0  0  0  0  0  0  0  0  0  0
  -29.8310  -24.4450   19.6120 C   0  0  0  0  0  2  0  0  0  0  0  0
  -28.3080  -24.6500   19.4310 C   0  0  0  0  0  2  0  0  0  0  0  0
  -27.6930  -25.9640   19.9470 C   0  0  0  0  0  2  0  0  0  0  0  0
  -26.3860  -25.9630   19.3910 O   0  0  0  0  0  0  0  0  0  0  0  0
  -24.2610  -31.4650   23.4800 C   0  0  0  0  0  0  0  0  0  0  0  0
  -25.4770  -26.9330   19.7330 C   0  0  0  0  0  0  0  0  0  0  0  0
  -22.5650  -30.4860   21.9660 C   0  0  0  0  0  3  0  0  0  0  0  0
  -23.4540  -28.8380   20.2370 C   0  0  0  0  0  0  0  0  0  0  0  0
  -25.0510  -30.3750   21.3860 C   0  0  0  0  0  2  0  0  0  0  0  0
  -24.7660  -29.0740   20.6700 C   0  0  0  0  0  0  0  0  0  0  0  0
  -25.7830  -28.1240   20.4320 C   0  0  0  0  0  3  0  0  0  0  0  0
  -24.1540  -26.7110   19.3020 C   0  0  0  0  0  3  0  0  0  0  0  0
  -23.1380  -27.6500   19.5570 C   0  0  0  0  0  3  0  0  0  0  0  0
  -22.4300  -29.9110   20.5320 C   0  0  0  0  0  2  0  0  0  0  0  0
  -23.9880  -30.7800   22.3340 N   0  0  0  0  0  0  0  0  0  0  0  0
  -23.3490  -31.8880   24.2040 O   0  0  0  0  0  0  0  0  0  0  0  0
  -21.8640  -29.5240   22.9500 C   0  0  0  0  0  0  0  0  0  0  0  0
  -20.5380  -29.3700   22.7940 N   0  0  0  0  0  0  0  0  0  0  0  0
  -22.5080  -28.9180   23.8090 O   0  0  0  0  0  0  0  0  0  0  0  0
  -20.0810  -29.9120   22.0730 H   0  0  0  0  0  0  0  0  0  0  0  0
  -17.1920  -28.0350   23.0350 C   0  0  0  0  0  0  0  0  0  0  0  0
  -19.6770  -28.4890   23.5800 C   0  0  0  0  0  3  0  0  0  0  0  0
  -19.9210  -27.0040   23.2180 C   0  0  0  0  0  2  0  0  0  0  0  0
  -18.9770  -26.4860   22.1300 C   0  0  0  0  0  2  0  0  0  0  0  0
  -17.5170  -26.6240   22.5760 C   0  0  0  0  0  2  0  0  0  0  0  0
  -18.2090  -28.9150   23.4920 C   0  0  0  0  0  0  0  0  0  0  0  0
  -17.8550  -30.2290   23.8750 C   0  0  0  0  0  3  0  0  0  0  0  0
  -16.5190  -30.6630   23.8100 C   0  0  0  0  0  3  0  0  0  0  0  0
  -15.5150  -29.7820   23.3720 C   0  0  0  0  0  3  0  0  0  0  0  0
  -15.8520  -28.4710   22.9890 C   0  0  0  0  0  3  0  0  0  0  0  0
  -25.7270  -31.7690   23.9240 C   0  0  0  0  0  3  0  0  0  0  0  0
  -26.2630  -30.7720   25.0210 C   0  0  1  0  0  0  0  0  0  0  0  0
  -25.3170  -30.6170   26.2360 C   0  0  0  0  0  1  0  0  0  0  0  0
  -26.4880  -29.3650   24.4160 C   0  0  0  0  0  1  0  0  0  0  0  0
  -27.6360  -31.2540   25.5450 C   0  0  0  0  0  1  0  0  0  0  0  0
  -25.7620  -33.1540   24.4130 N   0  0  0  0  0  0  0  0  0  0  0  0
  -26.2980  -34.1820   23.7410 C   0  0  0  0  0  0  0  0  0  0  0  0
  -26.8830  -34.0450   22.6630 O   0  0  0  0  0  0  0  0  0  0  0  0
  -25.2510  -33.3480   25.2620 H   0  0  0  0  0  0  0  0  0  0  0  0
  -25.0370  -36.3550   23.6540 C   0  0  0  0  0  1  0  0  0  0  0  0
  -26.1620  -35.5850   24.3630 C   0  0  0  0  0  3  0  0  0  0  0  0
  -28.4570  -35.8500   25.1940 C   0  0  0  0  0  1  0  0  0  0  0  0
  -27.4130  -36.3730   24.3180 N   0  0  0  0  0  0  0  0  0  0  0  0
  -27.2380  -37.3410   24.5730 H   0  0  0  0  0  0  0  0  0  0  0  0
  2  4  1  0
  3  8  1  0
  3  1  1  0
  4  1  1  0
  4  5  1  0
  6  2  1  0
  6  3  1  0
  6  7  1  6
  8  9  1  0
  9 11  1  0
  9 12  1  0
 10  8  2  0
 13 14  1  0
 13 12  1  0
 15 16  1  0
 15 14  1  0
 17 16  1  0
 18 23  1  0
 19 20  1  0
 19 18  1  0
 21 20  1  0
 21 28  1  0
 21 22  1  0
 23 17  1  0
 23 22  1  0
 24 17  2  0
 25 26  2  0
 26 45  1  0
 27 26  1  0
 27 30  1  0
 28 29  1  0
 28 25  1  0
 29 27  2  0
 30 31  1  0
 31 32  2  0
 33 32  1  0
 34 33  2  0
 35 34  1  0
 35 30  2  0
 36 33  1  0
 36 37  1  0
 37 38  1  0
 38 39  2  0
 40 39  1  0
 40 44  1  0
 41 40  2  0
 42 37  2  0
 42 41  1  0
 43 42  1  0
 45 46  1  0
 46 49  1  0
 46 48  1  0
 47 45  2  0
 50 25  1  0
 50 51  1  0
 52 50  1  0
 53  6  1  0
 54 53  1  0
 54 55  1  0
 56 58  1  0
 56 55  1  0
 57 68  2  0
 58 63  1  0
 59 67  1  0
 59 69  1  0
 60 66  1  0
 60 62  1  0
 61 67  1  0
 62 61  1  0
 63 62  2  0
 64 65  1  0
 64 58  2  0
 65 60  2  0
 66 59  1  0
 67 57  1  0
 69 71  2  0
 70 69  1  0
 72 70  1  0
 73 78  1  0
 74 70  1  0
 75 74  1  0
 76 77  1  0
 76 75  1  0
 77 73  1  0
 78 74  1  0
 78 79  2  0
 80 79  1  0
 81 80  2  0
 82 73  2  0
 82 81  1  0
 83 57  1  0
 83 88  1  0
 83 84  1  0
 84 87  1  1
 84 85  1  0
 86 84  1  0
 88 91  1  0
 89 93  1  0
 89 88  1  0
 90 89  2  0
 93 92  1  0
 95 93  1  0
 95 96  1  0
 95 94  1  0
M  ISO  4  16 100  17 100  55 101  56 101
M  END
>  <TORSDO>  (98) 
F 25

>  <SCORE>  (98) 
-7.564

>  <name>  (98) 
98

>  <ligand_id>  (98) 
98

>  <original_smiles>  (98) 
[H]c1c([H])c([H])c2c(c1[H])C([H])([H])C([H])([H])C([H])([H])C2([H])N([H])C(=O)C1([H])N(C(=O)C([H])(N([H])C(=O)C([H])(N([H])C([H])([H])[H])C([H])([H])[H])C(C([H])([H])[H])(C([H])([H])[H])C([H])([H])[H])C([H])([H])c2c([H])c(OC([H])([H])C([H])([H])C([H])([H])[N+]3([H])C([H])([H])C([H])(C([H])([H])[H])C([H])([H])C3([H])C(=O)N([H])C([H])([H])C([H])([H])C([H])([H])C([H])([H])C([H])([H])C(=O)N3C([H])([H])C([H])([H])C([H])([H])C([H])(n4nc(-c5c([H])c([H])c(Oc6c([H])c([H])c(F)c([H])c6F)c([H])c5[H])c(C(=O)N([H])[H])c4N([H])[H])C3([H])[H])c([H])c([H])c2C1([H])[H]

>  <smiles>  (98) 
[H]c1c([H])c([H])c2c(c1[H])C([H])([H])C([H])([H])C([H])([H])C2([H])N([H])C(=O)C1([H])N(C(=O)C([H])(N([H])C(=O)C([H])(N([H])C([H])([H])[H])C([H])([H])[H])C(C([H])([H])[H])(C([H])([H])[H])C([H])([H])[H])C([H])([H])c2c([H])c(OC([H])([H])C([H])([H])C([H])([H])[N+]3([H])C([H])([H])C([H])(C([H])([H])[H])C([H])([H])C3([H])C(=O)N([H])C([H])([H])C([H])([H])C([H])([H])C([H])([H])C([H])([H])C(=O)N3C([H])([H])C([H])([H])C([H])([H])C([H])(n4nc(-c5c([H])c([H])c(Oc6c([H])c([H])c(F)c([H])c6F)c([H])c5[H])c(C(=O)N([H])[H])c4N([H])[H])C3([H])[H])c([H])c([H])c2C1([H])[H]

$$$$
