0:0:0
     RDKit          3D

 93100  0  0  1  0  0  0  0  0999 V2000
  -29.1570  -20.4260   19.7510 C   0  0  0  0  0  3  0  0  0  0  0  0
  -28.9150  -21.7920   20.5420 N   0  0  0  0  0  4  0  0  0  0  0  0
  -28.0960  -21.6300   21.1080 H   0  0  0  0  0  0  0  0  0  0  0  0
  -29.6770  -21.8630   21.2000 H   0  0  0  0  0  0  0  0  0  0  0  0
  -28.7440  -23.2340   19.8610 C   0  0  0  0  0  3  0  0  0  0  0  0
  -28.1350  -24.6130   20.6390 C   0  0  0  0  0  3  0  0  0  0  0  0
  -28.2990  -26.1230   20.2580 O   0  0  0  0  0  0  0  0  0  0  0  0
  -24.6160  -31.8100   23.2300 C   0  0  0  0  0  0  0  0  0  0  0  0
  -27.2160  -27.0750   20.2550 C   0  0  0  0  0  0  0  0  0  0  0  0
  -23.4230  -30.3980   21.5990 C   0  0  0  0  0  3  0  0  0  0  0  0
  -24.8780  -28.8060   20.1990 C   0  0  0  0  0  0  0  0  0  0  0  0
  -25.9760  -30.6680   21.4380 C   0  0  0  0  0  2  0  0  0  0  0  0
  -26.0560  -29.2680   20.8020 C   0  0  0  0  0  0  0  0  0  0  0  0
  -27.2280  -28.4210   20.8020 C   0  0  0  0  0  3  0  0  0  0  0  0
  -26.0100  -26.7070   19.6230 C   0  0  0  0  0  3  0  0  0  0  0  0
  -24.8670  -27.5380   19.5940 C   0  0  0  0  0  3  0  0  0  0  0  0
  -23.6500  -29.7040   20.2310 C   0  0  0  0  0  2  0  0  0  0  0  0
  -24.6920  -30.9810   22.1450 N   0  0  0  0  0  0  0  0  0  0  0  0
  -23.5280  -32.0980   23.7510 O   0  0  0  0  0  0  0  0  0  0  0  0
  -22.7410  -29.4010   22.5680 C   0  0  0  0  0  0  0  0  0  0  0  0
  -21.4100  -29.2420   22.4490 N   0  0  0  0  0  0  0  0  0  0  0  0
  -23.4110  -28.7710   23.3900 O   0  0  0  0  0  0  0  0  0  0  0  0
  -20.9260  -29.8020   21.7610 H   0  0  0  0  0  0  0  0  0  0  0  0
  -18.0220  -28.0740   22.9790 C   0  0  0  0  0  0  0  0  0  0  0  0
  -20.5850  -28.3140   23.2260 C   0  0  0  0  0  3  0  0  0  0  0  0
  -20.6700  -26.8800   22.6530 C   0  0  0  0  0  2  0  0  0  0  0  0
  -19.5580  -26.5660   21.6470 C   0  0  0  0  0  2  0  0  0  0  0  0
  -18.1810  -26.7240   22.3010 C   0  0  0  0  0  2  0  0  0  0  0  0
  -19.1510  -28.8280   23.4000 C   0  0  0  0  0  0  0  0  0  0  0  0
  -18.9470  -30.0900   23.9960 C   0  0  0  0  0  3  0  0  0  0  0  0
  -17.6480  -30.6020   24.1730 C   0  0  0  0  0  3  0  0  0  0  0  0
  -16.5340  -29.8460   23.7670 C   0  0  0  0  0  3  0  0  0  0  0  0
  -16.7220  -28.5850   23.1760 C   0  0  0  0  0  3  0  0  0  0  0  0
  -25.8910  -32.4520   23.8570 C   0  0  0  0  0  3  0  0  0  0  0  0
  -26.3990  -31.6900   25.1430 C   0  0  1  0  0  0  0  0  0  0  0  0
  -25.2990  -31.4590   26.2050 C   0  0  0  0  0  1  0  0  0  0  0  0
  -26.9860  -30.3100   24.7680 C   0  0  0  0  0  1  0  0  0  0  0  0
  -27.5480  -32.4900   25.8020 C   0  0  0  0  0  1  0  0  0  0  0  0
  -25.5730  -33.8500   24.1840 N   0  0  0  0  0  0  0  0  0  0  0  0
  -25.9020  -34.9060   23.4270 C   0  0  0  0  0  0  0  0  0  0  0  0
  -26.5700  -34.8040   22.3950 O   0  0  0  0  0  0  0  0  0  0  0  0
  -24.9740  -34.0020   24.9820 H   0  0  0  0  0  0  0  0  0  0  0  0
  -24.1650  -36.6970   23.0890 C   0  0  0  0  0  1  0  0  0  0  0  0
  -25.4160  -36.2950   23.8870 C   0  0  0  0  0  3  0  0  0  0  0  0
  -27.5560  -37.1870   24.6970 C   0  0  0  0  0  1  0  0  0  0  0  0
  -26.4450  -37.3510   23.7640 N   0  0  0  0  0  0  0  0  0  0  0  0
  -26.0370  -38.2710   23.9170 H   0  0  0  0  0  0  0  0  0  0  0  0
  -29.7470  -19.0490   20.5820 C   0  0  0  0  0  0  0  0  0  0  0  0
  -30.3490  -19.2860   21.6310 O   0  0  0  0  0  0  0  0  0  0  0  0
  -29.5630  -17.4010   20.1150 C   0  0  0  0  0  3  0  0  0  0  0  0
  -30.8730  -14.9080   20.2640 C   0  0  0  0  0  0  0  0  0  0  0  0
  -30.7070  -12.4770   19.5180 C   0  0  0  0  0  2  0  0  0  0  0  0
  -29.8260  -12.3060   18.2590 C   0  0  0  0  0  2  0  0  0  0  0  0
  -28.3480  -12.1490   18.6560 C   0  0  0  0  0  2  0  0  0  0  0  0
  -27.9120  -13.1960   19.7130 C   0  0  0  0  0  3  0  0  0  0  0  0
  -28.9200  -13.3220   20.8790 C   0  0  0  0  0  2  0  0  0  0  0  0
  -30.2220  -13.6670   20.2940 N   0  0  0  0  0  0  0  0  0  0  0  0
  -32.0420  -14.8870   19.8560 O   0  0  0  0  0  0  0  0  0  0  0  0
  -30.9730  -16.4730   22.0410 C   0  0  0  0  0  1  0  0  0  0  0  0
  -30.3340  -16.1430   20.7580 N   0  0  0  0  0  0  0  0  0  0  0  0
  -25.5310  -13.8740   20.3460 C   0  0  0  0  0  0  0  0  0  0  0  0
  -24.4310  -13.1600   20.7270 C   0  0  0  0  0  0  0  0  0  0  0  0
  -24.8420  -11.7940   20.7480 C   0  0  0  0  0  0  0  0  0  0  0  0
  -26.5510  -12.9570   20.1810 N   0  0  0  0  0  0  0  0  0  0  0  0
  -26.1400  -11.6970   20.4810 N   0  0  0  0  0  0  0  0  0  0  0  0
  -24.0550  -10.5700   20.9460 C   0  0  0  0  0  0  0  0  0  0  0  0
  -24.4470   -9.5850   21.8790 C   0  0  0  0  0  3  0  0  0  0  0  0
  -23.6640   -8.4270   22.0670 C   0  0  0  0  0  3  0  0  0  0  0  0
  -22.4760   -8.2450   21.3210 C   0  0  0  0  0  0  0  0  0  0  0  0
  -22.1020   -9.2170   20.3760 C   0  0  0  0  0  3  0  0  0  0  0  0
  -22.8850  -10.3680   20.1870 C   0  0  0  0  0  3  0  0  0  0  0  0
  -21.6650   -7.1390   21.4180 O   0  0  0  0  0  0  0  0  0  0  0  0
  -21.6110   -6.3860   22.5630 C   0  0  0  0  0  0  0  0  0  0  0  0
  -21.2660   -6.9520   23.8100 C   0  0  0  0  0  3  0  0  0  0  0  0
  -21.1550   -6.1290   24.9490 C   0  0  0  0  0  3  0  0  0  0  0  0
  -21.3790   -4.7440   24.8420 C   0  0  0  0  0  0  0  0  0  0  0  0
  -21.7170   -4.1780   23.6000 C   0  0  0  0  0  3  0  0  0  0  0  0
  -21.8290   -4.9980   22.4640 C   0  0  0  0  0  0  0  0  0  0  0  0
  -22.1360   -4.4450   21.2650 F   0  0  0  0  0  0  0  0  0  0  0  0
  -21.2640   -3.9510   25.9340 F   0  0  0  0  0  0  0  0  0  0  0  0
  -23.0510  -13.7080   20.9500 C   0  0  0  0  0  0  0  0  0  0  0  0
  -22.2790  -13.0790   21.8290 N   0  0  0  0  0  0  0  0  0  0  0  0
  -22.6680  -14.7300   20.3830 O   0  0  0  0  0  0  0  0  0  0  0  0
  -22.6010  -12.2550   22.3120 H   0  0  0  0  0  0  0  0  0  0  0  0
  -21.3510  -13.4310   22.0210 H   0  0  0  0  0  0  0  0  0  0  0  0
  -25.7400  -15.2180   20.0880 N   0  0  0  0  0  0  0  0  0  0  0  0
  -24.9990  -15.9070   20.1500 H   0  0  0  0  0  0  0  0  0  0  0  0
  -26.6220  -15.6080   19.7930 H   0  0  0  0  0  0  0  0  0  0  0  0
  -28.0720  -17.0600   20.4240 C   0  0  0  0  0  2  0  0  0  0  0  0
  -25.5470  -17.4070   20.1700 C   0  0  0  0  0  1  0  0  0  0  0  0
  -26.9450  -17.7670   19.6350 C   0  0  0  0  0  2  0  0  0  0  0  0
  -30.1240  -19.5760   17.4780 C   0  0  0  0  0  1  0  0  0  0  0  0
  -30.0710  -20.7000   18.5270 C   0  0  0  0  0  2  0  0  0  0  0  0
  1 93  1  0
  1  2  1  0
  1 48  1  0
  2  3  1  0
  2  4  1  0
  5  2  1  0
  5  6  2  0
  7  6  1  0
  8 19  2  0
  9  7  1  0
  9 14  1  0
 10 18  1  0
 10 20  1  0
 11 17  1  0
 11 13  1  0
 12 18  1  0
 13 14  2  0
 13 12  1  0
 15  9  2  0
 16 15  1  0
 16 11  2  0
 17 10  1  0
 18  8  1  0
 20 22  2  0
 21 20  1  0
 23 21  1  0
 24 33  2  0
 24 29  1  0
 25 21  1  0
 25 29  1  0
 26 25  1  0
 27 28  1  0
 27 26  1  0
 28 24  1  0
 29 30  2  0
 30 31  1  0
 32 31  2  0
 33 32  1  0
 34  8  1  0
 34 39  1  0
 34 35  1  0
 35 38  1  1
 35 36  1  0
 37 35  1  0
 39 42  1  0
 40 44  1  0
 40 39  1  0
 41 40  2  0
 44 43  1  0
 46 44  1  0
 46 47  1  0
 46 45  1  0
 48 49  2  0
 50 89  1  0
 50 48  1  0
 50 60  1  0
 51 57  1  0
 51 60  1  0
 52 57  1  0
 53 54  1  0
 53 52  1  0
 55 54  1  0
 55 64  1  0
 55 56  1  0
 57 56  1  0
 58 51  2  0
 60 59  1  0
 61 62  2  0
 62 63  1  0
 62 81  1  0
 63 66  1  0
 64 61  1  0
 64 65  1  0
 65 63  2  0
 66 67  1  0
 67 68  2  0
 69 72  1  0
 69 68  1  0
 70 69  2  0
 71 70  1  0
 71 66  2  0
 72 73  1  0
 73 74  1  0
 74 75  2  0
 76 75  1  0
 76 80  1  0
 77 76  2  0
 78 73  2  0
 78 77  1  0
 79 78  1  0
 81 82  1  0
 82 85  1  0
 82 84  1  0
 83 81  2  0
 86 87  1  0
 86 61  1  0
 88 86  1  0
 91 90  1  0
 91 89  1  0
 92 93  1  0
M  ISO  4   6 101   7 101  51 100  60 100
M  END
>  <TORSDO>  (1) 
F 24

>  <SCORE>  (1) 
-13.693

>  <name>  (1) 
0

>  <ligand_id>  (1) 
0

>  <original_smiles>  (1) 
[H]c1c([H])c([H])c2c(c1[H])C([H])([H])C([H])([H])C([H])([H])C2([H])N([H])C(=O)C1([H])N(C(=O)C([H])(N([H])C(=O)C([H])(N([H])C([H])([H])[H])C([H])([H])[H])C(C([H])([H])[H])(C([H])([H])[H])C([H])([H])[H])C([H])([H])c2c([H])c(OC([H])([H])C([H])([H])[N+]([H])([H])C([H])(C(=O)C([H])(N(C(=O)N3C([H])([H])C([H])([H])C([H])([H])C([H])(n4nc(-c5c([H])c([H])c(Oc6c([H])c([H])c(F)c([H])c6F)c([H])c5[H])c(C(=O)N([H])[H])c4N([H])[H])C3([H])[H])C([H])([H])[H])C([H])([H])C([H])([H])C([H])([H])[H])C([H])([H])C([H])([H])[H])c([H])c([H])c2C1([H])[H]

>  <smiles>  (1) 
[H]c1c([H])c([H])c2c(c1[H])C([H])([H])C([H])([H])C([H])([H])C2([H])N([H])C(=O)C1([H])N(C(=O)C([H])(N([H])C(=O)C([H])(N([H])C([H])([H])[H])C([H])([H])[H])C(C([H])([H])[H])(C([H])([H])[H])C([H])([H])[H])C([H])([H])c2c([H])c(OC([H])([H])C([H])([H])[N+]([H])([H])C([H])(C(=O)C([H])(N(C(=O)N3C([H])([H])C([H])([H])C([H])([H])C([H])(n4nc(-c5c([H])c([H])c(Oc6c([H])c([H])c(F)c([H])c6F)c([H])c5[H])c(C(=O)N([H])[H])c4N([H])[H])C3([H])[H])C([H])([H])[H])C([H])([H])C([H])([H])C([H])([H])[H])C([H])([H])C([H])([H])[H])c([H])c([H])c2C1([H])[H]

$$$$
1:0:0
     RDKit          3D

 94101  0  0  1  0  0  0  0  0999 V2000
  -28.9050  -23.8300   23.4120 C   0  0  0  0  0  0  0  0  0  0  0  0
  -28.7950  -24.9400   24.1620 N   0  0  0  0  0  4  0  0  0  0  0  0
  -29.6980  -22.8260   23.8420 N   0  0  0  0  0  0  0  0  0  0  0  0
  -28.1200  -25.6540   23.9310 H   0  0  0  0  0  0  0  0  0  0  0  0
  -29.2960  -25.0750   25.0290 H   0  0  0  0  0  0  0  0  0  0  0  0
  -30.2270  -22.9320   24.6960 H   0  0  0  0  0  0  0  0  0  0  0  0
  -28.1140  -23.6770   22.1350 C   0  0  0  0  0  2  0  0  0  0  0  0
  -27.6020  -24.9990   21.5540 C   0  0  0  0  0  2  0  0  0  0  0  0
  -28.7100  -26.0090   21.1840 C   0  0  0  0  0  2  0  0  0  0  0  0
  -28.3880  -26.7430   20.0080 O   0  0  0  0  0  0  0  0  0  0  0  0
  -24.6110  -31.8720   23.2140 C   0  0  0  0  0  0  0  0  0  0  0  0
  -27.2340  -27.4770   20.0780 C   0  0  0  0  0  0  0  0  0  0  0  0
  -23.3970  -30.4940   21.5550 C   0  0  0  0  0  3  0  0  0  0  0  0
  -24.8450  -28.9630   20.1190 C   0  0  0  0  0  0  0  0  0  0  0  0
  -25.9220  -30.8440   21.3640 C   0  0  0  0  0  2  0  0  0  0  0  0
  -26.0000  -29.4770   20.7230 C   0  0  0  0  0  0  0  0  0  0  0  0
  -27.1990  -28.7340   20.7170 C   0  0  0  0  0  3  0  0  0  0  0  0
  -26.0720  -26.9740   19.4590 C   0  0  0  0  0  3  0  0  0  0  0  0
  -24.8700  -27.7040   19.4940 C   0  0  0  0  0  3  0  0  0  0  0  0
  -23.6050  -29.8250   20.1700 C   0  0  0  0  0  2  0  0  0  0  0  0
  -24.6610  -31.0840   22.1030 N   0  0  0  0  0  0  0  0  0  0  0  0
  -23.5320  -32.1450   23.7560 O   0  0  0  0  0  0  0  0  0  0  0  0
  -22.7400  -29.4660   22.5030 C   0  0  0  0  0  0  0  0  0  0  0  0
  -21.4130  -29.3020   22.3770 N   0  0  0  0  0  0  0  0  0  0  0  0
  -23.4190  -28.8200   23.3060 O   0  0  0  0  0  0  0  0  0  0  0  0
  -20.9310  -29.8740   21.6980 H   0  0  0  0  0  0  0  0  0  0  0  0
  -18.0250  -28.1380   22.8480 C   0  0  0  0  0  0  0  0  0  0  0  0
  -20.5840  -28.3660   23.1340 C   0  0  0  0  0  3  0  0  0  0  0  0
  -20.6760  -26.9400   22.5430 C   0  0  0  0  0  2  0  0  0  0  0  0
  -19.5740  -26.6390   21.5220 C   0  0  0  0  0  2  0  0  0  0  0  0
  -18.1910  -26.7920   22.1620 C   0  0  0  0  0  2  0  0  0  0  0  0
  -19.1500  -28.8830   23.2900 C   0  0  0  0  0  0  0  0  0  0  0  0
  -18.9440  -30.1430   23.8910 C   0  0  0  0  0  3  0  0  0  0  0  0
  -17.6450  -30.6590   24.0560 C   0  0  0  0  0  3  0  0  0  0  0  0
  -16.5330  -29.9100   23.6320 C   0  0  0  0  0  3  0  0  0  0  0  0
  -16.7240  -28.6510   23.0350 C   0  0  0  0  0  3  0  0  0  0  0  0
  -25.9030  -32.4840   23.8420 C   0  0  0  0  0  3  0  0  0  0  0  0
  -26.4480  -31.6600   25.0720 C   0  0  1  0  0  0  0  0  0  0  0  0
  -25.3770  -31.3660   26.1490 C   0  0  0  0  0  1  0  0  0  0  0  0
  -27.0290  -30.3050   24.6050 C   0  0  0  0  0  1  0  0  0  0  0  0
  -27.6060  -32.4310   25.7490 C   0  0  0  0  0  1  0  0  0  0  0  0
  -25.5910  -33.8640   24.2360 N   0  0  0  0  0  0  0  0  0  0  0  0
  -25.9030  -34.9490   23.5150 C   0  0  0  0  0  0  0  0  0  0  0  0
  -26.5600  -34.8930   22.4700 O   0  0  0  0  0  0  0  0  0  0  0  0
  -25.0080  -33.9800   25.0520 H   0  0  0  0  0  0  0  0  0  0  0  0
  -24.1480  -36.7330   23.2640 C   0  0  0  0  0  1  0  0  0  0  0  0
  -25.4100  -36.3130   24.0350 C   0  0  0  0  0  3  0  0  0  0  0  0
  -27.5580  -37.1820   24.8470 C   0  0  0  0  0  1  0  0  0  0  0  0
  -26.4300  -37.3810   23.9420 N   0  0  0  0  0  0  0  0  0  0  0  0
  -26.0200  -38.2900   24.1390 H   0  0  0  0  0  0  0  0  0  0  0  0
  -29.8120  -21.4940   23.2280 C   0  0  0  0  0  2  0  0  0  0  0  0
  -28.6300  -20.6050   23.6500 C   0  0  0  0  0  2  0  0  0  0  0  0
  -28.5080  -19.2870   22.8700 C   0  0  0  0  0  2  0  0  0  0  0  0
  -29.7370  -18.3790   23.0090 C   0  0  0  0  0  2  0  0  0  0  0  0
  -29.5260  -16.9850   22.4040 C   0  0  0  0  0  2  0  0  0  0  0  0
  -30.8520  -16.2170   22.3020 C   0  0  0  0  0  2  0  0  0  0  0  0
  -30.8310  -14.2640   20.7900 C   0  0  0  0  0  0  0  0  0  0  0  0
  -30.4110  -12.2830   19.3730 C   0  0  0  0  0  2  0  0  0  0  0  0
  -29.4790  -12.5510   18.1800 C   0  0  0  0  0  2  0  0  0  0  0  0
  -28.0040  -12.4000   18.5930 C   0  0  0  0  0  2  0  0  0  0  0  0
  -27.6660  -13.2080   19.8710 C   0  0  0  0  0  3  0  0  0  0  0  0
  -28.6950  -12.9370   20.9840 C   0  0  0  0  0  2  0  0  0  0  0  0
  -30.0570  -13.1910   20.4730 N   0  0  0  0  0  0  0  0  0  0  0  0
  -31.7080  -14.7010   20.0340 O   0  0  0  0  0  0  0  0  0  0  0  0
  -30.7220  -13.9620   23.2280 C   0  0  0  0  0  1  0  0  0  0  0  0
  -30.6210  -14.7950   22.0200 N   0  0  0  0  0  0  0  0  0  0  0  0
  -25.2600  -13.8170   20.5660 C   0  0  0  0  0  0  0  0  0  0  0  0
  -24.1860  -13.0450   20.9150 C   0  0  0  0  0  0  0  0  0  0  0  0
  -24.6410  -11.6910   20.8710 C   0  0  0  0  0  0  0  0  0  0  0  0
  -26.3040  -12.9340   20.3300 N   0  0  0  0  0  0  0  0  0  0  0  0
  -25.9310  -11.6490   20.5670 N   0  0  0  0  0  0  0  0  0  0  0  0
  -23.9080  -10.4300   21.0410 C   0  0  0  0  0  0  0  0  0  0  0  0
  -24.3630   -9.4220   21.9190 C   0  0  0  0  0  3  0  0  0  0  0  0
  -23.6320   -8.2250   22.0760 C   0  0  0  0  0  3  0  0  0  0  0  0
  -22.4300   -8.0280   21.3550 C   0  0  0  0  0  0  0  0  0  0  0  0
  -21.9930   -9.0260   20.4660 C   0  0  0  0  0  3  0  0  0  0  0  0
  -22.7240  -10.2130   20.3060 C   0  0  0  0  0  3  0  0  0  0  0  0
  -21.6650   -6.8900   21.4250 O   0  0  0  0  0  0  0  0  0  0  0  0
  -21.6850   -6.0750   22.5280 C   0  0  0  0  0  0  0  0  0  0  0  0
  -21.4020   -6.5650   23.8220 C   0  0  0  0  0  3  0  0  0  0  0  0
  -21.3660   -5.6800   24.9180 C   0  0  0  0  0  3  0  0  0  0  0  0
  -21.6040   -4.3060   24.7230 C   0  0  0  0  0  0  0  0  0  0  0  0
  -21.8820   -3.8160   23.4350 C   0  0  0  0  0  3  0  0  0  0  0  0
  -21.9200   -4.6980   22.3410 C   0  0  0  0  0  0  0  0  0  0  0  0
  -22.1660   -4.2160   21.0990 F   0  0  0  0  0  0  0  0  0  0  0  0
  -21.5630   -3.4540   25.7740 F   0  0  0  0  0  0  0  0  0  0  0  0
  -22.7870  -13.5250   21.1830 C   0  0  0  0  0  0  0  0  0  0  0  0
  -22.0530  -12.8240   22.0400 N   0  0  0  0  0  0  0  0  0  0  0  0
  -22.3540  -14.5550   20.6680 O   0  0  0  0  0  0  0  0  0  0  0  0
  -22.4110  -11.9900   22.4810 H   0  0  0  0  0  0  0  0  0  0  0  0
  -21.1130  -13.1280   22.2600 H   0  0  0  0  0  0  0  0  0  0  0  0
  -25.4340  -15.1900   20.4090 N   0  0  0  0  0  0  0  0  0  0  0  0
  -24.6790  -15.8550   20.5330 H   0  0  0  0  0  0  0  0  0  0  0  0
  -26.2990  -15.6270   20.1160 H   0  0  0  0  0  0  0  0  0  0  0  0
  1  3  1  0
  1  2  2  0
  2  5  1  0
  3  6  1  0
  4  2  1  0
  7  1  1  0
  8  7  1  0
  9  8  1  0
 10 12  1  0
 10  9  1  0
 11 22  2  0
 12 17  1  0
 13 21  1  0
 13 23  1  0
 14 20  1  0
 14 16  1  0
 15 21  1  0
 16 15  1  0
 17 16  2  0
 18 19  1  0
 18 12  2  0
 19 14  2  0
 20 13  1  0
 21 11  1  0
 23 25  2  0
 24 23  1  0
 26 24  1  0
 27 36  2  0
 27 32  1  0
 28 24  1  0
 28 32  1  0
 29 28  1  0
 30 31  1  0
 30 29  1  0
 31 27  1  0
 32 33  2  0
 33 34  1  0
 35 34  2  0
 36 35  1  0
 37 11  1  0
 37 42  1  0
 37 38  1  0
 38 41  1  1
 38 39  1  0
 40 38  1  0
 42 45  1  0
 43 47  1  0
 43 42  1  0
 44 43  2  0
 47 46  1  0
 49 47  1  0
 49 50  1  0
 49 48  1  0
 51 52  1  0
 51  3  1  0
 53 54  1  0
 53 52  1  0
 55 54  1  0
 56 55  1  0
 57 66  1  0
 58 63  1  0
 59 60  1  0
 59 58  1  0
 61 60  1  0
 61 70  1  0
 61 62  1  0
 63 57  1  0
 63 62  1  0
 64 57  2  0
 66 56  1  0
 66 65  1  0
 67 68  2  0
 68 87  1  0
 69 68  1  0
 69 72  1  0
 70 67  1  0
 70 71  1  0
 71 69  2  0
 72 73  1  0
 73 74  2  0
 75 78  1  0
 75 74  1  0
 76 75  2  0
 77 76  1  0
 77 72  2  0
 78 79  1  0
 79 80  1  0
 80 81  2  0
 82 81  1  0
 82 86  1  0
 83 82  2  0
 84 79  2  0
 84 83  1  0
 85 84  1  0
 87 88  1  0
 88 91  1  0
 88 90  1  0
 89 87  2  0
 92 93  1  0
 92 67  1  0
 94 92  1  0
M  ISO  4   9 101  10 101  57 100  66 100
M  END
>  <TORSDO>  (2) 
F 25

>  <SCORE>  (2) 
2.009

>  <name>  (2) 
1

>  <ligand_id>  (2) 
1

>  <original_smiles>  (2) 
[H]c1c([H])c([H])c2c(c1[H])C([H])([H])C([H])([H])C([H])([H])C2([H])N([H])C(=O)C1([H])N(C(=O)C([H])(N([H])C(=O)C([H])(N([H])C([H])([H])[H])C([H])([H])[H])C(C([H])([H])[H])(C([H])([H])[H])C([H])([H])[H])C([H])([H])c2c([H])c(OC([H])([H])C([H])([H])C([H])([H])C(N([H])[H])=[N+]([H])C([H])([H])C([H])([H])C([H])([H])C([H])([H])C([H])([H])C([H])([H])N(C(=O)N3C([H])([H])C([H])([H])C([H])([H])C([H])(n4nc(-c5c([H])c([H])c(Oc6c([H])c([H])c(F)c([H])c6F)c([H])c5[H])c(C(=O)N([H])[H])c4N([H])[H])C3([H])[H])C([H])([H])[H])c([H])c([H])c2C1([H])[H]

>  <smiles>  (2) 
[H]c1c([H])c([H])c2c(c1[H])C([H])([H])C([H])([H])C([H])([H])C2([H])N([H])C(=O)C1([H])N(C(=O)C([H])(N([H])C(=O)C([H])(N([H])C([H])([H])[H])C([H])([H])[H])C(C([H])([H])[H])(C([H])([H])[H])C([H])([H])[H])C([H])([H])c2c([H])c(OC([H])([H])C([H])([H])C([H])([H])C(N([H])[H])=[N+]([H])C([H])([H])C([H])([H])C([H])([H])C([H])([H])C([H])([H])C([H])([H])N(C(=O)N3C([H])([H])C([H])([H])C([H])([H])C([H])(n4nc(-c5c([H])c([H])c(Oc6c([H])c([H])c(F)c([H])c6F)c([H])c5[H])c(C(=O)N([H])[H])c4N([H])[H])C3([H])[H])C([H])([H])[H])c([H])c([H])c2C1([H])[H]

$$$$
2:0:0
     RDKit          3D

101110  0  0  1  0  0  0  0  0999 V2000
  -30.8880  -20.4510   18.3110 C   0  0  0  0  0  0  0  0  0  0  0  0
  -30.5350  -21.2740   17.0810 C   0  0  0  0  0  2  0  0  0  0  0  0
  -30.2630  -22.2110   19.9920 C   0  0  0  0  0  2  0  0  0  0  0  0
  -28.8960  -23.2650   17.3390 C   0  0  0  0  0  2  0  0  0  0  0  0
  -30.0450  -20.7230   19.5540 C   0  0  0  0  0  3  0  0  0  0  0  0
  -30.3530  -23.2780   18.8520 C   0  0  0  0  0  3  0  0  0  0  0  0
  -29.1490  -24.2140   18.5210 C   0  0  0  0  0  3  0  0  0  0  0  0
  -30.3630  -22.7860   17.3670 C   0  0  1  0  0  0  0  0  0  0  0  0
  -31.8190  -19.6370   18.2770 O   0  0  0  0  0  0  0  0  0  0  0  0
  -30.4970  -19.7140   20.5580 N   0  0  0  0  0  4  0  0  0  0  0  0
  -30.5160  -20.1170   21.4800 H   0  0  0  0  0  0  0  0  0  0  0  0
  -31.4470  -19.5210   20.2700 H   0  0  0  0  0  0  0  0  0  0  0  0
  -29.7650  -18.4110   20.5930 C   0  0  0  0  0  2  0  0  0  0  0  0
  -30.7080  -17.1870   20.8040 C   0  0  0  0  0  2  0  0  0  0  0  0
  -29.9950  -15.8090   21.0240 C   0  0  0  0  0  2  0  0  0  0  0  0
  -30.7540  -14.5570   20.4960 C   0  0  0  0  0  0  0  0  0  0  0  0
  -30.4730  -12.4030   19.3170 C   0  0  0  0  0  2  0  0  0  0  0  0
  -29.5290  -12.6250   18.1150 C   0  0  0  0  0  2  0  0  0  0  0  0
  -28.0540  -12.4780   18.5390 C   0  0  0  0  0  2  0  0  0  0  0  0
  -27.7150  -13.2930   19.8130 C   0  0  0  0  0  3  0  0  0  0  0  0
  -28.7730  -13.0700   20.9180 C   0  0  0  0  0  2  0  0  0  0  0  0
  -30.0970  -13.3710   20.3600 N   0  0  0  0  0  0  0  0  0  0  0  0
  -31.9020  -14.7090   20.0680 O   0  0  0  0  0  0  0  0  0  0  0  0
  -25.3160  -13.8930   20.5240 C   0  0  0  0  0  0  0  0  0  0  0  0
  -24.2490  -13.1180   20.8860 C   0  0  0  0  0  0  0  0  0  0  0  0
  -24.7130  -11.7680   20.8540 C   0  0  0  0  0  0  0  0  0  0  0  0
  -26.3630  -13.0140   20.2920 N   0  0  0  0  0  0  0  0  0  0  0  0
  -26.0040  -11.7310   20.5490 N   0  0  0  0  0  0  0  0  0  0  0  0
  -23.9900  -10.5030   21.0370 C   0  0  0  0  0  0  0  0  0  0  0  0
  -24.3990   -9.5500   21.9950 C   0  0  0  0  0  3  0  0  0  0  0  0
  -23.6780   -8.3490   22.1640 C   0  0  0  0  0  3  0  0  0  0  0  0
  -22.5330   -8.0910   21.3730 C   0  0  0  0  0  0  0  0  0  0  0  0
  -22.1430   -9.0340   20.4050 C   0  0  0  0  0  3  0  0  0  0  0  0
  -22.8650  -10.2260   20.2340 C   0  0  0  0  0  3  0  0  0  0  0  0
  -21.7850   -6.9420   21.4490 O   0  0  0  0  0  0  0  0  0  0  0  0
  -21.6810   -6.2270   22.6160 C   0  0  0  0  0  0  0  0  0  0  0  0
  -21.1540   -6.7980   23.7940 C   0  0  0  0  0  3  0  0  0  0  0  0
  -21.0020   -6.0090   24.9520 C   0  0  0  0  0  3  0  0  0  0  0  0
  -21.3650   -4.6490   24.9300 C   0  0  0  0  0  0  0  0  0  0  0  0
  -21.8850   -4.0780   23.7550 C   0  0  0  0  0  3  0  0  0  0  0  0
  -22.0390   -4.8640   22.6010 C   0  0  0  0  0  0  0  0  0  0  0  0
  -22.5210   -4.3030   21.4660 F   0  0  0  0  0  0  0  0  0  0  0  0
  -21.2100   -3.8880   26.0390 F   0  0  0  0  0  0  0  0  0  0  0  0
  -22.8490  -13.5900   21.1570 C   0  0  0  0  0  0  0  0  0  0  0  0
  -22.1170  -12.8810   22.0070 N   0  0  0  0  0  0  0  0  0  0  0  0
  -22.4140  -14.6230   20.6460 O   0  0  0  0  0  0  0  0  0  0  0  0
  -22.4830  -12.0450   22.4370 H   0  0  0  0  0  0  0  0  0  0  0  0
  -21.1770  -13.1760   22.2310 H   0  0  0  0  0  0  0  0  0  0  0  0
  -25.4830  -15.2640   20.3530 N   0  0  0  0  0  0  0  0  0  0  0  0
  -24.7210  -15.9250   20.4660 H   0  0  0  0  0  0  0  0  0  0  0  0
  -26.3380  -15.6990   20.0330 H   0  0  0  0  0  0  0  0  0  0  0  0
  -32.8150  -23.3890   16.7830 C   0  0  0  0  0  1  0  0  0  0  0  0
  -31.3300  -23.4970   16.3940 C   0  0  0  0  0  2  0  0  0  0  0  0
  -29.2930  -25.7350   18.1930 C   0  0  0  0  0  3  0  0  0  0  0  0
  -28.1710  -27.1670   16.4840 C   0  0  0  0  0  0  0  0  0  0  0  0
  -26.8640  -27.4280   15.7510 C   0  0  0  0  0  1  0  0  0  0  0  0
  -28.1800  -26.1400   17.3400 N   0  0  0  0  0  0  0  0  0  0  0  0
  -29.1490  -27.8880   16.2830 O   0  0  0  0  0  0  0  0  0  0  0  0
  -27.3320  -25.5990   17.4300 H   0  0  0  0  0  0  0  0  0  0  0  0
  -29.4310  -26.7210   19.3890 C   0  0  0  0  0  2  0  0  0  0  0  0
  -28.3760  -26.6630   20.3420 O   0  0  0  0  0  0  0  0  0  0  0  0
  -24.5630  -31.9210   23.2310 C   0  0  0  0  0  0  0  0  0  0  0  0
  -27.2760  -27.4800   20.2030 C   0  0  0  0  0  0  0  0  0  0  0  0
  -23.3840  -30.4950   21.5900 C   0  0  0  0  0  3  0  0  0  0  0  0
  -24.8660  -28.9630   20.1830 C   0  0  0  0  0  0  0  0  0  0  0  0
  -25.9090  -30.8780   21.4080 C   0  0  0  0  0  2  0  0  0  0  0  0
  -26.0170  -29.5060   20.7710 C   0  0  0  0  0  0  0  0  0  0  0  0
  -27.2290  -28.7730   20.7780 C   0  0  0  0  0  3  0  0  0  0  0  0
  -26.1060  -26.9440   19.6310 C   0  0  0  0  0  3  0  0  0  0  0  0
  -24.9070  -27.6820   19.6060 C   0  0  0  0  0  3  0  0  0  0  0  0
  -23.6100  -29.8060   20.2170 C   0  0  0  0  0  2  0  0  0  0  0  0
  -24.6370  -31.1110   22.1350 N   0  0  0  0  0  0  0  0  0  0  0  0
  -23.4750  -32.1890   23.7600 O   0  0  0  0  0  0  0  0  0  0  0  0
  -22.7330  -29.4770   22.5550 C   0  0  0  0  0  0  0  0  0  0  0  0
  -21.4090  -29.2870   22.4220 N   0  0  0  0  0  0  0  0  0  0  0  0
  -23.4140  -28.8630   23.3810 O   0  0  0  0  0  0  0  0  0  0  0  0
  -20.9200  -29.8360   21.7290 H   0  0  0  0  0  0  0  0  0  0  0  0
  -18.0350  -28.0960   22.9270 C   0  0  0  0  0  0  0  0  0  0  0  0
  -20.5930  -28.3500   23.1930 C   0  0  0  0  0  3  0  0  0  0  0  0
  -20.6920  -26.9180   22.6160 C   0  0  0  0  0  2  0  0  0  0  0  0
  -19.5880  -26.5990   21.6030 C   0  0  0  0  0  2  0  0  0  0  0  0
  -18.2070  -26.7470   22.2500 C   0  0  0  0  0  2  0  0  0  0  0  0
  -19.1560  -28.8560   23.3550 C   0  0  0  0  0  0  0  0  0  0  0  0
  -18.9420  -30.1200   23.9480 C   0  0  0  0  0  3  0  0  0  0  0  0
  -17.6390  -30.6240   24.1150 C   0  0  0  0  0  3  0  0  0  0  0  0
  -16.5320  -29.8620   23.7040 C   0  0  0  0  0  3  0  0  0  0  0  0
  -16.7310  -28.6000   23.1160 C   0  0  0  0  0  3  0  0  0  0  0  0
  -25.8390  -32.5680   23.8550 C   0  0  0  0  0  3  0  0  0  0  0  0
  -25.5160  -33.9660   24.1730 N   0  0  0  0  0  0  0  0  0  0  0  0
  -25.8550  -35.0160   23.4130 C   0  0  0  0  0  0  0  0  0  0  0  0
  -26.5430  -34.9120   22.3940 O   0  0  0  0  0  0  0  0  0  0  0  0
  -24.9050  -34.1210   24.9610 H   0  0  0  0  0  0  0  0  0  0  0  0
  -24.1380  -36.8070   23.0000 C   0  0  0  0  0  1  0  0  0  0  0  0
  -25.3500  -36.4040   23.8530 C   0  0  0  0  0  3  0  0  0  0  0  0
  -27.4500  -37.2950   24.7630 C   0  0  0  0  0  1  0  0  0  0  0  0
  -26.3850  -37.4580   23.7760 N   0  0  0  0  0  0  0  0  0  0  0  0
  -25.9730  -38.3780   23.9050 H   0  0  0  0  0  0  0  0  0  0  0  0
  -26.3570  -31.8090   25.1390 C   0  0  1  0  0  0  0  0  0  0  0  0
  -25.2590  -31.5610   26.1980 C   0  0  0  0  0  1  0  0  0  0  0  0
  -26.9620  -30.4390   24.7540 C   0  0  0  0  0  1  0  0  0  0  0  0
  -27.4920  -32.6220   25.8070 C   0  0  0  0  0  1  0  0  0  0  0  0
  1  5  1  0
  2  8  1  0
  2  1  1  0
  4  8  1  0
  4  7  1  0
  5  3  1  0
  5 10  1  0
  6  3  1  0
  7 54  1  0
  7  6  1  0
  8 53  1  6
  8  6  1  0
  9  1  2  0
 10 13  1  0
 10 11  1  0
 12 10  1  0
 13 14  1  0
 14 15  1  0
 16 15  1  0
 17 22  1  0
 18 19  1  0
 18 17  1  0
 20 19  1  0
 20 27  1  0
 20 21  1  0
 22 16  1  0
 22 21  1  0
 23 16  2  0
 24 25  2  0
 25 44  1  0
 26 25  1  0
 26 29  1  0
 27 24  1  0
 27 28  1  0
 28 26  2  0
 29 30  1  0
 30 31  2  0
 32 35  1  0
 32 31  1  0
 33 32  2  0
 34 33  1  0
 34 29  2  0
 35 36  1  0
 36 37  1  0
 37 38  2  0
 39 38  1  0
 39 43  1  0
 40 39  2  0
 41 36  2  0
 41 40  1  0
 42 41  1  0
 44 45  1  0
 45 48  1  0
 45 47  1  0
 46 44  2  0
 49 50  1  0
 49 24  1  0
 51 49  1  0
 53 52  1  0
 54 60  1  0
 55 57  1  0
 56 55  1  0
 57 59  1  0
 57 54  1  0
 58 55  2  0
 60 61  1  0
 62 73  2  0
 63 61  1  0
 63 68  1  0
 64 72  1  0
 64 74  1  0
 65 71  1  0
 65 67  1  0
 66 72  1  0
 67 68  2  0
 67 66  1  0
 69 63  2  0
 70 69  1  0
 70 65  2  0
 71 64  1  0
 72 62  1  0
 74 76  2  0
 75 74  1  0
 77 75  1  0
 78 87  2  0
 78 83  1  0
 79 75  1  0
 79 83  1  0
 80 79  1  0
 81 82  1  0
 81 80  1  0
 82 78  1  0
 83 84  2  0
 84 85  1  0
 86 85  2  0
 87 86  1  0
 88 62  1  0
 88 89  1  0
 88 98  1  0
 89 92  1  0
 90 94  1  0
 90 89  1  0
 91 90  2  0
 94 93  1  0
 96 94  1  0
 96 97  1  0
 96 95  1  0
 98101  1  1
 98 99  1  0
100 98  1  0
M  ISO  4  15 100  16 100  60 101  61 101
M  END
>  <TORSDO>  (3) 
F 24

>  <SCORE>  (3) 
-12.700

>  <name>  (3) 
2

>  <ligand_id>  (3) 
2

>  <original_smiles>  (3) 
[H]c1c([H])c([H])c2c(c1[H])C([H])([H])C([H])([H])C([H])([H])C2([H])N([H])C(=O)C1([H])N(C(=O)C([H])(N([H])C(=O)C([H])(N([H])C([H])([H])[H])C([H])([H])[H])C(C([H])([H])[H])(C([H])([H])[H])C([H])([H])[H])C([H])([H])c2c([H])c(OC([H])([H])C([H])(N([H])C(=O)C([H])([H])[H])C3([H])C([H])([H])C4(C([H])([H])C([H])([H])[H])C([H])([H])C(=O)C([H])([N+]([H])([H])C([H])([H])C([H])([H])C([H])([H])C(=O)N5C([H])([H])C([H])([H])C([H])([H])C([H])(n6nc(-c7c([H])c([H])c(Oc8c([H])c([H])c(F)c([H])c8F)c([H])c7[H])c(C(=O)N([H])[H])c6N([H])[H])C5([H])[H])C([H])([H])C34[H])c([H])c([H])c2C1([H])[H]

>  <smiles>  (3) 
[H]c1c([H])c([H])c2c(c1[H])C([H])([H])C([H])([H])C([H])([H])C2([H])N([H])C(=O)C1([H])N(C(=O)C([H])(N([H])C(=O)C([H])(N([H])C([H])([H])[H])C([H])([H])[H])C(C([H])([H])[H])(C([H])([H])[H])C([H])([H])[H])C([H])([H])c2c([H])c(OC([H])([H])C([H])(N([H])C(=O)C([H])([H])[H])C3([H])C([H])([H])C4(C([H])([H])C([H])([H])[H])C([H])([H])C(=O)C([H])([N+]([H])([H])C([H])([H])C([H])([H])C([H])([H])C(=O)N5C([H])([H])C([H])([H])C([H])([H])C([H])(n6nc(-c7c([H])c([H])c(Oc8c([H])c([H])c(F)c([H])c8F)c([H])c7[H])c(C(=O)N([H])[H])c6N([H])[H])C5([H])[H])C([H])([H])C34[H])c([H])c([H])c2C1([H])[H]

$$$$
3:0:0
     RDKit          3D

 94103  0  0  1  0  0  0  0  0999 V2000
  -28.9780  -22.0670   20.1940 C   0  0  0  0  0  0  0  0  0  0  0  0
  -29.8690  -20.9820   20.5290 N   0  0  0  0  0  0  0  0  0  0  0  0
  -27.9790  -21.8300   19.5140 O   0  0  0  0  0  0  0  0  0  0  0  0
  -30.7990  -15.4110   20.2060 C   0  0  0  0  0  0  0  0  0  0  0  0
  -30.6590  -13.0520   19.2660 C   0  0  0  0  0  2  0  0  0  0  0  0
  -29.7160  -12.9650   18.0450 C   0  0  0  0  0  2  0  0  0  0  0  0
  -28.2590  -12.7320   18.4940 C   0  0  0  0  0  2  0  0  0  0  0  0
  -27.8370  -13.6540   19.6640 C   0  0  0  0  0  3  0  0  0  0  0  0
  -28.9110  -13.7410   20.7710 C   0  0  0  0  0  2  0  0  0  0  0  0
  -30.1670  -14.1630   20.1280 N   0  0  0  0  0  0  0  0  0  0  0  0
  -32.0340  -15.4050   20.1460 O   0  0  0  0  0  0  0  0  0  0  0  0
  -28.9340  -18.7700   15.7800 C   0  0  0  0  0  3  0  0  0  0  0  0
  -29.4770  -20.0120   16.1430 C   0  0  0  0  0  3  0  0  0  0  0  0
  -28.8020  -17.7580   16.7470 C   0  0  0  0  0  2  0  0  0  0  0  0
  -29.8600  -20.2440   17.4750 C   0  0  0  0  0  3  0  0  0  0  0  0
  -29.1980  -17.9750   18.0870 C   0  0  0  0  0  0  0  0  0  0  0  0
  -29.6850  -19.2540   18.4720 C   0  0  0  0  0  0  0  0  0  0  0  0
  -29.0700  -16.7930   19.0520 C   0  0  0  0  0  3  0  0  0  0  0  0
  -30.2800  -18.0790   20.7550 C   0  0  0  0  0  3  0  0  0  0  0  0
  -30.1490  -19.5240   19.9010 C   0  0  0  0  0  0  0  0  0  0  0  0
  -30.0700  -16.6530   20.1190 N   0  0  0  0  0  0  0  0  0  0  0  0
  -25.4670  -14.2430   20.4140 C   0  0  0  0  0  0  0  0  0  0  0  0
  -24.4010  -13.4680   20.7700 C   0  0  0  0  0  0  0  0  0  0  0  0
  -24.8680  -12.1180   20.7370 C   0  0  0  0  0  0  0  0  0  0  0  0
  -26.5100  -13.3610   20.1760 N   0  0  0  0  0  0  0  0  0  0  0  0
  -26.1600  -12.0790   20.4380 N   0  0  0  0  0  0  0  0  0  0  0  0
  -24.1440  -10.8560   20.9140 C   0  0  0  0  0  0  0  0  0  0  0  0
  -24.5490   -9.9040   21.8750 C   0  0  0  0  0  3  0  0  0  0  0  0
  -23.8250   -8.7050   22.0400 C   0  0  0  0  0  3  0  0  0  0  0  0
  -22.6820   -8.4510   21.2450 C   0  0  0  0  0  0  0  0  0  0  0  0
  -22.2980   -9.3910   20.2740 C   0  0  0  0  0  3  0  0  0  0  0  0
  -23.0230  -10.5820   20.1060 C   0  0  0  0  0  3  0  0  0  0  0  0
  -21.9320   -7.3030   21.3200 O   0  0  0  0  0  0  0  0  0  0  0  0
  -21.8110   -6.5990   22.4910 C   0  0  0  0  0  0  0  0  0  0  0  0
  -21.2870   -7.1860   23.6630 C   0  0  0  0  0  3  0  0  0  0  0  0
  -21.1160   -6.4070   24.8250 C   0  0  0  0  0  3  0  0  0  0  0  0
  -21.4580   -5.0410   24.8140 C   0  0  0  0  0  0  0  0  0  0  0  0
  -21.9740   -4.4540   23.6460 C   0  0  0  0  0  3  0  0  0  0  0  0
  -22.1480   -5.2300   22.4870 C   0  0  0  0  0  0  0  0  0  0  0  0
  -22.6270   -4.6550   21.3570 F   0  0  0  0  0  0  0  0  0  0  0  0
  -21.2850   -4.2910   25.9260 F   0  0  0  0  0  0  0  0  0  0  0  0
  -23.0020  -13.9450   21.0280 C   0  0  0  0  0  0  0  0  0  0  0  0
  -22.2710  -13.2530   21.8950 N   0  0  0  0  0  0  0  0  0  0  0  0
  -22.5660  -14.9650   20.4970 O   0  0  0  0  0  0  0  0  0  0  0  0
  -22.6370  -12.4280   22.3480 H   0  0  0  0  0  0  0  0  0  0  0  0
  -21.3310  -13.5540   22.1120 H   0  0  0  0  0  0  0  0  0  0  0  0
  -25.6270  -15.6160   20.2460 N   0  0  0  0  0  0  0  0  0  0  0  0
  -24.8560  -16.2640   20.3660 H   0  0  0  0  0  0  0  0  0  0  0  0
  -26.4810  -16.0690   19.9560 H   0  0  0  0  0  0  0  0  0  0  0  0
  -30.2540  -21.2430   22.9770 C   0  0  0  0  0  1  0  0  0  0  0  0
  -30.8680  -21.2730   21.5670 C   0  0  0  0  0  2  0  0  0  0  0  0
  -29.1620  -23.6770   20.5980 C   0  0  0  0  0  3  0  0  0  0  0  0
  -28.1310  -24.9460   20.1510 C   0  0  0  0  0  3  0  0  0  0  0  0
  -28.3370  -26.4870   20.3310 O   0  0  0  0  0  0  0  0  0  0  0  0
  -24.5900  -32.0630   23.3740 C   0  0  0  0  0  0  0  0  0  0  0  0
  -27.2560  -27.4450   20.2670 C   0  0  0  0  0  0  0  0  0  0  0  0
  -23.4130  -30.6690   21.7160 C   0  0  0  0  0  3  0  0  0  0  0  0
  -24.8890  -29.1430   20.2630 C   0  0  0  0  0  0  0  0  0  0  0  0
  -25.9610  -30.9860   21.5500 C   0  0  0  0  0  2  0  0  0  0  0  0
  -26.0600  -29.6050   20.8770 C   0  0  0  0  0  0  0  0  0  0  0  0
  -27.2430  -28.7720   20.8610 C   0  0  0  0  0  3  0  0  0  0  0  0
  -26.0560  -27.0870   19.6120 C   0  0  0  0  0  3  0  0  0  0  0  0
  -24.9000  -27.8980   19.6150 C   0  0  0  0  0  3  0  0  0  0  0  0
  -23.6430  -30.0140   20.3270 C   0  0  0  0  0  2  0  0  0  0  0  0
  -24.6750  -31.2600   22.2680 N   0  0  0  0  0  0  0  0  0  0  0  0
  -23.5010  -32.3190   23.9080 O   0  0  0  0  0  0  0  0  0  0  0  0
  -22.7550  -29.6370   22.6650 C   0  0  0  0  0  0  0  0  0  0  0  0
  -21.4410  -29.3990   22.4970 N   0  0  0  0  0  0  0  0  0  0  0  0
  -23.4300  -29.0510   23.5160 O   0  0  0  0  0  0  0  0  0  0  0  0
  -20.9520  -29.9240   21.7870 H   0  0  0  0  0  0  0  0  0  0  0  0
  -18.1240  -27.9880   22.8600 C   0  0  0  0  0  0  0  0  0  0  0  0
  -20.6430  -28.4270   23.2500 C   0  0  0  0  0  3  0  0  0  0  0  0
  -20.8680  -26.9910   22.7210 C   0  0  0  0  0  2  0  0  0  0  0  0
  -19.8450  -26.5720   21.6600 C   0  0  0  0  0  2  0  0  0  0  0  0
  -18.4240  -26.6380   22.2280 C   0  0  0  0  0  2  0  0  0  0  0  0
  -19.1660  -28.8340   23.3250 C   0  0  0  0  0  0  0  0  0  0  0  0
  -18.8320  -30.0910   23.8740 C   0  0  0  0  0  3  0  0  0  0  0  0
  -17.4890  -30.5050   23.9630 C   0  0  0  0  0  3  0  0  0  0  0  0
  -16.4620  -29.6580   23.5130 C   0  0  0  0  0  3  0  0  0  0  0  0
  -16.7800  -28.4010   22.9670 C   0  0  0  0  0  3  0  0  0  0  0  0
  -25.8580  -32.7130   24.0080 C   0  0  0  0  0  3  0  0  0  0  0  0
  -26.3350  -31.9850   25.3250 C   0  0  1  0  0  0  0  0  0  0  0  0
  -25.2060  -31.7620   26.3580 C   0  0  0  0  0  1  0  0  0  0  0  0
  -26.9500  -30.6040   24.9980 C   0  0  0  0  0  1  0  0  0  0  0  0
  -27.4500  -32.8130   26.0060 C   0  0  0  0  0  1  0  0  0  0  0  0
  -25.5450  -34.1230   24.2880 N   0  0  0  0  0  0  0  0  0  0  0  0
  -25.8980  -35.1540   23.5090 C   0  0  0  0  0  0  0  0  0  0  0  0
  -26.5880  -35.0180   22.4940 O   0  0  0  0  0  0  0  0  0  0  0  0
  -24.9350  -34.3040   25.0720 H   0  0  0  0  0  0  0  0  0  0  0  0
  -24.1800  -36.9440   23.0840 C   0  0  0  0  0  1  0  0  0  0  0  0
  -25.4120  -36.5600   23.9180 C   0  0  0  0  0  3  0  0  0  0  0  0
  -27.5430  -37.4660   24.7400 C   0  0  0  0  0  1  0  0  0  0  0  0
  -26.4500  -37.6050   23.7810 N   0  0  0  0  0  0  0  0  0  0  0  0
  -26.0450  -38.5310   23.8930 H   0  0  0  0  0  0  0  0  0  0  0  0
  1  2  1  0
  1 52  1  0
  2 51  1  0
  3  1  2  0
  5 10  1  0
  6  7  1  0
  6  5  1  0
  8  7  1  0
  8 25  1  0
  8  9  1  0
 10  4  1  0
 10  9  1  0
 11  4  2  0
 12 13  2  0
 12 14  1  0
 13 15  1  0
 14 16  1  0
 15 17  2  0
 16 17  1  0
 16 18  2  0
 17 20  1  0
 18 21  1  0
 20  2  1  0
 20 19  2  0
 21  4  1  0
 21 19  1  0
 22 23  2  0
 23 42  1  0
 24 23  1  0
 24 27  1  0
 25 22  1  0
 25 26  1  0
 26 24  2  0
 27 28  1  0
 28 29  2  0
 30 33  1  0
 30 29  1  0
 31 30  2  0
 32 31  1  0
 32 27  2  0
 33 34  1  0
 34 35  1  0
 35 36  2  0
 37 36  1  0
 37 41  1  0
 38 37  2  0
 39 34  2  0
 39 38  1  0
 40 39  1  0
 42 43  1  0
 43 46  1  0
 43 45  1  0
 44 42  2  0
 47 48  1  0
 47 22  1  0
 49 47  1  0
 51 50  1  0
 53 54  1  0
 53 52  2  0
 55 66  2  0
 56 54  1  0
 56 61  1  0
 57 65  1  0
 57 67  1  0
 58 64  1  0
 58 60  1  0
 59 65  1  0
 60 59  1  0
 61 60  2  0
 62 63  1  0
 62 56  2  0
 63 58  2  0
 64 57  1  0
 65 55  1  0
 67 69  2  0
 68 67  1  0
 70 68  1  0
 71 80  2  0
 71 76  1  0
 72 68  1  0
 72 76  1  0
 73 72  1  0
 74 75  1  0
 74 73  1  0
 75 71  1  0
 76 77  2  0
 77 78  1  0
 79 78  2  0
 80 79  1  0
 81 55  1  0
 81 86  1  0
 81 82  1  0
 82 85  1  1
 82 83  1  0
 84 82  1  0
 86 89  1  0
 87 91  1  0
 87 86  1  0
 88 87  2  0
 91 90  1  0
 93 94  1  0
 93 91  1  0
 93 92  1  0
M  ISO  4   4 100  21 100  53 101  54 101
M  END
>  <TORSDO>  (4) 
F 19

>  <SCORE>  (4) 
-14.158

>  <name>  (4) 
3

>  <ligand_id>  (4) 
3

>  <original_smiles>  (4) 
[H]c1c([H])c([H])c2c(c1[H])C([H])([H])N(C(=O)N1C([H])([H])C([H])([H])C([H])([H])C([H])(n3nc(-c4c([H])c([H])c(Oc5c([H])c([H])c(F)c([H])c5F)c([H])c4[H])c(C(=O)N([H])[H])c3N([H])[H])C1([H])[H])C([H])([H])C2([H])N(C(=O)C([H])([H])C([H])([H])Oc1c([H])c([H])c2c(c1[H])C([H])([H])N(C(=O)C([H])(N([H])C(=O)C([H])(N([H])C([H])([H])[H])C([H])([H])[H])C(C([H])([H])[H])(C([H])([H])[H])C([H])([H])[H])C([H])(C(=O)N([H])C1([H])c3c([H])c([H])c([H])c([H])c3C([H])([H])C([H])([H])C1([H])[H])C2([H])[H])C([H])([H])C([H])([H])[H]

>  <smiles>  (4) 
[H]c1c([H])c([H])c2c(c1[H])C([H])([H])N(C(=O)N1C([H])([H])C([H])([H])C([H])([H])C([H])(n3nc(-c4c([H])c([H])c(Oc5c([H])c([H])c(F)c([H])c5F)c([H])c4[H])c(C(=O)N([H])[H])c3N([H])[H])C1([H])[H])C([H])([H])C2([H])N(C(=O)C([H])([H])C([H])([H])Oc1c([H])c([H])c2c(c1[H])C([H])([H])N(C(=O)C([H])(N([H])C(=O)C([H])(N([H])C([H])([H])[H])C([H])([H])[H])C(C([H])([H])[H])(C([H])([H])[H])C([H])([H])[H])C([H])(C(=O)N([H])C1([H])c3c([H])c([H])c([H])c([H])c3C([H])([H])C([H])([H])C1([H])[H])C2([H])[H])C([H])([H])C([H])([H])[H]

$$$$
4:0:0
     RDKit          3D

 89 97  0  0  1  0  0  0  0  0999 V2000
  -28.2510  -19.3260   19.1100 C   0  0  0  0  0  3  0  0  0  0  0  0
  -28.2030  -18.0230   18.5690 C   0  0  0  0  0  3  0  0  0  0  0  0
  -29.6280  -18.3600   20.8600 C   0  0  0  0  0  3  0  0  0  0  0  0
  -29.6000  -16.8990   20.3460 C   0  0  0  0  0  0  0  0  0  0  0  0
  -28.9710  -19.6350   20.2750 C   0  0  0  0  0  0  0  0  0  0  0  0
  -28.8670  -16.8880   19.1110 C   0  0  0  0  0  0  0  0  0  0  0  0
  -30.4040  -15.4760   20.8050 C   0  0  0  0  0  0  0  0  0  0  0  0
  -30.5860  -12.9710   20.1470 C   0  0  0  0  0  2  0  0  0  0  0  0
  -29.8140  -12.6110   18.8520 C   0  0  0  0  0  2  0  0  0  0  0  0
  -28.3160  -12.3580   19.1270 C   0  0  0  0  0  2  0  0  0  0  0  0
  -27.7190  -13.3390   20.1690 C   0  0  0  0  0  3  0  0  0  0  0  0
  -28.6460  -13.6150   21.3630 C   0  0  0  0  0  2  0  0  0  0  0  0
  -29.9080  -14.1390   20.8130 N   0  0  0  0  0  0  0  0  0  0  0  0
  -31.6430  -15.4990   20.8740 O   0  0  0  0  0  0  0  0  0  0  0  0
  -25.2830  -13.8610   20.6920 C   0  0  0  0  0  0  0  0  0  0  0  0
  -24.2100  -13.0660   20.9800 C   0  0  0  0  0  0  0  0  0  0  0  0
  -24.7090  -11.7280   21.0210 C   0  0  0  0  0  0  0  0  0  0  0  0
  -26.3630  -13.0030   20.5700 N   0  0  0  0  0  0  0  0  0  0  0  0
  -26.0250  -11.7180   20.8370 N   0  0  0  0  0  0  0  0  0  0  0  0
  -24.0010  -10.4530   21.1680 C   0  0  0  0  0  0  0  0  0  0  0  0
  -24.3780   -9.5100   22.1500 C   0  0  0  0  0  3  0  0  0  0  0  0
  -23.6690   -8.2980   22.2860 C   0  0  0  0  0  3  0  0  0  0  0  0
  -22.5700   -8.0190   21.4400 C   0  0  0  0  0  0  0  0  0  0  0  0
  -22.2150   -8.9500   20.4480 C   0  0  0  0  0  3  0  0  0  0  0  0
  -22.9250  -10.1540   20.3100 C   0  0  0  0  0  3  0  0  0  0  0  0
  -21.8370   -6.8590   21.4840 O   0  0  0  0  0  0  0  0  0  0  0  0
  -21.7120   -6.1310   22.6390 C   0  0  0  0  0  0  0  0  0  0  0  0
  -21.1740   -6.6900   23.8200 C   0  0  0  0  0  3  0  0  0  0  0  0
  -21.0030   -5.8860   24.9640 C   0  0  0  0  0  3  0  0  0  0  0  0
  -21.3560   -4.5250   24.9290 C   0  0  0  0  0  0  0  0  0  0  0  0
  -21.8860   -3.9640   23.7530 C   0  0  0  0  0  3  0  0  0  0  0  0
  -22.0600   -4.7640   22.6110 C   0  0  0  0  0  0  0  0  0  0  0  0
  -22.5550   -4.2150   21.4760 F   0  0  0  0  0  0  0  0  0  0  0  0
  -21.1810   -3.7500   26.0260 F   0  0  0  0  0  0  0  0  0  0  0  0
  -22.7840  -13.5150   21.1030 C   0  0  0  0  0  0  0  0  0  0  0  0
  -21.9920  -12.8250   21.9150 N   0  0  0  0  0  0  0  0  0  0  0  0
  -22.3780  -14.5150   20.5100 O   0  0  0  0  0  0  0  0  0  0  0  0
  -22.3270  -12.0160   22.4170 H   0  0  0  0  0  0  0  0  0  0  0  0
  -21.0300  -13.1120   22.0430 H   0  0  0  0  0  0  0  0  0  0  0  0
  -25.4280  -15.2330   20.4930 N   0  0  0  0  0  0  0  0  0  0  0  0
  -24.6330  -15.8610   20.4730 H   0  0  0  0  0  0  0  0  0  0  0  0
  -26.2850  -15.6590   20.1600 H   0  0  0  0  0  0  0  0  0  0  0  0
  -28.8120  -15.7650   18.2860 N   0  0  0  0  0  0  0  0  0  0  0  0
  -28.2680  -15.7450   17.4310 H   0  0  0  0  0  0  0  0  0  0  0  0
  -29.2130  -14.8720   18.5560 H   0  0  0  0  0  0  0  0  0  0  0  0
  -28.7760  -21.2860   20.7910 C   0  0  0  0  0  2  0  0  0  0  0  0
  -28.6060  -22.8570   19.9430 C   0  0  0  0  0  2  0  0  0  0  0  0
  -27.7970  -24.4020   20.3510 C   0  0  0  0  0  2  0  0  0  0  0  0
  -28.0330  -25.9920   20.0260 O   0  0  0  0  0  0  0  0  0  0  0  0
  -24.5860  -31.9420   23.1380 C   0  0  0  0  0  0  0  0  0  0  0  0
  -27.0210  -27.0760   20.0500 C   0  0  0  0  0  0  0  0  0  0  0  0
  -23.3400  -30.5640   21.5240 C   0  0  0  0  0  3  0  0  0  0  0  0
  -24.7370  -28.9550   20.0680 C   0  0  0  0  0  0  0  0  0  0  0  0
  -25.9020  -30.7630   21.3130 C   0  0  0  0  0  2  0  0  0  0  0  0
  -25.9440  -29.3550   20.6550 C   0  0  0  0  0  0  0  0  0  0  0  0
  -27.0820  -28.4370   20.6210 C   0  0  0  0  0  3  0  0  0  0  0  0
  -25.7830  -26.8200   19.4220 C   0  0  0  0  0  3  0  0  0  0  0  0
  -24.6780  -27.7070   19.4310 C   0  0  0  0  0  3  0  0  0  0  0  0
  -23.5330  -29.8900   20.1380 C   0  0  0  0  0  2  0  0  0  0  0  0
  -24.6320  -31.1180   22.0440 N   0  0  0  0  0  0  0  0  0  0  0  0
  -23.5120  -32.2360   23.6900 O   0  0  0  0  0  0  0  0  0  0  0  0
  -22.6670  -29.5640   22.5020 C   0  0  0  0  0  0  0  0  0  0  0  0
  -21.3330  -29.4000   22.4010 N   0  0  0  0  0  0  0  0  0  0  0  0
  -23.3500  -28.9430   23.3190 O   0  0  0  0  0  0  0  0  0  0  0  0
  -20.8380  -29.9610   21.7210 H   0  0  0  0  0  0  0  0  0  0  0  0
  -17.9640  -28.1780   22.9600 C   0  0  0  0  0  0  0  0  0  0  0  0
  -20.5240  -28.4630   23.1900 C   0  0  0  0  0  3  0  0  0  0  0  0
  -20.6280  -27.0260   22.6260 C   0  0  0  0  0  2  0  0  0  0  0  0
  -19.5160  -26.6880   21.6290 C   0  0  0  0  0  2  0  0  0  0  0  0
  -18.1410  -26.8260   22.2910 C   0  0  0  0  0  2  0  0  0  0  0  0
  -19.0820  -28.9520   23.3690 C   0  0  0  0  0  0  0  0  0  0  0  0
  -18.8600  -30.2140   23.9620 C   0  0  0  0  0  3  0  0  0  0  0  0
  -17.5520  -30.7010   24.1480 C   0  0  0  0  0  3  0  0  0  0  0  0
  -16.4490  -29.9250   23.7520 C   0  0  0  0  0  3  0  0  0  0  0  0
  -16.6560  -28.6650   23.1650 C   0  0  0  0  0  3  0  0  0  0  0  0
  -25.8790  -32.5720   23.7400 C   0  0  0  0  0  3  0  0  0  0  0  0
  -26.4300  -31.7750   24.9860 C   0  0  1  0  0  0  0  0  0  0  0  0
  -25.3680  -31.5190   26.0830 C   0  0  0  0  0  1  0  0  0  0  0  0
  -26.9970  -30.4010   24.5610 C   0  0  0  0  0  1  0  0  0  0  0  0
  -27.6040  -32.5540   25.6260 C   0  0  0  0  0  1  0  0  0  0  0  0
  -25.5720  -33.9590   24.1230 N   0  0  0  0  0  0  0  0  0  0  0  0
  -25.8950  -35.0450   23.4070 C   0  0  0  0  0  0  0  0  0  0  0  0
  -26.5500  -34.9820   22.3630 O   0  0  0  0  0  0  0  0  0  0  0  0
  -24.9970  -34.0820   24.9450 H   0  0  0  0  0  0  0  0  0  0  0  0
  -24.1830  -36.8730   23.1370 C   0  0  0  0  0  1  0  0  0  0  0  0
  -25.4200  -36.4180   23.9290 C   0  0  0  0  0  3  0  0  0  0  0  0
  -27.5630  -37.2500   24.7950 C   0  0  0  0  0  1  0  0  0  0  0  0
  -26.4620  -37.4680   23.8620 N   0  0  0  0  0  0  0  0  0  0  0  0
  -26.0630  -38.3840   24.0450 H   0  0  0  0  0  0  0  0  0  0  0  0
  1  5  1  0
  2  1  2  0
  2  6  1  0
  4  7  1  0
  4  3  1  0
  5 46  1  0
  5  3  2  0
  6  4  2  0
  7 13  1  0
  7 14  2  0
  8 13  1  0
  9 10  1  0
  9  8  1  0
 11 10  1  0
 11 18  1  0
 11 12  1  0
 13 12  1  0
 15 16  2  0
 16 17  1  0
 16 35  1  0
 17 20  1  0
 18 15  1  0
 18 19  1  0
 19 17  2  0
 20 21  1  0
 21 22  2  0
 23 26  1  0
 23 22  1  0
 24 23  2  0
 25 24  1  0
 25 20  2  0
 26 27  1  0
 27 28  1  0
 28 29  2  0
 30 29  1  0
 30 34  1  0
 31 30  2  0
 32 27  2  0
 32 31  1  0
 33 32  1  0
 35 36  1  0
 36 39  1  0
 36 38  1  0
 37 35  2  0
 40 15  1  0
 41 40  1  0
 42 40  1  0
 43 45  1  0
 43  6  1  0
 44 43  1  0
 47 48  1  0
 47 46  1  0
 49 51  1  0
 49 48  1  0
 50 61  2  0
 51 56  1  0
 52 60  1  0
 52 62  1  0
 53 59  1  0
 53 55  1  0
 54 60  1  0
 55 54  1  0
 56 55  2  0
 57 58  1  0
 57 51  2  0
 58 53  2  0
 59 52  1  0
 60 50  1  0
 62 64  2  0
 63 62  1  0
 65 63  1  0
 66 75  2  0
 66 71  1  0
 67 63  1  0
 67 71  1  0
 68 67  1  0
 69 70  1  0
 69 68  1  0
 70 66  1  0
 71 72  2  0
 72 73  1  0
 74 73  2  0
 75 74  1  0
 76 50  1  0
 76 81  1  0
 76 77  1  0
 77 80  1  1
 77 78  1  0
 79 77  1  0
 81 84  1  0
 82 86  1  0
 82 81  1  0
 83 82  2  0
 86 85  1  0
 88 86  1  0
 88 89  1  0
 88 87  1  0
M  ISO  4   4 100   7 100  48 101  49 101
M  END
>  <TORSDO>  (5) 
F 20

>  <SCORE>  (5) 
-15.181

>  <name>  (5) 
4

>  <ligand_id>  (5) 
4

>  <original_smiles>  (5) 
[H]c1c([H])c([H])c2c(c1[H])C([H])([H])C([H])([H])C([H])([H])C2([H])N([H])C(=O)C1([H])N(C(=O)C([H])(N([H])C(=O)C([H])(N([H])C([H])([H])[H])C([H])([H])[H])C(C([H])([H])[H])(C([H])([H])[H])C([H])([H])[H])C([H])([H])c2c([H])c(OC([H])([H])C([H])([H])C([H])([H])c3c([H])c([H])c(N([H])[H])c(C(=O)N4C([H])([H])C([H])([H])C([H])([H])C([H])(n5nc(-c6c([H])c([H])c(Oc7c([H])c([H])c(F)c([H])c7F)c([H])c6[H])c(C(=O)N([H])[H])c5N([H])[H])C4([H])[H])c3[H])c([H])c([H])c2C1([H])[H]

>  <smiles>  (5) 
[H]c1c([H])c([H])c2c(c1[H])C([H])([H])C([H])([H])C([H])([H])C2([H])N([H])C(=O)C1([H])N(C(=O)C([H])(N([H])C(=O)C([H])(N([H])C([H])([H])[H])C([H])([H])[H])C(C([H])([H])[H])(C([H])([H])[H])C([H])([H])[H])C([H])([H])c2c([H])c(OC([H])([H])C([H])([H])C([H])([H])c3c([H])c([H])c(N([H])[H])c(C(=O)N4C([H])([H])C([H])([H])C([H])([H])C([H])(n5nc(-c6c([H])c([H])c(Oc7c([H])c([H])c(F)c([H])c7F)c([H])c6[H])c(C(=O)N([H])[H])c5N([H])[H])C4([H])[H])c3[H])c([H])c([H])c2C1([H])[H]

$$$$
5:0:0
     RDKit          3D

100109  0  0  1  0  0  0  0  0999 V2000
  -29.1070  -22.2940   20.1360 N   0  0  1  0  0  4  0  0  0  0  0  0
  -29.7440  -22.5610   19.4010 H   0  0  0  0  0  0  0  0  0  0  0  0
  -29.8700  -22.0330   23.9490 C   0  0  0  0  0  2  0  0  0  0  0  0
  -32.0640  -21.9830   22.6660 C   0  0  0  0  0  2  0  0  0  0  0  0
  -29.1120  -21.7760   22.6370 C   0  0  0  0  0  2  0  0  0  0  0  0
  -31.2890  -21.7260   21.3580 C   0  0  0  0  0  2  0  0  0  0  0  0
  -31.2990  -21.4510   23.9010 C   0  0  0  0  0  3  0  0  0  0  0  0
  -29.8790  -22.3520   21.4210 C   0  0  0  0  0  3  0  0  0  0  0  0
  -32.0300  -21.7330   25.1490 N   0  0  0  0  0  4  0  0  0  0  0  0
  -32.1350  -22.7200   25.3000 H   0  0  0  0  0  0  0  0  0  0  0  0
  -32.9450  -21.3170   25.1260 H   0  0  0  0  0  0  0  0  0  0  0  0
  -31.5410  -21.3460   25.9360 H   0  0  0  0  0  0  0  0  0  0  0  0
  -28.6340  -20.8670   19.7270 C   0  0  0  0  0  2  0  0  0  0  0  0
  -31.8100  -18.8080   18.7670 C   0  0  0  0  0  3  0  0  0  0  0  0
  -30.8890  -19.8540   18.9620 C   0  0  0  0  0  3  0  0  0  0  0  0
  -31.5160  -17.4830   19.1390 C   0  0  0  0  0  3  0  0  0  0  0  0
  -29.3590  -18.2380   19.9490 C   0  0  0  0  0  3  0  0  0  0  0  0
  -29.6440  -19.6280   19.5870 C   0  0  0  0  0  0  0  0  0  0  0  0
  -30.2720  -17.1180   19.7120 C   0  0  0  0  0  0  0  0  0  0  0  0
  -30.7600  -14.5270   19.9070 C   0  0  0  0  0  0  0  0  0  0  0  0
  -30.5660  -12.1490   19.1650 C   0  0  0  0  0  2  0  0  0  0  0  0
  -29.5910  -12.0740   17.9710 C   0  0  0  0  0  2  0  0  0  0  0  0
  -28.1400  -11.9240   18.4680 C   0  0  0  0  0  2  0  0  0  0  0  0
  -27.7890  -12.9310   19.5960 C   0  0  0  0  0  3  0  0  0  0  0  0
  -28.8840  -12.9880   20.6840 C   0  0  0  0  0  2  0  0  0  0  0  0
  -30.1480  -13.2960   20.0060 N   0  0  0  0  0  0  0  0  0  0  0  0
  -31.9350  -14.5650   19.5350 O   0  0  0  0  0  0  0  0  0  0  0  0
  -29.9820  -15.6820   20.0230 N   0  0  0  0  0  0  0  0  0  0  0  0
  -29.0280  -15.4930   20.2940 H   0  0  0  0  0  0  0  0  0  0  0  0
  -25.4790  -13.5770   20.4990 C   0  0  0  0  0  0  0  0  0  0  0  0
  -24.4110  -12.8270   20.9070 C   0  0  0  0  0  0  0  0  0  0  0  0
  -24.8190  -11.4630   20.7970 C   0  0  0  0  0  0  0  0  0  0  0  0
  -26.4710  -12.6710   20.1620 N   0  0  0  0  0  0  0  0  0  0  0  0
  -26.0850  -11.3910   20.4040 N   0  0  0  0  0  0  0  0  0  0  0  0
  -24.0590  -10.2210   20.9840 C   0  0  0  0  0  0  0  0  0  0  0  0
  -24.4620   -9.2400   21.9190 C   0  0  0  0  0  3  0  0  0  0  0  0
  -23.7010   -8.0640   22.0930 C   0  0  0  0  0  3  0  0  0  0  0  0
  -22.5230   -7.8600   21.3350 C   0  0  0  0  0  0  0  0  0  0  0  0
  -22.1410   -8.8280   20.3890 C   0  0  0  0  0  3  0  0  0  0  0  0
  -22.9010   -9.9950   20.2120 C   0  0  0  0  0  3  0  0  0  0  0  0
  -21.7360   -6.7380   21.4200 O   0  0  0  0  0  0  0  0  0  0  0  0
  -21.6290   -6.0200   22.5840 C   0  0  0  0  0  0  0  0  0  0  0  0
  -21.1170   -6.5930   23.7690 C   0  0  0  0  0  3  0  0  0  0  0  0
  -20.9610   -5.8020   24.9240 C   0  0  0  0  0  3  0  0  0  0  0  0
  -21.3060   -4.4370   24.8950 C   0  0  0  0  0  0  0  0  0  0  0  0
  -21.8100   -3.8630   23.7140 C   0  0  0  0  0  3  0  0  0  0  0  0
  -21.9690   -4.6530   22.5620 C   0  0  0  0  0  0  0  0  0  0  0  0
  -22.4360   -4.0890   21.4220 F   0  0  0  0  0  0  0  0  0  0  0  0
  -21.1480   -3.6740   26.0010 F   0  0  0  0  0  0  0  0  0  0  0  0
  -23.0530  -13.3440   21.2860 C   0  0  0  0  0  0  0  0  0  0  0  0
  -22.3530  -12.6360   22.1660 N   0  0  0  0  0  0  0  0  0  0  0  0
  -22.6260  -14.4070   20.8390 O   0  0  0  0  0  0  0  0  0  0  0  0
  -22.7120  -11.7710   22.5430 H   0  0  0  0  0  0  0  0  0  0  0  0
  -21.4440  -12.9590   22.4630 H   0  0  0  0  0  0  0  0  0  0  0  0
  -25.6850  -14.9470   20.3590 N   0  0  0  0  0  0  0  0  0  0  0  0
  -24.9450  -15.6200   20.5310 H   0  0  0  0  0  0  0  0  0  0  0  0
  -26.5100  -15.3640   19.9490 H   0  0  0  0  0  0  0  0  0  0  0  0
  -28.0410  -23.4260   20.1530 C   0  0  0  0  0  2  0  0  0  0  0  0
  -28.3930  -24.9260   19.6350 C   0  0  0  0  0  2  0  0  0  0  0  0
  -28.2420  -26.2090   20.3960 O   0  0  0  0  0  0  0  0  0  0  0  0
  -24.6510  -31.7340   23.3700 C   0  0  0  0  0  0  0  0  0  0  0  0
  -27.1500  -27.0970   20.2910 C   0  0  0  0  0  0  0  0  0  0  0  0
  -23.4310  -30.4000   21.6880 C   0  0  0  0  0  3  0  0  0  0  0  0
  -24.8500  -28.8160   20.2570 C   0  0  0  0  0  0  0  0  0  0  0  0
  -25.9830  -30.6220   21.5580 C   0  0  0  0  0  2  0  0  0  0  0  0
  -26.0220  -29.2480   20.8880 C   0  0  0  0  0  0  0  0  0  0  0  0
  -27.1710  -28.3980   20.8980 C   0  0  0  0  0  3  0  0  0  0  0  0
  -25.9590  -26.7210   19.6390 C   0  0  0  0  0  3  0  0  0  0  0  0
  -24.8240  -27.5590   19.6260 C   0  0  0  0  0  3  0  0  0  0  0  0
  -23.6460  -29.7370   20.2990 C   0  0  0  0  0  2  0  0  0  0  0  0
  -24.7070  -30.9380   22.2620 N   0  0  0  0  0  0  0  0  0  0  0  0
  -23.5680  -32.0420   23.8880 O   0  0  0  0  0  0  0  0  0  0  0  0
  -22.7140  -29.3970   22.6240 C   0  0  0  0  0  0  0  0  0  0  0  0
  -21.3880  -29.2550   22.4610 N   0  0  0  0  0  0  0  0  0  0  0  0
  -23.3530  -28.7510   23.4590 O   0  0  0  0  0  0  0  0  0  0  0  0
  -20.9330  -29.8290   21.7630 H   0  0  0  0  0  0  0  0  0  0  0  0
  -17.9760  -28.1040   22.8200 C   0  0  0  0  0  0  0  0  0  0  0  0
  -20.5240  -28.3330   23.2010 C   0  0  0  0  0  3  0  0  0  0  0  0
  -20.6320  -26.8960   22.6420 C   0  0  0  0  0  2  0  0  0  0  0  0
  -19.5720  -26.5800   21.5820 C   0  0  0  0  0  2  0  0  0  0  0  0
  -18.1650  -26.7500   22.1590 C   0  0  0  0  0  2  0  0  0  0  0  0
  -19.0850  -28.8550   23.2940 C   0  0  0  0  0  0  0  0  0  0  0  0
  -18.8560  -30.1250   23.8660 C   0  0  0  0  0  3  0  0  0  0  0  0
  -17.5510  -30.6440   23.9720 C   0  0  0  0  0  3  0  0  0  0  0  0
  -16.4570  -29.8890   23.5150 C   0  0  0  0  0  3  0  0  0  0  0  0
  -16.6690  -28.6220   22.9430 C   0  0  0  0  0  3  0  0  0  0  0  0
  -25.9420  -32.3160   24.0240 C   0  0  0  0  0  3  0  0  0  0  0  0
  -25.6800  -33.7260   24.3500 N   0  0  0  0  0  0  0  0  0  0  0  0
  -26.0790  -34.7690   23.6080 C   0  0  0  0  0  0  0  0  0  0  0  0
  -26.7740  -34.6420   22.5970 O   0  0  0  0  0  0  0  0  0  0  0  0
  -25.0710  -33.9030   25.1340 H   0  0  0  0  0  0  0  0  0  0  0  0
  -24.4530  -36.6450   23.2040 C   0  0  0  0  0  1  0  0  0  0  0  0
  -25.6370  -36.1730   24.0610 C   0  0  0  0  0  3  0  0  0  0  0  0
  -27.7650  -36.9590   25.0020 C   0  0  0  0  0  1  0  0  0  0  0  0
  -26.7190  -37.1790   24.0060 N   0  0  0  0  0  0  0  0  0  0  0  0
  -26.3470  -38.1150   24.1380 H   0  0  0  0  0  0  0  0  0  0  0  0
  -26.3930  -31.5280   25.3150 C   0  0  1  0  0  0  0  0  0  0  0  0
  -25.2620  -31.3280   26.3520 C   0  0  0  0  0  1  0  0  0  0  0  0
  -26.9400  -30.1310   24.9390 C   0  0  0  0  0  1  0  0  0  0  0  0
  -27.5510  -32.2810   26.0120 C   0  0  0  0  0  1  0  0  0  0  0  0
  1 58  1  0
  1  2  1  6
  4  7  1  0
  5  3  1  0
  6  8  1  0
  6  4  1  0
  7  3  1  0
  7  9  1  0
  8  1  1  0
  8  5  1  0
  9 10  1  0
  9 12  1  0
 11  9  1  0
 13  1  1  0
 14 15  2  0
 14 16  1  0
 15 18  1  0
 16 19  2  0
 18 13  1  0
 18 17  2  0
 19 17  1  0
 19 28  1  0
 20 26  1  0
 20 28  1  0
 21 26  1  0
 22 23  1  0
 22 21  1  0
 24 23  1  0
 24 33  1  0
 24 25  1  0
 26 25  1  0
 27 20  2  0
 28 29  1  0
 30 31  2  0
 31 50  1  0
 32 31  1  0
 32 35  1  0
 33 34  1  0
 33 30  1  0
 34 32  2  0
 35 36  1  0
 36 37  2  0
 38 41  1  0
 38 37  1  0
 39 38  2  0
 40 39  1  0
 40 35  2  0
 41 42  1  0
 42 43  1  0
 43 44  2  0
 45 44  1  0
 45 49  1  0
 46 45  2  0
 47 42  2  0
 47 46  1  0
 48 47  1  0
 50 51  1  0
 51 54  1  0
 51 53  1  0
 52 50  2  0
 55 30  1  0
 55 56  1  0
 57 55  1  0
 59 58  1  0
 59 60  1  0
 61 72  2  0
 62 60  1  0
 62 67  1  0
 63 71  1  0
 63 73  1  0
 64 70  1  0
 64 66  1  0
 65 71  1  0
 66 67  2  0
 66 65  1  0
 68 62  2  0
 69 68  1  0
 69 64  2  0
 70 63  1  0
 71 61  1  0
 73 75  2  0
 74 73  1  0
 76 74  1  0
 77 86  2  0
 77 82  1  0
 78 74  1  0
 78 82  1  0
 79 78  1  0
 80 81  1  0
 80 79  1  0
 81 77  1  0
 82 83  2  0
 83 84  1  0
 85 84  2  0
 86 85  1  0
 87 61  1  0
 87 88  1  0
 87 97  1  0
 88 91  1  0
 89 93  1  0
 89 88  1  0
 90 89  2  0
 93 92  1  0
 95 93  1  0
 95 96  1  0
 95 94  1  0
 97100  1  1
 97 98  1  0
 99 97  1  0
M  ISO  4  20 100  28 100  59 101  60 101
M  END
>  <TORSDO>  (6) 
F 22

>  <SCORE>  (6) 
-12.562

>  <name>  (6) 
5

>  <ligand_id>  (6) 
5

>  <original_smiles>  (6) 
[H]c1c([H])c([H])c2c(c1[H])C([H])([H])C([H])([H])C([H])([H])C2([H])N([H])C(=O)C1([H])N(C(=O)C([H])(N([H])C(=O)C([H])(N([H])C([H])([H])[H])C([H])([H])[H])C(C([H])([H])[H])(C([H])([H])[H])C([H])([H])[H])C([H])([H])c2c([H])c(OC([H])([H])C([H])([H])[N+]([H])(C([H])([H])c3c([H])c([H])c([H])c(N([H])C(=O)N4C([H])([H])C([H])([H])C([H])([H])C([H])(n5nc(-c6c([H])c([H])c(Oc7c([H])c([H])c(F)c([H])c7F)c([H])c6[H])c(C(=O)N([H])[H])c5N([H])[H])C4([H])[H])c3[H])C3([H])C([H])([H])C([H])([H])C([H])([N+]([H])([H])[H])C([H])([H])C3([H])[H])c([H])c([H])c2C1([H])[H]

>  <smiles>  (6) 
[H]c1c([H])c([H])c2c(c1[H])C([H])([H])C([H])([H])C([H])([H])C2([H])N([H])C(=O)C1([H])N(C(=O)C([H])(N([H])C(=O)C([H])(N([H])C([H])([H])[H])C([H])([H])[H])C(C([H])([H])[H])(C([H])([H])[H])C([H])([H])[H])C([H])([H])c2c([H])c(OC([H])([H])C([H])([H])[N+]([H])(C([H])([H])c3c([H])c([H])c([H])c(N([H])C(=O)N4C([H])([H])C([H])([H])C([H])([H])C([H])(n5nc(-c6c([H])c([H])c(Oc7c([H])c([H])c(F)c([H])c7F)c([H])c6[H])c(C(=O)N([H])[H])c5N([H])[H])C4([H])[H])c3[H])C3([H])C([H])([H])C([H])([H])C([H])([N+]([H])([H])[H])C([H])([H])C3([H])[H])c([H])c([H])c2C1([H])[H]

$$$$
6:0:0
     RDKit          3D

 97104  0  0  1  0  0  0  0  0999 V2000
  -31.0390  -20.1660   22.2080 N   0  0  0  0  0  0  0  0  0  0  0  0
  -31.3000  -20.6540   23.0650 H   0  0  0  0  0  0  0  0  0  0  0  0
  -31.0830  -18.3390   23.8660 C   0  0  0  0  0  1  0  0  0  0  0  0
  -30.4730  -18.8420   22.5460 C   0  0  0  0  0  3  0  0  0  0  0  0
  -30.5420  -17.8170   21.3590 C   0  0  0  0  0  3  0  0  0  0  0  0
  -29.2170  -17.6800   20.6970 N   0  0  0  0  0  4  0  0  0  0  0  0
  -29.0970  -16.7140   20.4430 H   0  0  0  0  0  0  0  0  0  0  0  0
  -28.5100  -17.8870   21.3870 H   0  0  0  0  0  0  0  0  0  0  0  0
  -27.5220  -18.2500   18.9740 C   0  0  0  0  0  1  0  0  0  0  0  0
  -29.9580  -18.2390   18.3460 C   0  0  0  0  0  1  0  0  0  0  0  0
  -28.9500  -18.5000   19.4860 C   0  0  0  0  0  3  0  0  0  0  0  0
  -31.1030  -16.4050   21.6880 C   0  0  0  0  0  2  0  0  0  0  0  0
  -30.7800  -15.3950   20.5630 C   0  0  0  0  0  2  0  0  0  0  0  0
  -31.5370  -14.0570   20.6260 C   0  0  0  0  0  0  0  0  0  0  0  0
  -31.2630  -11.6630   20.1440 C   0  0  0  0  0  2  0  0  0  0  0  0
  -30.4550  -11.5420   18.8340 C   0  0  0  0  0  2  0  0  0  0  0  0
  -28.9390  -11.5760   19.1150 C   0  0  0  0  0  2  0  0  0  0  0  0
  -28.5250  -12.7440   20.0470 C   0  0  0  0  0  3  0  0  0  0  0  0
  -29.4540  -12.8060   21.2820 C   0  0  0  0  0  2  0  0  0  0  0  0
  -30.8420  -12.9020   20.8060 N   0  0  0  0  0  0  0  0  0  0  0  0
  -32.7260  -14.0710   20.2960 O   0  0  0  0  0  0  0  0  0  0  0  0
  -26.1720  -13.6640   20.5440 C   0  0  0  0  0  0  0  0  0  0  0  0
  -24.9980  -13.0420   20.8720 C   0  0  0  0  0  0  0  0  0  0  0  0
  -25.2940  -11.6450   20.9320 C   0  0  0  0  0  0  0  0  0  0  0  0
  -27.1180  -12.6560   20.4310 N   0  0  0  0  0  0  0  0  0  0  0  0
  -26.5880  -11.4390   20.7210 N   0  0  0  0  0  0  0  0  0  0  0  0
  -24.4120  -10.4870   21.1190 C   0  0  0  0  0  0  0  0  0  0  0  0
  -24.7180   -9.4690   22.0490 C   0  0  0  0  0  3  0  0  0  0  0  0
  -23.8450   -8.3740   22.2250 C   0  0  0  0  0  3  0  0  0  0  0  0
  -22.6510   -8.2910   21.4700 C   0  0  0  0  0  0  0  0  0  0  0  0
  -22.3630   -9.2960   20.5290 C   0  0  0  0  0  3  0  0  0  0  0  0
  -23.2350  -10.3820   20.3520 C   0  0  0  0  0  3  0  0  0  0  0  0
  -21.7560   -7.2510   21.5570 O   0  0  0  0  0  0  0  0  0  0  0  0
  -21.6540   -6.4800   22.6880 C   0  0  0  0  0  0  0  0  0  0  0  0
  -21.3650   -7.0440   23.9500 C   0  0  0  0  0  3  0  0  0  0  0  0
  -21.1960   -6.2080   25.0720 C   0  0  0  0  0  3  0  0  0  0  0  0
  -21.3110   -4.8110   24.9330 C   0  0  0  0  0  0  0  0  0  0  0  0
  -21.5940   -4.2480   23.6760 C   0  0  0  0  0  3  0  0  0  0  0  0
  -21.7630   -5.0810   22.5570 C   0  0  0  0  0  0  0  0  0  0  0  0
  -22.0130   -4.5310   21.3430 F   0  0  0  0  0  0  0  0  0  0  0  0
  -21.1430   -4.0070   26.0090 F   0  0  0  0  0  0  0  0  0  0  0  0
  -23.6520  -13.6920   21.0220 C   0  0  0  0  0  0  0  0  0  0  0  0
  -22.7940  -13.1410   21.8720 N   0  0  0  0  0  0  0  0  0  0  0  0
  -23.3690  -14.7240   20.4130 O   0  0  0  0  0  0  0  0  0  0  0  0
  -23.0330  -12.3020   22.3800 H   0  0  0  0  0  0  0  0  0  0  0  0
  -21.8880  -13.5630   22.0130 H   0  0  0  0  0  0  0  0  0  0  0  0
  -26.5120  -14.9920   20.3090 N   0  0  0  0  0  0  0  0  0  0  0  0
  -25.7740  -15.6780   20.1900 H   0  0  0  0  0  0  0  0  0  0  0  0
  -27.3500  -15.2330   19.7950 H   0  0  0  0  0  0  0  0  0  0  0  0
  -30.1750  -21.0440   21.4090 C   0  0  0  0  0  2  0  0  0  0  0  0
  -31.9850  -22.5900   20.4940 C   0  0  0  0  0  1  0  0  0  0  0  0
  -30.6900  -22.4950   21.3170 C   0  0  0  0  0  3  0  0  0  0  0  0
  -29.6260  -23.3020   20.7120 N   0  0  0  0  0  0  0  0  0  0  0  0
  -29.5290  -23.0430   19.7310 H   0  0  0  0  0  0  0  0  0  0  0  0
  -29.7620  -24.7630   20.8050 C   0  0  0  0  0  2  0  0  0  0  0  0
  -28.5330  -25.4510   20.1750 C   0  0  0  0  0  2  0  0  0  0  0  0
  -28.6070  -26.8750   20.2800 O   0  0  0  0  0  0  0  0  0  0  0  0
  -24.6350  -31.9330   23.2830 C   0  0  0  0  0  0  0  0  0  0  0  0
  -27.4100  -27.5590   20.2320 C   0  0  0  0  0  0  0  0  0  0  0  0
  -23.4770  -30.5160   21.6140 C   0  0  0  0  0  3  0  0  0  0  0  0
  -24.9800  -29.0100   20.2080 C   0  0  0  0  0  0  0  0  0  0  0  0
  -25.9980  -30.9230   21.4580 C   0  0  0  0  0  2  0  0  0  0  0  0
  -26.1170  -29.5580   20.8150 C   0  0  0  0  0  0  0  0  0  0  0  0
  -27.3320  -28.8390   20.8260 C   0  0  0  0  0  3  0  0  0  0  0  0
  -26.2550  -27.0260   19.6110 C   0  0  0  0  0  3  0  0  0  0  0  0
  -25.0430  -27.7430   19.6030 C   0  0  0  0  0  3  0  0  0  0  0  0
  -23.7190  -29.8430   20.2370 C   0  0  0  0  0  2  0  0  0  0  0  0
  -24.7200  -31.1390   22.1780 N   0  0  0  0  0  0  0  0  0  0  0  0
  -23.5420  -32.1840   23.8070 O   0  0  0  0  0  0  0  0  0  0  0  0
  -22.8280  -29.4820   22.5610 C   0  0  0  0  0  0  0  0  0  0  0  0
  -21.5040  -29.2980   22.4280 N   0  0  0  0  0  0  0  0  0  0  0  0
  -23.5110  -28.8490   23.3700 O   0  0  0  0  0  0  0  0  0  0  0  0
  -21.0130  -29.8600   21.7470 H   0  0  0  0  0  0  0  0  0  0  0  0
  -18.1310  -28.0990   22.9150 C   0  0  0  0  0  0  0  0  0  0  0  0
  -20.6890  -28.3490   23.1850 C   0  0  0  0  0  3  0  0  0  0  0  0
  -20.7890  -26.9270   22.5860 C   0  0  0  0  0  2  0  0  0  0  0  0
  -19.6850  -26.6240   21.5680 C   0  0  0  0  0  2  0  0  0  0  0  0
  -18.3050  -26.7610   22.2160 C   0  0  0  0  0  2  0  0  0  0  0  0
  -19.2520  -28.8520   23.3550 C   0  0  0  0  0  0  0  0  0  0  0  0
  -19.0370  -30.1060   23.9680 C   0  0  0  0  0  3  0  0  0  0  0  0
  -17.7360  -30.6090   24.1420 C   0  0  0  0  0  3  0  0  0  0  0  0
  -16.6280  -29.8520   23.7210 C   0  0  0  0  0  3  0  0  0  0  0  0
  -16.8270  -28.5990   23.1130 C   0  0  0  0  0  3  0  0  0  0  0  0
  -25.9030  -32.5810   23.9220 C   0  0  0  0  0  3  0  0  0  0  0  0
  -25.5780  -33.9800   24.2290 N   0  0  0  0  0  0  0  0  0  0  0  0
  -25.9110  -35.0240   23.4580 C   0  0  0  0  0  0  0  0  0  0  0  0
  -26.5960  -34.9130   22.4380 O   0  0  0  0  0  0  0  0  0  0  0  0
  -24.9800  -34.1410   25.0260 H   0  0  0  0  0  0  0  0  0  0  0  0
  -24.1660  -36.7870   23.0530 C   0  0  0  0  0  1  0  0  0  0  0  0
  -25.4010  -36.4130   23.8870 C   0  0  0  0  0  3  0  0  0  0  0  0
  -27.5170  -37.3310   24.7250 C   0  0  0  0  0  1  0  0  0  0  0  0
  -26.4210  -37.4780   23.7720 N   0  0  0  0  0  0  0  0  0  0  0  0
  -26.0010  -38.3930   23.9110 H   0  0  0  0  0  0  0  0  0  0  0  0
  -26.4030  -31.8270   25.2150 C   0  0  1  0  0  0  0  0  0  0  0  0
  -25.2930  -31.5870   26.2630 C   0  0  0  0  0  1  0  0  0  0  0  0
  -27.0080  -30.4530   24.8470 C   0  0  0  0  0  1  0  0  0  0  0  0
  -27.5330  -32.6390   25.8930 C   0  0  0  0  0  1  0  0  0  0  0  0
  1  4  1  0
  1  2  1  0
  4  3  1  0
  5 12  1  0
  5  4  1  0
  6  5  1  0
  6  8  1  0
  7  6  1  0
  9 11  1  0
 10 11  1  0
 11  6  1  0
 13 14  1  0
 13 12  1  0
 14 20  1  0
 15 20  1  0
 16 17  1  0
 16 15  1  0
 18 17  1  0
 18 25  1  0
 18 19  1  0
 20 19  1  0
 21 14  2  0
 22 23  2  0
 23 24  1  0
 23 42  1  0
 24 27  1  0
 25 22  1  0
 25 26  1  0
 26 24  2  0
 27 28  1  0
 28 29  2  0
 30 33  1  0
 30 29  1  0
 31 30  2  0
 32 31  1  0
 32 27  2  0
 33 34  1  0
 34 35  1  0
 35 36  2  0
 37 36  1  0
 37 41  1  0
 38 37  2  0
 39 34  2  0
 39 38  1  0
 40 39  1  0
 42 43  1  0
 43 46  1  0
 43 45  1  0
 44 42  2  0
 47 22  1  0
 48 47  1  0
 49 47  1  0
 50  1  1  0
 52 51  1  0
 52 50  1  0
 53 55  1  0
 53 52  1  0
 54 53  1  0
 56 57  1  0
 56 55  1  0
 58 69  2  0
 59 57  1  0
 59 64  1  0
 60 68  1  0
 60 70  1  0
 61 67  1  0
 61 63  1  0
 62 68  1  0
 63 64  2  0
 63 62  1  0
 65 59  2  0
 66 65  1  0
 66 61  2  0
 67 60  1  0
 68 58  1  0
 70 72  2  0
 71 70  1  0
 73 71  1  0
 74 83  2  0
 74 79  1  0
 75 71  1  0
 75 79  1  0
 76 75  1  0
 77 78  1  0
 77 76  1  0
 78 74  1  0
 79 80  2  0
 80 81  1  0
 82 81  2  0
 83 82  1  0
 84 58  1  0
 84 85  1  0
 84 94  1  0
 85 88  1  0
 86 90  1  0
 86 85  1  0
 87 86  2  0
 90 89  1  0
 92 90  1  0
 92 93  1  0
 92 91  1  0
 94 97  1  1
 94 95  1  0
 96 94  1  0
M  ISO  4  13 100  14 100  56 101  57 101
M  END
>  <TORSDO>  (7) 
F 27

>  <SCORE>  (7) 
-10.731

>  <name>  (7) 
6

>  <ligand_id>  (7) 
6

>  <original_smiles>  (7) 
[H]c1c([H])c([H])c2c(c1[H])C([H])([H])C([H])([H])C([H])([H])C2([H])N([H])C(=O)C1([H])N(C(=O)C([H])(N([H])C(=O)C([H])(N([H])C([H])([H])[H])C([H])([H])[H])C(C([H])([H])[H])(C([H])([H])[H])C([H])([H])[H])C([H])([H])c2c([H])c(OC([H])([H])C([H])([H])N([H])C([H])(C([H])([H])[H])C([H])([H])N([H])C([H])(C([H])([H])[H])C([H])(C([H])([H])C([H])([H])C(=O)N3C([H])([H])C([H])([H])C([H])([H])C([H])(n4nc(-c5c([H])c([H])c(Oc6c([H])c([H])c(F)c([H])c6F)c([H])c5[H])c(C(=O)N([H])[H])c4N([H])[H])C3([H])[H])[N+]([H])([H])C([H])(C([H])([H])[H])C([H])([H])[H])c([H])c([H])c2C1([H])[H]

>  <smiles>  (7) 
[H]c1c([H])c([H])c2c(c1[H])C([H])([H])C([H])([H])C([H])([H])C2([H])N([H])C(=O)C1([H])N(C(=O)C([H])(N([H])C(=O)C([H])(N([H])C([H])([H])[H])C([H])([H])[H])C(C([H])([H])[H])(C([H])([H])[H])C([H])([H])[H])C([H])([H])c2c([H])c(OC([H])([H])C([H])([H])N([H])C([H])(C([H])([H])[H])C([H])([H])N([H])C([H])(C([H])([H])[H])C([H])(C([H])([H])C([H])([H])C(=O)N3C([H])([H])C([H])([H])C([H])([H])C([H])(n4nc(-c5c([H])c([H])c(Oc6c([H])c([H])c(F)c([H])c6F)c([H])c5[H])c(C(=O)N([H])[H])c4N([H])[H])C3([H])[H])[N+]([H])([H])C([H])(C([H])([H])[H])C([H])([H])[H])c([H])c([H])c2C1([H])[H]

$$$$
7:0:0
     RDKit          3D

 94 91  0  0  1  0  0  0  0  0999 V2000
  -23.3820  -29.6690   23.8930 C   0  0  0  0  0  1  0  0  0  0  0  0
  -24.4440  -28.0190   24.1410 N   0  0  0  0  0  2  0  0  0  0  0  0
  -24.9530  -28.2170   24.9860 H   0  0  0  0  0  0  0  0  0  0  0  0
  -23.6770  -27.4330   24.4350 H   0  0  0  0  0  0  0  0  0  0  0  0
  -25.4700  -26.5340   23.4540 C   0  0  0  0  0 15  0  0  0  0  0  0
  -25.6940  -24.4390   23.0890 C   0  0  0  0  0 15  0  0  0  0  0  0
  -26.9860  -22.8060   22.5690 C   0  0  0  0  0 15  0  0  0  0  0  0
  -27.2870  -20.7240   22.1460 C   0  0  0  0  0 15  0  0  0  0  0  0
  -28.6160  -19.1260   21.6340 C   0  0  0  0  0 15  0  0  0  0  0  0
  -29.8240  -15.9420   20.8180 C   0  0  0  0  0  0  0  0  0  0  0  0
  -30.3220  -13.3970   19.7350 C   0  0  0  0  0  2  0  0  0  0  0  0
  -29.5610  -12.8240   18.4760 C   0  0  0  0  0  2  0  0  0  0  0  0
  -28.1540  -12.3340   18.8410 C   0  0  0  0  0  2  0  0  0  0  0  0
  -27.5440  -13.3150   19.8570 C   0  0  0  0  0  3  0  0  0  0  0  0
  -28.4450  -13.6440   21.0630 C   0  0  0  0  0  2  0  0  0  0  0  0
  -29.5310  -14.4890   20.5530 N   0  0  0  0  0  0  0  0  0  0  0  0
  -31.0540  -15.9880   20.5250 O   0  0  0  0  0  0  0  0  0  0  0  0
  -28.8690  -17.2420   21.2500 N   0  0  0  0  0  2  0  0  0  0  0  0
  -27.9610  -16.8160   21.3830 H   0  0  0  0  0  0  0  0  0  0  0  0
  -25.1940  -13.8230   20.5700 C   0  0  0  0  0  0  0  0  0  0  0  0
  -24.1420  -13.0360   20.9270 C   0  0  0  0  0  0  0  0  0  0  0  0
  -24.6160  -11.6880   20.8750 C   0  0  0  0  0  0  0  0  0  0  0  0
  -26.2280  -12.9510   20.3070 N   0  0  0  0  0  0  0  0  0  0  0  0
  -25.9060  -11.6600   20.5600 N   0  0  0  0  0  0  0  0  0  0  0  0
  -23.8960  -10.4230   21.0410 C   0  0  0  0  0  0  0  0  0  0  0  0
  -24.3570   -9.4160   21.9180 C   0  0  0  0  0  3  0  0  0  0  0  0
  -23.6270   -8.2180   22.0720 C   0  0  0  0  0  3  0  0  0  0  0  0
  -22.4250   -8.0220   21.3520 C   0  0  0  0  0  0  0  0  0  0  0  0
  -21.9860   -9.0170   20.4620 C   0  0  0  0  0  3  0  0  0  0  0  0
  -22.7150  -10.2060   20.3040 C   0  0  0  0  0  3  0  0  0  0  0  0
  -21.6610   -6.8830   21.4240 O   0  0  0  0  0  0  0  0  0  0  0  0
  -21.6840   -6.0720   22.5290 C   0  0  0  0  0  0  0  0  0  0  0  0
  -21.4010   -6.5640   23.8230 C   0  0  0  0  0  3  0  0  0  0  0  0
  -21.3650   -5.6790   24.9190 C   0  0  0  0  0  3  0  0  0  0  0  0
  -21.6040   -4.3060   24.7240 C   0  0  0  0  0  0  0  0  0  0  0  0
  -21.8820   -3.8140   23.4360 C   0  0  0  0  0  3  0  0  0  0  0  0
  -21.9190   -4.6950   22.3420 C   0  0  0  0  0  0  0  0  0  0  0  0
  -22.1660   -4.2150   21.0990 F   0  0  0  0  0  0  0  0  0  0  0  0
  -21.5620   -3.4540   25.7750 F   0  0  0  0  0  0  0  0  0  0  0  0
  -22.7480  -13.5090   21.2000 C   0  0  0  0  0  0  0  0  0  0  0  0
  -22.0220  -12.8040   22.0600 N   0  0  0  0  0  0  0  0  0  0  0  0
  -22.3160  -14.5400   20.6850 O   0  0  0  0  0  0  0  0  0  0  0  0
  -22.3920  -11.9710   22.4940 H   0  0  0  0  0  0  0  0  0  0  0  0
  -21.0830  -13.0980   22.2880 H   0  0  0  0  0  0  0  0  0  0  0  0
  -25.3620  -15.1990   20.4190 N   0  0  0  0  0  0  0  0  0  0  0  0
  -24.5860  -15.8460   20.4970 H   0  0  0  0  0  0  0  0  0  0  0  0
  -26.1860  -15.6190   20.0090 H   0  0  0  0  0  0  0  0  0  0  0  0
  -22.7300  -30.0940   25.3280 C   0  0  0  0  0  2  0  0  0  0  0  0
  -21.4380  -31.5260   27.0140 C   0  0  0  0  0  1  0  0  0  0  0  0
  -21.4220  -32.3150   24.6170 C   0  0  0  0  0  1  0  0  0  0  0  0
  -22.2240  -31.5400   25.6890 C   0  0  0  0  0  3  0  0  0  0  0  0
  -23.0600  -31.0880   22.0050 C   0  0  0  0  0 15  0  0  0  0  0  0
  -24.4900  -31.1030   20.3060 C   0  0  0  0  0 15  0  0  0  0  0  0
  -25.8140  -30.0200   19.3920 O   0  0  0  0  0  1  0  0  0  0  0  0
  -25.2540  -31.4460   23.2940 C   0  0  0  0  0  0  0  0  0  0  0  0
  -26.9050  -28.9510   19.3270 C   0  0  0  0  0  3  0  0  0  0  0  0
  -23.9470  -29.0110   21.5650 C   0  0  0  0  0  3  0  0  0  0  0  0
  -25.2770  -27.8800   20.6580 C   0  0  1  0  0  0  0  0  0  0  0  0
  -26.4560  -30.0200   21.9010 C   0  0  0  0  0  2  0  0  0  0  0  0
  -26.4030  -28.6910   21.2220 C   0  0  0  0  0  3  0  0  0  0  0  0
  -27.5410  -28.6720   20.5000 C   0  0  0  0  0  2  0  0  0  0  0  0
  -26.4920  -27.6720   18.8080 C   0  0  0  0  0  2  0  0  0  0  0  0
  -25.5280  -27.0610   19.5760 C   0  0  0  0  0  2  0  0  0  0  0  0
  -24.0350  -28.4430   20.2640 C   0  0  0  0  0  2  0  0  0  0  0  0
  -25.2230  -30.1830   22.4140 N   0  0  0  0  0  2  0  0  0  0  0  0
  -24.2830  -32.0080   23.8560 O   0  0  0  0  0  0  0  0  0  0  0  0
  -22.5690  -28.3230   21.9430 C   0  0  0  0  0  0  0  0  0  0  0  0
  -21.3050  -28.8180   22.0430 N   0  0  0  0  0  0  0  0  0  0  0  0
  -22.8250  -27.3230   22.5300 O   0  0  0  0  0  0  0  0  0  0  0  0
  -21.0340  -29.7080   21.6490 H   0  0  0  0  0  0  0  0  0  0  0  0
  -17.8910  -28.1500   22.7460 C   0  0  0  0  0  0  0  0  0  0  0  0
  -20.4090  -28.1410   23.0060 C   0  0  0  0  0  3  0  0  0  0  0  0
  -20.2450  -26.6400   22.6650 C   0  0  0  0  0  2  0  0  0  0  0  0
  -19.3370  -26.4870   21.4820 C   0  0  0  0  0  2  0  0  0  0  0  0
  -17.9480  -26.8290   21.9970 C   0  0  0  0  0  2  0  0  0  0  0  0
  -19.0580  -28.8070   23.1940 C   0  0  0  0  0  0  0  0  0  0  0  0
  -18.9310  -30.0290   23.8810 C   0  0  0  0  0  3  0  0  0  0  0  0
  -17.6710  -30.6170   24.0810 C   0  0  0  0  0  3  0  0  0  0  0  0
  -16.5130  -29.9500   23.6430 C   0  0  0  0  0  3  0  0  0  0  0  0
  -16.6270  -28.7120   22.9900 C   0  0  0  0  0  3  0  0  0  0  0  0
  -26.3910  -32.3450   23.8100 C   0  0  0  0  0  3  0  0  0  0  0  0
  -26.8020  -31.6800   25.1720 C   0  0  1  0  0  0  0  0  0  0  0  0
  -25.7070  -31.5170   26.2470 C   0  0  0  0  0  1  0  0  0  0  0  0
  -27.4010  -30.2780   24.9700 C   0  0  0  0  0  1  0  0  0  0  0  0
  -27.8910  -32.5410   25.8120 C   0  0  0  0  0  1  0  0  0  0  0  0
  -25.9240  -33.7540   24.1570 N   0  0  0  0  0  0  0  0  0  0  0  0
  -26.0180  -34.8790   23.4340 C   0  0  0  0  0  0  0  0  0  0  0  0
  -26.5920  -34.8870   22.3480 O   0  0  0  0  0  0  0  0  0  0  0  0
  -25.4150  -33.8150   25.0240 H   0  0  0  0  0  0  0  0  0  0  0  0
  -24.1700  -36.6230   23.2600 C   0  0  0  0  0  1  0  0  0  0  0  0
  -25.4500  -36.2110   24.0100 C   0  0  0  0  0  3  0  0  0  0  0  0
  -27.5590  -37.1630   24.8520 C   0  0  0  0  0  1  0  0  0  0  0  0
  -26.4190  -37.3320   23.9540 N   0  0  0  0  0  0  0  0  0  0  0  0
  -25.9660  -38.2160   24.1700 H   0  0  0  0  0  0  0  0  0  0  0  0
  1 48  1  0
  2  4  1  0
  2  3  1  0
 10 18  1  0
 11 16  1  0
 12 13  1  0
 12 11  1  0
 14 13  1  0
 14 23  1  0
 14 15  1  0
 16 10  1  0
 16 15  1  0
 17 10  2  0
 18 19  1  0
 20 21  2  0
 21 40  1  0
 22 21  1  0
 22 25  1  0
 23 24  1  0
 23 20  1  0
 24 22  2  0
 25 26  1  0
 26 27  2  0
 28 31  1  0
 28 27  1  0
 29 28  2  0
 30 29  1  0
 30 25  2  0
 31 32  1  0
 32 33  1  0
 33 34  2  0
 35 34  1  0
 35 39  1  0
 36 35  2  0
 37 32  2  0
 37 36  1  0
 38 37  1  0
 40 41  1  0
 41 44  1  0
 41 43  1  0
 42 40  2  0
 45 46  1  0
 45 20  1  0
 47 45  1  0
 48 51  1  0
 50 51  1  0
 51 49  1  0
 55 66  2  0
 56 54  1  0
 56 61  1  0
 57 67  1  0
 58 63  1  6
 58 60  1  0
 58 57  1  0
 59 65  1  0
 60 59  1  0
 61 60  1  0
 62 56  1  0
 62 63  1  0
 64 58  1  0
 64 57  1  0
 65 55  1  0
 67 68  1  0
 67 69  2  0
 70 68  1  0
 71 80  2  0
 71 76  1  0
 72 68  1  0
 72 76  1  0
 73 72  1  0
 74 75  1  0
 74 73  1  0
 75 71  1  0
 76 77  2  0
 77 78  1  0
 79 78  2  0
 80 79  1  0
 81 55  1  0
 81 86  1  0
 81 82  1  0
 82 85  1  1
 82 83  1  0
 84 82  1  0
 86 89  1  0
 87 91  1  0
 87 86  1  0
 88 87  2  0
 91 90  1  0
 93 91  1  0
 93 94  1  0
 93 92  1  0
M  ISO  4  10 100  18 100  53 101  54 101
M  END
>  <TORSDO>  (8) 
F 26

>  <SCORE>  (8) 
20.067

>  <name>  (8) 
7

>  <ligand_id>  (8) 
7

>  <original_smiles>  (8) 
[H]c1c([H])c([H])c2c(c1[H])C([H])([H])C([H])([H])C([H])([H])C2([H])N([H])C(=O)C1([H])N(C(=O)C([H])(N([H])C(=O)C([H])(N([H])C([H])([H])[H])C([H])([H])[H])C(C([H])([H])[H])(C([H])([H])[H])C([H])([H])[H])C([H])([H])c2c([H])c(OC([H])([H])C([H])([H])C([H])(C([H])([H])C([H])(C([H])([H])[H])C([H])([H])[H])[N+]([H])([H])C([H])([H])C([H])([H])C([H])([H])C([H])([H])C([H])([H])N([H])C(=O)N3C([H])([H])C([H])([H])C([H])([H])C([H])(n4nc(-c5c([H])c([H])c(Oc6c([H])c([H])c(F)c([H])c6F)c([H])c5[H])c(C(=O)N([H])[H])c4N([H])[H])C3([H])[H])c([H])c([H])c2C1([H])[H]

>  <smiles>  (8) 
[H]c1c([H])c([H])c2c(c1[H])C([H])([H])C([H])([H])C([H])([H])C2([H])N([H])C(=O)C1([H])N(C(=O)C([H])(N([H])C(=O)C([H])(N([H])C([H])([H])[H])C([H])([H])[H])C(C([H])([H])[H])(C([H])([H])[H])C([H])([H])[H])C([H])([H])c2c([H])c(OC([H])([H])C([H])([H])C([H])(C([H])([H])C([H])(C([H])([H])[H])C([H])([H])[H])[N+]([H])([H])C([H])([H])C([H])([H])C([H])([H])C([H])([H])C([H])([H])N([H])C(=O)N3C([H])([H])C([H])([H])C([H])([H])C([H])(n4nc(-c5c([H])c([H])c(Oc6c([H])c([H])c(F)c([H])c6F)c([H])c5[H])c(C(=O)N([H])[H])c4N([H])[H])C3([H])[H])c([H])c([H])c2C1([H])[H]

$$$$
8:0:0
     RDKit          3D

 89 97  0  0  1  0  0  0  0  0999 V2000
  -30.3830  -22.9380   22.2180 C   0  0  0  0  0  3  0  0  0  0  0  0
  -29.6990  -24.0160   21.6160 C   0  0  0  0  0  3  0  0  0  0  0  0
  -30.2800  -21.6210   21.7190 C   0  0  0  0  0  3  0  0  0  0  0  0
  -28.8080  -22.4450   19.9840 C   0  0  0  0  0  3  0  0  0  0  0  0
  -28.8860  -23.8000   20.4880 C   0  0  0  0  0  0  0  0  0  0  0  0
  -29.5040  -21.3210   20.5750 C   0  0  0  0  0  0  0  0  0  0  0  0
  -29.8280  -19.9210   18.6250 C   0  0  0  0  0  1  0  0  0  0  0  0
  -29.4720  -19.9720   20.0440 N   0  0  0  0  0  0  0  0  0  0  0  0
  -29.8190  -18.7500   20.8670 C   0  0  0  0  0  3  0  0  0  0  0  0
  -29.8590  -17.3120   20.1490 C   0  0  0  0  0  3  0  0  0  0  0  0
  -29.9430  -15.9830   21.0460 C   0  0  0  0  0  2  0  0  0  0  0  0
  -30.6080  -14.6700   20.4440 C   0  0  0  0  0  0  0  0  0  0  0  0
  -30.3650  -12.4320   19.3660 C   0  0  0  0  0  2  0  0  0  0  0  0
  -29.4360  -12.5770   18.1420 C   0  0  0  0  0  2  0  0  0  0  0  0
  -27.9590  -12.4250   18.5590 C   0  0  0  0  0  2  0  0  0  0  0  0
  -27.6020  -13.2860   19.8010 C   0  0  0  0  0  3  0  0  0  0  0  0
  -28.6530  -13.1210   20.9210 C   0  0  0  0  0  2  0  0  0  0  0  0
  -29.9650  -13.4580   20.3550 N   0  0  0  0  0  0  0  0  0  0  0  0
  -31.7480  -14.7870   19.9830 O   0  0  0  0  0  0  0  0  0  0  0  0
  -25.2060  -13.9030   20.4900 C   0  0  0  0  0  0  0  0  0  0  0  0
  -24.1320  -13.1380   20.8570 C   0  0  0  0  0  0  0  0  0  0  0  0
  -24.5870  -11.7850   20.8490 C   0  0  0  0  0  0  0  0  0  0  0  0
  -26.2480  -13.0160   20.2780 N   0  0  0  0  0  0  0  0  0  0  0  0
  -25.8800  -11.7370   20.5520 N   0  0  0  0  0  0  0  0  0  0  0  0
  -23.8510  -10.5280   21.0470 C   0  0  0  0  0  0  0  0  0  0  0  0
  -24.2800   -9.5610   21.9830 C   0  0  0  0  0  3  0  0  0  0  0  0
  -23.5450   -8.3710   22.1720 C   0  0  0  0  0  3  0  0  0  0  0  0
  -22.3670   -8.1400   21.4220 C   0  0  0  0  0  0  0  0  0  0  0  0
  -21.9560   -9.0940   20.4740 C   0  0  0  0  0  3  0  0  0  0  0  0
  -22.6920  -10.2750   20.2860 C   0  0  0  0  0  3  0  0  0  0  0  0
  -21.6050   -7.0010   21.5170 O   0  0  0  0  0  0  0  0  0  0  0  0
  -21.5650   -6.2550   22.6670 C   0  0  0  0  0  0  0  0  0  0  0  0
  -21.1680   -6.8110   23.9020 C   0  0  0  0  0  3  0  0  0  0  0  0
  -21.0740   -5.9930   25.0450 C   0  0  0  0  0  3  0  0  0  0  0  0
  -21.3660   -4.6190   24.9550 C   0  0  0  0  0  0  0  0  0  0  0  0
  -21.7560   -4.0620   23.7250 C   0  0  0  0  0  3  0  0  0  0  0  0
  -21.8510   -4.8770   22.5840 C   0  0  0  0  0  0  0  0  0  0  0  0
  -22.2070   -4.3310   21.3970 F   0  0  0  0  0  0  0  0  0  0  0  0
  -21.2670   -3.8330   26.0510 F   0  0  0  0  0  0  0  0  0  0  0  0
  -22.7360  -13.6280   21.1120 C   0  0  0  0  0  0  0  0  0  0  0  0
  -21.9990  -12.9470   21.9820 N   0  0  0  0  0  0  0  0  0  0  0  0
  -22.3070  -14.6490   20.5740 O   0  0  0  0  0  0  0  0  0  0  0  0
  -22.3600  -12.1230   22.4400 H   0  0  0  0  0  0  0  0  0  0  0  0
  -21.0620  -13.2540   22.1960 H   0  0  0  0  0  0  0  0  0  0  0  0
  -25.3780  -15.2710   20.2990 N   0  0  0  0  0  0  0  0  0  0  0  0
  -24.6160  -15.9340   20.3980 H   0  0  0  0  0  0  0  0  0  0  0  0
  -26.2430  -15.7010   19.9960 H   0  0  0  0  0  0  0  0  0  0  0  0
  -28.0040  -24.9700   19.9140 C   0  0  0  0  0  2  0  0  0  0  0  0
  -28.2650  -26.4060   20.2420 O   0  0  0  0  0  0  0  0  0  0  0  0
  -24.5920  -31.8830   23.2290 C   0  0  0  0  0  0  0  0  0  0  0  0
  -27.1740  -27.3020   20.1580 C   0  0  0  0  0  0  0  0  0  0  0  0
  -23.3790  -30.4900   21.5930 C   0  0  0  0  0  3  0  0  0  0  0  0
  -24.8210  -28.9460   20.1560 C   0  0  0  0  0  0  0  0  0  0  0  0
  -25.9220  -30.7950   21.4080 C   0  0  0  0  0  2  0  0  0  0  0  0
  -25.9950  -29.4170   20.7570 C   0  0  0  0  0  0  0  0  0  0  0  0
  -27.1730  -28.6050   20.7550 C   0  0  0  0  0  3  0  0  0  0  0  0
  -25.9810  -26.9090   19.5060 C   0  0  0  0  0  3  0  0  0  0  0  0
  -24.8180  -27.6970   19.5210 C   0  0  0  0  0  3  0  0  0  0  0  0
  -23.5880  -29.8230   20.2090 C   0  0  0  0  0  2  0  0  0  0  0  0
  -24.6500  -31.0730   22.1320 N   0  0  0  0  0  0  0  0  0  0  0  0
  -23.5100  -32.1630   23.7670 O   0  0  0  0  0  0  0  0  0  0  0  0
  -22.7170  -29.4710   22.5530 C   0  0  0  0  0  0  0  0  0  0  0  0
  -21.3900  -29.2940   22.4290 N   0  0  0  0  0  0  0  0  0  0  0  0
  -23.3970  -28.8470   23.3720 O   0  0  0  0  0  0  0  0  0  0  0  0
  -20.9000  -29.8520   21.7440 H   0  0  0  0  0  0  0  0  0  0  0  0
  -18.0150  -28.0900   22.9280 C   0  0  0  0  0  0  0  0  0  0  0  0
  -20.5720  -28.3580   23.2030 C   0  0  0  0  0  3  0  0  0  0  0  0
  -20.6810  -26.9240   22.6360 C   0  0  0  0  0  2  0  0  0  0  0  0
  -19.5820  -26.5920   21.6220 C   0  0  0  0  0  2  0  0  0  0  0  0
  -18.1980  -26.7370   22.2610 C   0  0  0  0  0  2  0  0  0  0  0  0
  -19.1310  -28.8590   23.3560 C   0  0  0  0  0  0  0  0  0  0  0  0
  -18.9070  -30.1250   23.9400 C   0  0  0  0  0  3  0  0  0  0  0  0
  -17.6010  -30.6230   24.1010 C   0  0  0  0  0  3  0  0  0  0  0  0
  -16.5000  -29.8520   23.6890 C   0  0  0  0  0  3  0  0  0  0  0  0
  -16.7070  -28.5880   23.1080 C   0  0  0  0  0  3  0  0  0  0  0  0
  -25.8790  -32.5130   23.8450 C   0  0  0  0  0  3  0  0  0  0  0  0
  -25.5710  -33.9100   24.1840 N   0  0  0  0  0  0  0  0  0  0  0  0
  -25.8910  -34.9660   23.4250 C   0  0  0  0  0  0  0  0  0  0  0  0
  -26.5480  -34.8680   22.3840 O   0  0  0  0  0  0  0  0  0  0  0  0
  -24.9860  -34.0600   24.9930 H   0  0  0  0  0  0  0  0  0  0  0  0
  -24.1550  -36.7570   23.1010 C   0  0  0  0  0  1  0  0  0  0  0  0
  -25.4080  -36.3520   23.8920 C   0  0  0  0  0  3  0  0  0  0  0  0
  -27.5530  -37.2400   24.6920 C   0  0  0  0  0  1  0  0  0  0  0  0
  -26.4370  -37.4080   23.7670 N   0  0  0  0  0  0  0  0  0  0  0  0
  -26.0300  -38.3260   23.9220 H   0  0  0  0  0  0  0  0  0  0  0  0
  -26.4010  -31.7360   25.1150 C   0  0  1  0  0  0  0  0  0  0  0  0
  -25.3140  -31.4970   26.1890 C   0  0  0  0  0  1  0  0  0  0  0  0
  -26.9820  -30.3580   24.7200 C   0  0  0  0  0  1  0  0  0  0  0  0
  -27.5560  -32.5260   25.7730 C   0  0  0  0  0  1  0  0  0  0  0  0
  2  1  2  0
  3  1  1  0
  4  5  2  0
  4  6  1  0
  5  2  1  0
  6  3  2  0
  7  8  1  0
  8  6  1  0
  8  9  1  0
 10  9  2  0
 10 11  1  0
 12 11  1  0
 13 18  1  0
 14 15  1  0
 14 13  1  0
 16 15  1  0
 16 23  1  0
 16 17  1  0
 18 12  1  0
 18 17  1  0
 19 12  2  0
 20 21  2  0
 21 40  1  0
 22 21  1  0
 22 25  1  0
 23 20  1  0
 23 24  1  0
 24 22  2  0
 25 26  1  0
 26 27  2  0
 28 31  1  0
 28 27  1  0
 29 28  2  0
 30 29  1  0
 30 25  2  0
 31 32  1  0
 32 33  1  0
 33 34  2  0
 35 34  1  0
 35 39  1  0
 36 35  2  0
 37 32  2  0
 37 36  1  0
 38 37  1  0
 40 41  1  0
 41 44  1  0
 41 43  1  0
 42 40  2  0
 45 46  1  0
 45 20  1  0
 47 45  1  0
 48 49  1  0
 48  5  1  0
 50 61  2  0
 51 49  1  0
 51 56  1  0
 52 60  1  0
 52 62  1  0
 53 59  1  0
 53 55  1  0
 54 60  1  0
 55 54  1  0
 56 55  2  0
 57 58  1  0
 57 51  2  0
 58 53  2  0
 59 52  1  0
 60 50  1  0
 62 64  2  0
 63 62  1  0
 65 63  1  0
 66 75  2  0
 66 71  1  0
 67 63  1  0
 67 71  1  0
 68 67  1  0
 69 70  1  0
 69 68  1  0
 70 66  1  0
 71 72  2  0
 72 73  1  0
 74 73  2  0
 75 74  1  0
 76 50  1  0
 76 77  1  0
 76 86  1  0
 77 80  1  0
 78 82  1  0
 78 77  1  0
 79 78  2  0
 82 81  1  0
 84 82  1  0
 84 85  1  0
 84 83  1  0
 86 89  1  1
 86 87  1  0
 88 86  1  0
M  ISO  4  11 100  12 100  48 101  49 101
M  END
>  <TORSDO>  (9) 
F 21

>  <SCORE>  (9) 
-13.539

>  <name>  (9) 
8

>  <ligand_id>  (9) 
8

>  <original_smiles>  (9) 
[H]c1c([H])c(N(C([H])([H])[H])C([H])([H])C([H])([H])C([H])([H])C(=O)N2C([H])([H])C([H])([H])C([H])([H])C([H])(n3nc(-c4c([H])c([H])c(Oc5c([H])c([H])c(F)c([H])c5F)c([H])c4[H])c(C(=O)N([H])[H])c3N([H])[H])C2([H])[H])c([H])c(C([H])([H])Oc2c([H])c([H])c3c(c2[H])C([H])([H])N(C(=O)C([H])(N([H])C(=O)C([H])(N([H])C([H])([H])[H])C([H])([H])[H])C(C([H])([H])[H])(C([H])([H])[H])C([H])([H])[H])C([H])(C(=O)N([H])C2([H])c4c([H])c([H])c([H])c([H])c4C([H])([H])C([H])([H])C2([H])[H])C3([H])[H])c1[H]

>  <smiles>  (9) 
[H]c1c([H])c(N(C([H])([H])[H])C([H])([H])C([H])([H])C([H])([H])C(=O)N2C([H])([H])C([H])([H])C([H])([H])C([H])(n3nc(-c4c([H])c([H])c(Oc5c([H])c([H])c(F)c([H])c5F)c([H])c4[H])c(C(=O)N([H])[H])c3N([H])[H])C2([H])[H])c([H])c(C([H])([H])Oc2c([H])c([H])c3c(c2[H])C([H])([H])N(C(=O)C([H])(N([H])C(=O)C([H])(N([H])C([H])([H])[H])C([H])([H])[H])C(C([H])([H])[H])(C([H])([H])[H])C([H])([H])[H])C([H])(C(=O)N([H])C2([H])c4c([H])c([H])c([H])c([H])c4C([H])([H])C([H])([H])C2([H])[H])C3([H])[H])c1[H]

$$$$
9:0:0
     RDKit          3D

 95104  0  0  1  0  0  0  0  0999 V2000
  -27.3410  -21.9770   21.3740 C   0  0  0  0  0  2  0  0  0  0  0  0
  -32.0940  -17.7660   21.1870 C   0  0  0  0  0  3  0  0  0  0  0  0
  -31.6540  -18.8550   21.9580 C   0  0  0  0  0  3  0  0  0  0  0  0
  -30.0870  -17.9350   19.8330 C   0  0  0  0  0  3  0  0  0  0  0  0
  -28.4100  -19.8320   20.4460 C   0  0  0  0  0  3  0  0  0  0  0  0
  -29.6100  -19.0360   20.5840 C   0  0  0  0  0  0  0  0  0  0  0  0
  -31.3390  -17.3130   20.0780 C   0  0  0  0  0  0  0  0  0  0  0  0
  -30.4420  -19.4930   21.6500 C   0  0  0  0  0  0  0  0  0  0  0  0
  -28.3800  -20.8880   21.3260 C   0  0  0  0  0  0  0  0  0  0  0  0
  -29.7320  -20.9020   22.4280 S   0  0  0  0  0  0  0  0  0  0  0  0
  -32.5450  -15.2200   19.6130 C   0  0  0  0  0  0  0  0  0  0  0  0
  -32.0390  -12.9830   18.7880 C   0  0  0  0  0  2  0  0  0  0  0  0
  -31.0720  -13.1770   17.5960 C   0  0  0  0  0  2  0  0  0  0  0  0
  -29.6060  -13.2820   18.0590 C   0  0  0  0  0  2  0  0  0  0  0  0
  -29.3990  -14.2020   19.2970 C   0  0  0  0  0  3  0  0  0  0  0  0
  -30.4880  -13.9680   20.3680 C   0  0  0  0  0  2  0  0  0  0  0  0
  -31.8000  -14.0900   19.7150 N   0  0  0  0  0  0  0  0  0  0  0  0
  -33.7640  -15.2110   19.3960 O   0  0  0  0  0  0  0  0  0  0  0  0
  -32.0600  -16.6600   17.7680 C   0  0  0  0  0  1  0  0  0  0  0  0
  -31.8320  -16.2940   19.1870 N   0  0  0  0  0  0  0  0  0  0  0  0
  -27.1330  -15.0510   20.1610 C   0  0  0  0  0  0  0  0  0  0  0  0
  -25.9990  -14.3870   20.5520 C   0  0  0  0  0  0  0  0  0  0  0  0
  -26.3010  -12.9970   20.4540 C   0  0  0  0  0  0  0  0  0  0  0  0
  -28.0550  -14.0650   19.8470 N   0  0  0  0  0  0  0  0  0  0  0  0
  -27.5630  -12.8240   20.0820 N   0  0  0  0  0  0  0  0  0  0  0  0
  -25.4460  -11.8170   20.6290 C   0  0  0  0  0  0  0  0  0  0  0  0
  -25.7510  -10.8180   21.5790 C   0  0  0  0  0  3  0  0  0  0  0  0
  -24.9000   -9.7060   21.7470 C   0  0  0  0  0  3  0  0  0  0  0  0
  -23.7280   -9.5870   20.9670 C   0  0  0  0  0  0  0  0  0  0  0  0
  -23.4420  -10.5680   20.0020 C   0  0  0  0  0  3  0  0  0  0  0  0
  -24.2930  -11.6710   19.8300 C   0  0  0  0  0  3  0  0  0  0  0  0
  -22.8560   -8.5280   21.0480 O   0  0  0  0  0  0  0  0  0  0  0  0
  -22.5380   -7.9440   22.2460 C   0  0  0  0  0  0  0  0  0  0  0  0
  -22.0430   -8.6950   23.3330 C   0  0  0  0  0  3  0  0  0  0  0  0
  -21.6600   -8.0450   24.5240 C   0  0  0  0  0  3  0  0  0  0  0  0
  -21.7640   -6.6450   24.6280 C   0  0  0  0  0  0  0  0  0  0  0  0
  -22.2490   -5.8940   23.5440 C   0  0  0  0  0  3  0  0  0  0  0  0
  -22.6310   -6.5410   22.3550 C   0  0  0  0  0  0  0  0  0  0  0  0
  -23.0810   -5.8100   21.3070 F   0  0  0  0  0  0  0  0  0  0  0  0
  -21.3890   -6.0210   25.7670 F   0  0  0  0  0  0  0  0  0  0  0  0
  -24.6790  -15.0090   20.9030 C   0  0  0  0  0  0  0  0  0  0  0  0
  -23.9530  -14.4110   21.8440 N   0  0  0  0  0  0  0  0  0  0  0  0
  -24.3060  -16.0580   20.3810 O   0  0  0  0  0  0  0  0  0  0  0  0
  -24.2710  -13.5680   22.2980 H   0  0  0  0  0  0  0  0  0  0  0  0
  -23.0660  -14.8050   22.1110 H   0  0  0  0  0  0  0  0  0  0  0  0
  -27.4410  -16.4000   20.0250 N   0  0  0  0  0  0  0  0  0  0  0  0
  -26.7600  -17.1340   20.1980 H   0  0  0  0  0  0  0  0  0  0  0  0
  -28.3420  -16.7560   19.7360 H   0  0  0  0  0  0  0  0  0  0  0  0
  -27.9340  -23.3250   21.4730 N   0  0  0  0  0  4  0  0  0  0  0  0
  -28.4410  -23.3400   22.3400 H   0  0  0  0  0  0  0  0  0  0  0  0
  -27.1950  -24.0030   21.5570 H   0  0  0  0  0  0  0  0  0  0  0  0
  -28.8760  -23.7220   20.3960 C   0  0  0  0  0  2  0  0  0  0  0  0
  -28.3350  -24.8220   19.4540 C   0  0  0  0  0  2  0  0  0  0  0  0
  -28.3980  -26.2410   20.0530 C   0  0  0  0  0  2  0  0  0  0  0  0
  -28.1400  -27.2440   19.0640 O   0  0  0  0  0  0  0  0  0  0  0  0
  -24.6180  -31.7310   23.2970 C   0  0  0  0  0  0  0  0  0  0  0  0
  -26.9820  -27.9440   19.2870 C   0  0  0  0  0  0  0  0  0  0  0  0
  -23.2670  -30.5890   21.5670 C   0  0  0  0  0  3  0  0  0  0  0  0
  -24.5880  -29.3390   19.7760 C   0  0  0  0  0  0  0  0  0  0  0  0
  -25.7510  -31.0460   21.1900 C   0  0  0  0  0  2  0  0  0  0  0  0
  -25.7860  -29.7970   20.3340 C   0  0  0  0  0  0  0  0  0  0  0  0
  -26.9910  -29.1000   20.0950 C   0  0  0  0  0  3  0  0  0  0  0  0
  -25.7730  -27.4980   18.7210 C   0  0  0  0  0  3  0  0  0  0  0  0
  -24.5710  -28.1870   18.9670 C   0  0  0  0  0  3  0  0  0  0  0  0
  -23.3460  -30.1460   20.0790 C   0  0  0  0  0  2  0  0  0  0  0  0
  -24.5690  -31.1290   22.0770 N   0  0  0  0  0  0  0  0  0  0  0  0
  -23.5970  -31.8810   23.9800 O   0  0  0  0  0  0  0  0  0  0  0  0
  -22.7240  -29.4100   22.4050 C   0  0  0  0  0  0  0  0  0  0  0  0
  -21.4140  -29.1450   22.2910 N   0  0  0  0  0  0  0  0  0  0  0  0
  -23.4790  -28.7350   23.1120 O   0  0  0  0  0  0  0  0  0  0  0  0
  -20.8630  -29.7480   21.6980 H   0  0  0  0  0  0  0  0  0  0  0  0
  -18.1880  -27.5420   22.5670 C   0  0  0  0  0  0  0  0  0  0  0  0
  -20.6890  -28.0610   22.9520 C   0  0  0  0  0  3  0  0  0  0  0  0
  -20.9690  -26.7040   22.2700 C   0  0  0  0  0  2  0  0  0  0  0  0
  -19.9430  -26.3430   21.1930 C   0  0  0  0  0  2  0  0  0  0  0  0
  -18.5320  -26.2810   21.7920 C   0  0  0  0  0  2  0  0  0  0  0  0
  -19.1990  -28.3840   23.0980 C   0  0  0  0  0  0  0  0  0  0  0  0
  -18.8220  -29.5620   23.7800 C   0  0  0  0  0  3  0  0  0  0  0  0
  -17.4640  -29.8980   23.9360 C   0  0  0  0  0  3  0  0  0  0  0  0
  -16.4650  -29.0530   23.4230 C   0  0  0  0  0  3  0  0  0  0  0  0
  -16.8290  -27.8760   22.7440 C   0  0  0  0  0  3  0  0  0  0  0  0
  -25.9550  -32.2820   23.8830 C   0  0  0  0  0  3  0  0  0  0  0  0
  -25.7150  -33.6660   24.3130 N   0  0  0  0  0  0  0  0  0  0  0  0
  -26.0720  -34.7510   23.6140 C   0  0  0  0  0  0  0  0  0  0  0  0
  -26.7120  -34.6880   22.5620 O   0  0  0  0  0  0  0  0  0  0  0  0
  -25.1630  -33.7900   25.1490 H   0  0  0  0  0  0  0  0  0  0  0  0
  -24.4130  -36.6300   23.4180 C   0  0  0  0  0  1  0  0  0  0  0  0
  -25.6500  -36.1210   24.1750 C   0  0  0  0  0  3  0  0  0  0  0  0
  -27.8340  -36.8620   25.0180 C   0  0  0  0  0  1  0  0  0  0  0  0
  -26.7230  -37.1390   24.1120 N   0  0  0  0  0  0  0  0  0  0  0  0
  -26.3560  -38.0610   24.3360 H   0  0  0  0  0  0  0  0  0  0  0  0
  -26.5160  -31.4130   25.0730 C   0  0  1  0  0  0  0  0  0  0  0  0
  -25.4820  -31.1410   26.1870 C   0  0  0  0  0  1  0  0  0  0  0  0
  -27.0150  -30.0430   24.5500 C   0  0  0  0  0  1  0  0  0  0  0  0
  -27.7300  -32.1240   25.7150 C   0  0  0  0  0  1  0  0  0  0  0  0
  1 49  1  0
  2  3  1  0
  4  7  1  0
  4  6  2  0
  5  6  1  0
  5  9  2  0
  6  8  1  0
  7  2  2  0
  8  3  2  0
  8 10  1  0
  9  1  1  0
  9 10  1  0
 11 17  1  0
 12 17  1  0
 13 14  1  0
 13 12  1  0
 15 14  1  0
 15 24  1  0
 15 16  1  0
 17 16  1  0
 18 11  2  0
 19 20  1  0
 20 11  1  0
 20  7  1  0
 21 22  2  0
 22 41  1  0
 23 22  1  0
 23 26  1  0
 24 25  1  0
 24 21  1  0
 25 23  2  0
 26 27  1  0
 27 28  2  0
 29 32  1  0
 29 28  1  0
 30 29  2  0
 31 30  1  0
 31 26  2  0
 32 33  1  0
 33 38  2  0
 33 34  1  0
 34 35  2  0
 35 36  1  0
 36 40  1  0
 37 36  2  0
 38 37  1  0
 39 38  1  0
 41 42  1  0
 42 45  1  0
 42 44  1  0
 43 41  2  0
 46 21  1  0
 46 47  1  0
 48 46  1  0
 49 51  1  0
 49 50  1  0
 52 49  1  0
 53 54  1  0
 53 52  1  0
 55 57  1  0
 55 54  1  0
 56 67  2  0
 57 62  1  0
 58 66  1  0
 58 68  1  0
 59 65  1  0
 59 61  1  0
 60 66  1  0
 61 60  1  0
 62 61  2  0
 63 64  1  0
 63 57  2  0
 64 59  2  0
 65 58  1  0
 66 56  1  0
 68 70  2  0
 69 68  1  0
 71 69  1  0
 72 81  2  0
 72 77  1  0
 73 69  1  0
 73 77  1  0
 74 73  1  0
 75 76  1  0
 75 74  1  0
 76 72  1  0
 77 78  2  0
 78 79  1  0
 80 79  2  0
 81 80  1  0
 82 56  1  0
 82 83  1  0
 82 92  1  0
 83 86  1  0
 84 88  1  0
 84 83  1  0
 85 84  2  0
 88 87  1  0
 90 88  1  0
 90 91  1  0
 90 89  1  0
 92 95  1  1
 92 93  1  0
 94 92  1  0
M  ISO  4  11 100  20 100  54 101  55 101
M  END
>  <TORSDO>  (10) 
F 21

>  <SCORE>  (10) 
-8.896

>  <name>  (10) 
9

>  <ligand_id>  (10) 
9

>  <original_smiles>  (10) 
[H]c1c([H])c([H])c2c(c1[H])C([H])([H])C([H])([H])C([H])([H])C2([H])N([H])C(=O)C1([H])N(C(=O)C([H])(N([H])C(=O)C([H])(N([H])C([H])([H])[H])C([H])([H])[H])C(C([H])([H])[H])(C([H])([H])[H])C([H])([H])[H])C([H])([H])c2c([H])c(OC([H])([H])C([H])([H])C([H])([H])[N+]([H])([H])C([H])([H])c3sc4c([H])c([H])c(N(C(=O)N5C([H])([H])C([H])([H])C([H])([H])C([H])(n6nc(-c7c([H])c([H])c(Oc8c([H])c([H])c(F)c([H])c8F)c([H])c7[H])c(C(=O)N([H])[H])c6N([H])[H])C5([H])[H])C([H])([H])[H])c([H])c4c3[H])c([H])c([H])c2C1([H])[H]

>  <smiles>  (10) 
[H]c1c([H])c([H])c2c(c1[H])C([H])([H])C([H])([H])C([H])([H])C2([H])N([H])C(=O)C1([H])N(C(=O)C([H])(N([H])C(=O)C([H])(N([H])C([H])([H])[H])C([H])([H])[H])C(C([H])([H])[H])(C([H])([H])[H])C([H])([H])[H])C([H])([H])c2c([H])c(OC([H])([H])C([H])([H])C([H])([H])[N+]([H])([H])C([H])([H])c3sc4c([H])c([H])c(N(C(=O)N5C([H])([H])C([H])([H])C([H])([H])C([H])(n6nc(-c7c([H])c([H])c(Oc8c([H])c([H])c(F)c([H])c8F)c([H])c7[H])c(C(=O)N([H])[H])c6N([H])[H])C5([H])[H])C([H])([H])[H])c([H])c4c3[H])c([H])c([H])c2C1([H])[H]

$$$$
10:0:0
     RDKit          3D

 99107  0  0  1  0  0  0  0  0999 V2000
  -29.7460  -20.2280   20.6270 N   0  0  0  0  0  4  0  0  0  0  0  0
  -28.7810  -19.9780   20.7490 H   0  0  0  0  0  0  0  0  0  0  0  0
  -30.1260  -20.3610   21.5490 H   0  0  0  0  0  0  0  0  0  0  0  0
  -29.8010  -21.6010   19.9510 C   0  0  0  0  0  2  0  0  0  0  0  0
  -26.6860  -23.5890   21.3370 C   0  0  0  0  0  3  0  0  0  0  0  0
  -26.9820  -24.9190   20.9830 C   0  0  0  0  0  3  0  0  0  0  0  0
  -29.0290  -24.1450   19.9560 C   0  0  0  0  0  3  0  0  0  0  0  0
  -27.5310  -22.5130   20.9880 C   0  0  0  0  0  0  0  0  0  0  0  0
  -28.7740  -22.7620   20.3330 C   0  0  0  0  0  0  0  0  0  0  0  0
  -28.1320  -25.2490   20.2320 C   0  0  0  0  0  0  0  0  0  0  0  0
  -27.0110  -21.1200   21.3150 C   0  0  0  0  0  1  0  0  0  0  0  0
  -28.3390  -26.5980   19.8170 O   0  0  0  0  0  0  0  0  0  0  0  0
  -24.6850  -31.8050   23.2700 C   0  0  0  0  0  0  0  0  0  0  0  0
  -27.2680  -27.5130   19.8230 C   0  0  0  0  0  0  0  0  0  0  0  0
  -23.4790  -30.5850   21.4930 C   0  0  0  0  0  3  0  0  0  0  0  0
  -24.9280  -29.1590   19.9340 C   0  0  0  0  0  0  0  0  0  0  0  0
  -26.0250  -30.8820   21.3630 C   0  0  0  0  0  2  0  0  0  0  0  0
  -26.0960  -29.5680   20.5940 C   0  0  0  0  0  0  0  0  0  0  0  0
  -27.2660  -28.7480   20.5410 C   0  0  0  0  0  3  0  0  0  0  0  0
  -26.0930  -27.1780   19.1160 C   0  0  0  0  0  3  0  0  0  0  0  0
  -24.9270  -27.9680   19.1880 C   0  0  0  0  0  3  0  0  0  0  0  0
  -23.7000  -30.0410   20.0580 C   0  0  0  0  0  2  0  0  0  0  0  0
  -24.7500  -31.1030   22.1010 N   0  0  0  0  0  0  0  0  0  0  0  0
  -23.6030  -32.0440   23.8220 O   0  0  0  0  0  0  0  0  0  0  0  0
  -22.7930  -29.4910   22.3460 C   0  0  0  0  0  0  0  0  0  0  0  0
  -21.4620  -29.3640   22.2090 N   0  0  0  0  0  0  0  0  0  0  0  0
  -23.4570  -28.7610   23.0870 O   0  0  0  0  0  0  0  0  0  0  0  0
  -20.9900  -30.0090   21.5900 H   0  0  0  0  0  0  0  0  0  0  0  0
  -18.0400  -28.2890   22.6940 C   0  0  0  0  0  0  0  0  0  0  0  0
  -20.6180  -28.3730   22.8800 C   0  0  0  0  0  3  0  0  0  0  0  0
  -20.6110  -27.0310   22.1120 C   0  0  0  0  0  2  0  0  0  0  0  0
  -19.4550  -26.9120   21.1140 C   0  0  0  0  0  2  0  0  0  0  0  0
  -18.1110  -27.0400   21.8340 C   0  0  0  0  0  2  0  0  0  0  0  0
  -19.2180  -28.9230   23.1730 C   0  0  0  0  0  0  0  0  0  0  0  0
  -19.0940  -30.1010   23.9430 C   0  0  0  0  0  3  0  0  0  0  0  0
  -17.8280  -30.6440   24.2330 C   0  0  0  0  0  3  0  0  0  0  0  0
  -16.6670  -30.0020   23.7700 C   0  0  0  0  0  3  0  0  0  0  0  0
  -16.7740  -28.8240   23.0080 C   0  0  0  0  0  3  0  0  0  0  0  0
  -25.9690  -32.3530   23.9640 C   0  0  0  0  0  3  0  0  0  0  0  0
  -25.7010  -33.7400   24.3620 N   0  0  0  0  0  0  0  0  0  0  0  0
  -26.0790  -34.8180   23.6640 C   0  0  0  0  0  0  0  0  0  0  0  0
  -26.7620  -34.7470   22.6380 O   0  0  0  0  0  0  0  0  0  0  0  0
  -25.0900  -33.8710   25.1540 H   0  0  0  0  0  0  0  0  0  0  0  0
  -24.4160  -36.6890   23.3890 C   0  0  0  0  0  1  0  0  0  0  0  0
  -25.6320  -36.1970   24.1890 C   0  0  0  0  0  3  0  0  0  0  0  0
  -27.7830  -36.9790   25.0860 C   0  0  0  0  0  1  0  0  0  0  0  0
  -26.7010  -37.2190   24.1350 N   0  0  0  0  0  0  0  0  0  0  0  0
  -26.3260  -38.1470   24.3190 H   0  0  0  0  0  0  0  0  0  0  0  0
  -26.4220  -31.4910   25.2090 C   0  0  1  0  0  0  0  0  0  0  0  0
  -25.2910  -31.2370   26.2330 C   0  0  0  0  0  1  0  0  0  0  0  0
  -26.9640  -30.1160   24.7520 C   0  0  0  0  0  1  0  0  0  0  0  0
  -27.5810  -32.2050   25.9420 C   0  0  0  0  0  1  0  0  0  0  0  0
  -30.4770  -19.0320   20.0090 C   0  0  0  0  0  3  0  0  0  0  0  0
  -29.9620  -18.6060   18.6130 C   0  0  0  0  0  0  0  0  0  0  0  0
  -28.6780  -18.7700   18.2970 N   0  0  0  0  0  0  0  0  0  0  0  0
  -30.7380  -18.1380   17.7800 O   0  0  0  0  0  0  0  0  0  0  0  0
  -27.9840  -19.1090   18.9420 H   0  0  0  0  0  0  0  0  0  0  0  0
  -28.3730  -18.4880   17.3750 H   0  0  0  0  0  0  0  0  0  0  0  0
  -30.7060  -17.7540   20.9890 C   0  0  0  0  0  3  0  0  0  0  0  0
  -32.0840  -17.6880   21.4800 N   0  0  0  0  0  0  0  0  0  0  0  0
  -32.1180  -17.2000   22.3720 H   0  0  0  0  0  0  0  0  0  0  0  0
  -32.4590  -18.6100   21.6860 H   0  0  0  0  0  0  0  0  0  0  0  0
  -30.0950  -16.2690   20.7430 C   0  0  0  0  0  2  0  0  0  0  0  0
  -30.8010  -14.9950   20.0680 C   0  0  0  0  0  0  0  0  0  0  0  0
  -30.4930  -12.7320   19.0180 C   0  0  0  0  0  2  0  0  0  0  0  0
  -29.5300  -12.8040   17.8070 C   0  0  0  0  0  2  0  0  0  0  0  0
  -28.0470  -13.0350   18.1900 C   0  0  0  0  0  2  0  0  0  0  0  0
  -27.8220  -13.0130   19.7050 C   0  0  0  0  0  3  0  0  0  0  0  0
  -28.8680  -13.5440   20.6810 C   0  0  0  0  0  2  0  0  0  0  0  0
  -30.1400  -13.7960   19.9910 N   0  0  0  0  0  0  0  0  0  0  0  0
  -31.9120  -15.1060   19.5440 O   0  0  0  0  0  0  0  0  0  0  0  0
  -25.4670  -14.0050   20.4320 C   0  0  0  0  0  0  0  0  0  0  0  0
  -24.3650  -13.2900   20.8460 C   0  0  0  0  0  0  0  0  0  0  0  0
  -24.7450  -11.9200   20.7770 C   0  0  0  0  0  0  0  0  0  0  0  0
  -26.4420  -13.0400   20.1680 N   0  0  0  0  0  0  0  0  0  0  0  0
  -25.9870  -11.8030   20.4070 N   0  0  0  0  0  0  0  0  0  0  0  0
  -24.0240  -10.6710   20.9750 C   0  0  0  0  0  0  0  0  0  0  0  0
  -24.4870   -9.7010   21.8900 C   0  0  0  0  0  3  0  0  0  0  0  0
  -23.7790   -8.4960   22.0590 C   0  0  0  0  0  3  0  0  0  0  0  0
  -22.6020   -8.2620   21.3130 C   0  0  0  0  0  0  0  0  0  0  0  0
  -22.1730   -9.2180   20.3750 C   0  0  0  0  0  3  0  0  0  0  0  0
  -22.8810  -10.4160   20.2000 C   0  0  0  0  0  3  0  0  0  0  0  0
  -21.8560   -7.1140   21.4010 O   0  0  0  0  0  0  0  0  0  0  0  0
  -21.7810   -6.4010   22.5670 C   0  0  0  0  0  0  0  0  0  0  0  0
  -21.2790   -6.9660   23.7590 C   0  0  0  0  0  3  0  0  0  0  0  0
  -21.1580   -6.1730   24.9170 C   0  0  0  0  0  3  0  0  0  0  0  0
  -21.5250   -4.8140   24.8820 C   0  0  0  0  0  0  0  0  0  0  0  0
  -22.0220   -4.2490   23.6940 C   0  0  0  0  0  3  0  0  0  0  0  0
  -22.1470   -5.0400   22.5380 C   0  0  0  0  0  0  0  0  0  0  0  0
  -22.6070   -4.4890   21.3900 F   0  0  0  0  0  0  0  0  0  0  0  0
  -21.3970   -4.0450   25.9880 F   0  0  0  0  0  0  0  0  0  0  0  0
  -23.0010  -13.8060   21.2080 C   0  0  0  0  0  0  0  0  0  0  0  0
  -22.3080  -13.0960   22.0920 N   0  0  0  0  0  0  0  0  0  0  0  0
  -22.5540  -14.8480   20.7330 O   0  0  0  0  0  0  0  0  0  0  0  0
  -22.6790  -12.2440   22.4810 H   0  0  0  0  0  0  0  0  0  0  0  0
  -21.3940  -13.4080   22.3880 H   0  0  0  0  0  0  0  0  0  0  0  0
  -25.7110  -15.3650   20.2570 N   0  0  0  0  0  0  0  0  0  0  0  0
  -24.9910  -16.0740   20.3310 H   0  0  0  0  0  0  0  0  0  0  0  0
  -26.5570  -15.6990   19.8120 H   0  0  0  0  0  0  0  0  0  0  0  0
  1  2  1  0
  1  3  1  0
  4  9  1  0
  4  1  1  0
  6  5  2  0
  7 10  2  0
  7  9  1  0
  8 11  1  0
  8  5  1  0
  9  8  2  0
 10  6  1  0
 12 14  1  0
 12 10  1  0
 13 24  2  0
 14 19  1  0
 15 23  1  0
 15 25  1  0
 16 22  1  0
 16 18  1  0
 17 23  1  0
 18 17  1  0
 19 18  2  0
 20 21  1  0
 20 14  2  0
 21 16  2  0
 22 15  1  0
 23 13  1  0
 25 27  2  0
 26 25  1  0
 28 26  1  0
 29 38  2  0
 29 34  1  0
 30 26  1  0
 30 34  1  0
 31 30  1  0
 32 33  1  0
 32 31  1  0
 33 29  1  0
 34 35  2  0
 35 36  1  0
 37 36  2  0
 38 37  1  0
 39 13  1  0
 39 40  1  0
 39 49  1  0
 40 43  1  0
 41 45  1  0
 41 40  1  0
 42 41  2  0
 45 44  1  0
 47 45  1  0
 47 48  1  0
 47 46  1  0
 49 52  1  1
 49 50  1  0
 51 49  1  0
 53 54  1  0
 53  1  1  0
 53 59  1  0
 55 54  1  0
 55 57  1  0
 56 54  2  0
 58 55  1  0
 59 63  1  0
 59 60  1  0
 60 62  1  0
 60 61  1  0
 64 63  1  0
 65 70  1  0
 66 67  1  0
 66 65  1  0
 68 67  1  0
 68 75  1  0
 68 69  1  0
 70 64  1  0
 70 69  1  0
 71 64  2  0
 72 73  2  0
 73 92  1  0
 74 73  1  0
 74 77  1  0
 75 76  1  0
 75 72  1  0
 76 74  2  0
 77 78  1  0
 78 79  2  0
 80 83  1  0
 80 79  1  0
 81 80  2  0
 82 81  1  0
 82 77  2  0
 83 84  1  0
 84 85  1  0
 85 86  2  0
 87 86  1  0
 87 91  1  0
 88 87  2  0
 89 84  2  0
 89 88  1  0
 90 89  1  0
 92 93  1  0
 93 96  1  0
 93 95  1  0
 94 92  2  0
 97 98  1  0
 97 72  1  0
 99 97  1  0
M  ISO  4  10 101  12 101  63 100  64 100
M  END
>  <TORSDO>  (11) 
F 23

>  <SCORE>  (11) 
-11.179

>  <name>  (11) 
10

>  <ligand_id>  (11) 
10

>  <original_smiles>  (11) 
[H]c1c([H])c([H])c2c(c1[H])C([H])([H])C([H])([H])C([H])([H])C2([H])N([H])C(=O)C1([H])N(C(=O)C([H])(N([H])C(=O)C([H])(N([H])C([H])([H])[H])C([H])([H])[H])C(C([H])([H])[H])(C([H])([H])[H])C([H])([H])[H])C([H])([H])c2c([H])c(Oc3c([H])c([H])c(C([H])([H])[H])c(C([H])([H])[N+]([H])([H])C([H])(C(=O)N([H])[H])C([H])(N([H])[H])C([H])([H])C(=O)N4C([H])([H])C([H])([H])C([H])([H])C([H])(n5nc(-c6c([H])c([H])c(Oc7c([H])c([H])c(F)c([H])c7F)c([H])c6[H])c(C(=O)N([H])[H])c5N([H])[H])C4([H])[H])c3[H])c([H])c([H])c2C1([H])[H]

>  <smiles>  (11) 
[H]c1c([H])c([H])c2c(c1[H])C([H])([H])C([H])([H])C([H])([H])C2([H])N([H])C(=O)C1([H])N(C(=O)C([H])(N([H])C(=O)C([H])(N([H])C([H])([H])[H])C([H])([H])[H])C(C([H])([H])[H])(C([H])([H])[H])C([H])([H])[H])C([H])([H])c2c([H])c(Oc3c([H])c([H])c(C([H])([H])[H])c(C([H])([H])[N+]([H])([H])C([H])(C(=O)N([H])[H])C([H])(N([H])[H])C([H])([H])C(=O)N4C([H])([H])C([H])([H])C([H])([H])C([H])(n5nc(-c6c([H])c([H])c(Oc7c([H])c([H])c(F)c([H])c7F)c([H])c6[H])c(C(=O)N([H])[H])c5N([H])[H])C4([H])[H])c3[H])c([H])c([H])c2C1([H])[H]

$$$$
11:0:0
     RDKit          3D

 95102  0  0  1  0  0  0  0  0999 V2000
  -28.2730  -20.5820   21.6860 C   0  0  0  0  0  1  0  0  0  0  0  0
  -29.1970  -20.7160   20.4540 C   0  0  0  0  0  3  0  0  0  0  0  0
  -29.2470  -19.4390   19.6680 N   0  0  0  0  0  4  0  0  0  0  0  0
  -29.4420  -19.6680   18.7060 H   0  0  0  0  0  0  0  0  0  0  0  0
  -28.3200  -19.0470   19.6900 H   0  0  0  0  0  0  0  0  0  0  0  0
  -30.2240  -18.3780   20.0900 C   0  0  0  0  0  3  0  0  0  0  0  0
  -32.8080  -18.0280   20.2520 C   0  0  0  0  0  1  0  0  0  0  0  0
  -31.7670  -18.5930   18.0100 C   0  0  0  0  0  1  0  0  0  0  0  0
  -31.6430  -18.7350   19.5370 C   0  0  0  0  0  3  0  0  0  0  0  0
  -29.6760  -16.9530   19.6870 C   0  0  0  0  0  2  0  0  0  0  0  0
  -30.7470  -14.7080   19.8600 C   0  0  0  0  0  0  0  0  0  0  0  0
  -30.4790  -12.4660   18.8350 C   0  0  0  0  0  2  0  0  0  0  0  0
  -29.4580  -12.5040   17.6760 C   0  0  0  0  0  2  0  0  0  0  0  0
  -28.0180  -12.3340   18.2000 C   0  0  0  0  0  2  0  0  0  0  0  0
  -27.7070  -13.2640   19.4010 C   0  0  0  0  0  3  0  0  0  0  0  0
  -28.8230  -13.1520   20.4600 C   0  0  0  0  0  2  0  0  0  0  0  0
  -30.1050  -13.4990   19.8220 N   0  0  0  0  0  0  0  0  0  0  0  0
  -31.7590  -14.9180   19.1830 O   0  0  0  0  0  0  0  0  0  0  0  0
  -29.8900  -15.8230   21.9160 C   0  0  0  0  0  1  0  0  0  0  0  0
  -30.0920  -15.7470   20.4590 N   0  0  0  0  0  0  0  0  0  0  0  0
  -25.3740  -13.8640   20.3160 C   0  0  0  0  0  0  0  0  0  0  0  0
  -24.3420  -13.0890   20.7700 C   0  0  0  0  0  0  0  0  0  0  0  0
  -24.7960  -11.7370   20.6860 C   0  0  0  0  0  0  0  0  0  0  0  0
  -26.3940  -12.9840   19.9830 N   0  0  0  0  0  0  0  0  0  0  0  0
  -26.0530  -11.6990   20.2620 N   0  0  0  0  0  0  0  0  0  0  0  0
  -24.0870  -10.4740   20.9270 C   0  0  0  0  0  0  0  0  0  0  0  0
  -24.5180   -9.5610   21.9130 C   0  0  0  0  0  3  0  0  0  0  0  0
  -23.8100   -8.3610   22.1360 C   0  0  0  0  0  3  0  0  0  0  0  0
  -22.6570   -8.0640   21.3720 C   0  0  0  0  0  0  0  0  0  0  0  0
  -22.2450   -8.9660   20.3750 C   0  0  0  0  0  3  0  0  0  0  0  0
  -22.9530  -10.1580   20.1520 C   0  0  0  0  0  3  0  0  0  0  0  0
  -21.9200   -6.9130   21.5040 O   0  0  0  0  0  0  0  0  0  0  0  0
  -21.7760   -6.2830   22.7140 C   0  0  0  0  0  0  0  0  0  0  0  0
  -21.2040   -6.9320   23.8300 C   0  0  0  0  0  3  0  0  0  0  0  0
  -21.0150   -6.2270   25.0350 C   0  0  0  0  0  3  0  0  0  0  0  0
  -21.3860   -4.8720   25.1240 C   0  0  0  0  0  0  0  0  0  0  0  0
  -21.9490   -4.2210   24.0130 C   0  0  0  0  0  3  0  0  0  0  0  0
  -22.1420   -4.9240   22.8100 C   0  0  0  0  0  0  0  0  0  0  0  0
  -22.6660   -4.2860   21.7360 F   0  0  0  0  0  0  0  0  0  0  0  0
  -21.1950   -4.1910   26.2790 F   0  0  0  0  0  0  0  0  0  0  0  0
  -22.9740  -13.5630   21.1700 C   0  0  0  0  0  0  0  0  0  0  0  0
  -22.3330  -12.8750   22.1070 N   0  0  0  0  0  0  0  0  0  0  0  0
  -22.4820  -14.5810   20.6820 O   0  0  0  0  0  0  0  0  0  0  0  0
  -22.7390  -12.0540   22.5300 H   0  0  0  0  0  0  0  0  0  0  0  0
  -21.4160  -13.1740   22.4100 H   0  0  0  0  0  0  0  0  0  0  0  0
  -25.5270  -15.2360   20.1350 N   0  0  0  0  0  0  0  0  0  0  0  0
  -24.7820  -15.9000   20.3230 H   0  0  0  0  0  0  0  0  0  0  0  0
  -26.3440  -15.6660   19.7210 H   0  0  0  0  0  0  0  0  0  0  0  0
  -27.3920  -21.8880   18.9860 C   0  0  0  0  0  1  0  0  0  0  0  0
  -28.8170  -21.9680   19.5730 C   0  0  0  0  0  3  0  0  0  0  0  0
  -28.9720  -23.1940   20.3760 N   0  0  0  0  0  0  0  0  0  0  0  0
  -28.2250  -23.2750   21.0600 H   0  0  0  0  0  0  0  0  0  0  0  0
  -29.1760  -24.4890   19.6970 C   0  0  0  0  0  2  0  0  0  0  0  0
  -27.8670  -25.3170   19.5980 C   0  0  0  0  0  2  0  0  0  0  0  0
  -28.0490  -26.7410   19.4070 O   0  0  0  0  0  0  0  0  0  0  0  0
  -24.4910  -31.7260   23.0950 C   0  0  0  0  0  0  0  0  0  0  0  0
  -26.8970  -27.5080   19.5140 C   0  0  0  0  0  0  0  0  0  0  0  0
  -23.1720  -30.4520   21.4380 C   0  0  0  0  0  3  0  0  0  0  0  0
  -24.5190  -29.0320   19.8040 C   0  0  0  0  0  0  0  0  0  0  0  0
  -25.6840  -30.8210   21.1000 C   0  0  0  0  0  2  0  0  0  0  0  0
  -25.7210  -29.5030   20.3490 C   0  0  0  0  0  0  0  0  0  0  0  0
  -26.9140  -28.7520   20.1960 C   0  0  0  0  0  3  0  0  0  0  0  0
  -25.6730  -27.0700   18.9580 C   0  0  0  0  0  3  0  0  0  0  0  0
  -24.4930  -27.8170   19.1050 C   0  0  0  0  0  3  0  0  0  0  0  0
  -23.2850  -29.8800   20.0010 C   0  0  0  0  0  2  0  0  0  0  0  0
  -24.4710  -31.0120   21.9350 N   0  0  0  0  0  0  0  0  0  0  0  0
  -23.4500  -31.9540   23.7270 O   0  0  0  0  0  0  0  0  0  0  0  0
  -22.5820  -29.3610   22.3600 C   0  0  0  0  0  0  0  0  0  0  0  0
  -21.2670  -29.1160   22.2370 N   0  0  0  0  0  0  0  0  0  0  0  0
  -23.3050  -28.7370   23.1420 O   0  0  0  0  0  0  0  0  0  0  0  0
  -20.7410  -29.6740   21.5800 H   0  0  0  0  0  0  0  0  0  0  0  0
  -17.9840  -27.6640   22.6500 C   0  0  0  0  0  0  0  0  0  0  0  0
  -20.5090  -28.1070   22.9770 C   0  0  0  0  0  3  0  0  0  0  0  0
  -20.7290  -26.6980   22.3780 C   0  0  0  0  0  2  0  0  0  0  0  0
  -19.6730  -26.3130   21.3380 C   0  0  0  0  0  2  0  0  0  0  0  0
  -18.2730  -26.3430   21.9560 C   0  0  0  0  0  2  0  0  0  0  0  0
  -19.0330  -28.4990   23.1150 C   0  0  0  0  0  0  0  0  0  0  0  0
  -18.7110  -29.7320   23.7220 C   0  0  0  0  0  3  0  0  0  0  0  0
  -17.3690  -30.1330   23.8700 C   0  0  0  0  0  3  0  0  0  0  0  0
  -16.3340  -29.2950   23.4200 C   0  0  0  0  0  3  0  0  0  0  0  0
  -16.6410  -28.0630   22.8170 C   0  0  0  0  0  3  0  0  0  0  0  0
  -25.8180  -32.3120   23.6710 C   0  0  0  0  0  3  0  0  0  0  0  0
  -25.5530  -33.7010   24.0680 N   0  0  0  0  0  0  0  0  0  0  0  0
  -25.8650  -34.7760   23.3330 C   0  0  0  0  0  0  0  0  0  0  0  0
  -26.4790  -34.7010   22.2650 O   0  0  0  0  0  0  0  0  0  0  0  0
  -25.0080  -33.8350   24.9070 H   0  0  0  0  0  0  0  0  0  0  0  0
  -24.1550  -36.6110   23.1310 C   0  0  0  0  0  1  0  0  0  0  0  0
  -25.4250  -36.1530   23.8660 C   0  0  0  0  0  3  0  0  0  0  0  0
  -27.6100  -36.9760   24.6300 C   0  0  0  0  0  1  0  0  0  0  0  0
  -26.4700  -37.1930   23.7430 N   0  0  0  0  0  0  0  0  0  0  0  0
  -26.0880  -38.1130   23.9380 H   0  0  0  0  0  0  0  0  0  0  0  0
  -26.3870  -31.4840   24.8890 C   0  0  1  0  0  0  0  0  0  0  0  0
  -25.3380  -31.1950   25.9860 C   0  0  0  0  0  1  0  0  0  0  0  0
  -26.9580  -30.1280   24.4110 C   0  0  0  0  0  1  0  0  0  0  0  0
  -27.5610  -32.2520   25.5420 C   0  0  0  0  0  1  0  0  0  0  0  0
  2  1  1  0
  3  5  1  0
  3  6  1  0
  3  2  1  0
  4  3  1  0
  6 10  1  0
  8  9  1  0
  9  6  1  0
  9  7  1  0
 10 20  1  0
 11 20  1  0
 12 17  1  0
 13 14  1  0
 13 12  1  0
 15 14  1  0
 15 24  1  0
 15 16  1  0
 17 11  1  0
 17 16  1  0
 18 11  2  0
 20 19  1  0
 21 22  2  0
 22 41  1  0
 23 22  1  0
 23 26  1  0
 24 25  1  0
 24 21  1  0
 25 23  2  0
 26 27  1  0
 27 28  2  0
 29 32  1  0
 29 28  1  0
 30 29  2  0
 31 30  1  0
 31 26  2  0
 32 33  1  0
 33 38  2  0
 33 34  1  0
 34 35  2  0
 35 36  1  0
 36 40  1  0
 37 36  2  0
 38 37  1  0
 39 38  1  0
 41 42  1  0
 42 45  1  0
 42 44  1  0
 43 41  2  0
 46 21  1  0
 46 47  1  0
 48 46  1  0
 50 49  1  0
 50 51  1  0
 50  2  1  0
 51 52  1  0
 53 51  1  0
 54 53  1  0
 55 57  1  0
 55 54  1  0
 56 67  2  0
 57 62  1  0
 58 66  1  0
 58 68  1  0
 59 65  1  0
 59 61  1  0
 60 66  1  0
 61 60  1  0
 62 61  2  0
 63 64  1  0
 63 57  2  0
 64 59  2  0
 65 58  1  0
 66 56  1  0
 68 70  2  0
 69 68  1  0
 71 69  1  0
 72 81  2  0
 72 77  1  0
 73 69  1  0
 73 77  1  0
 74 73  1  0
 75 76  1  0
 75 74  1  0
 76 72  1  0
 77 78  2  0
 78 79  1  0
 80 79  2  0
 81 80  1  0
 82 56  1  0
 82 83  1  0
 82 92  1  0
 83 86  1  0
 84 88  1  0
 84 83  1  0
 85 84  2  0
 88 87  1  0
 90 88  1  0
 90 91  1  0
 90 89  1  0
 92 95  1  1
 92 93  1  0
 94 92  1  0
M  ISO  4  11 100  20 100  54 101  55 101
M  END
>  <TORSDO>  (12) 
F 24

>  <SCORE>  (12) 
-10.808

>  <name>  (12) 
11

>  <ligand_id>  (12) 
11

>  <original_smiles>  (12) 
[H]c1c([H])c([H])c2c(c1[H])C([H])([H])C([H])([H])C([H])([H])C2([H])N([H])C(=O)C1([H])N(C(=O)C([H])(N([H])C(=O)C([H])(N([H])C([H])([H])[H])C([H])([H])[H])C(C([H])([H])[H])(C([H])([H])[H])C([H])([H])[H])C([H])([H])c2c([H])c(OC([H])([H])C([H])([H])N([H])C([H])(C([H])([H])[H])C([H])(C([H])([H])[H])[N+]([H])([H])C([H])(C([H])([H])N(C(=O)N3C([H])([H])C([H])([H])C([H])([H])C([H])(n4nc(-c5c([H])c([H])c(Oc6c([H])c([H])c(F)c([H])c6F)c([H])c5[H])c(C(=O)N([H])[H])c4N([H])[H])C3([H])[H])C([H])([H])[H])C([H])(C([H])([H])[H])C([H])([H])[H])c([H])c([H])c2C1([H])[H]

>  <smiles>  (12) 
[H]c1c([H])c([H])c2c(c1[H])C([H])([H])C([H])([H])C([H])([H])C2([H])N([H])C(=O)C1([H])N(C(=O)C([H])(N([H])C(=O)C([H])(N([H])C([H])([H])[H])C([H])([H])[H])C(C([H])([H])[H])(C([H])([H])[H])C([H])([H])[H])C([H])([H])c2c([H])c(OC([H])([H])C([H])([H])N([H])C([H])(C([H])([H])[H])C([H])(C([H])([H])[H])[N+]([H])([H])C([H])(C([H])([H])N(C(=O)N3C([H])([H])C([H])([H])C([H])([H])C([H])(n4nc(-c5c([H])c([H])c(Oc6c([H])c([H])c(F)c([H])c6F)c([H])c5[H])c(C(=O)N([H])[H])c4N([H])[H])C3([H])[H])C([H])([H])[H])C([H])(C([H])([H])[H])C([H])([H])[H])c([H])c([H])c2C1([H])[H]

$$$$
12:0:0
     RDKit          3D

 89 96  0  0  1  0  0  0  0  0999 V2000
  -30.2760  -23.1220   21.2680 C   0  0  0  0  0  1  0  0  0  0  0  0
  -29.2270  -22.6730   20.3190 N   0  0  1  0  0  4  0  0  0  0  0  0
  -29.6830  -22.5750   19.4190 H   0  0  0  0  0  0  0  0  0  0  0  0
  -28.7440  -21.2480   20.6420 C   0  0  0  0  0  2  0  0  0  0  0  0
  -29.6910  -20.0210   20.2790 C   0  0  0  0  0  0  0  0  0  0  0  0
  -29.4810  -18.7370   20.7550 N   0  0  0  0  0  0  0  0  0  0  0  0
  -30.6350  -20.2380   19.5140 O   0  0  0  0  0  0  0  0  0  0  0  0
  -28.7040  -18.6190   21.3990 H   0  0  0  0  0  0  0  0  0  0  0  0
  -30.3130  -17.4870   20.4790 C   0  0  0  0  0  3  0  0  0  0  0  0
  -29.6720  -16.0300   20.7060 C   0  0  0  0  0  3  0  0  0  0  0  0
  -30.5320  -14.7090   20.4430 C   0  0  0  0  0  0  0  0  0  0  0  0
  -30.3540  -12.4570   19.3870 C   0  0  0  0  0  2  0  0  0  0  0  0
  -29.4300  -12.5890   18.1530 C   0  0  0  0  0  2  0  0  0  0  0  0
  -27.9440  -12.4410   18.5430 C   0  0  0  0  0  2  0  0  0  0  0  0
  -27.5690  -13.2820   19.7950 C   0  0  0  0  0  3  0  0  0  0  0  0
  -28.6130  -13.1400   20.9210 C   0  0  0  0  0  2  0  0  0  0  0  0
  -29.9300  -13.4760   20.3700 N   0  0  0  0  0  0  0  0  0  0  0  0
  -31.7200  -14.8270   20.1240 O   0  0  0  0  0  0  0  0  0  0  0  0
  -25.1640  -13.8840   20.4720 C   0  0  0  0  0  0  0  0  0  0  0  0
  -24.0940  -13.1140   20.8350 C   0  0  0  0  0  0  0  0  0  0  0  0
  -24.5580  -11.7640   20.8240 C   0  0  0  0  0  0  0  0  0  0  0  0
  -26.2140  -13.0020   20.2640 N   0  0  0  0  0  0  0  0  0  0  0  0
  -25.8540  -11.7230   20.5360 N   0  0  0  0  0  0  0  0  0  0  0  0
  -23.8250  -10.5050   21.0120 C   0  0  0  0  0  0  0  0  0  0  0  0
  -24.2510   -9.5480   21.9580 C   0  0  0  0  0  3  0  0  0  0  0  0
  -23.5270   -8.3470   22.1420 C   0  0  0  0  0  3  0  0  0  0  0  0
  -22.3610   -8.1040   21.3760 C   0  0  0  0  0  0  0  0  0  0  0  0
  -21.9520   -9.0520   20.4190 C   0  0  0  0  0  3  0  0  0  0  0  0
  -22.6770  -10.2420   20.2370 C   0  0  0  0  0  3  0  0  0  0  0  0
  -21.6110   -6.9560   21.4660 O   0  0  0  0  0  0  0  0  0  0  0  0
  -21.5620   -6.2140   22.6200 C   0  0  0  0  0  0  0  0  0  0  0  0
  -21.1430   -6.7710   23.8480 C   0  0  0  0  0  3  0  0  0  0  0  0
  -21.0400   -5.9550   24.9910 C   0  0  0  0  0  3  0  0  0  0  0  0
  -21.3440   -4.5840   24.9070 C   0  0  0  0  0  0  0  0  0  0  0  0
  -21.7550   -4.0240   23.6860 C   0  0  0  0  0  3  0  0  0  0  0  0
  -21.8600   -4.8380   22.5430 C   0  0  0  0  0  0  0  0  0  0  0  0
  -22.2330   -4.2900   21.3600 F   0  0  0  0  0  0  0  0  0  0  0  0
  -21.2400   -3.7980   26.0020 F   0  0  0  0  0  0  0  0  0  0  0  0
  -22.6900  -13.5970   21.0750 C   0  0  0  0  0  0  0  0  0  0  0  0
  -21.9430  -12.9130   21.9350 N   0  0  0  0  0  0  0  0  0  0  0  0
  -22.2630  -14.6150   20.5360 O   0  0  0  0  0  0  0  0  0  0  0  0
  -22.2990  -12.0940   22.4060 H   0  0  0  0  0  0  0  0  0  0  0  0
  -20.9970  -13.2190   22.1290 H   0  0  0  0  0  0  0  0  0  0  0  0
  -25.3210  -15.2510   20.2790 N   0  0  0  0  0  0  0  0  0  0  0  0
  -24.5410  -15.8920   20.3730 H   0  0  0  0  0  0  0  0  0  0  0  0
  -26.1600  -15.7030   19.9420 H   0  0  0  0  0  0  0  0  0  0  0  0
  -28.1370  -23.7480   20.1770 C   0  0  0  0  0  2  0  0  0  0  0  0
  -28.5050  -25.1900   19.5450 C   0  0  0  0  0  2  0  0  0  0  0  0
  -28.3460  -26.4920   20.2480 O   0  0  0  0  0  0  0  0  0  0  0  0
  -24.6060  -31.8910   23.2400 C   0  0  0  0  0  0  0  0  0  0  0  0
  -27.2060  -27.3140   20.1660 C   0  0  0  0  0  0  0  0  0  0  0  0
  -23.3960  -30.4890   21.6060 C   0  0  0  0  0  3  0  0  0  0  0  0
  -24.8360  -28.9320   20.1720 C   0  0  0  0  0  0  0  0  0  0  0  0
  -25.9360  -30.7990   21.4130 C   0  0  0  0  0  2  0  0  0  0  0  0
  -26.0070  -29.4230   20.7630 C   0  0  0  0  0  0  0  0  0  0  0  0
  -27.1870  -28.6210   20.7520 C   0  0  0  0  0  3  0  0  0  0  0  0
  -26.0090  -26.8770   19.5570 C   0  0  0  0  0  3  0  0  0  0  0  0
  -24.8410  -27.6680   19.5610 C   0  0  0  0  0  3  0  0  0  0  0  0
  -23.6050  -29.8100   20.2240 C   0  0  0  0  0  2  0  0  0  0  0  0
  -24.6640  -31.0830   22.1410 N   0  0  0  0  0  0  0  0  0  0  0  0
  -23.5230  -32.1700   23.7770 O   0  0  0  0  0  0  0  0  0  0  0  0
  -22.7360  -29.4750   22.5720 C   0  0  0  0  0  0  0  0  0  0  0  0
  -21.4100  -29.2960   22.4510 N   0  0  0  0  0  0  0  0  0  0  0  0
  -23.4190  -28.8510   23.3870 O   0  0  0  0  0  0  0  0  0  0  0  0
  -20.9190  -29.8560   21.7680 H   0  0  0  0  0  0  0  0  0  0  0  0
  -18.0360  -28.0910   22.9610 C   0  0  0  0  0  0  0  0  0  0  0  0
  -20.5960  -28.3600   23.2270 C   0  0  0  0  0  3  0  0  0  0  0  0
  -20.6990  -26.9250   22.6580 C   0  0  0  0  0  2  0  0  0  0  0  0
  -19.5970  -26.5950   21.6450 C   0  0  0  0  0  2  0  0  0  0  0  0
  -18.2160  -26.7390   22.2890 C   0  0  0  0  0  2  0  0  0  0  0  0
  -19.1550  -28.8560   23.3870 C   0  0  0  0  0  0  0  0  0  0  0  0
  -18.9310  -30.1210   23.9760 C   0  0  0  0  0  3  0  0  0  0  0  0
  -17.6250  -30.6200   24.1390 C   0  0  0  0  0  3  0  0  0  0  0  0
  -16.5230  -29.8500   23.7310 C   0  0  0  0  0  3  0  0  0  0  0  0
  -16.7290  -28.5880   23.1500 C   0  0  0  0  0  3  0  0  0  0  0  0
  -25.8900  -32.5260   23.8590 C   0  0  0  0  0  3  0  0  0  0  0  0
  -25.5810  -33.9250   24.1900 N   0  0  0  0  0  0  0  0  0  0  0  0
  -25.9100  -34.9790   23.4310 C   0  0  0  0  0  0  0  0  0  0  0  0
  -26.5730  -34.8730   22.3940 O   0  0  0  0  0  0  0  0  0  0  0  0
  -24.9960  -34.0810   24.9950 H   0  0  0  0  0  0  0  0  0  0  0  0
  -24.1780  -36.7710   23.0890 C   0  0  0  0  0  1  0  0  0  0  0  0
  -25.4260  -36.3680   23.8910 C   0  0  0  0  0  3  0  0  0  0  0  0
  -27.5700  -37.2490   24.7060 C   0  0  0  0  0  1  0  0  0  0  0  0
  -26.4580  -37.4210   23.7700 N   0  0  0  0  0  0  0  0  0  0  0  0
  -26.0570  -38.3420   23.9210 H   0  0  0  0  0  0  0  0  0  0  0  0
  -26.4110  -31.7600   25.1340 C   0  0  1  0  0  0  0  0  0  0  0  0
  -25.3240  -31.5270   26.2100 C   0  0  0  0  0  1  0  0  0  0  0  0
  -26.9900  -30.3810   24.7460 C   0  0  0  0  0  1  0  0  0  0  0  0
  -27.5670  -32.5550   25.7880 C   0  0  0  0  0  1  0  0  0  0  0  0
  2  4  1  0
  2  1  1  0
  2  3  1  6
  5  4  1  0
  5  6  1  0
  6  8  1  0
  7  5  2  0
  9 10  2  0
  9  6  1  0
 11 10  1  0
 12 17  1  0
 13 14  1  0
 13 12  1  0
 15 14  1  0
 15 22  1  0
 15 16  1  0
 17 11  1  0
 17 16  1  0
 18 11  2  0
 19 20  2  0
 20 39  1  0
 21 20  1  0
 21 24  1  0
 22 19  1  0
 22 23  1  0
 23 21  2  0
 24 25  1  0
 25 26  2  0
 27 30  1  0
 27 26  1  0
 28 27  2  0
 29 28  1  0
 29 24  2  0
 30 31  1  0
 31 32  1  0
 32 33  2  0
 34 33  1  0
 34 38  1  0
 35 34  2  0
 36 31  2  0
 36 35  1  0
 37 36  1  0
 39 40  1  0
 40 43  1  0
 40 42  1  0
 41 39  2  0
 44 45  1  0
 44 19  1  0
 46 44  1  0
 47  2  1  0
 48 47  1  0
 48 49  1  0
 50 61  2  0
 51 49  1  0
 51 56  1  0
 52 60  1  0
 52 62  1  0
 53 59  1  0
 53 55  1  0
 54 60  1  0
 55 54  1  0
 56 55  2  0
 57 58  1  0
 57 51  2  0
 58 53  2  0
 59 52  1  0
 60 50  1  0
 62 64  2  0
 63 62  1  0
 65 63  1  0
 66 75  2  0
 66 71  1  0
 67 63  1  0
 67 71  1  0
 68 67  1  0
 69 70  1  0
 69 68  1  0
 70 66  1  0
 71 72  2  0
 72 73  1  0
 74 73  2  0
 75 74  1  0
 76 50  1  0
 76 77  1  0
 76 86  1  0
 77 80  1  0
 78 82  1  0
 78 77  1  0
 79 78  2  0
 82 81  1  0
 84 82  1  0
 84 85  1  0
 84 83  1  0
 86 89  1  1
 86 87  1  0
 88 86  1  0
M  ISO  4  10 100  11 100  48 101  49 101
M  END
>  <TORSDO>  (13) 
F 22

>  <SCORE>  (13) 
-13.101

>  <name>  (13) 
12

>  <ligand_id>  (13) 
12

>  <original_smiles>  (13) 
[H]c1c([H])c([H])c2c(c1[H])C([H])([H])C([H])([H])C([H])([H])C2([H])N([H])C(=O)C1([H])N(C(=O)C([H])(N([H])C(=O)C([H])(N([H])C([H])([H])[H])C([H])([H])[H])C(C([H])([H])[H])(C([H])([H])[H])C([H])([H])[H])C([H])([H])c2c([H])c(OC([H])([H])C([H])([H])[N+]([H])(C([H])([H])[H])C([H])([H])C(=O)N([H])C([H])([H])C([H])([H])C(=O)N3C([H])([H])C([H])([H])C([H])([H])C([H])(n4nc(-c5c([H])c([H])c(Oc6c([H])c([H])c(F)c([H])c6F)c([H])c5[H])c(C(=O)N([H])[H])c4N([H])[H])C3([H])[H])c([H])c([H])c2C1([H])[H]

>  <smiles>  (13) 
[H]c1c([H])c([H])c2c(c1[H])C([H])([H])C([H])([H])C([H])([H])C2([H])N([H])C(=O)C1([H])N(C(=O)C([H])(N([H])C(=O)C([H])(N([H])C([H])([H])[H])C([H])([H])[H])C(C([H])([H])[H])(C([H])([H])[H])C([H])([H])[H])C([H])([H])c2c([H])c(OC([H])([H])C([H])([H])[N+]([H])(C([H])([H])[H])C([H])([H])C(=O)N([H])C([H])([H])C([H])([H])C(=O)N3C([H])([H])C([H])([H])C([H])([H])C([H])(n4nc(-c5c([H])c([H])c(Oc6c([H])c([H])c(F)c([H])c6F)c([H])c5[H])c(C(=O)N([H])[H])c4N([H])[H])C3([H])[H])c([H])c([H])c2C1([H])[H]

$$$$
13:0:0
     RDKit          3D

 94102  0  0  1  0  0  0  0  0999 V2000
  -26.4750  -22.3160   20.1900 C   0  0  0  0  0  1  0  0  0  0  0  0
  -27.5330  -22.5020   21.3090 C   0  0  0  0  0  3  0  0  0  0  0  0
  -28.3920  -23.7120   21.1440 N   0  0  0  0  0  4  0  0  0  0  0  0
  -28.7170  -23.9840   22.0600 H   0  0  0  0  0  0  0  0  0  0  0  0
  -29.2120  -23.4810   20.6070 H   0  0  0  0  0  0  0  0  0  0  0  0
  -27.7520  -24.8880   20.4940 C   0  0  0  0  0  2  0  0  0  0  0  0
  -28.5920  -26.1780   20.5980 C   0  0  0  0  0  2  0  0  0  0  0  0
  -28.2840  -27.0940   19.5440 O   0  0  0  0  0  0  0  0  0  0  0  0
  -24.5450  -31.9700   23.1290 C   0  0  0  0  0  0  0  0  0  0  0  0
  -27.1060  -27.7810   19.6840 C   0  0  0  0  0  0  0  0  0  0  0  0
  -23.2820  -30.6510   21.4560 C   0  0  0  0  0  3  0  0  0  0  0  0
  -24.6920  -29.2220   19.8820 C   0  0  0  0  0  0  0  0  0  0  0  0
  -25.7880  -31.0660   21.1710 C   0  0  0  0  0  2  0  0  0  0  0  0
  -25.8630  -29.7340   20.4570 C   0  0  0  0  0  0  0  0  0  0  0  0
  -27.0740  -29.0160   20.3620 C   0  0  0  0  0  3  0  0  0  0  0  0
  -25.9260  -27.2820   19.0950 C   0  0  0  0  0  3  0  0  0  0  0  0
  -24.7150  -27.9920   19.2030 C   0  0  0  0  0  3  0  0  0  0  0  0
  -23.4390  -30.0550   20.0290 C   0  0  0  0  0  2  0  0  0  0  0  0
  -24.5590  -31.2400   21.9770 N   0  0  0  0  0  0  0  0  0  0  0  0
  -23.4870  -32.1930   23.7310 O   0  0  0  0  0  0  0  0  0  0  0  0
  -22.6890  -29.5650   22.3800 C   0  0  0  0  0  0  0  0  0  0  0  0
  -21.3660  -29.3540   22.2800 N   0  0  0  0  0  0  0  0  0  0  0  0
  -23.4130  -28.9160   23.1390 O   0  0  0  0  0  0  0  0  0  0  0  0
  -20.8440  -29.9330   21.6390 H   0  0  0  0  0  0  0  0  0  0  0  0
  -18.0430  -28.0250   22.7740 C   0  0  0  0  0  0  0  0  0  0  0  0
  -20.5950  -28.3570   23.0200 C   0  0  0  0  0  3  0  0  0  0  0  0
  -20.7390  -26.9560   22.3790 C   0  0  0  0  0  2  0  0  0  0  0  0
  -19.6290  -26.6370   21.3720 C   0  0  0  0  0  2  0  0  0  0  0  0
  -18.2540  -26.7100   22.0410 C   0  0  0  0  0  2  0  0  0  0  0  0
  -19.1430  -28.8060   23.2190 C   0  0  0  0  0  0  0  0  0  0  0  0
  -18.8930  -30.0370   23.8620 C   0  0  0  0  0  3  0  0  0  0  0  0
  -17.5750  -30.4880   24.0670 C   0  0  0  0  0  3  0  0  0  0  0  0
  -16.4910  -29.7020   23.6380 C   0  0  0  0  0  3  0  0  0  0  0  0
  -16.7250  -28.4730   22.9980 C   0  0  0  0  0  3  0  0  0  0  0  0
  -25.8540  -32.5770   23.7270 C   0  0  0  0  0  3  0  0  0  0  0  0
  -25.5560  -33.9570   24.1290 N   0  0  0  0  0  0  0  0  0  0  0  0
  -25.8900  -35.0430   23.4170 C   0  0  0  0  0  0  0  0  0  0  0  0
  -26.5540  -34.9860   22.3780 O   0  0  0  0  0  0  0  0  0  0  0  0
  -24.9700  -34.0750   24.9420 H   0  0  0  0  0  0  0  0  0  0  0  0
  -24.1810  -36.8670   23.1390 C   0  0  0  0  0  1  0  0  0  0  0  0
  -25.4080  -36.4080   23.9440 C   0  0  0  0  0  3  0  0  0  0  0  0
  -27.5390  -37.2250   24.8490 C   0  0  0  0  0  1  0  0  0  0  0  0
  -26.4520  -37.4560   23.9010 N   0  0  0  0  0  0  0  0  0  0  0  0
  -26.0520  -38.3700   24.0960 H   0  0  0  0  0  0  0  0  0  0  0  0
  -26.4200  -31.7500   24.9460 C   0  0  1  0  0  0  0  0  0  0  0  0
  -25.3690  -31.4620   26.0420 C   0  0  0  0  0  1  0  0  0  0  0  0
  -26.9910  -30.3940   24.4670 C   0  0  0  0  0  1  0  0  0  0  0  0
  -27.5920  -32.5190   25.6010 C   0  0  0  0  0  1  0  0  0  0  0  0
  -28.3610  -21.2040   21.5370 C   0  0  0  0  0  2  0  0  0  0  0  0
  -29.2710  -20.8010   20.3530 C   0  0  0  0  0  2  0  0  0  0  0  0
  -29.2080  -17.6980   18.3380 C   0  0  0  0  0  2  0  0  0  0  0  0
  -29.9610  -16.4430   18.7720 C   0  0  0  0  0  2  0  0  0  0  0  0
  -30.9540  -17.3530   20.9450 C   0  0  0  0  0  2  0  0  0  0  0  0
  -29.8740  -18.9940   18.7970 C   0  0  0  0  0  2  0  0  0  0  0  0
  -30.1980  -18.6690   21.2820 C   0  0  0  0  0  2  0  0  0  0  0  0
  -30.1540  -16.1910   20.2940 C   0  0  0  0  0  3  0  0  0  0  0  0
  -29.4390  -19.3310   20.1760 N   0  0  1  0  0  4  0  0  0  0  0  0
  -28.5080  -18.9470   20.2230 H   0  0  0  0  0  0  0  0  0  0  0  0
  -30.9490  -14.8570   20.3790 C   0  0  0  0  0  0  0  0  0  0  0  0
  -30.6900  -12.6370   19.4000 C   0  0  0  0  0  2  0  0  0  0  0  0
  -29.7960  -12.7810   18.1510 C   0  0  0  0  0  2  0  0  0  0  0  0
  -28.2990  -12.6980   18.5280 C   0  0  0  0  0  2  0  0  0  0  0  0
  -27.9190  -13.5710   19.7550 C   0  0  0  0  0  3  0  0  0  0  0  0
  -28.9470  -13.4210   20.8990 C   0  0  0  0  0  2  0  0  0  0  0  0
  -30.2900  -13.6720   20.3630 N   0  0  0  0  0  0  0  0  0  0  0  0
  -32.1560  -14.9400   20.1400 O   0  0  0  0  0  0  0  0  0  0  0  0
  -25.5080  -14.1840   20.4170 C   0  0  0  0  0  0  0  0  0  0  0  0
  -24.4330  -13.4110   20.7700 C   0  0  0  0  0  0  0  0  0  0  0  0
  -24.8960  -12.0620   20.7600 C   0  0  0  0  0  0  0  0  0  0  0  0
  -26.5590  -13.3020   20.2140 N   0  0  0  0  0  0  0  0  0  0  0  0
  -26.1930  -12.0230   20.4840 N   0  0  0  0  0  0  0  0  0  0  0  0
  -24.1660  -10.8000   20.9380 C   0  0  0  0  0  0  0  0  0  0  0  0
  -24.5600   -9.8530   21.9110 C   0  0  0  0  0  3  0  0  0  0  0  0
  -23.8360   -8.6540   22.0780 C   0  0  0  0  0  3  0  0  0  0  0  0
  -22.7020   -8.3930   21.2740 C   0  0  0  0  0  0  0  0  0  0  0  0
  -22.3280   -9.3250   20.2920 C   0  0  0  0  0  3  0  0  0  0  0  0
  -23.0520  -10.5170   20.1220 C   0  0  0  0  0  3  0  0  0  0  0  0
  -21.9480   -7.2470   21.3510 O   0  0  0  0  0  0  0  0  0  0  0  0
  -21.8210   -6.5470   22.5230 C   0  0  0  0  0  0  0  0  0  0  0  0
  -21.2830   -7.1360   23.6900 C   0  0  0  0  0  3  0  0  0  0  0  0
  -21.1060   -6.3580   24.8510 C   0  0  0  0  0  3  0  0  0  0  0  0
  -21.4580   -4.9940   24.8490 C   0  0  0  0  0  0  0  0  0  0  0  0
  -21.9880   -4.4070   23.6870 C   0  0  0  0  0  3  0  0  0  0  0  0
  -22.1650   -5.1810   22.5260 C   0  0  0  0  0  0  0  0  0  0  0  0
  -22.6580   -4.6020   21.4040 F   0  0  0  0  0  0  0  0  0  0  0  0
  -21.2810   -4.2470   25.9630 F   0  0  0  0  0  0  0  0  0  0  0  0
  -23.0260  -13.8900   21.0010 C   0  0  0  0  0  0  0  0  0  0  0  0
  -22.2770  -13.2030   21.8590 N   0  0  0  0  0  0  0  0  0  0  0  0
  -22.6000  -14.9060   20.4590 O   0  0  0  0  0  0  0  0  0  0  0  0
  -22.6370  -12.3830   22.3260 H   0  0  0  0  0  0  0  0  0  0  0  0
  -21.3330  -13.5040   22.0550 H   0  0  0  0  0  0  0  0  0  0  0  0
  -25.6720  -15.5510   20.2340 N   0  0  0  0  0  0  0  0  0  0  0  0
  -24.8960  -16.1940   20.3350 H   0  0  0  0  0  0  0  0  0  0  0  0
  -26.5150  -15.9940   19.8910 H   0  0  0  0  0  0  0  0  0  0  0  0
  2  1  1  0
  2 49  1  0
  3  2  1  0
  3  4  1  0
  5  3  1  0
  6  7  1  0
  6  3  1  0
  8 10  1  0
  8  7  1  0
  9 20  2  0
 10 15  1  0
 11 19  1  0
 11 21  1  0
 12 18  1  0
 12 14  1  0
 13 19  1  0
 14 13  1  0
 15 14  2  0
 16 17  1  0
 16 10  2  0
 17 12  2  0
 18 11  1  0
 19  9  1  0
 21 23  2  0
 22 21  1  0
 24 22  1  0
 25 34  2  0
 25 30  1  0
 26 22  1  0
 26 30  1  0
 27 26  1  0
 28 29  1  0
 28 27  1  0
 29 25  1  0
 30 31  2  0
 31 32  1  0
 33 32  2  0
 34 33  1  0
 35  9  1  0
 35 36  1  0
 35 45  1  0
 36 39  1  0
 37 41  1  0
 37 36  1  0
 38 37  2  0
 41 40  1  0
 43 41  1  0
 43 44  1  0
 43 42  1  0
 45 48  1  1
 45 46  1  0
 47 45  1  0
 50 49  1  0
 51 52  1  0
 51 54  1  0
 52 56  1  0
 53 55  1  0
 54 57  1  0
 56 59  1  0
 56 53  1  0
 57 58  1  6
 57 50  1  0
 57 55  1  0
 60 65  1  0
 61 62  1  0
 61 60  1  0
 63 62  1  0
 63 70  1  0
 63 64  1  0
 65 59  1  0
 65 64  1  0
 66 59  2  0
 67 68  2  0
 68 87  1  0
 69 68  1  0
 69 72  1  0
 70 67  1  0
 70 71  1  0
 71 69  2  0
 72 73  1  0
 73 74  2  0
 75 78  1  0
 75 74  1  0
 76 75  2  0
 77 76  1  0
 77 72  2  0
 78 79  1  0
 79 84  2  0
 79 80  1  0
 80 81  2  0
 82 81  1  0
 82 86  1  0
 83 82  2  0
 84 83  1  0
 85 84  1  0
 87 88  1  0
 88 91  1  0
 88 90  1  0
 89 87  2  0
 92 93  1  0
 92 67  1  0
 94 92  1  0
M  ISO  4   7 101   8 101  56 100  59 100
M  END
>  <TORSDO>  (14) 
F 22

>  <SCORE>  (14) 
-12.237

>  <name>  (14) 
13

>  <ligand_id>  (14) 
13

>  <original_smiles>  (14) 
[H]c1c([H])c([H])c2c(c1[H])C([H])([H])C([H])([H])C([H])([H])C2([H])N([H])C(=O)C1([H])N(C(=O)C([H])(N([H])C(=O)C([H])(N([H])C([H])([H])[H])C([H])([H])[H])C(C([H])([H])[H])(C([H])([H])[H])C([H])([H])[H])C([H])([H])c2c([H])c(OC([H])([H])C([H])([H])[N+]([H])([H])C([H])(C([H])([H])[H])C([H])([H])C([H])([H])[N+]3([H])C([H])([H])C([H])([H])C([H])([H])C([H])(C(=O)N4C([H])([H])C([H])([H])C([H])([H])C([H])(n5nc(-c6c([H])c([H])c(Oc7c([H])c([H])c(F)c([H])c7F)c([H])c6[H])c(C(=O)N([H])[H])c5N([H])[H])C4([H])[H])C([H])([H])C3([H])[H])c([H])c([H])c2C1([H])[H]

>  <smiles>  (14) 
[H]c1c([H])c([H])c2c(c1[H])C([H])([H])C([H])([H])C([H])([H])C2([H])N([H])C(=O)C1([H])N(C(=O)C([H])(N([H])C(=O)C([H])(N([H])C([H])([H])[H])C([H])([H])[H])C(C([H])([H])[H])(C([H])([H])[H])C([H])([H])[H])C([H])([H])c2c([H])c(OC([H])([H])C([H])([H])[N+]([H])([H])C([H])(C([H])([H])[H])C([H])([H])C([H])([H])[N+]3([H])C([H])([H])C([H])([H])C([H])([H])C([H])(C(=O)N4C([H])([H])C([H])([H])C([H])([H])C([H])(n5nc(-c6c([H])c([H])c(Oc7c([H])c([H])c(F)c([H])c7F)c([H])c6[H])c(C(=O)N([H])[H])c5N([H])[H])C4([H])[H])C([H])([H])C3([H])[H])c([H])c([H])c2C1([H])[H]

$$$$
14:0:0
     RDKit          3D

 92100  0  0  1  0  0  0  0  0999 V2000
  -22.6720  -24.9670   14.1620 C   0  0  0  0  0  2  0  0  0  0  0  0
  -19.7830  -27.4740   14.6270 C   0  0  0  0  0  3  0  0  0  0  0  0
  -19.2600  -27.6180   13.3390 C   0  0  0  0  0  3  0  0  0  0  0  0
  -20.8640  -26.6060   14.8460 C   0  0  0  0  0  3  0  0  0  0  0  0
  -19.7880  -26.8550   12.2850 C   0  0  0  0  0  3  0  0  0  0  0  0
  -21.4230  -25.8210   13.8040 C   0  0  0  0  0  0  0  0  0  0  0  0
  -20.8130  -25.8910   12.4860 C   0  0  0  0  0  0  0  0  0  0  0  0
  -21.1850  -24.9850   11.2610 C   0  0  0  0  0  2  0  0  0  0  0  0
  -23.4500  -25.7810   10.4810 C   0  0  0  0  0  0  0  0  0  0  0  0
  -24.9730  -26.6530    8.7190 C   0  0  0  0  0  2  0  0  0  0  0  0
  -24.1610  -27.1370    7.5000 C   0  0  0  0  0  2  0  0  0  0  0  0
  -23.8920  -25.9730    6.5290 C   0  0  0  0  0  2  0  0  0  0  0  0
  -23.3470  -24.7110    7.2550 C   0  0  0  0  0  3  0  0  0  0  0  0
  -24.1910  -24.3690    8.5030 C   0  0  0  0  0  2  0  0  0  0  0  0
  -24.2260  -25.5580    9.3720 N   0  0  0  0  0  0  0  0  0  0  0  0
  -23.4420  -26.8790   11.0450 O   0  0  0  0  0  0  0  0  0  0  0  0
  -23.3540  -23.8260   11.8140 C   0  0  0  0  0  1  0  0  0  0  0  0
  -22.6470  -24.7660   10.9240 N   0  0  0  0  0  0  0  0  0  0  0  0
  -23.6310  -23.4650    5.0230 C   0  0  0  0  0  0  0  0  0  0  0  0
  -23.3700  -22.1730    4.6540 C   0  0  0  0  0  0  0  0  0  0  0  0
  -22.8210  -21.5370    5.8080 C   0  0  0  0  0  0  0  0  0  0  0  0
  -23.2360  -23.5710    6.3470 N   0  0  0  0  0  0  0  0  0  0  0  0
  -22.6940  -22.4110    6.8000 N   0  0  0  0  0  0  0  0  0  0  0  0
  -22.4580  -20.1320    6.0440 C   0  0  0  0  0  0  0  0  0  0  0  0
  -23.4230  -19.1770    6.4310 C   0  0  0  0  0  3  0  0  0  0  0  0
  -23.0490  -17.8360    6.6670 C   0  0  0  0  0  3  0  0  0  0  0  0
  -21.6990  -17.4400    6.5220 C   0  0  0  0  0  0  0  0  0  0  0  0
  -20.7470  -18.3900    6.1130 C   0  0  0  0  0  3  0  0  0  0  0  0
  -21.1210  -19.7230    5.8730 C   0  0  0  0  0  3  0  0  0  0  0  0
  -21.2480  -16.1550    6.7040 O   0  0  0  0  0  0  0  0  0  0  0  0
  -21.1900  -15.2590    5.6670 C   0  0  0  0  0  0  0  0  0  0  0  0
  -22.2870  -14.4350    5.3330 C   0  0  0  0  0  3  0  0  0  0  0  0
  -22.1600  -13.4800    4.3030 C   0  0  0  0  0  3  0  0  0  0  0  0
  -20.9400  -13.3410    3.6160 C   0  0  0  0  0  0  0  0  0  0  0  0
  -19.8460  -14.1560    3.9530 C   0  0  0  0  0  3  0  0  0  0  0  0
  -19.9700  -15.1100    4.9780 C   0  0  0  0  0  0  0  0  0  0  0  0
  -18.9050  -15.8780    5.3130 F   0  0  0  0  0  0  0  0  0  0  0  0
  -20.8160  -12.4180    2.6340 F   0  0  0  0  0  0  0  0  0  0  0  0
  -23.7000  -21.5360    3.3340 C   0  0  0  0  0  0  0  0  0  0  0  0
  -24.6350  -20.5910    3.3230 N   0  0  0  0  0  0  0  0  0  0  0  0
  -23.0970  -21.8420    2.3080 O   0  0  0  0  0  0  0  0  0  0  0  0
  -25.1190  -20.3210    4.1660 H   0  0  0  0  0  0  0  0  0  0  0  0
  -24.8670  -20.1310    2.4540 H   0  0  0  0  0  0  0  0  0  0  0  0
  -24.1840  -24.5530    4.3540 N   0  0  0  0  0  0  0  0  0  0  0  0
  -24.5120  -24.5000    3.3980 H   0  0  0  0  0  0  0  0  0  0  0  0
  -24.3040  -25.4720    4.7620 H   0  0  0  0  0  0  0  0  0  0  0  0
  -24.5630  -26.5930   14.3090 C   0  0  0  0  0  0  0  0  0  0  0  0
  -23.9600  -27.3830   15.4660 C   0  0  0  0  0  1  0  0  0  0  0  0
  -24.0160  -25.5300   13.7970 N   0  0  0  0  0  0  0  0  0  0  0  0
  -25.9140  -27.1730   13.7410 C   0  0  0  0  0  2  0  0  0  0  0  0
  -27.2680  -26.4310   14.0830 C   0  0  0  0  0  2  0  0  0  0  0  0
  -28.3780  -27.2110   14.6550 O   0  0  0  0  0  0  0  0  0  0  0  0
  -27.7780  -22.6810   20.1870 C   0  0  0  0  0  0  0  0  0  0  0  0
  -28.8600  -26.8200   15.9100 C   0  0  0  0  0  0  0  0  0  0  0  0
  -29.0450  -24.7600   20.6100 C   0  0  0  0  0  3  0  0  0  0  0  0
  -29.7060  -26.1000   18.5390 C   0  0  0  0  0  0  0  0  0  0  0  0
  -28.9840  -23.7300   18.2640 C   0  0  0  0  0  2  0  0  0  0  0  0
  -29.1380  -25.1340   17.7000 C   0  0  0  0  0  0  0  0  0  0  0  0
  -28.7230  -25.4850   16.3860 C   0  0  0  0  0  3  0  0  0  0  0  0
  -29.4810  -27.7570   16.7710 C   0  0  0  0  0  3  0  0  0  0  0  0
  -29.8860  -27.4130   18.0730 C   0  0  0  0  0  3  0  0  0  0  0  0
  -30.1040  -25.6700   19.9340 C   0  0  0  0  0  2  0  0  0  0  0  0
  -28.5500  -23.6880   19.6850 N   0  0  0  0  0  0  0  0  0  0  0  0
  -27.5100  -22.6180   21.3950 O   0  0  0  0  0  0  0  0  0  0  0  0
  -27.9120  -25.6430   21.1870 C   0  0  0  0  0  0  0  0  0  0  0  0
  -27.7410  -25.6120   22.5200 N   0  0  0  0  0  0  0  0  0  0  0  0
  -27.2250  -26.3520   20.4460 O   0  0  0  0  0  0  0  0  0  0  0  0
  -28.3310  -24.9930   23.0590 H   0  0  0  0  0  0  0  0  0  0  0  0
  -25.9470  -28.7490   22.6030 C   0  0  0  0  0  0  0  0  0  0  0  0
  -26.7630  -26.3920   23.2800 C   0  0  0  0  0  3  0  0  0  0  0  0
  -25.3230  -25.9170   22.9800 C   0  0  0  0  0  2  0  0  0  0  0  0
  -24.6490  -26.7090   21.8530 C   0  0  0  0  0  2  0  0  0  0  0  0
  -24.5870  -28.1980   22.2060 C   0  0  0  0  0  2  0  0  0  0  0  0
  -26.9710  -27.8990   23.0920 C   0  0  0  0  0  0  0  0  0  0  0  0
  -28.2280  -28.4540   23.4170 C   0  0  0  0  0  3  0  0  0  0  0  0
  -28.4680  -29.8330   23.2590 C   0  0  0  0  0  3  0  0  0  0  0  0
  -27.4460  -30.6740   22.7890 C   0  0  0  0  0  3  0  0  0  0  0  0
  -26.1870  -30.1350   22.4680 C   0  0  0  0  0  3  0  0  0  0  0  0
  -27.2180  -21.5460   19.2740 C   0  0  0  0  0  3  0  0  0  0  0  0
  -26.3900  -22.1790   18.2360 N   0  0  0  0  0  0  0  0  0  0  0  0
  -25.0500  -22.2160   18.2490 C   0  0  0  0  0  0  0  0  0  0  0  0
  -24.3740  -21.6480   19.1110 O   0  0  0  0  0  0  0  0  0  0  0  0
  -26.8750  -22.7050   17.5250 H   0  0  0  0  0  0  0  0  0  0  0  0
  -23.8480  -22.0320   16.0470 C   0  0  0  0  0  1  0  0  0  0  0  0
  -24.3480  -23.0050   17.1260 C   0  0  0  0  0  3  0  0  0  0  0  0
  -25.4400  -25.1910   17.3700 C   0  0  0  0  0  1  0  0  0  0  0  0
  -25.2070  -24.0360   16.5060 N   0  0  0  0  0  0  0  0  0  0  0  0
  -24.7990  -24.3690   15.6380 H   0  0  0  0  0  0  0  0  0  0  0  0
  -28.3490  -20.6600   18.6190 C   0  0  1  0  0  0  0  0  0  0  0  0
  -29.5930  -20.4780   19.5170 C   0  0  0  0  0  1  0  0  0  0  0  0
  -27.8050  -19.2540   18.2730 C   0  0  0  0  0  1  0  0  0  0  0  0
  -28.8120  -21.2990   17.2910 C   0  0  0  0  0  1  0  0  0  0  0  0
  2  4  1  0
  3  2  2  0
  5  7  2  0
  5  3  1  0
  6  1  1  0
  6  4  2  0
  7  6  1  0
  8  7  1  0
  9 18  1  0
  9 16  2  0
 10 15  1  0
 11 10  1  0
 12 13  1  0
 12 11  1  0
 13 22  1  0
 13 14  1  0
 14 15  1  0
 15  9  1  0
 18  8  1  0
 18 17  1  0
 19 22  1  0
 20 19  2  0
 20 21  1  0
 21 24  1  0
 21 23  2  0
 22 23  1  0
 24 25  1  0
 25 26  2  0
 27 26  1  0
 27 30  1  0
 28 27  2  0
 29 24  2  0
 29 28  1  0
 31 30  1  0
 32 31  1  0
 33 32  2  0
 34 35  2  0
 34 33  1  0
 35 36  1  0
 36 37  1  0
 36 31  2  0
 38 34  1  0
 39 20  1  0
 40 39  1  0
 40 42  1  0
 41 39  2  0
 43 40  1  0
 44 46  1  0
 44 19  1  0
 45 44  1  0
 47 48  1  0
 49  1  1  0
 49 47  2  0
 50 51  1  0
 50 47  1  0
 51 52  1  0
 52 54  1  0
 53 64  2  0
 54 59  2  0
 54 60  1  0
 55 65  1  0
 56 62  1  0
 57 63  1  0
 58 57  1  0
 58 56  2  0
 59 58  1  0
 60 61  2  0
 61 56  1  0
 62 55  1  0
 63 53  1  0
 63 55  1  0
 65 66  1  0
 66 68  1  0
 67 65  2  0
 69 74  1  0
 70 66  1  0
 71 70  1  0
 72 73  1  0
 72 71  1  0
 73 69  1  0
 74 70  1  0
 74 75  2  0
 76 75  1  0
 77 76  2  0
 78 69  2  0
 78 77  1  0
 79 53  1  0
 80 81  1  0
 80 79  1  0
 81 82  2  0
 83 80  1  0
 85 84  1  0
 85 81  1  0
 87 85  1  0
 87 86  1  0
 88 87  1  0
 89 79  1  0
 89 90  1  1
 91 89  1  0
 92 89  1  0
M  ISO  4   9 100  18 100  51 101  52 101
M  END
>  <TORSDO>  (15) 
F 21

>  <SCORE>  (15) 
-5.937

>  <name>  (15) 
14

>  <ligand_id>  (15) 
14

>  <original_smiles>  (15) 
[H]c1c([H])c([H])c(C([H])([H])N(C(=O)N2C([H])([H])C([H])([H])C([H])([H])C([H])(n3nc(-c4c([H])c([H])c(Oc5c([H])c([H])c(F)c([H])c5F)c([H])c4[H])c(C(=O)N([H])[H])c3N([H])[H])C2([H])[H])C([H])([H])[H])c(C([H])([H])N=C(C([H])([H])[H])C([H])([H])C([H])([H])Oc2c([H])c([H])c3c(c2[H])C([H])([H])N(C(=O)C([H])(N([H])C(=O)C([H])(N([H])C([H])([H])[H])C([H])([H])[H])C(C([H])([H])[H])(C([H])([H])[H])C([H])([H])[H])C([H])(C(=O)N([H])C2([H])c4c([H])c([H])c([H])c([H])c4C([H])([H])C([H])([H])C2([H])[H])C3([H])[H])c1[H]

>  <smiles>  (15) 
[H]c1c([H])c([H])c(C([H])([H])N(C(=O)N2C([H])([H])C([H])([H])C([H])([H])C([H])(n3nc(-c4c([H])c([H])c(Oc5c([H])c([H])c(F)c([H])c5F)c([H])c4[H])c(C(=O)N([H])[H])c3N([H])[H])C2([H])[H])C([H])([H])[H])c(C([H])([H])N=C(C([H])([H])[H])C([H])([H])C([H])([H])Oc2c([H])c([H])c3c(c2[H])C([H])([H])N(C(=O)C([H])(N([H])C(=O)C([H])(N([H])C([H])([H])[H])C([H])([H])[H])C(C([H])([H])[H])(C([H])([H])[H])C([H])([H])[H])C([H])(C(=O)N([H])C2([H])c4c([H])c([H])c([H])c([H])c4C([H])([H])C([H])([H])C2([H])[H])C3([H])[H])c1[H]

$$$$
15:0:0
     RDKit          3D

 97104  0  0  1  0  0  0  0  0999 V2000
  -28.9090  -22.6840   18.9090 N   0  0  1  0  0  4  0  0  0  0  0  0
  -29.7340  -22.9440   18.3850 H   0  0  0  0  0  0  0  0  0  0  0  0
  -28.9330  -21.6520   21.2350 C   0  0  0  0  0  1  0  0  0  0  0  0
  -29.2530  -22.8910   20.3580 C   0  0  0  0  0  3  0  0  0  0  0  0
  -30.6730  -23.5010   20.5530 C   0  0  0  0  0  2  0  0  0  0  0  0
  -31.3430  -23.2820   21.9330 C   0  0  0  0  0  2  0  0  0  0  0  0
  -30.4530  -22.6100   22.9080 N   0  0  0  0  0  4  0  0  0  0  0  0
  -29.7450  -22.1060   22.4020 H   0  0  0  0  0  0  0  0  0  0  0  0
  -29.9820  -23.3110   23.4610 H   0  0  0  0  0  0  0  0  0  0  0  0
  -30.3410  -20.2930   23.7610 C   0  0  0  0  0  1  0  0  0  0  0  0
  -31.2330  -22.1520   25.2450 C   0  0  0  0  0  1  0  0  0  0  0  0
  -31.1060  -21.6260   23.8030 C   0  0  0  0  0  3  0  0  0  0  0  0
  -28.6450  -21.2030   18.5280 C   0  0  0  0  0  3  0  0  0  0  0  0
  -29.7130  -20.0450   18.9130 C   0  0  0  0  0  3  0  0  0  0  0  0
  -29.3650  -18.4780   18.7370 C   0  0  0  0  0  3  0  0  0  0  0  0
  -30.5000  -17.3930   19.1060 C   0  0  0  0  0  3  0  0  0  0  0  0
  -30.9020  -14.8080   19.1710 C   0  0  0  0  0  0  0  0  0  0  0  0
  -30.6500  -12.4150   18.5180 C   0  0  0  0  0  2  0  0  0  0  0  0
  -29.5880  -12.3260   17.4000 C   0  0  0  0  0  2  0  0  0  0  0  0
  -28.1790  -12.2010   18.0090 C   0  0  0  0  0  2  0  0  0  0  0  0
  -27.9160  -13.2550   19.1170 C   0  0  0  0  0  3  0  0  0  0  0  0
  -29.0840  -13.3210   20.1240 C   0  0  0  0  0  2  0  0  0  0  0  0
  -30.3070  -13.5830   19.3570 N   0  0  0  0  0  0  0  0  0  0  0  0
  -32.0330  -14.8860   18.6830 O   0  0  0  0  0  0  0  0  0  0  0  0
  -30.1290  -15.9390   19.3540 N   0  0  0  0  0  0  0  0  0  0  0  0
  -29.2120  -15.7730   19.7450 H   0  0  0  0  0  0  0  0  0  0  0  0
  -25.6780  -13.9590   20.1540 C   0  0  0  0  0  0  0  0  0  0  0  0
  -24.6320  -13.2320   20.6570 C   0  0  0  0  0  0  0  0  0  0  0  0
  -25.0190  -11.8610   20.5550 C   0  0  0  0  0  0  0  0  0  0  0  0
  -26.6360  -13.0310   19.7790 N   0  0  0  0  0  0  0  0  0  0  0  0
  -26.2540  -11.7630   20.0810 N   0  0  0  0  0  0  0  0  0  0  0  0
  -24.2620  -10.6320   20.8250 C   0  0  0  0  0  0  0  0  0  0  0  0
  -24.6580   -9.7240   21.8310 C   0  0  0  0  0  3  0  0  0  0  0  0
  -23.8990   -8.5610   22.0840 C   0  0  0  0  0  3  0  0  0  0  0  0
  -22.7300   -8.2970   21.3300 C   0  0  0  0  0  0  0  0  0  0  0  0
  -22.3560   -9.1920   20.3130 C   0  0  0  0  0  3  0  0  0  0  0  0
  -23.1140  -10.3460   20.0580 C   0  0  0  0  0  3  0  0  0  0  0  0
  -21.9450   -7.1810   21.4890 O   0  0  0  0  0  0  0  0  0  0  0  0
  -21.7190   -6.6320   22.7250 C   0  0  0  0  0  0  0  0  0  0  0  0
  -21.0390   -7.3370   23.7420 C   0  0  0  0  0  3  0  0  0  0  0  0
  -20.7670   -6.7100   24.9730 C   0  0  0  0  0  3  0  0  0  0  0  0
  -21.1640   -5.3760   25.1890 C   0  0  0  0  0  0  0  0  0  0  0  0
  -21.8380   -4.6700   24.1760 C   0  0  0  0  0  3  0  0  0  0  0  0
  -22.1110   -5.2950   22.9470 C   0  0  0  0  0  0  0  0  0  0  0  0
  -22.7410   -4.6040   21.9670 F   0  0  0  0  0  0  0  0  0  0  0  0
  -20.8970   -4.7700   26.3690 F   0  0  0  0  0  0  0  0  0  0  0  0
  -23.3100  -13.7740   21.1160 C   0  0  0  0  0  0  0  0  0  0  0  0
  -22.6700  -13.0940   22.0620 N   0  0  0  0  0  0  0  0  0  0  0  0
  -22.8620  -14.8300   20.6740 O   0  0  0  0  0  0  0  0  0  0  0  0
  -23.0500  -12.2360   22.4320 H   0  0  0  0  0  0  0  0  0  0  0  0
  -21.7900  -13.4370   22.4220 H   0  0  0  0  0  0  0  0  0  0  0  0
  -25.8850  -15.3220   19.9640 N   0  0  0  0  0  0  0  0  0  0  0  0
  -25.1540  -16.0060   20.1330 H   0  0  0  0  0  0  0  0  0  0  0  0
  -26.6970  -15.7190   19.5080 H   0  0  0  0  0  0  0  0  0  0  0  0
  -27.8350  -23.7090   18.4770 C   0  0  0  0  0  2  0  0  0  0  0  0
  -28.2660  -25.1640   17.9280 C   0  0  0  0  0  2  0  0  0  0  0  0
  -28.1560  -26.4470   18.6710 O   0  0  0  0  0  0  0  0  0  0  0  0
  -24.6280  -31.0880   22.8540 C   0  0  0  0  0  0  0  0  0  0  0  0
  -27.0050  -27.2460   18.7910 C   0  0  0  0  0  0  0  0  0  0  0  0
  -23.2950  -30.0040   21.0750 C   0  0  0  0  0  3  0  0  0  0  0  0
  -24.6310  -28.7850   19.2540 C   0  0  0  0  0  0  0  0  0  0  0  0
  -25.8020  -30.4100   20.7480 C   0  0  0  0  0  2  0  0  0  0  0  0
  -25.8350  -29.1790   19.8480 C   0  0  0  0  0  0  0  0  0  0  0  0
  -27.0180  -28.4180   19.6110 C   0  0  0  0  0  3  0  0  0  0  0  0
  -25.7800  -26.9060   18.1770 C   0  0  0  0  0  3  0  0  0  0  0  0
  -24.6070  -27.6590   18.4090 C   0  0  0  0  0  3  0  0  0  0  0  0
  -23.3940  -29.6060   19.5740 C   0  0  0  0  0  2  0  0  0  0  0  0
  -24.5980  -30.5070   21.6180 N   0  0  0  0  0  0  0  0  0  0  0  0
  -23.5920  -31.2370   23.5200 O   0  0  0  0  0  0  0  0  0  0  0  0
  -22.7200  -28.8130   21.8750 C   0  0  0  0  0  0  0  0  0  0  0  0
  -21.3940  -28.6120   21.7910 N   0  0  0  0  0  0  0  0  0  0  0  0
  -23.4630  -28.0780   22.5310 O   0  0  0  0  0  0  0  0  0  0  0  0
  -20.8510  -29.2630   21.2410 H   0  0  0  0  0  0  0  0  0  0  0  0
  -18.0830  -27.2370   22.2690 C   0  0  0  0  0  0  0  0  0  0  0  0
  -20.6470  -27.5250   22.4260 C   0  0  0  0  0  3  0  0  0  0  0  0
  -20.7410  -26.2270   21.5910 C   0  0  0  0  0  2  0  0  0  0  0  0
  -19.5800  -26.0610   20.6040 C   0  0  0  0  0  2  0  0  0  0  0  0
  -18.2400  -26.0410   21.3460 C   0  0  0  0  0  2  0  0  0  0  0  0
  -19.2120  -27.9440   22.7620 C   0  0  0  0  0  0  0  0  0  0  0  0
  -19.0070  -29.0680   23.5900 C   0  0  0  0  0  3  0  0  0  0  0  0
  -17.7080  -29.4860   23.9290 C   0  0  0  0  0  3  0  0  0  0  0  0
  -16.5940  -28.7740   23.4510 C   0  0  0  0  0  3  0  0  0  0  0  0
  -16.7820  -27.6520   22.6270 C   0  0  0  0  0  3  0  0  0  0  0  0
  -25.9560  -31.6130   23.4800 C   0  0  0  0  0  3  0  0  0  0  0  0
  -25.6990  -32.9600   24.0110 N   0  0  0  0  0  0  0  0  0  0  0  0
  -26.0720  -34.0980   23.4110 C   0  0  0  0  0  0  0  0  0  0  0  0
  -26.7380  -34.1200   22.3740 O   0  0  0  0  0  0  0  0  0  0  0  0
  -25.1140  -33.0190   24.8310 H   0  0  0  0  0  0  0  0  0  0  0  0
  -24.4300  -35.9990   23.3070 C   0  0  0  0  0  1  0  0  0  0  0  0
  -25.6350  -35.4210   24.0680 C   0  0  0  0  0  3  0  0  0  0  0  0
  -27.7740  -36.0820   25.0760 C   0  0  0  0  0  1  0  0  0  0  0  0
  -26.7150  -36.4320   24.1330 N   0  0  0  0  0  0  0  0  0  0  0  0
  -26.3420  -37.3400   24.4000 H   0  0  0  0  0  0  0  0  0  0  0  0
  -26.5280  -30.6700   24.6100 C   0  0  1  0  0  0  0  0  0  0  0  0
  -25.4900  -30.2990   25.6950 C   0  0  0  0  0  1  0  0  0  0  0  0
  -27.0670  -29.3530   24.0040 C   0  0  0  0  0  1  0  0  0  0  0  0
  -27.7260  -31.3580   25.3050 C   0  0  0  0  0  1  0  0  0  0  0  0
  1  4  1  0
  1  2  1  6
  4  5  1  0
  4  3  1  0
  5  6  1  0
  6  7  1  0
  7  9  1  0
  7 12  1  0
  8  7  1  0
 10 12  1  0
 12 11  1  0
 13  1  1  0
 13 14  2  0
 15 14  1  0
 15 16  2  0
 16 25  1  0
 17 25  1  0
 17 23  1  0
 18 23  1  0
 19 20  1  0
 19 18  1  0
 21 20  1  0
 21 30  1  0
 21 22  1  0
 23 22  1  0
 24 17  2  0
 25 26  1  0
 27 28  2  0
 28 47  1  0
 29 28  1  0
 29 32  1  0
 30 31  1  0
 30 27  1  0
 31 29  2  0
 32 33  1  0
 33 34  2  0
 35 38  1  0
 35 34  1  0
 36 35  2  0
 37 36  1  0
 37 32  2  0
 38 39  1  0
 39 44  2  0
 39 40  1  0
 40 41  2  0
 41 42  1  0
 42 46  1  0
 43 42  2  0
 44 43  1  0
 45 44  1  0
 47 48  1  0
 48 51  1  0
 48 50  1  0
 49 47  2  0
 52 53  1  0
 52 27  1  0
 54 52  1  0
 55  1  1  0
 56 55  1  0
 56 57  1  0
 57 59  1  0
 58 69  2  0
 59 64  1  0
 60 68  1  0
 60 70  1  0
 61 67  1  0
 61 63  1  0
 62 68  1  0
 63 62  1  0
 64 63  2  0
 65 66  1  0
 65 59  2  0
 66 61  2  0
 67 60  1  0
 68 58  1  0
 70 72  2  0
 71 70  1  0
 73 71  1  0
 74 83  2  0
 74 79  1  0
 75 71  1  0
 75 79  1  0
 76 75  1  0
 77 78  1  0
 77 76  1  0
 78 74  1  0
 79 80  2  0
 80 81  1  0
 82 81  2  0
 83 82  1  0
 84 58  1  0
 84 85  1  0
 84 94  1  0
 85 88  1  0
 86 85  1  0
 86 90  1  0
 87 86  2  0
 90 89  1  0
 90 92  1  0
 92 93  1  0
 92 91  1  0
 94 97  1  1
 94 95  1  0
 96 94  1  0
M  ISO  4  17 100  25 100  56 101  57 101
M  END
>  <TORSDO>  (16) 
F 27

>  <SCORE>  (16) 
-8.329

>  <name>  (16) 
15

>  <ligand_id>  (16) 
15

>  <original_smiles>  (16) 
[H]c1c([H])c([H])c2c(c1[H])C([H])([H])C([H])([H])C([H])([H])C2([H])N([H])C(=O)C1([H])N(C(=O)C([H])(N([H])C(=O)C([H])(N([H])C([H])([H])[H])C([H])([H])[H])C(C([H])([H])[H])(C([H])([H])[H])C([H])([H])[H])C([H])([H])c2c([H])c(OC([H])([H])C([H])([H])[N+]([H])(C([H])([H])C([H])([H])C([H])([H])C([H])([H])N([H])C(=O)N3C([H])([H])C([H])([H])C([H])([H])C([H])(n4nc(-c5c([H])c([H])c(Oc6c([H])c([H])c(F)c([H])c6F)c([H])c5[H])c(C(=O)N([H])[H])c4N([H])[H])C3([H])[H])C([H])(C([H])([H])[H])C([H])([H])C([H])([H])[N+]([H])([H])C([H])(C([H])([H])[H])C([H])([H])[H])c([H])c([H])c2C1([H])[H]

>  <smiles>  (16) 
[H]c1c([H])c([H])c2c(c1[H])C([H])([H])C([H])([H])C([H])([H])C2([H])N([H])C(=O)C1([H])N(C(=O)C([H])(N([H])C(=O)C([H])(N([H])C([H])([H])[H])C([H])([H])[H])C(C([H])([H])[H])(C([H])([H])[H])C([H])([H])[H])C([H])([H])c2c([H])c(OC([H])([H])C([H])([H])[N+]([H])(C([H])([H])C([H])([H])C([H])([H])C([H])([H])N([H])C(=O)N3C([H])([H])C([H])([H])C([H])([H])C([H])(n4nc(-c5c([H])c([H])c(Oc6c([H])c([H])c(F)c([H])c6F)c([H])c5[H])c(C(=O)N([H])[H])c4N([H])[H])C3([H])[H])C([H])(C([H])([H])[H])C([H])([H])C([H])([H])[N+]([H])([H])C([H])(C([H])([H])[H])C([H])([H])[H])c([H])c([H])c2C1([H])[H]

$$$$
16:0:0
     RDKit          3D

 91 98  0  0  1  0  0  0  0  0999 V2000
  -29.3440  -19.6500   19.7790 C   0  0  0  0  0  3  0  0  0  0  0  0
  -26.8810  -18.8860   19.5530 C   0  0  0  0  0  1  0  0  0  0  0  0
  -28.1370  -19.3950   18.8290 C   0  0  0  0  0  3  0  0  0  0  0  0
  -29.5100  -19.0710   16.6510 C   0  0  0  0  0  1  0  0  0  0  0  0
  -28.4360  -18.5130   17.5940 C   0  0  0  0  0  2  0  0  0  0  0  0
  -29.0770  -21.2220   20.5840 C   0  0  0  0  0  2  0  0  0  0  0  0
  -28.9320  -22.8950   19.9830 C   0  0  0  0  0  2  0  0  0  0  0  0
  -28.2020  -24.3790   20.6420 C   0  0  0  0  0  2  0  0  0  0  0  0
  -28.3800  -25.9790   20.3890 O   0  0  0  0  0  0  0  0  0  0  0  0
  -24.6760  -31.8670   23.2740 C   0  0  0  0  0  0  0  0  0  0  0  0
  -27.3250  -27.0160   20.3680 C   0  0  0  0  0  0  0  0  0  0  0  0
  -23.5150  -30.4390   21.6380 C   0  0  0  0  0  3  0  0  0  0  0  0
  -24.9960  -28.8310   20.2640 C   0  0  0  0  0  0  0  0  0  0  0  0
  -26.0770  -30.6880   21.5160 C   0  0  0  0  0  2  0  0  0  0  0  0
  -26.1720  -29.2730   20.8860 C   0  0  0  0  0  0  0  0  0  0  0  0
  -27.3350  -28.3870   20.9080 C   0  0  0  0  0  3  0  0  0  0  0  0
  -26.1170  -26.7050   19.7070 C   0  0  0  0  0  3  0  0  0  0  0  0
  -24.9900  -27.5650   19.6550 C   0  0  0  0  0  3  0  0  0  0  0  0
  -23.7670  -29.7360   20.2760 C   0  0  0  0  0  2  0  0  0  0  0  0
  -24.7770  -31.0250   22.1960 N   0  0  0  0  0  0  0  0  0  0  0  0
  -23.5780  -32.1540   23.7770 O   0  0  0  0  0  0  0  0  0  0  0  0
  -22.8200  -29.4490   22.6070 C   0  0  0  0  0  0  0  0  0  0  0  0
  -21.4940  -29.2670   22.4630 N   0  0  0  0  0  0  0  0  0  0  0  0
  -23.4790  -28.8450   23.4570 O   0  0  0  0  0  0  0  0  0  0  0  0
  -21.0160  -29.8050   21.7540 H   0  0  0  0  0  0  0  0  0  0  0  0
  -18.1190  -28.0250   22.9290 C   0  0  0  0  0  0  0  0  0  0  0  0
  -20.6690  -28.3330   23.2350 C   0  0  0  0  0  3  0  0  0  0  0  0
  -20.8010  -26.8920   22.6890 C   0  0  0  0  0  2  0  0  0  0  0  0
  -19.7220  -26.5350   21.6610 C   0  0  0  0  0  2  0  0  0  0  0  0
  -18.3270  -26.6690   22.2770 C   0  0  0  0  0  2  0  0  0  0  0  0
  -19.2180  -28.8130   23.3650 C   0  0  0  0  0  0  0  0  0  0  0  0
  -18.9670  -30.0790   23.9360 C   0  0  0  0  0  3  0  0  0  0  0  0
  -17.6520  -30.5600   24.0750 C   0  0  0  0  0  3  0  0  0  0  0  0
  -16.5670  -29.7700   23.6540 C   0  0  0  0  0  3  0  0  0  0  0  0
  -16.8010  -28.5050   23.0880 C   0  0  0  0  0  3  0  0  0  0  0  0
  -25.9340  -32.5280   23.9140 C   0  0  0  0  0  3  0  0  0  0  0  0
  -25.6090  -33.9350   24.2030 N   0  0  0  0  0  0  0  0  0  0  0  0
  -25.9490  -34.9760   23.4300 C   0  0  0  0  0  0  0  0  0  0  0  0
  -26.6310  -34.8530   22.4100 O   0  0  0  0  0  0  0  0  0  0  0  0
  -25.0030  -34.1040   24.9920 H   0  0  0  0  0  0  0  0  0  0  0  0
  -24.2160  -36.7600   23.0290 C   0  0  0  0  0  1  0  0  0  0  0  0
  -25.4540  -36.3750   23.8540 C   0  0  0  0  0  3  0  0  0  0  0  0
  -27.5790  -37.2920   24.6760 C   0  0  0  0  0  1  0  0  0  0  0  0
  -26.4840  -37.4300   23.7210 N   0  0  0  0  0  0  0  0  0  0  0  0
  -26.0720  -38.3520   23.8390 H   0  0  0  0  0  0  0  0  0  0  0  0
  -26.4130  -31.8000   25.2300 C   0  0  1  0  0  0  0  0  0  0  0  0
  -25.2900  -31.5940   26.2740 C   0  0  0  0  0  1  0  0  0  0  0  0
  -27.0100  -30.4110   24.9090 C   0  0  0  0  0  1  0  0  0  0  0  0
  -27.5430  -32.6180   25.8990 C   0  0  0  0  0  1  0  0  0  0  0  0
  -30.1770  -18.1390   20.2810 C   0  0  0  0  0  3  0  0  0  0  0  0
  -30.4680  -15.2510   19.9740 C   0  0  0  0  0  0  0  0  0  0  0  0
  -30.3410  -12.8710   18.9360 C   0  0  0  0  0  2  0  0  0  0  0  0
  -29.3250  -12.7560   17.7700 C   0  0  0  0  0  2  0  0  0  0  0  0
  -27.9030  -12.4800   18.2910 C   0  0  0  0  0  2  0  0  0  0  0  0
  -27.5590  -13.3690   19.5120 C   0  0  0  0  0  3  0  0  0  0  0  0
  -28.6940  -13.3670   20.5580 C   0  0  0  0  0  2  0  0  0  0  0  0
  -29.8760  -13.9510   19.8870 N   0  0  0  0  0  0  0  0  0  0  0  0
  -31.6380  -15.2530   19.5580 O   0  0  0  0  0  0  0  0  0  0  0  0
  -28.6670  -16.4350   21.2470 C   0  0  0  0  0  1  0  0  0  0  0  0
  -29.7640  -16.5290   20.2860 N   0  0  0  0  0  0  0  0  0  0  0  0
  -25.2260  -13.9170   20.4040 C   0  0  0  0  0  0  0  0  0  0  0  0
  -24.1930  -13.1330   20.8320 C   0  0  0  0  0  0  0  0  0  0  0  0
  -24.6580  -11.7850   20.7450 C   0  0  0  0  0  0  0  0  0  0  0  0
  -26.2580  -13.0490   20.0890 N   0  0  0  0  0  0  0  0  0  0  0  0
  -25.9290  -11.7590   20.3550 N   0  0  0  0  0  0  0  0  0  0  0  0
  -23.9410  -10.5200   20.9500 C   0  0  0  0  0  0  0  0  0  0  0  0
  -24.4080   -9.5460   21.8600 C   0  0  0  0  0  3  0  0  0  0  0  0
  -23.6870   -8.3480   22.0560 C   0  0  0  0  0  3  0  0  0  0  0  0
  -22.4870   -8.1160   21.3430 C   0  0  0  0  0  0  0  0  0  0  0  0
  -22.0400   -9.0780   20.4210 C   0  0  0  0  0  3  0  0  0  0  0  0
  -22.7610  -10.2670   20.2230 C   0  0  0  0  0  3  0  0  0  0  0  0
  -21.7360   -6.9700   21.4500 O   0  0  0  0  0  0  0  0  0  0  0  0
  -21.7050   -6.2360   22.6080 C   0  0  0  0  0  0  0  0  0  0  0  0
  -21.2780   -6.7950   23.8330 C   0  0  0  0  0  3  0  0  0  0  0  0
  -21.1960   -5.9860   24.9840 C   0  0  0  0  0  3  0  0  0  0  0  0
  -21.5300   -4.6210   24.9120 C   0  0  0  0  0  0  0  0  0  0  0  0
  -21.9490   -4.0620   23.6920 C   0  0  0  0  0  3  0  0  0  0  0  0
  -22.0340   -4.8670   22.5420 C   0  0  0  0  0  0  0  0  0  0  0  0
  -22.4190   -4.3200   21.3650 F   0  0  0  0  0  0  0  0  0  0  0  0
  -21.4430   -3.8410   26.0150 F   0  0  0  0  0  0  0  0  0  0  0  0
  -22.8160  -13.6060   21.1970 C   0  0  0  0  0  0  0  0  0  0  0  0
  -22.1440  -12.8950   22.0960 N   0  0  0  0  0  0  0  0  0  0  0  0
  -22.3490  -14.6400   20.7230 O   0  0  0  0  0  0  0  0  0  0  0  0
  -22.5370  -12.0590   22.5010 H   0  0  0  0  0  0  0  0  0  0  0  0
  -21.2230  -13.1930   22.3830 H   0  0  0  0  0  0  0  0  0  0  0  0
  -25.3540  -15.2890   20.2260 N   0  0  0  0  0  0  0  0  0  0  0  0
  -24.5790  -15.9220   20.3840 H   0  0  0  0  0  0  0  0  0  0  0  0
  -26.1520  -15.7390   19.7990 H   0  0  0  0  0  0  0  0  0  0  0  0
  -30.9620  -18.4700   21.5710 C   0  0  0  0  0  2  0  0  0  0  0  0
  -31.8580  -17.4430   21.9560 O   0  0  0  0  0  0  0  0  0  0  0  0
  -32.2970  -17.7250   22.7540 H   0  0  0  0  0  0  0  0  0  0  0  0
  1 50  1  0
  1  6  1  0
  3  2  1  0
  3  1  1  0
  4  5  1  0
  5  3  1  0
  7  6  1  0
  7  8  1  0
  9  8  1  0
 10 21  2  0
 11  9  1  0
 11 16  1  0
 12 20  1  0
 12 22  1  0
 13 19  1  0
 13 15  1  0
 14 20  1  0
 15 16  2  0
 15 14  1  0
 17 11  2  0
 18 17  1  0
 18 13  2  0
 19 12  1  0
 20 10  1  0
 22 24  2  0
 23 22  1  0
 25 23  1  0
 26 35  2  0
 26 31  1  0
 27 23  1  0
 27 31  1  0
 28 27  1  0
 29 30  1  0
 29 28  1  0
 30 26  1  0
 31 32  2  0
 32 33  1  0
 34 33  2  0
 35 34  1  0
 36 10  1  0
 36 37  1  0
 36 46  1  0
 37 40  1  0
 38 42  1  0
 38 37  1  0
 39 38  2  0
 42 41  1  0
 44 45  1  0
 44 42  1  0
 44 43  1  0
 46 49  1  1
 46 47  1  0
 48 46  1  0
 50 60  1  0
 50 89  1  0
 51 60  1  0
 52 57  1  0
 53 54  1  0
 53 52  1  0
 55 54  1  0
 55 64  1  0
 55 56  1  0
 57 51  1  0
 57 56  1  0
 58 51  2  0
 60 59  1  0
 61 62  2  0
 62 81  1  0
 63 62  1  0
 63 66  1  0
 64 65  1  0
 64 61  1  0
 65 63  2  0
 66 67  1  0
 67 68  2  0
 69 72  1  0
 69 68  1  0
 70 69  2  0
 71 70  1  0
 71 66  2  0
 72 73  1  0
 73 74  1  0
 74 75  2  0
 76 75  1  0
 76 80  1  0
 77 76  2  0
 78 73  2  0
 78 77  1  0
 79 78  1  0
 81 82  1  0
 82 85  1  0
 82 84  1  0
 83 81  2  0
 86 87  1  0
 86 61  1  0
 88 86  1  0
 89 90  1  0
 90 91  1  0
M  ISO  4   8 101   9 101  51 100  60 100
M  END
>  <TORSDO>  (17) 
F 24

>  <SCORE>  (17) 
-13.847

>  <name>  (17) 
16

>  <ligand_id>  (17) 
16

>  <original_smiles>  (17) 
[H]OC([H])([H])C([H])(N(C(=O)N1C([H])([H])C([H])([H])C([H])([H])C([H])(n2nc(-c3c([H])c([H])c(Oc4c([H])c([H])c(F)c([H])c4F)c([H])c3[H])c(C(=O)N([H])[H])c2N([H])[H])C1([H])[H])C([H])([H])[H])C([H])(C([H])([H])C([H])([H])C([H])([H])Oc1c([H])c([H])c2c(c1[H])C([H])([H])N(C(=O)C([H])(N([H])C(=O)C([H])(N([H])C([H])([H])[H])C([H])([H])[H])C(C([H])([H])[H])(C([H])([H])[H])C([H])([H])[H])C([H])(C(=O)N([H])C1([H])c3c([H])c([H])c([H])c([H])c3C([H])([H])C([H])([H])C1([H])[H])C2([H])[H])C([H])(C([H])([H])[H])C([H])([H])C([H])([H])[H]

>  <smiles>  (17) 
[H]OC([H])([H])C([H])(N(C(=O)N1C([H])([H])C([H])([H])C([H])([H])C([H])(n2nc(-c3c([H])c([H])c(Oc4c([H])c([H])c(F)c([H])c4F)c([H])c3[H])c(C(=O)N([H])[H])c2N([H])[H])C1([H])[H])C([H])([H])[H])C([H])(C([H])([H])C([H])([H])C([H])([H])Oc1c([H])c([H])c2c(c1[H])C([H])([H])N(C(=O)C([H])(N([H])C(=O)C([H])(N([H])C([H])([H])[H])C([H])([H])[H])C(C([H])([H])[H])(C([H])([H])[H])C([H])([H])[H])C([H])(C(=O)N([H])C1([H])c3c([H])c([H])c([H])c([H])c3C([H])([H])C([H])([H])C1([H])[H])C2([H])[H])C([H])(C([H])([H])[H])C([H])([H])C([H])([H])[H]

$$$$
17:0:0
     RDKit          3D

 93101  0  0  1  0  0  0  0  0999 V2000
  -27.3180  -21.0550   20.7010 C   0  0  0  0  0  1  0  0  0  0  0  0
  -28.7360  -21.2010   20.1000 C   0  0  0  0  0  3  0  0  0  0  0  0
  -31.7850  -19.1310   21.4440 C   0  0  0  0  0  3  0  0  0  0  0  0
  -30.9120  -20.1770   21.0780 C   0  0  0  0  0  3  0  0  0  0  0  0
  -31.4490  -17.7810   21.2310 C   0  0  0  0  0  3  0  0  0  0  0  0
  -29.6620  -19.9290   20.4650 C   0  0  0  0  0  0  0  0  0  0  0  0
  -29.3550  -18.5130   20.2170 C   0  0  0  0  0  0  0  0  0  0  0  0
  -30.2330  -17.4160   20.6160 C   0  0  0  0  0  0  0  0  0  0  0  0
  -28.0850  -18.1280   19.4750 C   0  0  0  0  0  1  0  0  0  0  0  0
  -30.7000  -14.8540   20.2840 C   0  0  0  0  0  0  0  0  0  0  0  0
  -30.4760  -12.6040   19.2210 C   0  0  0  0  0  2  0  0  0  0  0  0
  -29.5000  -12.7020   18.0260 C   0  0  0  0  0  2  0  0  0  0  0  0
  -28.0410  -12.5290   18.4940 C   0  0  0  0  0  2  0  0  0  0  0  0
  -27.7040  -13.3920   19.7390 C   0  0  0  0  0  3  0  0  0  0  0  0
  -28.7950  -13.2700   20.8250 C   0  0  0  0  0  2  0  0  0  0  0  0
  -30.0730  -13.6330   20.2030 N   0  0  0  0  0  0  0  0  0  0  0  0
  -31.8830  -14.9550   19.9460 O   0  0  0  0  0  0  0  0  0  0  0  0
  -29.9040  -15.9720   20.4880 N   0  0  0  0  0  0  0  0  0  0  0  0
  -28.9240  -15.7540   20.5670 H   0  0  0  0  0  0  0  0  0  0  0  0
  -25.3390  -13.9690   20.5510 C   0  0  0  0  0  0  0  0  0  0  0  0
  -24.2830  -13.1870   20.9290 C   0  0  0  0  0  0  0  0  0  0  0  0
  -24.7430  -11.8370   20.8500 C   0  0  0  0  0  0  0  0  0  0  0  0
  -26.3750  -13.0950   20.2630 N   0  0  0  0  0  0  0  0  0  0  0  0
  -26.0260  -11.8060   20.5080 N   0  0  0  0  0  0  0  0  0  0  0  0
  -24.0190  -10.5710   21.0250 C   0  0  0  0  0  0  0  0  0  0  0  0
  -24.4490   -9.5960   21.9530 C   0  0  0  0  0  3  0  0  0  0  0  0
  -23.7240   -8.3960   22.1180 C   0  0  0  0  0  3  0  0  0  0  0  0
  -22.5560   -8.1620   21.3540 C   0  0  0  0  0  0  0  0  0  0  0  0
  -22.1470   -9.1240   20.4140 C   0  0  0  0  0  3  0  0  0  0  0  0
  -22.8710  -10.3160   20.2470 C   0  0  0  0  0  3  0  0  0  0  0  0
  -21.8050   -7.0140   21.4270 O   0  0  0  0  0  0  0  0  0  0  0  0
  -21.7190   -6.2820   22.5840 C   0  0  0  0  0  0  0  0  0  0  0  0
  -21.1930   -6.8290   23.7740 C   0  0  0  0  0  3  0  0  0  0  0  0
  -21.0600   -6.0210   24.9200 C   0  0  0  0  0  3  0  0  0  0  0  0
  -21.4420   -4.6680   24.8780 C   0  0  0  0  0  0  0  0  0  0  0  0
  -21.9610   -4.1190   23.6920 C   0  0  0  0  0  3  0  0  0  0  0  0
  -22.0960   -4.9250   22.5470 C   0  0  0  0  0  0  0  0  0  0  0  0
  -22.5770   -4.3860   21.4010 F   0  0  0  0  0  0  0  0  0  0  0  0
  -21.3060   -3.8890   25.9760 F   0  0  0  0  0  0  0  0  0  0  0  0
  -22.8950  -13.6580   21.2480 C   0  0  0  0  0  0  0  0  0  0  0  0
  -22.1870  -12.9340   22.1090 N   0  0  0  0  0  0  0  0  0  0  0  0
  -22.4470  -14.7000   20.7730 O   0  0  0  0  0  0  0  0  0  0  0  0
  -22.5630  -12.0880   22.5130 H   0  0  0  0  0  0  0  0  0  0  0  0
  -21.2570  -13.2270   22.3680 H   0  0  0  0  0  0  0  0  0  0  0  0
  -25.4960  -15.3450   20.4040 N   0  0  0  0  0  0  0  0  0  0  0  0
  -24.7210  -15.9830   20.5450 H   0  0  0  0  0  0  0  0  0  0  0  0
  -26.3180  -15.8010   20.0360 H   0  0  0  0  0  0  0  0  0  0  0  0
  -29.2260  -22.6110   20.4740 N   0  0  0  0  0  4  0  0  0  0  0  0
  -29.1380  -22.6790   21.4770 H   0  0  0  0  0  0  0  0  0  0  0  0
  -30.2150  -22.6510   20.2780 H   0  0  0  0  0  0  0  0  0  0  0  0
  -28.5900  -23.8720   19.8470 C   0  0  0  0  0  2  0  0  0  0  0  0
  -28.4600  -25.1940   20.7630 C   0  0  0  0  0  2  0  0  0  0  0  0
  -28.5130  -26.5880   20.2300 O   0  0  0  0  0  0  0  0  0  0  0  0
  -24.6440  -31.9430   23.2530 C   0  0  0  0  0  0  0  0  0  0  0  0
  -27.3690  -27.4010   20.2480 C   0  0  0  0  0  0  0  0  0  0  0  0
  -23.4860  -30.5140   21.6040 C   0  0  0  0  0  3  0  0  0  0  0  0
  -24.9790  -28.9740   20.2060 C   0  0  0  0  0  0  0  0  0  0  0  0
  -26.0240  -30.8710   21.4510 C   0  0  0  0  0  2  0  0  0  0  0  0
  -26.1330  -29.4900   20.8100 C   0  0  0  0  0  0  0  0  0  0  0  0
  -27.3360  -28.7190   20.8120 C   0  0  0  0  0  3  0  0  0  0  0  0
  -26.1910  -26.9310   19.6380 C   0  0  0  0  0  3  0  0  0  0  0  0
  -25.0120  -27.7010   19.6110 C   0  0  0  0  0  3  0  0  0  0  0  0
  -23.7290  -29.8300   20.2310 C   0  0  0  0  0  2  0  0  0  0  0  0
  -24.7370  -31.1290   22.1590 N   0  0  0  0  0  0  0  0  0  0  0  0
  -23.5480  -32.2050   23.7700 O   0  0  0  0  0  0  0  0  0  0  0  0
  -22.8280  -29.4950   22.5640 C   0  0  0  0  0  0  0  0  0  0  0  0
  -21.5040  -29.3030   22.4290 N   0  0  0  0  0  0  0  0  0  0  0  0
  -23.5090  -28.8790   23.3870 O   0  0  0  0  0  0  0  0  0  0  0  0
  -21.0130  -29.8530   21.7390 H   0  0  0  0  0  0  0  0  0  0  0  0
  -18.1320  -28.0950   22.9360 C   0  0  0  0  0  0  0  0  0  0  0  0
  -20.6920  -28.3560   23.1950 C   0  0  0  0  0  3  0  0  0  0  0  0
  -20.7940  -26.9310   22.6050 C   0  0  0  0  0  2  0  0  0  0  0  0
  -19.6860  -26.6140   21.5960 C   0  0  0  0  0  2  0  0  0  0  0  0
  -18.3070  -26.7530   22.2470 C   0  0  0  0  0  2  0  0  0  0  0  0
  -19.2520  -28.8530   23.3680 C   0  0  0  0  0  0  0  0  0  0  0  0
  -19.0350  -30.1090   23.9760 C   0  0  0  0  0  3  0  0  0  0  0  0
  -17.7300  -30.6050   24.1570 C   0  0  0  0  0  3  0  0  0  0  0  0
  -16.6240  -29.8430   23.7420 C   0  0  0  0  0  3  0  0  0  0  0  0
  -16.8260  -28.5910   23.1360 C   0  0  0  0  0  3  0  0  0  0  0  0
  -25.9070  -32.6000   23.8890 C   0  0  0  0  0  3  0  0  0  0  0  0
  -26.4080  -31.8550   25.1860 C   0  0  1  0  0  0  0  0  0  0  0  0
  -25.2970  -31.6140   26.2320 C   0  0  0  0  0  1  0  0  0  0  0  0
  -27.0240  -30.4830   24.8250 C   0  0  0  0  0  1  0  0  0  0  0  0
  -27.5300  -32.6800   25.8600 C   0  0  0  0  0  1  0  0  0  0  0  0
  -25.5730  -34.0000   24.1960 N   0  0  0  0  0  0  0  0  0  0  0  0
  -25.9150  -35.0480   23.4370 C   0  0  0  0  0  0  0  0  0  0  0  0
  -26.6120  -34.9430   22.4240 O   0  0  0  0  0  0  0  0  0  0  0  0
  -24.9570  -34.1590   24.9780 H   0  0  0  0  0  0  0  0  0  0  0  0
  -24.1970  -36.8320   23.0060 C   0  0  0  0  0  1  0  0  0  0  0  0
  -25.4030  -36.4350   23.8710 C   0  0  0  0  0  3  0  0  0  0  0  0
  -27.4870  -37.3410   24.7980 C   0  0  0  0  0  1  0  0  0  0  0  0
  -26.4340  -37.4920   23.7990 N   0  0  0  0  0  0  0  0  0  0  0  0
  -26.0160  -38.4110   23.9170 H   0  0  0  0  0  0  0  0  0  0  0  0
  2  6  1  0
  2 48  1  0
  2  1  1  0
  4  3  2  0
  5  3  1  0
  6  4  1  0
  7  6  2  0
  7  8  1  0
  8  5  2  0
  9  7  1  0
 10 18  1  0
 11 16  1  0
 12 13  1  0
 12 11  1  0
 14 13  1  0
 14 23  1  0
 14 15  1  0
 16 10  1  0
 16 15  1  0
 17 10  2  0
 18 19  1  0
 18  8  1  0
 20 21  2  0
 21 40  1  0
 22 21  1  0
 22 25  1  0
 23 24  1  0
 23 20  1  0
 24 22  2  0
 25 26  1  0
 26 27  2  0
 28 31  1  0
 28 27  1  0
 29 28  2  0
 30 29  1  0
 30 25  2  0
 31 32  1  0
 32 33  1  0
 33 34  2  0
 35 34  1  0
 35 39  1  0
 36 35  2  0
 37 32  2  0
 37 36  1  0
 38 37  1  0
 40 41  1  0
 41 44  1  0
 41 43  1  0
 42 40  2  0
 45 46  1  0
 45 20  1  0
 47 45  1  0
 48 49  1  0
 50 48  1  0
 51 48  1  0
 51 52  1  0
 53 55  1  0
 53 52  1  0
 54 65  2  0
 55 60  1  0
 56 64  1  0
 56 66  1  0
 57 63  1  0
 57 59  1  0
 58 64  1  0
 59 60  2  0
 59 58  1  0
 61 55  2  0
 62 61  1  0
 62 57  2  0
 63 56  1  0
 64 54  1  0
 66 68  2  0
 67 66  1  0
 69 67  1  0
 70 79  2  0
 70 75  1  0
 71 67  1  0
 71 75  1  0
 72 71  1  0
 73 74  1  0
 73 72  1  0
 74 70  1  0
 75 76  2  0
 76 77  1  0
 78 77  2  0
 79 78  1  0
 80 54  1  0
 80 85  1  0
 80 81  1  0
 81 84  1  1
 81 82  1  0
 83 81  1  0
 85 88  1  0
 86 90  1  0
 86 85  1  0
 87 86  2  0
 90 89  1  0
 92 90  1  0
 92 93  1  0
 92 91  1  0
M  ISO  4  10 100  18 100  52 101  53 101
M  END
>  <TORSDO>  (18) 
F 20

>  <SCORE>  (18) 
-13.639

>  <name>  (18) 
17

>  <ligand_id>  (18) 
17

>  <original_smiles>  (18) 
[H]c1c([H])c([H])c2c(c1[H])C([H])([H])C([H])([H])C([H])([H])C2([H])N([H])C(=O)C1([H])N(C(=O)C([H])(N([H])C(=O)C([H])(N([H])C([H])([H])[H])C([H])([H])[H])C(C([H])([H])[H])(C([H])([H])[H])C([H])([H])[H])C([H])([H])c2c([H])c(OC([H])([H])C([H])([H])[N+]([H])([H])C([H])(c3c([H])c([H])c([H])c(N([H])C(=O)N4C([H])([H])C([H])([H])C([H])([H])C([H])(n5nc(-c6c([H])c([H])c(Oc7c([H])c([H])c(F)c([H])c7F)c([H])c6[H])c(C(=O)N([H])[H])c5N([H])[H])C4([H])[H])c3C([H])([H])[H])C([H])([H])[H])c([H])c([H])c2C1([H])[H]

>  <smiles>  (18) 
[H]c1c([H])c([H])c2c(c1[H])C([H])([H])C([H])([H])C([H])([H])C2([H])N([H])C(=O)C1([H])N(C(=O)C([H])(N([H])C(=O)C([H])(N([H])C([H])([H])[H])C([H])([H])[H])C(C([H])([H])[H])(C([H])([H])[H])C([H])([H])[H])C([H])([H])c2c([H])c(OC([H])([H])C([H])([H])[N+]([H])([H])C([H])(c3c([H])c([H])c([H])c(N([H])C(=O)N4C([H])([H])C([H])([H])C([H])([H])C([H])(n5nc(-c6c([H])c([H])c(Oc7c([H])c([H])c(F)c([H])c7F)c([H])c6[H])c(C(=O)N([H])[H])c5N([H])[H])C4([H])[H])c3C([H])([H])[H])C([H])([H])[H])c([H])c([H])c2C1([H])[H]

$$$$
18:0:0
     RDKit          3D

 93100  0  0  1  0  0  0  0  0999 V2000
  -28.3490  -21.8330   20.1160 C   0  0  0  0  0  0  0  0  0  0  0  0
  -27.9990  -22.9310   20.8070 N   0  0  0  0  0  0  0  0  0  0  0  0
  -28.7550  -21.8590   18.9560 O   0  0  0  0  0  0  0  0  0  0  0  0
  -27.7350  -22.7540   21.7680 H   0  0  0  0  0  0  0  0  0  0  0  0
  -28.0270  -20.5080   20.8200 C   0  0  0  0  0  2  0  0  0  0  0  0
  -28.9740  -19.2760   20.6650 C   0  0  0  0  0  2  0  0  0  0  0  0
  -30.4240  -19.3830   21.2150 C   0  0  0  0  0  3  0  0  0  0  0  0
  -30.9050  -18.0550   21.6890 N   0  0  0  0  0  4  0  0  0  0  0  0
  -31.6570  -18.1850   22.3510 H   0  0  0  0  0  0  0  0  0  0  0  0
  -30.1450  -17.6310   22.1950 H   0  0  0  0  0  0  0  0  0  0  0  0
  -31.3550  -17.0340   20.7060 C   0  0  0  0  0  2  0  0  0  0  0  0
  -30.7860  -15.6610   21.1430 C   0  0  0  0  0  2  0  0  0  0  0  0
  -31.2950  -14.4580   20.3470 C   0  0  0  0  0  0  0  0  0  0  0  0
  -30.9040  -12.2380   19.3600 C   0  0  0  0  0  2  0  0  0  0  0  0
  -30.0050  -12.4070   18.1250 C   0  0  0  0  0  2  0  0  0  0  0  0
  -28.5210  -12.3030   18.5280 C   0  0  0  0  0  2  0  0  0  0  0  0
  -28.1660  -13.2790   19.6840 C   0  0  0  0  0  3  0  0  0  0  0  0
  -29.1880  -13.1540   20.8380 C   0  0  0  0  0  2  0  0  0  0  0  0
  -30.5530  -13.3170   20.2930 N   0  0  0  0  0  0  0  0  0  0  0  0
  -32.3650  -14.5860   19.7490 O   0  0  0  0  0  0  0  0  0  0  0  0
  -25.7980  -14.0300   20.3860 C   0  0  0  0  0  0  0  0  0  0  0  0
  -24.6860  -13.3120   20.7650 C   0  0  0  0  0  0  0  0  0  0  0  0
  -25.0750  -11.9420   20.7390 C   0  0  0  0  0  0  0  0  0  0  0  0
  -26.7900  -13.0870   20.1560 N   0  0  0  0  0  0  0  0  0  0  0  0
  -26.3590  -11.8280   20.4260 N   0  0  0  0  0  0  0  0  0  0  0  0
  -24.2800  -10.7180   20.9380 C   0  0  0  0  0  0  0  0  0  0  0  0
  -24.6480   -9.7480   21.8970 C   0  0  0  0  0  3  0  0  0  0  0  0
  -23.8590   -8.5920   22.0820 C   0  0  0  0  0  3  0  0  0  0  0  0
  -22.6870   -8.4000   21.3100 C   0  0  0  0  0  0  0  0  0  0  0  0
  -22.3400   -9.3580   20.3440 C   0  0  0  0  0  3  0  0  0  0  0  0
  -23.1290  -10.5060   20.1550 C   0  0  0  0  0  3  0  0  0  0  0  0
  -21.8770   -7.2980   21.4010 O   0  0  0  0  0  0  0  0  0  0  0  0
  -21.7490   -6.5940   22.5730 C   0  0  0  0  0  0  0  0  0  0  0  0
  -21.3140   -7.2070   23.7670 C   0  0  0  0  0  3  0  0  0  0  0  0
  -21.1300   -6.4320   24.9320 C   0  0  0  0  0  3  0  0  0  0  0  0
  -21.3690   -5.0450   24.8990 C   0  0  0  0  0  0  0  0  0  0  0  0
  -21.7980   -4.4310   23.7070 C   0  0  0  0  0  3  0  0  0  0  0  0
  -21.9830   -5.2050   22.5470 C   0  0  0  0  0  0  0  0  0  0  0  0
  -22.3740   -4.6040   21.3970 F   0  0  0  0  0  0  0  0  0  0  0  0
  -21.1860   -4.2980   26.0120 F   0  0  0  0  0  0  0  0  0  0  0  0
  -23.3170  -13.8680   21.0320 C   0  0  0  0  0  0  0  0  0  0  0  0
  -22.5530  -13.2220   21.9120 N   0  0  0  0  0  0  0  0  0  0  0  0
  -22.9270  -14.9040   20.4990 O   0  0  0  0  0  0  0  0  0  0  0  0
  -22.8740  -12.3810   22.3670 H   0  0  0  0  0  0  0  0  0  0  0  0
  -21.6330  -13.5760   22.1310 H   0  0  0  0  0  0  0  0  0  0  0  0
  -26.0280  -15.3860   20.2050 N   0  0  0  0  0  0  0  0  0  0  0  0
  -25.2950  -16.0750   20.3490 H   0  0  0  0  0  0  0  0  0  0  0  0
  -26.8770  -15.7840   19.8180 H   0  0  0  0  0  0  0  0  0  0  0  0
  -31.9090  -20.7600   22.8230 C   0  0  0  0  0  1  0  0  0  0  0  0
  -30.5020  -20.4150   22.3690 C   0  0  0  0  0  2  0  0  0  0  0  0
  -27.5620  -24.2330   20.2810 C   0  0  0  0  0  2  0  0  0  0  0  0
  -28.3690  -25.4390   20.8410 C   0  0  0  0  0  2  0  0  0  0  0  0
  -28.3300  -26.6630   20.0750 O   0  0  0  0  0  0  0  0  0  0  0  0
  -24.6080  -31.8960   23.2150 C   0  0  0  0  0  0  0  0  0  0  0  0
  -27.1700  -27.4060   20.1210 C   0  0  0  0  0  0  0  0  0  0  0  0
  -23.3700  -30.5040   21.5910 C   0  0  0  0  0  3  0  0  0  0  0  0
  -24.7930  -28.9500   20.1560 C   0  0  0  0  0  0  0  0  0  0  0  0
  -25.9060  -30.8230   21.3830 C   0  0  0  0  0  2  0  0  0  0  0  0
  -25.9630  -29.4530   20.7390 C   0  0  0  0  0  0  0  0  0  0  0  0
  -27.1530  -28.6880   20.7240 C   0  0  0  0  0  3  0  0  0  0  0  0
  -25.9840  -26.9290   19.5230 C   0  0  0  0  0  3  0  0  0  0  0  0
  -24.7970  -27.6850   19.5510 C   0  0  0  0  0  3  0  0  0  0  0  0
  -23.5620  -29.8300   20.2060 C   0  0  0  0  0  2  0  0  0  0  0  0
  -24.6460  -31.0940   22.1150 N   0  0  0  0  0  0  0  0  0  0  0  0
  -23.5360  -32.1750   23.7670 O   0  0  0  0  0  0  0  0  0  0  0  0
  -22.7290  -29.4800   22.5580 C   0  0  0  0  0  0  0  0  0  0  0  0
  -21.4030  -29.2980   22.4500 N   0  0  0  0  0  0  0  0  0  0  0  0
  -23.4220  -28.8530   23.3620 O   0  0  0  0  0  0  0  0  0  0  0  0
  -20.8980  -29.8730   21.7880 H   0  0  0  0  0  0  0  0  0  0  0  0
  -18.0460  -28.0600   22.9520 C   0  0  0  0  0  0  0  0  0  0  0  0
  -20.6020  -28.3500   23.2250 C   0  0  0  0  0  3  0  0  0  0  0  0
  -20.7210  -26.9190   22.6480 C   0  0  0  0  0  2  0  0  0  0  0  0
  -19.6250  -26.6050   21.6260 C   0  0  0  0  0  2  0  0  0  0  0  0
  -18.2410  -26.7130   22.2730 C   0  0  0  0  0  2  0  0  0  0  0  0
  -19.1550  -28.8370   23.3830 C   0  0  0  0  0  0  0  0  0  0  0  0
  -18.9220  -30.1050   23.9590 C   0  0  0  0  0  3  0  0  0  0  0  0
  -17.6120  -30.5960   24.1140 C   0  0  0  0  0  3  0  0  0  0  0  0
  -16.5170  -29.8160   23.7010 C   0  0  0  0  0  3  0  0  0  0  0  0
  -16.7350  -28.5480   23.1320 C   0  0  0  0  0  3  0  0  0  0  0  0
  -25.9060  -32.5190   23.8110 C   0  0  0  0  0  3  0  0  0  0  0  0
  -26.4560  -31.7370   25.0660 C   0  0  1  0  0  0  0  0  0  0  0  0
  -25.3890  -31.4820   26.1550 C   0  0  0  0  0  1  0  0  0  0  0  0
  -27.0390  -30.3650   24.6550 C   0  0  0  0  0  1  0  0  0  0  0  0
  -27.6170  -32.5330   25.7090 C   0  0  0  0  0  1  0  0  0  0  0  0
  -25.5990  -33.9130   24.1620 N   0  0  0  0  0  0  0  0  0  0  0  0
  -25.9170  -34.9770   23.4090 C   0  0  0  0  0  0  0  0  0  0  0  0
  -26.5670  -34.8850   22.3650 O   0  0  0  0  0  0  0  0  0  0  0  0
  -25.0260  -34.0630   24.9790 H   0  0  0  0  0  0  0  0  0  0  0  0
  -24.1780  -36.7660   23.1010 C   0  0  0  0  0  1  0  0  0  0  0  0
  -25.4320  -36.3580   23.8900 C   0  0  0  0  0  3  0  0  0  0  0  0
  -27.5780  -37.2350   24.6980 C   0  0  0  0  0  1  0  0  0  0  0  0
  -26.4600  -37.4140   23.7740 N   0  0  0  0  0  0  0  0  0  0  0  0
  -26.0570  -38.3320   23.9400 H   0  0  0  0  0  0  0  0  0  0  0  0
  1  2  1  0
  1  5  1  0
  2  4  1  0
  3  1  2  0
  6  5  1  0
  7  6  1  0
  7  8  1  0
  7 50  1  0
  8 10  1  0
  8  9  1  0
 11 12  1  0
 11  8  1  0
 13 12  1  0
 14 19  1  0
 15 16  1  0
 15 14  1  0
 17 16  1  0
 17 24  1  0
 17 18  1  0
 19 13  1  0
 19 18  1  0
 20 13  2  0
 21 22  2  0
 22 41  1  0
 23 22  1  0
 23 26  1  0
 24 21  1  0
 24 25  1  0
 25 23  2  0
 26 27  1  0
 27 28  2  0
 29 32  1  0
 29 28  1  0
 30 29  2  0
 31 30  1  0
 31 26  2  0
 32 33  1  0
 33 34  1  0
 34 35  2  0
 36 35  1  0
 36 40  1  0
 37 36  2  0
 38 33  2  0
 38 37  1  0
 39 38  1  0
 41 42  1  0
 42 45  1  0
 42 44  1  0
 43 41  2  0
 46 47  1  0
 46 21  1  0
 48 46  1  0
 50 49  1  0
 51  2  1  0
 51 52  1  0
 53 55  1  0
 53 52  1  0
 54 65  2  0
 55 60  1  0
 56 64  1  0
 56 66  1  0
 57 63  1  0
 57 59  1  0
 58 64  1  0
 59 58  1  0
 60 59  2  0
 61 62  1  0
 61 55  2  0
 62 57  2  0
 63 56  1  0
 64 54  1  0
 66 68  2  0
 67 66  1  0
 69 67  1  0
 70 79  2  0
 70 75  1  0
 71 67  1  0
 71 75  1  0
 72 71  1  0
 73 74  1  0
 73 72  1  0
 74 70  1  0
 75 76  2  0
 76 77  1  0
 78 77  2  0
 79 78  1  0
 80 54  1  0
 80 85  1  0
 80 81  1  0
 81 84  1  1
 81 82  1  0
 83 81  1  0
 85 88  1  0
 86 90  1  0
 86 85  1  0
 87 86  2  0
 90 89  1  0
 92 90  1  0
 92 93  1  0
 92 91  1  0
M  ISO  4  12 100  13 100  52 101  53 101
M  END
>  <TORSDO>  (19) 
F 25

>  <SCORE>  (19) 
-11.932

>  <name>  (19) 
18

>  <ligand_id>  (19) 
18

>  <original_smiles>  (19) 
[H]c1c([H])c([H])c2c(c1[H])C([H])([H])C([H])([H])C([H])([H])C2([H])N([H])C(=O)C1([H])N(C(=O)C([H])(N([H])C(=O)C([H])(N([H])C([H])([H])[H])C([H])([H])[H])C(C([H])([H])[H])(C([H])([H])[H])C([H])([H])[H])C([H])([H])c2c([H])c(OC([H])([H])C([H])([H])N([H])C(=O)C([H])([H])C([H])([H])C([H])(C([H])([H])C([H])([H])[H])[N+]([H])([H])C([H])([H])C([H])([H])C(=O)N3C([H])([H])C([H])([H])C([H])([H])C([H])(n4nc(-c5c([H])c([H])c(Oc6c([H])c([H])c(F)c([H])c6F)c([H])c5[H])c(C(=O)N([H])[H])c4N([H])[H])C3([H])[H])c([H])c([H])c2C1([H])[H]

>  <smiles>  (19) 
[H]c1c([H])c([H])c2c(c1[H])C([H])([H])C([H])([H])C([H])([H])C2([H])N([H])C(=O)C1([H])N(C(=O)C([H])(N([H])C(=O)C([H])(N([H])C([H])([H])[H])C([H])([H])[H])C(C([H])([H])[H])(C([H])([H])[H])C([H])([H])[H])C([H])([H])c2c([H])c(OC([H])([H])C([H])([H])N([H])C(=O)C([H])([H])C([H])([H])C([H])(C([H])([H])C([H])([H])[H])[N+]([H])([H])C([H])([H])C([H])([H])C(=O)N3C([H])([H])C([H])([H])C([H])([H])C([H])(n4nc(-c5c([H])c([H])c(Oc6c([H])c([H])c(F)c([H])c6F)c([H])c5[H])c(C(=O)N([H])[H])c4N([H])[H])C3([H])[H])c([H])c([H])c2C1([H])[H]

$$$$
19:0:0
     RDKit          3D

 91 98  0  0  1  0  0  0  0  0999 V2000
  -29.1700  -22.6620   19.7870 N   0  0  0  0  0  4  0  0  0  0  0  0
  -30.1210  -22.9910   19.8610 H   0  0  0  0  0  0  0  0  0  0  0  0
  -29.1010  -22.2650   18.8630 H   0  0  0  0  0  0  0  0  0  0  0  0
  -27.5500  -21.1740   21.1220 C   0  0  0  0  0  1  0  0  0  0  0  0
  -29.0120  -21.4660   20.7310 C   0  0  0  0  0  3  0  0  0  0  0  0
  -29.9410  -20.1450   20.4610 C   0  0  0  0  0  2  0  0  0  0  0  0
  -29.4500  -18.7490   20.0910 N   0  0  0  0  0  0  0  0  0  0  0  0
  -30.1230  -19.0990   17.6680 C   0  0  0  0  0  1  0  0  0  0  0  0
  -27.6910  -19.1890   18.3670 C   0  0  0  0  0  1  0  0  0  0  0  0
  -29.0670  -18.5920   18.6710 C   0  0  0  0  0  3  0  0  0  0  0  0
  -30.3940  -17.6010   20.4440 C   0  0  0  0  0  2  0  0  0  0  0  0
  -29.8180  -16.1020   20.6430 C   0  0  0  0  0  2  0  0  0  0  0  0
  -30.6740  -14.7960   20.2720 C   0  0  0  0  0  0  0  0  0  0  0  0
  -30.4900  -12.5330   19.2200 C   0  0  0  0  0  2  0  0  0  0  0  0
  -29.5390  -12.6460   18.0050 C   0  0  0  0  0  2  0  0  0  0  0  0
  -28.0690  -12.4750   18.4390 C   0  0  0  0  0  2  0  0  0  0  0  0
  -27.7120  -13.3440   19.6720 C   0  0  0  0  0  3  0  0  0  0  0  0
  -28.7760  -13.2150   20.7820 C   0  0  0  0  0  2  0  0  0  0  0  0
  -30.0800  -13.5570   20.2040 N   0  0  0  0  0  0  0  0  0  0  0  0
  -31.8430  -14.9300   19.8960 O   0  0  0  0  0  0  0  0  0  0  0  0
  -25.3280  -13.9520   20.4030 C   0  0  0  0  0  0  0  0  0  0  0  0
  -24.2620  -13.1830   20.7850 C   0  0  0  0  0  0  0  0  0  0  0  0
  -24.7250  -11.8310   20.7670 C   0  0  0  0  0  0  0  0  0  0  0  0
  -26.3680  -13.0670   20.1690 N   0  0  0  0  0  0  0  0  0  0  0  0
  -26.0130  -11.7880   20.4530 N   0  0  0  0  0  0  0  0  0  0  0  0
  -23.9990  -10.5720   20.9740 C   0  0  0  0  0  0  0  0  0  0  0  0
  -24.4330   -9.6150   21.9170 C   0  0  0  0  0  3  0  0  0  0  0  0
  -23.7060   -8.4190   22.1100 C   0  0  0  0  0  3  0  0  0  0  0  0
  -22.5320   -8.1730   21.3580 C   0  0  0  0  0  0  0  0  0  0  0  0
  -22.1180   -9.1190   20.4040 C   0  0  0  0  0  3  0  0  0  0  0  0
  -22.8440  -10.3060   20.2100 C   0  0  0  0  0  3  0  0  0  0  0  0
  -21.7780   -7.0290   21.4600 O   0  0  0  0  0  0  0  0  0  0  0  0
  -21.7330   -6.2980   22.6200 C   0  0  0  0  0  0  0  0  0  0  0  0
  -21.3010   -6.8620   23.8390 C   0  0  0  0  0  3  0  0  0  0  0  0
  -21.2020   -6.0570   24.9910 C   0  0  0  0  0  3  0  0  0  0  0  0
  -21.5250   -4.6890   24.9250 C   0  0  0  0  0  0  0  0  0  0  0  0
  -21.9520   -4.1230   23.7100 C   0  0  0  0  0  3  0  0  0  0  0  0
  -22.0510   -4.9260   22.5590 C   0  0  0  0  0  0  0  0  0  0  0  0
  -22.4420   -4.3720   21.3860 F   0  0  0  0  0  0  0  0  0  0  0  0
  -21.4240   -3.9120   26.0290 F   0  0  0  0  0  0  0  0  0  0  0  0
  -22.8650  -13.6630   21.0580 C   0  0  0  0  0  0  0  0  0  0  0  0
  -22.1410  -12.9760   21.9340 N   0  0  0  0  0  0  0  0  0  0  0  0
  -22.4260  -14.6830   20.5280 O   0  0  0  0  0  0  0  0  0  0  0  0
  -22.5090  -12.1510   22.3820 H   0  0  0  0  0  0  0  0  0  0  0  0
  -21.2040  -13.2810   22.1580 H   0  0  0  0  0  0  0  0  0  0  0  0
  -25.4920  -15.3210   20.2170 N   0  0  0  0  0  0  0  0  0  0  0  0
  -24.7280  -15.9770   20.3370 H   0  0  0  0  0  0  0  0  0  0  0  0
  -26.3460  -15.7630   19.9020 H   0  0  0  0  0  0  0  0  0  0  0  0
  -28.2280  -23.8840   19.7540 C   0  0  0  0  0  2  0  0  0  0  0  0
  -28.4990  -25.1750   20.6660 C   0  0  0  0  0  2  0  0  0  0  0  0
  -28.4450  -26.5640   20.1220 O   0  0  0  0  0  0  0  0  0  0  0  0
  -24.6020  -31.8610   23.2340 C   0  0  0  0  0  0  0  0  0  0  0  0
  -27.2830  -27.3480   20.1710 C   0  0  0  0  0  0  0  0  0  0  0  0
  -23.4190  -30.4600   21.5780 C   0  0  0  0  0  3  0  0  0  0  0  0
  -24.8930  -28.9230   20.1560 C   0  0  0  0  0  0  0  0  0  0  0  0
  -25.9520  -30.8110   21.4020 C   0  0  0  0  0  2  0  0  0  0  0  0
  -26.0530  -29.4330   20.7550 C   0  0  0  0  0  0  0  0  0  0  0  0
  -27.2510  -28.6590   20.7430 C   0  0  0  0  0  3  0  0  0  0  0  0
  -26.0990  -26.8780   19.5660 C   0  0  0  0  0  3  0  0  0  0  0  0
  -24.9180  -27.6530   19.5520 C   0  0  0  0  0  3  0  0  0  0  0  0
  -23.6460  -29.7880   20.1980 C   0  0  0  0  0  2  0  0  0  0  0  0
  -24.6760  -31.0620   22.1290 N   0  0  0  0  0  0  0  0  0  0  0  0
  -23.5140  -32.1220   23.7680 O   0  0  0  0  0  0  0  0  0  0  0  0
  -22.7620  -29.4330   22.5310 C   0  0  0  0  0  0  0  0  0  0  0  0
  -21.4430  -29.2270   22.3830 N   0  0  0  0  0  0  0  0  0  0  0  0
  -23.4410  -28.8230   23.3620 O   0  0  0  0  0  0  0  0  0  0  0  0
  -20.9540  -29.7730   21.6870 H   0  0  0  0  0  0  0  0  0  0  0  0
  -18.0900  -27.9380   22.8090 C   0  0  0  0  0  0  0  0  0  0  0  0
  -20.6320  -28.2720   23.1400 C   0  0  0  0  0  3  0  0  0  0  0  0
  -20.7890  -26.8400   22.5780 C   0  0  0  0  0  2  0  0  0  0  0  0
  -19.7230  -26.4790   21.5390 C   0  0  0  0  0  2  0  0  0  0  0  0
  -18.3220  -26.5890   22.1470 C   0  0  0  0  0  2  0  0  0  0  0  0
  -19.1760  -28.7350   23.2600 C   0  0  0  0  0  0  0  0  0  0  0  0
  -18.9060  -29.9940   23.8380 C   0  0  0  0  0  3  0  0  0  0  0  0
  -17.5850  -30.4590   23.9660 C   0  0  0  0  0  3  0  0  0  0  0  0
  -16.5120  -29.6610   23.5300 C   0  0  0  0  0  3  0  0  0  0  0  0
  -16.7660  -28.4020   22.9580 C   0  0  0  0  0  3  0  0  0  0  0  0
  -25.8760  -32.5020   23.8680 C   0  0  0  0  0  3  0  0  0  0  0  0
  -25.5580  -33.9000   24.1880 N   0  0  0  0  0  0  0  0  0  0  0  0
  -25.8980  -34.9520   23.4300 C   0  0  0  0  0  0  0  0  0  0  0  0
  -26.5810  -34.8460   22.4070 O   0  0  0  0  0  0  0  0  0  0  0  0
  -24.9520  -34.0570   24.9800 H   0  0  0  0  0  0  0  0  0  0  0  0
  -24.1750  -36.7430   23.0420 C   0  0  0  0  0  1  0  0  0  0  0  0
  -25.4020  -36.3410   23.8750 C   0  0  0  0  0  3  0  0  0  0  0  0
  -27.5210  -37.2320   24.7400 C   0  0  0  0  0  1  0  0  0  0  0  0
  -26.4360  -37.3940   23.7750 N   0  0  0  0  0  0  0  0  0  0  0  0
  -26.0270  -38.3140   23.9110 H   0  0  0  0  0  0  0  0  0  0  0  0
  -26.3800  -31.7390   25.1550 C   0  0  1  0  0  0  0  0  0  0  0  0
  -25.2760  -31.5040   26.2120 C   0  0  0  0  0  1  0  0  0  0  0  0
  -26.9720  -30.3610   24.7770 C   0  0  0  0  0  1  0  0  0  0  0  0
  -27.5220  -32.5400   25.8250 C   0  0  0  0  0  1  0  0  0  0  0  0
  1  2  1  0
  1  5  1  0
  3  1  1  0
  5  4  1  0
  6  5  1  0
  7 11  1  0
  7  6  1  0
  8 10  1  0
  9 10  1  0
 10  7  1  0
 11 12  1  0
 13 12  1  0
 14 19  1  0
 15 16  1  0
 15 14  1  0
 17 16  1  0
 17 24  1  0
 17 18  1  0
 19 13  1  0
 19 18  1  0
 20 13  2  0
 21 22  2  0
 22 41  1  0
 23 22  1  0
 23 26  1  0
 24 21  1  0
 24 25  1  0
 25 23  2  0
 26 27  1  0
 27 28  2  0
 29 32  1  0
 29 28  1  0
 30 29  2  0
 31 30  1  0
 31 26  2  0
 32 33  1  0
 33 34  1  0
 34 35  2  0
 36 35  1  0
 36 40  1  0
 37 36  2  0
 38 33  2  0
 38 37  1  0
 39 38  1  0
 41 42  1  0
 42 45  1  0
 42 44  1  0
 43 41  2  0
 46 47  1  0
 46 21  1  0
 48 46  1  0
 49  1  1  0
 49 50  1  0
 51 53  1  0
 51 50  1  0
 52 63  2  0
 53 58  1  0
 54 62  1  0
 54 64  1  0
 55 61  1  0
 55 57  1  0
 56 62  1  0
 57 56  1  0
 58 57  2  0
 59 53  2  0
 60 59  1  0
 60 55  2  0
 61 54  1  0
 62 52  1  0
 64 66  2  0
 65 64  1  0
 67 65  1  0
 68 77  2  0
 68 73  1  0
 69 65  1  0
 69 73  1  0
 70 69  1  0
 71 72  1  0
 71 70  1  0
 72 68  1  0
 73 74  2  0
 74 75  1  0
 76 75  2  0
 77 76  1  0
 78 52  1  0
 78 79  1  0
 78 88  1  0
 79 82  1  0
 80 84  1  0
 80 79  1  0
 81 80  2  0
 84 83  1  0
 86 84  1  0
 86 87  1  0
 86 85  1  0
 88 91  1  1
 88 89  1  0
 90 88  1  0
M  ISO  4  12 100  13 100  50 101  51 101
M  END
>  <TORSDO>  (20) 
F 24

>  <SCORE>  (20) 
-12.134

>  <name>  (20) 
19

>  <ligand_id>  (20) 
19

>  <original_smiles>  (20) 
[H]c1c([H])c([H])c2c(c1[H])C([H])([H])C([H])([H])C([H])([H])C2([H])N([H])C(=O)C1([H])N(C(=O)C([H])(N([H])C(=O)C([H])(N([H])C([H])([H])[H])C([H])([H])[H])C(C([H])([H])[H])(C([H])([H])[H])C([H])([H])[H])C([H])([H])c2c([H])c(OC([H])([H])C([H])([H])[N+]([H])([H])C([H])(C([H])([H])[H])C([H])([H])N(C([H])([H])C([H])([H])C(=O)N3C([H])([H])C([H])([H])C([H])([H])C([H])(n4nc(-c5c([H])c([H])c(Oc6c([H])c([H])c(F)c([H])c6F)c([H])c5[H])c(C(=O)N([H])[H])c4N([H])[H])C3([H])[H])C([H])(C([H])([H])[H])C([H])([H])[H])c([H])c([H])c2C1([H])[H]

>  <smiles>  (20) 
[H]c1c([H])c([H])c2c(c1[H])C([H])([H])C([H])([H])C([H])([H])C2([H])N([H])C(=O)C1([H])N(C(=O)C([H])(N([H])C(=O)C([H])(N([H])C([H])([H])[H])C([H])([H])[H])C(C([H])([H])[H])(C([H])([H])[H])C([H])([H])[H])C([H])([H])c2c([H])c(OC([H])([H])C([H])([H])[N+]([H])([H])C([H])(C([H])([H])[H])C([H])([H])N(C([H])([H])C([H])([H])C(=O)N3C([H])([H])C([H])([H])C([H])([H])C([H])(n4nc(-c5c([H])c([H])c(Oc6c([H])c([H])c(F)c([H])c6F)c([H])c5[H])c(C(=O)N([H])[H])c4N([H])[H])C3([H])[H])C([H])(C([H])([H])[H])C([H])([H])[H])c([H])c([H])c2C1([H])[H]

$$$$
20:0:0
     RDKit          3D

 89 97  0  0  1  0  0  0  0  0999 V2000
  -31.0480  -15.4750   19.4470 C   0  0  0  0  0  0  0  0  0  0  0  0
  -31.0190  -12.9430   18.6700 C   0  0  0  0  0  2  0  0  0  0  0  0
  -29.9840  -12.5480   17.5810 C   0  0  0  0  0  2  0  0  0  0  0  0
  -28.6140  -12.2340   18.2050 C   0  0  0  0  0  2  0  0  0  0  0  0
  -28.2510  -13.2530   19.3100 C   0  0  0  0  0  3  0  0  0  0  0  0
  -29.4140  -13.5310   20.2830 C   0  0  0  0  0  2  0  0  0  0  0  0
  -30.4990  -14.1300   19.4770 N   0  0  0  0  0  0  0  0  0  0  0  0
  -32.2480  -15.4010   19.1170 O   0  0  0  0  0  0  0  0  0  0  0  0
  -29.9500  -17.8720   18.4450 C   0  0  0  0  0  2  0  0  0  0  0  0
  -30.7710  -19.7400   20.1690 C   0  0  0  0  0  2  0  0  0  0  0  0
  -30.6610  -18.0560   20.5580 C   0  0  0  0  0  3  0  0  0  0  0  0
  -29.1680  -19.4270   18.5800 C   0  0  0  0  0  3  0  0  0  0  0  0
  -27.6590  -19.1890   18.7360 C   0  0  0  0  0  1  0  0  0  0  0  0
  -30.3560  -16.8530   19.5730 N   0  0  0  0  0  0  0  0  0  0  0  0
  -29.5920  -20.5770   19.5700 N   0  0  2  0  0  4  0  0  0  0  0  0
  -28.9030  -20.5510   20.3060 H   0  0  0  0  0  0  0  0  0  0  0  0
  -26.0690  -13.8260   20.4790 C   0  0  0  0  0  0  0  0  0  0  0  0
  -25.0270  -13.0640   20.9280 C   0  0  0  0  0  0  0  0  0  0  0  0
  -25.4010  -11.7050   20.6950 C   0  0  0  0  0  0  0  0  0  0  0  0
  -27.0060  -12.9340   19.9910 N   0  0  0  0  0  0  0  0  0  0  0  0
  -26.6280  -11.6440   20.1870 N   0  0  0  0  0  0  0  0  0  0  0  0
  -24.6320  -10.4650   20.8720 C   0  0  0  0  0  0  0  0  0  0  0  0
  -25.0460   -9.4590   21.7730 C   0  0  0  0  0  3  0  0  0  0  0  0
  -24.2770   -8.2870   21.9410 C   0  0  0  0  0  3  0  0  0  0  0  0
  -23.0790   -8.1140   21.2090 C   0  0  0  0  0  0  0  0  0  0  0  0
  -22.6830   -9.1070   20.2960 C   0  0  0  0  0  3  0  0  0  0  0  0
  -23.4530  -10.2700   20.1260 C   0  0  0  0  0  3  0  0  0  0  0  0
  -22.2810   -6.9970   21.2880 O   0  0  0  0  0  0  0  0  0  0  0  0
  -22.0850   -6.3350   22.4730 C   0  0  0  0  0  0  0  0  0  0  0  0
  -21.4910   -6.9640   23.5900 C   0  0  0  0  0  3  0  0  0  0  0  0
  -21.2450   -6.2270   24.7650 C   0  0  0  0  0  3  0  0  0  0  0  0
  -21.5810   -4.8620   24.8240 C   0  0  0  0  0  0  0  0  0  0  0  0
  -22.1680   -4.2310   23.7110 C   0  0  0  0  0  3  0  0  0  0  0  0
  -22.4150   -4.9660   22.5380 C   0  0  0  0  0  0  0  0  0  0  0  0
  -22.9600   -4.3480   21.4630 F   0  0  0  0  0  0  0  0  0  0  0  0
  -21.3390   -4.1510   25.9500 F   0  0  0  0  0  0  0  0  0  0  0  0
  -23.7160  -13.5780   21.4480 C   0  0  0  0  0  0  0  0  0  0  0  0
  -23.0790  -12.8340   22.3430 N   0  0  0  0  0  0  0  0  0  0  0  0
  -23.2740  -14.6700   21.0950 O   0  0  0  0  0  0  0  0  0  0  0  0
  -23.4530  -11.9470   22.6480 H   0  0  0  0  0  0  0  0  0  0  0  0
  -22.2020  -13.1540   22.7310 H   0  0  0  0  0  0  0  0  0  0  0  0
  -26.2900  -15.1990   20.4140 N   0  0  0  0  0  0  0  0  0  0  0  0
  -25.5930  -15.8720   20.7130 H   0  0  0  0  0  0  0  0  0  0  0  0
  -27.1140  -15.6300   20.0160 H   0  0  0  0  0  0  0  0  0  0  0  0
  -29.4930  -16.6090   22.4160 C   0  0  0  0  0  1  0  0  0  0  0  0
  -29.7720  -17.9910   21.8250 C   0  0  0  0  0  2  0  0  0  0  0  0
  -29.7100  -22.2830   19.2150 C   0  0  0  0  0  3  0  0  0  0  0  0
  -28.6670  -23.8550   19.3920 C   0  0  0  0  0  3  0  0  0  0  0  0
  -28.8730  -25.5730   19.3750 O   0  0  0  0  0  0  0  0  0  0  0  0
  -25.3690  -31.2970   23.1570 C   0  0  0  0  0  0  0  0  0  0  0  0
  -27.8900  -26.7430   19.5000 C   0  0  0  0  0  0  0  0  0  0  0  0
  -24.1860  -30.1710   21.3170 C   0  0  0  0  0  3  0  0  0  0  0  0
  -25.6340  -28.7410   19.7000 C   0  0  0  0  0  0  0  0  0  0  0  0
  -26.7650  -30.3200   21.2450 C   0  0  0  0  0  2  0  0  0  0  0  0
  -26.8230  -29.0050   20.3920 C   0  0  0  0  0  0  0  0  0  0  0  0
  -27.9400  -28.0370   20.2620 C   0  0  0  0  0  3  0  0  0  0  0  0
  -26.6700  -26.6740   18.7840 C   0  0  0  0  0  3  0  0  0  0  0  0
  -25.5930  -27.6030   18.8760 C   0  0  0  0  0  3  0  0  0  0  0  0
  -24.4350  -29.6830   19.8610 C   0  0  0  0  0  2  0  0  0  0  0  0
  -25.4630  -30.6180   21.9640 N   0  0  0  0  0  0  0  0  0  0  0  0
  -24.2740  -31.5290   23.6960 O   0  0  0  0  0  0  0  0  0  0  0  0
  -23.4530  -29.0660   22.1230 C   0  0  0  0  0  0  0  0  0  0  0  0
  -22.1170  -28.9620   21.9770 N   0  0  0  0  0  0  0  0  0  0  0  0
  -24.0940  -28.3050   22.8520 O   0  0  0  0  0  0  0  0  0  0  0  0
  -21.6510  -29.6280   21.3780 H   0  0  0  0  0  0  0  0  0  0  0  0
  -18.6920  -27.8190   22.3750 C   0  0  0  0  0  0  0  0  0  0  0  0
  -21.2690  -27.9370   22.5970 C   0  0  0  0  0  3  0  0  0  0  0  0
  -21.2910  -26.6260   21.7780 C   0  0  0  0  0  2  0  0  0  0  0  0
  -20.1520  -26.5320   20.7570 C   0  0  0  0  0  2  0  0  0  0  0  0
  -18.7930  -26.6100   21.4600 C   0  0  0  0  0  2  0  0  0  0  0  0
  -19.8540  -28.4510   22.8950 C   0  0  0  0  0  0  0  0  0  0  0  0
  -19.7020  -29.5890   23.7180 C   0  0  0  0  0  3  0  0  0  0  0  0
  -18.4240  -30.0950   24.0200 C   0  0  0  0  0  3  0  0  0  0  0  0
  -17.2770  -29.4590   23.5110 C   0  0  0  0  0  3  0  0  0  0  0  0
  -17.4130  -28.3220   22.6950 C   0  0  0  0  0  3  0  0  0  0  0  0
  -26.6340  -31.8270   23.8980 C   0  0  0  0  0  3  0  0  0  0  0  0
  -26.3290  -33.1740   24.4190 N   0  0  0  0  0  0  0  0  0  0  0  0
  -26.6690  -34.3250   23.8230 C   0  0  0  0  0  0  0  0  0  0  0  0
  -27.3310  -34.3650   22.7830 O   0  0  0  0  0  0  0  0  0  0  0  0
  -25.7450  -33.2160   25.2400 H   0  0  0  0  0  0  0  0  0  0  0  0
  -24.9530  -36.1690   23.7610 C   0  0  0  0  0  1  0  0  0  0  0  0
  -26.2030  -35.6410   24.4830 C   0  0  0  0  0  3  0  0  0  0  0  0
  -28.3510  -36.3980   25.4040 C   0  0  0  0  0  1  0  0  0  0  0  0
  -27.2430  -36.6940   24.5000 N   0  0  0  0  0  0  0  0  0  0  0  0
  -26.8440  -37.5890   24.7700 H   0  0  0  0  0  0  0  0  0  0  0  0
  -27.0960  -30.8880   25.0810 C   0  0  1  0  0  0  0  0  0  0  0  0
  -25.9690  -30.5450   26.0830 C   0  0  0  0  0  1  0  0  0  0  0  0
  -27.6610  -29.5550   24.5430 C   0  0  0  0  0  1  0  0  0  0  0  0
  -28.2440  -31.5630   25.8680 C   0  0  0  0  0  1  0  0  0  0  0  0
  1  7  1  0
  1 14  1  0
  2  7  1  0
  3  4  1  0
  3  2  1  0
  5  4  1  0
  5 20  1  0
  5  6  1  0
  7  6  1  0
  8  1  2  0
  9 12  1  0
  9 14  1  0
 10 11  1  0
 11 46  1  0
 12 13  1  0
 12 15  1  0
 14 11  1  0
 15 10  1  0
 15 16  1  1
 17 18  2  0
 18 37  1  0
 19 22  1  0
 19 18  1  0
 20 21  1  0
 20 17  1  0
 21 19  2  0
 22 23  1  0
 23 24  2  0
 25 28  1  0
 25 24  1  0
 26 25  2  0
 27 26  1  0
 27 22  2  0
 28 29  1  0
 29 34  2  0
 29 30  1  0
 30 31  2  0
 31 32  1  0
 32 36  1  0
 33 32  2  0
 34 33  1  0
 35 34  1  0
 37 38  1  0
 38 40  1  0
 38 41  1  0
 39 37  2  0
 42 17  1  0
 42 43  1  0
 44 42  1  0
 46 45  1  0
 47 48  2  0
 47 15  1  0
 49 48  1  0
 49 51  1  0
 50 61  2  0
 51 56  1  0
 52 60  1  0
 52 62  1  0
 53 59  1  0
 53 55  1  0
 54 60  1  0
 55 54  1  0
 56 55  2  0
 57 58  1  0
 57 51  2  0
 58 53  2  0
 59 52  1  0
 60 50  1  0
 62 64  2  0
 63 62  1  0
 65 63  1  0
 66 75  2  0
 66 71  1  0
 67 63  1  0
 67 71  1  0
 68 67  1  0
 69 70  1  0
 69 68  1  0
 70 66  1  0
 71 72  2  0
 72 73  1  0
 74 73  2  0
 75 74  1  0
 76 50  1  0
 76 77  1  0
 76 86  1  0
 77 80  1  0
 78 77  1  0
 78 82  1  0
 79 78  2  0
 82 81  1  0
 82 84  1  0
 84 85  1  0
 84 83  1  0
 86 89  1  1
 86 87  1  0
 88 86  1  0
M  ISO  4   1 100  14 100  48 101  49 101
M  END
>  <TORSDO>  (21) 
F 18

>  <SCORE>  (21) 
-10.846

>  <name>  (21) 
20

>  <ligand_id>  (21) 
20

>  <original_smiles>  (21) 
[H]c1c([H])c([H])c2c(c1[H])C([H])([H])C([H])([H])C([H])([H])C2([H])N([H])C(=O)C1([H])N(C(=O)C([H])(N([H])C(=O)C([H])(N([H])C([H])([H])[H])C([H])([H])[H])C(C([H])([H])[H])(C([H])([H])[H])C([H])([H])[H])C([H])([H])c2c([H])c(OC([H])([H])C([H])([H])[N+]3([H])C([H])([H])C([H])(C([H])([H])C([H])([H])[H])N(C(=O)N4C([H])([H])C([H])([H])C([H])([H])C([H])(n5nc(-c6c([H])c([H])c(Oc7c([H])c([H])c(F)c([H])c7F)c([H])c6[H])c(C(=O)N([H])[H])c5N([H])[H])C4([H])[H])C([H])([H])C3([H])C([H])([H])[H])c([H])c([H])c2C1([H])[H]

>  <smiles>  (21) 
[H]c1c([H])c([H])c2c(c1[H])C([H])([H])C([H])([H])C([H])([H])C2([H])N([H])C(=O)C1([H])N(C(=O)C([H])(N([H])C(=O)C([H])(N([H])C([H])([H])[H])C([H])([H])[H])C(C([H])([H])[H])(C([H])([H])[H])C([H])([H])[H])C([H])([H])c2c([H])c(OC([H])([H])C([H])([H])[N+]3([H])C([H])([H])C([H])(C([H])([H])C([H])([H])[H])N(C(=O)N4C([H])([H])C([H])([H])C([H])([H])C([H])(n5nc(-c6c([H])c([H])c(Oc7c([H])c([H])c(F)c([H])c7F)c([H])c6[H])c(C(=O)N([H])[H])c5N([H])[H])C4([H])[H])C([H])([H])C3([H])C([H])([H])[H])c([H])c([H])c2C1([H])[H]

$$$$
21:0:0
     RDKit          3D

 93100  0  0  1  0  0  0  0  0999 V2000
  -31.4070  -21.6090   18.9360 C   0  0  0  0  0  1  0  0  0  0  0  0
  -30.3940  -22.0880   19.9100 N   0  0  2  0  0  4  0  0  0  0  0  0
  -30.9190  -22.7060   20.5120 H   0  0  0  0  0  0  0  0  0  0  0  0
  -29.9610  -21.0050   20.9250 C   0  0  0  0  0  3  0  0  0  0  0  0
  -29.6790  -19.5310   20.4050 C   0  0  0  0  0  0  0  0  0  0  0  0
  -28.7020  -19.3240   19.6270 N   0  0  0  0  0  0  0  0  0  0  0  0
  -28.6280  -18.3510   19.3560 H   0  0  0  0  0  0  0  0  0  0  0  0
  -30.6010  -18.3160   20.8290 C   0  0  0  0  0  2  0  0  0  0  0  0
  -29.9450  -16.8630   20.9840 C   0  0  0  0  0  2  0  0  0  0  0  0
  -30.8410  -15.5660   20.7800 C   0  0  0  0  0  0  0  0  0  0  0  0
  -30.7660  -13.3330   19.6850 C   0  0  0  0  0  2  0  0  0  0  0  0
  -29.9000  -13.4580   18.4100 C   0  0  0  0  0  2  0  0  0  0  0  0
  -28.4090  -13.2430   18.7350 C   0  0  0  0  0  2  0  0  0  0  0  0
  -27.9420  -14.0800   19.9550 C   0  0  0  0  0  3  0  0  0  0  0  0
  -28.9290  -13.9540   21.1360 C   0  0  0  0  0  2  0  0  0  0  0  0
  -30.2680  -14.3240   20.6580 N   0  0  0  0  0  0  0  0  0  0  0  0
  -32.0380  -15.7200   20.5220 O   0  0  0  0  0  0  0  0  0  0  0  0
  -25.4980  -14.6080   20.5350 C   0  0  0  0  0  0  0  0  0  0  0  0
  -24.4290  -13.8030   20.8150 C   0  0  0  0  0  0  0  0  0  0  0  0
  -24.9250  -12.4640   20.7900 C   0  0  0  0  0  0  0  0  0  0  0  0
  -26.5760  -13.7570   20.3500 N   0  0  0  0  0  0  0  0  0  0  0  0
  -26.2330  -12.4610   20.5690 N   0  0  0  0  0  0  0  0  0  0  0  0
  -24.2180  -11.1810   20.9080 C   0  0  0  0  0  0  0  0  0  0  0  0
  -24.6260  -10.1950   21.8340 C   0  0  0  0  0  3  0  0  0  0  0  0
  -23.9210   -8.9780   21.9400 C   0  0  0  0  0  3  0  0  0  0  0  0
  -22.7950   -8.7360   21.1180 C   0  0  0  0  0  0  0  0  0  0  0  0
  -22.4070   -9.7100   20.1820 C   0  0  0  0  0  3  0  0  0  0  0  0
  -23.1120  -10.9210   20.0750 C   0  0  0  0  0  3  0  0  0  0  0  0
  -22.0640   -7.5740   21.1330 O   0  0  0  0  0  0  0  0  0  0  0  0
  -21.9740   -6.7950   22.2600 C   0  0  0  0  0  0  0  0  0  0  0  0
  -21.4970   -7.3100   23.4850 C   0  0  0  0  0  3  0  0  0  0  0  0
  -21.3550   -6.4590   24.5990 C   0  0  0  0  0  3  0  0  0  0  0  0
  -21.6800   -5.0930   24.4880 C   0  0  0  0  0  0  0  0  0  0  0  0
  -22.1520   -4.5780   23.2680 C   0  0  0  0  0  3  0  0  0  0  0  0
  -22.2960   -5.4260   22.1570 C   0  0  0  0  0  0  0  0  0  0  0  0
  -22.7290   -4.9200   20.9760 F   0  0  0  0  0  0  0  0  0  0  0  0
  -21.5380   -4.2730   25.5550 F   0  0  0  0  0  0  0  0  0  0  0  0
  -23.0040  -14.2410   21.0020 C   0  0  0  0  0  0  0  0  0  0  0  0
  -22.2430  -13.5170   21.8150 N   0  0  0  0  0  0  0  0  0  0  0  0
  -22.5720  -15.2600   20.4660 O   0  0  0  0  0  0  0  0  0  0  0  0
  -22.6050  -12.6930   22.2710 H   0  0  0  0  0  0  0  0  0  0  0  0
  -21.2850  -13.7930   21.9850 H   0  0  0  0  0  0  0  0  0  0  0  0
  -25.6410  -15.9860   20.3990 N   0  0  0  0  0  0  0  0  0  0  0  0
  -24.8560  -16.6230   20.4790 H   0  0  0  0  0  0  0  0  0  0  0  0
  -26.5030  -16.4510   20.1410 H   0  0  0  0  0  0  0  0  0  0  0  0
  -28.7960  -21.4480   21.8520 C   0  0  0  0  0  2  0  0  0  0  0  0
  -28.8300  -22.9220   22.3130 C   0  0  0  0  0  2  0  0  0  0  0  0
  -27.4200  -25.0210   22.7240 C   0  0  0  0  0  1  0  0  0  0  0  0
  -27.4170  -23.5090   22.4690 C   0  0  0  0  0  2  0  0  0  0  0  0
  -29.3880  -23.0420   19.2570 C   0  0  0  0  0  2  0  0  0  0  0  0
  -29.7420  -24.6080   19.2640 C   0  0  0  0  0  3  0  0  0  0  0  0
  -28.5580  -25.6110   18.9120 C   0  0  0  0  0  3  0  0  0  0  0  0
  -28.6570  -27.0570   19.2300 O   0  0  0  0  0  0  0  0  0  0  0  0
  -24.5480  -31.6310   23.0250 C   0  0  0  0  0  0  0  0  0  0  0  0
  -27.4600  -27.7930   19.3170 C   0  0  0  0  0  0  0  0  0  0  0  0
  -23.4210  -30.3570   21.2370 C   0  0  0  0  0  3  0  0  0  0  0  0
  -24.9560  -29.1570   19.5820 C   0  0  0  0  0  0  0  0  0  0  0  0
  -25.9130  -30.9310   21.0470 C   0  0  0  0  0  2  0  0  0  0  0  0
  -26.0950  -29.6670   20.2170 C   0  0  0  0  0  0  0  0  0  0  0  0
  -27.3480  -28.9970   20.0790 C   0  0  0  0  0  3  0  0  0  0  0  0
  -26.2900  -27.3410   18.6610 C   0  0  0  0  0  3  0  0  0  0  0  0
  -25.0550  -28.0010   18.7940 C   0  0  0  0  0  3  0  0  0  0  0  0
  -23.6470  -29.8930   19.7740 C   0  0  0  0  0  2  0  0  0  0  0  0
  -24.6460  -30.9850   21.8270 N   0  0  0  0  0  0  0  0  0  0  0  0
  -23.4630  -31.7350   23.6140 O   0  0  0  0  0  0  0  0  0  0  0  0
  -22.8820  -29.1660   22.0630 C   0  0  0  0  0  0  0  0  0  0  0  0
  -21.5790  -28.8710   21.9210 N   0  0  0  0  0  0  0  0  0  0  0  0
  -23.6340  -28.5160   22.7940 O   0  0  0  0  0  0  0  0  0  0  0  0
  -21.0260  -29.4550   21.3090 H   0  0  0  0  0  0  0  0  0  0  0  0
  -18.3550  -27.2680   22.2560 C   0  0  0  0  0  0  0  0  0  0  0  0
  -20.8720  -27.7660   22.5700 C   0  0  0  0  0  3  0  0  0  0  0  0
  -21.1230  -26.4330   21.8270 C   0  0  0  0  0  2  0  0  0  0  0  0
  -20.0530  -26.1170   20.7760 C   0  0  0  0  0  2  0  0  0  0  0  0
  -18.6690  -26.0360   21.4250 C   0  0  0  0  0  2  0  0  0  0  0  0
  -19.3880  -28.0900   22.7790 C   0  0  0  0  0  0  0  0  0  0  0  0
  -19.0400  -29.2430   23.5150 C   0  0  0  0  0  3  0  0  0  0  0  0
  -17.6910  -29.5780   23.7340 C   0  0  0  0  0  3  0  0  0  0  0  0
  -16.6720  -28.7530   23.2280 C   0  0  0  0  0  3  0  0  0  0  0  0
  -17.0040  -27.5990   22.4960 C   0  0  0  0  0  3  0  0  0  0  0  0
  -25.7900  -32.2910   23.7010 C   0  0  0  0  0  3  0  0  0  0  0  0
  -26.3520  -31.4570   24.9180 C   0  0  1  0  0  0  0  0  0  0  0  0
  -25.2760  -31.0780   25.9620 C   0  0  0  0  0  1  0  0  0  0  0  0
  -27.0110  -30.1470   24.4280 C   0  0  0  0  0  1  0  0  0  0  0  0
  -27.4540  -32.2630   25.6430 C   0  0  0  0  0  1  0  0  0  0  0  0
  -25.3960  -33.6380   24.1360 N   0  0  0  0  0  0  0  0  0  0  0  0
  -25.6520  -34.7640   23.4570 C   0  0  0  0  0  0  0  0  0  0  0  0
  -26.3150  -34.7820   22.4160 O   0  0  0  0  0  0  0  0  0  0  0  0
  -24.7990  -33.6930   24.9490 H   0  0  0  0  0  0  0  0  0  0  0  0
  -23.7930  -36.4500   23.2680 C   0  0  0  0  0  1  0  0  0  0  0  0
  -25.0800  -36.0790   24.0210 C   0  0  0  0  0  3  0  0  0  0  0  0
  -27.1700  -37.0540   24.8680 C   0  0  0  0  0  1  0  0  0  0  0  0
  -26.0340  -37.2090   23.9620 N   0  0  0  0  0  0  0  0  0  0  0  0
  -25.5670  -38.0840   24.1870 H   0  0  0  0  0  0  0  0  0  0  0  0
  1  2  1  0
  2  3  1  1
  2  4  1  0
  4 46  1  0
  5  8  1  0
  5  4  1  0
  6  5  2  0
  7  6  1  0
  8  9  1  0
 10  9  1  0
 11 16  1  0
 12 13  1  0
 12 11  1  0
 14 13  1  0
 14 21  1  0
 14 15  1  0
 16 10  1  0
 16 15  1  0
 17 10  2  0
 18 19  2  0
 19 38  1  0
 20 19  1  0
 20 23  1  0
 21 18  1  0
 21 22  1  0
 22 20  2  0
 23 24  1  0
 24 25  2  0
 26 29  1  0
 26 25  1  0
 27 26  2  0
 28 27  1  0
 28 23  2  0
 29 30  1  0
 30 31  1  0
 31 32  2  0
 33 32  1  0
 33 37  1  0
 34 33  2  0
 35 30  2  0
 35 34  1  0
 36 35  1  0
 38 39  1  0
 39 42  1  0
 39 41  1  0
 40 38  2  0
 43 44  1  0
 43 18  1  0
 45 43  1  0
 46 47  1  0
 47 49  1  0
 49 48  1  0
 50 51  1  0
 50  2  1  0
 52 53  1  0
 52 51  2  0
 53 55  1  0
 54 65  2  0
 55 60  1  0
 56 64  1  0
 56 66  1  0
 57 63  1  0
 57 59  1  0
 58 64  1  0
 59 58  1  0
 60 59  2  0
 61 62  1  0
 61 55  2  0
 62 57  2  0
 63 56  1  0
 64 54  1  0
 66 68  2  0
 67 66  1  0
 69 67  1  0
 70 79  2  0
 70 75  1  0
 71 67  1  0
 71 75  1  0
 72 71  1  0
 73 74  1  0
 73 72  1  0
 74 70  1  0
 75 76  2  0
 76 77  1  0
 78 77  2  0
 79 78  1  0
 80 54  1  0
 80 85  1  0
 80 81  1  0
 81 84  1  1
 81 82  1  0
 83 81  1  0
 85 88  1  0
 86 90  1  0
 86 85  1  0
 87 86  2  0
 90 89  1  0
 92 90  1  0
 92 93  1  0
 92 91  1  0
M  ISO  4   9 100  10 100  52 101  53 101
M  END
>  <TORSDO>  (22) 
F 26

>  <SCORE>  (22) 
-9.362

>  <name>  (22) 
21

>  <ligand_id>  (22) 
21

>  <original_smiles>  (22) 
[H]N=C(C([H])([H])C([H])([H])C(=O)N1C([H])([H])C([H])([H])C([H])([H])C([H])(n2nc(-c3c([H])c([H])c(Oc4c([H])c([H])c(F)c([H])c4F)c([H])c3[H])c(C(=O)N([H])[H])c2N([H])[H])C1([H])[H])C([H])(C([H])([H])C([H])([H])C([H])([H])C([H])([H])[H])[N+]([H])(C([H])([H])[H])C([H])([H])C([H])([H])C([H])([H])Oc1c([H])c([H])c2c(c1[H])C([H])([H])N(C(=O)C([H])(N([H])C(=O)C([H])(N([H])C([H])([H])[H])C([H])([H])[H])C(C([H])([H])[H])(C([H])([H])[H])C([H])([H])[H])C([H])(C(=O)N([H])C1([H])c3c([H])c([H])c([H])c([H])c3C([H])([H])C([H])([H])C1([H])[H])C2([H])[H]

>  <smiles>  (22) 
[H]N=C(C([H])([H])C([H])([H])C(=O)N1C([H])([H])C([H])([H])C([H])([H])C([H])(n2nc(-c3c([H])c([H])c(Oc4c([H])c([H])c(F)c([H])c4F)c([H])c3[H])c(C(=O)N([H])[H])c2N([H])[H])C1([H])[H])C([H])(C([H])([H])C([H])([H])C([H])([H])C([H])([H])[H])[N+]([H])(C([H])([H])[H])C([H])([H])C([H])([H])C([H])([H])Oc1c([H])c([H])c2c(c1[H])C([H])([H])N(C(=O)C([H])(N([H])C(=O)C([H])(N([H])C([H])([H])[H])C([H])([H])[H])C(C([H])([H])[H])(C([H])([H])[H])C([H])([H])[H])C([H])(C(=O)N([H])C1([H])c3c([H])c([H])c([H])c([H])c3C([H])([H])C([H])([H])C1([H])[H])C2([H])[H]

$$$$
22:0:0
     RDKit          3D

 98105  0  0  1  0  0  0  0  0999 V2000
  -28.7640  -23.8090   21.7980 N   0  0  0  0  0  4  0  0  0  0  0  0
  -29.5890  -24.0850   22.3040 H   0  0  0  0  0  0  0  0  0  0  0  0
  -28.0060  -23.8240   22.4650 H   0  0  0  0  0  0  0  0  0  0  0  0
  -27.8630  -21.4810   22.0720 C   0  0  0  0  0  1  0  0  0  0  0  0
  -28.9320  -22.3750   21.3810 C   0  0  0  0  0  3  0  0  0  0  0  0
  -30.3600  -21.7470   21.5650 C   0  0  0  0  0  2  0  0  0  0  0  0
  -30.4070  -20.3390   20.9070 C   0  0  0  0  0  2  0  0  0  0  0  0
  -31.3420  -19.2230   21.4670 C   0  0  0  0  0  2  0  0  0  0  0  0
  -30.8460  -16.6870   21.0890 C   0  0  0  0  0  0  0  0  0  0  0  0
  -30.9480  -16.3000   22.3780 N   0  0  0  0  0  4  0  0  0  0  0  0
  -31.0500  -17.9780   20.7190 N   0  0  0  0  0  0  0  0  0  0  0  0
  -30.7060  -15.3650   22.6860 H   0  0  0  0  0  0  0  0  0  0  0  0
  -31.2480  -16.9310   23.1070 H   0  0  0  0  0  0  0  0  0  0  0  0
  -30.9570  -18.1530   19.7260 H   0  0  0  0  0  0  0  0  0  0  0  0
  -30.3310  -15.7620   19.9840 C   0  0  0  0  0  2  0  0  0  0  0  0
  -31.1150  -14.4670   19.5880 C   0  0  0  0  0  0  0  0  0  0  0  0
  -30.7880  -12.1650   18.7190 C   0  0  0  0  0  2  0  0  0  0  0  0
  -29.7230  -12.1610   17.5980 C   0  0  0  0  0  2  0  0  0  0  0  0
  -28.2830  -12.1010   18.1530 C   0  0  0  0  0  2  0  0  0  0  0  0
  -28.0610  -13.1240   19.2990 C   0  0  0  0  0  3  0  0  0  0  0  0
  -29.2040  -13.0110   20.3370 C   0  0  0  0  0  2  0  0  0  0  0  0
  -30.4740  -13.2650   19.6440 N   0  0  0  0  0  0  0  0  0  0  0  0
  -32.2120  -14.5850   19.0250 O   0  0  0  0  0  0  0  0  0  0  0  0
  -25.8500  -13.9400   20.3540 C   0  0  0  0  0  0  0  0  0  0  0  0
  -24.7450  -13.2570   20.8080 C   0  0  0  0  0  0  0  0  0  0  0  0
  -25.0330  -11.8740   20.6130 C   0  0  0  0  0  0  0  0  0  0  0  0
  -26.7450  -12.9680   19.9220 N   0  0  0  0  0  0  0  0  0  0  0  0
  -26.2600  -11.7170   20.1290 N   0  0  0  0  0  0  0  0  0  0  0  0
  -24.1850  -10.6880   20.7970 C   0  0  0  0  0  0  0  0  0  0  0  0
  -24.6050   -9.6070   21.6010 C   0  0  0  0  0  3  0  0  0  0  0  0
  -23.7720   -8.4830   21.7830 C   0  0  0  0  0  3  0  0  0  0  0  0
  -22.5020   -8.4340   21.1610 C   0  0  0  0  0  0  0  0  0  0  0  0
  -22.0970   -9.5030   20.3440 C   0  0  0  0  0  3  0  0  0  0  0  0
  -22.9300  -10.6220   20.1590 C   0  0  0  0  0  3  0  0  0  0  0  0
  -21.6350   -7.3710   21.2610 O   0  0  0  0  0  0  0  0  0  0  0  0
  -21.5150   -6.6530   22.4210 C   0  0  0  0  0  0  0  0  0  0  0  0
  -21.2090   -7.2690   23.6530 C   0  0  0  0  0  3  0  0  0  0  0  0
  -21.0230   -6.4830   24.8070 C   0  0  0  0  0  3  0  0  0  0  0  0
  -21.1280   -5.0790   24.7260 C   0  0  0  0  0  0  0  0  0  0  0  0
  -21.4220   -4.4630   23.4960 C   0  0  0  0  0  3  0  0  0  0  0  0
  -21.6130   -5.2490   22.3470 C   0  0  0  0  0  0  0  0  0  0  0  0
  -21.8800   -4.6510   21.1610 F   0  0  0  0  0  0  0  0  0  0  0  0
  -20.9320   -4.3230   25.8300 F   0  0  0  0  0  0  0  0  0  0  0  0
  -23.4610  -13.8670   21.2910 C   0  0  0  0  0  0  0  0  0  0  0  0
  -22.8040  -13.2240   22.2550 N   0  0  0  0  0  0  0  0  0  0  0  0
  -23.0550  -14.9450   20.8560 O   0  0  0  0  0  0  0  0  0  0  0  0
  -23.1470  -12.3590   22.6390 H   0  0  0  0  0  0  0  0  0  0  0  0
  -21.9350  -13.6080   22.5990 H   0  0  0  0  0  0  0  0  0  0  0  0
  -26.1500  -15.2920   20.2560 N   0  0  0  0  0  0  0  0  0  0  0  0
  -25.4770  -16.0030   20.5200 H   0  0  0  0  0  0  0  0  0  0  0  0
  -26.9410  -15.6670   19.7510 H   0  0  0  0  0  0  0  0  0  0  0  0
  -28.4560  -24.8580   20.7400 C   0  0  0  0  0  3  0  0  0  0  0  0
  -26.9120  -25.0440   20.5100 C   0  0  0  0  0  2  0  0  0  0  0  0
  -24.5850  -24.4040   19.7130 C   0  0  0  0  0  1  0  0  0  0  0  0
  -26.6000  -23.9060   18.2310 C   0  0  0  0  0  1  0  0  0  0  0  0
  -26.0790  -24.0300   19.6790 C   0  0  0  0  0  3  0  0  0  0  0  0
  -29.1100  -26.2640   21.1370 C   0  0  0  0  0  2  0  0  0  0  0  0
  -29.2300  -27.3830   20.1770 O   0  0  0  0  0  0  0  0  0  0  0  0
  -24.6710  -31.7010   23.4580 C   0  0  0  0  0  0  0  0  0  0  0  0
  -28.0780  -28.1380   20.0400 C   0  0  0  0  0  0  0  0  0  0  0  0
  -23.7680  -30.3720   21.5770 C   0  0  0  0  0  3  0  0  0  0  0  0
  -25.5080  -29.3210   20.0270 C   0  0  0  0  0  0  0  0  0  0  0  0
  -26.2110  -31.1420   21.5810 C   0  0  0  0  0  2  0  0  0  0  0  0
  -26.5430  -29.9070   20.7690 C   0  0  0  0  0  0  0  0  0  0  0  0
  -27.8360  -29.3250   20.7790 C   0  0  0  0  0  3  0  0  0  0  0  0
  -27.0620  -27.6450   19.2050 C   0  0  0  0  0  3  0  0  0  0  0  0
  -25.7680  -28.1960   19.2320 C   0  0  0  0  0  3  0  0  0  0  0  0
  -24.1340  -29.9480   20.1260 C   0  0  0  0  0  2  0  0  0  0  0  0
  -24.8950  -31.0830   22.2640 N   0  0  0  0  0  0  0  0  0  0  0  0
  -23.5440  -31.7090   23.9740 O   0  0  0  0  0  0  0  0  0  0  0  0
  -23.2650  -29.1300   22.3530 C   0  0  0  0  0  0  0  0  0  0  0  0
  -22.0070  -28.7310   22.1010 N   0  0  0  0  0  0  0  0  0  0  0  0
  -24.0080  -28.5410   23.1420 O   0  0  0  0  0  0  0  0  0  0  0  0
  -21.4470  -29.2910   21.4760 H   0  0  0  0  0  0  0  0  0  0  0  0
  -18.9100  -26.8620   22.1800 C   0  0  0  0  0  0  0  0  0  0  0  0
  -21.3430  -27.5640   22.6810 C   0  0  0  0  0  3  0  0  0  0  0  0
  -21.7530  -26.2640   21.9490 C   0  0  0  0  0  2  0  0  0  0  0  0
  -20.8010  -25.8910   20.8110 C   0  0  0  0  0  2  0  0  0  0  0  0
  -19.3880  -25.6720   21.3620 C   0  0  0  0  0  2  0  0  0  0  0  0
  -19.8260  -27.7640   22.7820 C   0  0  0  0  0  0  0  0  0  0  0  0
  -19.3310  -28.8800   23.4920 C   0  0  0  0  0  3  0  0  0  0  0  0
  -17.9450  -29.1000   23.6040 C   0  0  0  0  0  3  0  0  0  0  0  0
  -17.0400  -28.1970   23.0240 C   0  0  0  0  0  3  0  0  0  0  0  0
  -17.5250  -27.0810   22.3210 C   0  0  0  0  0  3  0  0  0  0  0  0
  -25.8160  -32.4390   24.2220 C   0  0  0  0  0  3  0  0  0  0  0  0
  -26.1730  -31.7730   25.6070 C   0  0  1  0  0  0  0  0  0  0  0  0
  -24.9260  -31.4050   26.4440 C   0  0  0  0  0  1  0  0  0  0  0  0
  -26.9910  -30.4760   25.4030 C   0  0  0  0  0  1  0  0  0  0  0  0
  -27.0560  -32.7380   26.4350 C   0  0  0  0  0  1  0  0  0  0  0  0
  -25.3950  -33.8340   24.4100 N   0  0  0  0  0  0  0  0  0  0  0  0
  -25.7780  -34.8550   23.6300 C   0  0  0  0  0  0  0  0  0  0  0  0
  -26.5890  -34.7270   22.7060 O   0  0  0  0  0  0  0  0  0  0  0  0
  -24.6900  -34.0020   25.1130 H   0  0  0  0  0  0  0  0  0  0  0  0
  -24.0270  -36.5180   22.9150 C   0  0  0  0  0  1  0  0  0  0  0  0
  -25.1630  -36.2420   23.9140 C   0  0  0  0  0  3  0  0  0  0  0  0
  -27.1130  -37.2930   24.9670 C   0  0  0  0  0  1  0  0  0  0  0  0
  -26.1470  -37.3450   23.8740 N   0  0  0  0  0  0  0  0  0  0  0  0
  -25.6740  -38.2420   23.9200 H   0  0  0  0  0  0  0  0  0  0  0  0
  1  2  1  0
  1  3  1  0
  5  6  1  0
  5  1  1  0
  5  4  1  0
  7  8  1  0
  7  6  1  0
  9 10  2  0
 10 12  1  0
 10 13  1  0
 11  9  1  0
 11  8  1  0
 14 11  1  0
 15  9  1  0
 16 22  1  0
 16 15  1  0
 17 22  1  0
 18 19  1  0
 18 17  1  0
 20 19  1  0
 20 27  1  0
 20 21  1  0
 22 21  1  0
 23 16  2  0
 24 25  2  0
 25 44  1  0
 26 29  1  0
 26 25  1  0
 27 28  1  0
 27 24  1  0
 28 26  2  0
 29 30  1  0
 30 31  2  0
 32 35  1  0
 32 31  1  0
 33 32  2  0
 34 33  1  0
 34 29  2  0
 35 36  1  0
 36 37  1  0
 37 38  2  0
 39 38  1  0
 39 43  1  0
 40 39  2  0
 41 36  2  0
 41 40  1  0
 42 41  1  0
 44 45  1  0
 45 48  1  0
 45 47  1  0
 46 44  2  0
 49 24  1  0
 49 50  1  0
 51 49  1  0
 52 53  1  0
 52 57  1  0
 52  1  1  0
 55 56  1  0
 56 54  1  0
 56 53  1  0
 58 57  1  0
 59 70  2  0
 60 58  1  0
 60 65  1  0
 61 69  1  0
 61 71  1  0
 62 68  1  0
 62 64  1  0
 63 69  1  0
 64 65  2  0
 64 63  1  0
 66 67  1  0
 66 60  2  0
 67 62  2  0
 68 61  1  0
 69 59  1  0
 71 73  2  0
 72 71  1  0
 74 72  1  0
 75 84  2  0
 75 80  1  0
 76 72  1  0
 76 80  1  0
 77 76  1  0
 78 79  1  0
 78 77  1  0
 79 75  1  0
 80 81  2  0
 81 82  1  0
 83 82  2  0
 84 83  1  0
 85 59  1  0
 85 90  1  0
 85 86  1  0
 86 89  1  1
 86 87  1  0
 88 86  1  0
 90 93  1  0
 91 95  1  0
 91 90  1  0
 92 91  2  0
 95 94  1  0
 97 95  1  0
 97 98  1  0
 97 96  1  0
M  ISO  4  15 100  16 100  57 101  58 101
M  END
>  <TORSDO>  (23) 
F 26

>  <SCORE>  (23) 
-9.287

>  <name>  (23) 
22

>  <ligand_id>  (23) 
22

>  <original_smiles>  (23) 
[H]c1c([H])c([H])c2c(c1[H])C([H])([H])C([H])([H])C([H])([H])C2([H])N([H])C(=O)C1([H])N(C(=O)C([H])(N([H])C(=O)C([H])(N([H])C([H])([H])[H])C([H])([H])[H])C(C([H])([H])[H])(C([H])([H])[H])C([H])([H])[H])C([H])([H])c2c([H])c(OC([H])([H])C([H])(C([H])([H])C([H])(C([H])([H])[H])C([H])([H])[H])[N+]([H])([H])C([H])(C([H])([H])[H])C([H])([H])C([H])([H])C([H])([H])[N+]([H])=C(N([H])[H])C([H])([H])C(=O)N3C([H])([H])C([H])([H])C([H])([H])C([H])(n4nc(-c5c([H])c([H])c(Oc6c([H])c([H])c(F)c([H])c6F)c([H])c5[H])c(C(=O)N([H])[H])c4N([H])[H])C3([H])[H])c([H])c([H])c2C1([H])[H]

>  <smiles>  (23) 
[H]c1c([H])c([H])c2c(c1[H])C([H])([H])C([H])([H])C([H])([H])C2([H])N([H])C(=O)C1([H])N(C(=O)C([H])(N([H])C(=O)C([H])(N([H])C([H])([H])[H])C([H])([H])[H])C(C([H])([H])[H])(C([H])([H])[H])C([H])([H])[H])C([H])([H])c2c([H])c(OC([H])([H])C([H])(C([H])([H])C([H])(C([H])([H])[H])C([H])([H])[H])[N+]([H])([H])C([H])(C([H])([H])[H])C([H])([H])C([H])([H])C([H])([H])[N+]([H])=C(N([H])[H])C([H])([H])C(=O)N3C([H])([H])C([H])([H])C([H])([H])C([H])(n4nc(-c5c([H])c([H])c(Oc6c([H])c([H])c(F)c([H])c6F)c([H])c5[H])c(C(=O)N([H])[H])c4N([H])[H])C3([H])[H])c([H])c([H])c2C1([H])[H]

$$$$
23:0:0
     RDKit          3D

 91 99  0  0  1  0  0  0  0  0999 V2000
  -28.8940  -22.5780   20.0740 N   0  0  0  0  0  4  0  0  0  0  0  0
  -28.3590  -22.3370   19.2540 H   0  0  0  0  0  0  0  0  0  0  0  0
  -29.8550  -22.6680   19.7850 H   0  0  0  0  0  0  0  0  0  0  0  0
  -28.8210  -21.4040   21.0300 C   0  0  0  0  0  2  0  0  0  0  0  0
  -28.3830  -18.9460   20.1900 C   0  0  0  0  0  3  0  0  0  0  0  0
  -30.5840  -19.4590   20.9970 C   0  0  0  0  0  3  0  0  0  0  0  0
  -28.7110  -17.5510   20.1740 C   0  0  0  0  0  3  0  0  0  0  0  0
  -30.9080  -18.0660   20.9880 C   0  0  0  0  0  3  0  0  0  0  0  0
  -29.2930  -19.9400   20.6510 C   0  0  0  0  0  0  0  0  0  0  0  0
  -29.9690  -17.0610   20.6180 C   0  0  0  0  0  0  0  0  0  0  0  0
  -30.6940  -14.6680   20.0870 C   0  0  0  0  0  0  0  0  0  0  0  0
  -30.3460  -12.4890   18.9110 C   0  0  0  0  0  2  0  0  0  0  0  0
  -29.3280  -12.6490   17.7620 C   0  0  0  0  0  2  0  0  0  0  0  0
  -27.8870  -12.4760   18.2820 C   0  0  0  0  0  2  0  0  0  0  0  0
  -27.6150  -13.3050   19.5650 C   0  0  0  0  0  3  0  0  0  0  0  0
  -28.7390  -13.1160   20.6040 C   0  0  0  0  0  2  0  0  0  0  0  0
  -30.0140  -13.4760   19.9620 N   0  0  0  0  0  0  0  0  0  0  0  0
  -31.7490  -14.8550   19.4720 O   0  0  0  0  0  0  0  0  0  0  0  0
  -30.4980  -15.3930   22.3460 C   0  0  0  0  0  1  0  0  0  0  0  0
  -30.1910  -15.6380   20.9320 N   0  0  0  0  0  0  0  0  0  0  0  0
  -25.2710  -13.8860   20.4390 C   0  0  0  0  0  0  0  0  0  0  0  0
  -24.2290  -13.1070   20.8600 C   0  0  0  0  0  0  0  0  0  0  0  0
  -24.6860  -11.7560   20.7750 C   0  0  0  0  0  0  0  0  0  0  0  0
  -26.3000  -13.0120   20.1260 N   0  0  0  0  0  0  0  0  0  0  0  0
  -25.9560  -11.7240   20.3870 N   0  0  0  0  0  0  0  0  0  0  0  0
  -23.9720  -10.4900   20.9840 C   0  0  0  0  0  0  0  0  0  0  0  0
  -24.4380   -9.5200   21.8980 C   0  0  0  0  0  3  0  0  0  0  0  0
  -23.7210   -8.3200   22.0960 C   0  0  0  0  0  3  0  0  0  0  0  0
  -22.5230   -8.0830   21.3810 C   0  0  0  0  0  0  0  0  0  0  0  0
  -22.0740   -9.0420   20.4560 C   0  0  0  0  0  3  0  0  0  0  0  0
  -22.7940  -10.2320   20.2560 C   0  0  0  0  0  3  0  0  0  0  0  0
  -21.7760   -6.9350   21.4900 O   0  0  0  0  0  0  0  0  0  0  0  0
  -21.7390   -6.2070   22.6520 C   0  0  0  0  0  0  0  0  0  0  0  0
  -21.3340   -6.7800   23.8780 C   0  0  0  0  0  3  0  0  0  0  0  0
  -21.2420   -5.9780   25.0330 C   0  0  0  0  0  3  0  0  0  0  0  0
  -21.5480   -4.6050   24.9640 C   0  0  0  0  0  0  0  0  0  0  0  0
  -21.9480   -4.0320   23.7440 C   0  0  0  0  0  3  0  0  0  0  0  0
  -22.0390   -4.8310   22.5910 C   0  0  0  0  0  0  0  0  0  0  0  0
  -22.4020   -4.2690   21.4110 F   0  0  0  0  0  0  0  0  0  0  0  0
  -21.4540   -3.8320   26.0720 F   0  0  0  0  0  0  0  0  0  0  0  0
  -22.8520  -13.5780   21.2300 C   0  0  0  0  0  0  0  0  0  0  0  0
  -22.1870  -12.8730   22.1370 N   0  0  0  0  0  0  0  0  0  0  0  0
  -22.3790  -14.6070   20.7480 O   0  0  0  0  0  0  0  0  0  0  0  0
  -22.5860  -12.0410   22.5460 H   0  0  0  0  0  0  0  0  0  0  0  0
  -21.2650  -13.1670   22.4270 H   0  0  0  0  0  0  0  0  0  0  0  0
  -25.4240  -15.2590   20.2750 N   0  0  0  0  0  0  0  0  0  0  0  0
  -24.6670  -15.9140   20.4390 H   0  0  0  0  0  0  0  0  0  0  0  0
  -26.2580  -15.6960   19.9070 H   0  0  0  0  0  0  0  0  0  0  0  0
  -28.4070  -23.9230   20.6280 C   0  0  0  0  0  3  0  0  0  0  0  0
  -28.4800  -25.2000   19.6740 C   0  0  0  0  0  3  0  0  0  0  0  0
  -28.3590  -26.5580   20.2590 O   0  0  0  0  0  0  0  0  0  0  0  0
  -24.6210  -31.9210   23.2760 C   0  0  0  0  0  0  0  0  0  0  0  0
  -27.1960  -27.3420   20.2130 C   0  0  0  0  0  0  0  0  0  0  0  0
  -23.4150  -30.5070   21.6750 C   0  0  0  0  0  3  0  0  0  0  0  0
  -24.8240  -28.9400   20.2310 C   0  0  0  0  0  0  0  0  0  0  0  0
  -25.9350  -30.8270   21.4370 C   0  0  0  0  0  2  0  0  0  0  0  0
  -25.9990  -29.4420   20.8020 C   0  0  0  0  0  0  0  0  0  0  0  0
  -27.1830  -28.6520   20.7820 C   0  0  0  0  0  3  0  0  0  0  0  0
  -25.9920  -26.8810   19.6330 C   0  0  0  0  0  3  0  0  0  0  0  0
  -24.8210  -27.6660   19.6390 C   0  0  0  0  0  3  0  0  0  0  0  0
  -23.5910  -29.8140   20.2960 C   0  0  0  0  0  2  0  0  0  0  0  0
  -24.6790  -31.1030   22.1860 N   0  0  0  0  0  0  0  0  0  0  0  0
  -23.5410  -32.1990   23.8180 O   0  0  0  0  0  0  0  0  0  0  0  0
  -22.7680  -29.5080   22.6590 C   0  0  0  0  0  0  0  0  0  0  0  0
  -21.4470  -29.4390   22.5360 N   0  0  0  0  0  0  0  0  0  0  0  0
  -23.4300  -28.8240   23.4400 O   0  0  0  0  0  0  0  0  0  0  0  0
  -21.0520  -30.1300   21.9140 H   0  0  0  0  0  0  0  0  0  0  0  0
  -18.0200  -28.0210   23.0280 C   0  0  0  0  0  0  0  0  0  0  0  0
  -20.4950  -28.4360   22.9430 C   0  0  0  0  0  3  0  0  0  0  0  0
  -20.7560  -26.9380   22.7520 C   0  0  0  0  0  2  0  0  0  0  0  0
  -19.6430  -26.3630   21.8490 C   0  0  0  0  0  2  0  0  0  0  0  0
  -18.2320  -26.6340   22.4150 C   0  0  0  0  0  2  0  0  0  0  0  0
  -19.1120  -28.8470   23.3890 C   0  0  0  0  0  0  0  0  0  0  0  0
  -18.8880  -30.1140   23.9670 C   0  0  0  0  0  3  0  0  0  0  0  0
  -17.5720  -30.5810   24.1370 C   0  0  0  0  0  3  0  0  0  0  0  0
  -16.4850  -29.7790   23.7480 C   0  0  0  0  0  3  0  0  0  0  0  0
  -16.7070  -28.4980   23.2130 C   0  0  0  0  0  3  0  0  0  0  0  0
  -25.9060  -32.5600   23.8750 C   0  0  0  0  0  3  0  0  0  0  0  0
  -26.4390  -31.7910   25.1450 C   0  0  1  0  0  0  0  0  0  0  0  0
  -25.3610  -31.5490   26.2280 C   0  0  0  0  0  1  0  0  0  0  0  0
  -27.0220  -30.4150   24.7460 C   0  0  0  0  0  1  0  0  0  0  0  0
  -27.5950  -32.5910   25.7900 C   0  0  0  0  0  1  0  0  0  0  0  0
  -25.5910  -33.9570   24.2080 N   0  0  0  0  0  0  0  0  0  0  0  0
  -25.9050  -35.0090   23.4410 C   0  0  0  0  0  0  0  0  0  0  0  0
  -26.5590  -34.9070   22.4000 O   0  0  0  0  0  0  0  0  0  0  0  0
  -25.0100  -34.1090   25.0190 H   0  0  0  0  0  0  0  0  0  0  0  0
  -24.1650  -36.7950   23.1040 C   0  0  0  0  0  1  0  0  0  0  0  0
  -25.4170  -36.3960   23.9020 C   0  0  0  0  0  3  0  0  0  0  0  0
  -27.5580  -37.2870   24.7070 C   0  0  0  0  0  1  0  0  0  0  0  0
  -26.4440  -37.4530   23.7770 N   0  0  0  0  0  0  0  0  0  0  0  0
  -26.0360  -38.3710   23.9320 H   0  0  0  0  0  0  0  0  0  0  0  0
  1 49  1  0
  1  4  1  0
  2  1  1  0
  3  1  1  0
  5  9  1  0
  7  5  2  0
  7 10  1  0
  8  6  1  0
  9  6  2  0
  9  4  1  0
 10 20  1  0
 10  8  2  0
 11 20  1  0
 12 17  1  0
 13 14  1  0
 13 12  1  0
 15 14  1  0
 15 24  1  0
 15 16  1  0
 17 11  1  0
 17 16  1  0
 18 11  2  0
 20 19  1  0
 21 22  2  0
 22 41  1  0
 23 22  1  0
 23 26  1  0
 24 25  1  0
 24 21  1  0
 25 23  2  0
 26 27  1  0
 27 28  2  0
 29 32  1  0
 29 28  1  0
 30 29  2  0
 31 30  1  0
 31 26  2  0
 32 33  1  0
 33 34  1  0
 34 35  2  0
 36 35  1  0
 36 40  1  0
 37 36  2  0
 38 33  2  0
 38 37  1  0
 39 38  1  0
 41 42  1  0
 42 45  1  0
 42 44  1  0
 43 41  2  0
 46 21  1  0
 46 47  1  0
 48 46  1  0
 50 51  1  0
 50 49  2  0
 52 63  2  0
 53 51  1  0
 53 58  1  0
 54 62  1  0
 54 64  1  0
 55 61  1  0
 55 57  1  0
 56 62  1  0
 57 56  1  0
 58 57  2  0
 59 60  1  0
 59 53  2  0
 60 55  2  0
 61 54  1  0
 62 52  1  0
 64 66  2  0
 65 64  1  0
 67 65  1  0
 68 77  2  0
 68 73  1  0
 69 65  1  0
 69 73  1  0
 70 69  1  0
 71 72  1  0
 71 70  1  0
 72 68  1  0
 73 74  2  0
 74 75  1  0
 76 75  2  0
 77 76  1  0
 78 52  1  0
 78 83  1  0
 78 79  1  0
 79 82  1  1
 79 80  1  0
 81 79  1  0
 83 86  1  0
 84 88  1  0
 84 83  1  0
 85 84  2  0
 88 87  1  0
 90 88  1  0
 90 91  1  0
 90 89  1  0
M  ISO  4  11 100  20 100  50 101  51 101
M  END
>  <TORSDO>  (24) 
F 20

>  <SCORE>  (24) 
-13.306

>  <name>  (24) 
23

>  <ligand_id>  (24) 
23

>  <original_smiles>  (24) 
[H]c1c([H])c([H])c2c(c1[H])C([H])([H])C([H])([H])C([H])([H])C2([H])N([H])C(=O)C1([H])N(C(=O)C([H])(N([H])C(=O)C([H])(N([H])C([H])([H])[H])C([H])([H])[H])C(C([H])([H])[H])(C([H])([H])[H])C([H])([H])[H])C([H])([H])c2c([H])c(OC([H])([H])C([H])([H])[N+]([H])([H])C([H])([H])c3c([H])c([H])c(N(C(=O)N4C([H])([H])C([H])([H])C([H])([H])C([H])(n5nc(-c6c([H])c([H])c(Oc7c([H])c([H])c(F)c([H])c7F)c([H])c6[H])c(C(=O)N([H])[H])c5N([H])[H])C4([H])[H])C([H])([H])[H])c([H])c3[H])c([H])c([H])c2C1([H])[H]

>  <smiles>  (24) 
[H]c1c([H])c([H])c2c(c1[H])C([H])([H])C([H])([H])C([H])([H])C2([H])N([H])C(=O)C1([H])N(C(=O)C([H])(N([H])C(=O)C([H])(N([H])C([H])([H])[H])C([H])([H])[H])C(C([H])([H])[H])(C([H])([H])[H])C([H])([H])[H])C([H])([H])c2c([H])c(OC([H])([H])C([H])([H])[N+]([H])([H])C([H])([H])c3c([H])c([H])c(N(C(=O)N4C([H])([H])C([H])([H])C([H])([H])C([H])(n5nc(-c6c([H])c([H])c(Oc7c([H])c([H])c(F)c([H])c7F)c([H])c6[H])c(C(=O)N([H])[H])c5N([H])[H])C4([H])[H])C([H])([H])[H])c([H])c3[H])c([H])c([H])c2C1([H])[H]

$$$$
24:0:0
     RDKit          3D

 98106  0  0  1  0  0  0  0  0999 V2000
  -25.4740  -22.8320   21.7130 C   0  0  0  0  0  3  0  0  0  0  0  0
  -25.3610  -24.0960   22.3030 C   0  0  0  0  0  3  0  0  0  0  0  0
  -26.6730  -22.4770   21.0820 C   0  0  0  0  0  3  0  0  0  0  0  0
  -26.3880  -25.0500   22.1600 C   0  0  0  0  0  0  0  0  0  0  0  0
  -27.7730  -23.3690   21.0170 C   0  0  0  0  0  0  0  0  0  0  0  0
  -27.5750  -24.7510   21.4200 C   0  0  0  0  0  0  0  0  0  0  0  0
  -26.1420  -26.3750   22.8760 C   0  0  0  0  0  1  0  0  0  0  0  0
  -29.1020  -22.7160   20.5480 C   0  0  0  0  0  2  0  0  0  0  0  0
  -29.3370  -21.3560   21.1590 N   0  0  0  0  0  4  0  0  0  0  0  0
  -28.4370  -21.0380   21.4820 H   0  0  0  0  0  0  0  0  0  0  0  0
  -29.9070  -21.4850   21.9800 H   0  0  0  0  0  0  0  0  0  0  0  0
  -29.9440  -20.2820   20.2960 C   0  0  0  0  0  3  0  0  0  0  0  0
  -29.9540  -18.8200   20.9150 C   0  0  0  0  0  3  0  0  0  0  0  0
  -30.7290  -17.6870   20.0800 C   0  0  0  0  0  3  0  0  0  0  0  0
  -30.8050  -15.0440   19.9760 C   0  0  0  0  0  0  0  0  0  0  0  0
  -30.5380  -12.7430   19.0630 C   0  0  0  0  0  2  0  0  0  0  0  0
  -29.5460  -12.7090   17.8820 C   0  0  0  0  0  2  0  0  0  0  0  0
  -28.1170  -12.4510   18.3950 C   0  0  0  0  0  2  0  0  0  0  0  0
  -27.7390  -13.3980   19.5520 C   0  0  0  0  0  3  0  0  0  0  0  0
  -28.8570  -13.4820   20.6310 C   0  0  0  0  0  2  0  0  0  0  0  0
  -30.1190  -13.8410   19.9630 N   0  0  0  0  0  0  0  0  0  0  0  0
  -31.9940  -15.0260   19.6640 O   0  0  0  0  0  0  0  0  0  0  0  0
  -28.7960  -16.4010   19.5450 C   0  0  0  0  0  1  0  0  0  0  0  0
  -30.1420  -16.2720   20.1220 N   0  0  0  0  0  0  0  0  0  0  0  0
  -25.4080  -14.0090   20.4330 C   0  0  0  0  0  0  0  0  0  0  0  0
  -24.3640  -13.2290   20.8450 C   0  0  0  0  0  0  0  0  0  0  0  0
  -24.8260  -11.8810   20.7600 C   0  0  0  0  0  0  0  0  0  0  0  0
  -26.4340  -13.1250   20.1240 N   0  0  0  0  0  0  0  0  0  0  0  0
  -26.0950  -11.8430   20.3840 N   0  0  0  0  0  0  0  0  0  0  0  0
  -24.1150  -10.6170   20.9510 C   0  0  0  0  0  0  0  0  0  0  0  0
  -24.5450   -9.6730   21.9090 C   0  0  0  0  0  3  0  0  0  0  0  0
  -23.8360   -8.4640   22.0860 C   0  0  0  0  0  3  0  0  0  0  0  0
  -22.6860   -8.1970   21.3050 C   0  0  0  0  0  0  0  0  0  0  0  0
  -22.2800   -9.1320   20.3370 C   0  0  0  0  0  3  0  0  0  0  0  0
  -22.9880  -10.3310   20.1560 C   0  0  0  0  0  3  0  0  0  0  0  0
  -21.9500   -7.0420   21.3900 O   0  0  0  0  0  0  0  0  0  0  0  0
  -21.8200   -6.3630   22.5740 C   0  0  0  0  0  0  0  0  0  0  0  0
  -21.2710   -6.9680   23.7260 C   0  0  0  0  0  3  0  0  0  0  0  0
  -21.0940   -6.2120   24.9020 C   0  0  0  0  0  3  0  0  0  0  0  0
  -21.4520   -4.8490   24.9240 C   0  0  0  0  0  0  0  0  0  0  0  0
  -21.9900   -4.2430   23.7740 C   0  0  0  0  0  3  0  0  0  0  0  0
  -22.1710   -4.9980   22.6020 C   0  0  0  0  0  0  0  0  0  0  0  0
  -22.6710   -4.4060   21.4910 F   0  0  0  0  0  0  0  0  0  0  0  0
  -21.2740   -4.1180   26.0480 F   0  0  0  0  0  0  0  0  0  0  0  0
  -22.9820  -13.7000   21.1930 C   0  0  0  0  0  0  0  0  0  0  0  0
  -22.2910  -12.9780   22.0680 N   0  0  0  0  0  0  0  0  0  0  0  0
  -22.5260  -14.7410   20.7240 O   0  0  0  0  0  0  0  0  0  0  0  0
  -22.6700  -12.1340   22.4680 H   0  0  0  0  0  0  0  0  0  0  0  0
  -21.3660  -13.2790   22.3420 H   0  0  0  0  0  0  0  0  0  0  0  0
  -25.5540  -15.3850   20.2760 N   0  0  0  0  0  0  0  0  0  0  0  0
  -24.7950  -16.0330   20.4620 H   0  0  0  0  0  0  0  0  0  0  0  0
  -26.3810  -15.8350   19.9100 H   0  0  0  0  0  0  0  0  0  0  0  0
  -32.2540  -17.8310   20.3670 C   0  0  0  0  0  2  0  0  0  0  0  0
  -33.0410  -18.5060   19.2240 C   0  0  0  0  0  2  0  0  0  0  0  0
  -33.9830  -18.4670   16.8870 C   0  0  0  0  0  1  0  0  0  0  0  0
  -33.2460  -17.6590   17.9570 C   0  0  0  0  0  2  0  0  0  0  0  0
  -28.6130  -25.8890   21.1660 C   0  0  0  0  0  2  0  0  0  0  0  0
  -28.3660  -26.8680   20.1050 O   0  0  0  0  0  0  0  0  0  0  0  0
  -24.5340  -31.9770   23.3580 C   0  0  0  0  0  0  0  0  0  0  0  0
  -27.2390  -27.6700   20.1370 C   0  0  0  0  0  0  0  0  0  0  0  0
  -23.3630  -30.6550   21.6270 C   0  0  0  0  0  3  0  0  0  0  0  0
  -24.8530  -29.2080   20.1420 C   0  0  0  0  0  0  0  0  0  0  0  0
  -25.8910  -31.0360   21.4880 C   0  0  0  0  0  2  0  0  0  0  0  0
  -25.9990  -29.6950   20.7860 C   0  0  0  0  0  0  0  0  0  0  0  0
  -27.2000  -28.9370   20.7780 C   0  0  0  0  0  3  0  0  0  0  0  0
  -26.0890  -27.2260   19.4540 C   0  0  0  0  0  3  0  0  0  0  0  0
  -24.8950  -27.9760   19.4690 C   0  0  0  0  0  3  0  0  0  0  0  0
  -23.6000  -30.0560   20.2150 C   0  0  0  0  0  2  0  0  0  0  0  0
  -24.6130  -31.2370   22.2160 N   0  0  0  0  0  0  0  0  0  0  0  0
  -23.4450  -32.2080   23.9010 O   0  0  0  0  0  0  0  0  0  0  0  0
  -22.7100  -29.5760   22.5230 C   0  0  0  0  0  0  0  0  0  0  0  0
  -21.3870  -29.3910   22.3770 N   0  0  0  0  0  0  0  0  0  0  0  0
  -23.3910  -28.9130   23.3070 O   0  0  0  0  0  0  0  0  0  0  0  0
  -20.8930  -29.9760   21.7180 H   0  0  0  0  0  0  0  0  0  0  0  0
  -18.0150  -28.1670   22.8040 C   0  0  0  0  0  0  0  0  0  0  0  0
  -20.5730  -28.4060   23.0890 C   0  0  0  0  0  3  0  0  0  0  0  0
  -20.6780  -27.0120   22.4230 C   0  0  0  0  0  2  0  0  0  0  0  0
  -19.5720  -26.7480   21.3960 C   0  0  0  0  0  2  0  0  0  0  0  0
  -18.1900  -26.8600   22.0470 C   0  0  0  0  0  2  0  0  0  0  0  0
  -19.1350  -28.9010   23.2760 C   0  0  0  0  0  0  0  0  0  0  0  0
  -18.9180  -30.1310   23.9350 C   0  0  0  0  0  3  0  0  0  0  0  0
  -17.6140  -30.6220   24.1360 C   0  0  0  0  0  3  0  0  0  0  0  0
  -16.5080  -29.8830   23.6800 C   0  0  0  0  0  3  0  0  0  0  0  0
  -16.7090  -28.6560   23.0190 C   0  0  0  0  0  3  0  0  0  0  0  0
  -25.8070  -32.5890   24.0230 C   0  0  0  0  0  3  0  0  0  0  0  0
  -26.2810  -31.7990   25.3050 C   0  0  1  0  0  0  0  0  0  0  0  0
  -25.1530  -31.5640   26.3350 C   0  0  0  0  0  1  0  0  0  0  0  0
  -26.8630  -30.4180   24.9180 C   0  0  0  0  0  1  0  0  0  0  0  0
  -27.4160  -32.5760   26.0120 C   0  0  0  0  0  1  0  0  0  0  0  0
  -25.5020  -33.9870   24.3570 N   0  0  0  0  0  0  0  0  0  0  0  0
  -25.8880  -35.0440   23.6270 C   0  0  0  0  0  0  0  0  0  0  0  0
  -26.6010  -34.9440   22.6260 O   0  0  0  0  0  0  0  0  0  0  0  0
  -24.8770  -34.1480   25.1340 H   0  0  0  0  0  0  0  0  0  0  0  0
  -24.2040  -36.8670   23.2190 C   0  0  0  0  0  1  0  0  0  0  0  0
  -25.4000  -36.4330   24.0800 C   0  0  0  0  0  3  0  0  0  0  0  0
  -27.5060  -37.2730   25.0220 C   0  0  0  0  0  1  0  0  0  0  0  0
  -26.4510  -37.4720   24.0320 N   0  0  0  0  0  0  0  0  0  0  0  0
  -26.0510  -38.3940   24.1810 H   0  0  0  0  0  0  0  0  0  0  0  0
  1  2  1  0
  3  1  2  0
  4  2  2  0
  4  7  1  0
  5  3  1  0
  5  6  2  0
  6  4  1  0
  8  5  1  0
  8  9  1  0
  9 10  1  0
  9 11  1  0
 12 13  2  0
 12  9  1  0
 14 24  1  0
 14 53  1  0
 14 13  1  0
 15 24  1  0
 16 21  1  0
 17 18  1  0
 17 16  1  0
 19 18  1  0
 19 28  1  0
 19 20  1  0
 21 15  1  0
 21 20  1  0
 22 15  2  0
 23 24  1  0
 25 26  2  0
 26 45  1  0
 27 26  1  0
 27 30  1  0
 28 29  1  0
 28 25  1  0
 29 27  2  0
 30 31  1  0
 31 32  2  0
 33 36  1  0
 33 32  1  0
 34 33  2  0
 35 34  1  0
 35 30  2  0
 36 37  1  0
 37 42  2  0
 37 38  1  0
 38 39  2  0
 39 40  1  0
 40 44  1  0
 41 40  2  0
 42 41  1  0
 43 42  1  0
 45 46  1  0
 46 49  1  0
 46 48  1  0
 47 45  2  0
 50 25  1  0
 50 51  1  0
 52 50  1  0
 54 53  1  0
 55 56  1  0
 56 54  1  0
 57  6  1  0
 58 60  1  0
 58 57  1  0
 59 70  2  0
 60 65  1  0
 61 69  1  0
 61 71  1  0
 62 68  1  0
 62 64  1  0
 63 69  1  0
 64 63  1  0
 65 64  2  0
 66 67  1  0
 66 60  2  0
 67 62  2  0
 68 61  1  0
 69 59  1  0
 71 73  2  0
 72 71  1  0
 74 72  1  0
 75 84  2  0
 75 80  1  0
 76 72  1  0
 76 80  1  0
 77 76  1  0
 78 79  1  0
 78 77  1  0
 79 75  1  0
 80 81  2  0
 81 82  1  0
 83 82  2  0
 84 83  1  0
 85 59  1  0
 85 90  1  0
 85 86  1  0
 86 89  1  1
 86 87  1  0
 88 86  1  0
 90 93  1  0
 91 95  1  0
 91 90  1  0
 92 91  2  0
 95 94  1  0
 97 95  1  0
 97 98  1  0
 97 96  1  0
M  ISO  4  15 100  24 100  57 101  58 101
M  END
>  <TORSDO>  (25) 
F 25

>  <SCORE>  (25) 
-11.640

>  <name>  (25) 
24

>  <ligand_id>  (25) 
24

>  <original_smiles>  (25) 
[H]c1c([H])c([H])c2c(c1[H])C([H])([H])C([H])([H])C([H])([H])C2([H])N([H])C(=O)C1([H])N(C(=O)C([H])(N([H])C(=O)C([H])(N([H])C([H])([H])[H])C([H])([H])[H])C(C([H])([H])[H])(C([H])([H])[H])C([H])([H])[H])C([H])([H])c2c([H])c(OC([H])([H])c3c(C([H])([H])[H])c([H])c([H])c([H])c3C([H])([H])[N+]([H])([H])C([H])([H])C([H])([H])C([H])(N(C(=O)N3C([H])([H])C([H])([H])C([H])([H])C([H])(n4nc(-c5c([H])c([H])c(Oc6c([H])c([H])c(F)c([H])c6F)c([H])c5[H])c(C(=O)N([H])[H])c4N([H])[H])C3([H])[H])C([H])([H])[H])C([H])([H])C([H])([H])C([H])([H])C([H])([H])[H])c([H])c([H])c2C1([H])[H]

>  <smiles>  (25) 
[H]c1c([H])c([H])c2c(c1[H])C([H])([H])C([H])([H])C([H])([H])C2([H])N([H])C(=O)C1([H])N(C(=O)C([H])(N([H])C(=O)C([H])(N([H])C([H])([H])[H])C([H])([H])[H])C(C([H])([H])[H])(C([H])([H])[H])C([H])([H])[H])C([H])([H])c2c([H])c(OC([H])([H])c3c(C([H])([H])[H])c([H])c([H])c([H])c3C([H])([H])[N+]([H])([H])C([H])([H])C([H])([H])C([H])(N(C(=O)N3C([H])([H])C([H])([H])C([H])([H])C([H])(n4nc(-c5c([H])c([H])c(Oc6c([H])c([H])c(F)c([H])c6F)c([H])c5[H])c(C(=O)N([H])[H])c4N([H])[H])C3([H])[H])C([H])([H])[H])C([H])([H])C([H])([H])C([H])([H])C([H])([H])[H])c([H])c([H])c2C1([H])[H]

$$$$
25:0:0
     RDKit          3D

 93101  0  0  1  0  0  0  0  0999 V2000
  -30.3470  -23.7280   20.0120 C   0  0  0  0  0  3  0  0  0  0  0  0
  -28.4640  -23.4310   21.5280 C   0  0  0  0  0  3  0  0  0  0  0  0
  -29.8820  -25.0120   19.6890 C   0  0  0  0  0  3  0  0  0  0  0  0
  -28.0030  -24.7310   21.2110 C   0  0  0  0  0  3  0  0  0  0  0  0
  -29.6590  -22.9370   20.9520 C   0  0  0  0  0  0  0  0  0  0  0  0
  -28.7280  -25.5340   20.3010 C   0  0  0  0  0  0  0  0  0  0  0  0
  -28.4550  -26.8500   20.0320 O   0  0  0  0  0  0  0  0  0  0  0  0
  -24.5330  -31.8310   23.2460 C   0  0  0  0  0  0  0  0  0  0  0  0
  -27.2250  -27.4390   20.1650 C   0  0  0  0  0  0  0  0  0  0  0  0
  -23.3440  -30.4450   21.5730 C   0  0  0  0  0  3  0  0  0  0  0  0
  -24.8150  -28.9020   20.1710 C   0  0  0  0  0  0  0  0  0  0  0  0
  -25.8670  -30.8060   21.4120 C   0  0  0  0  0  2  0  0  0  0  0  0
  -25.9580  -29.4340   20.7790 C   0  0  0  0  0  0  0  0  0  0  0  0
  -27.1620  -28.7050   20.7800 C   0  0  0  0  0  3  0  0  0  0  0  0
  -26.0680  -26.9000   19.5630 C   0  0  0  0  0  3  0  0  0  0  0  0
  -24.8600  -27.6290   19.5690 C   0  0  0  0  0  3  0  0  0  0  0  0
  -23.5710  -29.7630   20.1960 C   0  0  0  0  0  2  0  0  0  0  0  0
  -24.5990  -31.0430   22.1370 N   0  0  0  0  0  0  0  0  0  0  0  0
  -23.4470  -32.1030   23.7740 O   0  0  0  0  0  0  0  0  0  0  0  0
  -22.6790  -29.4190   22.5190 C   0  0  0  0  0  0  0  0  0  0  0  0
  -21.3540  -29.2550   22.3800 N   0  0  0  0  0  0  0  0  0  0  0  0
  -23.3520  -28.7750   23.3280 O   0  0  0  0  0  0  0  0  0  0  0  0
  -20.8760  -29.8270   21.6990 H   0  0  0  0  0  0  0  0  0  0  0  0
  -17.9600  -28.1210   22.8570 C   0  0  0  0  0  0  0  0  0  0  0  0
  -20.5220  -28.3160   23.1300 C   0  0  0  0  0  3  0  0  0  0  0  0
  -20.5930  -26.8980   22.5180 C   0  0  0  0  0  2  0  0  0  0  0  0
  -19.4830  -26.6250   21.4990 C   0  0  0  0  0  2  0  0  0  0  0  0
  -18.1050  -26.7840   22.1510 C   0  0  0  0  0  2  0  0  0  0  0  0
  -19.0960  -28.8480   23.3040 C   0  0  0  0  0  0  0  0  0  0  0  0
  -18.9070  -30.1020   23.9230 C   0  0  0  0  0  3  0  0  0  0  0  0
  -17.6140  -30.6290   24.1020 C   0  0  0  0  0  3  0  0  0  0  0  0
  -16.4920  -29.8980   23.6750 C   0  0  0  0  0  3  0  0  0  0  0  0
  -16.6660  -28.6450   23.0580 C   0  0  0  0  0  3  0  0  0  0  0  0
  -25.8160  -32.4510   23.8890 C   0  0  0  0  0  3  0  0  0  0  0  0
  -25.5140  -33.8500   24.2160 N   0  0  0  0  0  0  0  0  0  0  0  0
  -25.8540  -34.8990   23.4560 C   0  0  0  0  0  0  0  0  0  0  0  0
  -26.5280  -34.7920   22.4270 O   0  0  0  0  0  0  0  0  0  0  0  0
  -24.9170  -34.0090   25.0160 H   0  0  0  0  0  0  0  0  0  0  0  0
  -24.1270  -36.6920   23.0980 C   0  0  0  0  0  1  0  0  0  0  0  0
  -25.3690  -36.2900   23.9090 C   0  0  0  0  0  3  0  0  0  0  0  0
  -27.5080  -37.1730   24.7280 C   0  0  0  0  0  1  0  0  0  0  0  0
  -26.4030  -37.3410   23.7890 N   0  0  0  0  0  0  0  0  0  0  0  0
  -25.9990  -38.2620   23.9370 H   0  0  0  0  0  0  0  0  0  0  0  0
  -26.3110  -31.6700   25.1670 C   0  0  1  0  0  0  0  0  0  0  0  0
  -25.2020  -31.4340   26.2190 C   0  0  0  0  0  1  0  0  0  0  0  0
  -26.8910  -30.2920   24.7740 C   0  0  0  0  0  1  0  0  0  0  0  0
  -27.4550  -32.4540   25.8510 C   0  0  0  0  0  1  0  0  0  0  0  0
  -30.2330  -21.7130   21.3350 N   0  0  0  0  0  0  0  0  0  0  0  0
  -31.1650  -21.8470   23.6400 C   0  0  0  0  0  1  0  0  0  0  0  0
  -31.4540  -21.8290   22.1350 C   0  0  0  0  0  2  0  0  0  0  0  0
  -29.4200  -20.4940   21.3500 C   0  0  0  0  0  2  0  0  0  0  0  0
  -30.1850  -19.2980   20.7230 C   0  0  0  0  0  2  0  0  0  0  0  0
  -28.2020  -17.9410   20.1310 C   0  0  0  0  0  1  0  0  0  0  0  0
  -29.5050  -17.9780   20.8450 N   0  0  1  0  0  4  0  0  0  0  0  0
  -29.3120  -17.8580   21.8290 H   0  0  0  0  0  0  0  0  0  0  0  0
  -30.4240  -16.8680   20.4430 C   0  0  0  0  0  2  0  0  0  0  0  0
  -30.0940  -15.4850   21.0610 C   0  0  0  0  0  2  0  0  0  0  0  0
  -30.7270  -14.3200   20.2660 C   0  0  0  0  0  0  0  0  0  0  0  0
  -30.3810  -12.1920   19.0590 C   0  0  0  0  0  2  0  0  0  0  0  0
  -29.3950  -12.4230   17.8930 C   0  0  0  0  0  2  0  0  0  0  0  0
  -27.9330  -12.3120   18.3700 C   0  0  0  0  0  2  0  0  0  0  0  0
  -27.6570  -13.1360   19.6560 C   0  0  0  0  0  3  0  0  0  0  0  0
  -28.7410  -12.8450   20.7190 C   0  0  0  0  0  2  0  0  0  0  0  0
  -30.0490  -13.1510   20.1220 N   0  0  0  0  0  0  0  0  0  0  0  0
  -31.8100  -14.5200   19.7040 O   0  0  0  0  0  0  0  0  0  0  0  0
  -25.2900  -13.7940   20.4290 C   0  0  0  0  0  0  0  0  0  0  0  0
  -24.2210  -13.0400   20.8360 C   0  0  0  0  0  0  0  0  0  0  0  0
  -24.6560  -11.6810   20.7880 C   0  0  0  0  0  0  0  0  0  0  0  0
  -26.3120  -12.8930   20.1700 N   0  0  0  0  0  0  0  0  0  0  0  0
  -25.9330  -11.6180   20.4380 N   0  0  0  0  0  0  0  0  0  0  0  0
  -23.9140  -10.4320   20.9960 C   0  0  0  0  0  0  0  0  0  0  0  0
  -24.3490   -9.4630   21.9270 C   0  0  0  0  0  3  0  0  0  0  0  0
  -23.6090   -8.2770   22.1250 C   0  0  0  0  0  3  0  0  0  0  0  0
  -22.4200   -8.0530   21.3900 C   0  0  0  0  0  0  0  0  0  0  0  0
  -22.0060   -9.0090   20.4470 C   0  0  0  0  0  3  0  0  0  0  0  0
  -22.7450  -10.1860   20.2480 C   0  0  0  0  0  3  0  0  0  0  0  0
  -21.6510   -6.9200   21.4980 O   0  0  0  0  0  0  0  0  0  0  0  0
  -21.5960   -6.1940   22.6610 C   0  0  0  0  0  0  0  0  0  0  0  0
  -21.1950   -6.7750   23.8830 C   0  0  0  0  0  3  0  0  0  0  0  0
  -21.0850   -5.9770   25.0400 C   0  0  0  0  0  3  0  0  0  0  0  0
  -21.3670   -4.6000   24.9750 C   0  0  0  0  0  0  0  0  0  0  0  0
  -21.7630   -4.0180   23.7570 C   0  0  0  0  0  3  0  0  0  0  0  0
  -21.8730   -4.8130   22.6030 C   0  0  0  0  0  0  0  0  0  0  0  0
  -22.2340   -4.2440   21.4280 F   0  0  0  0  0  0  0  0  0  0  0  0
  -21.2550   -3.8330   26.0850 F   0  0  0  0  0  0  0  0  0  0  0  0
  -22.8420  -13.5420   21.1520 C   0  0  0  0  0  0  0  0  0  0  0  0
  -22.1310  -12.8580   22.0430 N   0  0  0  0  0  0  0  0  0  0  0  0
  -22.4030  -14.5730   20.6440 O   0  0  0  0  0  0  0  0  0  0  0  0
  -22.5010  -12.0240   22.4740 H   0  0  0  0  0  0  0  0  0  0  0  0
  -21.2050  -13.1740   22.2970 H   0  0  0  0  0  0  0  0  0  0  0  0
  -25.4710  -15.1590   20.2370 N   0  0  0  0  0  0  0  0  0  0  0  0
  -24.6940  -15.8070   20.3200 H   0  0  0  0  0  0  0  0  0  0  0  0
  -26.2630  -15.5530   19.7490 H   0  0  0  0  0  0  0  0  0  0  0  0
  1  5  1  0
  3  1  2  0
  3  6  1  0
  4  2  1  0
  5 48  1  0
  5  2  2  0
  6  4  2  0
  7  9  1  0
  7  6  1  0
  8 19  2  0
  9 14  1  0
 10 18  1  0
 10 20  1  0
 11 17  1  0
 11 13  1  0
 12 18  1  0
 13 14  2  0
 13 12  1  0
 15 16  1  0
 15  9  2  0
 16 11  2  0
 17 10  1  0
 18  8  1  0
 20 22  2  0
 21 20  1  0
 23 21  1  0
 24 33  2  0
 24 29  1  0
 25 21  1  0
 25 29  1  0
 26 25  1  0
 27 28  1  0
 27 26  1  0
 28 24  1  0
 29 30  2  0
 30 31  1  0
 32 31  2  0
 33 32  1  0
 34  8  1  0
 34 35  1  0
 34 44  1  0
 35 38  1  0
 36 40  1  0
 36 35  1  0
 37 36  2  0
 40 39  1  0
 42 40  1  0
 42 43  1  0
 42 41  1  0
 44 47  1  1
 44 45  1  0
 46 44  1  0
 48 51  1  0
 48 50  1  0
 50 49  1  0
 52 54  1  0
 52 51  1  0
 53 54  1  0
 54 55  1  1
 56 54  1  0
 56 57  1  0
 58 57  1  0
 59 64  1  0
 60 61  1  0
 60 59  1  0
 62 61  1  0
 62 69  1  0
 62 63  1  0
 64 58  1  0
 64 63  1  0
 65 58  2  0
 66 67  2  0
 67 86  1  0
 68 67  1  0
 68 71  1  0
 69 66  1  0
 69 70  1  0
 70 68  2  0
 71 72  1  0
 72 73  2  0
 74 77  1  0
 74 73  1  0
 75 74  2  0
 76 75  1  0
 76 71  2  0
 77 78  1  0
 78 79  1  0
 79 80  2  0
 81 80  1  0
 81 85  1  0
 82 81  2  0
 83 78  2  0
 83 82  1  0
 84 83  1  0
 86 87  1  0
 87 90  1  0
 87 89  1  0
 88 86  2  0
 91 92  1  0
 91 66  1  0
 93 91  1  0
M  ISO  4   6 101   7 101  57 100  58 100
M  END
>  <TORSDO>  (26) 
F 23

>  <SCORE>  (26) 
-12.985

>  <name>  (26) 
25

>  <ligand_id>  (26) 
25

>  <original_smiles>  (26) 
[H]c1c([H])c([H])c2c(c1[H])C([H])([H])C([H])([H])C([H])([H])C2([H])N([H])C(=O)C1([H])N(C(=O)C([H])(N([H])C(=O)C([H])(N([H])C([H])([H])[H])C([H])([H])[H])C(C([H])([H])[H])(C([H])([H])[H])C([H])([H])[H])C([H])([H])c2c([H])c(Oc3c([H])c([H])c(N(C([H])([H])C([H])([H])[H])C([H])([H])C([H])([H])[N+]([H])(C([H])([H])[H])C([H])([H])C([H])([H])C(=O)N4C([H])([H])C([H])([H])C([H])([H])C([H])(n5nc(-c6c([H])c([H])c(Oc7c([H])c([H])c(F)c([H])c7F)c([H])c6[H])c(C(=O)N([H])[H])c5N([H])[H])C4([H])[H])c([H])c3[H])c([H])c([H])c2C1([H])[H]

>  <smiles>  (26) 
[H]c1c([H])c([H])c2c(c1[H])C([H])([H])C([H])([H])C([H])([H])C2([H])N([H])C(=O)C1([H])N(C(=O)C([H])(N([H])C(=O)C([H])(N([H])C([H])([H])[H])C([H])([H])[H])C(C([H])([H])[H])(C([H])([H])[H])C([H])([H])[H])C([H])([H])c2c([H])c(Oc3c([H])c([H])c(N(C([H])([H])C([H])([H])[H])C([H])([H])C([H])([H])[N+]([H])(C([H])([H])[H])C([H])([H])C([H])([H])C(=O)N4C([H])([H])C([H])([H])C([H])([H])C([H])(n5nc(-c6c([H])c([H])c(Oc7c([H])c([H])c(F)c([H])c7F)c([H])c6[H])c(C(=O)N([H])[H])c5N([H])[H])C4([H])[H])c([H])c3[H])c([H])c([H])c2C1([H])[H]

$$$$
26:0:0
     RDKit          3D

 87 92  0  0  1  0  0  0  0  0999 V2000
  -29.7560  -19.7540   20.5370 C   0  0  0  0  0  0  0  0  0  0  0  0
  -27.8960  -18.6100   19.9950 C   0  0  0  0  0  2  0  0  0  0  0  0
  -28.5700  -21.2400   20.3320 C   0  0  0  0  0  2  0  0  0  0  0  0
  -29.4260  -18.0240   19.9800 C   0  0  0  0  0  3  0  0  0  0  0  0
  -29.8570  -18.1390   18.4950 C   0  0  0  0  0  1  0  0  0  0  0  0
  -27.6390  -20.1740   19.7150 N   0  0  0  0  0  4  0  0  0  0  0  0
  -30.8490  -19.9490   21.0770 O   0  0  0  0  0  0  0  0  0  0  0  0
  -26.6920  -20.3830   19.9880 H   0  0  0  0  0  0  0  0  0  0  0  0
  -27.6740  -20.3060   18.7170 H   0  0  0  0  0  0  0  0  0  0  0  0
  -30.0960  -16.1140   20.1800 C   0  0  0  0  0  2  0  0  0  0  0  0
  -30.2980  -13.4660   19.4060 C   0  0  0  0  0  2  0  0  0  0  0  0
  -29.4490  -12.8860   18.2250 C   0  0  0  0  0  2  0  0  0  0  0  0
  -28.0580  -12.4450   18.6950 C   0  0  0  0  0  2  0  0  0  0  0  0
  -27.4890  -13.4650   19.7000 C   0  0  0  0  0  3  0  0  0  0  0  0
  -28.4920  -13.9430   20.7840 C   0  0  0  0  0  2  0  0  0  0  0  0
  -29.6120  -14.6790   20.1130 N   0  0  0  0  0  0  0  0  0  0  0  0
  -31.3370  -15.9190   20.1220 O   0  0  0  0  0  1  0  0  0  0  0  0
  -25.1350  -13.9400   20.4920 C   0  0  0  0  0  0  0  0  0  0  0  0
  -24.0880  -13.1470   20.8610 C   0  0  0  0  0  0  0  0  0  0  0  0
  -24.5740  -11.8030   20.8250 C   0  0  0  0  0  0  0  0  0  0  0  0
  -26.1890  -13.0860   20.2400 N   0  0  0  0  0  0  0  0  0  0  0  0
  -25.8690  -11.7900   20.5060 N   0  0  0  0  0  0  0  0  0  0  0  0
  -23.8560  -10.5330   21.0140 C   0  0  0  0  0  0  0  0  0  0  0  0
  -24.2890   -9.5690   21.9520 C   0  0  0  0  0  3  0  0  0  0  0  0
  -23.5630   -8.3710   22.1340 C   0  0  0  0  0  3  0  0  0  0  0  0
  -22.3920   -8.1270   21.3790 C   0  0  0  0  0  0  0  0  0  0  0  0
  -21.9790   -9.0790   20.4300 C   0  0  0  0  0  3  0  0  0  0  0  0
  -22.7040  -10.2680   20.2470 C   0  0  0  0  0  3  0  0  0  0  0  0
  -21.6410   -6.9790   21.4690 O   0  0  0  0  0  0  0  0  0  0  0  0
  -21.5870   -6.2420   22.6240 C   0  0  0  0  0  0  0  0  0  0  0  0
  -21.1320   -6.7960   23.8400 C   0  0  0  0  0  3  0  0  0  0  0  0
  -21.0270   -5.9840   24.9880 C   0  0  0  0  0  3  0  0  0  0  0  0
  -21.3670   -4.6200   24.9200 C   0  0  0  0  0  0  0  0  0  0  0  0
  -21.8130   -4.0650   23.7080 C   0  0  0  0  0  3  0  0  0  0  0  0
  -21.9200   -4.8730   22.5630 C   0  0  0  0  0  0  0  0  0  0  0  0
  -22.3300   -4.3290   21.3920 F   0  0  0  0  0  0  0  0  0  0  0  0
  -21.2590   -3.8380   26.0200 F   0  0  0  0  0  0  0  0  0  0  0  0
  -22.6860  -13.6100   21.1250 C   0  0  0  0  0  0  0  0  0  0  0  0
  -21.9650  -12.9150   21.9950 N   0  0  0  0  0  0  0  0  0  0  0  0
  -22.2410  -14.6270   20.5940 O   0  0  0  0  0  0  0  0  0  0  0  0
  -22.3390  -12.0930   22.4460 H   0  0  0  0  0  0  0  0  0  0  0  0
  -21.0240  -13.2080   22.2160 H   0  0  0  0  0  0  0  0  0  0  0  0
  -25.2780  -15.3130   20.3130 N   0  0  0  0  0  0  0  0  0  0  0  0
  -24.4960  -15.9520   20.4160 H   0  0  0  0  0  0  0  0  0  0  0  0
  -26.1110  -15.7540   19.9490 H   0  0  0  0  0  0  0  0  0  0  0  0
  -28.0870  -23.3040   20.5830 C   0  0  0  0  0 15  0  0  0  0  0  0
  -28.1630  -25.1930   20.3490 O   0  0  0  0  0  1  0  0  0  0  0  0
  -24.6860  -31.8700   23.2160 C   0  0  0  0  0  0  0  0  0  0  0  0
  -27.2090  -26.5180   20.3580 C   0  0  0  0  0  0  0  0  0  0  0  0
  -23.5160  -30.4420   21.6000 C   0  0  0  0  0  3  0  0  0  0  0  0
  -24.9690  -28.7190   20.2440 C   0  0  0  0  0  0  0  0  0  0  0  0
  -26.1070  -30.5070   21.5190 C   0  0  0  0  0  2  0  0  0  0  0  0
  -26.1700  -29.0350   20.8900 C   0  0  0  0  0  0  0  0  0  0  0  0
  -27.2640  -27.9740   20.9000 C   0  0  0  0  0  3  0  0  0  0  0  0
  -25.9680  -26.4800   19.6520 C   0  0  0  0  0  3  0  0  0  0  0  0
  -24.9230  -27.4690   19.5980 C   0  0  0  0  0  3  0  0  0  0  0  0
  -23.7760  -29.7030   20.2530 C   0  0  0  0  0  2  0  0  0  0  0  0
  -24.7960  -30.9800   22.1630 N   0  0  0  0  0  0  0  0  0  0  0  0
  -23.5850  -32.1890   23.7020 O   0  0  0  0  0  0  0  0  0  0  0  0
  -22.7690  -29.5030   22.5890 C   0  0  0  0  0  0  0  0  0  0  0  0
  -21.4350  -29.3610   22.4600 N   0  0  0  0  0  0  0  0  0  0  0  0
  -23.4090  -28.8950   23.4500 O   0  0  0  0  0  0  0  0  0  0  0  0
  -20.9640  -29.9000   21.7460 H   0  0  0  0  0  0  0  0  0  0  0  0
  -18.0390  -28.1540   22.9780 C   0  0  0  0  0  0  0  0  0  0  0  0
  -20.5980  -28.4400   23.2440 C   0  0  0  0  0  3  0  0  0  0  0  0
  -20.7040  -26.9950   22.7010 C   0  0  0  0  0  2  0  0  0  0  0  0
  -19.6100  -26.6510   21.6850 C   0  0  0  0  0  2  0  0  0  0  0  0
  -18.2240  -26.7990   22.3190 C   0  0  0  0  0  2  0  0  0  0  0  0
  -19.1520  -28.9320   23.3970 C   0  0  0  0  0  0  0  0  0  0  0  0
  -18.9200  -30.1970   23.9810 C   0  0  0  0  0  3  0  0  0  0  0  0
  -17.6090  -30.6860   24.1440 C   0  0  0  0  0  3  0  0  0  0  0  0
  -16.5120  -29.9080   23.7370 C   0  0  0  0  0  3  0  0  0  0  0  0
  -16.7270  -28.6440   23.1600 C   0  0  0  0  0  3  0  0  0  0  0  0
  -25.9340  -32.5450   23.8630 C   0  0  0  0  0  3  0  0  0  0  0  0
  -25.5980  -33.9490   24.1840 N   0  0  0  0  0  0  0  0  0  0  0  0
  -25.9250  -35.0160   23.4430 C   0  0  0  0  0  0  0  0  0  0  0  0
  -26.5930  -34.9230   22.4100 O   0  0  0  0  0  0  0  0  0  0  0  0
  -24.9990  -34.0930   24.9850 H   0  0  0  0  0  0  0  0  0  0  0  0
  -24.1860  -36.8170   23.1290 C   0  0  0  0  0  1  0  0  0  0  0  0
  -25.4420  -36.4060   23.9150 C   0  0  0  0  0  3  0  0  0  0  0  0
  -27.5820  -37.3100   24.7170 C   0  0  0  0  0  1  0  0  0  0  0  0
  -26.4670  -37.4670   23.7860 N   0  0  0  0  0  0  0  0  0  0  0  0
  -26.0580  -38.3840   23.9340 H   0  0  0  0  0  0  0  0  0  0  0  0
  -26.4190  -31.8090   25.1750 C   0  0  1  0  0  0  0  0  0  0  0  0
  -25.3020  -31.6020   26.2270 C   0  0  0  0  0  1  0  0  0  0  0  0
  -27.0100  -30.4200   24.8510 C   0  0  0  0  0  1  0  0  0  0  0  0
  -27.5550  -32.6210   25.8410 C   0  0  0  0  0  1  0  0  0  0  0  0
  1  7  2  0
  3  1  1  0
  4  5  1  0
  4  2  1  0
  4  1  1  0
  6  8  1  0
  6  2  1  0
  6  3  1  0
  9  6  1  0
 11 16  1  0
 12 13  1  0
 12 11  1  0
 14 13  1  0
 14 21  1  0
 14 15  1  0
 16 10  1  0
 16 15  1  0
 17 10  1  0
 18 19  2  0
 19 38  1  0
 20 19  1  0
 20 23  1  0
 21 18  1  0
 21 22  1  0
 22 20  2  0
 23 24  1  0
 24 25  2  0
 26 29  1  0
 26 25  1  0
 27 26  2  0
 28 27  1  0
 28 23  2  0
 29 30  1  0
 30 31  1  0
 31 32  2  0
 33 32  1  0
 33 37  1  0
 34 33  2  0
 35 30  2  0
 35 34  1  0
 36 35  1  0
 38 39  1  0
 39 42  1  0
 39 41  1  0
 40 38  2  0
 43 44  1  0
 43 18  1  0
 45 43  1  0
 47 49  1  0
 48 59  2  0
 49 54  1  0
 50 58  1  0
 50 60  1  0
 51 57  1  0
 51 53  1  0
 52 58  1  0
 53 54  2  0
 53 52  1  0
 55 49  2  0
 56 55  1  0
 56 51  2  0
 57 50  1  0
 58 48  1  0
 60 62  2  0
 61 60  1  0
 63 61  1  0
 64 73  2  0
 64 69  1  0
 65 61  1  0
 65 69  1  0
 66 65  1  0
 67 68  1  0
 67 66  1  0
 68 64  1  0
 69 70  2  0
 70 71  1  0
 72 71  2  0
 73 72  1  0
 74 48  1  0
 74 75  1  0
 74 84  1  0
 75 78  1  0
 76 80  1  0
 76 75  1  0
 77 76  2  0
 80 79  1  0
 82 80  1  0
 82 83  1  0
 82 81  1  0
 84 87  1  1
 84 85  1  0
 86 84  1  0
M  ISO  4   4 100  10 100  46 101  47 101
M  END
>  <TORSDO>  (27) 
F 17

>  <SCORE>  (27) 
-16.710

>  <name>  (27) 
26

>  <ligand_id>  (27) 
26

>  <original_smiles>  (27) 
[H]c1c([H])c([H])c2c(c1[H])C([H])([H])C([H])([H])C([H])([H])C2([H])N([H])C(=O)C1([H])N(C(=O)C([H])(N([H])C(=O)C([H])(N([H])C([H])([H])[H])C([H])([H])[H])C(C([H])([H])[H])(C([H])([H])[H])C([H])([H])[H])C([H])([H])c2c([H])c(OC([H])([H])C3([H])C(=O)C(C(=O)N4C([H])([H])C([H])([H])C([H])([H])C([H])(n5nc(-c6c([H])c([H])c(Oc7c([H])c([H])c(F)c([H])c7F)c([H])c6[H])c(C(=O)N([H])[H])c5N([H])[H])C4([H])[H])(C([H])([H])[H])C([H])([H])[N+]3([H])[H])c([H])c([H])c2C1([H])[H]

>  <smiles>  (27) 
[H]c1c([H])c([H])c2c(c1[H])C([H])([H])C([H])([H])C([H])([H])C2([H])N([H])C(=O)C1([H])N(C(=O)C([H])(N([H])C(=O)C([H])(N([H])C([H])([H])[H])C([H])([H])[H])C(C([H])([H])[H])(C([H])([H])[H])C([H])([H])[H])C([H])([H])c2c([H])c(OC([H])([H])C3([H])C(=O)C(C(=O)N4C([H])([H])C([H])([H])C([H])([H])C([H])(n5nc(-c6c([H])c([H])c(Oc7c([H])c([H])c(F)c([H])c7F)c([H])c6[H])c(C(=O)N([H])[H])c5N([H])[H])C4([H])[H])(C([H])([H])[H])C([H])([H])[N+]3([H])[H])c([H])c([H])c2C1([H])[H]

$$$$
27:0:0
     RDKit          3D

 94101  0  0  1  0  0  0  0  0999 V2000
  -29.5200  -21.0880   20.3410 N   0  0  2  0  0  4  0  0  0  0  0  0
  -30.2560  -21.1980   21.0250 H   0  0  0  0  0  0  0  0  0  0  0  0
  -29.2210  -21.3200   17.8260 C   0  0  0  0  0  1  0  0  0  0  0  0
  -30.1940  -21.0390   18.9990 C   0  0  0  0  0  3  0  0  0  0  0  0
  -31.5070  -21.8640   18.9550 C   0  0  0  0  0  2  0  0  0  0  0  0
  -32.1790  -21.9900   17.5720 C   0  0  0  0  0  2  0  0  0  0  0  0
  -33.4760  -22.8070   17.6440 C   0  0  0  0  0  2  0  0  0  0  0  0
  -34.9180  -24.0780   16.2880 C   0  0  0  0  0  1  0  0  0  0  0  0
  -33.9660  -23.0230   16.3290 O   0  0  0  0  0  0  0  0  0  0  0  0
  -28.8810  -19.7280   20.6530 C   0  0  0  0  0  2  0  0  0  0  0  0
  -29.7730  -18.4260   21.0010 C   0  0  0  0  0  2  0  0  0  0  0  0
  -29.8070  -17.1500   20.0310 C   0  0  0  0  0  2  0  0  0  0  0  0
  -30.5910  -14.6710   20.3070 C   0  0  0  0  0  0  0  0  0  0  0  0
  -30.3650  -12.4330   19.2580 C   0  0  0  0  0  2  0  0  0  0  0  0
  -29.4030  -12.5600   18.0550 C   0  0  0  0  0  2  0  0  0  0  0  0
  -27.9390  -12.4000   18.5060 C   0  0  0  0  0  2  0  0  0  0  0  0
  -27.5980  -13.2620   19.7490 C   0  0  0  0  0  3  0  0  0  0  0  0
  -28.6710  -13.1120   20.8510 C   0  0  0  0  0  2  0  0  0  0  0  0
  -29.9730  -13.4490   20.2580 N   0  0  0  0  0  0  0  0  0  0  0  0
  -31.7390  -14.8240   19.8800 O   0  0  0  0  0  0  0  0  0  0  0  0
  -29.7960  -15.7490   20.6170 N   0  0  0  0  0  0  0  0  0  0  0  0
  -28.9080  -15.4730   21.0090 H   0  0  0  0  0  0  0  0  0  0  0  0
  -25.2160  -13.8690   20.4940 C   0  0  0  0  0  0  0  0  0  0  0  0
  -24.1490  -13.0980   20.8740 C   0  0  0  0  0  0  0  0  0  0  0  0
  -24.6050  -11.7450   20.8360 C   0  0  0  0  0  0  0  0  0  0  0  0
  -26.2530  -12.9830   20.2480 N   0  0  0  0  0  0  0  0  0  0  0  0
  -25.8930  -11.7000   20.5170 N   0  0  0  0  0  0  0  0  0  0  0  0
  -23.8720  -10.4870   21.0370 C   0  0  0  0  0  0  0  0  0  0  0  0
  -24.3190   -9.5150   21.9590 C   0  0  0  0  0  3  0  0  0  0  0  0
  -23.5940   -8.3210   22.1470 C   0  0  0  0  0  3  0  0  0  0  0  0
  -22.4050   -8.0900   21.4130 C   0  0  0  0  0  0  0  0  0  0  0  0
  -21.9760   -9.0510   20.4830 C   0  0  0  0  0  3  0  0  0  0  0  0
  -22.7020  -10.2370   20.2940 C   0  0  0  0  0  3  0  0  0  0  0  0
  -21.6480   -6.9480   21.5110 O   0  0  0  0  0  0  0  0  0  0  0  0
  -21.6280   -6.1930   22.6550 C   0  0  0  0  0  0  0  0  0  0  0  0
  -21.2470   -6.7380   23.9010 C   0  0  0  0  0  3  0  0  0  0  0  0
  -21.1730   -5.9100   25.0390 C   0  0  0  0  0  3  0  0  0  0  0  0
  -21.4720   -4.5380   24.9340 C   0  0  0  0  0  0  0  0  0  0  0  0
  -21.8470   -3.9930   23.6940 C   0  0  0  0  0  3  0  0  0  0  0  0
  -21.9230   -4.8190   22.5570 C   0  0  0  0  0  0  0  0  0  0  0  0
  -22.2630   -4.2840   21.3610 F   0  0  0  0  0  0  0  0  0  0  0  0
  -21.3950   -3.7410   26.0250 F   0  0  0  0  0  0  0  0  0  0  0  0
  -22.7590  -13.5830   21.1610 C   0  0  0  0  0  0  0  0  0  0  0  0
  -22.0400  -12.8890   22.0390 N   0  0  0  0  0  0  0  0  0  0  0  0
  -22.3170  -14.6100   20.6480 O   0  0  0  0  0  0  0  0  0  0  0  0
  -22.4140  -12.0610   22.4740 H   0  0  0  0  0  0  0  0  0  0  0  0
  -21.1070  -13.1920   22.2790 H   0  0  0  0  0  0  0  0  0  0  0  0
  -25.3800  -15.2370   20.3110 N   0  0  0  0  0  0  0  0  0  0  0  0
  -24.6080  -15.8830   20.4370 H   0  0  0  0  0  0  0  0  0  0  0  0
  -26.2150  -15.6770   19.9430 H   0  0  0  0  0  0  0  0  0  0  0  0
  -28.5630  -22.2870   20.5660 C   0  0  0  0  0  2  0  0  0  0  0  0
  -29.0540  -23.8120   20.4220 C   0  0  0  0  0  3  0  0  0  0  0  0
  -27.9360  -24.9510   20.4670 C   0  0  0  0  0  3  0  0  0  0  0  0
  -28.2700  -26.4010   20.2970 O   0  0  0  0  0  0  0  0  0  0  0  0
  -24.5930  -31.8830   23.2400 C   0  0  0  0  0  0  0  0  0  0  0  0
  -27.1880  -27.3000   20.2210 C   0  0  0  0  0  0  0  0  0  0  0  0
  -23.3870  -30.4840   21.5980 C   0  0  0  0  0  3  0  0  0  0  0  0
  -24.8400  -28.9400   20.1750 C   0  0  0  0  0  0  0  0  0  0  0  0
  -25.9290  -30.8000   21.4230 C   0  0  0  0  0  2  0  0  0  0  0  0
  -26.0080  -29.4180   20.7860 C   0  0  0  0  0  0  0  0  0  0  0  0
  -27.1850  -28.6080   20.8070 C   0  0  0  0  0  3  0  0  0  0  0  0
  -26.0050  -26.9060   19.5560 C   0  0  0  0  0  3  0  0  0  0  0  0
  -24.8440  -27.6910   19.5430 C   0  0  0  0  0  3  0  0  0  0  0  0
  -23.6050  -29.8110   20.2180 C   0  0  0  0  0  2  0  0  0  0  0  0
  -24.6540  -31.0760   22.1430 N   0  0  0  0  0  0  0  0  0  0  0  0
  -23.5100  -32.1620   23.7760 O   0  0  0  0  0  0  0  0  0  0  0  0
  -22.7280  -29.4670   22.5610 C   0  0  0  0  0  0  0  0  0  0  0  0
  -21.4020  -29.2850   22.4390 N   0  0  0  0  0  0  0  0  0  0  0  0
  -23.4110  -28.8410   23.3770 O   0  0  0  0  0  0  0  0  0  0  0  0
  -20.9090  -29.8460   21.7580 H   0  0  0  0  0  0  0  0  0  0  0  0
  -18.0300  -28.0780   22.9440 C   0  0  0  0  0  0  0  0  0  0  0  0
  -20.5870  -28.3500   23.2130 C   0  0  0  0  0  3  0  0  0  0  0  0
  -20.6940  -26.9130   22.6510 C   0  0  0  0  0  2  0  0  0  0  0  0
  -19.5960  -26.5790   21.6360 C   0  0  0  0  0  2  0  0  0  0  0  0
  -18.2130  -26.7230   22.2760 C   0  0  0  0  0  2  0  0  0  0  0  0
  -19.1460  -28.8470   23.3700 C   0  0  0  0  0  0  0  0  0  0  0  0
  -18.9230  -30.1110   23.9540 C   0  0  0  0  0  3  0  0  0  0  0  0
  -17.6170  -30.6120   24.1130 C   0  0  0  0  0  3  0  0  0  0  0  0
  -16.5150  -29.8420   23.6980 C   0  0  0  0  0  3  0  0  0  0  0  0
  -16.7220  -28.5760   23.1220 C   0  0  0  0  0  3  0  0  0  0  0  0
  -25.8790  -32.5150   23.8560 C   0  0  0  0  0  3  0  0  0  0  0  0
  -26.4020  -31.7440   25.1300 C   0  0  1  0  0  0  0  0  0  0  0  0
  -25.3120  -31.5080   26.2010 C   0  0  0  0  0  1  0  0  0  0  0  0
  -26.9850  -30.3640   24.7400 C   0  0  0  0  0  1  0  0  0  0  0  0
  -27.5600  -32.5340   25.7850 C   0  0  0  0  0  1  0  0  0  0  0  0
  -25.5730  -33.9140   24.1880 N   0  0  0  0  0  0  0  0  0  0  0  0
  -25.9030  -34.9650   23.4240 C   0  0  0  0  0  0  0  0  0  0  0  0
  -26.5650  -34.8560   22.3890 O   0  0  0  0  0  0  0  0  0  0  0  0
  -24.9970  -34.0750   25.0010 H   0  0  0  0  0  0  0  0  0  0  0  0
  -24.1730  -36.7530   23.0720 C   0  0  0  0  0  1  0  0  0  0  0  0
  -25.4200  -36.3570   23.8790 C   0  0  0  0  0  3  0  0  0  0  0  0
  -27.5620  -37.2400   24.6910 C   0  0  0  0  0  1  0  0  0  0  0  0
  -26.4540  -37.4070   23.7550 N   0  0  0  0  0  0  0  0  0  0  0  0
  -26.0520  -38.3290   23.8980 H   0  0  0  0  0  0  0  0  0  0  0  0
  1 51  1  0
  1 10  1  0
  1  2  1  1
  4  3  1  0
  4  1  1  0
  5  4  1  0
  6  7  1  0
  6  5  1  0
  8  9  1  0
  9  7  1  0
 10 11  1  0
 12 21  1  0
 12 11  1  0
 13 21  1  0
 14 19  1  0
 15 16  1  0
 15 14  1  0
 17 16  1  0
 17 26  1  0
 17 18  1  0
 19 13  1  0
 19 18  1  0
 20 13  2  0
 21 22  1  0
 23 24  2  0
 24 43  1  0
 25 24  1  0
 25 28  1  0
 26 23  1  0
 26 27  1  0
 27 25  2  0
 28 29  1  0
 29 30  2  0
 31 34  1  0
 31 30  1  0
 32 31  2  0
 33 32  1  0
 33 28  2  0
 34 35  1  0
 35 36  1  0
 36 37  2  0
 38 37  1  0
 38 42  1  0
 39 38  2  0
 40 35  2  0
 40 39  1  0
 41 40  1  0
 43 44  1  0
 44 47  1  0
 44 46  1  0
 45 43  2  0
 48 49  1  0
 48 23  1  0
 50 48  1  0
 52 53  2  0
 52 51  1  0
 54 53  1  0
 55 66  2  0
 56 54  1  0
 56 61  1  0
 57 65  1  0
 57 67  1  0
 58 64  1  0
 58 60  1  0
 59 65  1  0
 60 61  2  0
 60 59  1  0
 62 56  2  0
 63 62  1  0
 63 58  2  0
 64 57  1  0
 65 55  1  0
 67 69  2  0
 68 67  1  0
 70 68  1  0
 71 80  2  0
 71 76  1  0
 72 68  1  0
 72 76  1  0
 73 72  1  0
 74 75  1  0
 74 73  1  0
 75 71  1  0
 76 77  2  0
 77 78  1  0
 79 78  2  0
 80 79  1  0
 81 55  1  0
 81 86  1  0
 81 82  1  0
 82 85  1  1
 82 83  1  0
 84 82  1  0
 86 89  1  0
 87 91  1  0
 87 86  1  0
 88 87  2  0
 91 90  1  0
 93 91  1  0
 93 94  1  0
 93 92  1  0
M  ISO  4  13 100  21 100  53 101  54 101
M  END
>  <TORSDO>  (28) 
F 27

>  <SCORE>  (28) 
-11.493

>  <name>  (28) 
27

>  <ligand_id>  (28) 
27

>  <original_smiles>  (28) 
[H]c1c([H])c([H])c2c(c1[H])C([H])([H])C([H])([H])C([H])([H])C2([H])N([H])C(=O)C1([H])N(C(=O)C([H])(N([H])C(=O)C([H])(N([H])C([H])([H])[H])C([H])([H])[H])C(C([H])([H])[H])(C([H])([H])[H])C([H])([H])[H])C([H])([H])c2c([H])c(OC([H])([H])C([H])([H])C([H])([H])[N+]([H])(C([H])([H])C([H])([H])C([H])([H])N([H])C(=O)N3C([H])([H])C([H])([H])C([H])([H])C([H])(n4nc(-c5c([H])c([H])c(Oc6c([H])c([H])c(F)c([H])c6F)c([H])c5[H])c(C(=O)N([H])[H])c4N([H])[H])C3([H])[H])C([H])(C([H])([H])[H])C([H])([H])C([H])([H])C([H])([H])OC([H])([H])[H])c([H])c([H])c2C1([H])[H]

>  <smiles>  (28) 
[H]c1c([H])c([H])c2c(c1[H])C([H])([H])C([H])([H])C([H])([H])C2([H])N([H])C(=O)C1([H])N(C(=O)C([H])(N([H])C(=O)C([H])(N([H])C([H])([H])[H])C([H])([H])[H])C(C([H])([H])[H])(C([H])([H])[H])C([H])([H])[H])C([H])([H])c2c([H])c(OC([H])([H])C([H])([H])C([H])([H])[N+]([H])(C([H])([H])C([H])([H])C([H])([H])N([H])C(=O)N3C([H])([H])C([H])([H])C([H])([H])C([H])(n4nc(-c5c([H])c([H])c(Oc6c([H])c([H])c(F)c([H])c6F)c([H])c5[H])c(C(=O)N([H])[H])c4N([H])[H])C3([H])[H])C([H])(C([H])([H])[H])C([H])([H])C([H])([H])C([H])([H])OC([H])([H])[H])c([H])c([H])c2C1([H])[H]

$$$$
28:0:0
     RDKit          3D

 89 96  0  0  1  0  0  0  0  0999 V2000
  -29.4720  -20.4740   20.3000 N   0  0  0  0  0  4  0  0  0  0  0  0
  -30.2810  -20.6600   20.8720 H   0  0  0  0  0  0  0  0  0  0  0  0
  -29.7950  -20.5090   19.3480 H   0  0  0  0  0  0  0  0  0  0  0  0
  -27.6610  -18.6460   20.0770 C   0  0  0  0  0  1  0  0  0  0  0  0
  -29.0760  -18.9590   20.5960 C   0  0  0  0  0  3  0  0  0  0  0  0
  -30.5060  -17.8210   18.7240 C   0  0  0  0  0  1  0  0  0  0  0  0
  -30.1090  -17.6770   20.2050 C   0  0  0  0  0  3  0  0  0  0  0  0
  -30.5440  -14.9620   20.2940 C   0  0  0  0  0  0  0  0  0  0  0  0
  -30.4080  -12.6310   19.3200 C   0  0  0  0  0  2  0  0  0  0  0  0
  -29.4670  -12.6110   18.0940 C   0  0  0  0  0  2  0  0  0  0  0  0
  -28.0070  -12.3950   18.5380 C   0  0  0  0  0  2  0  0  0  0  0  0
  -27.6090  -13.3050   19.7300 C   0  0  0  0  0  3  0  0  0  0  0  0
  -28.6710  -13.2990   20.8490 C   0  0  0  0  0  2  0  0  0  0  0  0
  -29.9400  -13.7100   20.2380 N   0  0  0  0  0  0  0  0  0  0  0  0
  -31.7410  -15.0250   19.9940 O   0  0  0  0  0  0  0  0  0  0  0  0
  -29.7770  -16.1490   20.4600 N   0  0  0  0  0  0  0  0  0  0  0  0
  -28.8150  -15.9670   20.7050 H   0  0  0  0  0  0  0  0  0  0  0  0
  -25.2270  -13.8610   20.4900 C   0  0  0  0  0  0  0  0  0  0  0  0
  -24.1730  -13.0760   20.8640 C   0  0  0  0  0  0  0  0  0  0  0  0
  -24.6480  -11.7290   20.8230 C   0  0  0  0  0  0  0  0  0  0  0  0
  -26.2760  -12.9930   20.2360 N   0  0  0  0  0  0  0  0  0  0  0  0
  -25.9370  -11.7060   20.5020 N   0  0  0  0  0  0  0  0  0  0  0  0
  -23.9340  -10.4600   21.0100 C   0  0  0  0  0  0  0  0  0  0  0  0
  -24.3620   -9.5010   21.9550 C   0  0  0  0  0  3  0  0  0  0  0  0
  -23.6450   -8.2980   22.1300 C   0  0  0  0  0  3  0  0  0  0  0  0
  -22.4860   -8.0440   21.3590 C   0  0  0  0  0  0  0  0  0  0  0  0
  -22.0770   -8.9910   20.4030 C   0  0  0  0  0  3  0  0  0  0  0  0
  -22.7950  -10.1860   20.2270 C   0  0  0  0  0  3  0  0  0  0  0  0
  -21.7390   -6.8940   21.4430 O   0  0  0  0  0  0  0  0  0  0  0  0
  -21.6630   -6.1690   22.6060 C   0  0  0  0  0  0  0  0  0  0  0  0
  -21.1610   -6.7280   23.8010 C   0  0  0  0  0  3  0  0  0  0  0  0
  -21.0350   -5.9270   24.9540 C   0  0  0  0  0  3  0  0  0  0  0  0
  -21.4010   -4.5680   24.9110 C   0  0  0  0  0  0  0  0  0  0  0  0
  -21.8950   -4.0090   23.7190 C   0  0  0  0  0  3  0  0  0  0  0  0
  -22.0230   -4.8070   22.5700 C   0  0  0  0  0  0  0  0  0  0  0  0
  -22.4800   -4.2570   21.4180 F   0  0  0  0  0  0  0  0  0  0  0  0
  -21.2730   -3.7970   26.0160 F   0  0  0  0  0  0  0  0  0  0  0  0
  -22.7730  -13.5400   21.1440 C   0  0  0  0  0  0  0  0  0  0  0  0
  -22.0560  -12.8380   22.0130 N   0  0  0  0  0  0  0  0  0  0  0  0
  -22.3260  -14.5620   20.6260 O   0  0  0  0  0  0  0  0  0  0  0  0
  -22.4310  -12.0110   22.4530 H   0  0  0  0  0  0  0  0  0  0  0  0
  -21.1160  -13.1320   22.2410 H   0  0  0  0  0  0  0  0  0  0  0  0
  -25.3760  -15.2340   20.3160 N   0  0  0  0  0  0  0  0  0  0  0  0
  -24.5920  -15.8690   20.4190 H   0  0  0  0  0  0  0  0  0  0  0  0
  -26.1890  -15.6720   19.9040 H   0  0  0  0  0  0  0  0  0  0  0  0
  -28.4990  -21.7210   20.4710 C   0  0  0  0  0  2  0  0  0  0  0  0
  -28.9680  -23.3410   20.3210 C   0  0  0  0  0  3  0  0  0  0  0  0
  -27.9120  -24.6550   20.2630 C   0  0  0  0  0  3  0  0  0  0  0  0
  -28.2220  -26.1860   20.2700 O   0  0  0  0  0  0  0  0  0  0  0  0
  -24.6020  -31.8750   23.2570 C   0  0  0  0  0  0  0  0  0  0  0  0
  -27.1670  -27.1700   20.2130 C   0  0  0  0  0  0  0  0  0  0  0  0
  -23.4000  -30.4890   21.6130 C   0  0  0  0  0  3  0  0  0  0  0  0
  -24.8430  -28.9200   20.1840 C   0  0  0  0  0  0  0  0  0  0  0  0
  -25.9550  -30.7510   21.4500 C   0  0  0  0  0  2  0  0  0  0  0  0
  -26.0240  -29.3630   20.7920 C   0  0  0  0  0  0  0  0  0  0  0  0
  -27.1890  -28.5050   20.7870 C   0  0  0  0  0  3  0  0  0  0  0  0
  -25.9580  -26.8340   19.5630 C   0  0  0  0  0  3  0  0  0  0  0  0
  -24.8230  -27.6700   19.5540 C   0  0  0  0  0  3  0  0  0  0  0  0
  -23.6180  -29.8190   20.2310 C   0  0  0  0  0  2  0  0  0  0  0  0
  -24.6720  -31.0610   22.1600 N   0  0  0  0  0  0  0  0  0  0  0  0
  -23.5170  -32.1570   23.7880 O   0  0  0  0  0  0  0  0  0  0  0  0
  -22.7190  -29.4800   22.5710 C   0  0  0  0  0  0  0  0  0  0  0  0
  -21.3910  -29.3070   22.4410 N   0  0  0  0  0  0  0  0  0  0  0  0
  -23.3880  -28.8530   23.3980 O   0  0  0  0  0  0  0  0  0  0  0  0
  -20.9100  -29.8590   21.7440 H   0  0  0  0  0  0  0  0  0  0  0  0
  -18.0060  -28.1100   22.9270 C   0  0  0  0  0  0  0  0  0  0  0  0
  -20.5650  -28.3700   23.2060 C   0  0  0  0  0  3  0  0  0  0  0  0
  -20.6700  -26.9390   22.6300 C   0  0  0  0  0  2  0  0  0  0  0  0
  -19.5710  -26.6180   21.6100 C   0  0  0  0  0  2  0  0  0  0  0  0
  -18.1870  -26.7630   22.2490 C   0  0  0  0  0  2  0  0  0  0  0  0
  -19.1240  -28.8720   23.3610 C   0  0  0  0  0  0  0  0  0  0  0  0
  -18.9020  -30.1330   23.9560 C   0  0  0  0  0  3  0  0  0  0  0  0
  -17.5970  -30.6320   24.1230 C   0  0  0  0  0  3  0  0  0  0  0  0
  -16.4940  -29.8680   23.7050 C   0  0  0  0  0  3  0  0  0  0  0  0
  -16.6990  -28.6090   23.1120 C   0  0  0  0  0  3  0  0  0  0  0  0
  -25.8810  -32.5070   23.8860 C   0  0  0  0  0  3  0  0  0  0  0  0
  -25.5740  -33.9090   24.2120 N   0  0  0  0  0  0  0  0  0  0  0  0
  -25.8980  -34.9580   23.4480 C   0  0  0  0  0  0  0  0  0  0  0  0
  -26.5520  -34.8510   22.4070 O   0  0  0  0  0  0  0  0  0  0  0  0
  -24.9940  -34.0670   25.0230 H   0  0  0  0  0  0  0  0  0  0  0  0
  -24.1630  -36.7560   23.1250 C   0  0  0  0  0  1  0  0  0  0  0  0
  -25.4220  -36.3520   23.9090 C   0  0  0  0  0  3  0  0  0  0  0  0
  -27.5710  -37.2470   24.6940 C   0  0  0  0  0  1  0  0  0  0  0  0
  -26.4520  -37.4060   23.7690 N   0  0  0  0  0  0  0  0  0  0  0  0
  -26.0460  -38.3270   23.9130 H   0  0  0  0  0  0  0  0  0  0  0  0
  -26.3830  -31.7400   25.1730 C   0  0  1  0  0  0  0  0  0  0  0  0
  -25.2790  -31.5150   26.2330 C   0  0  0  0  0  1  0  0  0  0  0  0
  -26.9620  -30.3570   24.7980 C   0  0  0  0  0  1  0  0  0  0  0  0
  -27.5310  -32.5320   25.8390 C   0  0  0  0  0  1  0  0  0  0  0  0
  1 46  1  0
  1  5  1  0
  1  2  1  0
  3  1  1  0
  5  4  1  0
  7  6  1  0
  7 16  1  0
  7  5  1  0
  8 16  1  0
  9 14  1  0
 10 11  1  0
 10  9  1  0
 12 11  1  0
 12 21  1  0
 12 13  1  0
 14  8  1  0
 14 13  1  0
 15  8  2  0
 16 17  1  0
 18 19  2  0
 19 38  1  0
 20 19  1  0
 20 23  1  0
 21 18  1  0
 21 22  1  0
 22 20  2  0
 23 24  1  0
 24 25  2  0
 26 29  1  0
 26 25  1  0
 27 26  2  0
 28 27  1  0
 28 23  2  0
 29 30  1  0
 30 31  1  0
 31 32  2  0
 33 32  1  0
 33 37  1  0
 34 33  2  0
 35 30  2  0
 35 34  1  0
 36 35  1  0
 38 39  1  0
 39 42  1  0
 39 41  1  0
 40 38  2  0
 43 44  1  0
 43 18  1  0
 45 43  1  0
 47 46  1  0
 48 49  1  0
 48 47  2  0
 50 61  2  0
 51 49  1  0
 51 56  1  0
 52 60  1  0
 52 62  1  0
 53 59  1  0
 53 55  1  0
 54 60  1  0
 55 54  1  0
 56 55  2  0
 57 51  2  0
 58 57  1  0
 58 53  2  0
 59 52  1  0
 60 50  1  0
 62 64  2  0
 63 62  1  0
 65 63  1  0
 66 75  2  0
 66 71  1  0
 67 63  1  0
 67 71  1  0
 68 67  1  0
 69 70  1  0
 69 68  1  0
 70 66  1  0
 71 72  2  0
 72 73  1  0
 74 73  2  0
 75 74  1  0
 76 50  1  0
 76 77  1  0
 76 86  1  0
 77 80  1  0
 78 82  1  0
 78 77  1  0
 79 78  2  0
 82 81  1  0
 84 82  1  0
 84 85  1  0
 84 83  1  0
 86 89  1  1
 86 87  1  0
 88 86  1  0
M  ISO  4   8 100  16 100  48 101  49 101
M  END
>  <TORSDO>  (29) 
F 21

>  <SCORE>  (29) 
-13.351

>  <name>  (29) 
28

>  <ligand_id>  (29) 
28

>  <original_smiles>  (29) 
[H]c1c([H])c([H])c2c(c1[H])C([H])([H])C([H])([H])C([H])([H])C2([H])N([H])C(=O)C1([H])N(C(=O)C([H])(N([H])C(=O)C([H])(N([H])C([H])([H])[H])C([H])([H])[H])C(C([H])([H])[H])(C([H])([H])[H])C([H])([H])[H])C([H])([H])c2c([H])c(OC([H])([H])C([H])([H])C([H])([H])[N+]([H])([H])C([H])(C([H])([H])[H])C([H])(N([H])C(=O)N3C([H])([H])C([H])([H])C([H])([H])C([H])(n4nc(-c5c([H])c([H])c(Oc6c([H])c([H])c(F)c([H])c6F)c([H])c5[H])c(C(=O)N([H])[H])c4N([H])[H])C3([H])[H])C([H])([H])[H])c([H])c([H])c2C1([H])[H]

>  <smiles>  (29) 
[H]c1c([H])c([H])c2c(c1[H])C([H])([H])C([H])([H])C([H])([H])C2([H])N([H])C(=O)C1([H])N(C(=O)C([H])(N([H])C(=O)C([H])(N([H])C([H])([H])[H])C([H])([H])[H])C(C([H])([H])[H])(C([H])([H])[H])C([H])([H])[H])C([H])([H])c2c([H])c(OC([H])([H])C([H])([H])C([H])([H])[N+]([H])([H])C([H])(C([H])([H])[H])C([H])(N([H])C(=O)N3C([H])([H])C([H])([H])C([H])([H])C([H])(n4nc(-c5c([H])c([H])c(Oc6c([H])c([H])c(F)c([H])c6F)c([H])c5[H])c(C(=O)N([H])[H])c4N([H])[H])C3([H])[H])C([H])([H])[H])c([H])c([H])c2C1([H])[H]

$$$$
29:0:0
     RDKit          3D

 95102  0  0  1  0  0  0  0  0999 V2000
  -30.3990  -21.3200   18.3700 C   0  0  0  0  0  1  0  0  0  0  0  0
  -29.9460  -20.9510   19.8010 C   0  0  0  0  0  3  0  0  0  0  0  0
  -28.9260  -21.9910   20.2840 N   0  0  0  0  0  4  0  0  0  0  0  0
  -28.1940  -22.0310   19.5910 H   0  0  0  0  0  0  0  0  0  0  0  0
  -28.4940  -21.6350   21.1230 H   0  0  0  0  0  0  0  0  0  0  0  0
  -29.3540  -23.4330   20.5990 C   0  0  0  0  0  3  0  0  0  0  0  0
  -28.2260  -24.5520   20.4160 C   0  0  0  0  0  3  0  0  0  0  0  0
  -28.4910  -26.0070   20.6070 O   0  0  0  0  0  0  0  0  0  0  0  0
  -24.7440  -31.6370   23.1880 C   0  0  0  0  0  0  0  0  0  0  0  0
  -27.4000  -26.8910   20.4610 C   0  0  0  0  0  0  0  0  0  0  0  0
  -23.5900  -30.1890   21.5570 C   0  0  0  0  0  3  0  0  0  0  0  0
  -25.0740  -28.5560   20.2690 C   0  0  0  0  0  0  0  0  0  0  0  0
  -26.1440  -30.4510   21.4800 C   0  0  0  0  0  2  0  0  0  0  0  0
  -26.2260  -29.0440   20.8990 C   0  0  0  0  0  0  0  0  0  0  0  0
  -27.3940  -28.2250   20.9830 C   0  0  0  0  0  3  0  0  0  0  0  0
  -26.2230  -26.4630   19.8010 C   0  0  0  0  0  3  0  0  0  0  0  0
  -25.0760  -27.2710   19.7110 C   0  0  0  0  0  3  0  0  0  0  0  0
  -23.8560  -29.4540   20.2180 C   0  0  0  0  0  2  0  0  0  0  0  0
  -24.8430  -30.7780   22.1320 N   0  0  0  0  0  0  0  0  0  0  0  0
  -23.6410  -31.9570   23.6560 O   0  0  0  0  0  0  0  0  0  0  0  0
  -22.8640  -29.2260   22.5260 C   0  0  0  0  0  0  0  0  0  0  0  0
  -21.5340  -29.1040   22.3750 N   0  0  0  0  0  0  0  0  0  0  0  0
  -23.4970  -28.5910   23.3740 O   0  0  0  0  0  0  0  0  0  0  0  0
  -21.0850  -29.6670   21.6660 H   0  0  0  0  0  0  0  0  0  0  0  0
  -18.0890  -28.1120   22.8680 C   0  0  0  0  0  0  0  0  0  0  0  0
  -20.6580  -28.2260   23.1520 C   0  0  0  0  0  3  0  0  0  0  0  0
  -20.6790  -26.7840   22.5970 C   0  0  0  0  0  2  0  0  0  0  0  0
  -19.5660  -26.5110   21.5790 C   0  0  0  0  0  2  0  0  0  0  0  0
  -18.1910  -26.7460   22.2120 C   0  0  0  0  0  2  0  0  0  0  0  0
  -19.2490  -28.8140   23.2960 C   0  0  0  0  0  0  0  0  0  0  0  0
  -19.1000  -30.0950   23.8700 C   0  0  0  0  0  3  0  0  0  0  0  0
  -17.8250  -30.6730   24.0210 C   0  0  0  0  0  3  0  0  0  0  0  0
  -16.6810  -29.9680   23.6100 C   0  0  0  0  0  3  0  0  0  0  0  0
  -16.8140  -28.6900   23.0390 C   0  0  0  0  0  3  0  0  0  0  0  0
  -26.0080  -32.2740   23.8420 C   0  0  0  0  0  3  0  0  0  0  0  0
  -25.6820  -33.6690   24.1720 N   0  0  0  0  0  0  0  0  0  0  0  0
  -26.0500  -34.7300   23.4440 C   0  0  0  0  0  0  0  0  0  0  0  0
  -26.7700  -34.6390   22.4460 O   0  0  0  0  0  0  0  0  0  0  0  0
  -25.0480  -33.8130   24.9460 H   0  0  0  0  0  0  0  0  0  0  0  0
  -24.3520  -36.5370   23.0170 C   0  0  0  0  0  1  0  0  0  0  0  0
  -25.5410  -36.1140   23.8940 C   0  0  0  0  0  3  0  0  0  0  0  0
  -27.6230  -36.9790   24.8670 C   0  0  0  0  0  1  0  0  0  0  0  0
  -26.5830  -37.1640   23.8600 N   0  0  0  0  0  0  0  0  0  0  0  0
  -26.1720  -38.0830   23.9930 H   0  0  0  0  0  0  0  0  0  0  0  0
  -26.4990  -31.4990   25.1260 C   0  0  1  0  0  0  0  0  0  0  0  0
  -25.3810  -31.2410   26.1630 C   0  0  0  0  0  1  0  0  0  0  0  0
  -27.1090  -30.1310   24.7400 C   0  0  0  0  0  1  0  0  0  0  0  0
  -27.6220  -32.3020   25.8220 C   0  0  0  0  0  1  0  0  0  0  0  0
  -29.4550  -19.4120   19.8750 C   0  0  0  0  0  2  0  0  0  0  0  0
  -30.4530  -18.1830   19.6240 C   0  0  0  0  0  0  0  0  0  0  0  0
  -31.6020  -18.4500   19.2750 O   0  0  0  0  0  0  0  0  0  0  0  0
  -29.9430  -16.6470   19.7990 C   0  0  0  0  0  3  0  0  0  0  0  0
  -27.4430  -16.5110   19.9200 C   0  0  0  0  0  1  0  0  0  0  0  0
  -28.7130  -16.8040   20.6150 N   0  0  0  0  0  4  0  0  0  0  0  0
  -28.7940  -16.1860   21.4090 H   0  0  0  0  0  0  0  0  0  0  0  0
  -28.6870  -17.7450   20.9710 H   0  0  0  0  0  0  0  0  0  0  0  0
  -30.4190  -15.1070   21.9210 C   0  0  0  0  0  1  0  0  0  0  0  0
  -32.3070  -16.0480   20.7630 C   0  0  0  0  0  1  0  0  0  0  0  0
  -30.8850  -15.4680   20.4680 C   0  0  2  0  0  0  0  0  0  0  0  0
  -31.1180  -14.0940   19.6440 C   0  0  0  0  0  0  0  0  0  0  0  0
  -30.7500  -11.7090   18.9460 C   0  0  0  0  0  2  0  0  0  0  0  0
  -29.7760  -11.5940   17.7540 C   0  0  0  0  0  2  0  0  0  0  0  0
  -28.3220  -11.5160   18.2490 C   0  0  0  0  0  2  0  0  0  0  0  0
  -28.0070  -12.6080   19.2990 C   0  0  0  0  0  3  0  0  0  0  0  0
  -29.0950  -12.6740   20.3900 C   0  0  0  0  0  2  0  0  0  0  0  0
  -30.3990  -12.9130   19.7470 N   0  0  0  0  0  0  0  0  0  0  0  0
  -32.1090  -14.0830   18.9090 O   0  0  0  0  0  0  0  0  0  0  0  0
  -25.7150  -13.4020   20.1450 C   0  0  0  0  0  0  0  0  0  0  0  0
  -24.6270  -12.7260   20.6250 C   0  0  0  0  0  0  0  0  0  0  0  0
  -24.9880  -11.3430   20.6130 C   0  0  0  0  0  0  0  0  0  0  0  0
  -26.6760  -12.4400   19.8760 N   0  0  0  0  0  0  0  0  0  0  0  0
  -26.2470  -11.1980   20.2180 N   0  0  0  0  0  0  0  0  0  0  0  0
  -24.1860  -10.1460   20.8960 C   0  0  0  0  0  0  0  0  0  0  0  0
  -24.5650   -9.2220   21.8950 C   0  0  0  0  0  3  0  0  0  0  0  0
  -23.7660   -8.0870   22.1610 C   0  0  0  0  0  3  0  0  0  0  0  0
  -22.5750   -7.8710   21.4280 C   0  0  0  0  0  0  0  0  0  0  0  0
  -22.2150   -8.7810   20.4190 C   0  0  0  0  0  3  0  0  0  0  0  0
  -23.0130   -9.9060   20.1530 C   0  0  0  0  0  3  0  0  0  0  0  0
  -21.7510   -6.7850   21.6000 O   0  0  0  0  0  0  0  0  0  0  0  0
  -21.6550   -6.1380   22.8060 C   0  0  0  0  0  0  0  0  0  0  0  0
  -21.2410   -6.8060   23.9780 C   0  0  0  0  0  3  0  0  0  0  0  0
  -21.0900   -6.0870   25.1810 C   0  0  0  0  0  3  0  0  0  0  0  0
  -21.3420   -4.7020   25.2120 C   0  0  0  0  0  0  0  0  0  0  0  0
  -21.7500   -4.0350   24.0430 C   0  0  0  0  0  3  0  0  0  0  0  0
  -21.9030   -4.7500   22.8430 C   0  0  0  0  0  0  0  0  0  0  0  0
  -22.2750   -4.0980   21.7160 F   0  0  0  0  0  0  0  0  0  0  0  0
  -21.1900   -4.0110   26.3660 F   0  0  0  0  0  0  0  0  0  0  0  0
  -23.2910  -13.3160   20.9690 C   0  0  0  0  0  0  0  0  0  0  0  0
  -22.5760  -12.7080   21.9100 N   0  0  0  0  0  0  0  0  0  0  0  0
  -22.8930  -14.3500   20.4350 O   0  0  0  0  0  0  0  0  0  0  0  0
  -22.9110  -11.8690   22.3620 H   0  0  0  0  0  0  0  0  0  0  0  0
  -21.6800  -13.0870   22.1830 H   0  0  0  0  0  0  0  0  0  0  0  0
  -25.9580  -14.7470   19.8840 N   0  0  0  0  0  0  0  0  0  0  0  0
  -25.1670  -15.3810   19.8900 H   0  0  0  0  0  0  0  0  0  0  0  0
  -26.6530  -15.0070   19.1970 H   0  0  0  0  0  0  0  0  0  0  0  0
  2  1  1  0
  2 49  1  0
  2  3  1  0
  3  6  1  0
  3  5  1  0
  4  3  1  0
  7  6  2  0
  7  8  1  0
  9 20  2  0
 10  8  1  0
 10 15  1  0
 11 19  1  0
 11 21  1  0
 12 14  1  0
 13 19  1  0
 14 15  2  0
 14 13  1  0
 16 10  2  0
 17 16  1  0
 17 12  2  0
 18 12  1  0
 18 11  1  0
 19  9  1  0
 21 23  2  0
 22 21  1  0
 24 22  1  0
 25 34  2  0
 25 30  1  0
 26 22  1  0
 26 30  1  0
 27 26  1  0
 28 29  1  0
 28 27  1  0
 29 25  1  0
 30 31  2  0
 31 32  1  0
 33 32  2  0
 34 33  1  0
 35  9  1  0
 35 36  1  0
 35 45  1  0
 36 39  1  0
 37 41  1  0
 37 36  1  0
 38 37  2  0
 41 40  1  0
 43 41  1  0
 43 44  1  0
 43 42  1  0
 45 48  1  1
 45 46  1  0
 47 45  1  0
 50 49  1  0
 51 50  2  0
 52 50  1  0
 52 59  1  0
 52 54  1  0
 53 54  1  0
 54 56  1  0
 54 55  1  0
 59 58  1  1
 59 57  1  0
 60 66  1  0
 60 59  1  0
 61 66  1  0
 62 63  1  0
 62 61  1  0
 64 63  1  0
 64 71  1  0
 64 65  1  0
 66 65  1  0
 67 60  2  0
 68 69  2  0
 69 88  1  0
 70 69  1  0
 70 73  1  0
 71 68  1  0
 71 72  1  0
 72 70  2  0
 73 74  1  0
 74 75  2  0
 76 79  1  0
 76 75  1  0
 77 76  2  0
 78 77  1  0
 78 73  2  0
 79 80  1  0
 80 85  2  0
 80 81  1  0
 81 82  2  0
 82 83  1  0
 83 87  1  0
 84 83  2  0
 85 84  1  0
 86 85  1  0
 88 89  1  0
 89 92  1  0
 89 91  1  0
 90 88  2  0
 93 94  1  0
 93 68  1  0
 95 93  1  0
M  ISO  4   7 101   8 101  59 100  60 100
M  END
>  <TORSDO>  (30) 
F 24

>  <SCORE>  (30) 
-11.067

>  <name>  (30) 
29

>  <ligand_id>  (30) 
29

>  <original_smiles>  (30) 
[H]c1c([H])c([H])c2c(c1[H])C([H])([H])C([H])([H])C([H])([H])C2([H])N([H])C(=O)C1([H])N(C(=O)C([H])(N([H])C(=O)C([H])(N([H])C([H])([H])[H])C([H])([H])[H])C(C([H])([H])[H])(C([H])([H])[H])C([H])([H])[H])C([H])([H])c2c([H])c(OC([H])([H])C([H])([H])[N+]([H])([H])C([H])(C([H])([H])[H])C([H])([H])C(=O)C([H])(C(C(=O)N3C([H])([H])C([H])([H])C([H])([H])C([H])(n4nc(-c5c([H])c([H])c(Oc6c([H])c([H])c(F)c([H])c6F)c([H])c5[H])c(C(=O)N([H])[H])c4N([H])[H])C3([H])[H])(C([H])([H])[H])C([H])([H])[H])[N+]([H])([H])C([H])([H])[H])c([H])c([H])c2C1([H])[H]

>  <smiles>  (30) 
[H]c1c([H])c([H])c2c(c1[H])C([H])([H])C([H])([H])C([H])([H])C2([H])N([H])C(=O)C1([H])N(C(=O)C([H])(N([H])C(=O)C([H])(N([H])C([H])([H])[H])C([H])([H])[H])C(C([H])([H])[H])(C([H])([H])[H])C([H])([H])[H])C([H])([H])c2c([H])c(OC([H])([H])C([H])([H])[N+]([H])([H])C([H])(C([H])([H])[H])C([H])([H])C(=O)C([H])(C(C(=O)N3C([H])([H])C([H])([H])C([H])([H])C([H])(n4nc(-c5c([H])c([H])c(Oc6c([H])c([H])c(F)c([H])c6F)c([H])c5[H])c(C(=O)N([H])[H])c4N([H])[H])C3([H])[H])(C([H])([H])[H])C([H])([H])[H])[N+]([H])([H])C([H])([H])[H])c([H])c([H])c2C1([H])[H]

$$$$
30:0:0
     RDKit          3D

 85 92  0  0  1  0  0  0  0  0999 V2000
  -28.8210  -22.1980   20.6310 C   0  0  0  0  0  3  0  0  0  0  0  0
  -29.0250  -22.6520   22.0630 C   0  0  0  0  0  1  0  0  0  0  0  0
  -29.2170  -20.7490   20.5640 N   0  0  0  0  0  2  0  0  0  0  0  0
  -28.1550  -23.8270   19.9010 C   0  0  0  0  0  2  0  0  0  0  0  0
  -28.1670  -25.5220   20.3780 O   0  0  0  0  0  0  0  0  0  0  0  0
  -24.6460  -31.8120   23.2020 C   0  0  0  0  0  0  0  0  0  0  0  0
  -27.1960  -26.7270   20.2550 C   0  0  0  0  0  0  0  0  0  0  0  0
  -23.4630  -30.3970   21.5740 C   0  0  0  0  0  3  0  0  0  0  0  0
  -24.9180  -28.7430   20.1740 C   0  0  0  0  0  0  0  0  0  0  0  0
  -26.0410  -30.5470   21.4570 C   0  0  0  0  0  2  0  0  0  0  0  0
  -26.1090  -29.1110   20.8120 C   0  0  0  0  0  0  0  0  0  0  0  0
  -27.2280  -28.1280   20.8240 C   0  0  0  0  0  3  0  0  0  0  0  0
  -25.9750  -26.5680   19.5510 C   0  0  0  0  0  3  0  0  0  0  0  0
  -24.8900  -27.4980   19.5200 C   0  0  0  0  0  3  0  0  0  0  0  0
  -23.7070  -29.6890   20.2090 C   0  0  0  0  0  2  0  0  0  0  0  0
  -24.7400  -30.9530   22.1290 N   0  0  0  0  0  0  0  0  0  0  0  0
  -23.5510  -32.1140   23.7080 O   0  0  0  0  0  0  0  0  0  0  0  0
  -22.7470  -29.4280   22.5530 C   0  0  0  0  0  0  0  0  0  0  0  0
  -21.4160  -29.2670   22.4230 N   0  0  0  0  0  0  0  0  0  0  0  0
  -23.4010  -28.8160   23.4000 O   0  0  0  0  0  0  0  0  0  0  0  0
  -20.9370  -29.8110   21.7180 H   0  0  0  0  0  0  0  0  0  0  0  0
  -18.0340  -28.0340   22.9190 C   0  0  0  0  0  0  0  0  0  0  0  0
  -20.5880  -28.3370   23.2020 C   0  0  0  0  0  3  0  0  0  0  0  0
  -20.7100  -26.8960   22.6570 C   0  0  0  0  0  2  0  0  0  0  0  0
  -19.6240  -26.5430   21.6360 C   0  0  0  0  0  2  0  0  0  0  0  0
  -18.2340  -26.6790   22.2630 C   0  0  0  0  0  2  0  0  0  0  0  0
  -19.1380  -28.8190   23.3460 C   0  0  0  0  0  0  0  0  0  0  0  0
  -18.8940  -30.0840   23.9250 C   0  0  0  0  0  3  0  0  0  0  0  0
  -17.5800  -30.5640   24.0790 C   0  0  0  0  0  3  0  0  0  0  0  0
  -16.4900  -29.7780   23.6650 C   0  0  0  0  0  3  0  0  0  0  0  0
  -16.7180  -28.5150   23.0920 C   0  0  0  0  0  3  0  0  0  0  0  0
  -25.9070  -32.4700   23.8400 C   0  0  0  0  0  3  0  0  0  0  0  0
  -26.3920  -31.7320   25.1500 C   0  0  1  0  0  0  0  0  0  0  0  0
  -25.2770  -31.5310   26.2040 C   0  0  0  0  0  1  0  0  0  0  0  0
  -26.9750  -30.3390   24.8210 C   0  0  0  0  0  1  0  0  0  0  0  0
  -27.5350  -32.5380   25.8120 C   0  0  0  0  0  1  0  0  0  0  0  0
  -25.5860  -33.8770   24.1500 N   0  0  0  0  0  0  0  0  0  0  0  0
  -25.9180  -34.9300   23.3910 C   0  0  0  0  0  0  0  0  0  0  0  0
  -26.5820  -34.8190   22.3580 O   0  0  0  0  0  0  0  0  0  0  0  0
  -24.9930  -34.0350   24.9510 H   0  0  0  0  0  0  0  0  0  0  0  0
  -24.1780  -36.7250   23.0620 C   0  0  0  0  0  1  0  0  0  0  0  0
  -25.4400  -36.3260   23.8460 C   0  0  0  0  0  3  0  0  0  0  0  0
  -27.5890  -37.2330   24.6180 C   0  0  0  0  0  1  0  0  0  0  0  0
  -26.4670  -37.3820   23.6950 N   0  0  0  0  0  0  0  0  0  0  0  0
  -26.0610  -38.3020   23.8360 H   0  0  0  0  0  0  0  0  0  0  0  0
  -29.5440  -19.1890   19.7750 C   0  0  0  0  0  2  0  0  0  0  0  0
  -30.5640  -17.6450   21.6910 C   0  0  0  0  0  1  0  0  0  0  0  0
  -28.2730  -17.1150   20.8980 C   0  0  0  0  0  1  0  0  0  0  0  0
  -29.7110  -17.3740   20.4370 C   0  0  1  0  0  0  0  0  0  0  0  0
  -30.3660  -15.6680   19.9400 C   0  0  0  0  0  0  0  0  0  0  0  0
  -30.4090  -13.1300   19.0650 C   0  0  0  0  0  2  0  0  0  0  0  0
  -29.4470  -12.7910   17.8870 C   0  0  0  0  0  2  0  0  0  0  0  0
  -28.0390  -12.4440   18.3970 C   0  0  0  0  0  2  0  0  0  0  0  0
  -27.6060  -13.4090   19.5230 C   0  0  0  0  0  3  0  0  0  0  0  0
  -28.7020  -13.6390   20.5890 C   0  0  0  0  0  2  0  0  0  0  0  0
  -29.8570  -14.2860   19.9140 N   0  0  0  0  0  0  0  0  0  0  0  0
  -31.5520  -15.5920   19.5620 O   0  0  0  0  0  0  0  0  0  0  0  0
  -25.2810  -13.9280   20.4130 C   0  0  0  0  0  0  0  0  0  0  0  0
  -24.2430  -13.1440   20.8240 C   0  0  0  0  0  0  0  0  0  0  0  0
  -24.7090  -11.7960   20.7460 C   0  0  0  0  0  0  0  0  0  0  0  0
  -26.3130  -13.0630   20.1010 N   0  0  0  0  0  0  0  0  0  0  0  0
  -25.9850  -11.7700   20.3670 N   0  0  0  0  0  0  0  0  0  0  0  0
  -23.9890  -10.5320   20.9510 C   0  0  0  0  0  0  0  0  0  0  0  0
  -24.4450   -9.5600   21.8670 C   0  0  0  0  0  3  0  0  0  0  0  0
  -23.7180   -8.3650   22.0650 C   0  0  0  0  0  3  0  0  0  0  0  0
  -22.5210   -8.1350   21.3460 C   0  0  0  0  0  0  0  0  0  0  0  0
  -22.0830   -9.0960   20.4180 C   0  0  0  0  0  3  0  0  0  0  0  0
  -22.8100  -10.2820   20.2200 C   0  0  0  0  0  3  0  0  0  0  0  0
  -21.7640   -6.9930   21.4520 O   0  0  0  0  0  0  0  0  0  0  0  0
  -21.7310   -6.2580   22.6100 C   0  0  0  0  0  0  0  0  0  0  0  0
  -21.3230   -6.8210   23.8390 C   0  0  0  0  0  3  0  0  0  0  0  0
  -21.2360   -6.0120   24.9890 C   0  0  0  0  0  3  0  0  0  0  0  0
  -21.5470   -4.6420   24.9130 C   0  0  0  0  0  0  0  0  0  0  0  0
  -21.9480   -4.0780   23.6890 C   0  0  0  0  0  3  0  0  0  0  0  0
  -22.0360   -4.8840   22.5400 C   0  0  0  0  0  0  0  0  0  0  0  0
  -22.4030   -4.3300   21.3590 F   0  0  0  0  0  0  0  0  0  0  0  0
  -21.4570   -3.8630   26.0170 F   0  0  0  0  0  0  0  0  0  0  0  0
  -22.8620  -13.6200   21.1680 C   0  0  0  0  0  0  0  0  0  0  0  0
  -22.1770  -12.9180   22.0640 N   0  0  0  0  0  0  0  0  0  0  0  0
  -22.4030  -14.6520   20.6810 O   0  0  0  0  0  0  0  0  0  0  0  0
  -22.5650  -12.0840   22.4790 H   0  0  0  0  0  0  0  0  0  0  0  0
  -21.2530  -13.2190   22.3390 H   0  0  0  0  0  0  0  0  0  0  0  0
  -25.4220  -15.3000   20.2470 N   0  0  0  0  0  0  0  0  0  0  0  0
  -24.6580  -15.9450   20.4170 H   0  0  0  0  0  0  0  0  0  0  0  0
  -26.2520  -15.7520   19.8890 H   0  0  0  0  0  0  0  0  0  0  0  0
  1  2  1  0
  3  1  1  0
  4  5  1  0
  4  1  1  0
  6 17  2  0
  7  5  1  0
  7 12  1  0
  8 16  1  0
  8 18  1  0
  9 15  1  0
  9 11  1  0
 10 16  1  0
 11 12  2  0
 11 10  1  0
 13  7  2  0
 14 13  1  0
 14  9  2  0
 15  8  1  0
 16  6  1  0
 18 20  2  0
 19 18  1  0
 21 19  1  0
 22 31  2  0
 22 27  1  0
 23 19  1  0
 23 27  1  0
 24 23  1  0
 25 26  1  0
 25 24  1  0
 26 22  1  0
 27 28  2  0
 28 29  1  0
 30 29  2  0
 31 30  1  0
 32  6  1  0
 32 37  1  0
 32 33  1  0
 33 36  1  1
 33 34  1  0
 35 33  1  0
 37 40  1  0
 38 42  1  0
 38 37  1  0
 39 38  2  0
 42 41  1  0
 44 45  1  0
 44 42  1  0
 44 43  1  0
 46 49  1  0
 46  3  1  0
 49 48  1  1
 49 47  1  0
 50 49  1  0
 51 56  1  0
 52 53  1  0
 52 51  1  0
 54 53  1  0
 54 61  1  0
 54 55  1  0
 56 50  1  0
 56 55  1  0
 57 50  2  0
 58 59  2  0
 59 78  1  0
 60 59  1  0
 60 63  1  0
 61 62  1  0
 61 58  1  0
 62 60  2  0
 63 64  1  0
 64 65  2  0
 66 69  1  0
 66 65  1  0
 67 66  2  0
 68 67  1  0
 68 63  2  0
 69 70  1  0
 70 71  1  0
 71 72  2  0
 73 72  1  0
 73 77  1  0
 74 73  2  0
 75 70  2  0
 75 74  1  0
 76 75  1  0
 78 79  1  0
 79 82  1  0
 79 81  1  0
 80 78  2  0
 83 58  1  0
 83 84  1  0
 85 83  1  0
M  ISO  4   4 101   5 101  49 100  50 100
M  END
>  <TORSDO>  (31) 
F 19

>  <SCORE>  (31) 
-16.227

>  <name>  (31) 
30

>  <ligand_id>  (31) 
30

>  <original_smiles>  (31) 
[H]c1c([H])c([H])c2c(c1[H])C([H])([H])C([H])([H])C([H])([H])C2([H])N([H])C(=O)C1([H])N(C(=O)C([H])(N([H])C(=O)C([H])(N([H])C([H])([H])[H])C([H])([H])[H])C(C([H])([H])[H])(C([H])([H])[H])C([H])([H])[H])C([H])([H])c2c([H])c(OC([H])([H])C(=NC([H])([H])C(C(=O)N3C([H])([H])C([H])([H])C([H])([H])C([H])(n4nc(-c5c([H])c([H])c(Oc6c([H])c([H])c(F)c([H])c6F)c([H])c5[H])c(C(=O)N([H])[H])c4N([H])[H])C3([H])[H])(C([H])([H])[H])C([H])([H])[H])C([H])([H])[H])c([H])c([H])c2C1([H])[H]

>  <smiles>  (31) 
[H]c1c([H])c([H])c2c(c1[H])C([H])([H])C([H])([H])C([H])([H])C2([H])N([H])C(=O)C1([H])N(C(=O)C([H])(N([H])C(=O)C([H])(N([H])C([H])([H])[H])C([H])([H])[H])C(C([H])([H])[H])(C([H])([H])[H])C([H])([H])[H])C([H])([H])c2c([H])c(OC([H])([H])C(=NC([H])([H])C(C(=O)N3C([H])([H])C([H])([H])C([H])([H])C([H])(n4nc(-c5c([H])c([H])c(Oc6c([H])c([H])c(F)c([H])c6F)c([H])c5[H])c(C(=O)N([H])[H])c4N([H])[H])C3([H])[H])(C([H])([H])[H])C([H])([H])[H])C([H])([H])[H])c([H])c([H])c2C1([H])[H]

$$$$
31:0:0
     RDKit          3D

 92100  0  0  1  0  0  0  0  0999 V2000
  -28.1640  -19.1450   21.4560 C   0  0  0  0  0  3  0  0  0  0  0  0
  -28.7420  -18.0030   20.8810 C   0  0  0  0  0  3  0  0  0  0  0  0
  -28.3720  -20.4120   20.8910 C   0  0  0  0  0  3  0  0  0  0  0  0
  -29.7400  -19.4060   19.1490 C   0  0  0  0  0  3  0  0  0  0  0  0
  -29.5560  -18.1190   19.7370 C   0  0  0  0  0  0  0  0  0  0  0  0
  -29.1480  -20.5750   19.7180 C   0  0  0  0  0  0  0  0  0  0  0  0
  -29.3200  -21.8520   19.1250 N   0  0  0  0  0  0  0  0  0  0  0  0
  -29.8620  -21.9370   18.2670 H   0  0  0  0  0  0  0  0  0  0  0  0
  -29.0220  -23.0860   19.8810 C   0  0  0  0  0  2  0  0  0  0  0  0
  -29.0440  -24.4050   19.0540 C   0  0  0  0  0  2  0  0  0  0  0  0
  -28.5340  -25.6360   19.8590 C   0  0  0  0  0  2  0  0  0  0  0  0
  -28.5350  -26.8710   19.1120 O   0  0  0  0  0  0  0  0  0  0  0  0
  -24.8070  -31.6000   22.9220 C   0  0  0  0  0  0  0  0  0  0  0  0
  -27.3770  -27.6120   19.2260 C   0  0  0  0  0  0  0  0  0  0  0  0
  -23.5490  -30.3730   21.1790 C   0  0  0  0  0  3  0  0  0  0  0  0
  -24.9650  -29.0560   19.5110 C   0  0  0  0  0  0  0  0  0  0  0  0
  -26.0510  -30.8200   20.9060 C   0  0  0  0  0  2  0  0  0  0  0  0
  -26.1360  -29.5340   20.1060 C   0  0  0  0  0  0  0  0  0  0  0  0
  -27.3520  -28.8220   19.9590 C   0  0  0  0  0  3  0  0  0  0  0  0
  -26.1920  -27.1580   18.6130 C   0  0  0  0  0  3  0  0  0  0  0  0
  -24.9890  -27.8730   18.7470 C   0  0  0  0  0  3  0  0  0  0  0  0
  -23.7030  -29.8630   19.7190 C   0  0  0  0  0  2  0  0  0  0  0  0
  -24.8240  -30.9390   21.7270 N   0  0  0  0  0  0  0  0  0  0  0  0
  -23.7500  -31.7770   23.5410 O   0  0  0  0  0  0  0  0  0  0  0  0
  -22.9650  -29.2290   22.0420 C   0  0  0  0  0  0  0  0  0  0  0  0
  -21.6430  -29.0180   21.9500 N   0  0  0  0  0  0  0  0  0  0  0  0
  -23.7000  -28.5430   22.7580 O   0  0  0  0  0  0  0  0  0  0  0  0
  -21.1050  -29.6220   21.3430 H   0  0  0  0  0  0  0  0  0  0  0  0
  -18.3390  -27.6400   22.4180 C   0  0  0  0  0  0  0  0  0  0  0  0
  -20.8900  -27.9690   22.6380 C   0  0  0  0  0  3  0  0  0  0  0  0
  -21.0240  -26.6100   21.9100 C   0  0  0  0  0  2  0  0  0  0  0  0
  -19.9010  -26.3460   20.9010 C   0  0  0  0  0  2  0  0  0  0  0  0
  -18.5410  -26.3750   21.6030 C   0  0  0  0  0  2  0  0  0  0  0  0
  -19.4400  -28.3990   22.8910 C   0  0  0  0  0  0  0  0  0  0  0  0
  -19.1960  -29.5850   23.6170 C   0  0  0  0  0  3  0  0  0  0  0  0
  -17.8780  -30.0110   23.8790 C   0  0  0  0  0  3  0  0  0  0  0  0
  -16.7900  -29.2500   23.4170 C   0  0  0  0  0  3  0  0  0  0  0  0
  -17.0220  -28.0660   22.6900 C   0  0  0  0  0  3  0  0  0  0  0  0
  -26.1120  -32.1840   23.5530 C   0  0  0  0  0  3  0  0  0  0  0  0
  -25.7870  -33.5220   24.0630 N   0  0  0  0  0  0  0  0  0  0  0  0
  -26.0710  -34.6680   23.4250 C   0  0  0  0  0  0  0  0  0  0  0  0
  -26.7020  -34.7090   22.3660 O   0  0  0  0  0  0  0  0  0  0  0  0
  -25.2250  -33.5610   24.8980 H   0  0  0  0  0  0  0  0  0  0  0  0
  -24.2970  -36.4470   23.3630 C   0  0  0  0  0  1  0  0  0  0  0  0
  -25.5770  -35.9750   24.0720 C   0  0  0  0  0  3  0  0  0  0  0  0
  -27.7220  -36.8050   24.9290 C   0  0  0  0  0  1  0  0  0  0  0  0
  -26.5840  -37.0580   24.0480 N   0  0  0  0  0  0  0  0  0  0  0  0
  -26.1660  -37.9450   24.3190 H   0  0  0  0  0  0  0  0  0  0  0  0
  -26.7120  -31.2760   24.6950 C   0  0  1  0  0  0  0  0  0  0  0  0
  -25.6770  -30.8690   25.7690 C   0  0  0  0  0  1  0  0  0  0  0  0
  -27.3150  -29.9830   24.0950 C   0  0  0  0  0  1  0  0  0  0  0  0
  -27.8710  -32.0180   25.4010 C   0  0  0  0  0  1  0  0  0  0  0  0
  -30.1370  -16.8230   19.1330 C   0  0  0  0  0  2  0  0  0  0  0  0
  -31.5380  -14.8570   19.3430 C   0  0  0  0  0  0  0  0  0  0  0  0
  -31.0640  -12.5870   18.4920 C   0  0  0  0  0  2  0  0  0  0  0  0
  -30.0170  -12.6410   17.3630 C   0  0  0  0  0  2  0  0  0  0  0  0
  -28.6050  -12.5090   17.9540 C   0  0  0  0  0  2  0  0  0  0  0  0
  -28.3670  -13.4780   19.1400 C   0  0  0  0  0  3  0  0  0  0  0  0
  -29.5420  -13.4740   20.1530 C   0  0  0  0  0  2  0  0  0  0  0  0
  -30.7940  -13.7050   19.4160 N   0  0  0  0  0  0  0  0  0  0  0  0
  -32.5930  -14.8770   18.7010 O   0  0  0  0  0  0  0  0  0  0  0  0
  -31.1120  -16.0190   19.9310 N   0  0  0  0  0  0  0  0  0  0  0  0
  -26.1300  -14.1480   20.2090 C   0  0  0  0  0  0  0  0  0  0  0  0
  -25.0740  -13.4100   20.6660 C   0  0  0  0  0  0  0  0  0  0  0  0
  -25.4460  -12.0390   20.4940 C   0  0  0  0  0  0  0  0  0  0  0  0
  -27.0810  -13.2310   19.7870 N   0  0  0  0  0  0  0  0  0  0  0  0
  -26.6860  -11.9530   20.0230 N   0  0  0  0  0  0  0  0  0  0  0  0
  -24.6720  -10.8110   20.6970 C   0  0  0  0  0  0  0  0  0  0  0  0
  -25.0410   -9.8610   21.6760 C   0  0  0  0  0  3  0  0  0  0  0  0
  -24.2690   -8.6940   21.8620 C   0  0  0  0  0  3  0  0  0  0  0  0
  -23.1160   -8.4730   21.0730 C   0  0  0  0  0  0  0  0  0  0  0  0
  -22.7660   -9.4140   20.0910 C   0  0  0  0  0  3  0  0  0  0  0  0
  -23.5350  -10.5730   19.9000 C   0  0  0  0  0  3  0  0  0  0  0  0
  -22.3190   -7.3580   21.1690 O   0  0  0  0  0  0  0  0  0  0  0  0
  -22.0470   -6.7730   22.3810 C   0  0  0  0  0  0  0  0  0  0  0  0
  -21.4010   -7.4780   23.4200 C   0  0  0  0  0  3  0  0  0  0  0  0
  -21.0770   -6.8190   24.6210 C   0  0  0  0  0  3  0  0  0  0  0  0
  -21.3850   -5.4540   24.7830 C   0  0  0  0  0  0  0  0  0  0  0  0
  -22.0210   -4.7500   23.7480 C   0  0  0  0  0  3  0  0  0  0  0  0
  -22.3500   -5.4070   22.5490 C   0  0  0  0  0  0  0  0  0  0  0  0
  -22.9450   -4.7180   21.5460 F   0  0  0  0  0  0  0  0  0  0  0  0
  -21.0710   -4.8170   25.9370 F   0  0  0  0  0  0  0  0  0  0  0  0
  -23.7580  -13.9460   21.1540 C   0  0  0  0  0  0  0  0  0  0  0  0
  -23.1060  -13.2440   22.0740 N   0  0  0  0  0  0  0  0  0  0  0  0
  -23.3230  -15.0280   20.7580 O   0  0  0  0  0  0  0  0  0  0  0  0
  -23.4730  -12.3740   22.4290 H   0  0  0  0  0  0  0  0  0  0  0  0
  -22.2260  -13.5910   22.4240 H   0  0  0  0  0  0  0  0  0  0  0  0
  -26.3460  -15.5200   20.1080 N   0  0  0  0  0  0  0  0  0  0  0  0
  -25.6230  -16.1820   20.3670 H   0  0  0  0  0  0  0  0  0  0  0  0
  -27.1650  -15.9650   19.7150 H   0  0  0  0  0  0  0  0  0  0  0  0
  -31.9460  -17.3040   21.9730 C   0  0  0  0  0  1  0  0  0  0  0  0
  -32.1800  -16.8920   20.5100 C   0  0  0  0  0  2  0  0  0  0  0  0
  2  1  2  0
  3  1  1  0
  4  6  1  0
  4  5  2  0
  5  2  1  0
  6  3  2  0
  7  6  1  0
  7  9  1  0
  8  7  1  0
 10 11  1  0
 10  9  1  0
 12 14  1  0
 12 11  1  0
 13 24  2  0
 14 19  1  0
 15 23  1  0
 15 25  1  0
 16 22  1  0
 16 18  1  0
 17 23  1  0
 18 17  1  0
 19 18  2  0
 20 21  1  0
 20 14  2  0
 21 16  2  0
 22 15  1  0
 23 13  1  0
 25 27  2  0
 26 25  1  0
 28 26  1  0
 29 38  2  0
 29 34  1  0
 30 26  1  0
 30 34  1  0
 31 30  1  0
 32 33  1  0
 32 31  1  0
 33 29  1  0
 34 35  2  0
 35 36  1  0
 37 36  2  0
 38 37  1  0
 39 13  1  0
 39 40  1  0
 39 49  1  0
 40 43  1  0
 41 40  1  0
 41 45  1  0
 42 41  2  0
 45 44  1  0
 47 45  1  0
 47 48  1  0
 47 46  1  0
 49 52  1  1
 49 50  1  0
 51 49  1  0
 53  5  1  0
 53 62  1  0
 54 60  1  0
 54 62  1  0
 55 60  1  0
 56 57  1  0
 56 55  1  0
 58 57  1  0
 58 66  1  0
 58 59  1  0
 60 59  1  0
 61 54  2  0
 62 92  1  0
 63 64  2  0
 64 83  1  0
 65 64  1  0
 65 68  1  0
 66 67  1  0
 66 63  1  0
 67 65  2  0
 68 69  1  0
 69 70  2  0
 71 74  1  0
 71 70  1  0
 72 71  2  0
 73 72  1  0
 73 68  2  0
 74 75  1  0
 75 80  2  0
 75 76  1  0
 76 77  2  0
 77 78  1  0
 78 82  1  0
 79 78  2  0
 80 79  1  0
 81 80  1  0
 83 84  1  0
 84 87  1  0
 84 86  1  0
 85 83  2  0
 88 63  1  0
 88 89  1  0
 90 88  1  0
 92 91  1  0
M  ISO  4  11 101  12 101  54 100  62 100
M  END
>  <TORSDO>  (32) 
F 22

>  <SCORE>  (32) 
-7.892

>  <name>  (32) 
31

>  <ligand_id>  (32) 
31

>  <original_smiles>  (32) 
[H]c1c([H])c(N([H])C([H])([H])C([H])([H])C([H])([H])Oc2c([H])c([H])c3c(c2[H])C([H])([H])N(C(=O)C([H])(N([H])C(=O)C([H])(N([H])C([H])([H])[H])C([H])([H])[H])C(C([H])([H])[H])(C([H])([H])[H])C([H])([H])[H])C([H])(C(=O)N([H])C2([H])c4c([H])c([H])c([H])c([H])c4C([H])([H])C([H])([H])C2([H])[H])C3([H])[H])c([H])c(C([H])([H])N(C(=O)N2C([H])([H])C([H])([H])C([H])([H])C([H])(n3nc(-c4c([H])c([H])c(Oc5c([H])c([H])c(F)c([H])c5F)c([H])c4[H])c(C(=O)N([H])[H])c3N([H])[H])C2([H])[H])C([H])([H])C([H])([H])[H])c1[H]

>  <smiles>  (32) 
[H]c1c([H])c(N([H])C([H])([H])C([H])([H])C([H])([H])Oc2c([H])c([H])c3c(c2[H])C([H])([H])N(C(=O)C([H])(N([H])C(=O)C([H])(N([H])C([H])([H])[H])C([H])([H])[H])C(C([H])([H])[H])(C([H])([H])[H])C([H])([H])[H])C([H])(C(=O)N([H])C2([H])c4c([H])c([H])c([H])c([H])c4C([H])([H])C([H])([H])C2([H])[H])C3([H])[H])c([H])c(C([H])([H])N(C(=O)N2C([H])([H])C([H])([H])C([H])([H])C([H])(n3nc(-c4c([H])c([H])c(Oc5c([H])c([H])c(F)c([H])c5F)c([H])c4[H])c(C(=O)N([H])[H])c3N([H])[H])C2([H])[H])C([H])([H])C([H])([H])[H])c1[H]

$$$$
32:0:0
     RDKit          3D

 91 98  0  0  1  0  0  0  0  0999 V2000
  -28.9990  -23.9100   20.5530 C   0  0  0  0  0  0  0  0  0  0  0  0
  -28.9630  -22.6030   20.1210 N   0  0  0  0  0  0  0  0  0  0  0  0
  -29.6220  -24.2230   21.5690 O   0  0  0  0  0  0  0  0  0  0  0  0
  -28.4720  -22.4650   19.2480 H   0  0  0  0  0  0  0  0  0  0  0  0
  -28.1700  -25.0110   19.7750 C   0  0  0  0  0  2  0  0  0  0  0  0
  -28.3150  -26.4330   20.2070 O   0  0  0  0  0  0  0  0  0  0  0  0
  -24.6050  -31.8660   23.2020 C   0  0  0  0  0  0  0  0  0  0  0  0
  -27.2020  -27.2970   20.1300 C   0  0  0  0  0  0  0  0  0  0  0  0
  -23.3960  -30.4690   21.5670 C   0  0  0  0  0  3  0  0  0  0  0  0
  -24.8390  -28.9270   20.1290 C   0  0  0  0  0  0  0  0  0  0  0  0
  -25.9350  -30.7830   21.3760 C   0  0  0  0  0  2  0  0  0  0  0  0
  -26.0110  -29.4030   20.7310 C   0  0  0  0  0  0  0  0  0  0  0  0
  -27.1900  -28.5960   20.7310 C   0  0  0  0  0  3  0  0  0  0  0  0
  -26.0120  -26.8960   19.4750 C   0  0  0  0  0  3  0  0  0  0  0  0
  -24.8440  -27.6790   19.4930 C   0  0  0  0  0  3  0  0  0  0  0  0
  -23.6050  -29.8030   20.1830 C   0  0  0  0  0  2  0  0  0  0  0  0
  -24.6650  -31.0560   22.1050 N   0  0  0  0  0  0  0  0  0  0  0  0
  -23.5230  -32.1440   23.7390 O   0  0  0  0  0  0  0  0  0  0  0  0
  -22.7390  -29.4480   22.5260 C   0  0  0  0  0  0  0  0  0  0  0  0
  -21.4120  -29.2710   22.4050 N   0  0  0  0  0  0  0  0  0  0  0  0
  -23.4210  -28.8200   23.3410 O   0  0  0  0  0  0  0  0  0  0  0  0
  -20.9210  -29.8310   21.7230 H   0  0  0  0  0  0  0  0  0  0  0  0
  -18.0380  -28.0690   22.9110 C   0  0  0  0  0  0  0  0  0  0  0  0
  -20.5960  -28.3350   23.1810 C   0  0  0  0  0  3  0  0  0  0  0  0
  -20.7020  -26.9010   22.6110 C   0  0  0  0  0  2  0  0  0  0  0  0
  -19.6000  -26.5720   21.6000 C   0  0  0  0  0  2  0  0  0  0  0  0
  -18.2170  -26.7180   22.2420 C   0  0  0  0  0  2  0  0  0  0  0  0
  -19.1550  -28.8360   23.3390 C   0  0  0  0  0  0  0  0  0  0  0  0
  -18.9340  -30.1010   23.9240 C   0  0  0  0  0  3  0  0  0  0  0  0
  -17.6270  -30.5980   24.0910 C   0  0  0  0  0  3  0  0  0  0  0  0
  -16.5260  -29.8300   23.6780 C   0  0  0  0  0  3  0  0  0  0  0  0
  -16.7310  -28.5690   23.0920 C   0  0  0  0  0  3  0  0  0  0  0  0
  -25.8900  -32.4980   23.8180 C   0  0  0  0  0  3  0  0  0  0  0  0
  -25.5780  -33.8940   24.1560 N   0  0  0  0  0  0  0  0  0  0  0  0
  -25.9020  -34.9520   23.4000 C   0  0  0  0  0  0  0  0  0  0  0  0
  -26.5670  -34.8560   22.3650 O   0  0  0  0  0  0  0  0  0  0  0  0
  -24.9820  -34.0430   24.9570 H   0  0  0  0  0  0  0  0  0  0  0  0
  -24.1650  -36.7430   23.0680 C   0  0  0  0  0  1  0  0  0  0  0  0
  -25.4140  -36.3360   23.8680 C   0  0  0  0  0  3  0  0  0  0  0  0
  -27.5540  -37.2240   24.6850 C   0  0  0  0  0  1  0  0  0  0  0  0
  -26.4400  -37.3950   23.7530 N   0  0  0  0  0  0  0  0  0  0  0  0
  -26.0330  -38.3130   23.9130 H   0  0  0  0  0  0  0  0  0  0  0  0
  -26.4140  -31.7210   25.0870 C   0  0  1  0  0  0  0  0  0  0  0  0
  -25.3290  -31.4780   26.1610 C   0  0  0  0  0  1  0  0  0  0  0  0
  -26.9950  -30.3460   24.6860 C   0  0  0  0  0  1  0  0  0  0  0  0
  -27.5680  -32.5140   25.7460 C   0  0  0  0  0  1  0  0  0  0  0  0
  -29.4390  -21.3470   20.8320 C   0  0  0  0  0  2  0  0  0  0  0  0
  -29.4550  -19.9390   20.0420 C   0  0  0  0  0  3  0  0  0  0  0  0
  -29.7460  -18.6770   20.8580 N   0  0  0  0  0  4  0  0  0  0  0  0
  -30.4250  -18.8980   21.5690 H   0  0  0  0  0  0  0  0  0  0  0  0
  -28.8660  -18.4930   21.3140 H   0  0  0  0  0  0  0  0  0  0  0  0
  -30.1840  -17.3870   20.1540 C   0  0  0  0  0  3  0  0  0  0  0  0
  -29.9760  -15.9930   20.9320 C   0  0  0  0  0  3  0  0  0  0  0  0
  -30.6740  -14.6760   20.3630 C   0  0  0  0  0  0  0  0  0  0  0  0
  -30.4150  -12.4420   19.2770 C   0  0  0  0  0  2  0  0  0  0  0  0
  -29.4720  -12.5960   18.0630 C   0  0  0  0  0  2  0  0  0  0  0  0
  -27.9990  -12.4530   18.4920 C   0  0  0  0  0  2  0  0  0  0  0  0
  -27.6570  -13.3080   19.7420 C   0  0  0  0  0  3  0  0  0  0  0  0
  -28.7180  -13.1340   20.8500 C   0  0  0  0  0  2  0  0  0  0  0  0
  -30.0280  -13.4650   20.2740 N   0  0  0  0  0  0  0  0  0  0  0  0
  -31.8170  -14.7890   19.9130 O   0  0  0  0  0  0  0  0  0  0  0  0
  -25.2720  -13.9350   20.4530 C   0  0  0  0  0  0  0  0  0  0  0  0
  -24.1960  -13.1760   20.8310 C   0  0  0  0  0  0  0  0  0  0  0  0
  -24.6440  -11.8200   20.8140 C   0  0  0  0  0  0  0  0  0  0  0  0
  -26.3060  -13.0420   20.2280 N   0  0  0  0  0  0  0  0  0  0  0  0
  -25.9330  -11.7650   20.5030 N   0  0  0  0  0  0  0  0  0  0  0  0
  -23.9020  -10.5690   21.0160 C   0  0  0  0  0  0  0  0  0  0  0  0
  -24.3390   -9.5950   21.9410 C   0  0  0  0  0  3  0  0  0  0  0  0
  -23.6010   -8.4090   22.1340 C   0  0  0  0  0  3  0  0  0  0  0  0
  -22.4110   -8.1860   21.4010 C   0  0  0  0  0  0  0  0  0  0  0  0
  -21.9920   -9.1480   20.4650 C   0  0  0  0  0  3  0  0  0  0  0  0
  -22.7300  -10.3270   20.2710 C   0  0  0  0  0  3  0  0  0  0  0  0
  -21.6420   -7.0510   21.5020 O   0  0  0  0  0  0  0  0  0  0  0  0
  -21.6190   -6.2980   22.6470 C   0  0  0  0  0  0  0  0  0  0  0  0
  -21.2550   -6.8500   23.8950 C   0  0  0  0  0  3  0  0  0  0  0  0
  -21.1760   -6.0250   25.0340 C   0  0  0  0  0  3  0  0  0  0  0  0
  -21.4510   -4.6490   24.9280 C   0  0  0  0  0  0  0  0  0  0  0  0
  -21.8070   -4.0960   23.6850 C   0  0  0  0  0  3  0  0  0  0  0  0
  -21.8880   -4.9190   22.5490 C   0  0  0  0  0  0  0  0  0  0  0  0
  -22.2110   -4.3760   21.3500 F   0  0  0  0  0  0  0  0  0  0  0  0
  -21.3670   -3.8540   26.0200 F   0  0  0  0  0  0  0  0  0  0  0  0
  -22.8040  -13.6730   21.0990 C   0  0  0  0  0  0  0  0  0  0  0  0
  -22.0710  -12.9940   21.9740 N   0  0  0  0  0  0  0  0  0  0  0  0
  -22.3750  -14.6970   20.5690 O   0  0  0  0  0  0  0  0  0  0  0  0
  -22.4340  -12.1670   22.4270 H   0  0  0  0  0  0  0  0  0  0  0  0
  -21.1370  -13.3060   22.1960 H   0  0  0  0  0  0  0  0  0  0  0  0
  -25.4520  -15.3010   20.2600 N   0  0  0  0  0  0  0  0  0  0  0  0
  -24.6890  -15.9650   20.3480 H   0  0  0  0  0  0  0  0  0  0  0  0
  -26.3000  -15.7230   19.9070 H   0  0  0  0  0  0  0  0  0  0  0  0
  -28.0860  -19.6880   19.4000 C   0  0  0  0  0  3  0  0  0  0  0  0
  -27.2030  -18.9960   19.9200 O   0  0  0  0  0  0  0  0  0  0  0  0
  1  3  2  0
  2  1  1  0
  2 47  1  0
  4  2  1  0
  5  6  1  0
  5  1  1  0
  7 18  2  0
  8  6  1  0
  8 13  1  0
  9 17  1  0
  9 19  1  0
 10 16  1  0
 10 12  1  0
 11 17  1  0
 12 11  1  0
 13 12  2  0
 14 15  1  0
 14  8  2  0
 15 10  2  0
 16  9  1  0
 17  7  1  0
 19 21  2  0
 20 19  1  0
 22 20  1  0
 23 32  2  0
 23 28  1  0
 24 20  1  0
 24 28  1  0
 25 24  1  0
 26 27  1  0
 26 25  1  0
 27 23  1  0
 28 29  2  0
 29 30  1  0
 31 30  2  0
 32 31  1  0
 33  7  1  0
 33 34  1  0
 33 43  1  0
 34 37  1  0
 35 39  1  0
 35 34  1  0
 36 35  2  0
 39 38  1  0
 41 39  1  0
 41 42  1  0
 41 40  1  0
 43 46  1  1
 43 44  1  0
 45 43  1  0
 48 90  1  0
 48 47  1  0
 48 49  1  0
 49 51  1  0
 49 50  1  0
 52 49  1  0
 52 53  2  0
 54 53  1  0
 55 60  1  0
 56 57  1  0
 56 55  1  0
 58 57  1  0
 58 65  1  0
 58 59  1  0
 60 54  1  0
 60 59  1  0
 61 54  2  0
 62 63  2  0
 63 82  1  0
 64 63  1  0
 64 67  1  0
 65 62  1  0
 65 66  1  0
 66 64  2  0
 67 68  1  0
 68 69  2  0
 70 73  1  0
 70 69  1  0
 71 70  2  0
 72 71  1  0
 72 67  2  0
 73 74  1  0
 74 75  1  0
 75 76  2  0
 77 76  1  0
 77 81  1  0
 78 77  2  0
 79 74  2  0
 79 78  1  0
 80 79  1  0
 82 83  1  0
 83 86  1  0
 83 85  1  0
 84 82  2  0
 87 88  1  0
 87 62  1  0
 89 87  1  0
 90 91  2  0
M  ISO  4   5 101   6 101  53 100  54 100
M  END
>  <TORSDO>  (33) 
F 23

>  <SCORE>  (33) 
-12.810

>  <name>  (33) 
32

>  <ligand_id>  (33) 
32

>  <original_smiles>  (33) 
[H]C(=O)C([H])(C([H])([H])N([H])C(=O)C([H])([H])Oc1c([H])c([H])c2c(c1[H])C([H])([H])N(C(=O)C([H])(N([H])C(=O)C([H])(N([H])C([H])([H])[H])C([H])([H])[H])C(C([H])([H])[H])(C([H])([H])[H])C([H])([H])[H])C([H])(C(=O)N([H])C1([H])c3c([H])c([H])c([H])c([H])c3C([H])([H])C([H])([H])C1([H])[H])C2([H])[H])[N+]([H])([H])C([H])([H])C([H])([H])C(=O)N1C([H])([H])C([H])([H])C([H])([H])C([H])(n2nc(-c3c([H])c([H])c(Oc4c([H])c([H])c(F)c([H])c4F)c([H])c3[H])c(C(=O)N([H])[H])c2N([H])[H])C1([H])[H]

>  <smiles>  (33) 
[H]C(=O)C([H])(C([H])([H])N([H])C(=O)C([H])([H])Oc1c([H])c([H])c2c(c1[H])C([H])([H])N(C(=O)C([H])(N([H])C(=O)C([H])(N([H])C([H])([H])[H])C([H])([H])[H])C(C([H])([H])[H])(C([H])([H])[H])C([H])([H])[H])C([H])(C(=O)N([H])C1([H])c3c([H])c([H])c([H])c([H])c3C([H])([H])C([H])([H])C1([H])[H])C2([H])[H])[N+]([H])([H])C([H])([H])C([H])([H])C(=O)N1C([H])([H])C([H])([H])C([H])([H])C([H])(n2nc(-c3c([H])c([H])c(Oc4c([H])c([H])c(F)c([H])c4F)c([H])c3[H])c(C(=O)N([H])[H])c2N([H])[H])C1([H])[H]

$$$$
33:0:0
     RDKit          3D

 91 96  0  0  1  0  0  0  0  0999 V2000
  -28.8770  -17.0280   21.7170 C   0  0  0  0  0  2  0  0  0  0  0  0
  -29.2380  -16.2380   19.2280 C   0  0  0  0  0  2  0  0  0  0  0  0
  -29.1930  -15.5500   22.3790 C   0  0  0  0  0  3  0  0  0  0  0  0
  -29.6180  -14.2840   20.3780 C   0  0  0  0  0  2  0  0  0  0  0  0
  -28.8340  -17.7070   20.2510 C   0  0  0  0  0  2  0  0  0  0  0  0
  -29.5830  -14.1500   21.7570 C   0  0  0  0  0  0  0  0  0  0  0  0
  -29.0940  -11.6220   21.8860 C   0  0  0  0  0  1  0  0  0  0  0  0
  -30.0640  -12.7240   22.0730 N   0  0  0  0  0  0  0  0  0  0  0  0
  -31.2780  -12.0040   21.2900 C   0  0  0  0  0  2  0  0  0  0  0  0
  -31.1610  -10.7920   20.1300 C   0  0  0  0  0  2  0  0  0  0  0  0
  -31.8790  -12.2880   18.4770 C   0  0  0  0  0  0  0  0  0  0  0  0
  -31.3190  -14.2700   18.2610 C   0  0  0  0  0  2  0  0  0  0  0  0
  -30.4940  -15.4760   19.1900 C   0  0  0  0  0  3  0  0  0  0  0  0
  -27.4180  -14.3630   19.3920 C   0  0  0  0  0  1  0  0  0  0  0  0
  -27.5690  -12.7870   18.4660 C   0  0  0  0  0  3  0  0  0  0  0  0
  -29.1520  -12.1020   17.9260 C   0  0  0  0  0  2  0  0  0  0  0  0
  -30.7690  -12.7730   17.9600 N   0  0  0  0  0  0  0  0  0  0  0  0
  -33.0500  -12.7470   18.3960 O   0  0  0  0  0  0  0  0  0  0  0  0
  -31.9020  -10.1230   17.5460 C   0  0  0  0  0  1  0  0  0  0  0  0
  -31.7180  -11.0250   18.7580 N   0  0  0  0  0  0  0  0  0  0  0  0
  -25.6760  -12.8180   19.9130 C   0  0  0  0  0  0  0  0  0  0  0  0
  -24.9820  -12.0980   20.7590 C   0  0  0  0  0  0  0  0  0  0  0  0
  -25.3610  -10.7630   20.4390 C   0  0  0  0  0  3  0  0  0  0  0  0
  -26.5710  -12.0640   19.2390 N   0  0  0  0  0  0  0  0  0  0  0  0
  -26.4330  -10.7530   19.6150 N   0  0  0  0  0  2  0  0  0  0  0  0
  -24.5490   -9.5570   20.7750 C   0  0  0  0  0  0  0  0  0  0  0  0
  -24.9700   -8.5480   21.6690 C   0  0  0  0  0  3  0  0  0  0  0  0
  -24.1230   -7.4610   21.9770 C   0  0  0  0  0  3  0  0  0  0  0  0
  -22.8250   -7.3870   21.4180 C   0  0  0  0  0  0  0  0  0  0  0  0
  -22.4190   -8.3620   20.5040 C   0  0  0  0  0  3  0  0  0  0  0  0
  -23.2620   -9.4400   20.1980 C   0  0  0  0  0  3  0  0  0  0  0  0
  -21.9420   -6.3640   21.6690 O   0  0  0  0  0  0  0  0  0  0  0  0
  -21.8920   -5.7210   22.8780 C   0  0  0  0  0  0  0  0  0  0  0  0
  -21.5420   -6.4080   24.0610 C   0  0  0  0  0  3  0  0  0  0  0  0
  -21.4290   -5.6980   25.2720 C   0  0  0  0  0  3  0  0  0  0  0  0
  -21.6660   -4.3120   25.2970 C   0  0  0  0  0  0  0  0  0  0  0  0
  -22.0200   -3.6300   24.1220 C   0  0  0  0  0  3  0  0  0  0  0  0
  -22.1440   -4.3350   22.9140 C   0  0  0  0  0  0  0  0  0  0  0  0
  -22.4720   -3.6810   21.7730 F   0  0  0  0  0  0  0  0  0  0  0  0
  -21.5480   -3.6300   26.4570 F   0  0  0  0  0  0  0  0  0  0  0  0
  -23.8880  -12.7010   21.5790 C   0  0  0  0  0  0  0  0  0  0  0  0
  -23.5600  -12.0100   22.6580 N   0  0  0  0  0  0  0  0  0  0  0  0
  -23.4200  -13.8100   21.3610 O   0  0  0  0  0  0  0  0  0  0  0  0
  -23.9350  -11.0970   22.7520 H   0  0  0  0  0  0  0  0  0  0  0  0
  -22.9320  -12.3200   23.3690 H   0  0  0  0  0  0  0  0  0  0  0  0
  -25.5650  -14.1690   19.7120 N   0  0  0  0  0  0  0  0  0  0  0  0
  -25.4620  -14.7060   20.5570 H   0  0  0  0  0  0  0  0  0  0  0  0
  -26.3710  -14.3170   19.1510 H   0  0  0  0  0  0  0  0  0  0  0  0
  -28.6490  -19.9050   20.2890 C   0  0  0  0  0 15  0  0  0  0  0  0
  -28.0590  -22.1650   19.7980 C   0  0  0  0  0 15  0  0  0  0  0  0
  -28.1270  -24.3080   19.9500 O   0  0  0  0  0  1  0  0  0  0  0  0
  -24.9930  -31.6270   22.7000 C   0  0  0  0  0  0  0  0  0  0  0  0
  -27.3530  -25.8950   19.8210 C   0  0  0  0  0  0  0  0  0  0  0  0
  -23.8270  -30.1900   21.0930 C   0  0  0  0  0  3  0  0  0  0  0  0
  -25.2480  -28.4080   19.6930 C   0  0  0  0  0  0  0  0  0  0  0  0
  -26.4200  -30.1260   21.0310 C   0  0  0  0  0  2  0  0  0  0  0  0
  -26.4460  -28.6230   20.3790 C   0  0  0  0  0  0  0  0  0  0  0  0
  -27.4560  -27.4140   20.3840 C   0  0  0  0  0  3  0  0  0  0  0  0
  -26.1610  -26.1040   19.0130 C   0  0  0  0  0  3  0  0  0  0  0  0
  -25.1870  -27.1890   18.9690 C   0  0  0  0  0  3  0  0  0  0  0  0
  -24.0850  -29.4570   19.7310 C   0  0  0  0  0  2  0  0  0  0  0  0
  -25.1180  -30.7060   21.6540 N   0  0  0  0  0  0  0  0  0  0  0  0
  -23.8910  -31.9290   23.2020 O   0  0  0  0  0  0  0  0  0  0  0  0
  -23.0970  -29.2490   22.1010 C   0  0  0  0  0  0  0  0  0  0  0  0
  -21.7530  -29.1270   22.0450 N   0  0  0  0  0  0  0  0  0  0  0  0
  -23.7700  -28.6150   22.9170 O   0  0  0  0  0  0  0  0  0  0  0  0
  -21.2480  -29.6840   21.3660 H   0  0  0  0  0  0  0  0  0  0  0  0
  -18.3860  -27.9430   22.7850 C   0  0  0  0  0  0  0  0  0  0  0  0
  -20.9620  -28.1800   22.8490 C   0  0  0  0  0  3  0  0  0  0  0  0
  -20.9950  -26.7630   22.2260 C   0  0  0  0  0  2  0  0  0  0  0  0
  -19.8200  -26.4930   21.2830 C   0  0  0  0  0  2  0  0  0  0  0  0
  -18.4930  -26.6260   22.0340 C   0  0  0  0  0  2  0  0  0  0  0  0
  -19.5440  -28.6820   23.1520 C   0  0  0  0  0  0  0  0  0  0  0  0
  -19.3850  -29.9100   23.8290 C   0  0  0  0  0  3  0  0  0  0  0  0
  -18.1030  -30.4030   24.1320 C   0  0  0  0  0  3  0  0  0  0  0  0
  -16.9610  -29.6650   23.7750 C   0  0  0  0  0  3  0  0  0  0  0  0
  -17.1050  -28.4360   23.1080 C   0  0  0  0  0  3  0  0  0  0  0  0
  -26.2180  -32.3560   23.3360 C   0  0  0  0  0  3  0  0  0  0  0  0
  -25.7810  -33.6700   23.8710 N   0  0  0  0  0  0  0  0  0  0  0  0
  -25.9820  -34.8680   23.3020 C   0  0  0  0  0  0  0  0  0  0  0  0
  -26.5970  -34.9950   22.2430 O   0  0  0  0  0  0  0  0  0  0  0  0
  -25.2140  -33.6360   24.7070 H   0  0  0  0  0  0  0  0  0  0  0  0
  -24.1020  -36.5580   23.3550 C   0  0  0  0  0  1  0  0  0  0  0  0
  -25.4200  -36.1250   24.0130 C   0  0  0  0  0  3  0  0  0  0  0  0
  -27.5190  -37.0670   24.8850 C   0  0  0  0  0  1  0  0  0  0  0  0
  -26.3570  -37.2720   24.0280 N   0  0  0  0  0  0  0  0  0  0  0  0
  -25.8830  -38.1160   24.3390 H   0  0  0  0  0  0  0  0  0  0  0  0
  -26.8880  -31.5360   24.5120 C   0  0  1  0  0  0  0  0  0  0  0  0
  -25.8920  -31.0890   25.6100 C   0  0  0  0  0  1  0  0  0  0  0  0
  -27.5960  -30.2700   23.9920 C   0  0  0  0  0  1  0  0  0  0  0  0
  -27.9830  -32.3930   25.1950 C   0  0  0  0  0  1  0  0  0  0  0  0
  1  3  1  0
  2  5  1  0
  4  6  1  0
  5  1  1  0
  6  8  1  0
  6  3  2  0
  7  8  1  0
  9  8  1  0
 10  9  1  0
 11 20  1  0
 13 12  1  0
 13  2  1  0
 13  4  1  0
 15 24  1  0
 15 14  1  0
 16 17  1  0
 16 15  1  0
 17 12  1  0
 17 11  1  0
 18 11  2  0
 19 20  1  0
 20 10  1  0
 21 22  2  0
 22 41  1  0
 23 22  1  0
 23 26  1  0
 24 25  1  0
 24 21  1  0
 25 23  1  0
 26 27  1  0
 27 28  2  0
 29 32  1  0
 29 28  1  0
 30 29  2  0
 31 30  1  0
 31 26  2  0
 32 33  1  0
 33 38  2  0
 33 34  1  0
 34 35  2  0
 35 36  1  0
 36 40  1  0
 37 36  2  0
 38 37  1  0
 39 38  1  0
 41 42  1  0
 42 44  1  0
 42 45  1  0
 43 41  2  0
 46 21  1  0
 46 47  1  0
 48 46  1  0
 52 63  2  0
 53 51  1  0
 53 58  1  0
 54 62  1  0
 54 64  1  0
 55 61  1  0
 55 57  1  0
 56 62  1  0
 57 58  2  0
 57 56  1  0
 59 53  2  0
 60 59  1  0
 60 55  2  0
 61 54  1  0
 62 52  1  0
 64 66  2  0
 65 64  1  0
 67 65  1  0
 68 77  2  0
 68 73  1  0
 69 65  1  0
 69 73  1  0
 70 69  1  0
 71 72  1  0
 71 70  1  0
 72 68  1  0
 73 74  2  0
 74 75  1  0
 76 75  2  0
 77 76  1  0
 78 52  1  0
 78 79  1  0
 78 88  1  0
 79 82  1  0
 80 79  1  0
 80 84  1  0
 81 80  2  0
 84 83  1  0
 84 86  1  0
 86 87  1  0
 86 85  1  0
 88 91  1  1
 88 89  1  0
 90 88  1  0
M  ISO  4  11 100  20 100  50 101  51 101
M  END
>  <TORSDO>  (34) 
F 21

>  <SCORE>  (34) 
-2.136

>  <name>  (34) 
33

>  <ligand_id>  (34) 
33

>  <original_smiles>  (34) 
[H]c1c([H])c([H])c2c(c1[H])C([H])([H])C([H])([H])C([H])([H])C2([H])N([H])C(=O)C1([H])N(C(=O)C([H])(N([H])C(=O)C([H])(N([H])C([H])([H])[H])C([H])([H])[H])C(C([H])([H])[H])(C([H])([H])[H])C([H])([H])[H])C([H])([H])c2c([H])c(OC([H])([H])C([H])([H])c3c([H])c([H])c(N(C([H])([H])[H])C([H])([H])C([H])([H])N(C(=O)N4C([H])([H])C([H])([H])C([H])([H])C([H])(n5nc(-c6c([H])c([H])c(Oc7c([H])c([H])c(F)c([H])c7F)c([H])c6[H])c(C(=O)N([H])[H])c5N([H])[H])C4([H])[H])C([H])([H])[H])c([H])c3[H])c([H])c([H])c2C1([H])[H]

>  <smiles>  (34) 
[H]c1c([H])c([H])c2c(c1[H])C([H])([H])C([H])([H])C([H])([H])C2([H])N([H])C(=O)C1([H])N(C(=O)C([H])(N([H])C(=O)C([H])(N([H])C([H])([H])[H])C([H])([H])[H])C(C([H])([H])[H])(C([H])([H])[H])C([H])([H])[H])C([H])([H])c2c([H])c(OC([H])([H])C([H])([H])c3c([H])c([H])c(N(C([H])([H])[H])C([H])([H])C([H])([H])N(C(=O)N4C([H])([H])C([H])([H])C([H])([H])C([H])(n5nc(-c6c([H])c([H])c(Oc7c([H])c([H])c(F)c([H])c7F)c([H])c6[H])c(C(=O)N([H])[H])c5N([H])[H])C4([H])[H])C([H])([H])[H])c([H])c3[H])c([H])c([H])c2C1([H])[H]

$$$$
34:0:0
     RDKit          3D

 97105  0  0  1  0  0  0  0  0999 V2000
  -31.4980  -23.4730   15.8760 C   0  0  0  0  0  3  0  0  0  0  0  0
  -32.2770  -24.4150   16.5640 C   0  0  0  0  0  3  0  0  0  0  0  0
  -30.6980  -22.5660   16.5940 C   0  0  0  0  0  3  0  0  0  0  0  0
  -32.2470  -24.4720   17.9730 C   0  0  0  0  0  0  0  0  0  0  0  0
  -30.6690  -22.5930   18.0020 C   0  0  0  0  0  0  0  0  0  0  0  0
  -31.4060  -23.5830   18.7050 C   0  0  0  0  0  0  0  0  0  0  0  0
  -33.1710  -25.4770   18.6490 C   0  0  0  0  0  1  0  0  0  0  0  0
  -29.8040  -21.5430   18.7010 C   0  0  0  0  0  2  0  0  0  0  0  0
  -30.3880  -20.1090   18.5700 C   0  0  0  0  0  2  0  0  0  0  0  0
  -29.4430  -18.9610   18.7250 N   0  0  2  0  0  4  0  0  0  0  0  0
  -29.9610  -18.2860   18.1790 H   0  0  0  0  0  0  0  0  0  0  0  0
  -26.9650  -19.6690   18.6650 C   0  0  0  0  0  1  0  0  0  0  0  0
  -28.1650  -18.9990   17.9550 C   0  0  0  0  0  2  0  0  0  0  0  0
  -29.4300  -18.2220   20.0150 C   0  0  0  0  0  2  0  0  0  0  0  0
  -30.0980  -16.8460   19.8050 C   0  0  0  0  0  2  0  0  0  0  0  0
  -29.9590  -15.8210   20.9640 C   0  0  0  0  0  2  0  0  0  0  0  0
  -30.6830  -14.5070   20.5960 C   0  0  0  0  0  0  0  0  0  0  0  0
  -30.3950  -12.3290   19.4950 C   0  0  0  0  0  2  0  0  0  0  0  0
  -29.5020  -12.5410   18.2560 C   0  0  0  0  0  2  0  0  0  0  0  0
  -28.0110  -12.4110   18.6290 C   0  0  0  0  0  2  0  0  0  0  0  0
  -27.6390  -13.2640   19.8730 C   0  0  0  0  0  3  0  0  0  0  0  0
  -28.6620  -13.0580   21.0170 C   0  0  0  0  0  2  0  0  0  0  0  0
  -30.0040  -13.3340   20.4910 N   0  0  0  0  0  0  0  0  0  0  0  0
  -31.8520  -14.6210   20.2180 O   0  0  0  0  0  0  0  0  0  0  0  0
  -25.2240  -13.8890   20.4890 C   0  0  0  0  0  0  0  0  0  0  0  0
  -24.1430  -13.1230   20.8420 C   0  0  0  0  0  0  0  0  0  0  0  0
  -24.6030  -11.7720   20.8570 C   0  0  0  0  0  0  0  0  0  0  0  0
  -26.2730  -12.9990   20.3140 N   0  0  0  0  0  0  0  0  0  0  0  0
  -25.9020  -11.7240   20.5950 N   0  0  0  0  0  0  0  0  0  0  0  0
  -23.8710  -10.5140   21.0460 C   0  0  0  0  0  0  0  0  0  0  0  0
  -24.2830   -9.5550   21.9980 C   0  0  0  0  0  3  0  0  0  0  0  0
  -23.5510   -8.3610   22.1710 C   0  0  0  0  0  3  0  0  0  0  0  0
  -22.3920   -8.1200   21.3970 C   0  0  0  0  0  0  0  0  0  0  0  0
  -22.0000   -9.0670   20.4340 C   0  0  0  0  0  3  0  0  0  0  0  0
  -22.7320  -10.2530   20.2570 C   0  0  0  0  0  3  0  0  0  0  0  0
  -21.6330   -6.9770   21.4800 O   0  0  0  0  0  0  0  0  0  0  0  0
  -21.5750   -6.2350   22.6320 C   0  0  0  0  0  0  0  0  0  0  0  0
  -21.1560   -6.7930   23.8590 C   0  0  0  0  0  3  0  0  0  0  0  0
  -21.0420   -5.9770   25.0040 C   0  0  0  0  0  3  0  0  0  0  0  0
  -21.3390   -4.6030   24.9220 C   0  0  0  0  0  0  0  0  0  0  0  0
  -21.7510   -4.0440   23.6990 C   0  0  0  0  0  3  0  0  0  0  0  0
  -21.8640   -4.8570   22.5580 C   0  0  0  0  0  0  0  0  0  0  0  0
  -22.2370   -4.3070   21.3770 F   0  0  0  0  0  0  0  0  0  0  0  0
  -21.2230   -3.8170   26.0180 F   0  0  0  0  0  0  0  0  0  0  0  0
  -22.7370  -13.6050   21.0530 C   0  0  0  0  0  0  0  0  0  0  0  0
  -21.9770  -12.9290   21.9100 N   0  0  0  0  0  0  0  0  0  0  0  0
  -22.3180  -14.6180   20.4970 O   0  0  0  0  0  0  0  0  0  0  0  0
  -22.3200  -12.1040   22.3830 H   0  0  0  0  0  0  0  0  0  0  0  0
  -21.0330  -13.2360   22.0900 H   0  0  0  0  0  0  0  0  0  0  0  0
  -25.4070  -15.2520   20.2820 N   0  0  0  0  0  0  0  0  0  0  0  0
  -24.6650  -15.9390   20.3610 H   0  0  0  0  0  0  0  0  0  0  0  0
  -26.2830  -15.6520   19.9700 H   0  0  0  0  0  0  0  0  0  0  0  0
  -31.3340  -23.6070   20.0780 O   0  0  0  0  0  0  0  0  0  0  0  0
  -30.8590  -24.8110   20.6920 C   0  0  0  0  0  2  0  0  0  0  0  0
  -29.3710  -24.6980   21.0560 C   0  0  0  0  0  2  0  0  0  0  0  0
  -28.4070  -25.3070   20.0290 C   0  0  0  0  0  2  0  0  0  0  0  0
  -28.4700  -26.7350   20.1210 O   0  0  0  0  0  0  0  0  0  0  0  0
  -24.6630  -31.8740   23.2310 C   0  0  0  0  0  0  0  0  0  0  0  0
  -27.2860  -27.4390   20.1180 C   0  0  0  0  0  0  0  0  0  0  0  0
  -23.4460  -30.4690   21.5990 C   0  0  0  0  0  3  0  0  0  0  0  0
  -24.8860  -28.9380   20.1580 C   0  0  0  0  0  0  0  0  0  0  0  0
  -25.9690  -30.8300   21.3830 C   0  0  0  0  0  2  0  0  0  0  0  0
  -26.0460  -29.4600   20.7430 C   0  0  0  0  0  0  0  0  0  0  0  0
  -27.2480  -28.7180   20.7240 C   0  0  0  0  0  3  0  0  0  0  0  0
  -26.1090  -26.9410   19.5120 C   0  0  0  0  0  3  0  0  0  0  0  0
  -24.9110  -27.6760   19.5440 C   0  0  0  0  0  3  0  0  0  0  0  0
  -23.6410  -29.7910   20.2180 C   0  0  0  0  0  2  0  0  0  0  0  0
  -24.7120  -31.0700   22.1310 N   0  0  0  0  0  0  0  0  0  0  0  0
  -23.5840  -32.1510   23.7730 O   0  0  0  0  0  0  0  0  0  0  0  0
  -22.8040  -29.4470   22.5630 C   0  0  0  0  0  0  0  0  0  0  0  0
  -21.4800  -29.2650   22.4370 N   0  0  0  0  0  0  0  0  0  0  0  0
  -23.4900  -28.8240   23.3770 O   0  0  0  0  0  0  0  0  0  0  0  0
  -20.9890  -29.8220   21.7520 H   0  0  0  0  0  0  0  0  0  0  0  0
  -18.1050  -28.0720   22.9410 C   0  0  0  0  0  0  0  0  0  0  0  0
  -20.6620  -28.3290   23.2100 C   0  0  0  0  0  3  0  0  0  0  0  0
  -20.7630  -26.8960   22.6370 C   0  0  0  0  0  2  0  0  0  0  0  0
  -19.6580  -26.5710   21.6250 C   0  0  0  0  0  2  0  0  0  0  0  0
  -18.2780  -26.7190   22.2700 C   0  0  0  0  0  2  0  0  0  0  0  0
  -19.2240  -28.8350   23.3670 C   0  0  0  0  0  0  0  0  0  0  0  0
  -19.0040  -30.1010   23.9520 C   0  0  0  0  0  3  0  0  0  0  0  0
  -17.6980  -30.6030   24.1110 C   0  0  0  0  0  3  0  0  0  0  0  0
  -16.5940  -29.8350   23.7010 C   0  0  0  0  0  3  0  0  0  0  0  0
  -16.7990  -28.5700   23.1220 C   0  0  0  0  0  3  0  0  0  0  0  0
  -25.9520  -32.5020   23.8470 C   0  0  0  0  0  3  0  0  0  0  0  0
  -26.4800  -31.7220   25.1130 C   0  0  1  0  0  0  0  0  0  0  0  0
  -25.3940  -31.4790   26.1890 C   0  0  0  0  0  1  0  0  0  0  0  0
  -27.0560  -30.3460   24.7030 C   0  0  0  0  0  1  0  0  0  0  0  0
  -27.6390  -32.5120   25.7680 C   0  0  0  0  0  1  0  0  0  0  0  0
  -25.6420  -33.8990   24.1820 N   0  0  0  0  0  0  0  0  0  0  0  0
  -25.9740  -34.9540   23.4240 C   0  0  0  0  0  0  0  0  0  0  0  0
  -26.6460  -34.8530   22.3930 O   0  0  0  0  0  0  0  0  0  0  0  0
  -25.0390  -34.0530   24.9770 H   0  0  0  0  0  0  0  0  0  0  0  0
  -24.2470  -36.7470   23.0700 C   0  0  0  0  0  1  0  0  0  0  0  0
  -25.4880  -36.3410   23.8810 C   0  0  0  0  0  3  0  0  0  0  0  0
  -27.6250  -37.2170   24.7160 C   0  0  0  0  0  1  0  0  0  0  0  0
  -26.5220  -37.3940   23.7740 N   0  0  0  0  0  0  0  0  0  0  0  0
  -26.1190  -38.3140   23.9280 H   0  0  0  0  0  0  0  0  0  0  0  0
  1  2  2  0
  1  3  1  0
  2  4  1  0
  3  5  2  0
  4  7  1  0
  4  6  2  0
  5  8  1  0
  5  6  1  0
  6 53  1  0
  9  8  1  0
  9 10  1  0
 10 14  1  0
 10 11  1  6
 13 12  1  0
 13 10  1  0
 15 14  1  0
 15 16  1  0
 17 16  1  0
 18 23  1  0
 19 20  1  0
 19 18  1  0
 21 20  1  0
 21 28  1  0
 21 22  1  0
 23 17  1  0
 23 22  1  0
 24 17  2  0
 25 26  2  0
 26 27  1  0
 26 45  1  0
 27 30  1  0
 28 25  1  0
 28 29  1  0
 29 27  2  0
 30 31  1  0
 31 32  2  0
 33 36  1  0
 33 32  1  0
 34 33  2  0
 35 34  1  0
 35 30  2  0
 36 37  1  0
 37 38  1  0
 38 39  2  0
 40 39  1  0
 40 44  1  0
 41 40  2  0
 42 37  2  0
 42 41  1  0
 43 42  1  0
 45 46  1  0
 46 49  1  0
 46 48  1  0
 47 45  2  0
 50 51  1  0
 50 25  1  0
 52 50  1  0
 53 54  1  0
 54 55  1  0
 56 57  1  0
 56 55  1  0
 58 69  2  0
 59 57  1  0
 59 64  1  0
 60 68  1  0
 60 70  1  0
 61 67  1  0
 61 63  1  0
 62 68  1  0
 63 62  1  0
 64 63  2  0
 65 66  1  0
 65 59  2  0
 66 61  2  0
 67 60  1  0
 68 58  1  0
 70 72  2  0
 71 70  1  0
 73 71  1  0
 74 83  2  0
 74 79  1  0
 75 71  1  0
 75 79  1  0
 76 75  1  0
 77 78  1  0
 77 76  1  0
 78 74  1  0
 79 80  2  0
 80 81  1  0
 82 81  2  0
 83 82  1  0
 84 58  1  0
 84 89  1  0
 84 85  1  0
 85 88  1  1
 85 86  1  0
 87 85  1  0
 89 92  1  0
 90 94  1  0
 90 89  1  0
 91 90  2  0
 94 93  1  0
 96 94  1  0
 96 97  1  0
 96 95  1  0
M  ISO  4  16 100  17 100  56 101  57 101
M  END
>  <TORSDO>  (35) 
F 27

>  <SCORE>  (35) 
-11.622

>  <name>  (35) 
34

>  <ligand_id>  (35) 
34

>  <original_smiles>  (35) 
[H]c1c([H])c([H])c2c(c1[H])C([H])([H])C([H])([H])C([H])([H])C2([H])N([H])C(=O)C1([H])N(C(=O)C([H])(N([H])C(=O)C([H])(N([H])C([H])([H])[H])C([H])([H])[H])C(C([H])([H])[H])(C([H])([H])[H])C([H])([H])[H])C([H])([H])c2c([H])c(OC([H])([H])C([H])([H])C([H])([H])Oc3c(C([H])([H])[H])c([H])c([H])c([H])c3C([H])([H])C([H])([H])[N+]([H])(C([H])([H])C([H])([H])[H])C([H])([H])C([H])([H])C([H])([H])C(=O)N3C([H])([H])C([H])([H])C([H])([H])C([H])(n4nc(-c5c([H])c([H])c(Oc6c([H])c([H])c(F)c([H])c6F)c([H])c5[H])c(C(=O)N([H])[H])c4N([H])[H])C3([H])[H])c([H])c([H])c2C1([H])[H]

>  <smiles>  (35) 
[H]c1c([H])c([H])c2c(c1[H])C([H])([H])C([H])([H])C([H])([H])C2([H])N([H])C(=O)C1([H])N(C(=O)C([H])(N([H])C(=O)C([H])(N([H])C([H])([H])[H])C([H])([H])[H])C(C([H])([H])[H])(C([H])([H])[H])C([H])([H])[H])C([H])([H])c2c([H])c(OC([H])([H])C([H])([H])C([H])([H])Oc3c(C([H])([H])[H])c([H])c([H])c([H])c3C([H])([H])C([H])([H])[N+]([H])(C([H])([H])C([H])([H])[H])C([H])([H])C([H])([H])C([H])([H])C(=O)N3C([H])([H])C([H])([H])C([H])([H])C([H])(n4nc(-c5c([H])c([H])c(Oc6c([H])c([H])c(F)c([H])c6F)c([H])c5[H])c(C(=O)N([H])[H])c4N([H])[H])C3([H])[H])c([H])c([H])c2C1([H])[H]

$$$$
35:0:0
     RDKit          3D

 91 99  0  0  1  0  0  0  0  0999 V2000
  -27.4280  -19.5170   21.0710 C   0  0  0  0  0  3  0  0  0  0  0  0
  -28.1980  -18.4020   20.6790 C   0  0  0  0  0  3  0  0  0  0  0  0
  -27.8120  -20.8430   20.7680 C   0  0  0  0  0  3  0  0  0  0  0  0
  -29.7640  -19.9450   19.6540 C   0  0  0  0  0  3  0  0  0  0  0  0
  -29.4190  -18.5660   19.9920 C   0  0  0  0  0  0  0  0  0  0  0  0
  -28.9730  -21.1180   20.0130 C   0  0  0  0  0  0  0  0  0  0  0  0
  -29.2790  -22.4840   19.6150 N   0  0  0  0  0  0  0  0  0  0  0  0
  -30.0800  -22.6070   18.9980 H   0  0  0  0  0  0  0  0  0  0  0  0
  -28.6880  -23.7830   20.1590 C   0  0  0  0  0  2  0  0  0  0  0  0
  -28.7550  -25.1240   19.2440 C   0  0  0  0  0  2  0  0  0  0  0  0
  -28.7010  -26.5190   19.8020 O   0  0  0  0  0  0  0  0  0  0  0  0
  -25.0220  -31.6110   23.3660 C   0  0  0  0  0  0  0  0  0  0  0  0
  -27.5730  -27.3700   19.8050 C   0  0  0  0  0  0  0  0  0  0  0  0
  -23.7930  -30.4170   21.5850 C   0  0  0  0  0  3  0  0  0  0  0  0
  -25.2230  -29.0160   19.9790 C   0  0  0  0  0  0  0  0  0  0  0  0
  -26.3350  -30.7240   21.4220 C   0  0  0  0  0  2  0  0  0  0  0  0
  -26.3970  -29.4220   20.6240 C   0  0  0  0  0  0  0  0  0  0  0  0
  -27.5690  -28.6100   20.5300 C   0  0  0  0  0  3  0  0  0  0  0  0
  -26.3760  -27.0260   19.1400 C   0  0  0  0  0  3  0  0  0  0  0  0
  -25.2170  -27.8280   19.2280 C   0  0  0  0  0  3  0  0  0  0  0  0
  -23.9940  -29.8920   20.1350 C   0  0  0  0  0  2  0  0  0  0  0  0
  -25.0680  -30.9300   22.1820 N   0  0  0  0  0  0  0  0  0  0  0  0
  -23.9440  -31.8370   23.9380 O   0  0  0  0  0  0  0  0  0  0  0  0
  -23.1270  -29.3050   22.4310 C   0  0  0  0  0  0  0  0  0  0  0  0
  -21.8070  -29.1250   22.2630 N   0  0  0  0  0  0  0  0  0  0  0  0
  -23.8000  -28.6160   23.2030 O   0  0  0  0  0  0  0  0  0  0  0  0
  -21.3240  -29.7370   21.6210 H   0  0  0  0  0  0  0  0  0  0  0  0
  -18.4510  -27.8030   22.5320 C   0  0  0  0  0  0  0  0  0  0  0  0
  -20.9880  -28.1050   22.9210 C   0  0  0  0  0  3  0  0  0  0  0  0
  -21.1520  -26.7300   22.2330 C   0  0  0  0  0  2  0  0  0  0  0  0
  -20.0970  -26.4640   21.1550 C   0  0  0  0  0  2  0  0  0  0  0  0
  -18.6890  -26.5190   21.7540 C   0  0  0  0  0  2  0  0  0  0  0  0
  -19.5300  -28.5560   23.0660 C   0  0  0  0  0  0  0  0  0  0  0  0
  -19.2550  -29.7570   23.7510 C   0  0  0  0  0  3  0  0  0  0  0  0
  -17.9310  -30.2100   23.9080 C   0  0  0  0  0  3  0  0  0  0  0  0
  -16.8650  -29.4540   23.3900 C   0  0  0  0  0  3  0  0  0  0  0  0
  -17.1240  -28.2510   22.7100 C   0  0  0  0  0  3  0  0  0  0  0  0
  -26.3140  -32.1590   24.0470 C   0  0  0  0  0  3  0  0  0  0  0  0
  -26.0130  -33.5040   24.5550 N   0  0  0  0  0  0  0  0  0  0  0  0
  -26.3580  -34.6440   23.9400 C   0  0  0  0  0  0  0  0  0  0  0  0
  -27.0290  -34.6700   22.9050 O   0  0  0  0  0  0  0  0  0  0  0  0
  -25.4140  -33.5610   25.3660 H   0  0  0  0  0  0  0  0  0  0  0  0
  -24.6490  -36.4870   23.8170 C   0  0  0  0  0  1  0  0  0  0  0  0
  -25.8800  -35.9660   24.5740 C   0  0  0  0  0  3  0  0  0  0  0  0
  -28.0160  -36.7120   25.5290 C   0  0  0  0  0  1  0  0  0  0  0  0
  -26.9240  -37.0140   24.6080 N   0  0  0  0  0  0  0  0  0  0  0  0
  -26.5250  -37.9100   24.8740 H   0  0  0  0  0  0  0  0  0  0  0  0
  -26.8420  -31.2330   25.2130 C   0  0  1  0  0  0  0  0  0  0  0  0
  -25.7590  -30.8700   26.2560 C   0  0  0  0  0  1  0  0  0  0  0  0
  -27.4120  -29.9110   24.6460 C   0  0  0  0  0  1  0  0  0  0  0  0
  -28.0050  -31.9350   25.9540 C   0  0  0  0  0  1  0  0  0  0  0  0
  -30.3110  -17.2950   19.5880 C   0  0  0  0  0  2  0  0  0  0  0  0
  -30.7640  -14.7480   19.5280 C   0  0  0  0  0  0  0  0  0  0  0  0
  -30.4680  -12.4620   18.5200 C   0  0  0  0  0  2  0  0  0  0  0  0
  -29.3950  -12.4860   17.4060 C   0  0  0  0  0  2  0  0  0  0  0  0
  -27.9870  -12.2800   17.9990 C   0  0  0  0  0  2  0  0  0  0  0  0
  -27.7390  -13.1850   19.2330 C   0  0  0  0  0  3  0  0  0  0  0  0
  -28.9100  -13.0960   20.2260 C   0  0  0  0  0  2  0  0  0  0  0  0
  -30.1350  -13.5110   19.5180 N   0  0  0  0  0  0  0  0  0  0  0  0
  -31.7830  -14.8940   18.8420 O   0  0  0  0  0  0  0  0  0  0  0  0
  -30.1670  -15.8560   20.1450 N   0  0  0  0  0  0  0  0  0  0  0  0
  -25.5000  -13.7760   20.3380 C   0  0  0  0  0  0  0  0  0  0  0  0
  -24.4800  -12.9980   20.8160 C   0  0  0  0  0  0  0  0  0  0  0  0
  -24.9030  -11.6440   20.6430 C   0  0  0  0  0  0  0  0  0  0  0  0
  -26.4710  -12.8920   19.8910 N   0  0  0  0  0  0  0  0  0  0  0  0
  -26.1290  -11.6030   20.1380 N   0  0  0  0  0  0  0  0  0  0  0  0
  -24.1850  -10.3840   20.8690 C   0  0  0  0  0  0  0  0  0  0  0  0
  -24.6620   -9.4110   21.7770 C   0  0  0  0  0  3  0  0  0  0  0  0
  -23.9430   -8.2150   21.9890 C   0  0  0  0  0  3  0  0  0  0  0  0
  -22.7330   -7.9820   21.2910 C   0  0  0  0  0  0  0  0  0  0  0  0
  -22.2740   -8.9420   20.3720 C   0  0  0  0  0  3  0  0  0  0  0  0
  -22.9940  -10.1290   20.1590 C   0  0  0  0  0  3  0  0  0  0  0  0
  -21.9820   -6.8380   21.4100 O   0  0  0  0  0  0  0  0  0  0  0  0
  -21.9000   -6.1530   22.5950 C   0  0  0  0  0  0  0  0  0  0  0  0
  -21.4300   -6.7630   23.7770 C   0  0  0  0  0  3  0  0  0  0  0  0
  -21.2970   -6.0050   24.9580 C   0  0  0  0  0  3  0  0  0  0  0  0
  -21.6250   -4.6350   24.9550 C   0  0  0  0  0  0  0  0  0  0  0  0
  -22.0880   -4.0230   23.7770 C   0  0  0  0  0  3  0  0  0  0  0  0
  -22.2240   -4.7810   22.6000 C   0  0  0  0  0  0  0  0  0  0  0  0
  -22.6510   -4.1820   21.4620 F   0  0  0  0  0  0  0  0  0  0  0  0
  -21.4890   -3.9030   26.0860 F   0  0  0  0  0  0  0  0  0  0  0  0
  -23.1480  -13.4800   21.3160 C   0  0  0  0  0  0  0  0  0  0  0  0
  -22.5500  -12.7590   22.2600 N   0  0  0  0  0  0  0  0  0  0  0  0
  -22.6540  -14.5300   20.9090 O   0  0  0  0  0  0  0  0  0  0  0  0
  -22.9680  -11.9110   22.6140 H   0  0  0  0  0  0  0  0  0  0  0  0
  -21.6650  -13.0630   22.6400 H   0  0  0  0  0  0  0  0  0  0  0  0
  -25.6800  -15.1510   20.2250 N   0  0  0  0  0  0  0  0  0  0  0  0
  -24.9650  -15.8120   20.5030 H   0  0  0  0  0  0  0  0  0  0  0  0
  -26.4900  -15.5910   19.8110 H   0  0  0  0  0  0  0  0  0  0  0  0
  -30.9520  -16.6570   22.4480 C   0  0  0  0  0  1  0  0  0  0  0  0
  -30.0130  -15.7660   21.6200 C   0  0  0  0  0  2  0  0  0  0  0  0
  2  1  2  0
  3  1  1  0
  4  5  2  0
  4  6  1  0
  5  2  1  0
  6  3  2  0
  7  6  1  0
  7  9  1  0
  8  7  1  0
 10 11  1  0
 10  9  1  0
 11 13  1  0
 12 23  2  0
 13 18  1  0
 14 22  1  0
 14 24  1  0
 15 21  1  0
 15 17  1  0
 16 22  1  0
 17 16  1  0
 18 17  2  0
 19 20  1  0
 19 13  2  0
 20 15  2  0
 21 14  1  0
 22 12  1  0
 24 26  2  0
 25 24  1  0
 27 25  1  0
 28 37  2  0
 28 33  1  0
 29 25  1  0
 29 33  1  0
 30 29  1  0
 31 32  1  0
 31 30  1  0
 32 28  1  0
 33 34  2  0
 34 35  1  0
 36 35  2  0
 37 36  1  0
 38 12  1  0
 38 39  1  0
 38 48  1  0
 39 42  1  0
 40 39  1  0
 40 44  1  0
 41 40  2  0
 44 43  1  0
 44 46  1  0
 46 47  1  0
 46 45  1  0
 48 51  1  1
 48 49  1  0
 50 48  1  0
 52  5  1  0
 52 61  1  0
 53 61  1  0
 54 59  1  0
 55 56  1  0
 55 54  1  0
 57 56  1  0
 57 65  1  0
 57 58  1  0
 59 53  1  0
 59 58  1  0
 60 53  2  0
 61 91  1  0
 62 63  2  0
 63 82  1  0
 64 63  1  0
 64 67  1  0
 65 66  1  0
 65 62  1  0
 66 64  2  0
 67 68  1  0
 68 69  2  0
 70 73  1  0
 70 69  1  0
 71 70  2  0
 72 71  1  0
 72 67  2  0
 73 74  1  0
 74 79  2  0
 74 75  1  0
 75 76  2  0
 77 76  1  0
 77 81  1  0
 78 77  2  0
 79 78  1  0
 80 79  1  0
 82 83  1  0
 83 85  1  0
 83 86  1  0
 84 82  2  0
 87 62  1  0
 87 88  1  0
 89 87  1  0
 91 90  1  0
M  ISO  4  10 101  11 101  53 100  61 100
M  END
>  <TORSDO>  (36) 
F 21

>  <SCORE>  (36) 
-9.842

>  <name>  (36) 
35

>  <ligand_id>  (36) 
35

>  <original_smiles>  (36) 
[H]c1c([H])c(N([H])C([H])([H])C([H])([H])Oc2c([H])c([H])c3c(c2[H])C([H])([H])N(C(=O)C([H])(N([H])C(=O)C([H])(N([H])C([H])([H])[H])C([H])([H])[H])C(C([H])([H])[H])(C([H])([H])[H])C([H])([H])[H])C([H])(C(=O)N([H])C2([H])c4c([H])c([H])c([H])c([H])c4C([H])([H])C([H])([H])C2([H])[H])C3([H])[H])c([H])c(C([H])([H])N(C(=O)N2C([H])([H])C([H])([H])C([H])([H])C([H])(n3nc(-c4c([H])c([H])c(Oc5c([H])c([H])c(F)c([H])c5F)c([H])c4[H])c(C(=O)N([H])[H])c3N([H])[H])C2([H])[H])C([H])([H])C([H])([H])[H])c1[H]

>  <smiles>  (36) 
[H]c1c([H])c(N([H])C([H])([H])C([H])([H])Oc2c([H])c([H])c3c(c2[H])C([H])([H])N(C(=O)C([H])(N([H])C(=O)C([H])(N([H])C([H])([H])[H])C([H])([H])[H])C(C([H])([H])[H])(C([H])([H])[H])C([H])([H])[H])C([H])(C(=O)N([H])C2([H])c4c([H])c([H])c([H])c([H])c4C([H])([H])C([H])([H])C2([H])[H])C3([H])[H])c([H])c(C([H])([H])N(C(=O)N2C([H])([H])C([H])([H])C([H])([H])C([H])(n3nc(-c4c([H])c([H])c(Oc5c([H])c([H])c(F)c([H])c5F)c([H])c4[H])c(C(=O)N([H])[H])c3N([H])[H])C2([H])[H])C([H])([H])C([H])([H])[H])c1[H]

$$$$
36:0:0
     RDKit          3D

 90 97  0  0  1  0  0  0  0  0999 V2000
  -27.9260  -21.7520   21.9050 C   0  0  0  0  0  2  0  0  0  0  0  0
  -28.7190  -19.4180   21.3460 C   0  0  0  0  0  3  0  0  0  0  0  0
  -28.7570  -20.7460   21.1230 C   0  0  0  0  0  3  0  0  0  0  0  0
  -29.4950  -18.4770   20.5480 C   0  0  0  0  0  0  0  0  0  0  0  0
  -31.4300  -19.0000   22.0480 C   0  0  0  0  0  1  0  0  0  0  0  0
  -30.7750  -18.2600   20.9570 N   0  0  0  0  0  0  0  0  0  0  0  0
  -29.0010  -17.8680   19.5970 O   0  0  0  0  0  0  0  0  0  0  0  0
  -31.6190  -17.2510   20.2880 C   0  0  0  0  0  2  0  0  0  0  0  0
  -31.5290  -15.8660   20.9790 C   0  0  0  0  0  2  0  0  0  0  0  0
  -31.9650  -14.7110   20.0520 C   0  0  0  0  0  0  0  0  0  0  0  0
  -31.5170  -12.5600   18.9170 C   0  0  0  0  0  2  0  0  0  0  0  0
  -30.5230  -12.7500   17.7540 C   0  0  0  0  0  2  0  0  0  0  0  0
  -29.0660  -12.6840   18.2540 C   0  0  0  0  0  2  0  0  0  0  0  0
  -28.8190  -13.5770   19.5000 C   0  0  0  0  0  3  0  0  0  0  0  0
  -29.9100  -13.3230   20.5660 C   0  0  0  0  0  2  0  0  0  0  0  0
  -31.2210  -13.5770   19.9400 N   0  0  0  0  0  0  0  0  0  0  0  0
  -33.0030  -14.8730   19.3990 O   0  0  0  0  0  0  0  0  0  0  0  0
  -26.5000  -14.3140   20.3410 C   0  0  0  0  0  0  0  0  0  0  0  0
  -25.4000  -13.6000   20.7280 C   0  0  0  0  0  0  0  0  0  0  0  0
  -25.7650  -12.2230   20.6220 C   0  0  0  0  0  0  0  0  0  0  0  0
  -27.4750  -13.3750   20.0340 N   0  0  0  0  0  0  0  0  0  0  0  0
  -27.0320  -12.1100   20.2500 N   0  0  0  0  0  0  0  0  0  0  0  0
  -24.9620  -11.0050   20.7990 C   0  0  0  0  0  0  0  0  0  0  0  0
  -25.2900  -10.0430   21.7790 C   0  0  0  0  0  3  0  0  0  0  0  0
  -24.4930   -8.8900   21.9470 C   0  0  0  0  0  3  0  0  0  0  0  0
  -23.3530   -8.6920   21.1340 C   0  0  0  0  0  0  0  0  0  0  0  0
  -23.0430   -9.6420   20.1460 C   0  0  0  0  0  3  0  0  0  0  0  0
  -23.8390  -10.7860   19.9760 C   0  0  0  0  0  3  0  0  0  0  0  0
  -22.5360   -7.5890   21.2080 O   0  0  0  0  0  0  0  0  0  0  0  0
  -22.2570   -6.9790   22.4050 C   0  0  0  0  0  0  0  0  0  0  0  0
  -21.6830   -7.6820   23.4860 C   0  0  0  0  0  3  0  0  0  0  0  0
  -21.3450   -7.0000   24.6720 C   0  0  0  0  0  3  0  0  0  0  0  0
  -21.5740   -5.6150   24.7760 C   0  0  0  0  0  0  0  0  0  0  0  0
  -22.1410   -4.9110   23.6990 C   0  0  0  0  0  3  0  0  0  0  0  0
  -22.4780   -5.5910   22.5170 C   0  0  0  0  0  0  0  0  0  0  0  0
  -23.0030   -4.9020   21.4730 F   0  0  0  0  0  0  0  0  0  0  0  0
  -21.2450   -4.9580   25.9130 F   0  0  0  0  0  0  0  0  0  0  0  0
  -24.0550  -14.1580   21.0930 C   0  0  0  0  0  0  0  0  0  0  0  0
  -23.3450  -13.5010   22.0030 N   0  0  0  0  0  0  0  0  0  0  0  0
  -23.6440  -15.2120   20.6070 O   0  0  0  0  0  0  0  0  0  0  0  0
  -23.6960  -12.6500   22.4180 H   0  0  0  0  0  0  0  0  0  0  0  0
  -22.4460  -13.8570   22.2910 H   0  0  0  0  0  0  0  0  0  0  0  0
  -26.7420  -15.6790   20.2160 N   0  0  0  0  0  0  0  0  0  0  0  0
  -26.0070  -16.3600   20.3710 H   0  0  0  0  0  0  0  0  0  0  0  0
  -27.6420  -16.1080   20.0270 H   0  0  0  0  0  0  0  0  0  0  0  0
  -27.5960  -23.0370   21.1250 C   0  0  0  0  0  2  0  0  0  0  0  0
  -28.8250  -23.8760   20.7320 C   0  0  0  0  0  2  0  0  0  0  0  0
  -28.4270  -25.0680   19.8550 C   0  0  0  0  0  2  0  0  0  0  0  0
  -29.5290  -26.1290   19.6860 C   0  0  0  0  0  2  0  0  0  0  0  0
  -29.1610  -27.1310   18.7410 O   0  0  0  0  0  0  0  0  0  0  0  0
  -25.0100  -30.8370   23.1870 C   0  0  0  0  0  0  0  0  0  0  0  0
  -27.9560  -27.7380   18.9760 C   0  0  0  0  0  0  0  0  0  0  0  0
  -23.9110  -29.9560   21.1500 C   0  0  0  0  0  3  0  0  0  0  0  0
  -25.4730  -29.0080   19.3740 C   0  0  0  0  0  0  0  0  0  0  0  0
  -26.4120  -30.4850   21.1610 C   0  0  0  0  0  2  0  0  0  0  0  0
  -26.5840  -29.3800   20.1430 C   0  0  0  0  0  0  0  0  0  0  0  0
  -27.8290  -28.7450   19.9540 C   0  0  0  0  0  3  0  0  0  0  0  0
  -26.8370  -27.3810   18.1950 C   0  0  0  0  0  3  0  0  0  0  0  0
  -25.5910  -27.9990   18.4030 C   0  0  0  0  0  3  0  0  0  0  0  0
  -24.1800  -29.7440   19.6360 C   0  0  0  0  0  2  0  0  0  0  0  0
  -25.1270  -30.4240   21.8940 N   0  0  0  0  0  0  0  0  0  0  0  0
  -23.9080  -30.8780   23.7500 O   0  0  0  0  0  0  0  0  0  0  0  0
  -23.3010  -28.6580   21.7270 C   0  0  0  0  0  0  0  0  0  0  0  0
  -22.0050  -28.4370   21.4590 N   0  0  0  0  0  0  0  0  0  0  0  0
  -23.9940  -27.8660   22.3710 O   0  0  0  0  0  0  0  0  0  0  0  0
  -21.5050  -29.1380   20.9300 H   0  0  0  0  0  0  0  0  0  0  0  0
  -18.7270  -26.9290   21.3270 C   0  0  0  0  0  0  0  0  0  0  0  0
  -21.2320  -27.2650   21.8660 C   0  0  0  0  0  3  0  0  0  0  0  0
  -21.4910  -26.0690   20.9190 C   0  0  0  0  0  2  0  0  0  0  0  0
  -20.4810  -25.9800   19.7700 C   0  0  0  0  0  2  0  0  0  0  0  0
  -19.0570  -25.8450   20.3150 C   0  0  0  0  0  2  0  0  0  0  0  0
  -19.7490  -27.6060   22.0440 C   0  0  0  0  0  0  0  0  0  0  0  0
  -19.3900  -28.6300   22.9470 C   0  0  0  0  0  3  0  0  0  0  0  0
  -18.0390  -28.9770   23.1420 C   0  0  0  0  0  3  0  0  0  0  0  0
  -17.0290  -28.2930   22.4430 C   0  0  0  0  0  3  0  0  0  0  0  0
  -17.3750  -27.2690   21.5430 C   0  0  0  0  0  3  0  0  0  0  0  0
  -26.2500  -31.3050   24.0130 C   0  0  0  0  0  3  0  0  0  0  0  0
  -25.9250  -32.6120   24.5970 N   0  0  0  0  0  0  0  0  0  0  0  0
  -26.3390  -33.7890   24.1060 C   0  0  0  0  0  0  0  0  0  0  0  0
  -27.1090  -33.8810   23.1460 O   0  0  0  0  0  0  0  0  0  0  0  0
  -25.2610  -32.6140   25.3570 H   0  0  0  0  0  0  0  0  0  0  0  0
  -24.6890  -35.6790   23.9540 C   0  0  0  0  0  1  0  0  0  0  0  0
  -25.8220  -35.0670   24.7940 C   0  0  0  0  0  3  0  0  0  0  0  0
  -27.8580  -35.6720   26.0250 C   0  0  0  0  0  1  0  0  0  0  0  0
  -26.8750  -36.0800   25.0240 N   0  0  0  0  0  0  0  0  0  0  0  0
  -26.4680  -36.9600   25.3250 H   0  0  0  0  0  0  0  0  0  0  0  0
  -26.6720  -30.2790   25.1340 C   0  0  1  0  0  0  0  0  0  0  0  0
  -25.5020  -29.8270   26.0380 C   0  0  0  0  0  1  0  0  0  0  0  0
  -27.2980  -29.0130   24.5050 C   0  0  0  0  0  1  0  0  0  0  0  0
  -27.7600  -30.9090   26.0380 C   0  0  0  0  0  1  0  0  0  0  0  0
  3  2  2  0
  3  1  1  0
  4  6  1  0
  4  2  1  0
  6  5  1  0
  7  4  2  0
  8  6  1  0
  8  9  1  0
 10  9  1  0
 11 16  1  0
 12 13  1  0
 12 11  1  0
 14 13  1  0
 14 21  1  0
 14 15  1  0
 16 10  1  0
 16 15  1  0
 17 10  2  0
 18 19  2  0
 19 38  1  0
 20 19  1  0
 20 23  1  0
 21 22  1  0
 21 18  1  0
 22 20  2  0
 23 24  1  0
 24 25  2  0
 26 29  1  0
 26 25  1  0
 27 26  2  0
 28 27  1  0
 28 23  2  0
 29 30  1  0
 30 35  2  0
 30 31  1  0
 31 32  2  0
 32 33  1  0
 33 37  1  0
 34 33  2  0
 35 34  1  0
 36 35  1  0
 38 39  1  0
 39 42  1  0
 39 41  1  0
 40 38  2  0
 43 18  1  0
 43 44  1  0
 45 43  1  0
 46  1  1  0
 47 46  1  0
 48 47  1  0
 49 48  1  0
 50 52  1  0
 50 49  1  0
 51 62  2  0
 52 57  1  0
 53 63  1  0
 53 61  1  0
 54 60  1  0
 54 56  1  0
 55 61  1  0
 56 55  1  0
 57 56  2  0
 58 59  1  0
 58 52  2  0
 59 54  2  0
 60 53  1  0
 61 51  1  0
 63 65  2  0
 64 63  1  0
 66 64  1  0
 67 76  2  0
 67 72  1  0
 68 64  1  0
 68 72  1  0
 69 68  1  0
 70 71  1  0
 70 69  1  0
 71 67  1  0
 72 73  2  0
 73 74  1  0
 75 74  2  0
 76 75  1  0
 77 51  1  0
 77 78  1  0
 77 87  1  0
 78 81  1  0
 79 78  1  0
 79 83  1  0
 80 79  2  0
 83 82  1  0
 83 85  1  0
 85 86  1  0
 85 84  1  0
 87 88  1  1
 87 90  1  0
 89 87  1  0
M  ISO  4   9 100  10 100  49 101  50 101
M  END
>  <TORSDO>  (37) 
F 24

>  <SCORE>  (37) 
-7.506

>  <name>  (37) 
36

>  <ligand_id>  (37) 
36

>  <original_smiles>  (37) 
[H]C(C(=O)N(C([H])([H])[H])C([H])([H])C([H])([H])C(=O)N1C([H])([H])C([H])([H])C([H])([H])C([H])(n2nc(-c3c([H])c([H])c(Oc4c([H])c([H])c(F)c([H])c4F)c([H])c3[H])c(C(=O)N([H])[H])c2N([H])[H])C1([H])[H])=C([H])C([H])([H])C([H])([H])C([H])([H])C([H])([H])C([H])([H])Oc1c([H])c([H])c2c(c1[H])C([H])([H])N(C(=O)C([H])(N([H])C(=O)C([H])(N([H])C([H])([H])[H])C([H])([H])[H])C(C([H])([H])[H])(C([H])([H])[H])C([H])([H])[H])C([H])(C(=O)N([H])C1([H])c3c([H])c([H])c([H])c([H])c3C([H])([H])C([H])([H])C1([H])[H])C2([H])[H]

>  <smiles>  (37) 
[H]C(C(=O)N(C([H])([H])[H])C([H])([H])C([H])([H])C(=O)N1C([H])([H])C([H])([H])C([H])([H])C([H])(n2nc(-c3c([H])c([H])c(Oc4c([H])c([H])c(F)c([H])c4F)c([H])c3[H])c(C(=O)N([H])[H])c2N([H])[H])C1([H])[H])=C([H])C([H])([H])C([H])([H])C([H])([H])C([H])([H])C([H])([H])Oc1c([H])c([H])c2c(c1[H])C([H])([H])N(C(=O)C([H])(N([H])C(=O)C([H])(N([H])C([H])([H])[H])C([H])([H])[H])C(C([H])([H])[H])(C([H])([H])[H])C([H])([H])[H])C([H])(C(=O)N([H])C1([H])c3c([H])c([H])c([H])c([H])c3C([H])([H])C([H])([H])C1([H])[H])C2([H])[H]

$$$$
37:0:0
     RDKit          3D

 86 94  0  0  1  0  0  0  0  0999 V2000
  -28.7550  -22.7490   20.5630 C   0  0  0  0  0  3  0  0  0  0  0  0
  -28.9360  -21.1140   19.8380 C   0  0  0  0  0  2  0  0  0  0  0  0
  -30.6270  -17.7490   21.5450 C   0  0  0  0  0  2  0  0  0  0  0  0
  -30.4270  -19.3330   21.3180 C   0  0  0  0  0  2  0  0  0  0  0  0
  -29.2470  -18.1940   19.7140 C   0  0  0  0  0  2  0  0  0  0  0  0
  -29.7430  -16.8280   20.6180 C   0  0  0  0  0  3  0  0  0  0  0  0
  -29.2210  -19.6010   20.4880 N   0  0  2  0  0  4  0  0  0  0  0  0
  -28.4520  -19.4950   21.1320 H   0  0  0  0  0  0  0  0  0  0  0  0
  -30.4520  -15.2770   20.1930 C   0  0  0  0  0  0  0  0  0  0  0  0
  -30.4010  -12.8370   19.2980 C   0  0  0  0  0  2  0  0  0  0  0  0
  -29.4640  -12.6870   18.0720 C   0  0  0  0  0  2  0  0  0  0  0  0
  -28.0150  -12.4280   18.5210 C   0  0  0  0  0  2  0  0  0  0  0  0
  -27.5920  -13.3720   19.6730 C   0  0  0  0  0  3  0  0  0  0  0  0
  -28.6540  -13.4770   20.7890 C   0  0  0  0  0  2  0  0  0  0  0  0
  -29.8970  -13.9650   20.1680 N   0  0  0  0  0  0  0  0  0  0  0  0
  -31.6420  -15.2680   19.8410 O   0  0  0  0  0  0  0  0  0  0  0  0
  -25.2280  -13.9310   20.4480 C   0  0  0  0  0  0  0  0  0  0  0  0
  -24.1700  -13.1550   20.8310 C   0  0  0  0  0  0  0  0  0  0  0  0
  -24.6380  -11.8050   20.7990 C   0  0  0  0  0  0  0  0  0  0  0  0
  -26.2690  -13.0560   20.1950 N   0  0  0  0  0  0  0  0  0  0  0  0
  -25.9270  -11.7720   20.4740 N   0  0  0  0  0  0  0  0  0  0  0  0
  -23.9120  -10.5430   21.0010 C   0  0  0  0  0  0  0  0  0  0  0  0
  -24.3550   -9.5750   21.9290 C   0  0  0  0  0  3  0  0  0  0  0  0
  -23.6270   -8.3800   22.1190 C   0  0  0  0  0  3  0  0  0  0  0  0
  -22.4420   -8.1460   21.3830 C   0  0  0  0  0  0  0  0  0  0  0  0
  -22.0180   -9.1020   20.4440 C   0  0  0  0  0  3  0  0  0  0  0  0
  -22.7470  -10.2880   20.2510 C   0  0  0  0  0  3  0  0  0  0  0  0
  -21.6850   -7.0030   21.4830 O   0  0  0  0  0  0  0  0  0  0  0  0
  -21.6550   -6.2580   22.6350 C   0  0  0  0  0  0  0  0  0  0  0  0
  -21.2590   -6.8120   23.8710 C   0  0  0  0  0  3  0  0  0  0  0  0
  -21.1750   -5.9940   25.0150 C   0  0  0  0  0  3  0  0  0  0  0  0
  -21.4780   -4.6230   24.9240 C   0  0  0  0  0  0  0  0  0  0  0  0
  -21.8680   -4.0670   23.6930 C   0  0  0  0  0  3  0  0  0  0  0  0
  -21.9530   -4.8830   22.5510 C   0  0  0  0  0  0  0  0  0  0  0  0
  -22.3080   -4.3380   21.3620 F   0  0  0  0  0  0  0  0  0  0  0  0
  -21.3920   -3.8340   26.0210 F   0  0  0  0  0  0  0  0  0  0  0  0
  -22.7760  -13.6330   21.1110 C   0  0  0  0  0  0  0  0  0  0  0  0
  -22.0560  -12.9430   21.9890 N   0  0  0  0  0  0  0  0  0  0  0  0
  -22.3340  -14.6550   20.5860 O   0  0  0  0  0  0  0  0  0  0  0  0
  -22.4270  -12.1170   22.4340 H   0  0  0  0  0  0  0  0  0  0  0  0
  -21.1200  -13.2470   22.2200 H   0  0  0  0  0  0  0  0  0  0  0  0
  -25.3880  -15.3020   20.2660 N   0  0  0  0  0  0  0  0  0  0  0  0
  -24.6200  -15.9550   20.3820 H   0  0  0  0  0  0  0  0  0  0  0  0
  -26.2290  -15.7390   19.9130 H   0  0  0  0  0  0  0  0  0  0  0  0
  -28.0840  -24.3010   19.9420 C   0  0  0  0  0  3  0  0  0  0  0  0
  -28.1990  -25.8930   20.3410 O   0  0  0  0  0  0  0  0  0  0  0  0
  -24.6360  -31.8640   23.2110 C   0  0  0  0  0  0  0  0  0  0  0  0
  -27.1870  -26.9800   20.2240 C   0  0  0  0  0  0  0  0  0  0  0  0
  -23.4400  -30.4610   21.5780 C   0  0  0  0  0  3  0  0  0  0  0  0
  -24.8890  -28.8510   20.1620 C   0  0  0  0  0  0  0  0  0  0  0  0
  -26.0050  -30.6710   21.4330 C   0  0  0  0  0  2  0  0  0  0  0  0
  -26.0730  -29.2600   20.7840 C   0  0  0  0  0  0  0  0  0  0  0  0
  -27.2150  -28.3430   20.7960 C   0  0  0  0  0  3  0  0  0  0  0  0
  -25.9780  -26.7230   19.5400 C   0  0  0  0  0  3  0  0  0  0  0  0
  -24.8650  -27.6030   19.5180 C   0  0  0  0  0  3  0  0  0  0  0  0
  -23.6690  -29.7710   20.2050 C   0  0  0  0  0  2  0  0  0  0  0  0
  -24.7150  -31.0260   22.1270 N   0  0  0  0  0  0  0  0  0  0  0  0
  -23.5470  -32.1580   23.7300 O   0  0  0  0  0  0  0  0  0  0  0  0
  -22.7440  -29.4710   22.5480 C   0  0  0  0  0  0  0  0  0  0  0  0
  -21.4140  -29.3150   22.4290 N   0  0  0  0  0  0  0  0  0  0  0  0
  -23.4090  -28.8450   23.3780 O   0  0  0  0  0  0  0  0  0  0  0  0
  -20.9300  -29.8710   21.7370 H   0  0  0  0  0  0  0  0  0  0  0  0
  -18.0250  -28.1270   22.9480 C   0  0  0  0  0  0  0  0  0  0  0  0
  -20.5870  -28.3850   23.2060 C   0  0  0  0  0  3  0  0  0  0  0  0
  -20.6820  -26.9490   22.6390 C   0  0  0  0  0  2  0  0  0  0  0  0
  -19.5760  -26.6260   21.6270 C   0  0  0  0  0  2  0  0  0  0  0  0
  -18.1960  -26.7760   22.2740 C   0  0  0  0  0  2  0  0  0  0  0  0
  -19.1470  -28.8890   23.3720 C   0  0  0  0  0  0  0  0  0  0  0  0
  -18.9300  -30.1510   23.9660 C   0  0  0  0  0  3  0  0  0  0  0  0
  -17.6270  -30.6520   24.1400 C   0  0  0  0  0  3  0  0  0  0  0  0
  -16.5200  -29.8880   23.7300 C   0  0  0  0  0  3  0  0  0  0  0  0
  -16.7200  -28.6270   23.1410 C   0  0  0  0  0  3  0  0  0  0  0  0
  -25.9090  -32.5070   23.8410 C   0  0  0  0  0  3  0  0  0  0  0  0
  -26.4150  -31.7450   25.1280 C   0  0  1  0  0  0  0  0  0  0  0  0
  -25.3160  -31.5180   26.1930 C   0  0  0  0  0  1  0  0  0  0  0  0
  -26.9960  -30.3610   24.7580 C   0  0  0  0  0  1  0  0  0  0  0  0
  -27.5640  -32.5400   25.7900 C   0  0  0  0  0  1  0  0  0  0  0  0
  -25.5910  -33.9070   24.1750 N   0  0  0  0  0  0  0  0  0  0  0  0
  -25.9190  -34.9680   23.4260 C   0  0  0  0  0  0  0  0  0  0  0  0
  -26.5840  -34.8730   22.3920 O   0  0  0  0  0  0  0  0  0  0  0  0
  -24.9990  -34.0540   24.9790 H   0  0  0  0  0  0  0  0  0  0  0  0
  -24.1850  -36.7670   23.1060 C   0  0  0  0  0  1  0  0  0  0  0  0
  -25.4360  -36.3560   23.8980 C   0  0  0  0  0  3  0  0  0  0  0  0
  -27.5800  -37.2430   24.7070 C   0  0  0  0  0  1  0  0  0  0  0  0
  -26.4660  -37.4110   23.7770 N   0  0  0  0  0  0  0  0  0  0  0  0
  -26.0600  -38.3300   23.9330 H   0  0  0  0  0  0  0  0  0  0  0  0
  2  7  1  0
  2  1  1  0
  4  3  1  0
  5  7  1  0
  5  6  1  0
  6  9  1  0
  6  3  1  0
  7  8  1  1
  7  4  1  0
 10 15  1  0
 11 12  1  0
 11 10  1  0
 13 12  1  0
 13 20  1  0
 13 14  1  0
 15  9  1  0
 15 14  1  0
 16  9  2  0
 17 18  2  0
 18 37  1  0
 19 18  1  0
 19 22  1  0
 20 17  1  0
 20 21  1  0
 21 19  2  0
 22 23  1  0
 23 24  2  0
 25 28  1  0
 25 24  1  0
 26 25  2  0
 27 26  1  0
 27 22  2  0
 28 29  1  0
 29 30  1  0
 30 31  2  0
 32 31  1  0
 32 36  1  0
 33 32  2  0
 34 29  2  0
 34 33  1  0
 35 34  1  0
 37 38  1  0
 38 41  1  0
 38 40  1  0
 39 37  2  0
 42 43  1  0
 42 17  1  0
 44 42  1  0
 45 46  1  0
 45  1  2  0
 47 58  2  0
 48 46  1  0
 48 53  1  0
 49 57  1  0
 49 59  1  0
 50 56  1  0
 50 52  1  0
 51 57  1  0
 52 53  2  0
 52 51  1  0
 54 48  2  0
 55 54  1  0
 55 50  2  0
 56 49  1  0
 57 47  1  0
 59 61  2  0
 60 59  1  0
 62 60  1  0
 63 72  2  0
 63 68  1  0
 64 60  1  0
 64 68  1  0
 65 64  1  0
 66 67  1  0
 66 65  1  0
 67 63  1  0
 68 69  2  0
 69 70  1  0
 71 70  2  0
 72 71  1  0
 73 47  1  0
 73 78  1  0
 73 74  1  0
 74 77  1  1
 74 75  1  0
 76 74  1  0
 78 81  1  0
 79 83  1  0
 79 78  1  0
 80 79  2  0
 83 82  1  0
 85 83  1  0
 85 86  1  0
 85 84  1  0
M  ISO  4   6 100   9 100  45 101  46 101
M  END
>  <TORSDO>  (38) 
F 19

>  <SCORE>  (38) 
-15.874

>  <name>  (38) 
37

>  <ligand_id>  (38) 
37

>  <original_smiles>  (38) 
[H]c1c([H])c([H])c2c(c1[H])C([H])([H])C([H])([H])C([H])([H])C2([H])N([H])C(=O)C1([H])N(C(=O)C([H])(N([H])C(=O)C([H])(N([H])C([H])([H])[H])C([H])([H])[H])C(C([H])([H])[H])(C([H])([H])[H])C([H])([H])[H])C([H])([H])c2c([H])c(OC([H])([H])C([H])([H])C([H])([H])[N+]3([H])C([H])([H])C([H])([H])C([H])(C(=O)N4C([H])([H])C([H])([H])C([H])([H])C([H])(n5nc(-c6c([H])c([H])c(Oc7c([H])c([H])c(F)c([H])c7F)c([H])c6[H])c(C(=O)N([H])[H])c5N([H])[H])C4([H])[H])C3([H])[H])c([H])c([H])c2C1([H])[H]

>  <smiles>  (38) 
[H]c1c([H])c([H])c2c(c1[H])C([H])([H])C([H])([H])C([H])([H])C2([H])N([H])C(=O)C1([H])N(C(=O)C([H])(N([H])C(=O)C([H])(N([H])C([H])([H])[H])C([H])([H])[H])C(C([H])([H])[H])(C([H])([H])[H])C([H])([H])[H])C([H])([H])c2c([H])c(OC([H])([H])C([H])([H])C([H])([H])[N+]3([H])C([H])([H])C([H])([H])C([H])(C(=O)N4C([H])([H])C([H])([H])C([H])([H])C([H])(n5nc(-c6c([H])c([H])c(Oc7c([H])c([H])c(F)c([H])c7F)c([H])c6[H])c(C(=O)N([H])[H])c5N([H])[H])C4([H])[H])C3([H])[H])c([H])c([H])c2C1([H])[H]

$$$$
38:0:0
     RDKit          3D

 95102  0  0  1  0  0  0  0  0999 V2000
  -29.3750  -19.8850   20.2890 C   0  0  0  0  0  3  0  0  0  0  0  0
  -29.9190  -21.1150   19.5600 N   0  0  0  0  0  4  0  0  0  0  0  0
  -30.5900  -21.5500   20.1720 H   0  0  0  0  0  0  0  0  0  0  0  0
  -30.4310  -20.7950   18.7540 H   0  0  0  0  0  0  0  0  0  0  0  0
  -28.9330  -22.1900   19.0990 C   0  0  0  0  0  2  0  0  0  0  0  0
  -29.4450  -23.6960   18.8700 C   0  0  0  0  0  2  0  0  0  0  0  0
  -28.2960  -24.8070   18.8860 C   0  0  0  0  0  2  0  0  0  0  0  0
  -28.5730  -26.2690   18.7990 O   0  0  0  0  0  0  0  0  0  0  0  0
  -24.8480  -30.9800   22.8110 C   0  0  0  0  0  0  0  0  0  0  0  0
  -27.4610  -27.1220   18.9130 C   0  0  0  0  0  0  0  0  0  0  0  0
  -23.6260  -29.8660   20.9780 C   0  0  0  0  0  3  0  0  0  0  0  0
  -25.0690  -28.6590   19.2500 C   0  0  0  0  0  0  0  0  0  0  0  0
  -26.1520  -30.2880   20.7910 C   0  0  0  0  0  2  0  0  0  0  0  0
  -26.2450  -29.0530   19.9010 C   0  0  0  0  0  0  0  0  0  0  0  0
  -27.4470  -28.2970   19.7290 C   0  0  0  0  0  3  0  0  0  0  0  0
  -26.2640  -26.8110   18.2230 C   0  0  0  0  0  3  0  0  0  0  0  0
  -25.0830  -27.5500   18.3980 C   0  0  0  0  0  3  0  0  0  0  0  0
  -23.8120  -29.4670   19.4930 C   0  0  0  0  0  2  0  0  0  0  0  0
  -24.8960  -30.3850   21.5840 N   0  0  0  0  0  0  0  0  0  0  0  0
  -23.7750  -31.1260   23.4130 O   0  0  0  0  0  0  0  0  0  0  0  0
  -23.0220  -28.6720   21.7540 C   0  0  0  0  0  0  0  0  0  0  0  0
  -21.7020  -28.4670   21.6170 N   0  0  0  0  0  0  0  0  0  0  0  0
  -23.7400  -27.9380   22.4400 O   0  0  0  0  0  0  0  0  0  0  0  0
  -21.1820  -29.1190   21.0470 H   0  0  0  0  0  0  0  0  0  0  0  0
  -18.3790  -27.0750   21.9410 C   0  0  0  0  0  0  0  0  0  0  0  0
  -20.9320  -27.3770   22.2170 C   0  0  0  0  0  3  0  0  0  0  0  0
  -21.0710  -26.0800   21.3890 C   0  0  0  0  0  2  0  0  0  0  0  0
  -19.9620  -25.9070   20.3510 C   0  0  0  0  0  2  0  0  0  0  0  0
  -18.5870  -25.8800   21.0270 C   0  0  0  0  0  2  0  0  0  0  0  0
  -19.4790  -27.7890   22.4830 C   0  0  0  0  0  0  0  0  0  0  0  0
  -19.2330  -28.9180   23.2920 C   0  0  0  0  0  3  0  0  0  0  0  0
  -17.9190  -29.3340   23.5680 C   0  0  0  0  0  3  0  0  0  0  0  0
  -16.8310  -28.6180   23.0390 C   0  0  0  0  0  3  0  0  0  0  0  0
  -17.0610  -27.4910   22.2320 C   0  0  0  0  0  3  0  0  0  0  0  0
  -26.1340  -31.5250   23.5040 C   0  0  0  0  0  3  0  0  0  0  0  0
  -25.7780  -32.7900   24.1590 N   0  0  0  0  0  0  0  0  0  0  0  0
  -26.0260  -34.0060   23.6510 C   0  0  0  0  0  0  0  0  0  0  0  0
  -26.6490  -34.1790   22.6010 O   0  0  0  0  0  0  0  0  0  0  0  0
  -25.2200  -32.7270   24.9960 H   0  0  0  0  0  0  0  0  0  0  0  0
  -24.2040  -35.7380   23.7820 C   0  0  0  0  0  1  0  0  0  0  0  0
  -25.4970  -35.2240   24.4340 C   0  0  0  0  0  3  0  0  0  0  0  0
  -27.6220  -36.0110   25.3810 C   0  0  0  0  0  1  0  0  0  0  0  0
  -26.4760  -36.3290   24.5330 N   0  0  0  0  0  0  0  0  0  0  0  0
  -26.0340  -37.1670   24.9010 H   0  0  0  0  0  0  0  0  0  0  0  0
  -26.7510  -30.5150   24.5450 C   0  0  1  0  0  0  0  0  0  0  0  0
  -25.7250  -29.9780   25.5690 C   0  0  0  0  0  1  0  0  0  0  0  0
  -27.3800  -29.3000   23.8210 C   0  0  0  0  0  1  0  0  0  0  0  0
  -27.8930  -31.2050   25.3260 C   0  0  0  0  0  1  0  0  0  0  0  0
  -29.0030  -21.5710   22.2950 C   0  0  0  0  0  1  0  0  0  0  0  0
  -28.4980  -20.3500   21.5000 C   0  0  0  0  0  2  0  0  0  0  0  0
  -30.4620  -18.7060   20.6050 C   0  0  0  0  0  3  0  0  0  0  0  0
  -30.8450  -18.7190   22.0080 N   0  0  0  0  0  0  0  0  0  0  0  0
  -30.0190  -18.7400   22.5930 H   0  0  0  0  0  0  0  0  0  0  0  0
  -31.3590  -19.5600   22.2450 H   0  0  0  0  0  0  0  0  0  0  0  0
  -30.2720  -17.1590   20.1360 C   0  0  0  0  0  3  0  0  0  0  0  0
  -30.5000  -15.9820   21.2060 C   0  0  0  0  0  2  0  0  0  0  0  0
  -31.0320  -14.5370   20.8210 C   0  0  0  0  0  0  0  0  0  0  0  0
  -30.9410  -12.0540   20.5220 C   0  0  0  0  0  2  0  0  0  0  0  0
  -30.2130  -11.7040   19.2070 C   0  0  0  0  0  2  0  0  0  0  0  0
  -28.6980  -11.5910   19.4520 C   0  0  0  0  0  2  0  0  0  0  0  0
  -28.1390  -12.8040   20.2480 C   0  0  0  0  0  3  0  0  0  0  0  0
  -29.0120  -13.1250   21.4930 C   0  0  0  0  0  2  0  0  0  0  0  0
  -30.3900  -13.3350   21.0320 N   0  0  0  0  0  0  0  0  0  0  0  0
  -32.1690  -14.5200   20.3420 O   0  0  0  0  0  0  0  0  0  0  0  0
  -25.7130  -13.5410   20.6960 C   0  0  0  0  0  0  0  0  0  0  0  0
  -24.5740  -12.8290   20.9610 C   0  0  0  0  0  0  0  0  0  0  0  0
  -24.9580  -11.4570   20.9610 C   0  0  0  0  0  0  0  0  0  0  0  0
  -26.7310  -12.6050   20.5890 N   0  0  0  0  0  0  0  0  0  0  0  0
  -26.2700  -11.3430   20.7930 N   0  0  0  0  0  0  0  0  0  0  0  0
  -24.1350  -10.2420   21.0510 C   0  0  0  0  0  0  0  0  0  0  0  0
  -24.2820   -9.3270   22.1160 C   0  0  0  0  0  3  0  0  0  0  0  0
  -23.4630   -8.1790   22.1940 C   0  0  0  0  0  3  0  0  0  0  0  0
  -22.4800   -7.9410   21.2030 C   0  0  0  0  0  0  0  0  0  0  0  0
  -22.3500   -8.8460   20.1340 C   0  0  0  0  0  3  0  0  0  0  0  0
  -23.1700   -9.9860   20.0560 C   0  0  0  0  0  3  0  0  0  0  0  0
  -21.6580   -6.8400   21.1830 O   0  0  0  0  0  0  0  0  0  0  0  0
  -21.1840   -6.2760   22.3420 C   0  0  0  0  0  0  0  0  0  0  0  0
  -20.4000   -7.0100   23.2590 C   0  0  0  0  0  3  0  0  0  0  0  0
  -19.8810   -6.3730   24.4050 C   0  0  0  0  0  3  0  0  0  0  0  0
  -20.1310   -5.0050   24.6220 C   0  0  0  0  0  0  0  0  0  0  0  0
  -20.9050   -4.2730   23.7080 C   0  0  0  0  0  3  0  0  0  0  0  0
  -21.4290   -4.9070   22.5670 C   0  0  0  0  0  0  0  0  0  0  0  0
  -22.1590   -4.1930   21.6770 F   0  0  0  0  0  0  0  0  0  0  0  0
  -19.6250   -4.3920   25.7190 F   0  0  0  0  0  0  0  0  0  0  0  0
  -23.1920  -13.3980   21.1010 C   0  0  0  0  0  0  0  0  0  0  0  0
  -22.3470  -12.7590   21.9060 N   0  0  0  0  0  0  0  0  0  0  0  0
  -22.8710  -14.4470   20.5490 O   0  0  0  0  0  0  0  0  0  0  0  0
  -22.6150  -11.9130   22.3870 H   0  0  0  0  0  0  0  0  0  0  0  0
  -21.4220  -13.1340   22.0510 H   0  0  0  0  0  0  0  0  0  0  0  0
  -25.9370  -14.8950   20.5050 N   0  0  0  0  0  0  0  0  0  0  0  0
  -25.1630  -15.5510   20.4860 H   0  0  0  0  0  0  0  0  0  0  0  0
  -26.8120  -15.3170   20.2250 H   0  0  0  0  0  0  0  0  0  0  0  0
  -28.9690  -16.8710   19.3600 C   0  0  0  0  0  2  0  0  0  0  0  0
  -26.4160  -16.8110   19.2310 C   0  0  0  0  0  1  0  0  0  0  0  0
  -27.6420  -16.8380   20.1580 C   0  0  0  0  0  2  0  0  0  0  0  0
  1 51  1  0
  1 50  1  0
  2  3  1  0
  2  1  1  0
  4  2  1  0
  5  2  1  0
  6  7  1  0
  6  5  1  0
  8  7  1  0
  8 10  1  0
  9 20  2  0
 10 15  1  0
 11 19  1  0
 11 21  1  0
 12 18  1  0
 12 14  1  0
 13 19  1  0
 14 13  1  0
 15 14  2  0
 16 17  1  0
 16 10  2  0
 17 12  2  0
 18 11  1  0
 19  9  1  0
 21 23  2  0
 22 21  1  0
 24 22  1  0
 25 34  2  0
 25 30  1  0
 26 22  1  0
 26 30  1  0
 27 26  1  0
 28 29  1  0
 28 27  1  0
 29 25  1  0
 30 31  2  0
 31 32  1  0
 33 32  2  0
 34 33  1  0
 35  9  1  0
 35 36  1  0
 35 45  1  0
 36 39  1  0
 37 36  1  0
 37 41  1  0
 38 37  2  0
 41 40  1  0
 41 43  1  0
 43 44  1  0
 43 42  1  0
 45 48  1  1
 45 46  1  0
 47 45  1  0
 50 49  1  0
 51 52  1  0
 52 54  1  0
 52 53  1  0
 55 93  1  0
 55 51  1  0
 55 56  1  0
 57 63  1  0
 57 56  1  0
 58 63  1  0
 59 60  1  0
 59 58  1  0
 61 60  1  0
 61 68  1  0
 61 62  1  0
 63 62  1  0
 64 57  2  0
 65 66  2  0
 66 85  1  0
 67 66  1  0
 67 70  1  0
 68 65  1  0
 68 69  1  0
 69 67  2  0
 70 71  1  0
 71 72  2  0
 73 72  1  0
 74 73  2  0
 75 74  1  0
 75 70  2  0
 76 73  1  0
 76 77  1  0
 77 82  2  0
 77 78  1  0
 78 79  2  0
 79 80  1  0
 80 84  1  0
 81 80  2  0
 82 81  1  0
 83 82  1  0
 85 86  1  0
 86 89  1  0
 86 88  1  0
 87 85  2  0
 90 65  1  0
 91 90  1  0
 92 90  1  0
 93 95  1  0
 94 95  1  0
M  ISO  4   7 101   8 101  56 100  57 100
M  END
>  <TORSDO>  (39) 
F 27

>  <SCORE>  (39) 
-8.010

>  <name>  (39) 
38

>  <ligand_id>  (39) 
38

>  <original_smiles>  (39) 
[H]c1c([H])c([H])c2c(c1[H])C([H])([H])C([H])([H])C([H])([H])C2([H])N([H])C(=O)C1([H])N(C(=O)C([H])(N([H])C(=O)C([H])(N([H])C([H])([H])[H])C([H])([H])[H])C(C([H])([H])[H])(C([H])([H])[H])C([H])([H])[H])C([H])([H])c2c([H])c(OC([H])([H])C([H])([H])C([H])([H])[N+]([H])([H])C([H])(C([H])([H])C([H])([H])[H])C([H])(N([H])[H])C([H])(C([H])([H])C(=O)N3C([H])([H])C([H])([H])C([H])([H])C([H])(n4nc(-c5c([H])c([H])c(Oc6c([H])c([H])c(F)c([H])c6F)c([H])c5[H])c(C(=O)N([H])[H])c4N([H])[H])C3([H])[H])C([H])([H])C([H])([H])C([H])([H])[H])c([H])c([H])c2C1([H])[H]

>  <smiles>  (39) 
[H]c1c([H])c([H])c2c(c1[H])C([H])([H])C([H])([H])C([H])([H])C2([H])N([H])C(=O)C1([H])N(C(=O)C([H])(N([H])C(=O)C([H])(N([H])C([H])([H])[H])C([H])([H])[H])C(C([H])([H])[H])(C([H])([H])[H])C([H])([H])[H])C([H])([H])c2c([H])c(OC([H])([H])C([H])([H])C([H])([H])[N+]([H])([H])C([H])(C([H])([H])C([H])([H])[H])C([H])(N([H])[H])C([H])(C([H])([H])C(=O)N3C([H])([H])C([H])([H])C([H])([H])C([H])(n4nc(-c5c([H])c([H])c(Oc6c([H])c([H])c(F)c([H])c6F)c([H])c5[H])c(C(=O)N([H])[H])c4N([H])[H])C3([H])[H])C([H])([H])C([H])([H])C([H])([H])[H])c([H])c([H])c2C1([H])[H]

$$$$
39:0:0
     RDKit          3D

 89 96  0  0  1  0  0  0  0  0999 V2000
  -29.2980  -22.0360   20.5700 C   0  0  0  0  0  3  0  0  0  0  0  0
  -28.9840  -20.5730   20.0580 N   0  0  0  0  0  4  0  0  0  0  0  0
  -27.9820  -20.4750   20.0410 H   0  0  0  0  0  0  0  0  0  0  0  0
  -29.2790  -20.5330   19.0960 H   0  0  0  0  0  0  0  0  0  0  0  0
  -29.5260  -19.2690   20.7750 C   0  0  0  0  0  2  0  0  0  0  0  0
  -29.7220  -17.7810   20.0180 C   0  0  0  0  0  2  0  0  0  0  0  0
  -29.8020  -16.3020   20.8080 C   0  0  0  0  0  2  0  0  0  0  0  0
  -30.5070  -14.9130   20.2560 C   0  0  0  0  0  0  0  0  0  0  0  0
  -30.3450  -12.5930   19.2540 C   0  0  0  0  0  2  0  0  0  0  0  0
  -29.3880  -12.6190   18.0400 C   0  0  0  0  0  2  0  0  0  0  0  0
  -27.9260  -12.4250   18.4870 C   0  0  0  0  0  2  0  0  0  0  0  0
  -27.5610  -13.3140   19.7050 C   0  0  0  0  0  3  0  0  0  0  0  0
  -28.6350  -13.2540   20.8100 C   0  0  0  0  0  2  0  0  0  0  0  0
  -29.9130  -13.6550   20.2060 N   0  0  0  0  0  0  0  0  0  0  0  0
  -31.6610  -14.9970   19.8220 O   0  0  0  0  0  0  0  0  0  0  0  0
  -25.1880  -13.9000   20.4680 C   0  0  0  0  0  0  0  0  0  0  0  0
  -24.1280  -13.1260   20.8550 C   0  0  0  0  0  0  0  0  0  0  0  0
  -24.5900  -11.7750   20.8210 C   0  0  0  0  0  0  0  0  0  0  0  0
  -26.2270  -13.0190   20.2170 N   0  0  0  0  0  0  0  0  0  0  0  0
  -25.8760  -11.7350   20.4920 N   0  0  0  0  0  0  0  0  0  0  0  0
  -23.8630  -10.5140   21.0260 C   0  0  0  0  0  0  0  0  0  0  0  0
  -24.3200   -9.5390   21.9400 C   0  0  0  0  0  3  0  0  0  0  0  0
  -23.5950   -8.3430   22.1330 C   0  0  0  0  0  3  0  0  0  0  0  0
  -22.3980   -8.1140   21.4120 C   0  0  0  0  0  0  0  0  0  0  0  0
  -21.9600   -9.0790   20.4870 C   0  0  0  0  0  3  0  0  0  0  0  0
  -22.6870  -10.2660   20.2920 C   0  0  0  0  0  3  0  0  0  0  0  0
  -21.6410   -6.9740   21.5160 O   0  0  0  0  0  0  0  0  0  0  0  0
  -21.6380   -6.2120   22.6580 C   0  0  0  0  0  0  0  0  0  0  0  0
  -21.2830   -6.7520   23.9130 C   0  0  0  0  0  3  0  0  0  0  0  0
  -21.2270   -5.9180   25.0480 C   0  0  0  0  0  3  0  0  0  0  0  0
  -21.5160   -4.5460   24.9300 C   0  0  0  0  0  0  0  0  0  0  0  0
  -21.8630   -4.0050   23.6780 C   0  0  0  0  0  3  0  0  0  0  0  0
  -21.9210   -4.8350   22.5460 C   0  0  0  0  0  0  0  0  0  0  0  0
  -22.2370   -4.3050   21.3390 F   0  0  0  0  0  0  0  0  0  0  0  0
  -21.4540   -3.7430   26.0180 F   0  0  0  0  0  0  0  0  0  0  0  0
  -22.7340  -13.6050   21.1450 C   0  0  0  0  0  0  0  0  0  0  0  0
  -22.0190  -12.9140   22.0260 N   0  0  0  0  0  0  0  0  0  0  0  0
  -22.2900  -14.6280   20.6260 O   0  0  0  0  0  0  0  0  0  0  0  0
  -22.3940  -12.0880   22.4680 H   0  0  0  0  0  0  0  0  0  0  0  0
  -21.0840  -13.2150   22.2600 H   0  0  0  0  0  0  0  0  0  0  0  0
  -25.3510  -15.2700   20.2860 N   0  0  0  0  0  0  0  0  0  0  0  0
  -24.5900  -15.9280   20.4090 H   0  0  0  0  0  0  0  0  0  0  0  0
  -26.2010  -15.7040   19.9510 H   0  0  0  0  0  0  0  0  0  0  0  0
  -31.1280  -22.5190   18.8000 C   0  0  0  0  0  1  0  0  0  0  0  0
  -31.2970  -23.5820   21.1180 C   0  0  0  0  0  1  0  0  0  0  0  0
  -30.7870  -22.3850   20.2960 C   0  0  0  0  0  3  0  0  0  0  0  0
  -28.2310  -23.3510   20.4490 C   0  0  0  0  0  2  0  0  0  0  0  0
  -28.3860  -24.8470   19.7000 C   0  0  0  0  0  2  0  0  0  0  0  0
  -28.2660  -26.2720   20.2840 O   0  0  0  0  0  0  0  0  0  0  0  0
  -24.6120  -31.8800   23.2270 C   0  0  0  0  0  0  0  0  0  0  0  0
  -27.1690  -27.1880   20.1780 C   0  0  0  0  0  0  0  0  0  0  0  0
  -23.3920  -30.4780   21.6040 C   0  0  0  0  0  3  0  0  0  0  0  0
  -24.8250  -28.8980   20.1650 C   0  0  0  0  0  0  0  0  0  0  0  0
  -25.9390  -30.7520   21.4070 C   0  0  0  0  0  2  0  0  0  0  0  0
  -26.0050  -29.3600   20.7600 C   0  0  0  0  0  0  0  0  0  0  0  0
  -27.1720  -28.5170   20.7530 C   0  0  0  0  0  3  0  0  0  0  0  0
  -25.9620  -26.8100   19.5490 C   0  0  0  0  0  3  0  0  0  0  0  0
  -24.8150  -27.6360   19.5470 C   0  0  0  0  0  3  0  0  0  0  0  0
  -23.5950  -29.7900   20.2250 C   0  0  0  0  0  2  0  0  0  0  0  0
  -24.6680  -31.0590   22.1340 N   0  0  0  0  0  0  0  0  0  0  0  0
  -23.5330  -32.1660   23.7670 O   0  0  0  0  0  0  0  0  0  0  0  0
  -22.7260  -29.4760   22.5780 C   0  0  0  0  0  0  0  0  0  0  0  0
  -21.3980  -29.3000   22.4620 N   0  0  0  0  0  0  0  0  0  0  0  0
  -23.4060  -28.8560   23.4000 O   0  0  0  0  0  0  0  0  0  0  0  0
  -20.9060  -29.8530   21.7740 H   0  0  0  0  0  0  0  0  0  0  0  0
  -18.0260  -28.0820   22.9760 C   0  0  0  0  0  0  0  0  0  0  0  0
  -20.5830  -28.3660   23.2430 C   0  0  0  0  0  3  0  0  0  0  0  0
  -20.6950  -26.9280   22.6860 C   0  0  0  0  0  2  0  0  0  0  0  0
  -19.5970  -26.5850   21.6740 C   0  0  0  0  0  2  0  0  0  0  0  0
  -18.2140  -26.7260   22.3140 C   0  0  0  0  0  2  0  0  0  0  0  0
  -19.1390  -28.8590   23.3970 C   0  0  0  0  0  0  0  0  0  0  0  0
  -18.9090  -30.1260   23.9760 C   0  0  0  0  0  3  0  0  0  0  0  0
  -17.6000  -30.6170   24.1360 C   0  0  0  0  0  3  0  0  0  0  0  0
  -16.5020  -29.8380   23.7310 C   0  0  0  0  0  3  0  0  0  0  0  0
  -16.7160  -28.5720   23.1570 C   0  0  0  0  0  3  0  0  0  0  0  0
  -25.8990  -32.5150   23.8390 C   0  0  0  0  0  3  0  0  0  0  0  0
  -25.5910  -33.9140   24.1780 N   0  0  0  0  0  0  0  0  0  0  0  0
  -25.9140  -34.9720   23.4230 C   0  0  0  0  0  0  0  0  0  0  0  0
  -26.5710  -34.8740   22.3830 O   0  0  0  0  0  0  0  0  0  0  0  0
  -25.0050  -34.0640   24.9850 H   0  0  0  0  0  0  0  0  0  0  0  0
  -24.1800  -36.7690   23.1070 C   0  0  0  0  0  1  0  0  0  0  0  0
  -25.4350  -36.3590   23.8960 C   0  0  0  0  0  3  0  0  0  0  0  0
  -27.5850  -37.2400   24.6910 C   0  0  0  0  0  1  0  0  0  0  0  0
  -26.4650  -37.4130   23.7700 N   0  0  0  0  0  0  0  0  0  0  0  0
  -26.0620  -38.3330   23.9310 H   0  0  0  0  0  0  0  0  0  0  0  0
  -26.4260  -31.7450   25.1130 C   0  0  1  0  0  0  0  0  0  0  0  0
  -25.3440  -31.5130   26.1940 C   0  0  0  0  0  1  0  0  0  0  0  0
  -27.0020  -30.3650   24.7220 C   0  0  0  0  0  1  0  0  0  0  0  0
  -27.5860  -32.5380   25.7610 C   0  0  0  0  0  1  0  0  0  0  0  0
  1 47  1  0
  2  1  1  0
  2  5  1  0
  3  2  1  0
  4  2  1  0
  6  5  1  0
  6  7  1  0
  8  7  1  0
  9 14  1  0
 10 11  1  0
 10  9  1  0
 12 11  1  0
 12 19  1  0
 12 13  1  0
 14  8  1  0
 14 13  1  0
 15  8  2  0
 16 17  2  0
 17 36  1  0
 18 17  1  0
 18 21  1  0
 19 16  1  0
 19 20  1  0
 20 18  2  0
 21 22  1  0
 22 23  2  0
 24 27  1  0
 24 23  1  0
 25 24  2  0
 26 25  1  0
 26 21  2  0
 27 28  1  0
 28 29  1  0
 29 30  2  0
 31 30  1  0
 31 35  1  0
 32 31  2  0
 33 28  2  0
 33 32  1  0
 34 33  1  0
 36 37  1  0
 37 40  1  0
 37 39  1  0
 38 36  2  0
 41 42  1  0
 41 16  1  0
 43 41  1  0
 44 46  1  0
 46  1  1  0
 46 45  1  0
 48 49  1  0
 48 47  1  0
 50 61  2  0
 51 49  1  0
 51 56  1  0
 52 60  1  0
 52 62  1  0
 53 59  1  0
 53 55  1  0
 54 60  1  0
 55 54  1  0
 56 55  2  0
 57 51  2  0
 58 57  1  0
 58 53  2  0
 59 52  1  0
 60 50  1  0
 62 64  2  0
 63 62  1  0
 65 63  1  0
 66 75  2  0
 66 71  1  0
 67 63  1  0
 67 71  1  0
 68 67  1  0
 69 70  1  0
 69 68  1  0
 70 66  1  0
 71 72  2  0
 72 73  1  0
 74 73  2  0
 75 74  1  0
 76 50  1  0
 76 77  1  0
 76 86  1  0
 77 80  1  0
 78 82  1  0
 78 77  1  0
 79 78  2  0
 82 81  1  0
 84 82  1  0
 84 85  1  0
 84 83  1  0
 86 89  1  1
 86 87  1  0
 88 86  1  0
M  ISO  4   7 100   8 100  48 101  49 101
M  END
>  <TORSDO>  (40) 
F 23

>  <SCORE>  (40) 
-12.952

>  <name>  (40) 
39

>  <ligand_id>  (40) 
39

>  <original_smiles>  (40) 
[H]c1c([H])c([H])c2c(c1[H])C([H])([H])C([H])([H])C([H])([H])C2([H])N([H])C(=O)C1([H])N(C(=O)C([H])(N([H])C(=O)C([H])(N([H])C([H])([H])[H])C([H])([H])[H])C(C([H])([H])[H])(C([H])([H])[H])C([H])([H])[H])C([H])([H])c2c([H])c(OC([H])([H])C([H])([H])C([H])(C([H])(C([H])([H])[H])C([H])([H])[H])[N+]([H])([H])C([H])([H])C([H])([H])C([H])([H])C(=O)N3C([H])([H])C([H])([H])C([H])([H])C([H])(n4nc(-c5c([H])c([H])c(Oc6c([H])c([H])c(F)c([H])c6F)c([H])c5[H])c(C(=O)N([H])[H])c4N([H])[H])C3([H])[H])c([H])c([H])c2C1([H])[H]

>  <smiles>  (40) 
[H]c1c([H])c([H])c2c(c1[H])C([H])([H])C([H])([H])C([H])([H])C2([H])N([H])C(=O)C1([H])N(C(=O)C([H])(N([H])C(=O)C([H])(N([H])C([H])([H])[H])C([H])([H])[H])C(C([H])([H])[H])(C([H])([H])[H])C([H])([H])[H])C([H])([H])c2c([H])c(OC([H])([H])C([H])([H])C([H])(C([H])(C([H])([H])[H])C([H])([H])[H])[N+]([H])([H])C([H])([H])C([H])([H])C([H])([H])C(=O)N3C([H])([H])C([H])([H])C([H])([H])C([H])(n4nc(-c5c([H])c([H])c(Oc6c([H])c([H])c(F)c([H])c6F)c([H])c5[H])c(C(=O)N([H])[H])c4N([H])[H])C3([H])[H])c([H])c([H])c2C1([H])[H]

$$$$
40:0:0
     RDKit          3D

 83 90  0  0  1  0  0  0  0  0999 V2000
  -27.9770  -23.9420   20.2520 C   0  0  0  0  0  3  0  0  0  0  0  0
  -28.1620  -25.6720   20.2750 O   0  0  0  0  0  0  0  0  0  0  0  0
  -24.6340  -31.8930   23.2090 C   0  0  0  0  0  0  0  0  0  0  0  0
  -27.1660  -26.8490   20.2330 C   0  0  0  0  0  0  0  0  0  0  0  0
  -23.4400  -30.4880   21.5810 C   0  0  0  0  0  3  0  0  0  0  0  0
  -24.8850  -28.8420   20.1730 C   0  0  0  0  0  0  0  0  0  0  0  0
  -26.0160  -30.6470   21.4440 C   0  0  0  0  0  2  0  0  0  0  0  0
  -26.0810  -29.2160   20.7960 C   0  0  0  0  0  0  0  0  0  0  0  0
  -27.2080  -28.2460   20.7930 C   0  0  0  0  0  3  0  0  0  0  0  0
  -25.9320  -26.6670   19.5590 C   0  0  0  0  0  3  0  0  0  0  0  0
  -24.8460  -27.5910   19.5320 C   0  0  0  0  0  3  0  0  0  0  0  0
  -23.6760  -29.7870   20.2130 C   0  0  0  0  0  2  0  0  0  0  0  0
  -24.7210  -31.0410   22.1300 N   0  0  0  0  0  0  0  0  0  0  0  0
  -23.5430  -32.1940   23.7230 O   0  0  0  0  0  0  0  0  0  0  0  0
  -22.7310  -29.5100   22.5560 C   0  0  0  0  0  0  0  0  0  0  0  0
  -21.3980  -29.3540   22.4330 N   0  0  0  0  0  0  0  0  0  0  0  0
  -23.3890  -28.8910   23.3950 O   0  0  0  0  0  0  0  0  0  0  0  0
  -20.9190  -29.9100   21.7390 H   0  0  0  0  0  0  0  0  0  0  0  0
  -18.0110  -28.1460   22.9530 C   0  0  0  0  0  0  0  0  0  0  0  0
  -20.5730  -28.4200   23.2090 C   0  0  0  0  0  3  0  0  0  0  0  0
  -20.6740  -26.9830   22.6430 C   0  0  0  0  0  2  0  0  0  0  0  0
  -19.5720  -26.6560   21.6300 C   0  0  0  0  0  2  0  0  0  0  0  0
  -18.1910  -26.7970   22.2780 C   0  0  0  0  0  2  0  0  0  0  0  0
  -19.1290  -28.9140   23.3750 C   0  0  0  0  0  0  0  0  0  0  0  0
  -18.9060  -30.1740   23.9730 C   0  0  0  0  0  3  0  0  0  0  0  0
  -17.5990  -30.6660   24.1490 C   0  0  0  0  0  3  0  0  0  0  0  0
  -16.4960  -29.8960   23.7400 C   0  0  0  0  0  3  0  0  0  0  0  0
  -16.7040  -28.6370   23.1480 C   0  0  0  0  0  3  0  0  0  0  0  0
  -25.9000  -32.5430   23.8440 C   0  0  0  0  0  3  0  0  0  0  0  0
  -26.4050  -31.7810   25.1330 C   0  0  1  0  0  0  0  0  0  0  0  0
  -25.3030  -31.5520   26.1950 C   0  0  0  0  0  1  0  0  0  0  0  0
  -26.9900  -30.4000   24.7650 C   0  0  0  0  0  1  0  0  0  0  0  0
  -27.5520  -32.5800   25.7960 C   0  0  0  0  0  1  0  0  0  0  0  0
  -25.5780  -33.9420   24.1850 N   0  0  0  0  0  0  0  0  0  0  0  0
  -25.8770  -35.0090   23.4300 C   0  0  0  0  0  0  0  0  0  0  0  0
  -26.5140  -34.9190   22.3770 O   0  0  0  0  0  0  0  0  0  0  0  0
  -25.0080  -34.0850   25.0050 H   0  0  0  0  0  0  0  0  0  0  0  0
  -24.1150  -36.7930   23.1700 C   0  0  0  0  0  1  0  0  0  0  0  0
  -25.4000  -36.3940   23.9170 C   0  0  0  0  0  3  0  0  0  0  0  0
  -27.5590  -37.3080   24.6490 C   0  0  0  0  0  1  0  0  0  0  0  0
  -26.4140  -37.4610   23.7560 N   0  0  0  0  0  0  0  0  0  0  0  0
  -26.0030  -38.3760   23.9220 H   0  0  0  0  0  0  0  0  0  0  0  0
  -29.0010  -22.3180   20.2390 C   0  0  0  0  0  3  0  0  0  0  0  0
  -28.7820  -20.4130   20.2980 C   0  0  0  0  0  3  0  0  0  0  0  0
  -29.8210  -18.7980   20.2210 C   0  0  0  0  0  3  0  0  0  0  0  0
  -30.3040  -15.6940   20.1720 C   0  0  0  0  0  0  0  0  0  0  0  0
  -30.3910  -13.1780   19.3000 C   0  0  0  0  0  2  0  0  0  0  0  0
  -29.4600  -12.7830   18.1200 C   0  0  0  0  0  2  0  0  0  0  0  0
  -28.0570  -12.4070   18.6230 C   0  0  0  0  0  2  0  0  0  0  0  0
  -27.5710  -13.3930   19.7060 C   0  0  0  0  0  3  0  0  0  0  0  0
  -28.6400  -13.6720   20.7900 C   0  0  0  0  0  2  0  0  0  0  0  0
  -29.7790  -14.3310   20.0990 N   0  0  0  0  0  0  0  0  0  0  0  0
  -31.5360  -15.6380   19.9800 O   0  0  0  0  0  0  0  0  0  0  0  0
  -28.0950  -16.9420   20.3360 C   0  0  0  0  0  1  0  0  0  0  0  0
  -29.5460  -17.0590   20.2530 N   0  0  0  0  0  0  0  0  0  0  0  0
  -25.2270  -13.9050   20.5530 C   0  0  0  0  0  0  0  0  0  0  0  0
  -24.1820  -13.1120   20.9300 C   0  0  0  0  0  0  0  0  0  0  0  0
  -24.6590  -11.7670   20.8520 C   0  0  0  0  0  0  0  0  0  0  0  0
  -26.2700  -13.0450   20.2580 N   0  0  0  0  0  0  0  0  0  0  0  0
  -25.9430  -11.7510   20.5060 N   0  0  0  0  0  0  0  0  0  0  0  0
  -23.9460  -10.4970   21.0300 C   0  0  0  0  0  0  0  0  0  0  0  0
  -24.3830   -9.5290   21.9600 C   0  0  0  0  0  3  0  0  0  0  0  0
  -23.6650   -8.3240   22.1280 C   0  0  0  0  0  3  0  0  0  0  0  0
  -22.4970   -8.0820   21.3680 C   0  0  0  0  0  0  0  0  0  0  0  0
  -22.0790   -9.0400   20.4260 C   0  0  0  0  0  3  0  0  0  0  0  0
  -22.7970  -10.2350   20.2560 C   0  0  0  0  0  3  0  0  0  0  0  0
  -21.7510   -6.9310   21.4470 O   0  0  0  0  0  0  0  0  0  0  0  0
  -21.6660   -6.2070   22.6100 C   0  0  0  0  0  0  0  0  0  0  0  0
  -21.1570   -6.7690   23.8010 C   0  0  0  0  0  3  0  0  0  0  0  0
  -21.0230   -5.9700   24.9530 C   0  0  0  0  0  3  0  0  0  0  0  0
  -21.3870   -4.6100   24.9160 C   0  0  0  0  0  0  0  0  0  0  0  0
  -21.8880   -4.0490   23.7290 C   0  0  0  0  0  3  0  0  0  0  0  0
  -22.0250   -4.8450   22.5780 C   0  0  0  0  0  0  0  0  0  0  0  0
  -22.4900   -4.2930   21.4300 F   0  0  0  0  0  0  0  0  0  0  0  0
  -21.2500   -3.8400   26.0200 F   0  0  0  0  0  0  0  0  0  0  0  0
  -22.7910  -13.5760   21.2460 C   0  0  0  0  0  0  0  0  0  0  0  0
  -22.0930  -12.8600   22.1190 N   0  0  0  0  0  0  0  0  0  0  0  0
  -22.3340  -14.6080   20.7550 O   0  0  0  0  0  0  0  0  0  0  0  0
  -22.4780  -12.0280   22.5390 H   0  0  0  0  0  0  0  0  0  0  0  0
  -21.1590  -13.1510   22.3740 H   0  0  0  0  0  0  0  0  0  0  0  0
  -25.3630  -15.2790   20.4050 N   0  0  0  0  0  0  0  0  0  0  0  0
  -24.5980  -15.9230   20.5720 H   0  0  0  0  0  0  0  0  0  0  0  0
  -26.2100  -15.7380   20.1030 H   0  0  0  0  0  0  0  0  0  0  0  0
  1  2  1  0
  3 14  2  0
  4  2  1  0
  4  9  1  0
  5 13  1  0
  5 15  1  0
  6 12  1  0
  6  8  1  0
  7 13  1  0
  8  7  1  0
  9  8  2  0
 10  4  2  0
 11 10  1  0
 11  6  2  0
 12  5  1  0
 13  3  1  0
 15 17  2  0
 16 15  1  0
 18 16  1  0
 19 28  2  0
 19 24  1  0
 20 16  1  0
 20 24  1  0
 21 20  1  0
 22 23  1  0
 22 21  1  0
 23 19  1  0
 24 25  2  0
 25 26  1  0
 27 26  2  0
 28 27  1  0
 29  3  1  0
 29 34  1  0
 29 30  1  0
 30 33  1  1
 30 31  1  0
 32 30  1  0
 34 37  1  0
 35 39  1  0
 35 34  1  0
 36 35  2  0
 39 38  1  0
 41 39  1  0
 41 42  1  0
 41 40  1  0
 43  1  2  0
 43 44  1  0
 45 55  1  0
 45 44  2  0
 46 55  1  0
 47 52  1  0
 48 49  1  0
 48 47  1  0
 50 49  1  0
 50 59  1  0
 50 51  1  0
 52 46  1  0
 52 51  1  0
 53 46  2  0
 55 54  1  0
 56 57  2  0
 57 76  1  0
 58 57  1  0
 58 61  1  0
 59 60  1  0
 59 56  1  0
 60 58  2  0
 61 62  1  0
 62 63  2  0
 64 67  1  0
 64 63  1  0
 65 64  2  0
 66 65  1  0
 66 61  2  0
 67 68  1  0
 68 69  1  0
 69 70  2  0
 71 70  1  0
 71 75  1  0
 72 71  2  0
 73 68  2  0
 73 72  1  0
 74 73  1  0
 76 77  1  0
 77 80  1  0
 77 79  1  0
 78 76  2  0
 81 56  1  0
 81 82  1  0
 83 81  1  0
M  ISO  4   1 101   2 101  46 100  55 100
M  END
>  <TORSDO>  (41) 
F 19

>  <SCORE>  (41) 
-16.403

>  <name>  (41) 
40

>  <ligand_id>  (41) 
40

>  <original_smiles>  (41) 
[H]c1c([H])c([H])c2c(c1[H])C([H])([H])C([H])([H])C([H])([H])C2([H])N([H])C(=O)C1([H])N(C(=O)C([H])(N([H])C(=O)C([H])(N([H])C([H])([H])[H])C([H])([H])[H])C(C([H])([H])[H])(C([H])([H])[H])C([H])([H])[H])C([H])([H])c2c([H])c(OC([H])([H])C([H])([H])C([H])([H])C([H])([H])N(C(=O)N3C([H])([H])C([H])([H])C([H])([H])C([H])(n4nc(-c5c([H])c([H])c(Oc6c([H])c([H])c(F)c([H])c6F)c([H])c5[H])c(C(=O)N([H])[H])c4N([H])[H])C3([H])[H])C([H])([H])[H])c([H])c([H])c2C1([H])[H]

>  <smiles>  (41) 
[H]c1c([H])c([H])c2c(c1[H])C([H])([H])C([H])([H])C([H])([H])C2([H])N([H])C(=O)C1([H])N(C(=O)C([H])(N([H])C(=O)C([H])(N([H])C([H])([H])[H])C([H])([H])[H])C(C([H])([H])[H])(C([H])([H])[H])C([H])([H])[H])C([H])([H])c2c([H])c(OC([H])([H])C([H])([H])C([H])([H])C([H])([H])N(C(=O)N3C([H])([H])C([H])([H])C([H])([H])C([H])(n4nc(-c5c([H])c([H])c(Oc6c([H])c([H])c(F)c([H])c6F)c([H])c5[H])c(C(=O)N([H])[H])c4N([H])[H])C3([H])[H])C([H])([H])[H])c([H])c([H])c2C1([H])[H]

$$$$
41:0:0
     RDKit          3D

 99106  0  0  1  0  0  0  0  0999 V2000
  -30.6910  -21.2170   19.6910 N   0  0  0  0  0  4  0  0  0  0  0  0
  -30.4880  -21.2580   20.6800 H   0  0  0  0  0  0  0  0  0  0  0  0
  -30.0900  -20.5420   19.2540 H   0  0  0  0  0  0  0  0  0  0  0  0
  -28.9650  -22.5530   18.5070 C   0  0  0  0  0  1  0  0  0  0  0  0
  -30.3590  -22.5590   19.1630 C   0  0  0  0  0  3  0  0  0  0  0  0
  -30.4010  -23.5900   20.3030 C   0  0  0  0  0  0  0  0  0  0  0  0
  -30.4430  -24.8840   19.9580 N   0  0  0  0  0  0  0  0  0  0  0  0
  -30.3870  -23.2110   21.4770 O   0  0  0  0  0  0  0  0  0  0  0  0
  -30.4300  -25.1050   18.9710 H   0  0  0  0  0  0  0  0  0  0  0  0
  -30.4760  -26.0230   20.8750 C   0  0  0  0  0  2  0  0  0  0  0  0
  -29.0680  -26.5090   21.2640 C   0  0  0  0  0  2  0  0  0  0  0  0
  -28.3020  -26.7010   20.0780 O   0  0  0  0  0  0  0  0  0  0  0  0
  -24.5330  -31.9290   23.2010 C   0  0  0  0  0  0  0  0  0  0  0  0
  -27.1550  -27.4520   20.1740 C   0  0  0  0  0  0  0  0  0  0  0  0
  -23.3140  -30.5170   21.5730 C   0  0  0  0  0  3  0  0  0  0  0  0
  -24.7570  -28.9460   20.1750 C   0  0  0  0  0  0  0  0  0  0  0  0
  -25.8380  -30.8580   21.3720 C   0  0  0  0  0  2  0  0  0  0  0  0
  -25.9140  -29.4780   20.7590 C   0  0  0  0  0  0  0  0  0  0  0  0
  -27.1150  -28.7380   20.7610 C   0  0  0  0  0  3  0  0  0  0  0  0
  -25.9840  -26.9300   19.5880 C   0  0  0  0  0  3  0  0  0  0  0  0
  -24.7840  -27.6660   19.5920 C   0  0  0  0  0  3  0  0  0  0  0  0
  -23.5190  -29.8150   20.2040 C   0  0  0  0  0  2  0  0  0  0  0  0
  -24.5800  -31.1160   22.1080 N   0  0  0  0  0  0  0  0  0  0  0  0
  -23.4550  -32.2190   23.7380 O   0  0  0  0  0  0  0  0  0  0  0  0
  -22.6520  -29.5160   22.5450 C   0  0  0  0  0  0  0  0  0  0  0  0
  -21.3270  -29.3400   22.4080 N   0  0  0  0  0  0  0  0  0  0  0  0
  -23.3260  -28.8990   23.3750 O   0  0  0  0  0  0  0  0  0  0  0  0
  -20.8480  -29.8930   21.7120 H   0  0  0  0  0  0  0  0  0  0  0  0
  -17.9440  -28.1650   22.8820 C   0  0  0  0  0  0  0  0  0  0  0  0
  -20.4990  -28.4200   23.1830 C   0  0  0  0  0  3  0  0  0  0  0  0
  -20.6050  -26.9780   22.6370 C   0  0  0  0  0  2  0  0  0  0  0  0
  -19.5160  -26.6390   21.6130 C   0  0  0  0  0  2  0  0  0  0  0  0
  -18.1260  -26.8010   22.2350 C   0  0  0  0  0  2  0  0  0  0  0  0
  -19.0600  -28.9300   23.3140 C   0  0  0  0  0  0  0  0  0  0  0  0
  -18.8380  -30.2050   23.8770 C   0  0  0  0  0  3  0  0  0  0  0  0
  -17.5330  -30.7170   24.0120 C   0  0  0  0  0  3  0  0  0  0  0  0
  -16.4320  -29.9480   23.5960 C   0  0  0  0  0  3  0  0  0  0  0  0
  -16.6390  -28.6740   23.0390 C   0  0  0  0  0  3  0  0  0  0  0  0
  -25.8280  -32.5490   23.8160 C   0  0  0  0  0  3  0  0  0  0  0  0
  -25.5320  -33.9510   24.1440 N   0  0  0  0  0  0  0  0  0  0  0  0
  -25.8720  -34.9970   23.3800 C   0  0  0  0  0  0  0  0  0  0  0  0
  -26.5400  -34.8860   22.3480 O   0  0  0  0  0  0  0  0  0  0  0  0
  -24.9470  -34.1160   24.9500 H   0  0  0  0  0  0  0  0  0  0  0  0
  -24.1520  -36.7960   23.0230 C   0  0  0  0  0  1  0  0  0  0  0  0
  -25.3940  -36.3900   23.8340 C   0  0  0  0  0  3  0  0  0  0  0  0
  -27.5380  -37.2590   24.6550 C   0  0  0  0  0  1  0  0  0  0  0  0
  -26.4320  -37.4360   23.7160 N   0  0  0  0  0  0  0  0  0  0  0  0
  -26.0330  -38.3570   23.8700 H   0  0  0  0  0  0  0  0  0  0  0  0
  -26.3470  -31.7730   25.0880 C   0  0  1  0  0  0  0  0  0  0  0  0
  -25.2590  -31.5430   26.1620 C   0  0  0  0  0  1  0  0  0  0  0  0
  -26.9190  -30.3920   24.6890 C   0  0  0  0  0  1  0  0  0  0  0  0
  -27.5050  -32.5600   25.7460 C   0  0  0  0  0  1  0  0  0  0  0  0
  -32.0960  -20.7860   19.5170 C   0  0  0  0  0  2  0  0  0  0  0  0
  -32.2750  -19.2690   19.7850 C   0  0  0  0  0  2  0  0  0  0  0  0
  -33.0970  -19.3470   22.0520 C   0  0  0  0  0  1  0  0  0  0  0  0
  -32.0210  -18.8620   21.1800 N   0  0  0  0  0  0  0  0  0  0  0  0
  -31.9810  -17.3860   21.2830 C   0  0  0  0  0  2  0  0  0  0  0  0
  -30.5350  -16.8770   21.0770 C   0  0  0  0  0  3  0  0  0  0  0  0
  -29.6760  -17.6730   21.9770 N   0  0  0  0  0  4  0  0  0  0  0  0
  -29.7970  -17.3990   22.9370 H   0  0  0  0  0  0  0  0  0  0  0  0
  -28.7020  -17.6190   21.7350 H   0  0  0  0  0  0  0  0  0  0  0  0
  -29.9890  -18.6270   21.8930 H   0  0  0  0  0  0  0  0  0  0  0  0
  -30.3100  -15.3590   21.3340 C   0  0  0  0  0  2  0  0  0  0  0  0
  -30.7630  -14.3700   20.2280 C   0  0  0  0  0  0  0  0  0  0  0  0
  -30.3660  -12.3040   18.9100 C   0  0  0  0  0  2  0  0  0  0  0  0
  -29.3530  -12.5530   17.7740 C   0  0  0  0  0  2  0  0  0  0  0  0
  -27.8990  -12.4310   18.2740 C   0  0  0  0  0  2  0  0  0  0  0  0
  -27.6520  -13.2200   19.5890 C   0  0  0  0  0  3  0  0  0  0  0  0
  -28.7550  -12.8840   20.6190 C   0  0  0  0  0  2  0  0  0  0  0  0
  -30.0530  -13.2270   20.0140 N   0  0  0  0  0  0  0  0  0  0  0  0
  -31.7690  -14.6430   19.5650 O   0  0  0  0  0  0  0  0  0  0  0  0
  -25.2860  -13.8710   20.3760 C   0  0  0  0  0  0  0  0  0  0  0  0
  -24.2210  -13.1160   20.7910 C   0  0  0  0  0  0  0  0  0  0  0  0
  -24.6610  -11.7570   20.7490 C   0  0  0  0  0  0  0  0  0  0  0  0
  -26.3110  -12.9730   20.1170 N   0  0  0  0  0  0  0  0  0  0  0  0
  -25.9370  -11.6980   20.3900 N   0  0  0  0  0  0  0  0  0  0  0  0
  -23.9250  -10.5070   20.9740 C   0  0  0  0  0  0  0  0  0  0  0  0
  -24.3870   -9.5350   21.8890 C   0  0  0  0  0  3  0  0  0  0  0  0
  -23.6530   -8.3490   22.1030 C   0  0  0  0  0  3  0  0  0  0  0  0
  -22.4440   -8.1250   21.4020 C   0  0  0  0  0  0  0  0  0  0  0  0
  -22.0020   -9.0840   20.4750 C   0  0  0  0  0  3  0  0  0  0  0  0
  -22.7350  -10.2630   20.2590 C   0  0  0  0  0  3  0  0  0  0  0  0
  -21.6780   -6.9920   21.5300 O   0  0  0  0  0  0  0  0  0  0  0  0
  -21.6740   -6.2500   22.6840 C   0  0  0  0  0  0  0  0  0  0  0  0
  -21.3350   -6.8170   23.9320 C   0  0  0  0  0  3  0  0  0  0  0  0
  -21.2760   -6.0030   25.0820 C   0  0  0  0  0  3  0  0  0  0  0  0
  -21.5460   -4.6240   24.9830 C   0  0  0  0  0  0  0  0  0  0  0  0
  -21.8790   -4.0580   23.7400 C   0  0  0  0  0  3  0  0  0  0  0  0
  -21.9390   -4.8680   22.5930 C   0  0  0  0  0  0  0  0  0  0  0  0
  -22.2390   -4.3140   21.3930 F   0  0  0  0  0  0  0  0  0  0  0  0
  -21.4810   -3.8410   26.0850 F   0  0  0  0  0  0  0  0  0  0  0  0
  -22.8420  -13.6110   21.1210 C   0  0  0  0  0  0  0  0  0  0  0  0
  -22.1460  -12.9280   22.0230 N   0  0  0  0  0  0  0  0  0  0  0  0
  -22.3920  -14.6370   20.6120 O   0  0  0  0  0  0  0  0  0  0  0  0
  -22.5250  -12.0970   22.4550 H   0  0  0  0  0  0  0  0  0  0  0  0
  -21.2190  -13.2360   22.2850 H   0  0  0  0  0  0  0  0  0  0  0  0
  -25.4590  -15.2380   20.1790 N   0  0  0  0  0  0  0  0  0  0  0  0
  -24.6980  -15.8980   20.2910 H   0  0  0  0  0  0  0  0  0  0  0  0
  -26.2900  -15.6590   19.7840 H   0  0  0  0  0  0  0  0  0  0  0  0
  1  2  1  0
  3  1  1  0
  5  4  1  0
  5  1  1  0
  5  6  1  0
  6  8  2  0
  7  6  1  0
  7 10  1  0
  9  7  1  0
 10 11  1  0
 12 14  1  0
 12 11  1  0
 13 24  2  0
 14 19  1  0
 15 23  1  0
 15 25  1  0
 16 22  1  0
 16 18  1  0
 17 23  1  0
 18 19  2  0
 18 17  1  0
 20 21  1  0
 20 14  2  0
 21 16  2  0
 22 15  1  0
 23 13  1  0
 25 27  2  0
 26 25  1  0
 28 26  1  0
 29 38  2  0
 29 34  1  0
 30 26  1  0
 30 34  1  0
 31 30  1  0
 32 33  1  0
 32 31  1  0
 33 29  1  0
 34 35  2  0
 35 36  1  0
 37 36  2  0
 38 37  1  0
 39 13  1  0
 39 40  1  0
 39 49  1  0
 40 43  1  0
 41 45  1  0
 41 40  1  0
 42 41  2  0
 45 44  1  0
 47 45  1  0
 47 48  1  0
 47 46  1  0
 49 52  1  1
 49 50  1  0
 51 49  1  0
 53  1  1  0
 53 54  1  0
 54 56  1  0
 56 57  1  0
 56 55  1  0
 58 57  1  0
 58 63  1  0
 58 59  1  0
 59 60  1  0
 61 59  1  0
 62 59  1  0
 64 63  1  0
 65 70  1  0
 66 67  1  0
 66 65  1  0
 68 67  1  0
 68 75  1  0
 68 69  1  0
 70 64  1  0
 70 69  1  0
 71 64  2  0
 72 73  2  0
 73 92  1  0
 74 73  1  0
 74 77  1  0
 75 72  1  0
 75 76  1  0
 76 74  2  0
 77 78  1  0
 78 79  2  0
 80 83  1  0
 80 79  1  0
 81 80  2  0
 82 81  1  0
 82 77  2  0
 83 84  1  0
 84 85  1  0
 85 86  2  0
 87 86  1  0
 87 91  1  0
 88 87  2  0
 89 84  2  0
 89 88  1  0
 90 89  1  0
 92 93  1  0
 93 96  1  0
 93 95  1  0
 94 92  2  0
 97 98  1  0
 97 72  1  0
 99 97  1  0
M  ISO  4  11 101  12 101  63 100  64 100
M  END
>  <TORSDO>  (42) 
F 27

>  <SCORE>  (42) 
-11.437

>  <name>  (42) 
41

>  <ligand_id>  (42) 
41

>  <original_smiles>  (42) 
[H]c1c([H])c([H])c2c(c1[H])C([H])([H])C([H])([H])C([H])([H])C2([H])N([H])C(=O)C1([H])N(C(=O)C([H])(N([H])C(=O)C([H])(N([H])C([H])([H])[H])C([H])([H])[H])C(C([H])([H])[H])(C([H])([H])[H])C([H])([H])[H])C([H])([H])c2c([H])c(OC([H])([H])C([H])([H])N([H])C(=O)C([H])(C([H])([H])[H])[N+]([H])([H])C([H])([H])C([H])([H])N(C([H])([H])[H])C([H])([H])C([H])(C([H])([H])C(=O)N3C([H])([H])C([H])([H])C([H])([H])C([H])(n4nc(-c5c([H])c([H])c(Oc6c([H])c([H])c(F)c([H])c6F)c([H])c5[H])c(C(=O)N([H])[H])c4N([H])[H])C3([H])[H])[N+]([H])([H])[H])c([H])c([H])c2C1([H])[H]

>  <smiles>  (42) 
[H]c1c([H])c([H])c2c(c1[H])C([H])([H])C([H])([H])C([H])([H])C2([H])N([H])C(=O)C1([H])N(C(=O)C([H])(N([H])C(=O)C([H])(N([H])C([H])([H])[H])C([H])([H])[H])C(C([H])([H])[H])(C([H])([H])[H])C([H])([H])[H])C([H])([H])c2c([H])c(OC([H])([H])C([H])([H])N([H])C(=O)C([H])(C([H])([H])[H])[N+]([H])([H])C([H])([H])C([H])([H])N(C([H])([H])[H])C([H])([H])C([H])(C([H])([H])C(=O)N3C([H])([H])C([H])([H])C([H])([H])C([H])(n4nc(-c5c([H])c([H])c(Oc6c([H])c([H])c(F)c([H])c6F)c([H])c5[H])c(C(=O)N([H])[H])c4N([H])[H])C3([H])[H])[N+]([H])([H])[H])c([H])c([H])c2C1([H])[H]

$$$$
42:0:0
     RDKit          3D

 89 97  0  0  1  0  0  0  0  0999 V2000
  -28.8740  -19.6390   18.1040 C   0  0  0  0  0  3  0  0  0  0  0  0
  -28.8500  -20.8850   18.7720 C   0  0  0  0  0  3  0  0  0  0  0  0
  -29.4820  -18.5070   18.6800 C   0  0  0  0  0  3  0  0  0  0  0  0
  -30.0540  -19.8630   20.6180 C   0  0  0  0  0  3  0  0  0  0  0  0
  -29.4190  -21.0400   20.0550 C   0  0  0  0  0  0  0  0  0  0  0  0
  -30.0970  -18.5790   19.9430 C   0  0  0  0  0  0  0  0  0  0  0  0
  -29.2580  -22.4220   20.8200 C   0  0  0  0  0  2  0  0  0  0  0  0
  -29.0380  -23.8230   20.0420 C   0  0  0  0  0  3  0  0  0  0  0  0
  -28.5360  -25.0990   20.8820 C   0  0  0  0  0  3  0  0  0  0  0  0
  -28.6380  -26.4810   20.3460 O   0  0  0  0  0  0  0  0  0  0  0  0
  -24.6560  -31.7970   23.2330 C   0  0  0  0  0  0  0  0  0  0  0  0
  -27.4900  -27.2870   20.3150 C   0  0  0  0  0  0  0  0  0  0  0  0
  -23.5500  -30.3820   21.5370 C   0  0  0  0  0  3  0  0  0  0  0  0
  -25.0940  -28.8470   20.1900 C   0  0  0  0  0  0  0  0  0  0  0  0
  -26.0900  -30.7470   21.4660 C   0  0  0  0  0  2  0  0  0  0  0  0
  -26.2260  -29.3660   20.8290 C   0  0  0  0  0  0  0  0  0  0  0  0
  -27.4310  -28.6020   20.8710 C   0  0  0  0  0  3  0  0  0  0  0  0
  -26.3310  -26.8070   19.6680 C   0  0  0  0  0  3  0  0  0  0  0  0
  -25.1490  -27.5740   19.5980 C   0  0  0  0  0  3  0  0  0  0  0  0
  -23.8420  -29.7060   20.1710 C   0  0  0  0  0  2  0  0  0  0  0  0
  -24.7830  -30.9900   22.1380 N   0  0  0  0  0  0  0  0  0  0  0  0
  -23.5450  -32.0580   23.7170 O   0  0  0  0  0  0  0  0  0  0  0  0
  -22.8580  -29.3560   22.4650 C   0  0  0  0  0  0  0  0  0  0  0  0
  -21.5310  -29.2070   22.3200 N   0  0  0  0  0  0  0  0  0  0  0  0
  -23.5160  -28.6970   23.2760 O   0  0  0  0  0  0  0  0  0  0  0  0
  -21.0570  -29.7990   21.6520 H   0  0  0  0  0  0  0  0  0  0  0  0
  -18.1170  -28.1130   22.7840 C   0  0  0  0  0  0  0  0  0  0  0  0
  -20.6830  -28.2660   23.0540 C   0  0  0  0  0  3  0  0  0  0  0  0
  -20.7330  -26.8580   22.4200 C   0  0  0  0  0  2  0  0  0  0  0  0
  -19.6180  -26.6150   21.3980 C   0  0  0  0  0  2  0  0  0  0  0  0
  -18.2440  -26.7850   22.0520 C   0  0  0  0  0  2  0  0  0  0  0  0
  -19.2630  -28.8130   23.2410 C   0  0  0  0  0  0  0  0  0  0  0  0
  -19.0950  -30.0580   23.8850 C   0  0  0  0  0  3  0  0  0  0  0  0
  -17.8120  -30.6010   24.0780 C   0  0  0  0  0  3  0  0  0  0  0  0
  -16.6770  -29.8930   23.6460 C   0  0  0  0  0  3  0  0  0  0  0  0
  -16.8300  -28.6520   23.0000 C   0  0  0  0  0  3  0  0  0  0  0  0
  -25.8980  -32.4510   23.9160 C   0  0  0  0  0  3  0  0  0  0  0  0
  -26.3530  -31.6990   25.2270 C   0  0  1  0  0  0  0  0  0  0  0  0
  -25.2090  -31.4610   26.2400 C   0  0  0  0  0  1  0  0  0  0  0  0
  -26.9680  -30.3260   24.8770 C   0  0  0  0  0  1  0  0  0  0  0  0
  -27.4510  -32.5100   25.9510 C   0  0  0  0  0  1  0  0  0  0  0  0
  -25.5590  -33.8490   24.2190 N   0  0  0  0  0  0  0  0  0  0  0  0
  -25.9020  -34.9000   23.4640 C   0  0  0  0  0  0  0  0  0  0  0  0
  -26.6110  -34.7980   22.4580 O   0  0  0  0  0  0  0  0  0  0  0  0
  -24.9390  -34.0040   25.0000 H   0  0  0  0  0  0  0  0  0  0  0  0
  -24.1630  -36.6640   23.0370 C   0  0  0  0  0  1  0  0  0  0  0  0
  -25.3800  -36.2840   23.8940 C   0  0  0  0  0  3  0  0  0  0  0  0
  -27.4660  -37.2110   24.7990 C   0  0  0  0  0  1  0  0  0  0  0  0
  -26.3990  -37.3530   23.8100 N   0  0  0  0  0  0  0  0  0  0  0  0
  -25.9720  -38.2650   23.9360 H   0  0  0  0  0  0  0  0  0  0  0  0
  -30.8590  -17.2940   20.4740 C   0  0  0  0  0  2  0  0  0  0  0  0
  -30.8040  -14.7120   20.1190 C   0  0  0  0  0  0  0  0  0  0  0  0
  -30.5030  -12.4820   19.0010 C   0  0  0  0  0  2  0  0  0  0  0  0
  -29.5020  -12.5580   17.8280 C   0  0  0  0  0  2  0  0  0  0  0  0
  -28.0560  -12.3650   18.3260 C   0  0  0  0  0  2  0  0  0  0  0  0
  -27.7440  -13.2270   19.5740 C   0  0  0  0  0  3  0  0  0  0  0  0
  -28.8570  -13.0680   20.6350 C   0  0  0  0  0  2  0  0  0  0  0  0
  -30.1130  -13.5100   20.0040 N   0  0  0  0  0  0  0  0  0  0  0  0
  -31.9580  -14.7520   19.6790 O   0  0  0  0  0  0  0  0  0  0  0  0
  -28.9490  -16.0500   21.2720 C   0  0  0  0  0  1  0  0  0  0  0  0
  -30.1870  -15.9220   20.4960 N   0  0  0  0  0  0  0  0  0  0  0  0
  -25.3850  -13.8350   20.3890 C   0  0  0  0  0  0  0  0  0  0  0  0
  -24.3330  -13.0610   20.8040 C   0  0  0  0  0  0  0  0  0  0  0  0
  -24.7920  -11.7090   20.7480 C   0  0  0  0  0  0  0  0  0  0  0  0
  -26.4170  -12.9510   20.1140 N   0  0  0  0  0  0  0  0  0  0  0  0
  -26.0690  -11.6690   20.3900 N   0  0  0  0  0  0  0  0  0  0  0  0
  -24.0700  -10.4480   20.9590 C   0  0  0  0  0  0  0  0  0  0  0  0
  -24.5160   -9.4890   21.8940 C   0  0  0  0  0  3  0  0  0  0  0  0
  -23.7930   -8.2930   22.0910 C   0  0  0  0  0  3  0  0  0  0  0  0
  -22.6090   -8.0480   21.3570 C   0  0  0  0  0  0  0  0  0  0  0  0
  -22.1810   -8.9970   20.4100 C   0  0  0  0  0  3  0  0  0  0  0  0
  -22.9050  -10.1840   20.2100 C   0  0  0  0  0  3  0  0  0  0  0  0
  -21.8550   -6.9050   21.4660 O   0  0  0  0  0  0  0  0  0  0  0  0
  -21.7950   -6.1940   22.6380 C   0  0  0  0  0  0  0  0  0  0  0  0
  -21.3320   -6.7710   23.8390 C   0  0  0  0  0  3  0  0  0  0  0  0
  -21.2210   -5.9850   25.0020 C   0  0  0  0  0  3  0  0  0  0  0  0
  -21.5620   -4.6200   24.9650 C   0  0  0  0  0  0  0  0  0  0  0  0
  -22.0200   -4.0410   23.7690 C   0  0  0  0  0  3  0  0  0  0  0  0
  -22.1320   -4.8250   22.6080 C   0  0  0  0  0  0  0  0  0  0  0  0
  -22.5550   -4.2580   21.4520 F   0  0  0  0  0  0  0  0  0  0  0  0
  -21.4480   -3.8610   26.0800 F   0  0  0  0  0  0  0  0  0  0  0  0
  -22.9510  -13.5420   21.1340 C   0  0  0  0  0  0  0  0  0  0  0  0
  -22.2550  -12.8460   22.0270 N   0  0  0  0  0  0  0  0  0  0  0  0
  -22.4940  -14.5690   20.6330 O   0  0  0  0  0  0  0  0  0  0  0  0
  -22.6340  -12.0130   22.4550 H   0  0  0  0  0  0  0  0  0  0  0  0
  -21.3310  -13.1550   22.2930 H   0  0  0  0  0  0  0  0  0  0  0  0
  -25.5340  -15.2040   20.2040 N   0  0  0  0  0  0  0  0  0  0  0  0
  -24.7820  -15.8630   20.3770 H   0  0  0  0  0  0  0  0  0  0  0  0
  -26.3670  -15.6480   19.8370 H   0  0  0  0  0  0  0  0  0  0  0  0
  1  3  2  0
  1  2  1  0
  2  5  2  0
  3  6  1  0
  5  4  1  0
  5  7  1  0
  6 51  1  0
  6  4  2  0
  8  7  1  0
  8  9  2  0
 10  9  1  0
 11 22  2  0
 12 10  1  0
 12 17  1  0
 13 21  1  0
 13 23  1  0
 14 16  1  0
 15 21  1  0
 16 17  2  0
 16 15  1  0
 18 12  2  0
 19 18  1  0
 19 14  2  0
 20 14  1  0
 20 13  1  0
 21 11  1  0
 23 25  2  0
 24 23  1  0
 26 24  1  0
 27 36  2  0
 27 32  1  0
 28 24  1  0
 28 32  1  0
 29 28  1  0
 30 31  1  0
 30 29  1  0
 31 27  1  0
 32 33  2  0
 33 34  1  0
 35 34  2  0
 36 35  1  0
 37 11  1  0
 37 42  1  0
 37 38  1  0
 38 41  1  1
 38 39  1  0
 40 38  1  0
 42 45  1  0
 43 47  1  0
 43 42  1  0
 44 43  2  0
 47 46  1  0
 49 47  1  0
 49 50  1  0
 49 48  1  0
 51 61  1  0
 52 61  1  0
 53 58  1  0
 54 55  1  0
 54 53  1  0
 56 55  1  0
 56 65  1  0
 56 57  1  0
 58 52  1  0
 58 57  1  0
 59 52  2  0
 61 60  1  0
 62 63  2  0
 63 82  1  0
 64 63  1  0
 64 67  1  0
 65 62  1  0
 65 66  1  0
 66 64  2  0
 67 68  1  0
 68 69  2  0
 70 73  1  0
 70 69  1  0
 71 70  2  0
 72 71  1  0
 72 67  2  0
 73 74  1  0
 74 75  1  0
 75 76  2  0
 77 76  1  0
 77 81  1  0
 78 77  2  0
 79 74  2  0
 79 78  1  0
 80 79  1  0
 82 83  1  0
 83 86  1  0
 83 85  1  0
 84 82  2  0
 87 88  1  0
 87 62  1  0
 89 87  1  0
M  ISO  4   9 101  10 101  52 100  61 100
M  END
>  <TORSDO>  (43) 
F 20

>  <SCORE>  (43) 
-13.513

>  <name>  (43) 
42

>  <ligand_id>  (43) 
42

>  <original_smiles>  (43) 
[H]c1c([H])c(C([H])([H])N(C(=O)N2C([H])([H])C([H])([H])C([H])([H])C([H])(n3nc(-c4c([H])c([H])c(Oc5c([H])c([H])c(F)c([H])c5F)c([H])c4[H])c(C(=O)N([H])[H])c3N([H])[H])C2([H])[H])C([H])([H])[H])c([H])c(C([H])([H])C([H])([H])C([H])([H])Oc2c([H])c([H])c3c(c2[H])C([H])([H])N(C(=O)C([H])(N([H])C(=O)C([H])(N([H])C([H])([H])[H])C([H])([H])[H])C(C([H])([H])[H])(C([H])([H])[H])C([H])([H])[H])C([H])(C(=O)N([H])C2([H])c4c([H])c([H])c([H])c([H])c4C([H])([H])C([H])([H])C2([H])[H])C3([H])[H])c1[H]

>  <smiles>  (43) 
[H]c1c([H])c(C([H])([H])N(C(=O)N2C([H])([H])C([H])([H])C([H])([H])C([H])(n3nc(-c4c([H])c([H])c(Oc5c([H])c([H])c(F)c([H])c5F)c([H])c4[H])c(C(=O)N([H])[H])c3N([H])[H])C2([H])[H])C([H])([H])[H])c([H])c(C([H])([H])C([H])([H])C([H])([H])Oc2c([H])c([H])c3c(c2[H])C([H])([H])N(C(=O)C([H])(N([H])C(=O)C([H])(N([H])C([H])([H])[H])C([H])([H])[H])C(C([H])([H])[H])(C([H])([H])[H])C([H])([H])[H])C([H])(C(=O)N([H])C2([H])c4c([H])c([H])c([H])c([H])c4C([H])([H])C([H])([H])C2([H])[H])C3([H])[H])c1[H]

$$$$
43:0:0
     RDKit          3D

102109  0  0  1  0  0  0  0  0999 V2000
  -29.5230  -21.0210   20.6270 C   0  0  0  0  0  2  0  0  0  0  0  0
  -30.7360  -23.1780   21.0930 C   0  0  0  0  0  2  0  0  0  0  0  0
  -30.5220  -21.6480   21.6030 C   0  0  0  0  0  3  0  0  0  0  0  0
  -28.1790  -21.7450   20.6340 C   0  0  0  0  0  3  0  0  0  0  0  0
  -29.3320  -23.9710   20.9810 C   0  0  0  0  0  3  0  0  0  0  0  0
  -27.3910  -21.5910   21.9580 C   0  0  0  0  0  1  0  0  0  0  0  0
  -28.3830  -23.1490   20.1900 N   0  0  1  0  0  4  0  0  0  0  0  0
  -27.4970  -23.6230   20.2660 H   0  0  0  0  0  0  0  0  0  0  0  0
  -31.6670  -20.6530   21.6910 N   0  0  0  0  0  4  0  0  0  0  0  0
  -32.4360  -21.0580   22.1900 H   0  0  0  0  0  0  0  0  0  0  0  0
  -32.0170  -20.4430   20.7700 H   0  0  0  0  0  0  0  0  0  0  0  0
  -31.3160  -19.3380   22.3720 C   0  0  0  0  0  3  0  0  0  0  0  0
  -31.6220  -18.0190   21.5450 C   0  0  0  0  0  3  0  0  0  0  0  0
  -31.2940  -16.6370   22.2540 C   0  0  0  0  0  2  0  0  0  0  0  0
  -30.7720  -14.7400   20.6410 C   0  0  0  0  0  0  0  0  0  0  0  0
  -30.4150  -12.5830   19.4750 C   0  0  0  0  0  2  0  0  0  0  0  0
  -29.4970  -12.6930   18.2420 C   0  0  0  0  0  2  0  0  0  0  0  0
  -28.0310  -12.5040   18.6700 C   0  0  0  0  0  2  0  0  0  0  0  0
  -27.6480  -13.4000   19.8780 C   0  0  0  0  0  3  0  0  0  0  0  0
  -28.6900  -13.3060   21.0180 C   0  0  0  0  0  2  0  0  0  0  0  0
  -30.0290  -13.6050   20.4680 N   0  0  0  0  0  0  0  0  0  0  0  0
  -31.7950  -14.9600   19.9920 O   0  0  0  0  0  0  0  0  0  0  0  0
  -30.4090  -15.6190   21.6000 N   0  0  0  0  0  0  0  0  0  0  0  0
  -29.5800  -15.3530   22.1120 H   0  0  0  0  0  0  0  0  0  0  0  0
  -25.2490  -13.9650   20.6090 C   0  0  0  0  0  0  0  0  0  0  0  0
  -24.1880  -13.1760   20.9470 C   0  0  0  0  0  0  0  0  0  0  0  0
  -24.6540  -11.8270   20.8710 C   0  0  0  0  0  0  0  0  0  0  0  0
  -26.2990  -13.1000   20.3470 N   0  0  0  0  0  0  0  0  0  0  0  0
  -25.9450  -11.8060   20.5630 N   0  0  0  0  0  0  0  0  0  0  0  0
  -23.9340  -10.5550   21.0140 C   0  0  0  0  0  0  0  0  0  0  0  0
  -24.3270   -9.5880   21.9650 C   0  0  0  0  0  3  0  0  0  0  0  0
  -23.6090   -8.3800   22.0940 C   0  0  0  0  0  3  0  0  0  0  0  0
  -22.4860   -8.1310   21.2690 C   0  0  0  0  0  0  0  0  0  0  0  0
  -22.1110   -9.0880   20.3110 C   0  0  0  0  0  3  0  0  0  0  0  0
  -22.8310  -10.2880   20.1790 C   0  0  0  0  0  3  0  0  0  0  0  0
  -21.7430   -6.9750   21.3080 O   0  0  0  0  0  0  0  0  0  0  0  0
  -21.5760   -6.2640   22.4690 C   0  0  0  0  0  0  0  0  0  0  0  0
  -20.9970   -6.8440   23.6200 C   0  0  0  0  0  3  0  0  0  0  0  0
  -20.7810   -6.0590   24.7700 C   0  0  0  0  0  3  0  0  0  0  0  0
  -21.1330   -4.6950   24.7700 C   0  0  0  0  0  0  0  0  0  0  0  0
  -21.7050   -4.1150   23.6240 C   0  0  0  0  0  3  0  0  0  0  0  0
  -21.9230   -4.8980   22.4760 C   0  0  0  0  0  0  0  0  0  0  0  0
  -22.4540   -4.3300   21.3660 F   0  0  0  0  0  0  0  0  0  0  0  0
  -20.9190   -3.9380   25.8700 F   0  0  0  0  0  0  0  0  0  0  0  0
  -22.7840  -13.6360   21.2330 C   0  0  0  0  0  0  0  0  0  0  0  0
  -22.0620  -12.9090   22.0780 N   0  0  0  0  0  0  0  0  0  0  0  0
  -22.3430  -14.6790   20.7510 O   0  0  0  0  0  0  0  0  0  0  0  0
  -22.4380  -12.0690   22.4940 H   0  0  0  0  0  0  0  0  0  0  0  0
  -21.1230  -13.1990   22.3150 H   0  0  0  0  0  0  0  0  0  0  0  0
  -25.4110  -15.3420   20.4830 N   0  0  0  0  0  0  0  0  0  0  0  0
  -24.6460  -15.9910   20.6280 H   0  0  0  0  0  0  0  0  0  0  0  0
  -26.2680  -15.7920   20.1930 H   0  0  0  0  0  0  0  0  0  0  0  0
  -29.0840  -25.5950   20.7800 C   0  0  0  0  0  2  0  0  0  0  0  0
  -28.4940  -26.3270   19.6060 O   0  0  0  0  0  0  0  0  0  0  0  0
  -24.8190  -31.9230   23.4800 C   0  0  0  0  0  0  0  0  0  0  0  0
  -27.3490  -27.1790   19.6670 C   0  0  0  0  0  3  0  0  0  0  0  0
  -23.3910  -30.7950   21.8620 C   0  0  0  0  0  3  0  0  0  0  0  0
  -24.4400  -29.3650   20.1140 C   0  0  0  0  0  0  0  0  0  0  0  0
  -25.9730  -30.8640   21.5880 C   0  0  0  0  0  2  0  0  0  0  0  0
  -25.9210  -29.5520   20.8960 C   0  0  0  0  0  3  0  0  0  0  0  0
  -27.3240  -28.5640   20.7600 C   0  0  0  0  0  3  0  0  0  0  0  0
  -25.0410  -27.0280   18.4800 C   0  0  0  0  0  1  0  0  0  0  0  0
  -23.9910  -28.2170   19.0010 C   0  0  0  0  0  3  0  0  0  0  0  0
  -23.4250  -30.3970   20.3870 C   0  0  0  0  0  2  0  0  0  0  0  0
  -24.7460  -31.2000   22.3470 N   0  0  0  0  0  0  0  0  0  0  0  0
  -23.7990  -32.2470   24.1100 O   0  0  0  0  0  0  0  0  0  0  0  0
  -22.7550  -29.6710   22.7230 C   0  0  0  0  0  0  0  0  0  0  0  0
  -21.4380  -29.4450   22.5520 N   0  0  0  0  0  0  0  0  0  0  0  0
  -23.4320  -29.0310   23.5300 O   0  0  0  0  0  0  0  0  0  0  0  0
  -20.9410  -30.0200   21.8870 H   0  0  0  0  0  0  0  0  0  0  0  0
  -18.1160  -28.0670   22.8850 C   0  0  0  0  0  0  0  0  0  0  0  0
  -20.6340  -28.4750   23.2940 C   0  0  0  0  0  3  0  0  0  0  0  0
  -20.8490  -27.0390   22.7630 C   0  0  0  0  0  2  0  0  0  0  0  0
  -19.8290  -26.6340   21.6960 C   0  0  0  0  0  2  0  0  0  0  0  0
  -18.4040  -26.7170   22.2510 C   0  0  0  0  0  2  0  0  0  0  0  0
  -19.1620  -28.9010   23.3620 C   0  0  0  0  0  0  0  0  0  0  0  0
  -18.8420  -30.1610   23.9120 C   0  0  0  0  0  3  0  0  0  0  0  0
  -17.5040  -30.5940   23.9840 C   0  0  0  0  0  3  0  0  0  0  0  0
  -16.4700  -29.7620   23.5220 C   0  0  0  0  0  3  0  0  0  0  0  0
  -16.7750  -28.4980   22.9860 C   0  0  0  0  0  3  0  0  0  0  0  0
  -26.1880  -32.4180   24.0150 C   0  0  0  0  0  3  0  0  0  0  0  0
  -25.9940  -33.8090   24.4340 N   0  0  0  0  0  0  0  0  0  0  0  0
  -26.3280  -34.8800   23.7010 C   0  0  0  0  0  0  0  0  0  0  0  0
  -26.9140  -34.7980   22.6170 O   0  0  0  0  0  0  0  0  0  0  0  0
  -25.4690  -33.9530   25.2850 H   0  0  0  0  0  0  0  0  0  0  0  0
  -24.6990  -36.7840   23.5750 C   0  0  0  0  0  1  0  0  0  0  0  0
  -25.9620  -36.2600   24.2750 C   0  0  0  0  0  3  0  0  0  0  0  0
  -28.1970  -36.9480   25.0200 C   0  0  0  0  0  1  0  0  0  0  0  0
  -27.0560  -37.2530   24.1600 N   0  0  0  0  0  0  0  0  0  0  0  0
  -26.7230  -38.1830   24.3990 H   0  0  0  0  0  0  0  0  0  0  0  0
  -26.7460  -31.5310   25.1920 C   0  0  1  0  0  0  0  0  0  0  0  0
  -25.7180  -31.2970   26.3240 C   0  0  0  0  0  1  0  0  0  0  0  0
  -27.2240  -30.1380   24.7060 C   0  0  0  0  0  1  0  0  0  0  0  0
  -27.9840  -32.2290   25.7900 C   0  0  0  0  0  1  0  0  0  0  0  0
  -28.6480  -23.1980   18.7440 C   0  0  0  0  0  2  0  0  0  0  0  0
  -27.6560  -22.2700   18.1150 C   0  0  0  0  0  2  0  0  0  0  0  0
  -24.1150  -25.2270   15.9780 C   0  0  0  0  0  1  0  0  0  0  0  0
  -23.5970  -23.8660   18.1940 C   0  0  0  0  0  1  0  0  0  0  0  0
  -25.7280  -25.0530   15.5080 C   0  0  0  0  0  3  0  0  0  0  0  0
  -25.0440  -23.0350   18.7100 C   0  0  0  0  0  3  0  0  0  0  0  0
  -26.8020  -24.0800   16.3750 C   0  0  0  0  0  3  0  0  0  0  0  0
  -26.5040  -23.1510   17.7920 C   0  0  0  0  0  0  0  0  0  0  0  0
  1  4  1  0
  1  3  1  0
  2  3  1  0
  3  9  1  0
  4  6  1  0
  5 53  1  0
  5  2  1  0
  7  8  1  6
  7  4  1  0
  7  5  1  0
  9 10  1  0
  9 12  1  0
 11  9  1  0
 13 14  1  0
 13 12  2  0
 15 23  1  0
 16 21  1  0
 17 18  1  0
 17 16  1  0
 19 18  1  0
 19 28  1  0
 19 20  1  0
 21 15  1  0
 21 20  1  0
 22 15  2  0
 23 24  1  0
 23 14  1  0
 25 26  2  0
 26 45  1  0
 27 26  1  0
 27 30  1  0
 28 29  1  0
 28 25  1  0
 29 27  2  0
 30 31  1  0
 31 32  2  0
 33 36  1  0
 33 32  1  0
 34 33  2  0
 35 34  1  0
 35 30  2  0
 36 37  1  0
 37 42  2  0
 37 38  1  0
 38 39  2  0
 39 40  1  0
 40 44  1  0
 41 40  2  0
 42 41  1  0
 43 42  1  0
 45 46  1  0
 46 49  1  0
 46 48  1  0
 47 45  2  0
 50 25  1  0
 50 51  1  0
 52 50  1  0
 54 56  1  0
 54 53  1  0
 55 66  2  0
 56 61  2  0
 57 65  1  0
 57 67  1  0
 58 64  1  0
 58 60  1  0
 59 65  1  0
 60 61  1  0
 60 59  1  0
 62 63  1  0
 63 58  2  0
 64 57  1  0
 65 55  1  0
 67 69  2  0
 68 67  1  0
 70 68  1  0
 71 80  2  0
 71 76  1  0
 72 68  1  0
 72 76  1  0
 73 72  1  0
 74 75  1  0
 74 73  1  0
 75 71  1  0
 76 77  2  0
 77 78  1  0
 79 78  2  0
 80 79  1  0
 81 55  1  0
 81 82  1  0
 81 91  1  0
 82 85  1  0
 83 87  1  0
 83 82  1  0
 84 83  2  0
 87 86  1  0
 89 87  1  0
 89 90  1  0
 89 88  1  0
 91 94  1  1
 91 92  1  0
 93 91  1  0
 95  7  1  0
 96 95  1  0
 98100  1  0
 99 97  1  0
 99101  2  0
101102  1  0
102 96  1  0
102100  2  0
M  ISO  4  15 100  23 100  53 101  54 101
M  END
>  <TORSDO>  (44) 
F 24

>  <SCORE>  (44) 
-10.721

>  <name>  (44) 
43

>  <ligand_id>  (44) 
43

>  <original_smiles>  (44) 
[H]c1c([H])c([H])c(C([H])([H])C([H])([H])[N+]2([H])C([H])(C([H])([H])[H])C([H])([H])C([H])([N+]([H])([H])C([H])([H])C([H])([H])C([H])([H])N([H])C(=O)N3C([H])([H])C([H])([H])C([H])([H])C([H])(n4nc(-c5c([H])c([H])c(Oc6c([H])c([H])c(F)c([H])c6F)c([H])c5[H])c(C(=O)N([H])[H])c4N([H])[H])C3([H])[H])C([H])([H])C2([H])C([H])([H])Oc2c([H])c([H])c3c(c2[H])C([H])([H])N(C(=O)C([H])(N([H])C(=O)C([H])(N([H])C([H])([H])[H])C([H])([H])[H])C(C([H])([H])[H])(C([H])([H])[H])C([H])([H])[H])C([H])(C(=O)N([H])C2([H])c4c([H])c([H])c([H])c([H])c4C([H])([H])C([H])([H])C2([H])[H])C3([H])[H])c([H])c1[H]

>  <smiles>  (44) 
[H]c1c([H])c([H])c(C([H])([H])C([H])([H])[N+]2([H])C([H])(C([H])([H])[H])C([H])([H])C([H])([N+]([H])([H])C([H])([H])C([H])([H])C([H])([H])N([H])C(=O)N3C([H])([H])C([H])([H])C([H])([H])C([H])(n4nc(-c5c([H])c([H])c(Oc6c([H])c([H])c(F)c([H])c6F)c([H])c5[H])c(C(=O)N([H])[H])c4N([H])[H])C3([H])[H])C([H])([H])C2([H])C([H])([H])Oc2c([H])c([H])c3c(c2[H])C([H])([H])N(C(=O)C([H])(N([H])C(=O)C([H])(N([H])C([H])([H])[H])C([H])([H])[H])C(C([H])([H])[H])(C([H])([H])[H])C([H])([H])[H])C([H])(C(=O)N([H])C2([H])c4c([H])c([H])c([H])c([H])c4C([H])([H])C([H])([H])C2([H])[H])C3([H])[H])c([H])c1[H]

$$$$
44:0:0
     RDKit          3D

 93101  0  0  1  0  0  0  0  0999 V2000
  -29.8060  -22.7520   20.3970 C   0  0  0  0  0  3  0  0  0  0  0  0
  -29.9620  -22.7280   21.8590 N   0  0  0  0  0  4  0  0  0  0  0  0
  -29.1040  -22.9540   22.3280 H   0  0  0  0  0  0  0  0  0  0  0  0
  -30.6750  -23.3860   22.1270 H   0  0  0  0  0  0  0  0  0  0  0  0
  -30.2600  -21.8140   22.1490 H   0  0  0  0  0  0  0  0  0  0  0  0
  -29.5120  -24.2420   19.9070 C   0  0  0  0  0  2  0  0  0  0  0  0
  -28.2200  -25.0610   20.3190 C   0  0  0  0  0  2  0  0  0  0  0  0
  -28.3670  -26.5270   20.1810 O   0  0  0  0  0  0  0  0  0  0  0  0
  -24.6070  -31.8770   23.2290 C   0  0  0  0  0  0  0  0  0  0  0  0
  -27.2230  -27.3340   20.1720 C   0  0  0  0  0  0  0  0  0  0  0  0
  -23.4050  -30.4740   21.5860 C   0  0  0  0  0  3  0  0  0  0  0  0
  -24.8600  -28.9430   20.1490 C   0  0  0  0  0  0  0  0  0  0  0  0
  -25.9420  -30.7930   21.4210 C   0  0  0  0  0  2  0  0  0  0  0  0
  -26.0200  -29.4190   20.7710 C   0  0  0  0  0  0  0  0  0  0  0  0
  -27.2030  -28.6220   20.7880 C   0  0  0  0  0  3  0  0  0  0  0  0
  -26.0490  -26.9120   19.5130 C   0  0  0  0  0  3  0  0  0  0  0  0
  -24.8780  -27.6940   19.5090 C   0  0  0  0  0  3  0  0  0  0  0  0
  -23.6240  -29.8170   20.1970 C   0  0  0  0  0  2  0  0  0  0  0  0
  -24.6670  -31.0700   22.1320 N   0  0  0  0  0  0  0  0  0  0  0  0
  -23.5240  -32.1530   23.7670 O   0  0  0  0  0  0  0  0  0  0  0  0
  -22.7500  -29.4480   22.5430 C   0  0  0  0  0  0  0  0  0  0  0  0
  -21.4220  -29.2740   22.4230 N   0  0  0  0  0  0  0  0  0  0  0  0
  -23.4370  -28.8190   23.3530 O   0  0  0  0  0  0  0  0  0  0  0  0
  -20.9310  -29.8400   21.7450 H   0  0  0  0  0  0  0  0  0  0  0  0
  -18.0450  -28.0900   22.9550 C   0  0  0  0  0  0  0  0  0  0  0  0
  -20.6070  -28.3380   23.1980 C   0  0  0  0  0  3  0  0  0  0  0  0
  -20.7000  -26.9090   22.6150 C   0  0  0  0  0  2  0  0  0  0  0  0
  -19.5860  -26.5960   21.6090 C   0  0  0  0  0  2  0  0  0  0  0  0
  -18.2090  -26.7430   22.2660 C   0  0  0  0  0  2  0  0  0  0  0  0
  -19.1700  -28.8450   23.3770 C   0  0  0  0  0  0  0  0  0  0  0  0
  -18.9670  -30.1060   23.9770 C   0  0  0  0  0  3  0  0  0  0  0  0
  -17.6680  -30.6170   24.1540 C   0  0  0  0  0  3  0  0  0  0  0  0
  -16.5550  -29.8590   23.7510 C   0  0  0  0  0  3  0  0  0  0  0  0
  -16.7430  -28.5970   23.1580 C   0  0  0  0  0  3  0  0  0  0  0  0
  -25.8920  -32.5130   23.8420 C   0  0  0  0  0  3  0  0  0  0  0  0
  -25.5750  -33.9060   24.1790 N   0  0  0  0  0  0  0  0  0  0  0  0
  -25.8970  -34.9670   23.4240 C   0  0  0  0  0  0  0  0  0  0  0  0
  -26.5650  -34.8760   22.3900 O   0  0  0  0  0  0  0  0  0  0  0  0
  -24.9870  -34.0530   24.9870 H   0  0  0  0  0  0  0  0  0  0  0  0
  -24.1570  -36.7490   23.0810 C   0  0  0  0  0  1  0  0  0  0  0  0
  -25.4030  -36.3480   23.8870 C   0  0  0  0  0  3  0  0  0  0  0  0
  -27.5340  -37.2400   24.7250 C   0  0  0  0  0  1  0  0  0  0  0  0
  -26.4300  -37.4100   23.7820 N   0  0  0  0  0  0  0  0  0  0  0  0
  -26.0180  -38.3240   23.9460 H   0  0  0  0  0  0  0  0  0  0  0  0
  -26.4230  -31.7450   25.1150 C   0  0  1  0  0  0  0  0  0  0  0  0
  -25.3330  -31.4920   26.1850 C   0  0  0  0  0  1  0  0  0  0  0  0
  -27.0200  -30.3720   24.7230 C   0  0  0  0  0  1  0  0  0  0  0  0
  -27.5680  -32.5490   25.7770 C   0  0  0  0  0  1  0  0  0  0  0  0
  -28.9060  -21.5530   19.8830 C   0  0  0  0  0  2  0  0  0  0  0  0
  -29.1480  -17.8060   19.1010 C   0  0  0  0  0  2  0  0  0  0  0  0
  -30.7960  -18.2070   21.0160 C   0  0  0  0  0  2  0  0  0  0  0  0
  -29.3480  -19.3130   18.7600 C   0  0  0  0  0  2  0  0  0  0  0  0
  -30.5140  -19.7450   20.8380 C   0  0  0  0  0  2  0  0  0  0  0  0
  -30.3130  -17.1910   19.9170 C   0  0  0  0  0  3  0  0  0  0  0  0
  -29.3630  -20.1150   20.0000 N   0  0  0  0  0  0  0  0  0  0  0  0
  -30.7020  -14.6510   20.0850 C   0  0  0  0  0  0  0  0  0  0  0  0
  -30.4060  -12.4730   18.9170 C   0  0  0  0  0  2  0  0  0  0  0  0
  -29.3810  -12.6240   17.7720 C   0  0  0  0  0  2  0  0  0  0  0  0
  -27.9360  -12.4430   18.2820 C   0  0  0  0  0  2  0  0  0  0  0  0
  -27.6620  -13.2520   19.5790 C   0  0  0  0  0  3  0  0  0  0  0  0
  -28.7930  -12.9830   20.6030 C   0  0  0  0  0  2  0  0  0  0  0  0
  -30.0440  -13.4410   19.9740 N   0  0  0  0  0  0  0  0  0  0  0  0
  -31.8330  -14.7680   19.6020 O   0  0  0  0  0  0  0  0  0  0  0  0
  -29.0590  -15.8190   21.5660 C   0  0  0  0  0  1  0  0  0  0  0  0
  -29.9920  -15.7960   20.4270 N   0  0  0  0  0  0  0  0  0  0  0  0
  -25.3050  -13.8520   20.4280 C   0  0  0  0  0  0  0  0  0  0  0  0
  -24.2580  -13.0740   20.8360 C   0  0  0  0  0  0  0  0  0  0  0  0
  -24.7150  -11.7230   20.7580 C   0  0  0  0  0  0  0  0  0  0  0  0
  -26.3360  -12.9740   20.1240 N   0  0  0  0  0  0  0  0  0  0  0  0
  -25.9850  -11.6900   20.3760 N   0  0  0  0  0  0  0  0  0  0  0  0
  -24.0000  -10.4570   20.9610 C   0  0  0  0  0  0  0  0  0  0  0  0
  -24.4510   -9.4930   21.8900 C   0  0  0  0  0  3  0  0  0  0  0  0
  -23.7370   -8.2920   22.0780 C   0  0  0  0  0  3  0  0  0  0  0  0
  -22.5580   -8.0420   21.3370 C   0  0  0  0  0  0  0  0  0  0  0  0
  -22.1240   -8.9960   20.3960 C   0  0  0  0  0  3  0  0  0  0  0  0
  -22.8390  -10.1910   20.2080 C   0  0  0  0  0  3  0  0  0  0  0  0
  -21.8140   -6.8910   21.4370 O   0  0  0  0  0  0  0  0  0  0  0  0
  -21.7470   -6.1790   22.6070 C   0  0  0  0  0  0  0  0  0  0  0  0
  -21.2880   -6.7620   23.8090 C   0  0  0  0  0  3  0  0  0  0  0  0
  -21.1670   -5.9750   24.9730 C   0  0  0  0  0  3  0  0  0  0  0  0
  -21.4980   -4.6060   24.9330 C   0  0  0  0  0  0  0  0  0  0  0  0
  -21.9500   -4.0250   23.7380 C   0  0  0  0  0  3  0  0  0  0  0  0
  -22.0700   -4.8080   22.5770 C   0  0  0  0  0  0  0  0  0  0  0  0
  -22.4860   -4.2360   21.4210 F   0  0  0  0  0  0  0  0  0  0  0  0
  -21.3750   -3.8480   26.0480 F   0  0  0  0  0  0  0  0  0  0  0  0
  -22.8760  -13.5460   21.1890 C   0  0  0  0  0  0  0  0  0  0  0  0
  -22.1910  -12.8410   22.0790 N   0  0  0  0  0  0  0  0  0  0  0  0
  -22.4110  -14.5770   20.7030 O   0  0  0  0  0  0  0  0  0  0  0  0
  -22.5790  -12.0090   22.5020 H   0  0  0  0  0  0  0  0  0  0  0  0
  -21.2620  -13.1420   22.3410 H   0  0  0  0  0  0  0  0  0  0  0  0
  -25.4660  -15.2250   20.2710 N   0  0  0  0  0  0  0  0  0  0  0  0
  -24.7380  -15.8940   20.4910 H   0  0  0  0  0  0  0  0  0  0  0  0
  -26.3070  -15.6650   19.9210 H   0  0  0  0  0  0  0  0  0  0  0  0
  1 49  1  0
  1  2  1  0
  2  4  1  0
  2  5  1  0
  2  3  1  0
  6  7  1  0
  6  1  1  0
  8  7  1  0
  9 20  2  0
 10  8  1  0
 10 15  1  0
 11 19  1  0
 11 21  1  0
 12 18  1  0
 12 14  1  0
 13 19  1  0
 14 15  2  0
 14 13  1  0
 16 10  2  0
 17 16  1  0
 17 12  2  0
 18 11  1  0
 19  9  1  0
 21 23  2  0
 22 21  1  0
 24 22  1  0
 25 34  2  0
 25 30  1  0
 26 22  1  0
 26 30  1  0
 27 26  1  0
 28 29  1  0
 28 27  1  0
 29 25  1  0
 30 31  2  0
 31 32  1  0
 33 32  2  0
 34 33  1  0
 35  9  1  0
 35 36  1  0
 35 45  1  0
 36 39  1  0
 37 41  1  0
 37 36  1  0
 38 37  2  0
 41 40  1  0
 43 41  1  0
 43 44  1  0
 43 42  1  0
 45 48  1  1
 45 46  1  0
 47 45  1  0
 49 55  1  0
 50 54  1  0
 52 50  1  0
 52 55  1  0
 53 51  1  0
 54 65  1  0
 54 51  1  0
 55 53  1  0
 56 65  1  0
 57 62  1  0
 58 59  1  0
 58 57  1  0
 60 59  1  0
 60 69  1  0
 60 61  1  0
 62 56  1  0
 62 61  1  0
 63 56  2  0
 65 64  1  0
 66 67  2  0
 67 86  1  0
 68 67  1  0
 68 71  1  0
 69 70  1  0
 69 66  1  0
 70 68  2  0
 71 72  1  0
 72 73  2  0
 74 77  1  0
 74 73  1  0
 75 74  2  0
 76 75  1  0
 76 71  2  0
 77 78  1  0
 78 79  1  0
 79 80  2  0
 81 80  1  0
 81 85  1  0
 82 81  2  0
 83 78  2  0
 83 82  1  0
 84 83  1  0
 86 87  1  0
 87 90  1  0
 87 89  1  0
 88 86  2  0
 91 66  1  0
 91 92  1  0
 93 91  1  0
M  ISO  4   7 101   8 101  56 100  65 100
M  END
>  <TORSDO>  (45) 
F 21

>  <SCORE>  (45) 
-13.202

>  <name>  (45) 
44

>  <ligand_id>  (45) 
44

>  <original_smiles>  (45) 
[H]c1c([H])c([H])c2c(c1[H])C([H])([H])C([H])([H])C([H])([H])C2([H])N([H])C(=O)C1([H])N(C(=O)C([H])(N([H])C(=O)C([H])(N([H])C([H])([H])[H])C([H])([H])[H])C(C([H])([H])[H])(C([H])([H])[H])C([H])([H])[H])C([H])([H])c2c([H])c(OC([H])([H])C([H])([H])C([H])(C([H])([H])N3C([H])([H])C([H])([H])C([H])(N(C(=O)N4C([H])([H])C([H])([H])C([H])([H])C([H])(n5nc(-c6c([H])c([H])c(Oc7c([H])c([H])c(F)c([H])c7F)c([H])c6[H])c(C(=O)N([H])[H])c5N([H])[H])C4([H])[H])C([H])([H])[H])C([H])([H])C3([H])[H])[N+]([H])([H])[H])c([H])c([H])c2C1([H])[H]

>  <smiles>  (45) 
[H]c1c([H])c([H])c2c(c1[H])C([H])([H])C([H])([H])C([H])([H])C2([H])N([H])C(=O)C1([H])N(C(=O)C([H])(N([H])C(=O)C([H])(N([H])C([H])([H])[H])C([H])([H])[H])C(C([H])([H])[H])(C([H])([H])[H])C([H])([H])[H])C([H])([H])c2c([H])c(OC([H])([H])C([H])([H])C([H])(C([H])([H])N3C([H])([H])C([H])([H])C([H])(N(C(=O)N4C([H])([H])C([H])([H])C([H])([H])C([H])(n5nc(-c6c([H])c([H])c(Oc7c([H])c([H])c(F)c([H])c7F)c([H])c6[H])c(C(=O)N([H])[H])c5N([H])[H])C4([H])[H])C([H])([H])[H])C([H])([H])C3([H])[H])[N+]([H])([H])[H])c([H])c([H])c2C1([H])[H]

$$$$
45:0:0
     RDKit          3D

 94101  0  0  1  0  0  0  0  0999 V2000
  -29.9000  -19.3140   20.1460 C   0  0  0  0  0  3  0  0  0  0  0  0
  -31.0210  -19.8830   20.9250 N   0  0  0  0  0  4  0  0  0  0  0  0
  -31.5630  -19.1130   21.3030 H   0  0  0  0  0  0  0  0  0  0  0  0
  -31.6310  -20.4460   20.3550 H   0  0  0  0  0  0  0  0  0  0  0  0
  -30.6660  -20.6020   22.1620 C   0  0  0  0  0  2  0  0  0  0  0  0
  -31.5740  -21.1630   24.4730 C   0  0  0  0  0  1  0  0  0  0  0  0
  -32.9320  -21.7560   22.4300 C   0  0  0  0  0  1  0  0  0  0  0  0
  -31.9350  -20.7580   23.0370 C   0  0  2  0  0  0  0  0  0  0  0  0
  -32.5900  -19.4940   23.1050 O   0  0  0  0  0  0  0  0  0  0  0  0
  -33.3580  -19.5870   23.6620 H   0  0  0  0  0  0  0  0  0  0  0  0
  -29.6780  -17.7160   20.6570 C   0  0  0  0  0  2  0  0  0  0  0  0
  -31.1170  -15.3220   20.9260 C   0  0  0  0  0  0  0  0  0  0  0  0
  -30.9920  -12.9410   20.0940 C   0  0  0  0  0  2  0  0  0  0  0  0
  -30.1900  -12.7980   18.7830 C   0  0  0  0  0  2  0  0  0  0  0  0
  -28.6900  -12.6300   19.0890 C   0  0  0  0  0  2  0  0  0  0  0  0
  -28.1750  -13.6440   20.1440 C   0  0  0  0  0  3  0  0  0  0  0  0
  -29.1180  -13.7700   21.3580 C   0  0  0  0  0  2  0  0  0  0  0  0
  -30.4340  -14.1170   20.8150 N   0  0  0  0  0  0  0  0  0  0  0  0
  -32.3490  -15.2250   20.9630 O   0  0  0  0  0  0  0  0  0  0  0  0
  -31.3570  -16.8790   19.0850 C   0  0  0  0  0  1  0  0  0  0  0  0
  -30.6190  -16.5100   20.3040 N   0  0  0  0  0  0  0  0  0  0  0  0
  -25.7500  -14.2710   20.6590 C   0  0  0  0  0  0  0  0  0  0  0  0
  -24.6440  -13.5180   20.9420 C   0  0  0  0  0  0  0  0  0  0  0  0
  -25.0890  -12.1610   20.9880 C   0  0  0  0  0  0  0  0  0  0  0  0
  -26.7960  -13.3740   20.5360 N   0  0  0  0  0  0  0  0  0  0  0  0
  -26.4040  -12.1010   20.8040 N   0  0  0  0  0  0  0  0  0  0  0  0
  -24.3290  -10.9120   21.1340 C   0  0  0  0  0  0  0  0  0  0  0  0
  -24.6450   -9.9660   22.1340 C   0  0  0  0  0  3  0  0  0  0  0  0
  -23.8840   -8.7850   22.2680 C   0  0  0  0  0  3  0  0  0  0  0  0
  -22.7920   -8.5420   21.4000 C   0  0  0  0  0  0  0  0  0  0  0  0
  -22.4960   -9.4750   20.3920 C   0  0  0  0  0  3  0  0  0  0  0  0
  -23.2580  -10.6480   20.2560 C   0  0  0  0  0  3  0  0  0  0  0  0
  -22.0150   -7.4090   21.4400 O   0  0  0  0  0  0  0  0  0  0  0  0
  -21.8130   -6.7140   22.6050 C   0  0  0  0  0  0  0  0  0  0  0  0
  -21.2430   -7.3210   23.7450 C   0  0  0  0  0  3  0  0  0  0  0  0
  -20.9880   -6.5530   24.8980 C   0  0  0  0  0  3  0  0  0  0  0  0
  -21.2940   -5.1790   24.9130 C   0  0  0  0  0  0  0  0  0  0  0  0
  -21.8580   -4.5720   23.7760 C   0  0  0  0  0  3  0  0  0  0  0  0
  -22.1130   -5.3380   22.6250 C   0  0  0  0  0  0  0  0  0  0  0  0
  -22.6360   -4.7420   21.5260 F   0  0  0  0  0  0  0  0  0  0  0  0
  -21.0440   -4.4400   26.0170 F   0  0  0  0  0  0  0  0  0  0  0  0
  -23.2340  -14.0200   21.0590 C   0  0  0  0  0  0  0  0  0  0  0  0
  -22.4200  -13.3730   21.8850 N   0  0  0  0  0  0  0  0  0  0  0  0
  -22.8620  -15.0240   20.4530 O   0  0  0  0  0  0  0  0  0  0  0  0
  -22.7280  -12.5650   22.4030 H   0  0  0  0  0  0  0  0  0  0  0  0
  -21.4690  -13.6970   22.0030 H   0  0  0  0  0  0  0  0  0  0  0  0
  -25.9510  -15.6340   20.4670 N   0  0  0  0  0  0  0  0  0  0  0  0
  -25.1880  -16.3050   20.4860 H   0  0  0  0  0  0  0  0  0  0  0  0
  -26.8360  -16.0480   20.2060 H   0  0  0  0  0  0  0  0  0  0  0  0
  -28.6750  -20.4690   19.9990 C   0  0  0  0  0  2  0  0  0  0  0  0
  -28.7950  -22.1340   20.2390 C   0  0  0  0  0  2  0  0  0  0  0  0
  -27.8690  -23.3480   19.5240 C   0  0  0  0  0  2  0  0  0  0  0  0
  -27.6180  -24.8940   20.1350 C   0  0  0  0  0  2  0  0  0  0  0  0
  -27.6540  -26.2650   19.4100 O   0  0  0  0  0  0  0  0  0  0  0  0
  -24.6920  -31.8230   23.2330 C   0  0  0  0  0  0  0  0  0  0  0  0
  -26.6540  -27.2740   19.5980 C   0  0  0  0  0  0  0  0  0  0  0  0
  -23.2570  -30.6590   21.6020 C   0  0  0  0  0  3  0  0  0  0  0  0
  -24.4580  -29.1330   19.9220 C   0  0  0  0  0  0  0  0  0  0  0  0
  -25.7940  -30.7920   21.2140 C   0  0  0  0  0  2  0  0  0  0  0  0
  -25.7140  -29.4600   20.4500 C   0  0  0  0  0  0  0  0  0  0  0  0
  -26.8160  -28.5480   20.2680 C   0  0  0  0  0  3  0  0  0  0  0  0
  -25.3790  -27.0360   19.0510 C   0  0  0  0  0  3  0  0  0  0  0  0
  -24.3010  -27.9350   19.2060 C   0  0  0  0  0  3  0  0  0  0  0  0
  -23.3070  -30.0970   20.1550 C   0  0  0  0  0  2  0  0  0  0  0  0
  -24.6080  -31.1060   22.0710 N   0  0  0  0  0  0  0  0  0  0  0  0
  -23.6800  -32.1220   23.8850 O   0  0  0  0  0  0  0  0  0  0  0  0
  -22.6020  -29.6090   22.5340 C   0  0  0  0  0  0  0  0  0  0  0  0
  -21.2660  -29.4730   22.4570 N   0  0  0  0  0  0  0  0  0  0  0  0
  -23.2950  -28.9220   23.2880 O   0  0  0  0  0  0  0  0  0  0  0  0
  -20.7630  -30.0800   21.8250 H   0  0  0  0  0  0  0  0  0  0  0  0
  -17.8950  -28.2520   22.9670 C   0  0  0  0  0  0  0  0  0  0  0  0
  -20.4570  -28.5120   23.2090 C   0  0  0  0  0  3  0  0  0  0  0  0
  -20.5540  -27.0980   22.5880 C   0  0  0  0  0  2  0  0  0  0  0  0
  -19.4390  -26.8040   21.5800 C   0  0  0  0  0  2  0  0  0  0  0  0
  -18.0650  -26.9260   22.2460 C   0  0  0  0  0  2  0  0  0  0  0  0
  -19.0170  -29.0040   23.4050 C   0  0  0  0  0  0  0  0  0  0  0  0
  -18.8010  -30.2460   24.0410 C   0  0  0  0  0  3  0  0  0  0  0  0
  -17.4960  -30.7340   24.2430 C   0  0  0  0  0  3  0  0  0  0  0  0
  -16.3890  -29.9790   23.8190 C   0  0  0  0  0  3  0  0  0  0  0  0
  -16.5890  -28.7390   23.1860 C   0  0  0  0  0  3  0  0  0  0  0  0
  -26.0630  -32.3200   23.7890 C   0  0  0  0  0  3  0  0  0  0  0  0
  -26.6490  -31.3870   24.9180 C   0  0  1  0  0  0  0  0  0  0  0  0
  -25.6520  -31.0980   26.0660 C   0  0  0  0  0  1  0  0  0  0  0  0
  -27.0960  -30.0300   24.3280 C   0  0  0  0  0  1  0  0  0  0  0  0
  -27.9090  -32.0380   25.5350 C   0  0  0  0  0  1  0  0  0  0  0  0
  -25.8700  -33.6850   24.3030 N   0  0  0  0  0  0  0  0  0  0  0  0
  -26.2460  -34.8020   23.6650 C   0  0  0  0  0  0  0  0  0  0  0  0
  -26.8600  -34.7850   22.5950 O   0  0  0  0  0  0  0  0  0  0  0  0
  -25.3300  -33.7760   25.1500 H   0  0  0  0  0  0  0  0  0  0  0  0
  -24.6490  -36.7460   23.6250 C   0  0  0  0  0  1  0  0  0  0  0  0
  -25.8870  -36.1520   24.3160 C   0  0  0  0  0  3  0  0  0  0  0  0
  -28.1140  -36.7740   25.1470 C   0  0  0  0  0  1  0  0  0  0  0  0
  -26.9940  -37.1360   24.2830 N   0  0  0  0  0  0  0  0  0  0  0  0
  -26.6660  -38.0570   24.5600 H   0  0  0  0  0  0  0  0  0  0  0  0
  1 50  1  0
  1 11  1  0
  1  2  1  0
  2  3  1  0
  2  5  1  0
  4  2  1  0
  5  8  1  0
  8  7  1  6
  8  9  1  0
  8  6  1  0
  9 10  1  0
 12 19  2  0
 13 18  1  0
 14 15  1  0
 14 13  1  0
 16 15  1  0
 16 25  1  0
 16 17  1  0
 18 12  1  0
 18 17  1  0
 20 21  1  0
 21 11  1  0
 21 12  1  0
 22 23  2  0
 23 24  1  0
 23 42  1  0
 24 27  1  0
 25 22  1  0
 25 26  1  0
 26 24  2  0
 27 28  1  0
 28 29  2  0
 30 33  1  0
 30 29  1  0
 31 30  2  0
 32 31  1  0
 32 27  2  0
 33 34  1  0
 34 39  2  0
 34 35  1  0
 35 36  2  0
 36 37  1  0
 37 41  1  0
 38 37  2  0
 39 38  1  0
 40 39  1  0
 42 43  1  0
 43 46  1  0
 43 45  1  0
 44 42  2  0
 47 48  1  0
 47 22  1  0
 49 47  1  0
 50 51  1  0
 52 53  1  0
 52 51  1  0
 54 56  1  0
 54 53  1  0
 55 66  2  0
 56 61  1  0
 57 65  1  0
 57 67  1  0
 58 64  1  0
 58 60  1  0
 59 65  1  0
 60 59  1  0
 61 60  2  0
 62 63  1  0
 62 56  2  0
 63 58  2  0
 64 57  1  0
 65 55  1  0
 67 69  2  0
 68 67  1  0
 70 68  1  0
 71 80  2  0
 71 76  1  0
 72 68  1  0
 72 76  1  0
 73 72  1  0
 74 75  1  0
 74 73  1  0
 75 71  1  0
 76 77  2  0
 77 78  1  0
 79 78  2  0
 80 79  1  0
 81 55  1  0
 81 86  1  0
 81 82  1  0
 82 85  1  1
 82 83  1  0
 84 82  1  0
 86 89  1  0
 87 86  1  0
 87 91  1  0
 88 87  2  0
 91 90  1  0
 93 91  1  0
 93 94  1  0
 93 92  1  0
M  ISO  4  12 100  21 100  53 101  54 101
M  END
>  <TORSDO>  (46) 
F 25

>  <SCORE>  (46) 
-10.629

>  <name>  (46) 
45

>  <ligand_id>  (46) 
45

>  <original_smiles>  (46) 
[H]OC(C([H])([H])[H])(C([H])([H])[H])C([H])([H])[N+]([H])([H])C([H])(C([H])([H])N(C(=O)N1C([H])([H])C([H])([H])C([H])([H])C([H])(n2nc(-c3c([H])c([H])c(Oc4c([H])c([H])c(F)c([H])c4F)c([H])c3[H])c(C(=O)N([H])[H])c2N([H])[H])C1([H])[H])C([H])([H])[H])C([H])([H])C([H])([H])C([H])([H])C([H])([H])Oc1c([H])c([H])c2c(c1[H])C([H])([H])N(C(=O)C([H])(N([H])C(=O)C([H])(N([H])C([H])([H])[H])C([H])([H])[H])C(C([H])([H])[H])(C([H])([H])[H])C([H])([H])[H])C([H])(C(=O)N([H])C1([H])c3c([H])c([H])c([H])c([H])c3C([H])([H])C([H])([H])C1([H])[H])C2([H])[H]

>  <smiles>  (46) 
[H]OC(C([H])([H])[H])(C([H])([H])[H])C([H])([H])[N+]([H])([H])C([H])(C([H])([H])N(C(=O)N1C([H])([H])C([H])([H])C([H])([H])C([H])(n2nc(-c3c([H])c([H])c(Oc4c([H])c([H])c(F)c([H])c4F)c([H])c3[H])c(C(=O)N([H])[H])c2N([H])[H])C1([H])[H])C([H])([H])[H])C([H])([H])C([H])([H])C([H])([H])C([H])([H])Oc1c([H])c([H])c2c(c1[H])C([H])([H])N(C(=O)C([H])(N([H])C(=O)C([H])(N([H])C([H])([H])[H])C([H])([H])[H])C(C([H])([H])[H])(C([H])([H])[H])C([H])([H])[H])C([H])(C(=O)N([H])C1([H])c3c([H])c([H])c([H])c([H])c3C([H])([H])C([H])([H])C1([H])[H])C2([H])[H]

$$$$
46:0:0
     RDKit          3D

 95 93  0  0  1  0  0  0  0  0999 V2000
  -22.7500  -28.9760   22.5110 C   0  0  0  0  0  1  0  0  0  0  0  0
  -22.4380  -27.4760   20.8390 N   0  0  0  0  0  2  0  0  0  0  0  0
  -22.4070  -28.0360   20.0010 H   0  0  0  0  0  0  0  0  0  0  0  0
  -21.4760  -27.2020   20.9710 H   0  0  0  0  0  0  0  0  0  0  0  0
  -23.3690  -25.6020   20.1990 C   0  0  0  0  0 15  0  0  0  0  0  0
  -25.0500  -23.8430   20.0740 C   0  0  0  0  0 15  0  0  0  0  0  0
  -25.9500  -21.6300   19.5910 C   0  0  0  0  0 15  0  0  0  0  0  0
  -27.5990  -19.8360   19.5470 C   0  0  0  0  0 15  0  0  0  0  0  0
  -29.4970  -16.3900   19.4260 C   0  0  0  0  0  0  0  0  0  0  0  0
  -30.4060  -13.6580   18.8220 C   0  0  0  0  0  2  0  0  0  0  0  0
  -29.7070  -12.6570   17.8110 C   0  0  0  0  0  2  0  0  0  0  0  0
  -28.4020  -12.0930   18.3790 C   0  0  0  0  0  2  0  0  0  0  0  0
  -27.7720  -13.1820   19.2560 C   0  0  0  0  0  3  0  0  0  0  0  0
  -28.6900  -13.8710   20.2730 C   0  0  0  0  0  2  0  0  0  0  0  0
  -29.4690  -14.8160   19.4470 N   0  0  0  0  0  0  0  0  0  0  0  0
  -30.7710  -16.3880   19.2320 O   0  0  0  0  0  0  0  0  0  0  0  0
  -28.3180  -17.7880   19.4780 N   0  0  0  0  0  2  0  0  0  0  0  0
  -27.4560  -17.2650   19.5540 H   0  0  0  0  0  0  0  0  0  0  0  0
  -25.6110  -13.8080   20.2710 C   0  0  0  0  0  0  0  0  0  0  0  0
  -24.5610  -13.0830   20.7360 C   0  0  0  0  0  0  0  0  0  0  0  0
  -24.9380  -11.7090   20.6130 C   0  0  0  0  0  0  0  0  0  0  0  0
  -26.5360  -12.8690   19.8780 N   0  0  0  0  0  0  0  0  0  0  0  0
  -26.1780  -11.5980   20.1530 N   0  0  0  0  0  0  0  0  0  0  0  0
  -24.1570  -10.4930   20.8300 C   0  0  0  0  0  0  0  0  0  0  0  0
  -24.5550   -9.5190   21.7690 C   0  0  0  0  0  3  0  0  0  0  0  0
  -23.7630   -8.3700   21.9760 C   0  0  0  0  0  3  0  0  0  0  0  0
  -22.5670   -8.1930   21.2420 C   0  0  0  0  0  0  0  0  0  0  0  0
  -22.1930   -9.1570   20.2890 C   0  0  0  0  0  3  0  0  0  0  0  0
  -22.9830  -10.2960   20.0790 C   0  0  0  0  0  3  0  0  0  0  0  0
  -21.7460   -7.0990   21.3620 O   0  0  0  0  0  0  0  0  0  0  0  0
  -21.6240   -6.4190   22.5460 C   0  0  0  0  0  0  0  0  0  0  0  0
  -21.1800   -7.0520   23.7280 C   0  0  0  0  0  3  0  0  0  0  0  0
  -21.0030   -6.2990   24.9060 C   0  0  0  0  0  3  0  0  0  0  0  0
  -21.2580   -4.9150   24.9020 C   0  0  0  0  0  0  0  0  0  0  0  0
  -21.6930   -4.2820   23.7260 C   0  0  0  0  0  3  0  0  0  0  0  0
  -21.8730   -5.0310   22.5500 C   0  0  0  0  0  0  0  0  0  0  0  0
  -22.2730   -4.4130   21.4130 F   0  0  0  0  0  0  0  0  0  0  0  0
  -21.0800   -4.1890   26.0310 F   0  0  0  0  0  0  0  0  0  0  0  0
  -23.2420  -13.6500   21.1510 C   0  0  0  0  0  0  0  0  0  0  0  0
  -22.5650  -12.9890   22.0820 N   0  0  0  0  0  0  0  0  0  0  0  0
  -22.8330  -14.7130   20.6860 O   0  0  0  0  0  0  0  0  0  0  0  0
  -22.9220  -12.1300   22.4700 H   0  0  0  0  0  0  0  0  0  0  0  0
  -21.6810  -13.3480   22.4110 H   0  0  0  0  0  0  0  0  0  0  0  0
  -25.8500  -15.1720   20.1080 N   0  0  0  0  0  0  0  0  0  0  0  0
  -25.0970  -15.8370   20.2580 H   0  0  0  0  0  0  0  0  0  0  0  0
  -26.5250  -15.4880   19.4250 H   0  0  0  0  0  0  0  0  0  0  0  0
  -22.5280  -29.0520   24.2100 C   0  0  0  0  0  2  0  0  0  0  0  0
  -23.3770  -29.9800   24.9820 N   0  0  0  0  0  0  0  0  0  0  0  0
  -24.0780  -30.4560   24.4090 H   0  0  0  0  0  0  0  0  0  0  0  0
  -24.9450  -30.4930   26.7640 C   0  0  0  0  0  1  0  0  0  0  0  0
  -24.2870  -28.0740   26.3650 C   0  0  0  0  0  1  0  0  0  0  0  0
  -23.8280  -29.5440   26.3020 C   0  0  0  0  0  3  0  0  0  0  0  0
  -24.7310  -29.1040   23.4820 C   0  0  0  0  0 15  0  0  0  0  0  0
  -26.5160  -28.4460   22.6780 C   0  0  0  0  0  1  0  0  0  0  0  0
  -27.1320  -27.2170   21.5990 O   0  0  0  0  0  0  0  0  0  0  0  0
  -25.1760  -31.2930   22.3130 C   0  0  0  0  0  0  0  0  0  0  0  0
  -27.4040  -27.1770   20.2230 C   0  0  0  0  0  3  0  0  0  0  0  0
  -24.4770  -28.6610   21.1290 C   0  0  0  0  0  2  0  0  0  0  0  0
  -25.2870  -28.2670   19.2050 C   0  0  0  0  0  3  0  0  0  0  0  0
  -26.1520  -30.4190   20.2840 C   0  0  0  0  0  2  0  0  0  0  0  0
  -26.3870  -29.0900   19.5930 C   0  0  0  0  0  3  0  0  0  0  0  0
  -27.6020  -28.4760   19.8300 C   0  0  0  0  0  2  0  0  0  0  0  0
  -26.5770  -26.3310   19.4380 C   0  0  0  0  0  2  0  0  0  0  0  0
  -25.3940  -26.8980   18.9720 C   0  0  0  0  0  2  0  0  0  0  0  0
  -24.0110  -28.6830   19.6460 C   0  0  0  0  0  2  0  0  0  0  0  0
  -25.1420  -30.2270   21.3230 N   0  0  0  0  0  0  0  0  0  0  0  0
  -24.1340  -31.6610   22.8830 O   0  0  0  0  0  0  0  0  0  0  0  0
  -24.3430  -26.9580   22.4490 C   0  0  0  0  0  2  0  0  0  0  0  0
  -23.0380  -26.4480   23.1910 N   0  0  0  0  0  0  0  0  0  0  0  0
  -25.1310  -26.5460   23.2030 O   0  0  0  0  0  1  0  0  0  0  0  0
  -23.3580  -25.8310   23.9270 H   0  0  0  0  0  0  0  0  0  0  0  0
  -18.6370  -26.3870   22.4310 C   0  0  0  0  0  0  0  0  0  0  0  0
  -21.2960  -26.3560   23.1470 C   0  0  0  0  0  3  0  0  0  0  0  0
  -21.1270  -24.9770   22.6490 C   0  0  0  0  0  2  0  0  0  0  0  0
  -20.2670  -24.8240   21.4030 C   0  0  0  0  0  2  0  0  0  0  0  0
  -18.8440  -25.0160   21.8650 C   0  0  0  0  0  2  0  0  0  0  0  0
  -19.7720  -27.1940   22.8060 C   0  0  0  0  0  0  0  0  0  0  0  0
  -19.2460  -28.5630   22.9700 C   0  0  0  0  0  3  0  0  0  0  0  0
  -17.8920  -28.9710   23.0920 C   0  0  0  0  0  3  0  0  0  0  0  0
  -16.8710  -28.0520   22.8910 C   0  0  0  0  0  3  0  0  0  0  0  0
  -17.2660  -26.7770   22.4860 C   0  0  0  0  0  3  0  0  0  0  0  0
  -26.4930  -31.9840   22.9630 C   0  0  0  0  0  3  0  0  0  0  0  0
  -27.5070  -31.2120   24.0070 C   0  0  1  0  0  0  0  0  0  0  0  0
  -26.8410  -30.5010   25.2220 C   0  0  0  0  0  1  0  0  0  0  0  0
  -28.5600  -30.2450   23.4140 C   0  0  0  0  0  1  0  0  0  0  0  0
  -28.4580  -32.2500   24.6630 C   0  0  0  0  0  1  0  0  0  0  0  0
  -26.0010  -33.1590   23.7200 N   0  0  0  0  0  0  0  0  0  0  0  0
  -26.1540  -34.4390   23.3710 C   0  0  0  0  0  0  0  0  0  0  0  0
  -26.6870  -34.7570   22.3080 O   0  0  0  0  0  0  0  0  0  0  0  0
  -25.4420  -32.9680   24.5390 H   0  0  0  0  0  0  0  0  0  0  0  0
  -24.2370  -36.0030   23.8590 C   0  0  0  0  0  1  0  0  0  0  0  0
  -25.6240  -35.5320   24.3270 C   0  0  0  0  0  3  0  0  0  0  0  0
  -27.7620  -36.4160   25.1530 C   0  0  0  0  0  1  0  0  0  0  0  0
  -26.5210  -36.7060   24.4440 N   0  0  0  0  0  0  0  0  0  0  0  0
  -26.0510  -37.4720   24.9160 H   0  0  0  0  0  0  0  0  0  0  0  0
  1 47  1  0
  2  4  1  0
  3  2  1  0
  9 15  1  0
  9 17  1  0
 10 15  1  0
 11 12  1  0
 11 10  1  0
 13 12  1  0
 13 22  1  0
 13 14  1  0
 15 14  1  0
 16  9  2  0
 17 18  1  0
 19 20  2  0
 20 39  1  0
 21 20  1  0
 21 24  1  0
 22 23  1  0
 22 19  1  0
 23 21  2  0
 24 25  1  0
 25 26  2  0
 27 30  1  0
 27 26  1  0
 28 27  2  0
 29 28  1  0
 29 24  2  0
 30 31  1  0
 31 36  2  0
 31 32  1  0
 32 33  2  0
 34 33  1  0
 34 38  1  0
 35 34  2  0
 36 35  1  0
 37 36  1  0
 39 40  1  0
 40 43  1  0
 40 42  1  0
 41 39  2  0
 44 45  1  0
 44 19  1  0
 46 44  1  0
 47 48  1  0
 48 52  1  0
 49 48  1  0
 52 51  1  0
 52 50  1  0
 55 54  1  0
 56 67  2  0
 57 55  1  0
 58 66  1  0
 59 64  1  0
 59 61  1  0
 59 65  1  0
 60 66  1  0
 61 62  1  0
 61 60  1  0
 62 57  1  0
 63 57  1  0
 64 63  1  0
 65 58  1  0
 66 56  1  0
 68 69  1  0
 68 70  1  0
 69 71  1  0
 72 81  2  0
 72 77  1  0
 73 69  1  0
 74 73  1  0
 75 76  1  0
 75 74  1  0
 76 72  1  0
 77 78  2  0
 77 73  1  0
 78 79  1  0
 80 79  2  0
 81 80  1  0
 82 56  1  0
 82 87  1  0
 82 83  1  0
 83 86  1  1
 83 84  1  0
 85 83  1  0
 87 90  1  0
 88 87  1  0
 88 92  1  0
 89 88  2  0
 92 91  1  0
 92 94  1  0
 94 95  1  0
 94 93  1  0
M  ISO  4   9 100  17 100  54 101  55 101
M  END
>  <TORSDO>  (47) 
F 26

>  <SCORE>  (47) 
-11.077

>  <name>  (47) 
46

>  <ligand_id>  (47) 
46

>  <original_smiles>  (47) 
[H]c1c([H])c([H])c2c(c1[H])C([H])([H])C([H])([H])C([H])([H])C2([H])N([H])C(=O)C1([H])N(C(=O)C([H])(N([H])C(=O)C([H])(N([H])C([H])([H])[H])C([H])([H])[H])C(C([H])([H])[H])(C([H])([H])[H])C([H])([H])[H])C([H])([H])c2c([H])c(OC([H])([H])C([H])([H])C([H])(C([H])([H])N([H])C([H])(C([H])([H])[H])C([H])([H])[H])[N+]([H])([H])C([H])([H])C([H])([H])C([H])([H])C([H])([H])N([H])C(=O)N3C([H])([H])C([H])([H])C([H])([H])C([H])(n4nc(-c5c([H])c([H])c(Oc6c([H])c([H])c(F)c([H])c6F)c([H])c5[H])c(C(=O)N([H])[H])c4N([H])[H])C3([H])[H])c([H])c([H])c2C1([H])[H]

>  <smiles>  (47) 
[H]c1c([H])c([H])c2c(c1[H])C([H])([H])C([H])([H])C([H])([H])C2([H])N([H])C(=O)C1([H])N(C(=O)C([H])(N([H])C(=O)C([H])(N([H])C([H])([H])[H])C([H])([H])[H])C(C([H])([H])[H])(C([H])([H])[H])C([H])([H])[H])C([H])([H])c2c([H])c(OC([H])([H])C([H])([H])C([H])(C([H])([H])N([H])C([H])(C([H])([H])[H])C([H])([H])[H])[N+]([H])([H])C([H])([H])C([H])([H])C([H])([H])C([H])([H])N([H])C(=O)N3C([H])([H])C([H])([H])C([H])([H])C([H])(n4nc(-c5c([H])c([H])c(Oc6c([H])c([H])c(F)c([H])c6F)c([H])c5[H])c(C(=O)N([H])[H])c4N([H])[H])C3([H])[H])c([H])c([H])c2C1([H])[H]

$$$$
47:0:0
     RDKit          3D

 95 97  0  0  1  0  0  0  0  0999 V2000
  -31.5360  -14.0760   21.8460 C   0  0  0  0  0  3  0  0  0  0  0  0
  -32.4940  -13.4050   20.7120 C   0  0  0  0  0  2  0  0  0  0  0  0
  -29.9890  -14.5580   21.7350 C   0  0  0  0  0  3  0  0  0  0  0  0
  -30.6210  -13.4360   18.5930 C   0  0  0  0  0  2  0  0  0  0  0  0
  -32.1390  -13.1370   19.1490 C   0  0  0  0  0  3  0  0  0  0  0  0
  -29.1220  -14.4900   20.3130 C   0  0  0  0  0  3  0  0  0  0  0  0
  -27.4880  -16.2230   21.4650 C   0  0  0  0  0  1  0  0  0  0  0  0
  -28.5660  -16.2650   20.4770 N   0  0  0  0  0  2  0  0  0  0  0  0
  -28.5290  -18.1640   19.9320 C   0  0  0  0  0 15  0  0  0  0  0  0
  -28.4900  -20.3770   20.4040 C   0  0  0  0  0 15  0  0  0  0  0  0
  -27.9420  -22.5420   19.9710 C   0  0  0  0  0 15  0  0  0  0  0  0
  -28.1160  -24.5660   20.1600 O   0  0  0  0  0  1  0  0  0  0  0  0
  -24.7930  -31.4870   22.9690 C   0  0  0  0  0  0  0  0  0  0  0  0
  -27.3270  -26.0660   20.0320 C   0  0  0  0  0  0  0  0  0  0  0  0
  -23.7050  -30.1130   21.2550 C   0  0  0  0  0  3  0  0  0  0  0  0
  -25.2150  -28.4620   19.8530 C   0  0  0  0  0  0  0  0  0  0  0  0
  -26.2940  -30.1550   21.2830 C   0  0  0  0  0  2  0  0  0  0  0  0
  -26.3750  -28.6850   20.5930 C   0  0  0  0  0  0  0  0  0  0  0  0
  -27.4060  -27.5360   20.6370 C   0  0  0  0  0  3  0  0  0  0  0  0
  -26.1950  -26.2160   19.1680 C   0  0  0  0  0  3  0  0  0  0  0  0
  -25.2040  -27.2660   19.0980 C   0  0  0  0  0  3  0  0  0  0  0  0
  -24.0230  -29.4580   19.8740 C   0  0  0  0  0  2  0  0  0  0  0  0
  -24.9600  -30.6290   21.8860 N   0  0  0  0  0  0  0  0  0  0  0  0
  -23.6680  -31.7590   23.4290 O   0  0  0  0  0  0  0  0  0  0  0  0
  -22.9500  -29.1120   22.1750 C   0  0  0  0  0  0  0  0  0  0  0  0
  -21.6110  -29.0080   22.0610 N   0  0  0  0  0  0  0  0  0  0  0  0
  -23.5900  -28.4200   22.9700 O   0  0  0  0  0  0  0  0  0  0  0  0
  -21.1400  -29.6130   21.4030 H   0  0  0  0  0  0  0  0  0  0  0  0
  -18.1940  -27.8630   22.6010 C   0  0  0  0  0  0  0  0  0  0  0  0
  -20.7710  -28.0400   22.7860 C   0  0  0  0  0  3  0  0  0  0  0  0
  -20.8070  -26.6590   22.0900 C   0  0  0  0  0  2  0  0  0  0  0  0
  -19.6620  -26.4580   21.0930 C   0  0  0  0  0  2  0  0  0  0  0  0
  -18.3090  -26.5790   21.7960 C   0  0  0  0  0  2  0  0  0  0  0  0
  -19.3500  -28.5580   23.0510 C   0  0  0  0  0  0  0  0  0  0  0  0
  -19.1860  -29.7580   23.7760 C   0  0  0  0  0  3  0  0  0  0  0  0
  -17.9020  -30.2640   24.0510 C   0  0  0  0  0  3  0  0  0  0  0  0
  -16.7630  -29.5680   23.6140 C   0  0  0  0  0  3  0  0  0  0  0  0
  -16.9090  -28.3690   22.8950 C   0  0  0  0  0  3  0  0  0  0  0  0
  -25.9990  -32.1720   23.6850 C   0  0  0  0  0  3  0  0  0  0  0  0
  -26.4710  -31.3940   24.9770 C   0  0  1  0  0  0  0  0  0  0  0  0
  -25.3330  -31.1170   25.9890 C   0  0  0  0  0  1  0  0  0  0  0  0
  -27.1040  -30.0350   24.6130 C   0  0  0  0  0  1  0  0  0  0  0  0
  -27.5760  -32.2000   25.7020 C   0  0  0  0  0  1  0  0  0  0  0  0
  -25.6050  -33.5500   24.0680 N   0  0  0  0  0  0  0  0  0  0  0  0
  -25.9370  -34.6700   23.4140 C   0  0  0  0  0  0  0  0  0  0  0  0
  -26.6530  -34.6600   22.4090 O   0  0  0  0  0  0  0  0  0  0  0  0
  -24.9630  -33.6310   24.8440 H   0  0  0  0  0  0  0  0  0  0  0  0
  -24.1600  -36.4440   23.1390 C   0  0  0  0  0  1  0  0  0  0  0  0
  -25.3960  -36.0170   23.9490 C   0  0  0  0  0  3  0  0  0  0  0  0
  -27.4790  -36.9220   24.8950 C   0  0  0  0  0  1  0  0  0  0  0  0
  -26.3960  -37.1110   23.9320 N   0  0  0  0  0  0  0  0  0  0  0  0
  -25.9540  -38.0060   24.1220 H   0  0  0  0  0  0  0  0  0  0  0  0
  -33.2770  -12.9840   18.1410 C   0  0  0  0  0  2  0  0  0  0  0  0
  -32.9580  -13.6260   16.8320 N   0  0  0  0  0  4  0  0  0  0  0  0
  -32.0440  -13.3470   16.5280 H   0  0  0  0  0  0  0  0  0  0  0  0
  -33.6000  -13.2240   16.1700 H   0  0  0  0  0  0  0  0  0  0  0  0
  -33.1090  -15.1030   16.7010 C   0  0  0  0  0  2  0  0  0  0  0  0
  -31.7930  -15.8630   16.3620 C   0  0  0  0  0  2  0  0  0  0  0  0
  -30.9750  -16.4960   17.5190 C   0  0  0  0  0  2  0  0  0  0  0  0
  -31.1570  -15.7930   18.8680 C   0  0  0  0  0  0  0  0  0  0  0  0
  -29.7950  -12.6700   20.9380 C   0  0  0  0  0  1  0  0  0  0  0  0
  -28.9480  -11.2660   20.1350 C   0  0  0  0  0  2  0  0  0  0  0  0
  -27.9340  -11.4700   18.7720 C   0  0  0  0  0  2  0  0  0  0  0  0
  -27.3450  -13.0550   18.6230 C   0  0  0  0  0  2  0  0  0  0  0  0
  -28.5230  -14.7320   18.1480 C   0  0  0  0  0 15  0  0  0  0  0  0
  -30.1900  -15.0280   19.2780 N   0  0  0  0  0  0  0  0  0  0  0  0
  -32.2710  -15.8230   19.3420 O   0  0  0  0  0  0  0  0  0  0  0  0
  -25.2530  -13.5650   20.1440 C   0  0  0  0  0  3  0  0  0  0  0  0
  -24.2210  -12.7910   20.6350 C   0  0  0  0  0  0  0  0  0  0  0  0
  -24.6690  -11.4440   20.6970 C   0  0  0  0  0  0  0  0  0  0  0  0
  -26.2920  -12.7690   19.7920 N   0  0  0  0  0  0  0  0  0  0  0  0
  -25.9450  -11.4910   20.3320 N   0  0  0  0  0  2  0  0  0  0  0  0
  -23.9240  -10.1640   20.9930 C   0  0  0  0  0  0  0  0  0  0  0  0
  -24.3490   -9.2070   21.9520 C   0  0  0  0  0  3  0  0  0  0  0  0
  -23.5700   -8.0560   22.2470 C   0  0  0  0  0  3  0  0  0  0  0  0
  -22.3380   -7.8280   21.5890 C   0  0  0  0  0  0  0  0  0  0  0  0
  -21.9260   -8.7580   20.6130 C   0  0  0  0  0  3  0  0  0  0  0  0
  -22.7040   -9.8990   20.3200 C   0  0  0  0  0  3  0  0  0  0  0  0
  -21.5280   -6.7240   21.7860 O   0  0  0  0  0  0  0  0  0  0  0  0
  -21.5470   -5.9900   22.9470 C   0  0  0  0  0  0  0  0  0  0  0  0
  -21.3010   -6.5840   24.2080 C   0  0  0  0  0  3  0  0  0  0  0  0
  -21.2690   -5.7880   25.3730 C   0  0  0  0  0  3  0  0  0  0  0  0
  -21.4780   -4.3990   25.2820 C   0  0  0  0  0  0  0  0  0  0  0  0
  -21.7050   -3.8000   24.0330 C   0  0  0  0  0  3  0  0  0  0  0  0
  -21.7360   -4.5930   22.8690 C   0  0  0  0  0  0  0  0  0  0  0  0
  -21.9340   -4.0030   21.6650 F   0  0  0  0  0  0  0  0  0  0  0  0
  -21.4440   -3.6350   26.4020 F   0  0  0  0  0  0  0  0  0  0  0  0
  -22.8270  -13.2680   20.8800 C   0  0  0  0  0  0  0  0  0  0  0  0
  -22.1290  -12.6560   21.8230 N   0  0  0  0  0  0  0  0  0  0  0  0
  -22.3750  -14.2220   20.2510 O   0  0  0  0  0  0  0  0  0  0  0  0
  -22.5190  -11.8860   22.3440 H   0  0  0  0  0  0  0  0  0  0  0  0
  -21.1900  -12.9610   22.0330 H   0  0  0  0  0  0  0  0  0  0  0  0
  -25.3950  -14.9060   19.8400 N   0  0  0  0  0  0  0  0  0  0  0  0
  -26.3510  -15.2600   19.8140 H   0  0  0  0  0  0  0  0  0  0  0  0
  -24.7280  -15.5920   20.1790 H   0  0  0  0  0  0  0  0  0  0  0  0
  2  1  1  0
  3  1  2  0
  4  5  1  0
  4 66  1  0
  5 53  1  0
  5  2  1  0
  6  8  1  0
  6  3  1  0
  8  7  1  0
 13 24  2  0
 14 12  1  0
 14 19  1  0
 15 23  1  0
 15 25  1  0
 16 22  1  0
 16 18  1  0
 17 23  1  0
 18 19  2  0
 18 17  1  0
 20 14  2  0
 21 20  1  0
 21 16  2  0
 22 15  1  0
 23 13  1  0
 25 27  2  0
 26 25  1  0
 28 26  1  0
 29 38  2  0
 29 34  1  0
 30 26  1  0
 30 34  1  0
 31 30  1  0
 32 33  1  0
 32 31  1  0
 33 29  1  0
 34 35  2  0
 35 36  1  0
 37 36  2  0
 38 37  1  0
 39 13  1  0
 39 44  1  0
 39 40  1  0
 40 43  1  1
 40 41  1  0
 42 40  1  0
 44 47  1  0
 45 49  1  0
 45 44  1  0
 46 45  2  0
 49 48  1  0
 51 49  1  0
 51 52  1  0
 51 50  1  0
 54 53  1  0
 55 54  1  0
 56 54  1  0
 57 54  1  0
 58 57  1  0
 58 59  1  0
 59 60  1  0
 60 66  1  0
 60 67  2  0
 62 61  1  0
 63 62  1  0
 64 63  1  0
 64 71  1  0
 66  6  1  0
 68 93  1  0
 68 69  1  0
 69 70  2  0
 69 88  1  0
 70 73  1  0
 71 68  1  0
 71 72  1  0
 72 70  1  0
 73 74  1  0
 74 75  2  0
 76 79  1  0
 76 75  1  0
 77 76  2  0
 78 77  1  0
 78 73  2  0
 79 80  1  0
 80 81  1  0
 81 82  2  0
 83 82  1  0
 83 87  1  0
 84 83  2  0
 85 80  2  0
 85 84  1  0
 86 85  1  0
 88 89  1  0
 89 92  1  0
 89 91  1  0
 90 88  2  0
 93 95  1  0
 94 93  1  0
M  ISO  4  11 101  12 101  59 100  60 100
M  END
>  <TORSDO>  (48) 
F 25

>  <SCORE>  (48) 
-8.916

>  <name>  (48) 
47

>  <ligand_id>  (48) 
47

>  <original_smiles>  (48) 
[H]c1c([H])c([H])c2c(c1[H])C([H])([H])C([H])([H])C([H])([H])C2([H])N([H])C(=O)C1([H])N(C(=O)C([H])(N([H])C(=O)C([H])(N([H])C([H])([H])[H])C([H])([H])[H])C(C([H])([H])[H])(C([H])([H])[H])C([H])([H])[H])C([H])([H])c2c([H])c(OC([H])([H])C([H])([H])C([H])([H])N(c3c([H])c([H])c([H])c(C([H])([H])[N+]([H])([H])C([H])([H])C([H])([H])C([H])([H])C(=O)N4C([H])([H])C([H])([H])C([H])([H])C([H])(n5nc(-c6c([H])c([H])c(Oc7c([H])c([H])c(F)c([H])c7F)c([H])c6[H])c(C(=O)N([H])[H])c5N([H])[H])C4([H])[H])c3[H])C([H])([H])[H])c([H])c([H])c2C1([H])[H]

>  <smiles>  (48) 
[H]c1c([H])c([H])c2c(c1[H])C([H])([H])C([H])([H])C([H])([H])C2([H])N([H])C(=O)C1([H])N(C(=O)C([H])(N([H])C(=O)C([H])(N([H])C([H])([H])[H])C([H])([H])[H])C(C([H])([H])[H])(C([H])([H])[H])C([H])([H])[H])C([H])([H])c2c([H])c(OC([H])([H])C([H])([H])C([H])([H])N(c3c([H])c([H])c([H])c(C([H])([H])[N+]([H])([H])C([H])([H])C([H])([H])C([H])([H])C(=O)N4C([H])([H])C([H])([H])C([H])([H])C([H])(n5nc(-c6c([H])c([H])c(Oc7c([H])c([H])c(F)c([H])c7F)c([H])c6[H])c(C(=O)N([H])[H])c5N([H])[H])C4([H])[H])c3[H])C([H])([H])[H])c([H])c([H])c2C1([H])[H]

$$$$
48:0:0
     RDKit          3D

 88 95  0  0  1  0  0  0  0  0999 V2000
  -29.1580  -24.2720   19.9230 C   0  0  0  0  0  0  0  0  0  0  0  0
  -29.7650  -24.5950   18.5580 C   0  0  0  0  0  1  0  0  0  0  0  0
  -29.3210  -23.1740   20.5700 N   0  0  0  0  0  0  0  0  0  0  0  0
  -28.2910  -25.3560   20.5840 C   0  0  0  0  0  2  0  0  0  0  0  0
  -28.4230  -26.7000   20.0790 O   0  0  0  0  0  0  0  0  0  0  0  0
  -24.6270  -31.8920   23.2190 C   0  0  0  0  0  0  0  0  0  0  0  0
  -27.2600  -27.4460   20.1110 C   0  0  0  0  0  0  0  0  0  0  0  0
  -23.4120  -30.4830   21.5910 C   0  0  0  0  0  3  0  0  0  0  0  0
  -24.8570  -28.9420   20.1750 C   0  0  0  0  0  0  0  0  0  0  0  0
  -25.9440  -30.8400   21.3860 C   0  0  0  0  0  2  0  0  0  0  0  0
  -26.0270  -29.4760   20.7300 C   0  0  0  0  0  0  0  0  0  0  0  0
  -27.2390  -28.7410   20.6860 C   0  0  0  0  0  3  0  0  0  0  0  0
  -26.0660  -26.9310   19.5580 C   0  0  0  0  0  3  0  0  0  0  0  0
  -24.8680  -27.6640   19.6020 C   0  0  0  0  0  3  0  0  0  0  0  0
  -23.6050  -29.7850   20.2220 C   0  0  0  0  0  2  0  0  0  0  0  0
  -24.6770  -31.0900   22.1180 N   0  0  0  0  0  0  0  0  0  0  0  0
  -23.5480  -32.1710   23.7600 O   0  0  0  0  0  0  0  0  0  0  0  0
  -22.7740  -29.4700   22.5690 C   0  0  0  0  0  0  0  0  0  0  0  0
  -21.4530  -29.2770   22.4420 N   0  0  0  0  0  0  0  0  0  0  0  0
  -23.4650  -28.8580   23.3860 O   0  0  0  0  0  0  0  0  0  0  0  0
  -20.9710  -29.8270   21.7460 H   0  0  0  0  0  0  0  0  0  0  0  0
  -18.0800  -28.0570   22.9350 C   0  0  0  0  0  0  0  0  0  0  0  0
  -20.6340  -28.3420   23.2160 C   0  0  0  0  0  3  0  0  0  0  0  0
  -20.7500  -26.9060   22.6560 C   0  0  0  0  0  2  0  0  0  0  0  0
  -19.6570  -26.5620   21.6390 C   0  0  0  0  0  2  0  0  0  0  0  0
  -18.2710  -26.7010   22.2750 C   0  0  0  0  0  2  0  0  0  0  0  0
  -19.1900  -28.8350   23.3580 C   0  0  0  0  0  0  0  0  0  0  0  0
  -18.9590  -30.1060   23.9290 C   0  0  0  0  0  3  0  0  0  0  0  0
  -17.6490  -30.5960   24.0860 C   0  0  0  0  0  3  0  0  0  0  0  0
  -16.5530  -29.8150   23.6790 C   0  0  0  0  0  3  0  0  0  0  0  0
  -16.7700  -28.5480   23.1100 C   0  0  0  0  0  3  0  0  0  0  0  0
  -25.9150  -32.5230   23.8320 C   0  0  0  0  0  3  0  0  0  0  0  0
  -25.6030  -33.9220   24.1560 N   0  0  0  0  0  0  0  0  0  0  0  0
  -25.9330  -34.9750   23.3970 C   0  0  0  0  0  0  0  0  0  0  0  0
  -26.6070  -34.8710   22.3670 O   0  0  0  0  0  0  0  0  0  0  0  0
  -25.0000  -34.0820   24.9500 H   0  0  0  0  0  0  0  0  0  0  0  0
  -24.1940  -36.7630   23.0560 C   0  0  0  0  0  1  0  0  0  0  0  0
  -25.4410  -36.3610   23.8570 C   0  0  0  0  0  3  0  0  0  0  0  0
  -27.5760  -37.2560   24.6700 C   0  0  0  0  0  1  0  0  0  0  0  0
  -26.4670  -37.4190   23.7350 N   0  0  0  0  0  0  0  0  0  0  0  0
  -26.0580  -38.3380   23.8800 H   0  0  0  0  0  0  0  0  0  0  0  0
  -26.4440  -31.7580   25.1090 C   0  0  1  0  0  0  0  0  0  0  0  0
  -25.3600  -31.5150   26.1840 C   0  0  0  0  0  1  0  0  0  0  0  0
  -27.0300  -30.3800   24.7200 C   0  0  0  0  0  1  0  0  0  0  0  0
  -27.5980  -32.5610   25.7570 C   0  0  0  0  0  1  0  0  0  0  0  0
  -30.1850  -22.0880   20.1140 C   0  0  0  0  0  2  0  0  0  0  0  0
  -29.6650  -20.7330   20.6590 C   0  0  0  0  0  2  0  0  0  0  0  0
  -30.5320  -19.4980   20.2990 C   0  0  0  0  0  2  0  0  0  0  0  0
  -29.9100  -18.1380   20.7540 C   0  0  0  0  0  2  0  0  0  0  0  0
  -30.8630  -16.9150   20.6070 C   0  0  0  0  0  2  0  0  0  0  0  0
  -30.7280  -14.4930   20.1150 C   0  0  0  0  0  0  0  0  0  0  0  0
  -30.2520  -12.3840   18.8930 C   0  0  0  0  0  2  0  0  0  0  0  0
  -29.2550  -12.5860   17.7320 C   0  0  0  0  0  2  0  0  0  0  0  0
  -27.8200  -12.3950   18.2460 C   0  0  0  0  0  2  0  0  0  0  0  0
  -27.5430  -13.2580   19.5020 C   0  0  0  0  0  3  0  0  0  0  0  0
  -28.6400  -13.0550   20.5610 C   0  0  0  0  0  2  0  0  0  0  0  0
  -29.9500  -13.3710   19.9560 N   0  0  0  0  0  0  0  0  0  0  0  0
  -31.7650  -14.6210   19.4570 O   0  0  0  0  0  0  0  0  0  0  0  0
  -29.8650  -15.3980   22.2630 C   0  0  0  0  0  1  0  0  0  0  0  0
  -30.2750  -15.5580   20.8560 N   0  0  0  0  0  0  0  0  0  0  0  0
  -25.2270  -13.8780   20.4270 C   0  0  0  0  0  0  0  0  0  0  0  0
  -24.1790  -13.1050   20.8580 C   0  0  0  0  0  0  0  0  0  0  0  0
  -24.6210  -11.7520   20.7530 C   0  0  0  0  0  0  0  0  0  0  0  0
  -26.2280  -12.9880   20.0750 N   0  0  0  0  0  0  0  0  0  0  0  0
  -25.8790  -11.7040   20.3370 N   0  0  0  0  0  0  0  0  0  0  0  0
  -23.9010  -10.4910   20.9590 C   0  0  0  0  0  0  0  0  0  0  0  0
  -24.4020   -9.4850   21.8140 C   0  0  0  0  0  3  0  0  0  0  0  0
  -23.6800   -8.2860   22.0040 C   0  0  0  0  0  3  0  0  0  0  0  0
  -22.4470   -8.0870   21.3390 C   0  0  0  0  0  0  0  0  0  0  0  0
  -21.9690   -9.0820   20.4680 C   0  0  0  0  0  3  0  0  0  0  0  0
  -22.6890  -10.2720   20.2760 C   0  0  0  0  0  3  0  0  0  0  0  0
  -21.6890   -6.9460   21.4430 O   0  0  0  0  0  0  0  0  0  0  0  0
  -21.7350   -6.1510   22.5620 C   0  0  0  0  0  0  0  0  0  0  0  0
  -21.4600   -6.6610   23.8500 C   0  0  0  0  0  3  0  0  0  0  0  0
  -21.4500   -5.7950   24.9620 C   0  0  0  0  0  3  0  0  0  0  0  0
  -21.7060   -4.4220   24.7870 C   0  0  0  0  0  0  0  0  0  0  0  0
  -21.9730   -3.9120   23.5040 C   0  0  0  0  0  3  0  0  0  0  0  0
  -21.9860   -4.7750   22.3940 C   0  0  0  0  0  0  0  0  0  0  0  0
  -22.2230   -4.2760   21.1580 F   0  0  0  0  0  0  0  0  0  0  0  0
  -21.6890   -3.5880   25.8530 F   0  0  0  0  0  0  0  0  0  0  0  0
  -22.8140  -13.5880   21.2480 C   0  0  0  0  0  0  0  0  0  0  0  0
  -22.1460  -12.8710   22.1460 N   0  0  0  0  0  0  0  0  0  0  0  0
  -22.3470  -14.6270   20.7870 O   0  0  0  0  0  0  0  0  0  0  0  0
  -22.5480  -12.0360   22.5440 H   0  0  0  0  0  0  0  0  0  0  0  0
  -21.2230  -13.1600   22.4340 H   0  0  0  0  0  0  0  0  0  0  0  0
  -25.4060  -15.2490   20.2910 N   0  0  0  0  0  0  0  0  0  0  0  0
  -24.6770  -15.9220   20.5050 H   0  0  0  0  0  0  0  0  0  0  0  0
  -26.2570  -15.6820   19.9470 H   0  0  0  0  0  0  0  0  0  0  0  0
  1  3  2  0
  1  4  1  0
  2  1  1  0
  5  7  1  0
  5  4  1  0
  6 17  2  0
  7 12  1  0
  8 16  1  0
  8 18  1  0
  9 15  1  0
  9 11  1  0
 10 16  1  0
 11 10  1  0
 12 11  2  0
 13 14  1  0
 13  7  2  0
 14  9  2  0
 15  8  1  0
 16  6  1  0
 18 20  2  0
 19 18  1  0
 21 19  1  0
 22 31  2  0
 22 27  1  0
 23 19  1  0
 23 27  1  0
 24 23  1  0
 25 26  1  0
 25 24  1  0
 26 22  1  0
 27 28  2  0
 28 29  1  0
 30 29  2  0
 31 30  1  0
 32  6  1  0
 32 33  1  0
 32 42  1  0
 33 36  1  0
 34 38  1  0
 34 33  1  0
 35 34  2  0
 38 37  1  0
 40 38  1  0
 40 41  1  0
 40 39  1  0
 42 45  1  1
 42 43  1  0
 44 42  1  0
 46  3  1  0
 46 47  1  0
 48 47  1  0
 48 49  1  0
 50 49  1  0
 50 60  1  0
 51 60  1  0
 52 57  1  0
 53 54  1  0
 53 52  1  0
 55 54  1  0
 55 64  1  0
 55 56  1  0
 57 51  1  0
 57 56  1  0
 58 51  2  0
 60 59  1  0
 61 62  2  0
 62 81  1  0
 63 62  1  0
 63 66  1  0
 64 65  1  0
 64 61  1  0
 65 63  2  0
 66 67  1  0
 67 68  2  0
 69 72  1  0
 69 68  1  0
 70 69  2  0
 71 70  1  0
 71 66  2  0
 72 73  1  0
 73 74  1  0
 74 75  2  0
 76 75  1  0
 76 80  1  0
 77 76  2  0
 78 73  2  0
 78 77  1  0
 79 78  1  0
 81 82  1  0
 82 85  1  0
 82 84  1  0
 83 81  2  0
 86 61  1  0
 86 87  1  0
 88 86  1  0
M  ISO  4   4 101   5 101  51 100  60 100
M  END
>  <TORSDO>  (49) 
F 22

>  <SCORE>  (49) 
-11.710

>  <name>  (49) 
48

>  <ligand_id>  (49) 
48

>  <original_smiles>  (49) 
[H]c1c([H])c([H])c2c(c1[H])C([H])([H])C([H])([H])C([H])([H])C2([H])N([H])C(=O)C1([H])N(C(=O)C([H])(N([H])C(=O)C([H])(N([H])C([H])([H])[H])C([H])([H])[H])C(C([H])([H])[H])(C([H])([H])[H])C([H])([H])[H])C([H])([H])c2c([H])c(OC([H])([H])C(=NC([H])([H])C([H])([H])C([H])([H])C([H])([H])C([H])([H])N(C(=O)N3C([H])([H])C([H])([H])C([H])([H])C([H])(n4nc(-c5c([H])c([H])c(Oc6c([H])c([H])c(F)c([H])c6F)c([H])c5[H])c(C(=O)N([H])[H])c4N([H])[H])C3([H])[H])C([H])([H])[H])C([H])([H])[H])c([H])c([H])c2C1([H])[H]

>  <smiles>  (49) 
[H]c1c([H])c([H])c2c(c1[H])C([H])([H])C([H])([H])C([H])([H])C2([H])N([H])C(=O)C1([H])N(C(=O)C([H])(N([H])C(=O)C([H])(N([H])C([H])([H])[H])C([H])([H])[H])C(C([H])([H])[H])(C([H])([H])[H])C([H])([H])[H])C([H])([H])c2c([H])c(OC([H])([H])C(=NC([H])([H])C([H])([H])C([H])([H])C([H])([H])C([H])([H])N(C(=O)N3C([H])([H])C([H])([H])C([H])([H])C([H])(n4nc(-c5c([H])c([H])c(Oc6c([H])c([H])c(F)c([H])c6F)c([H])c5[H])c(C(=O)N([H])[H])c4N([H])[H])C3([H])[H])C([H])([H])[H])C([H])([H])[H])c([H])c([H])c2C1([H])[H]

$$$$
49:0:0
     RDKit          3D

 89 97  0  0  1  0  0  0  0  0999 V2000
  -28.4950  -18.9620   20.2760 C   0  0  0  0  0  0  0  0  0  0  0  0
  -28.9660  -17.4520   20.7510 C   0  0  0  0  0  2  0  0  0  0  0  0
  -31.1810  -18.9570   21.5080 C   0  0  0  0  0  2  0  0  0  0  0  0
  -31.4670  -17.5840   20.7780 C   0  0  0  0  0  2  0  0  0  0  0  0
  -30.5810  -20.1840   20.7180 C   0  0  0  0  0  2  0  0  0  0  0  0
  -30.2900  -16.6830   20.1850 C   0  0  2  0  0  0  0  0  0  0  0  0
  -30.3160  -16.9080   18.6470 C   0  0  0  0  0  1  0  0  0  0  0  0
  -29.1140  -20.2130   20.5060 N   0  0  0  0  0  0  0  0  0  0  0  0
  -27.4000  -18.9770   19.7030 O   0  0  0  0  0  0  0  0  0  0  0  0
  -30.7170  -15.0440   20.3090 C   0  0  0  0  0  0  0  0  0  0  0  0
  -30.4630  -12.6870   19.4190 C   0  0  0  0  0  2  0  0  0  0  0  0
  -29.5750  -12.6450   18.1560 C   0  0  0  0  0  2  0  0  0  0  0  0
  -28.1050  -12.4460   18.5570 C   0  0  0  0  0  2  0  0  0  0  0  0
  -27.6760  -13.3710   19.7290 C   0  0  0  0  0  3  0  0  0  0  0  0
  -28.7180  -13.4650   20.8620 C   0  0  0  0  0  2  0  0  0  0  0  0
  -30.0040  -13.8380   20.2610 N   0  0  0  0  0  0  0  0  0  0  0  0
  -31.9310  -14.8820   20.1520 O   0  0  0  0  0  0  0  0  0  0  0  0
  -25.2920  -13.9010   20.4790 C   0  0  0  0  0  0  0  0  0  0  0  0
  -24.2380  -13.1070   20.8420 C   0  0  0  0  0  0  0  0  0  0  0  0
  -24.7220  -11.7630   20.8090 C   0  0  0  0  0  0  0  0  0  0  0  0
  -26.3460  -13.0410   20.2330 N   0  0  0  0  0  0  0  0  0  0  0  0
  -26.0140  -11.7500   20.5000 N   0  0  0  0  0  0  0  0  0  0  0  0
  -24.0060  -10.4930   20.9950 C   0  0  0  0  0  0  0  0  0  0  0  0
  -24.4290   -9.5330   21.9420 C   0  0  0  0  0  3  0  0  0  0  0  0
  -23.7120   -8.3300   22.1160 C   0  0  0  0  0  3  0  0  0  0  0  0
  -22.5540   -8.0760   21.3440 C   0  0  0  0  0  0  0  0  0  0  0  0
  -22.1530   -9.0210   20.3820 C   0  0  0  0  0  3  0  0  0  0  0  0
  -22.8710  -10.2150   20.2070 C   0  0  0  0  0  3  0  0  0  0  0  0
  -21.8110   -6.9240   21.4200 O   0  0  0  0  0  0  0  0  0  0  0  0
  -21.7250   -6.2020   22.5830 C   0  0  0  0  0  0  0  0  0  0  0  0
  -21.2180   -6.7640   23.7750 C   0  0  0  0  0  3  0  0  0  0  0  0
  -21.0820   -5.9660   24.9280 C   0  0  0  0  0  3  0  0  0  0  0  0
  -21.4430   -4.6060   24.8920 C   0  0  0  0  0  0  0  0  0  0  0  0
  -21.9430   -4.0430   23.7050 C   0  0  0  0  0  3  0  0  0  0  0  0
  -22.0810   -4.8390   22.5530 C   0  0  0  0  0  0  0  0  0  0  0  0
  -22.5440   -4.2850   21.4070 F   0  0  0  0  0  0  0  0  0  0  0  0
  -21.3080   -3.8370   25.9980 F   0  0  0  0  0  0  0  0  0  0  0  0
  -22.8340  -13.5640   21.1010 C   0  0  0  0  0  0  0  0  0  0  0  0
  -22.1120  -12.8590   21.9650 N   0  0  0  0  0  0  0  0  0  0  0  0
  -22.3850  -14.5820   20.5750 O   0  0  0  0  0  0  0  0  0  0  0  0
  -22.5000  -12.0420   22.4160 H   0  0  0  0  0  0  0  0  0  0  0  0
  -21.1640  -13.1380   22.1750 H   0  0  0  0  0  0  0  0  0  0  0  0
  -25.4350  -15.2750   20.3060 N   0  0  0  0  0  0  0  0  0  0  0  0
  -24.6600  -15.9160   20.4130 H   0  0  0  0  0  0  0  0  0  0  0  0
  -26.2720  -15.7290   19.9630 H   0  0  0  0  0  0  0  0  0  0  0  0
  -28.4240  -21.6160   20.1440 C   0  0  0  0  0  2  0  0  0  0  0  0
  -28.8200  -23.2110   20.5970 C   0  0  0  0  0  3  0  0  0  0  0  0
  -27.9590  -24.6150   20.1270 C   0  0  0  0  0  3  0  0  0  0  0  0
  -28.2240  -26.1440   20.3940 O   0  0  0  0  0  0  0  0  0  0  0  0
  -24.6160  -31.9310   23.2430 C   0  0  0  0  0  0  0  0  0  0  0  0
  -27.1930  -27.1580   20.2800 C   0  0  0  0  0  0  0  0  0  0  0  0
  -23.4270  -30.5290   21.6030 C   0  0  0  0  0  3  0  0  0  0  0  0
  -24.8830  -28.9350   20.1970 C   0  0  0  0  0  0  0  0  0  0  0  0
  -25.9830  -30.7730   21.4660 C   0  0  0  0  0  2  0  0  0  0  0  0
  -26.0550  -29.3730   20.8210 C   0  0  0  0  0  0  0  0  0  0  0  0
  -27.2100  -28.5000   20.8490 C   0  0  0  0  0  3  0  0  0  0  0  0
  -25.9980  -26.8330   19.6010 C   0  0  0  0  0  3  0  0  0  0  0  0
  -24.8690  -27.6820   19.5680 C   0  0  0  0  0  3  0  0  0  0  0  0
  -23.6590  -29.8400   20.2300 C   0  0  0  0  0  2  0  0  0  0  0  0
  -24.6940  -31.1030   22.1580 N   0  0  0  0  0  0  0  0  0  0  0  0
  -23.5270  -32.2200   23.7620 O   0  0  0  0  0  0  0  0  0  0  0  0
  -22.7370  -29.5330   22.5700 C   0  0  0  0  0  0  0  0  0  0  0  0
  -21.4100  -29.3610   22.4330 N   0  0  0  0  0  0  0  0  0  0  0  0
  -23.4020  -28.9160   23.4090 O   0  0  0  0  0  0  0  0  0  0  0  0
  -20.9290  -29.9010   21.7260 H   0  0  0  0  0  0  0  0  0  0  0  0
  -18.0260  -28.1670   22.9400 C   0  0  0  0  0  0  0  0  0  0  0  0
  -20.5850  -28.4340   23.2120 C   0  0  0  0  0  3  0  0  0  0  0  0
  -20.6890  -26.9960   22.6510 C   0  0  0  0  0  2  0  0  0  0  0  0
  -19.5900  -26.6640   21.6360 C   0  0  0  0  0  2  0  0  0  0  0  0
  -18.2060  -26.8150   22.2730 C   0  0  0  0  0  2  0  0  0  0  0  0
  -19.1440  -28.9340   23.3680 C   0  0  0  0  0  0  0  0  0  0  0  0
  -18.9230  -30.1980   23.9560 C   0  0  0  0  0  3  0  0  0  0  0  0
  -17.6170  -30.6970   24.1220 C   0  0  0  0  0  3  0  0  0  0  0  0
  -16.5150  -29.9310   23.7050 C   0  0  0  0  0  3  0  0  0  0  0  0
  -16.7200  -28.6680   23.1200 C   0  0  0  0  0  3  0  0  0  0  0  0
  -25.8930  -32.5690   23.8710 C   0  0  0  0  0  3  0  0  0  0  0  0
  -26.3890  -31.8160   25.1680 C   0  0  1  0  0  0  0  0  0  0  0  0
  -25.2790  -31.6050   26.2240 C   0  0  0  0  0  1  0  0  0  0  0  0
  -26.9740  -30.4260   24.8210 C   0  0  0  0  0  1  0  0  0  0  0  0
  -27.5310  -32.6200   25.8330 C   0  0  0  0  0  1  0  0  0  0  0  0
  -25.5830  -33.9740   24.1810 N   0  0  0  0  0  0  0  0  0  0  0  0
  -25.9160  -35.0180   23.4120 C   0  0  0  0  0  0  0  0  0  0  0  0
  -26.5840  -34.9030   22.3810 O   0  0  0  0  0  0  0  0  0  0  0  0
  -24.9850  -34.1370   24.9790 H   0  0  0  0  0  0  0  0  0  0  0  0
  -24.1950  -36.8200   23.0470 C   0  0  0  0  0  1  0  0  0  0  0  0
  -25.4390  -36.4160   23.8540 C   0  0  0  0  0  3  0  0  0  0  0  0
  -27.5760  -37.3140   24.6700 C   0  0  0  0  0  1  0  0  0  0  0  0
  -26.4750  -37.4640   23.7210 N   0  0  0  0  0  0  0  0  0  0  0  0
  -26.0690  -38.3870   23.8490 H   0  0  0  0  0  0  0  0  0  0  0  0
  1  8  1  0
  1  2  1  0
  4  3  1  0
  5  3  1  0
  6  7  1  6
  6 10  1  0
  6  2  1  0
  6  4  1  0
  8  5  1  0
  9  1  2  0
 11 16  1  0
 12 13  1  0
 12 11  1  0
 14 13  1  0
 14 21  1  0
 14 15  1  0
 16 10  1  0
 16 15  1  0
 17 10  2  0
 18 19  2  0
 19 38  1  0
 20 19  1  0
 20 23  1  0
 21 18  1  0
 21 22  1  0
 22 20  2  0
 23 24  1  0
 24 25  2  0
 26 29  1  0
 26 25  1  0
 27 26  2  0
 28 27  1  0
 28 23  2  0
 29 30  1  0
 30 31  1  0
 31 32  2  0
 33 32  1  0
 33 37  1  0
 34 33  2  0
 35 30  2  0
 35 34  1  0
 36 35  1  0
 38 39  1  0
 39 42  1  0
 39 41  1  0
 40 38  2  0
 43 44  1  0
 43 18  1  0
 45 43  1  0
 46  8  1  0
 46 47  1  0
 48 49  1  0
 48 47  2  0
 50 61  2  0
 51 49  1  0
 51 56  1  0
 52 60  1  0
 52 62  1  0
 53 59  1  0
 53 55  1  0
 54 60  1  0
 55 56  2  0
 55 54  1  0
 57 51  2  0
 58 57  1  0
 58 53  2  0
 59 52  1  0
 60 50  1  0
 62 64  2  0
 63 62  1  0
 65 63  1  0
 66 75  2  0
 66 71  1  0
 67 63  1  0
 67 71  1  0
 68 67  1  0
 69 70  1  0
 69 68  1  0
 70 66  1  0
 71 72  2  0
 72 73  1  0
 74 73  2  0
 75 74  1  0
 76 50  1  0
 76 81  1  0
 76 77  1  0
 77 80  1  1
 77 78  1  0
 79 77  1  0
 81 84  1  0
 82 86  1  0
 82 81  1  0
 83 82  2  0
 86 85  1  0
 88 89  1  0
 88 86  1  0
 88 87  1  0
M  ISO  4   6 100  10 100  48 101  49 101
M  END
>  <TORSDO>  (50) 
F 19

>  <SCORE>  (50) 
-16.274

>  <name>  (50) 
49

>  <ligand_id>  (50) 
49

>  <original_smiles>  (50) 
[H]c1c([H])c([H])c2c(c1[H])C([H])([H])C([H])([H])C([H])([H])C2([H])N([H])C(=O)C1([H])N(C(=O)C([H])(N([H])C(=O)C([H])(N([H])C([H])([H])[H])C([H])([H])[H])C(C([H])([H])[H])(C([H])([H])[H])C([H])([H])[H])C([H])([H])c2c([H])c(OC([H])([H])C([H])([H])C([H])([H])N3C(=O)C([H])([H])C(C(=O)N4C([H])([H])C([H])([H])C([H])([H])C([H])(n5nc(-c6c([H])c([H])c(Oc7c([H])c([H])c(F)c([H])c7F)c([H])c6[H])c(C(=O)N([H])[H])c5N([H])[H])C4([H])[H])(C([H])([H])[H])C([H])([H])C([H])([H])C3([H])[H])c([H])c([H])c2C1([H])[H]

>  <smiles>  (50) 
[H]c1c([H])c([H])c2c(c1[H])C([H])([H])C([H])([H])C([H])([H])C2([H])N([H])C(=O)C1([H])N(C(=O)C([H])(N([H])C(=O)C([H])(N([H])C([H])([H])[H])C([H])([H])[H])C(C([H])([H])[H])(C([H])([H])[H])C([H])([H])[H])C([H])([H])c2c([H])c(OC([H])([H])C([H])([H])C([H])([H])N3C(=O)C([H])([H])C(C(=O)N4C([H])([H])C([H])([H])C([H])([H])C([H])(n5nc(-c6c([H])c([H])c(Oc7c([H])c([H])c(F)c([H])c7F)c([H])c6[H])c(C(=O)N([H])[H])c5N([H])[H])C4([H])[H])(C([H])([H])[H])C([H])([H])C([H])([H])C3([H])[H])c([H])c([H])c2C1([H])[H]

$$$$
50:0:0
     RDKit          3D

 95104  0  0  1  0  0  0  0  0999 V2000
  -28.7060  -21.6990   21.9960 C   0  0  0  0  0  2  0  0  0  0  0  0
  -29.5400  -23.4260   20.2720 C   0  0  0  0  0  3  0  0  0  0  0  0
  -27.8370  -24.0780   21.8750 C   0  0  0  0  0  3  0  0  0  0  0  0
  -29.4310  -24.6920   19.6480 C   0  0  0  0  0  3  0  0  0  0  0  0
  -27.7390  -25.3440   21.2610 C   0  0  0  0  0  3  0  0  0  0  0  0
  -28.7240  -23.0990   21.3780 C   0  0  0  0  0  0  0  0  0  0  0  0
  -28.5110  -25.6570   20.1170 C   0  0  0  0  0  0  0  0  0  0  0  0
  -28.3900  -26.8670   19.4540 O   0  0  0  0  0  0  0  0  0  0  0  0
  -24.5130  -31.6430   23.0360 C   0  0  0  0  0  0  0  0  0  0  0  0
  -27.2010  -27.5580   19.5420 C   0  0  0  0  0  0  0  0  0  0  0  0
  -23.2880  -30.2880   21.3680 C   0  0  0  0  0  3  0  0  0  0  0  0
  -24.7370  -28.9210   19.7720 C   0  0  0  0  0  0  0  0  0  0  0  0
  -25.7780  -30.7910   21.0670 C   0  0  0  0  0  2  0  0  0  0  0  0
  -25.8970  -29.4700   20.3360 C   0  0  0  0  0  0  0  0  0  0  0  0
  -27.1320  -28.7930   20.2220 C   0  0  0  0  0  3  0  0  0  0  0  0
  -26.0290  -27.0270   18.9620 C   0  0  0  0  0  3  0  0  0  0  0  0
  -24.7950  -27.6970   19.0840 C   0  0  0  0  0  3  0  0  0  0  0  0
  -23.4580  -29.7110   19.9360 C   0  0  0  0  0  2  0  0  0  0  0  0
  -24.5470  -30.9190   21.8830 N   0  0  0  0  0  0  0  0  0  0  0  0
  -23.4510  -31.8250   23.6480 O   0  0  0  0  0  0  0  0  0  0  0  0
  -22.7400  -29.1760   22.2910 C   0  0  0  0  0  0  0  0  0  0  0  0
  -21.4270  -28.9070   22.1880 N   0  0  0  0  0  0  0  0  0  0  0  0
  -23.4890  -28.5600   23.0530 O   0  0  0  0  0  0  0  0  0  0  0  0
  -20.8810  -29.4630   21.5470 H   0  0  0  0  0  0  0  0  0  0  0  0
  -18.1740  -27.4070   22.6540 C   0  0  0  0  0  0  0  0  0  0  0  0
  -20.7000  -27.8760   22.9300 C   0  0  0  0  0  3  0  0  0  0  0  0
  -20.9240  -26.4790   22.3070 C   0  0  0  0  0  2  0  0  0  0  0  0
  -19.8500  -26.0940   21.2850 C   0  0  0  0  0  2  0  0  0  0  0  0
  -18.4630  -26.0980   21.9350 C   0  0  0  0  0  2  0  0  0  0  0  0
  -19.2240  -28.2480   23.1060 C   0  0  0  0  0  0  0  0  0  0  0  0
  -18.9000  -29.4680   23.7390 C   0  0  0  0  0  3  0  0  0  0  0  0
  -17.5580  -29.8490   23.9210 C   0  0  0  0  0  3  0  0  0  0  0  0
  -16.5220  -29.0050   23.4860 C   0  0  0  0  0  3  0  0  0  0  0  0
  -16.8300  -27.7850   22.8570 C   0  0  0  0  0  3  0  0  0  0  0  0
  -25.7990  -32.2980   23.6290 C   0  0  0  0  0  3  0  0  0  0  0  0
  -26.3980  -31.4990   24.8520 C   0  0  1  0  0  0  0  0  0  0  0  0
  -25.3640  -31.1940   25.9600 C   0  0  0  0  0  1  0  0  0  0  0  0
  -26.9980  -30.1530   24.3840 C   0  0  0  0  0  1  0  0  0  0  0  0
  -27.5570  -32.3030   25.4870 C   0  0  0  0  0  1  0  0  0  0  0  0
  -25.4560  -33.6720   24.0220 N   0  0  0  0  0  0  0  0  0  0  0  0
  -25.7730  -34.7660   23.3180 C   0  0  0  0  0  0  0  0  0  0  0  0
  -26.4560  -34.7270   22.2910 O   0  0  0  0  0  0  0  0  0  0  0  0
  -24.8460  -33.7740   24.8200 H   0  0  0  0  0  0  0  0  0  0  0  0
  -24.0110  -36.5370   23.0220 C   0  0  0  0  0  1  0  0  0  0  0  0
  -25.2470  -36.1180   23.8350 C   0  0  0  0  0  3  0  0  0  0  0  0
  -27.3450  -37.0070   24.7500 C   0  0  0  0  0  1  0  0  0  0  0  0
  -26.2590  -37.1970   23.7930 N   0  0  0  0  0  0  0  0  0  0  0  0
  -25.8300  -38.1000   23.9750 H   0  0  0  0  0  0  0  0  0  0  0  0
  -30.0000  -21.0570   22.2360 N   0  0  0  0  0  0  0  0  0  0  0  0
  -30.3200  -21.1700   23.1910 H   0  0  0  0  0  0  0  0  0  0  0  0
  -30.6220  -18.6930   22.5350 C   0  0  0  0  0  3  0  0  0  0  0  0
  -29.8680  -19.4910   20.3810 C   0  0  0  0  0  3  0  0  0  0  0  0
  -30.8280  -17.3990   21.9950 C   0  0  0  0  0  3  0  0  0  0  0  0
  -30.0900  -18.2140   19.8410 C   0  0  0  0  0  3  0  0  0  0  0  0
  -30.1540  -19.7550   21.7270 C   0  0  0  0  0  0  0  0  0  0  0  0
  -30.6010  -17.1340   20.6180 C   0  0  0  0  0  0  0  0  0  0  0  0
  -31.5220  -14.8330   20.6630 C   0  0  0  0  0  0  0  0  0  0  0  0
  -31.2960  -12.5170   19.8900 C   0  0  0  0  0  2  0  0  0  0  0  0
  -30.4560  -12.4580   18.5960 C   0  0  0  0  0  2  0  0  0  0  0  0
  -28.9440  -12.4700   18.8990 C   0  0  0  0  0  2  0  0  0  0  0  0
  -28.5050  -13.4890   19.9870 C   0  0  0  0  0  3  0  0  0  0  0  0
  -29.4670  -13.4770   21.1940 C   0  0  0  0  0  2  0  0  0  0  0  0
  -30.8270  -13.6650   20.6760 N   0  0  0  0  0  0  0  0  0  0  0  0
  -32.7550  -14.8610   20.6770 O   0  0  0  0  0  0  0  0  0  0  0  0
  -30.8930  -15.8500   19.9980 N   0  0  0  0  0  0  0  0  0  0  0  0
  -26.0910  -14.2040   20.5250 C   0  0  0  0  0  0  0  0  0  0  0  0
  -24.9650  -13.4810   20.8180 C   0  0  0  0  0  0  0  0  0  0  0  0
  -25.3710  -12.1120   20.8380 C   0  0  0  0  0  0  0  0  0  0  0  0
  -27.1130  -13.2790   20.3850 N   0  0  0  0  0  0  0  0  0  0  0  0
  -26.6790  -12.0170   20.6390 N   0  0  0  0  0  0  0  0  0  0  0  0
  -24.5820  -10.8810   20.9770 C   0  0  0  0  0  0  0  0  0  0  0  0
  -24.9130   -9.8970   21.9350 C   0  0  0  0  0  3  0  0  0  0  0  0
  -24.1310   -8.7280   22.0570 C   0  0  0  0  0  3  0  0  0  0  0  0
  -23.0040   -8.5350   21.2230 C   0  0  0  0  0  0  0  0  0  0  0  0
  -22.6930   -9.5090   20.2570 C   0  0  0  0  0  3  0  0  0  0  0  0
  -23.4750  -10.6700   20.1310 C   0  0  0  0  0  3  0  0  0  0  0  0
  -22.2010   -7.4210   21.2560 O   0  0  0  0  0  0  0  0  0  0  0  0
  -21.9910   -6.7190   22.4170 C   0  0  0  0  0  0  0  0  0  0  0  0
  -21.4380   -7.3260   23.5650 C   0  0  0  0  0  3  0  0  0  0  0  0
  -21.1740   -6.5520   24.7130 C   0  0  0  0  0  3  0  0  0  0  0  0
  -21.4580   -5.1720   24.7130 C   0  0  0  0  0  0  0  0  0  0  0  0
  -22.0050   -4.5660   23.5690 C   0  0  0  0  0  3  0  0  0  0  0  0
  -22.2690   -5.3370   22.4240 C   0  0  0  0  0  0  0  0  0  0  0  0
  -22.7730   -4.7430   21.3160 F   0  0  0  0  0  0  0  0  0  0  0  0
  -21.2010   -4.4260   25.8140 F   0  0  0  0  0  0  0  0  0  0  0  0
  -23.5700  -14.0170   20.9690 C   0  0  0  0  0  0  0  0  0  0  0  0
  -22.7560  -13.3790   21.8040 N   0  0  0  0  0  0  0  0  0  0  0  0
  -23.2100  -15.0340   20.3810 O   0  0  0  0  0  0  0  0  0  0  0  0
  -23.0560  -12.5560   22.3050 H   0  0  0  0  0  0  0  0  0  0  0  0
  -21.8170  -13.7260   21.9480 H   0  0  0  0  0  0  0  0  0  0  0  0
  -26.3290  -15.5640   20.3420 N   0  0  0  0  0  0  0  0  0  0  0  0
  -25.5910  -16.2580   20.3640 H   0  0  0  0  0  0  0  0  0  0  0  0
  -27.2270  -15.9480   20.0710 H   0  0  0  0  0  0  0  0  0  0  0  0
  -30.0090  -16.0930   17.6200 C   0  0  0  0  0  1  0  0  0  0  0  0
  -31.2300  -15.8950   18.5470 C   0  0  0  0  0  2  0  0  0  0  0  0
  1 49  1  0
  2  6  1  0
  4  7  1  0
  4  2  2  0
  5  3  1  0
  6  3  2  0
  6  1  1  0
  7  5  2  0
  8 10  1  0
  8  7  1  0
  9 20  2  0
 10 15  1  0
 11 19  1  0
 11 21  1  0
 12 18  1  0
 12 14  1  0
 13 19  1  0
 14 13  1  0
 15 14  2  0
 16 17  1  0
 16 10  2  0
 17 12  2  0
 18 11  1  0
 19  9  1  0
 21 23  2  0
 22 21  1  0
 24 22  1  0
 25 34  2  0
 25 30  1  0
 26 22  1  0
 26 30  1  0
 27 26  1  0
 28 29  1  0
 28 27  1  0
 29 25  1  0
 30 31  2  0
 31 32  1  0
 33 32  2  0
 34 33  1  0
 35  9  1  0
 35 40  1  0
 35 36  1  0
 36 39  1  1
 36 37  1  0
 38 36  1  0
 40 43  1  0
 41 45  1  0
 41 40  1  0
 42 41  2  0
 45 44  1  0
 47 45  1  0
 47 48  1  0
 47 46  1  0
 49 50  1  0
 52 55  1  0
 53 51  1  0
 54 52  2  0
 54 56  1  0
 55 49  1  0
 55 51  2  0
 56 53  2  0
 57 63  1  0
 57 64  2  0
 58 63  1  0
 59 60  1  0
 59 58  1  0
 61 60  1  0
 61 69  1  0
 61 62  1  0
 63 62  1  0
 65 56  1  0
 65 57  1  0
 66 67  2  0
 67 68  1  0
 67 86  1  0
 68 71  1  0
 69 66  1  0
 69 70  1  0
 70 68  2  0
 71 72  1  0
 72 73  2  0
 74 77  1  0
 74 73  1  0
 75 74  2  0
 76 75  1  0
 76 71  2  0
 77 78  1  0
 78 83  2  0
 78 79  1  0
 79 80  2  0
 81 80  1  0
 81 85  1  0
 82 81  2  0
 83 82  1  0
 84 83  1  0
 86 87  1  0
 87 90  1  0
 87 89  1  0
 88 86  2  0
 91 92  1  0
 91 66  1  0
 93 91  1  0
 94 95  1  0
 95 65  1  0
M  ISO  4   7 101   8 101  57 100  65 100
M  END
>  <TORSDO>  (51) 
F 20

>  <SCORE>  (51) 
-10.900

>  <name>  (51) 
50

>  <ligand_id>  (51) 
50

>  <original_smiles>  (51) 
[H]c1c([H])c([H])c2c(c1[H])C([H])([H])C([H])([H])C([H])([H])C2([H])N([H])C(=O)C1([H])N(C(=O)C([H])(N([H])C(=O)C([H])(N([H])C([H])([H])[H])C([H])([H])[H])C(C([H])([H])[H])(C([H])([H])[H])C([H])([H])[H])C([H])([H])c2c([H])c(Oc3c([H])c([H])c(C([H])([H])N([H])c4c([H])c([H])c(N(C(=O)N5C([H])([H])C([H])([H])C([H])([H])C([H])(n6nc(-c7c([H])c([H])c(Oc8c([H])c([H])c(F)c([H])c8F)c([H])c7[H])c(C(=O)N([H])[H])c6N([H])[H])C5([H])[H])C([H])([H])C([H])([H])[H])c([H])c4[H])c([H])c3[H])c([H])c([H])c2C1([H])[H]

>  <smiles>  (51) 
[H]c1c([H])c([H])c2c(c1[H])C([H])([H])C([H])([H])C([H])([H])C2([H])N([H])C(=O)C1([H])N(C(=O)C([H])(N([H])C(=O)C([H])(N([H])C([H])([H])[H])C([H])([H])[H])C(C([H])([H])[H])(C([H])([H])[H])C([H])([H])[H])C([H])([H])c2c([H])c(Oc3c([H])c([H])c(C([H])([H])N([H])c4c([H])c([H])c(N(C(=O)N5C([H])([H])C([H])([H])C([H])([H])C([H])(n6nc(-c7c([H])c([H])c(Oc8c([H])c([H])c(F)c([H])c8F)c([H])c7[H])c(C(=O)N([H])[H])c6N([H])[H])C5([H])[H])C([H])([H])C([H])([H])[H])c([H])c4[H])c([H])c3[H])c([H])c([H])c2C1([H])[H]

$$$$
51:0:0
     RDKit          3D

 97105  0  0  1  0  0  0  0  0999 V2000
  -30.8150  -23.5520   21.6670 C   0  0  0  0  0  3  0  0  0  0  0  0
  -31.6550  -21.1480   21.4790 C   0  0  0  0  0  3  0  0  0  0  0  0
  -31.5010  -19.8060   21.0750 C   0  0  0  0  0  3  0  0  0  0  0  0
  -29.6010  -21.7340   20.3250 C   0  0  0  0  0  3  0  0  0  0  0  0
  -30.6980  -22.1220   21.1250 C   0  0  0  0  0  0  0  0  0  0  0  0
  -29.4370  -20.3910   19.9160 C   0  0  0  0  0  0  0  0  0  0  0  0
  -30.3860  -19.4090   20.3030 C   0  0  0  0  0  0  0  0  0  0  0  0
  -28.5470  -19.9270   17.5810 C   0  0  0  0  0  1  0  0  0  0  0  0
  -28.2170  -20.0380   19.0740 C   0  0  0  0  0  2  0  0  0  0  0  0
  -30.1880  -18.0740   19.9120 N   0  0  0  0  0  0  0  0  0  0  0  0
  -29.2980  -17.8300   19.4870 H   0  0  0  0  0  0  0  0  0  0  0  0
  -31.1820  -17.0150   20.1050 C   0  0  0  0  0  2  0  0  0  0  0  0
  -30.5080  -15.6750   20.4840 C   0  0  0  0  0  2  0  0  0  0  0  0
  -31.1620  -14.4200   19.8650 C   0  0  0  0  0  0  0  0  0  0  0  0
  -30.8500  -12.1050   19.0490 C   0  0  0  0  0  2  0  0  0  0  0  0
  -29.8670  -12.1110   17.8610 C   0  0  0  0  0  2  0  0  0  0  0  0
  -28.4060  -12.0500   18.3500 C   0  0  0  0  0  2  0  0  0  0  0  0
  -28.1070  -13.0840   19.4670 C   0  0  0  0  0  3  0  0  0  0  0  0
  -29.1930  -13.0250   20.5650 C   0  0  0  0  0  2  0  0  0  0  0  0
  -30.5000  -13.2330   19.9230 N   0  0  0  0  0  0  0  0  0  0  0  0
  -32.2360  -14.5450   19.2650 O   0  0  0  0  0  0  0  0  0  0  0  0
  -25.8070  -13.8560   20.3370 C   0  0  0  0  0  0  0  0  0  0  0  0
  -24.7050  -13.1560   20.7470 C   0  0  0  0  0  0  0  0  0  0  0  0
  -25.0550  -11.7740   20.6480 C   0  0  0  0  0  0  0  0  0  0  0  0
  -26.7650  -12.9040   20.0190 N   0  0  0  0  0  0  0  0  0  0  0  0
  -26.3170  -11.6450   20.2600 N   0  0  0  0  0  0  0  0  0  0  0  0
  -24.2440  -10.5650   20.8450 C   0  0  0  0  0  0  0  0  0  0  0  0
  -24.6350   -9.5540   21.7500 C   0  0  0  0  0  3  0  0  0  0  0  0
  -23.8310   -8.4100   21.9370 C   0  0  0  0  0  3  0  0  0  0  0  0
  -22.6190   -8.2690   21.2170 C   0  0  0  0  0  0  0  0  0  0  0  0
  -22.2470   -9.2690   20.3000 C   0  0  0  0  0  3  0  0  0  0  0  0
  -23.0510  -10.4050   20.1130 C   0  0  0  0  0  3  0  0  0  0  0  0
  -21.7870   -7.1800   21.3140 O   0  0  0  0  0  0  0  0  0  0  0  0
  -21.6840   -6.4550   22.4740 C   0  0  0  0  0  0  0  0  0  0  0  0
  -21.3090   -7.0530   23.6960 C   0  0  0  0  0  3  0  0  0  0  0  0
  -21.1480   -6.2570   24.8480 C   0  0  0  0  0  3  0  0  0  0  0  0
  -21.3520   -4.8670   24.7780 C   0  0  0  0  0  0  0  0  0  0  0  0
  -21.7190   -4.2690   23.5600 C   0  0  0  0  0  3  0  0  0  0  0  0
  -21.8820   -5.0610   22.4100 C   0  0  0  0  0  0  0  0  0  0  0  0
  -22.2160   -4.4770   21.2350 F   0  0  0  0  0  0  0  0  0  0  0  0
  -21.1870   -4.1010   25.8820 F   0  0  0  0  0  0  0  0  0  0  0  0
  -23.3680  -13.7290   21.1210 C   0  0  0  0  0  0  0  0  0  0  0  0
  -22.6510  -13.0710   22.0260 N   0  0  0  0  0  0  0  0  0  0  0  0
  -22.9720  -14.7930   20.6460 O   0  0  0  0  0  0  0  0  0  0  0  0
  -22.9850  -12.2090   22.4290 H   0  0  0  0  0  0  0  0  0  0  0  0
  -21.7550  -13.4360   22.3190 H   0  0  0  0  0  0  0  0  0  0  0  0
  -26.0700  -15.2150   20.1890 N   0  0  0  0  0  0  0  0  0  0  0  0
  -25.3680  -15.9250   20.3670 H   0  0  0  0  0  0  0  0  0  0  0  0
  -26.9370  -15.5960   19.8310 H   0  0  0  0  0  0  0  0  0  0  0  0
  -30.2890  -24.5520   20.7080 N   0  0  0  0  0  4  0  0  0  0  0  0
  -30.4260  -24.1950   19.7740 H   0  0  0  0  0  0  0  0  0  0  0  0
  -29.2950  -24.6370   20.8440 H   0  0  0  0  0  0  0  0  0  0  0  0
  -30.9290  -25.8920   20.7830 C   0  0  0  0  0  2  0  0  0  0  0  0
  -29.9050  -27.0350   20.8460 C   0  0  0  0  0  2  0  0  0  0  0  0
  -28.9080  -26.8280   19.8520 O   0  0  0  0  0  0  0  0  0  0  0  0
  -24.8770  -31.7250   23.1770 C   0  0  0  0  0  0  0  0  0  0  0  0
  -27.7490  -27.5680   19.9310 C   0  0  0  0  0  0  0  0  0  0  0  0
  -23.7460  -30.3600   21.4480 C   0  0  0  0  0  3  0  0  0  0  0  0
  -25.2810  -28.9500   19.9760 C   0  0  0  0  0  0  0  0  0  0  0  0
  -26.2530  -30.8330   21.3040 C   0  0  0  0  0  2  0  0  0  0  0  0
  -26.4030  -29.4970   20.6100 C   0  0  0  0  0  0  0  0  0  0  0  0
  -27.6370  -28.8140   20.5930 C   0  0  0  0  0  3  0  0  0  0  0  0
  -26.6110  -27.0320   19.2930 C   0  0  0  0  0  3  0  0  0  0  0  0
  -25.3770  -27.7120   19.3160 C   0  0  0  0  0  3  0  0  0  0  0  0
  -24.0010  -29.7520   20.0410 C   0  0  0  0  0  2  0  0  0  0  0  0
  -24.9750  -30.9840   22.0370 N   0  0  0  0  0  0  0  0  0  0  0  0
  -23.7800  -31.9310   23.7140 O   0  0  0  0  0  0  0  0  0  0  0  0
  -23.1220  -29.2710   22.3470 C   0  0  0  0  0  0  0  0  0  0  0  0
  -21.8010  -29.0740   22.2160 N   0  0  0  0  0  0  0  0  0  0  0  0
  -23.8220  -28.6080   23.1180 O   0  0  0  0  0  0  0  0  0  0  0  0
  -21.2960  -29.6650   21.5700 H   0  0  0  0  0  0  0  0  0  0  0  0
  -18.4450  -27.8210   22.6780 C   0  0  0  0  0  0  0  0  0  0  0  0
  -21.0050  -28.0760   22.9290 C   0  0  0  0  0  3  0  0  0  0  0  0
  -21.1050  -26.6910   22.2480 C   0  0  0  0  0  2  0  0  0  0  0  0
  -19.9900  -26.4350   21.2310 C   0  0  0  0  0  2  0  0  0  0  0  0
  -18.6180  -26.5240   21.9040 C   0  0  0  0  0  2  0  0  0  0  0  0
  -19.5650  -28.5580   23.1440 C   0  0  0  0  0  0  0  0  0  0  0  0
  -19.3490  -29.7750   23.8260 C   0  0  0  0  0  3  0  0  0  0  0  0
  -18.0450  -30.2550   24.0460 C   0  0  0  0  0  3  0  0  0  0  0  0
  -16.9380  -29.5140   23.5970 C   0  0  0  0  0  3  0  0  0  0  0  0
  -17.1390  -28.2980   22.9190 C   0  0  0  0  0  3  0  0  0  0  0  0
  -26.1320  -32.3690   23.8470 C   0  0  0  0  0  3  0  0  0  0  0  0
  -26.6280  -31.5850   25.1230 C   0  0  1  0  0  0  0  0  0  0  0  0
  -25.5140  -31.3210   26.1630 C   0  0  0  0  0  1  0  0  0  0  0  0
  -27.2330  -30.2180   24.7210 C   0  0  0  0  0  1  0  0  0  0  0  0
  -27.7560  -32.3800   25.8220 C   0  0  0  0  0  1  0  0  0  0  0  0
  -25.7890  -33.7550   24.1870 N   0  0  0  0  0  0  0  0  0  0  0  0
  -26.1400  -34.8250   23.4590 C   0  0  0  0  0  0  0  0  0  0  0  0
  -26.8560  -34.7480   22.4570 O   0  0  0  0  0  0  0  0  0  0  0  0
  -25.1590  -33.8890   24.9640 H   0  0  0  0  0  0  0  0  0  0  0  0
  -24.4010  -36.5950   23.0560 C   0  0  0  0  0  1  0  0  0  0  0  0
  -25.6110  -36.1970   23.9160 C   0  0  0  0  0  3  0  0  0  0  0  0
  -27.6930  -37.0980   24.8550 C   0  0  0  0  0  1  0  0  0  0  0  0
  -26.6310  -37.2670   23.8670 N   0  0  0  0  0  0  0  0  0  0  0  0
  -26.2050  -38.1780   24.0140 H   0  0  0  0  0  0  0  0  0  0  0  0
  -30.3500  -22.4910   23.9830 C   0  0  0  0  0  1  0  0  0  0  0  0
  -30.1470  -23.7010   23.0560 C   0  0  0  0  0  2  0  0  0  0  0  0
  1 97  1  0
  3  2  2  0
  4  5  2  0
  5  2  1  0
  5  1  1  0
  6  7  2  0
  6  4  1  0
  7  3  1  0
  8  9  1  0
  9  6  1  0
 10 12  1  0
 10  7  1  0
 11 10  1  0
 12 13  1  0
 14 20  1  0
 14 13  1  0
 15 20  1  0
 16 17  1  0
 16 15  1  0
 18 17  1  0
 18 25  1  0
 18 19  1  0
 20 19  1  0
 21 14  2  0
 22 23  2  0
 23 42  1  0
 24 23  1  0
 24 27  1  0
 25 26  1  0
 25 22  1  0
 26 24  2  0
 27 28  1  0
 28 29  2  0
 30 33  1  0
 30 29  1  0
 31 30  2  0
 32 31  1  0
 32 27  2  0
 33 34  1  0
 34 35  1  0
 35 36  2  0
 37 36  1  0
 37 41  1  0
 38 37  2  0
 39 34  2  0
 39 38  1  0
 40 39  1  0
 42 43  1  0
 43 46  1  0
 43 45  1  0
 44 42  2  0
 47 22  1  0
 47 48  1  0
 49 47  1  0
 50 53  1  0
 50 52  1  0
 50  1  1  0
 51 50  1  0
 53 54  1  0
 55 57  1  0
 55 54  1  0
 56 67  2  0
 57 62  1  0
 58 66  1  0
 58 68  1  0
 59 65  1  0
 59 61  1  0
 60 66  1  0
 61 60  1  0
 62 61  2  0
 63 64  1  0
 63 57  2  0
 64 59  2  0
 65 58  1  0
 66 56  1  0
 68 70  2  0
 69 68  1  0
 71 69  1  0
 72 81  2  0
 72 77  1  0
 73 69  1  0
 73 77  1  0
 74 73  1  0
 75 76  1  0
 75 74  1  0
 76 72  1  0
 77 78  2  0
 78 79  1  0
 80 79  2  0
 81 80  1  0
 82 56  1  0
 82 87  1  0
 82 83  1  0
 83 86  1  1
 83 84  1  0
 85 83  1  0
 87 90  1  0
 88 92  1  0
 88 87  1  0
 89 88  2  0
 92 91  1  0
 94 92  1  0
 94 95  1  0
 94 93  1  0
 97 96  1  0
M  ISO  4  13 100  14 100  54 101  55 101
M  END
>  <TORSDO>  (52) 
F 25

>  <SCORE>  (52) 
-11.531

>  <name>  (52) 
51

>  <ligand_id>  (52) 
51

>  <original_smiles>  (52) 
[H]c1c([H])c([H])c2c(c1[H])C([H])([H])C([H])([H])C([H])([H])C2([H])N([H])C(=O)C1([H])N(C(=O)C([H])(N([H])C(=O)C([H])(N([H])C([H])([H])[H])C([H])([H])[H])C(C([H])([H])[H])(C([H])([H])[H])C([H])([H])[H])C([H])([H])c2c([H])c(OC([H])([H])C([H])([H])[N+]([H])([H])C([H])(c3c([H])c([H])c(N([H])C([H])([H])C([H])([H])C(=O)N4C([H])([H])C([H])([H])C([H])([H])C([H])(n5nc(-c6c([H])c([H])c(Oc7c([H])c([H])c(F)c([H])c7F)c([H])c6[H])c(C(=O)N([H])[H])c5N([H])[H])C4([H])[H])c(C([H])([H])C([H])([H])[H])c3[H])C([H])([H])C([H])([H])[H])c([H])c([H])c2C1([H])[H]

>  <smiles>  (52) 
[H]c1c([H])c([H])c2c(c1[H])C([H])([H])C([H])([H])C([H])([H])C2([H])N([H])C(=O)C1([H])N(C(=O)C([H])(N([H])C(=O)C([H])(N([H])C([H])([H])[H])C([H])([H])[H])C(C([H])([H])[H])(C([H])([H])[H])C([H])([H])[H])C([H])([H])c2c([H])c(OC([H])([H])C([H])([H])[N+]([H])([H])C([H])(c3c([H])c([H])c(N([H])C([H])([H])C([H])([H])C(=O)N4C([H])([H])C([H])([H])C([H])([H])C([H])(n5nc(-c6c([H])c([H])c(Oc7c([H])c([H])c(F)c([H])c7F)c([H])c6[H])c(C(=O)N([H])[H])c5N([H])[H])C4([H])[H])c(C([H])([H])C([H])([H])[H])c3[H])C([H])([H])C([H])([H])[H])c([H])c([H])c2C1([H])[H]

$$$$
52:0:0
     RDKit          3D

 87 95  0  0  1  0  0  0  0  0999 V2000
  -28.6680  -21.7120   20.2170 C   0  0  0  0  0  2  0  0  0  0  0  0
  -29.6850  -20.5270   20.0560 N   0  0  0  0  0  0  0  0  0  0  0  0
  -30.6200  -20.8230   19.7780 H   0  0  0  0  0  0  0  0  0  0  0  0
  -30.3430  -17.9050   19.9180 C   0  0  0  0  0  3  0  0  0  0  0  0
  -28.4940  -16.6550   20.4320 C   0  0  0  0  0  3  0  0  0  0  0  0
  -29.8170  -16.4930   20.0680 C   0  0  0  0  0  0  0  0  0  0  0  0
  -29.4800  -19.0380   20.1140 C   0  0  0  0  0  0  0  0  0  0  0  0
  -27.9290  -18.3410   20.5170 S   0  0  0  0  0  0  0  0  0  0  0  0
  -30.5860  -15.0490   19.8920 C   0  0  0  0  0  0  0  0  0  0  0  0
  -30.4630  -12.6630   19.0210 C   0  0  0  0  0  2  0  0  0  0  0  0
  -29.4770  -12.5770   17.8320 C   0  0  0  0  0  2  0  0  0  0  0  0
  -28.0400  -12.3350   18.3350 C   0  0  0  0  0  2  0  0  0  0  0  0
  -27.6690  -13.2670   19.5190 C   0  0  0  0  0  3  0  0  0  0  0  0
  -28.7830  -13.3100   20.5870 C   0  0  0  0  0  2  0  0  0  0  0  0
  -30.0080  -13.7710   19.9160 N   0  0  0  0  0  0  0  0  0  0  0  0
  -31.7680  -15.0800   19.5290 O   0  0  0  0  0  0  0  0  0  0  0  0
  -25.3280  -13.7930   20.4110 C   0  0  0  0  0  0  0  0  0  0  0  0
  -24.3020  -12.9960   20.8360 C   0  0  0  0  0  0  0  0  0  0  0  0
  -24.7810  -11.6530   20.7470 C   0  0  0  0  0  0  0  0  0  0  0  0
  -26.3680  -12.9370   20.0890 N   0  0  0  0  0  0  0  0  0  0  0  0
  -26.0510  -11.6420   20.3560 N   0  0  0  0  0  0  0  0  0  0  0  0
  -24.0810  -10.3780   20.9530 C   0  0  0  0  0  0  0  0  0  0  0  0
  -24.5130   -9.4450   21.9210 C   0  0  0  0  0  3  0  0  0  0  0  0
  -23.8090   -8.2370   22.1160 C   0  0  0  0  0  3  0  0  0  0  0  0
  -22.6580   -7.9530   21.3410 C   0  0  0  0  0  0  0  0  0  0  0  0
  -22.2460   -8.8740   20.3630 C   0  0  0  0  0  3  0  0  0  0  0  0
  -22.9510  -10.0740   20.1670 C   0  0  0  0  0  3  0  0  0  0  0  0
  -21.9300   -6.7910   21.4430 O   0  0  0  0  0  0  0  0  0  0  0  0
  -21.7780   -6.1370   22.6380 C   0  0  0  0  0  0  0  0  0  0  0  0
  -21.1980   -6.7650   23.7620 C   0  0  0  0  0  3  0  0  0  0  0  0
  -20.9970   -6.0340   24.9500 C   0  0  0  0  0  3  0  0  0  0  0  0
  -21.3680   -4.6790   25.0160 C   0  0  0  0  0  0  0  0  0  0  0  0
  -21.9410   -4.0500   23.8950 C   0  0  0  0  0  3  0  0  0  0  0  0
  -22.1440   -4.7770   22.7100 C   0  0  0  0  0  0  0  0  0  0  0  0
  -22.6770   -4.1620   21.6270 F   0  0  0  0  0  0  0  0  0  0  0  0
  -21.1690   -3.9740   26.1540 F   0  0  0  0  0  0  0  0  0  0  0  0
  -22.9190  -13.4500   21.2020 C   0  0  0  0  0  0  0  0  0  0  0  0
  -22.2560  -12.7320   22.1020 N   0  0  0  0  0  0  0  0  0  0  0  0
  -22.4360  -14.4770   20.7260 O   0  0  0  0  0  0  0  0  0  0  0  0
  -22.6600  -11.9030   22.5120 H   0  0  0  0  0  0  0  0  0  0  0  0
  -21.3330  -13.0210   22.3910 H   0  0  0  0  0  0  0  0  0  0  0  0
  -25.4560  -15.1700   20.2420 N   0  0  0  0  0  0  0  0  0  0  0  0
  -24.6730  -15.7930   20.4060 H   0  0  0  0  0  0  0  0  0  0  0  0
  -26.2160  -15.6200   19.7510 H   0  0  0  0  0  0  0  0  0  0  0  0
  -29.0870  -23.3600   20.1580 C   0  0  0  0  0  3  0  0  0  0  0  0
  -28.0020  -24.6670   20.1440 C   0  0  0  0  0  3  0  0  0  0  0  0
  -28.2750  -26.2100   20.1890 O   0  0  0  0  0  0  0  0  0  0  0  0
  -24.6340  -31.8850   23.2320 C   0  0  0  0  0  0  0  0  0  0  0  0
  -27.2090  -27.1910   20.1530 C   0  0  0  0  0  0  0  0  0  0  0  0
  -23.4290  -30.5050   21.5840 C   0  0  0  0  0  3  0  0  0  0  0  0
  -24.8740  -28.9380   20.1460 C   0  0  0  0  0  0  0  0  0  0  0  0
  -25.9830  -30.7700   21.4110 C   0  0  0  0  0  2  0  0  0  0  0  0
  -26.0580  -29.3810   20.7500 C   0  0  0  0  0  0  0  0  0  0  0  0
  -27.2260  -28.5280   20.7320 C   0  0  0  0  0  3  0  0  0  0  0  0
  -25.9950  -26.8520   19.5160 C   0  0  0  0  0  3  0  0  0  0  0  0
  -24.8560  -27.6880   19.5120 C   0  0  0  0  0  3  0  0  0  0  0  0
  -23.6450  -29.8330   20.2020 C   0  0  0  0  0  2  0  0  0  0  0  0
  -24.7030  -31.0730   22.1320 N   0  0  0  0  0  0  0  0  0  0  0  0
  -23.5490  -32.1660   23.7650 O   0  0  0  0  0  0  0  0  0  0  0  0
  -22.7500  -29.4920   22.5380 C   0  0  0  0  0  0  0  0  0  0  0  0
  -21.4210  -29.3210   22.4070 N   0  0  0  0  0  0  0  0  0  0  0  0
  -23.4200  -28.8610   23.3600 O   0  0  0  0  0  0  0  0  0  0  0  0
  -20.9370  -29.8830   21.7220 H   0  0  0  0  0  0  0  0  0  0  0  0
  -18.0410  -28.1220   22.9100 C   0  0  0  0  0  0  0  0  0  0  0  0
  -20.6020  -28.3760   23.1700 C   0  0  0  0  0  3  0  0  0  0  0  0
  -20.6970  -26.9510   22.5770 C   0  0  0  0  0  2  0  0  0  0  0  0
  -19.5910  -26.6420   21.5640 C   0  0  0  0  0  2  0  0  0  0  0  0
  -18.2120  -26.7820   22.2160 C   0  0  0  0  0  2  0  0  0  0  0  0
  -19.1630  -28.8780   23.3440 C   0  0  0  0  0  0  0  0  0  0  0  0
  -18.9490  -30.1310   23.9570 C   0  0  0  0  0  3  0  0  0  0  0  0
  -17.6460  -30.6310   24.1370 C   0  0  0  0  0  3  0  0  0  0  0  0
  -16.5390  -29.8750   23.7160 C   0  0  0  0  0  3  0  0  0  0  0  0
  -16.7370  -28.6220   23.1100 C   0  0  0  0  0  3  0  0  0  0  0  0
  -25.9120  -32.5130   23.8630 C   0  0  0  0  0  3  0  0  0  0  0  0
  -26.4190  -31.7350   25.1390 C   0  0  1  0  0  0  0  0  0  0  0  0
  -25.3200  -31.4970   26.2000 C   0  0  0  0  0  1  0  0  0  0  0  0
  -26.9990  -30.3570   24.7460 C   0  0  0  0  0  1  0  0  0  0  0  0
  -27.5710  -32.5210   25.8100 C   0  0  0  0  0  1  0  0  0  0  0  0
  -25.6050  -33.9110   24.2050 N   0  0  0  0  0  0  0  0  0  0  0  0
  -25.9130  -34.9700   23.4440 C   0  0  0  0  0  0  0  0  0  0  0  0
  -26.5540  -34.8720   22.3950 O   0  0  0  0  0  0  0  0  0  0  0  0
  -25.0290  -34.0590   25.0210 H   0  0  0  0  0  0  0  0  0  0  0  0
  -24.1550  -36.7510   23.1690 C   0  0  0  0  0  1  0  0  0  0  0  0
  -25.4360  -36.3570   23.9200 C   0  0  0  0  0  3  0  0  0  0  0  0
  -27.5980  -37.2660   24.6530 C   0  0  0  0  0  1  0  0  0  0  0  0
  -26.4550  -37.4180   23.7560 N   0  0  0  0  0  0  0  0  0  0  0  0
  -26.0480  -38.3370   23.9150 H   0  0  0  0  0  0  0  0  0  0  0  0
  2  7  1  0
  2  1  1  0
  3  2  1  0
  4  6  1  0
  4  7  2  0
  5  8  1  0
  6  5  2  0
  7  8  1  0
  9 15  1  0
  9  6  1  0
 10 15  1  0
 11 12  1  0
 11 10  1  0
 13 12  1  0
 13 20  1  0
 13 14  1  0
 15 14  1  0
 16  9  2  0
 17 18  2  0
 18 37  1  0
 19 18  1  0
 19 22  1  0
 20 21  1  0
 20 17  1  0
 21 19  2  0
 22 23  1  0
 23 24  2  0
 25 28  1  0
 25 24  1  0
 26 25  2  0
 27 26  1  0
 27 22  2  0
 28 29  1  0
 29 34  2  0
 29 30  1  0
 30 31  2  0
 31 32  1  0
 32 36  1  0
 33 32  2  0
 34 33  1  0
 35 34  1  0
 37 38  1  0
 38 41  1  0
 38 40  1  0
 39 37  2  0
 42 43  1  0
 42 17  1  0
 44 42  1  0
 45  1  1  0
 46 45  2  0
 46 47  1  0
 48 59  2  0
 49 47  1  0
 49 54  1  0
 50 58  1  0
 50 60  1  0
 51 57  1  0
 51 53  1  0
 52 58  1  0
 53 52  1  0
 54 53  2  0
 55 49  2  0
 56 55  1  0
 56 51  2  0
 57 50  1  0
 58 48  1  0
 60 62  2  0
 61 60  1  0
 63 61  1  0
 64 73  2  0
 64 69  1  0
 65 61  1  0
 65 69  1  0
 66 65  1  0
 67 68  1  0
 67 66  1  0
 68 64  1  0
 69 70  2  0
 70 71  1  0
 72 71  2  0
 73 72  1  0
 74 48  1  0
 74 79  1  0
 74 75  1  0
 75 78  1  1
 75 76  1  0
 77 75  1  0
 79 82  1  0
 80 84  1  0
 80 79  1  0
 81 80  2  0
 84 83  1  0
 86 87  1  0
 86 84  1  0
 86 85  1  0
M  ISO  4   6 100   9 100  46 101  47 101
M  END
>  <TORSDO>  (53) 
F 20

>  <SCORE>  (53) 
-14.454

>  <name>  (53) 
52

>  <ligand_id>  (53) 
52

>  <original_smiles>  (53) 
[H]c1sc(N([H])C([H])([H])C([H])([H])C([H])([H])Oc2c([H])c([H])c3c(c2[H])C([H])([H])N(C(=O)C([H])(N([H])C(=O)C([H])(N([H])C([H])([H])[H])C([H])([H])[H])C(C([H])([H])[H])(C([H])([H])[H])C([H])([H])[H])C([H])(C(=O)N([H])C2([H])c4c([H])c([H])c([H])c([H])c4C([H])([H])C([H])([H])C2([H])[H])C3([H])[H])c([H])c1C(=O)N1C([H])([H])C([H])([H])C([H])([H])C([H])(n2nc(-c3c([H])c([H])c(Oc4c([H])c([H])c(F)c([H])c4F)c([H])c3[H])c(C(=O)N([H])[H])c2N([H])[H])C1([H])[H]

>  <smiles>  (53) 
[H]c1sc(N([H])C([H])([H])C([H])([H])C([H])([H])Oc2c([H])c([H])c3c(c2[H])C([H])([H])N(C(=O)C([H])(N([H])C(=O)C([H])(N([H])C([H])([H])[H])C([H])([H])[H])C(C([H])([H])[H])(C([H])([H])[H])C([H])([H])[H])C([H])(C(=O)N([H])C2([H])c4c([H])c([H])c([H])c([H])c4C([H])([H])C([H])([H])C2([H])[H])C3([H])[H])c([H])c1C(=O)N1C([H])([H])C([H])([H])C([H])([H])C([H])(n2nc(-c3c([H])c([H])c(Oc4c([H])c([H])c(F)c([H])c4F)c([H])c3[H])c(C(=O)N([H])[H])c2N([H])[H])C1([H])[H]

$$$$
53:0:0
     RDKit          3D

 96104  0  0  1  0  0  0  0  0999 V2000
  -29.3630  -20.4080   23.2350 C   0  0  0  0  0  2  0  0  0  0  0  0
  -33.0280  -21.4970   23.0470 C   0  0  0  0  0  3  0  0  0  0  0  0
  -31.6560  -21.4470   23.3460 C   0  0  0  0  0  3  0  0  0  0  0  0
  -32.8480  -19.3360   21.9440 C   0  0  0  0  0  3  0  0  0  0  0  0
  -33.6260  -20.4430   22.3360 C   0  0  0  0  0  0  0  0  0  0  0  0
  -30.8620  -20.3510   22.9390 C   0  0  0  0  0  0  0  0  0  0  0  0
  -31.4670  -19.2580   22.2540 C   0  0  0  0  0  0  0  0  0  0  0  0
  -35.1020  -20.4880   21.9950 C   0  0  0  0  0  1  0  0  0  0  0  0
  -30.7060  -18.1250   21.8980 N   0  0  0  0  0  0  0  0  0  0  0  0
  -29.7690  -18.0030   22.2700 H   0  0  0  0  0  0  0  0  0  0  0  0
  -31.3130  -16.9790   21.2140 C   0  0  0  0  0  2  0  0  0  0  0  0
  -30.3710  -15.7570   21.1230 C   0  0  0  0  0  2  0  0  0  0  0  0
  -30.9020  -14.6260   20.2140 C   0  0  0  0  0  0  0  0  0  0  0  0
  -30.5500  -12.4410   19.1110 C   0  0  0  0  0  2  0  0  0  0  0  0
  -29.5670  -12.5820   17.9330 C   0  0  0  0  0  2  0  0  0  0  0  0
  -28.1100  -12.4500   18.4200 C   0  0  0  0  0  2  0  0  0  0  0  0
  -27.8080  -13.3550   19.6440 C   0  0  0  0  0  3  0  0  0  0  0  0
  -28.8970  -13.1950   20.7280 C   0  0  0  0  0  2  0  0  0  0  0  0
  -30.2070  -13.4630   20.1100 N   0  0  0  0  0  0  0  0  0  0  0  0
  -31.9350  -14.8270   19.5660 O   0  0  0  0  0  0  0  0  0  0  0  0
  -25.4610  -14.0000   20.4870 C   0  0  0  0  0  0  0  0  0  0  0  0
  -24.3930  -13.2420   20.8850 C   0  0  0  0  0  0  0  0  0  0  0  0
  -24.8170  -11.8810   20.7890 C   0  0  0  0  0  0  0  0  0  0  0  0
  -26.4710  -13.1010   20.1790 N   0  0  0  0  0  0  0  0  0  0  0  0
  -26.0880  -11.8190   20.4160 N   0  0  0  0  0  0  0  0  0  0  0  0
  -24.0690  -10.6310   20.9790 C   0  0  0  0  0  0  0  0  0  0  0  0
  -24.4960   -9.6460   21.8950 C   0  0  0  0  0  3  0  0  0  0  0  0
  -23.7500   -8.4600   22.0710 C   0  0  0  0  0  3  0  0  0  0  0  0
  -22.5620   -8.2520   21.3310 C   0  0  0  0  0  0  0  0  0  0  0  0
  -22.1530   -9.2270   20.4030 C   0  0  0  0  0  3  0  0  0  0  0  0
  -22.9000  -10.4030   20.2250 C   0  0  0  0  0  3  0  0  0  0  0  0
  -21.7870   -7.1210   21.4180 O   0  0  0  0  0  0  0  0  0  0  0  0
  -21.7020   -6.3940   22.5780 C   0  0  0  0  0  0  0  0  0  0  0  0
  -21.2680   -6.9740   23.7900 C   0  0  0  0  0  3  0  0  0  0  0  0
  -21.1290   -6.1740   24.9420 C   0  0  0  0  0  3  0  0  0  0  0  0
  -21.4130   -4.7970   24.8840 C   0  0  0  0  0  0  0  0  0  0  0  0
  -21.8400   -4.2170   23.6770 C   0  0  0  0  0  3  0  0  0  0  0  0
  -21.9810   -5.0130   22.5260 C   0  0  0  0  0  0  0  0  0  0  0  0
  -22.3730   -4.4450   21.3600 F   0  0  0  0  0  0  0  0  0  0  0  0
  -21.2720   -4.0270   25.9890 F   0  0  0  0  0  0  0  0  0  0  0  0
  -23.0230  -13.7440   21.2450 C   0  0  0  0  0  0  0  0  0  0  0  0
  -22.3290  -13.0440   22.1370 N   0  0  0  0  0  0  0  0  0  0  0  0
  -22.5790  -14.7880   20.7700 O   0  0  0  0  0  0  0  0  0  0  0  0
  -22.7010  -12.1980   22.5410 H   0  0  0  0  0  0  0  0  0  0  0  0
  -21.4120  -13.3610   22.4190 H   0  0  0  0  0  0  0  0  0  0  0  0
  -25.6520  -15.3700   20.3440 N   0  0  0  0  0  0  0  0  0  0  0  0
  -24.9090  -16.0400   20.5080 H   0  0  0  0  0  0  0  0  0  0  0  0
  -26.5010  -15.7980   19.9960 H   0  0  0  0  0  0  0  0  0  0  0  0
  -28.6230  -21.0770   22.1430 N   0  0  0  0  0  4  0  0  0  0  0  0
  -27.6680  -20.7590   22.1810 H   0  0  0  0  0  0  0  0  0  0  0  0
  -29.0140  -20.7640   21.2690 H   0  0  0  0  0  0  0  0  0  0  0  0
  -28.6150  -22.5570   22.1980 C   0  0  0  0  0  2  0  0  0  0  0  0
  -28.2300  -23.1890   20.8480 C   0  0  0  0  0  2  0  0  0  0  0  0
  -28.1250  -24.7250   20.9110 C   0  0  0  0  0  2  0  0  0  0  0  0
  -28.1410  -25.3730   19.5180 C   0  0  0  0  0  2  0  0  0  0  0  0
  -28.1200  -26.7930   19.6400 O   0  0  0  0  0  0  0  0  0  0  0  0
  -24.6350  -31.8380   23.2080 C   0  0  0  0  0  0  0  0  0  0  0  0
  -26.9260  -27.4720   19.7700 C   0  0  0  0  0  0  0  0  0  0  0  0
  -23.2770  -30.5560   21.5860 C   0  0  0  0  0  3  0  0  0  0  0  0
  -24.5810  -29.0370   20.0100 C   0  0  0  0  0  0  0  0  0  0  0  0
  -25.7950  -30.8410   21.2440 C   0  0  0  0  0  2  0  0  0  0  0  0
  -25.7890  -29.4990   20.5430 C   0  0  0  0  0  0  0  0  0  0  0  0
  -26.9610  -28.7240   20.4200 C   0  0  0  0  0  3  0  0  0  0  0  0
  -25.6930  -27.0100   19.2480 C   0  0  0  0  0  3  0  0  0  0  0  0
  -24.5270  -27.7900   19.3640 C   0  0  0  0  0  3  0  0  0  0  0  0
  -23.3750  -29.9330   20.1690 C   0  0  0  0  0  2  0  0  0  0  0  0
  -24.5920  -31.0900   22.0700 N   0  0  0  0  0  0  0  0  0  0  0  0
  -23.6010  -32.1220   23.8290 O   0  0  0  0  0  0  0  0  0  0  0  0
  -22.6520  -29.5130   22.5400 C   0  0  0  0  0  0  0  0  0  0  0  0
  -21.3330  -29.3010   22.4100 N   0  0  0  0  0  0  0  0  0  0  0  0
  -23.3490  -28.8960   23.3490 O   0  0  0  0  0  0  0  0  0  0  0  0
  -20.8290  -29.8510   21.7270 H   0  0  0  0  0  0  0  0  0  0  0  0
  -18.0080  -27.9460   22.8070 C   0  0  0  0  0  0  0  0  0  0  0  0
  -20.5360  -28.3410   23.1730 C   0  0  0  0  0  3  0  0  0  0  0  0
  -20.7340  -26.9040   22.6380 C   0  0  0  0  0  2  0  0  0  0  0  0
  -19.6910  -26.5020   21.5900 C   0  0  0  0  0  2  0  0  0  0  0  0
  -18.2790  -26.5910   22.1770 C   0  0  0  0  0  2  0  0  0  0  0  0
  -19.0690  -28.7740   23.2610 C   0  0  0  0  0  0  0  0  0  0  0  0
  -18.7640  -30.0390   23.8060 C   0  0  0  0  0  3  0  0  0  0  0  0
  -17.4310  -30.4780   23.9080 C   0  0  0  0  0  3  0  0  0  0  0  0
  -16.3840  -29.6470   23.4740 C   0  0  0  0  0  3  0  0  0  0  0  0
  -16.6730  -28.3840   22.9290 C   0  0  0  0  0  3  0  0  0  0  0  0
  -25.9810  -32.3930   23.7710 C   0  0  0  0  0  3  0  0  0  0  0  0
  -26.5790  -31.5130   24.9370 C   0  0  1  0  0  0  0  0  0  0  0  0
  -25.5690  -31.2100   26.0680 C   0  0  0  0  0  1  0  0  0  0  0  0
  -27.0970  -30.1620   24.3910 C   0  0  0  0  0  1  0  0  0  0  0  0
  -27.7960  -32.2330   25.5640 C   0  0  0  0  0  1  0  0  0  0  0  0
  -25.7330  -33.7670   24.2290 N   0  0  0  0  0  0  0  0  0  0  0  0
  -26.0400  -34.8680   23.5300 C   0  0  0  0  0  0  0  0  0  0  0  0
  -26.6340  -34.8310   22.4490 O   0  0  0  0  0  0  0  0  0  0  0  0
  -25.1990  -33.8710   25.0790 H   0  0  0  0  0  0  0  0  0  0  0  0
  -24.3350  -36.7160   23.4390 C   0  0  0  0  0  1  0  0  0  0  0  0
  -25.6200  -36.2270   24.1240 C   0  0  0  0  0  3  0  0  0  0  0  0
  -27.8300  -37.0010   24.8570 C   0  0  0  0  0  1  0  0  0  0  0  0
  -26.6680  -37.2650   24.0150 N   0  0  0  0  0  0  0  0  0  0  0  0
  -26.2970  -38.1780   24.2640 H   0  0  0  0  0  0  0  0  0  0  0  0
  2  3  1  0
  4  7  2  0
  4  5  1  0
  5  2  2  0
  6  1  1  0
  6  3  2  0
  7  6  1  0
  8  5  1  0
  9  7  1  0
  9 10  1  0
 11  9  1  0
 12 11  1  0
 13 12  1  0
 14 19  1  0
 15 16  1  0
 15 14  1  0
 17 16  1  0
 17 24  1  0
 17 18  1  0
 19 13  1  0
 19 18  1  0
 20 13  2  0
 21 22  2  0
 22 41  1  0
 23 22  1  0
 23 26  1  0
 24 25  1  0
 24 21  1  0
 25 23  2  0
 26 27  1  0
 27 28  2  0
 29 32  1  0
 29 28  1  0
 30 29  2  0
 31 30  1  0
 31 26  2  0
 32 33  1  0
 33 34  1  0
 34 35  2  0
 36 35  1  0
 36 40  1  0
 37 36  2  0
 38 33  2  0
 38 37  1  0
 39 38  1  0
 41 42  1  0
 42 45  1  0
 42 44  1  0
 43 41  2  0
 46 21  1  0
 46 47  1  0
 48 46  1  0
 49 50  1  0
 49 52  1  0
 49  1  1  0
 51 49  1  0
 53 54  1  0
 53 52  1  0
 55 56  1  0
 55 54  1  0
 56 58  1  0
 57 68  2  0
 58 63  1  0
 59 67  1  0
 59 69  1  0
 60 66  1  0
 60 62  1  0
 61 67  1  0
 62 61  1  0
 63 62  2  0
 64 65  1  0
 64 58  2  0
 65 60  2  0
 66 59  1  0
 67 57  1  0
 69 71  2  0
 70 69  1  0
 72 70  1  0
 73 82  2  0
 73 78  1  0
 74 70  1  0
 74 78  1  0
 75 74  1  0
 76 77  1  0
 76 75  1  0
 77 73  1  0
 78 79  2  0
 79 80  1  0
 81 80  2  0
 82 81  1  0
 83 57  1  0
 83 88  1  0
 83 84  1  0
 84 87  1  1
 84 85  1  0
 86 84  1  0
 88 91  1  0
 89 93  1  0
 89 88  1  0
 90 89  2  0
 93 92  1  0
 95 93  1  0
 95 96  1  0
 95 94  1  0
M  ISO  4  12 100  13 100  55 101  56 101
M  END
>  <TORSDO>  (54) 
F 25

>  <SCORE>  (54) 
-10.168

>  <name>  (54) 
53

>  <ligand_id>  (54) 
53

>  <original_smiles>  (54) 
[H]c1c([H])c([H])c2c(c1[H])C([H])([H])C([H])([H])C([H])([H])C2([H])N([H])C(=O)C1([H])N(C(=O)C([H])(N([H])C(=O)C([H])(N([H])C([H])([H])[H])C([H])([H])[H])C(C([H])([H])[H])(C([H])([H])[H])C([H])([H])[H])C([H])([H])c2c([H])c(OC([H])([H])C([H])([H])C([H])([H])C([H])([H])[N+]([H])([H])C([H])([H])c3c([H])c([H])c(C([H])([H])[H])c([H])c3N([H])C([H])([H])C([H])([H])C(=O)N3C([H])([H])C([H])([H])C([H])([H])C([H])(n4nc(-c5c([H])c([H])c(Oc6c([H])c([H])c(F)c([H])c6F)c([H])c5[H])c(C(=O)N([H])[H])c4N([H])[H])C3([H])[H])c([H])c([H])c2C1([H])[H]

>  <smiles>  (54) 
[H]c1c([H])c([H])c2c(c1[H])C([H])([H])C([H])([H])C([H])([H])C2([H])N([H])C(=O)C1([H])N(C(=O)C([H])(N([H])C(=O)C([H])(N([H])C([H])([H])[H])C([H])([H])[H])C(C([H])([H])[H])(C([H])([H])[H])C([H])([H])[H])C([H])([H])c2c([H])c(OC([H])([H])C([H])([H])C([H])([H])C([H])([H])[N+]([H])([H])C([H])([H])c3c([H])c([H])c(C([H])([H])[H])c([H])c3N([H])C([H])([H])C([H])([H])C(=O)N3C([H])([H])C([H])([H])C([H])([H])C([H])(n4nc(-c5c([H])c([H])c(Oc6c([H])c([H])c(F)c([H])c6F)c([H])c5[H])c(C(=O)N([H])[H])c4N([H])[H])C3([H])[H])c([H])c([H])c2C1([H])[H]

$$$$
54:0:0
     RDKit          3D

 98106  0  0  1  0  0  0  0  0999 V2000
  -25.2650  -23.2770   19.9280 C   0  0  0  0  0  3  0  0  0  0  0  0
  -26.3980  -22.4850   19.6540 C   0  0  0  0  0  3  0  0  0  0  0  0
  -25.1120  -24.5230   19.2970 C   0  0  0  0  0  3  0  0  0  0  0  0
  -27.1860  -24.1560   18.0620 C   0  0  0  0  0  3  0  0  0  0  0  0
  -27.3660  -22.9160   18.7180 C   0  0  0  0  0  0  0  0  0  0  0  0
  -26.0780  -24.9710   18.3730 C   0  0  0  0  0  0  0  0  0  0  0  0
  -28.1380  -20.9840   17.3500 C   0  0  0  0  0  1  0  0  0  0  0  0
  -28.5630  -22.0130   18.4070 C   0  0  0  0  0  3  0  0  0  0  0  0
  -29.6650  -23.5330   16.7950 C   0  0  0  0  0  1  0  0  0  0  0  0
  -29.8030  -22.7920   18.0810 N   0  0  1  0  0  4  0  0  0  0  0  0
  -30.5290  -22.1130   17.9050 H   0  0  0  0  0  0  0  0  0  0  0  0
  -30.3490  -23.6680   19.1640 C   0  0  0  0  0  2  0  0  0  0  0  0
  -29.4240  -23.7580   20.4050 C   0  0  0  0  0  2  0  0  0  0  0  0
  -30.0970  -23.3620   21.7420 C   0  0  0  0  0  2  0  0  0  0  0  0
  -31.7000  -21.9420   20.5390 C   0  0  0  0  0  0  0  0  0  0  0  0
  -32.8720  -20.4170   18.9900 C   0  0  0  0  0  2  0  0  0  0  0  0
  -32.0490  -20.0840   17.7350 C   0  0  0  0  0  2  0  0  0  0  0  0
  -31.1500  -18.8660   17.9980 C   0  0  0  0  0  2  0  0  0  0  0  0
  -30.3110  -19.0220   19.2910 C   0  0  0  0  0  3  0  0  0  0  0  0
  -31.1950  -19.4530   20.4770 C   0  0  0  0  0  2  0  0  0  0  0  0
  -31.9550  -20.6700   20.1190 N   0  0  0  0  0  0  0  0  0  0  0  0
  -32.1370  -22.9190   19.9180 O   0  0  0  0  0  0  0  0  0  0  0  0
  -30.9160  -22.1200   21.6430 N   0  0  0  0  0  0  0  0  0  0  0  0
  -28.2130  -17.6120   19.8130 C   0  0  0  0  0  0  0  0  0  0  0  0
  -28.0320  -16.2750   20.0180 C   0  0  0  0  0  0  0  0  0  0  0  0
  -29.3270  -15.6860   19.9040 C   0  0  0  0  0  0  0  0  0  0  0  0
  -29.5720  -17.7970   19.6040 N   0  0  0  0  0  0  0  0  0  0  0  0
  -30.2480  -16.6230   19.7130 N   0  0  0  0  0  0  0  0  0  0  0  0
  -29.7320  -14.2750   19.9100 C   0  0  0  0  0  0  0  0  0  0  0  0
  -30.6450  -13.7730   20.8650 C   0  0  0  0  0  3  0  0  0  0  0  0
  -31.0080  -12.4090   20.8570 C   0  0  0  0  0  3  0  0  0  0  0  0
  -30.4560  -11.5350   19.8890 C   0  0  0  0  0  0  0  0  0  0  0  0
  -29.5660  -12.0460   18.9280 C   0  0  0  0  0  3  0  0  0  0  0  0
  -29.2090  -13.4040   18.9330 C   0  0  0  0  0  3  0  0  0  0  0  0
  -30.7760  -10.2030   19.7870 O   0  0  0  0  0  0  0  0  0  0  0  0
  -31.1080   -9.4540   20.8880 C   0  0  0  0  0  0  0  0  0  0  0  0
  -30.2120   -9.2730   21.9640 C   0  0  0  0  0  3  0  0  0  0  0  0
  -30.5650   -8.4370   23.0420 C   0  0  0  0  0  3  0  0  0  0  0  0
  -31.8120   -7.7820   23.0440 C   0  0  0  0  0  0  0  0  0  0  0  0
  -32.7060   -7.9580   21.9720 C   0  0  0  0  0  3  0  0  0  0  0  0
  -32.3540   -8.7920   20.8970 C   0  0  0  0  0  0  0  0  0  0  0  0
  -33.2080   -8.9410   19.8560 F   0  0  0  0  0  0  0  0  0  0  0  0
  -32.1510   -6.9770   24.0760 F   0  0  0  0  0  0  0  0  0  0  0  0
  -26.7150  -15.5710   20.2000 C   0  0  0  0  0  0  0  0  0  0  0  0
  -26.6930  -14.5040   20.9870 N   0  0  0  0  0  0  0  0  0  0  0  0
  -25.6820  -15.9950   19.6810 O   0  0  0  0  0  0  0  0  0  0  0  0
  -27.5320  -14.1730   21.4390 H   0  0  0  0  0  0  0  0  0  0  0  0
  -25.8210  -14.0190   21.1440 H   0  0  0  0  0  0  0  0  0  0  0  0
  -27.3250  -18.6760   19.7540 N   0  0  0  0  0  0  0  0  0  0  0  0
  -26.3270  -18.4960   19.7690 H   0  0  0  0  0  0  0  0  0  0  0  0
  -27.5630  -19.6000   19.4210 H   0  0  0  0  0  0  0  0  0  0  0  0
  -30.6090  -21.5910   24.2990 C   0  0  0  0  0  1  0  0  0  0  0  0
  -31.2570  -21.3980   22.9000 C   0  0  0  0  0  2  0  0  0  0  0  0
  -25.9780  -26.2530   17.8290 N   0  0  0  0  0  0  0  0  0  0  0  0
  -25.3000  -26.3180   17.0750 H   0  0  0  0  0  0  0  0  0  0  0  0
  -27.2970  -26.7010   17.3920 C   0  0  0  0  0  2  0  0  0  0  0  0
  -27.2440  -27.8330   16.3570 C   0  0  0  0  0  2  0  0  0  0  0  0
  -28.1110  -27.5060   15.2680 O   0  0  0  0  0  0  0  0  0  0  0  0
  -34.9830  -27.4160   13.4290 C   0  0  0  0  0  0  0  0  0  0  0  0
  -29.2570  -28.2540   15.0880 C   0  0  0  0  0  0  0  0  0  0  0  0
  -34.1350  -29.5790   14.2780 C   0  0  0  0  0  3  0  0  0  0  0  0
  -31.6080  -29.7390   14.5590 C   0  0  0  0  0  0  0  0  0  0  0  0
  -32.5600  -27.9070   13.1520 C   0  0  0  0  0  2  0  0  0  0  0  0
  -31.4540  -28.4530   14.0240 C   0  0  0  0  0  0  0  0  0  0  0  0
  -30.2880  -27.7070   14.2950 C   0  0  0  0  0  3  0  0  0  0  0  0
  -29.4390  -29.5470   15.6390 C   0  0  0  0  0  3  0  0  0  0  0  0
  -30.6080  -30.2850   15.3800 C   0  0  0  0  0  3  0  0  0  0  0  0
  -32.8740  -30.4800   14.2070 C   0  0  0  0  0  2  0  0  0  0  0  0
  -33.9230  -28.2460   13.6260 N   0  0  0  0  0  0  0  0  0  0  0  0
  -36.1300  -27.7600   13.7450 O   0  0  0  0  0  0  0  0  0  0  0  0
  -34.5780  -29.4740   15.7540 C   0  0  0  0  0  0  0  0  0  0  0  0
  -35.5470  -30.3170   16.1460 N   0  0  0  0  0  0  0  0  0  0  0  0
  -34.0360  -28.6780   16.5230 O   0  0  0  0  0  0  0  0  0  0  0  0
  -35.9410  -30.9380   15.4550 H   0  0  0  0  0  0  0  0  0  0  0  0
  -38.2990  -31.6620   18.0550 C   0  0  0  0  0  0  0  0  0  0  0  0
  -36.1030  -30.4210   17.4940 C   0  0  0  0  0  3  0  0  0  0  0  0
  -35.3850  -31.5240   18.3060 C   0  0  0  0  0  2  0  0  0  0  0  0
  -36.0860  -32.8830   18.2200 C   0  0  0  0  0  2  0  0  0  0  0  0
  -37.5270  -32.7810   18.7350 C   0  0  0  0  0  2  0  0  0  0  0  0
  -37.6280  -30.5610   17.4570 C   0  0  0  0  0  0  0  0  0  0  0  0
  -38.3910  -29.5680   16.8050 C   0  0  0  0  0  3  0  0  0  0  0  0
  -39.7950  -29.6550   16.7550 C   0  0  0  0  0  3  0  0  0  0  0  0
  -40.4540  -30.7380   17.3640 C   0  0  0  0  0  3  0  0  0  0  0  0
  -39.7070  -31.7380   18.0110 C   0  0  0  0  0  3  0  0  0  0  0  0
  -34.8130  -26.0050   12.7830 C   0  0  0  0  0  3  0  0  0  0  0  0
  -34.7540  -24.8360   13.8420 C   0  0  1  0  0  0  0  0  0  0  0  0
  -35.8740  -24.9070   14.9050 C   0  0  0  0  0  1  0  0  0  0  0  0
  -33.3970  -24.8390   14.5840 C   0  0  0  0  0  1  0  0  0  0  0  0
  -34.8630  -23.4710   13.1230 C   0  0  0  0  0  1  0  0  0  0  0  0
  -35.9310  -25.8110   11.8510 N   0  0  0  0  0  0  0  0  0  0  0  0
  -35.8370  -25.9090   10.5180 C   0  0  0  0  0  0  0  0  0  0  0  0
  -34.7670  -26.1040    9.9350 O   0  0  0  0  0  0  0  0  0  0  0  0
  -36.8490  -25.6970   12.2570 H   0  0  0  0  0  0  0  0  0  0  0  0
  -37.6060  -27.1520    9.2400 C   0  0  0  0  0  1  0  0  0  0  0  0
  -37.1360  -25.7660    9.7040 C   0  0  0  0  0  3  0  0  0  0  0  0
  -36.8480  -23.4630    8.9080 C   0  0  0  0  0  1  0  0  0  0  0  0
  -37.0050  -24.8670    8.5380 N   0  0  0  0  0  0  0  0  0  0  0  0
  -37.8170  -24.9440    7.9310 H   0  0  0  0  0  0  0  0  0  0  0  0
  2  1  1  0
  3  1  2  0
  4  6  2  0
  4  5  1  0
  5  2  2  0
  6  3  1  0
  8  7  1  0
  8  5  1  0
  9 10  1  0
 10  8  1  0
 10 12  1  0
 10 11  1  6
 12 13  1  0
 13 14  1  0
 15 23  1  0
 16 21  1  0
 17 18  1  0
 17 16  1  0
 19 18  1  0
 19 27  1  0
 19 20  1  0
 21 20  1  0
 21 15  1  0
 22 15  2  0
 23 14  1  0
 23 53  1  0
 24 25  2  0
 25 44  1  0
 26 29  1  0
 26 25  1  0
 27 28  1  0
 27 24  1  0
 28 26  2  0
 29 30  1  0
 31 30  2  0
 32 31  1  0
 33 34  1  0
 33 32  2  0
 34 29  2  0
 35 32  1  0
 35 36  1  0
 36 41  2  0
 36 37  1  0
 37 38  2  0
 38 39  1  0
 39 43  1  0
 40 39  2  0
 41 40  1  0
 42 41  1  0
 44 45  1  0
 45 48  1  0
 45 47  1  0
 46 44  2  0
 49 50  1  0
 49 24  1  0
 51 49  1  0
 53 52  1  0
 54  6  1  0
 55 54  1  0
 56 54  1  0
 57 56  1  0
 58 57  1  0
 59 69  1  0
 59 70  2  0
 60 58  1  0
 60 66  1  0
 61 71  1  0
 62 67  1  0
 63 69  1  0
 63 64  1  0
 64 65  1  0
 64 62  2  0
 65 60  2  0
 67 66  2  0
 68 61  1  0
 68 62  1  0
 69 61  1  0
 71 72  1  0
 71 73  2  0
 74 72  1  0
 75 79  1  0
 76 72  1  0
 76 77  1  0
 78 77  1  0
 78 79  1  0
 80 76  1  0
 80 75  2  0
 81 80  1  0
 82 81  2  0
 82 83  1  0
 83 84  2  0
 84 75  1  0
 85 59  1  0
 85 86  1  0
 86 88  1  1
 86 87  1  0
 89 86  1  0
 90 93  1  0
 90 85  1  0
 91 90  1  0
 92 91  2  0
 95 94  1  0
 95 91  1  0
 97 96  1  0
 97 95  1  0
 98 97  1  0
M  ISO  4  15 100  23 100  57 101  58 101
M  END
>  <TORSDO>  (55) 
F 25

>  <SCORE>  (55) 
-4.433

>  <name>  (55) 
54

>  <ligand_id>  (55) 
54

>  <original_smiles>  (55) 
[H]c1c([H])c([H])c2c(c1[H])C([H])([H])C([H])([H])C([H])([H])C2([H])N([H])C(=O)C1([H])N(C(=O)C([H])(N([H])C(=O)C([H])(N([H])C([H])([H])[H])C([H])([H])[H])C(C([H])([H])[H])(C([H])([H])[H])C([H])([H])[H])C([H])([H])c2c([H])c(OC([H])([H])C([H])([H])N([H])c3c([H])c([H])c([H])c(C([H])(C([H])([H])[H])[N+]([H])(C([H])([H])[H])C([H])([H])C([H])([H])C([H])([H])N(C(=O)N4C([H])([H])C([H])([H])C([H])([H])C([H])(n5nc(-c6c([H])c([H])c(Oc7c([H])c([H])c(F)c([H])c7F)c([H])c6[H])c(C(=O)N([H])[H])c5N([H])[H])C4([H])[H])C([H])([H])C([H])([H])[H])c3[H])c([H])c([H])c2C1([H])[H]

>  <smiles>  (55) 
[H]c1c([H])c([H])c2c(c1[H])C([H])([H])C([H])([H])C([H])([H])C2([H])N([H])C(=O)C1([H])N(C(=O)C([H])(N([H])C(=O)C([H])(N([H])C([H])([H])[H])C([H])([H])[H])C(C([H])([H])[H])(C([H])([H])[H])C([H])([H])[H])C([H])([H])c2c([H])c(OC([H])([H])C([H])([H])N([H])c3c([H])c([H])c([H])c(C([H])(C([H])([H])[H])[N+]([H])(C([H])([H])[H])C([H])([H])C([H])([H])C([H])([H])N(C(=O)N4C([H])([H])C([H])([H])C([H])([H])C([H])(n5nc(-c6c([H])c([H])c(Oc7c([H])c([H])c(F)c([H])c7F)c([H])c6[H])c(C(=O)N([H])[H])c5N([H])[H])C4([H])[H])C([H])([H])C([H])([H])[H])c3[H])c([H])c([H])c2C1([H])[H]

$$$$
55:0:0
     RDKit          3D

100109  0  0  1  0  0  0  0  0999 V2000
  -32.2490  -18.3090   20.2880 C   0  0  0  0  0  2  0  0  0  0  0  0
  -31.9570  -17.0130   19.4870 C   0  0  0  0  0  2  0  0  0  0  0  0
  -28.9600  -17.8170   19.0540 C   0  0  0  0  0  3  0  0  0  0  0  0
  -29.8640  -17.9140   20.3120 C   0  0  0  0  0  3  0  0  0  0  0  0
  -30.9360  -19.0940   20.2070 C   0  0  0  0  0  3  0  0  0  0  0  0
  -29.4670  -16.3910   18.7700 C   0  0  0  0  0  3  0  0  0  0  0  0
  -30.5340  -16.4920   19.8900 C   0  0  1  0  0  0  0  0  0  0  0  0
  -30.7010  -15.0650   20.7220 C   0  0  0  0  0  0  0  0  0  0  0  0
  -30.5040  -12.7990   19.7290 C   0  0  0  0  0  2  0  0  0  0  0  0
  -29.6220  -12.7340   18.4710 C   0  0  0  0  0  2  0  0  0  0  0  0
  -28.1300  -12.5800   18.8390 C   0  0  0  0  0  2  0  0  0  0  0  0
  -27.6630  -13.4620   20.0310 C   0  0  0  0  0  3  0  0  0  0  0  0
  -28.6990  -13.5070   21.1710 C   0  0  0  0  0  2  0  0  0  0  0  0
  -29.9790  -13.9000   20.5560 N   0  0  0  0  0  0  0  0  0  0  0  0
  -31.8380  -14.8860   21.1380 O   0  0  0  0  0  0  0  0  0  0  0  0
  -25.2140  -13.9530   20.6190 C   0  0  0  0  0  0  0  0  0  0  0  0
  -24.1590  -13.1350   20.9100 C   0  0  0  0  0  0  0  0  0  0  0  0
  -24.6860  -11.8110   20.9430 C   0  0  0  0  0  0  0  0  0  0  0  0
  -26.3120  -13.1220   20.4660 N   0  0  0  0  0  0  0  0  0  0  0  0
  -25.9980  -11.8300   20.7370 N   0  0  0  0  0  0  0  0  0  0  0  0
  -24.0110  -10.5190   21.0970 C   0  0  0  0  0  0  0  0  0  0  0  0
  -24.3860   -9.6090   22.1090 C   0  0  0  0  0  3  0  0  0  0  0  0
  -23.7050   -8.3820   22.2560 C   0  0  0  0  0  3  0  0  0  0  0  0
  -22.6360   -8.0560   21.3880 C   0  0  0  0  0  0  0  0  0  0  0  0
  -22.2810   -8.9550   20.3670 C   0  0  0  0  0  3  0  0  0  0  0  0
  -22.9650  -10.1730   20.2180 C   0  0  0  0  0  3  0  0  0  0  0  0
  -21.9350   -6.8740   21.4380 O   0  0  0  0  0  0  0  0  0  0  0  0
  -21.7570   -6.1960   22.6160 C   0  0  0  0  0  0  0  0  0  0  0  0
  -21.1130   -6.7860   23.7270 C   0  0  0  0  0  3  0  0  0  0  0  0
  -20.8880   -6.0290   24.8940 C   0  0  0  0  0  3  0  0  0  0  0  0
  -21.2970   -4.6830   24.9500 C   0  0  0  0  0  0  0  0  0  0  0  0
  -21.9320   -4.0920   23.8440 C   0  0  0  0  0  3  0  0  0  0  0  0
  -22.1580   -4.8460   22.6790 C   0  0  0  0  0  0  0  0  0  0  0  0
  -22.7530   -4.2660   21.6090 F   0  0  0  0  0  0  0  0  0  0  0  0
  -21.0730   -3.9530   26.0690 F   0  0  0  0  0  0  0  0  0  0  0  0
  -22.7220  -13.5520   21.0370 C   0  0  0  0  0  0  0  0  0  0  0  0
  -21.9530  -12.8520   21.8650 N   0  0  0  0  0  0  0  0  0  0  0  0
  -22.2840  -14.5320   20.4360 O   0  0  0  0  0  0  0  0  0  0  0  0
  -22.3190  -12.0610   22.3730 H   0  0  0  0  0  0  0  0  0  0  0  0
  -20.9850  -13.1100   21.9930 H   0  0  0  0  0  0  0  0  0  0  0  0
  -25.3080  -15.3270   20.4410 N   0  0  0  0  0  0  0  0  0  0  0  0
  -24.4440  -15.8520   20.3950 H   0  0  0  0  0  0  0  0  0  0  0  0
  -25.9960  -15.6910   19.7790 H   0  0  0  0  0  0  0  0  0  0  0  0
  -27.4520  -18.0130   19.2590 C   0  0  0  0  0  0  0  0  0  0  0  0
  -25.5430  -19.5780   19.1890 C   0  0  0  0  0  1  0  0  0  0  0  0
  -26.9600  -19.2460   19.0810 N   0  0  0  0  0  0  0  0  0  0  0  0
  -26.7210  -17.0590   19.5040 O   0  0  0  0  0  0  0  0  0  0  0  0
  -27.5920  -19.9780   18.7900 H   0  0  0  0  0  0  0  0  0  0  0  0
  -29.9180  -16.1080   17.4520 O   0  0  0  0  0  0  0  0  0  0  0  0
  -29.1410  -15.9640   16.9190 H   0  0  0  0  0  0  0  0  0  0  0  0
  -30.8740  -20.7120   20.5440 C   0  0  0  0  0  3  0  0  0  0  0  0
  -29.6940  -21.3860   21.2210 N   0  0  0  0  0  4  0  0  0  0  0  0
  -28.8700  -21.2190   20.6690 H   0  0  0  0  0  0  0  0  0  0  0  0
  -29.5560  -20.8700   22.0780 H   0  0  0  0  0  0  0  0  0  0  0  0
  -29.7080  -22.8700   21.6530 C   0  0  0  0  0  2  0  0  0  0  0  0
  -29.5260  -24.1090   20.6340 C   0  0  0  0  0  3  0  0  0  0  0  0
  -28.9850  -25.4860   21.2800 C   0  0  0  0  0  3  0  0  0  0  0  0
  -29.0360  -26.8060   20.5860 O   0  0  0  0  0  0  0  0  0  0  0  0
  -24.5920  -31.8320   23.3470 C   0  0  0  0  0  0  0  0  0  0  0  0
  -27.8570  -27.5640   20.4950 C   0  0  0  0  0  0  0  0  0  0  0  0
  -23.6680  -30.3690   21.5850 C   0  0  0  0  0  3  0  0  0  0  0  0
  -25.3720  -28.9690   20.2840 C   0  0  0  0  0  0  0  0  0  0  0  0
  -26.1760  -30.9050   21.6400 C   0  0  0  0  0  2  0  0  0  0  0  0
  -26.4350  -29.5490   20.9880 C   0  0  0  0  0  0  0  0  0  0  0  0
  -27.6860  -28.8610   21.0780 C   0  0  0  0  0  3  0  0  0  0  0  0
  -26.7700  -27.0360   19.7710 C   0  0  0  0  0  3  0  0  0  0  0  0
  -25.5420  -27.7200   19.6660 C   0  0  0  0  0  3  0  0  0  0  0  0
  -24.0650  -29.7360   20.2230 C   0  0  0  0  0  2  0  0  0  0  0  0
  -24.8240  -31.0540   22.2490 N   0  0  0  0  0  0  0  0  0  0  0  0
  -23.4430  -32.0040   23.7840 O   0  0  0  0  0  0  0  0  0  0  0  0
  -23.0080  -29.2830   22.4670 C   0  0  0  0  0  0  0  0  0  0  0  0
  -21.7040  -29.0370   22.2540 N   0  0  0  0  0  0  0  0  0  0  0  0
  -23.6720  -28.6670   23.3050 O   0  0  0  0  0  0  0  0  0  0  0  0
  -21.2250  -29.5920   21.5580 H   0  0  0  0  0  0  0  0  0  0  0  0
  -18.3620  -27.6850   22.5590 C   0  0  0  0  0  0  0  0  0  0  0  0
  -20.8970  -28.0260   22.9390 C   0  0  0  0  0  3  0  0  0  0  0  0
  -21.0740  -26.6340   22.2900 C   0  0  0  0  0  2  0  0  0  0  0  0
  -20.0230  -26.3280   21.2190 C   0  0  0  0  0  2  0  0  0  0  0  0
  -18.6150  -26.3850   21.8160 C   0  0  0  0  0  2  0  0  0  0  0  0
  -19.4330  -28.4650   23.0740 C   0  0  0  0  0  0  0  0  0  0  0  0
  -19.1420  -29.6820   23.7270 C   0  0  0  0  0  3  0  0  0  0  0  0
  -17.8120  -30.1220   23.8710 C   0  0  0  0  0  3  0  0  0  0  0  0
  -16.7560  -29.3400   23.3730 C   0  0  0  0  0  3  0  0  0  0  0  0
  -17.0310  -28.1240   22.7250 C   0  0  0  0  0  3  0  0  0  0  0  0
  -25.7520  -32.5580   24.0950 C   0  0  0  0  0  3  0  0  0  0  0  0
  -25.3190  -33.9380   24.3560 N   0  0  0  0  0  0  0  0  0  0  0  0
  -25.6650  -34.9990   23.6170 C   0  0  0  0  0  0  0  0  0  0  0  0
  -26.4490  -34.9240   22.6680 O   0  0  0  0  0  0  0  0  0  0  0  0
  -24.6330  -34.0650   25.0870 H   0  0  0  0  0  0  0  0  0  0  0  0
  -23.8830  -36.6740   23.0300 C   0  0  0  0  0  1  0  0  0  0  0  0
  -25.0440  -36.3600   23.9870 C   0  0  0  0  0  3  0  0  0  0  0  0
  -27.0240  -37.3760   25.0250 C   0  0  0  0  0  1  0  0  0  0  0  0
  -26.0150  -37.4740   23.9720 N   0  0  0  0  0  0  0  0  0  0  0  0
  -25.5410  -38.3680   24.0700 H   0  0  0  0  0  0  0  0  0  0  0  0
  -26.1670  -31.8420   25.4390 C   0  0  1  0  0  0  0  0  0  0  0  0
  -24.9720  -31.5050   26.3620 C   0  0  0  0  0  1  0  0  0  0  0  0
  -26.9230  -30.5250   25.1480 C   0  0  0  0  0  1  0  0  0  0  0  0
  -27.1420  -32.7450   26.2330 C   0  0  0  0  0  1  0  0  0  0  0  0
  -32.6990  -20.8990   22.4210 C   0  0  0  0  0  1  0  0  0  0  0  0
  -32.2390  -21.2910   21.0050 C   0  0  0  0  0  2  0  0  0  0  0  0
  2  7  1  0
  2  1  1  0
  3 44  1  0
  3  4  1  0
  5  1  1  0
  5  4  1  0
  5 51  1  0
  6  3  1  0
  6  7  1  0
  7  4  1  0
  7  8  1  1
  8 15  2  0
  9 14  1  0
 10 11  1  0
 10  9  1  0
 11 12  1  0
 12 19  1  0
 12 13  1  0
 14  8  1  0
 14 13  1  0
 16 17  2  0
 17 18  1  0
 17 36  1  0
 18 21  1  0
 19 16  1  0
 19 20  1  0
 20 18  2  0
 21 22  1  0
 22 23  2  0
 24 27  1  0
 24 23  1  0
 25 24  2  0
 26 25  1  0
 26 21  2  0
 27 28  1  0
 28 33  2  0
 28 29  1  0
 29 30  2  0
 30 31  1  0
 31 35  1  0
 32 31  2  0
 33 32  1  0
 34 33  1  0
 36 37  1  0
 37 40  1  0
 37 39  1  0
 38 36  2  0
 41 16  1  0
 42 41  1  0
 43 41  1  0
 44 47  2  0
 46 45  1  0
 46 44  1  0
 48 46  1  0
 49  6  1  0
 50 49  1  0
 51100  1  0
 51 52  1  0
 52 55  1  0
 52 54  1  0
 53 52  1  0
 56 57  2  0
 56 55  1  0
 58 57  1  0
 59 70  2  0
 59 85  1  0
 60 58  1  0
 60 65  1  0
 61 69  1  0
 61 71  1  0
 62 64  1  0
 63 69  1  0
 64 65  2  0
 64 63  1  0
 66 60  2  0
 67 66  1  0
 67 62  2  0
 68 62  1  0
 68 61  1  0
 69 59  1  0
 71 73  2  0
 72 71  1  0
 72 76  1  0
 74 72  1  0
 75 84  2  0
 75 80  1  0
 76 80  1  0
 77 76  1  0
 78 79  1  0
 78 77  1  0
 79 75  1  0
 80 81  2  0
 81 82  1  0
 83 82  2  0
 84 83  1  0
 85 86  1  0
 85 95  1  0
 86 89  1  0
 87 91  1  0
 87 86  1  0
 88 87  2  0
 90 91  1  0
 93 91  1  0
 93 94  1  0
 93 92  1  0
 95 98  1  1
 95 96  1  0
 97 95  1  0
100 99  1  0
M  ISO  4   7 100   8 100  57 101  58 101
M  END
>  <TORSDO>  (56) 
F 24

>  <SCORE>  (56) 
-10.872

>  <name>  (56) 
55

>  <ligand_id>  (56) 
55

>  <original_smiles>  (56) 
[H]OC1([H])C([H])(C(=O)N([H])C([H])([H])[H])C2([H])C([H])(C([H])(C([H])([H])C([H])([H])[H])[N+]([H])([H])C([H])([H])C([H])([H])C([H])([H])Oc3c([H])c([H])c4c(c3[H])C([H])([H])N(C(=O)C([H])(N([H])C(=O)C([H])(N([H])C([H])([H])[H])C([H])([H])[H])C(C([H])([H])[H])(C([H])([H])[H])C([H])([H])[H])C([H])(C(=O)N([H])C3([H])c5c([H])c([H])c([H])c([H])c5C([H])([H])C([H])([H])C3([H])[H])C4([H])[H])C([H])([H])C([H])([H])C12C(=O)N1C([H])([H])C([H])([H])C([H])([H])C([H])(n2nc(-c3c([H])c([H])c(Oc4c([H])c([H])c(F)c([H])c4F)c([H])c3[H])c(C(=O)N([H])[H])c2N([H])[H])C1([H])[H]

>  <smiles>  (56) 
[H]OC1([H])C([H])(C(=O)N([H])C([H])([H])[H])C2([H])C([H])(C([H])(C([H])([H])C([H])([H])[H])[N+]([H])([H])C([H])([H])C([H])([H])C([H])([H])Oc3c([H])c([H])c4c(c3[H])C([H])([H])N(C(=O)C([H])(N([H])C(=O)C([H])(N([H])C([H])([H])[H])C([H])([H])[H])C(C([H])([H])[H])(C([H])([H])[H])C([H])([H])[H])C([H])(C(=O)N([H])C3([H])c5c([H])c([H])c([H])c([H])c5C([H])([H])C([H])([H])C3([H])[H])C4([H])[H])C([H])([H])C([H])([H])C12C(=O)N1C([H])([H])C([H])([H])C([H])([H])C([H])(n2nc(-c3c([H])c([H])c(Oc4c([H])c([H])c(F)c([H])c4F)c([H])c3[H])c(C(=O)N([H])[H])c2N([H])[H])C1([H])[H]

$$$$
56:0:0
     RDKit          3D

 92100  0  0  1  0  0  0  0  0999 V2000
  -27.6600  -22.1550   20.1600 C   0  0  0  0  0  3  0  0  0  0  0  0
  -28.0930  -20.7920   20.2950 C   0  0  0  0  0  3  0  0  0  0  0  0
  -29.8980  -22.8930   20.0080 C   0  0  0  0  0  3  0  0  0  0  0  0
  -28.5220  -23.2890   20.0270 C   0  0  0  0  0  0  0  0  0  0  0  0
  -30.3560  -21.5100   20.1520 C   0  0  0  0  0  0  0  0  0  0  0  0
  -29.4550  -20.3820   20.3050 C   0  0  0  0  0  0  0  0  0  0  0  0
  -32.4840  -21.6700   21.5210 C   0  0  0  0  0  1  0  0  0  0  0  0
  -31.8650  -21.2780   20.1710 C   0  0  0  0  0  3  0  0  0  0  0  0
  -32.5360  -22.0170   19.1650 O   0  0  0  0  0  0  0  0  0  0  0  0
  -32.2230  -21.6970   18.3240 H   0  0  0  0  0  0  0  0  0  0  0  0
  -30.2330  -18.9700   22.0900 C   0  0  0  0  0  1  0  0  0  0  0  0
  -29.7960  -18.9980   20.6960 N   0  0  0  0  0  0  0  0  0  0  0  0
  -30.1890  -17.7510   19.8760 C   0  0  0  0  0  2  0  0  0  0  0  0
  -29.9400  -16.2260   20.4940 C   0  0  0  0  0  2  0  0  0  0  0  0
  -30.7000  -14.8650   19.9970 C   0  0  0  0  0  0  0  0  0  0  0  0
  -30.5160  -12.5480   19.0080 C   0  0  0  0  0  2  0  0  0  0  0  0
  -29.5310  -12.5760   17.8170 C   0  0  0  0  0  2  0  0  0  0  0  0
  -28.0800  -12.3820   18.3010 C   0  0  0  0  0  2  0  0  0  0  0  0
  -27.7380  -13.2850   19.5150 C   0  0  0  0  0  3  0  0  0  0  0  0
  -28.8380  -13.2320   20.5980 C   0  0  0  0  0  2  0  0  0  0  0  0
  -30.1080  -13.6100   19.9640 N   0  0  0  0  0  0  0  0  0  0  0  0
  -31.8480  -14.9650   19.5540 O   0  0  0  0  0  0  0  0  0  0  0  0
  -25.3860  -13.8700   20.3490 C   0  0  0  0  0  0  0  0  0  0  0  0
  -24.3330  -13.0960   20.7540 C   0  0  0  0  0  0  0  0  0  0  0  0
  -24.7890  -11.7430   20.6890 C   0  0  0  0  0  0  0  0  0  0  0  0
  -26.4150  -12.9910   20.0590 N   0  0  0  0  0  0  0  0  0  0  0  0
  -26.0660  -11.7050   20.3270 N   0  0  0  0  0  0  0  0  0  0  0  0
  -24.0650  -10.4810   20.8950 C   0  0  0  0  0  0  0  0  0  0  0  0
  -24.4990   -9.5260   21.8400 C   0  0  0  0  0  3  0  0  0  0  0  0
  -23.7740   -8.3310   22.0330 C   0  0  0  0  0  3  0  0  0  0  0  0
  -22.6010   -8.0810   21.2800 C   0  0  0  0  0  0  0  0  0  0  0  0
  -22.1870   -9.0260   20.3250 C   0  0  0  0  0  3  0  0  0  0  0  0
  -22.9120  -10.2120   20.1300 C   0  0  0  0  0  3  0  0  0  0  0  0
  -21.8480   -6.9360   21.3820 O   0  0  0  0  0  0  0  0  0  0  0  0
  -21.7610   -6.2350   22.5580 C   0  0  0  0  0  0  0  0  0  0  0  0
  -21.2810   -6.8280   23.7460 C   0  0  0  0  0  3  0  0  0  0  0  0
  -21.1420   -6.0520   24.9150 C   0  0  0  0  0  3  0  0  0  0  0  0
  -21.4710   -4.6840   24.8950 C   0  0  0  0  0  0  0  0  0  0  0  0
  -21.9430   -4.0900   23.7110 C   0  0  0  0  0  3  0  0  0  0  0  0
  -22.0840   -4.8630   22.5450 C   0  0  0  0  0  0  0  0  0  0  0  0
  -22.5180   -4.2810   21.4010 F   0  0  0  0  0  0  0  0  0  0  0  0
  -21.3300   -3.9350   26.0140 F   0  0  0  0  0  0  0  0  0  0  0  0
  -22.9500  -13.5740   21.0870 C   0  0  0  0  0  0  0  0  0  0  0  0
  -22.2570  -12.8770   21.9800 N   0  0  0  0  0  0  0  0  0  0  0  0
  -22.4930  -14.6040   20.5900 O   0  0  0  0  0  0  0  0  0  0  0  0
  -22.6400  -12.0450   22.4040 H   0  0  0  0  0  0  0  0  0  0  0  0
  -21.3320  -13.1800   22.2460 H   0  0  0  0  0  0  0  0  0  0  0  0
  -25.5480  -15.2430   20.1820 N   0  0  0  0  0  0  0  0  0  0  0  0
  -24.7900  -15.8980   20.3380 H   0  0  0  0  0  0  0  0  0  0  0  0
  -26.3890  -15.6840   19.8360 H   0  0  0  0  0  0  0  0  0  0  0  0
  -27.8240  -24.7380   19.7430 C   0  0  0  0  0  2  0  0  0  0  0  0
  -28.2080  -26.1770   20.1120 O   0  0  0  0  0  0  0  0  0  0  0  0
  -24.6600  -31.8490   23.1330 C   0  0  0  0  0  0  0  0  0  0  0  0
  -27.1720  -27.1740   20.0290 C   0  0  0  0  0  0  0  0  0  0  0  0
  -23.4230  -30.4540   21.5230 C   0  0  0  0  0  3  0  0  0  0  0  0
  -24.8400  -28.9010   20.0570 C   0  0  0  0  0  0  0  0  0  0  0  0
  -25.9720  -30.7290   21.3020 C   0  0  0  0  0  2  0  0  0  0  0  0
  -26.0310  -29.3430   20.6470 C   0  0  0  0  0  0  0  0  0  0  0  0
  -27.1970  -28.4930   20.6290 C   0  0  0  0  0  3  0  0  0  0  0  0
  -25.9600  -26.8530   19.3680 C   0  0  0  0  0  3  0  0  0  0  0  0
  -24.8150  -27.6660   19.4030 C   0  0  0  0  0  3  0  0  0  0  0  0
  -23.6110  -29.7870   20.1360 C   0  0  0  0  0  2  0  0  0  0  0  0
  -24.7050  -31.0300   22.0390 N   0  0  0  0  0  0  0  0  0  0  0  0
  -23.5860  -32.1310   23.6850 O   0  0  0  0  0  0  0  0  0  0  0  0
  -22.7720  -29.4390   22.4960 C   0  0  0  0  0  0  0  0  0  0  0  0
  -21.4430  -29.2620   22.3970 N   0  0  0  0  0  0  0  0  0  0  0  0
  -23.4640  -28.8140   23.3040 O   0  0  0  0  0  0  0  0  0  0  0  0
  -20.9400  -29.8180   21.7190 H   0  0  0  0  0  0  0  0  0  0  0  0
  -18.0770  -28.0460   22.9580 C   0  0  0  0  0  0  0  0  0  0  0  0
  -20.6390  -28.3270   23.1870 C   0  0  0  0  0  3  0  0  0  0  0  0
  -20.7420  -26.8900   22.6250 C   0  0  0  0  0  2  0  0  0  0  0  0
  -19.6280  -26.5500   21.6290 C   0  0  0  0  0  2  0  0  0  0  0  0
  -18.2540  -26.6920   22.2900 C   0  0  0  0  0  2  0  0  0  0  0  0
  -19.1970  -28.8190   23.3650 C   0  0  0  0  0  0  0  0  0  0  0  0
  -18.9760  -30.0850   23.9500 C   0  0  0  0  0  3  0  0  0  0  0  0
  -17.6690  -30.5770   24.1320 C   0  0  0  0  0  3  0  0  0  0  0  0
  -16.5650  -29.8010   23.7400 C   0  0  0  0  0  3  0  0  0  0  0  0
  -16.7710  -28.5370   23.1590 C   0  0  0  0  0  3  0  0  0  0  0  0
  -25.9520  -32.4850   23.7270 C   0  0  0  0  0  3  0  0  0  0  0  0
  -25.6430  -33.8770   24.0820 N   0  0  0  0  0  0  0  0  0  0  0  0
  -25.9430  -34.9440   23.3270 C   0  0  0  0  0  0  0  0  0  0  0  0
  -26.5800  -34.8570   22.2740 O   0  0  0  0  0  0  0  0  0  0  0  0
  -25.0730  -34.0180   24.9030 H   0  0  0  0  0  0  0  0  0  0  0  0
  -24.1960  -36.7330   23.0500 C   0  0  0  0  0  1  0  0  0  0  0  0
  -25.4630  -36.3230   23.8180 C   0  0  0  0  0  3  0  0  0  0  0  0
  -27.6150  -37.2110   24.6010 C   0  0  0  0  0  1  0  0  0  0  0  0
  -26.4870  -37.3830   23.6890 N   0  0  0  0  0  0  0  0  0  0  0  0
  -26.0800  -38.3000   23.8580 H   0  0  0  0  0  0  0  0  0  0  0  0
  -26.5050  -31.7050   24.9840 C   0  0  1  0  0  0  0  0  0  0  0  0
  -25.4400  -31.4530   26.0770 C   0  0  0  0  0  1  0  0  0  0  0  0
  -27.0850  -30.3330   24.5700 C   0  0  0  0  0  1  0  0  0  0  0  0
  -27.6670  -32.5000   25.6220 C   0  0  0  0  0  1  0  0  0  0  0  0
  1  2  1  0
  2  6  2  0
  3  4  1  0
  3  5  2  0
  4  1  2  0
  5  8  1  0
  5  6  1  0
  6 12  1  0
  8  7  1  0
  9  8  1  0
 10  9  1  0
 12 11  1  0
 13 14  1  0
 13 12  1  0
 15 14  1  0
 16 21  1  0
 17 18  1  0
 17 16  1  0
 19 18  1  0
 19 26  1  0
 19 20  1  0
 21 15  1  0
 21 20  1  0
 22 15  2  0
 23 24  2  0
 24 43  1  0
 25 24  1  0
 25 28  1  0
 26 27  1  0
 26 23  1  0
 27 25  2  0
 28 29  1  0
 29 30  2  0
 31 34  1  0
 31 30  1  0
 32 31  2  0
 33 32  1  0
 33 28  2  0
 34 35  1  0
 35 36  1  0
 36 37  2  0
 38 37  1  0
 38 42  1  0
 39 38  2  0
 40 35  2  0
 40 39  1  0
 41 40  1  0
 43 44  1  0
 44 47  1  0
 44 46  1  0
 45 43  2  0
 48 49  1  0
 48 23  1  0
 50 48  1  0
 51  4  1  0
 51 52  1  0
 53 64  2  0
 54 52  1  0
 54 59  1  0
 55 63  1  0
 55 65  1  0
 56 62  1  0
 56 58  1  0
 57 63  1  0
 58 57  1  0
 59 58  2  0
 60 61  1  0
 60 54  2  0
 61 56  2  0
 62 55  1  0
 63 53  1  0
 65 67  2  0
 66 65  1  0
 68 66  1  0
 69 78  2  0
 69 74  1  0
 70 66  1  0
 70 74  1  0
 71 70  1  0
 72 73  1  0
 72 71  1  0
 73 69  1  0
 74 75  2  0
 75 76  1  0
 77 76  2  0
 78 77  1  0
 79 53  1  0
 79 80  1  0
 79 89  1  0
 80 83  1  0
 81 85  1  0
 81 80  1  0
 82 81  2  0
 85 84  1  0
 87 85  1  0
 87 88  1  0
 87 86  1  0
 89 92  1  1
 89 90  1  0
 91 89  1  0
M  ISO  4  14 100  15 100  51 101  52 101
M  END
>  <TORSDO>  (57) 
F 22

>  <SCORE>  (57) 
-12.627

>  <name>  (57) 
56

>  <ligand_id>  (57) 
56

>  <original_smiles>  (57) 
[H]OC([H])(c1c([H])c(C([H])([H])Oc2c([H])c([H])c3c(c2[H])C([H])([H])N(C(=O)C([H])(N([H])C(=O)C([H])(N([H])C([H])([H])[H])C([H])([H])[H])C(C([H])([H])[H])(C([H])([H])[H])C([H])([H])[H])C([H])(C(=O)N([H])C2([H])c4c([H])c([H])c([H])c([H])c4C([H])([H])C([H])([H])C2([H])[H])C3([H])[H])c([H])c([H])c1N(C([H])([H])[H])C([H])([H])C([H])([H])C(=O)N1C([H])([H])C([H])([H])C([H])([H])C([H])(n2nc(-c3c([H])c([H])c(Oc4c([H])c([H])c(F)c([H])c4F)c([H])c3[H])c(C(=O)N([H])[H])c2N([H])[H])C1([H])[H])C([H])([H])[H]

>  <smiles>  (57) 
[H]OC([H])(c1c([H])c(C([H])([H])Oc2c([H])c([H])c3c(c2[H])C([H])([H])N(C(=O)C([H])(N([H])C(=O)C([H])(N([H])C([H])([H])[H])C([H])([H])[H])C(C([H])([H])[H])(C([H])([H])[H])C([H])([H])[H])C([H])(C(=O)N([H])C2([H])c4c([H])c([H])c([H])c([H])c4C([H])([H])C([H])([H])C2([H])[H])C3([H])[H])c([H])c([H])c1N(C([H])([H])[H])C([H])([H])C([H])([H])C(=O)N1C([H])([H])C([H])([H])C([H])([H])C([H])(n2nc(-c3c([H])c([H])c(Oc4c([H])c([H])c(F)c([H])c4F)c([H])c3[H])c(C(=O)N([H])[H])c2N([H])[H])C1([H])[H])C([H])([H])[H]

$$$$
57:0:0
     RDKit          3D

 95103  0  0  1  0  0  0  0  0999 V2000
  -30.0940  -19.0400   18.5120 C   0  0  0  0  0  2  0  0  0  0  0  0
  -29.2670  -20.6120   20.3940 C   0  0  0  0  0  2  0  0  0  0  0  0
  -30.8270  -20.0930   17.6540 C   0  0  0  0  0  2  0  0  0  0  0  0
  -28.9480  -21.7240   18.0940 C   0  0  0  0  0  2  0  0  0  0  0  0
  -29.4800  -21.9080   19.5450 C   0  0  0  0  0  3  0  0  0  0  0  0
  -30.1230  -19.3550   20.0320 C   0  0  0  0  0  3  0  0  0  0  0  0
  -29.9550  -21.1820   17.1580 N   0  0  0  0  0  4  0  0  0  0  0  0
  -29.4610  -20.8450   16.3470 H   0  0  0  0  0  0  0  0  0  0  0  0
  -30.5430  -21.9350   16.8380 H   0  0  0  0  0  0  0  0  0  0  0  0
  -29.6960  -18.1680   20.8370 N   0  0  0  0  0  4  0  0  0  0  0  0
  -28.8200  -17.8310   20.4710 H   0  0  0  0  0  0  0  0  0  0  0  0
  -29.5170  -18.4740   21.7820 H   0  0  0  0  0  0  0  0  0  0  0  0
  -30.6690  -17.0360   20.9230 C   0  0  0  0  0  2  0  0  0  0  0  0
  -30.0110  -15.6480   21.2060 C   0  0  0  0  0  2  0  0  0  0  0  0
  -30.6870  -14.4540   20.4840 C   0  0  0  0  0  0  0  0  0  0  0  0
  -30.3550  -12.3440   19.2400 C   0  0  0  0  0  2  0  0  0  0  0  0
  -29.4100  -12.6100   18.0510 C   0  0  0  0  0  2  0  0  0  0  0  0
  -27.9370  -12.4680   18.4840 C   0  0  0  0  0  2  0  0  0  0  0  0
  -27.6160  -13.2640   19.7770 C   0  0  0  0  0  3  0  0  0  0  0  0
  -28.6750  -12.9960   20.8700 C   0  0  0  0  0  2  0  0  0  0  0  0
  -30.0010  -13.2920   20.3070 N   0  0  0  0  0  0  0  0  0  0  0  0
  -31.8020  -14.6280   19.9850 O   0  0  0  0  0  0  0  0  0  0  0  0
  -25.2150  -13.8720   20.4810 C   0  0  0  0  0  0  0  0  0  0  0  0
  -24.1490  -13.0990   20.8550 C   0  0  0  0  0  0  0  0  0  0  0  0
  -24.6130  -11.7490   20.8290 C   0  0  0  0  0  0  0  0  0  0  0  0
  -26.2630  -12.9920   20.2550 N   0  0  0  0  0  0  0  0  0  0  0  0
  -25.9020  -11.7100   20.5200 N   0  0  0  0  0  0  0  0  0  0  0  0
  -23.8890  -10.4860   21.0230 C   0  0  0  0  0  0  0  0  0  0  0  0
  -24.3230   -9.5230   21.9610 C   0  0  0  0  0  3  0  0  0  0  0  0
  -23.6000   -8.3240   22.1430 C   0  0  0  0  0  3  0  0  0  0  0  0
  -22.4290   -8.0810   21.3860 C   0  0  0  0  0  0  0  0  0  0  0  0
  -22.0130   -9.0340   20.4380 C   0  0  0  0  0  3  0  0  0  0  0  0
  -22.7370  -10.2240   20.2560 C   0  0  0  0  0  3  0  0  0  0  0  0
  -21.6750   -6.9360   21.4780 O   0  0  0  0  0  0  0  0  0  0  0  0
  -21.6310   -6.1950   22.6330 C   0  0  0  0  0  0  0  0  0  0  0  0
  -21.2050   -6.7510   23.8590 C   0  0  0  0  0  3  0  0  0  0  0  0
  -21.1090   -5.9360   25.0050 C   0  0  0  0  0  3  0  0  0  0  0  0
  -21.4250   -4.5680   24.9250 C   0  0  0  0  0  0  0  0  0  0  0  0
  -21.8430   -4.0110   23.7030 C   0  0  0  0  0  3  0  0  0  0  0  0
  -21.9430   -4.8220   22.5600 C   0  0  0  0  0  0  0  0  0  0  0  0
  -22.3260   -4.2760   21.3800 F   0  0  0  0  0  0  0  0  0  0  0  0
  -21.3240   -3.7830   26.0230 F   0  0  0  0  0  0  0  0  0  0  0  0
  -22.7510  -13.5750   21.1250 C   0  0  0  0  0  0  0  0  0  0  0  0
  -22.0230  -12.8790   21.9920 N   0  0  0  0  0  0  0  0  0  0  0  0
  -22.3120  -14.6000   20.6040 O   0  0  0  0  0  0  0  0  0  0  0  0
  -22.3910  -12.0510   22.4360 H   0  0  0  0  0  0  0  0  0  0  0  0
  -21.0850  -13.1810   22.2140 H   0  0  0  0  0  0  0  0  0  0  0  0
  -25.3740  -15.2420   20.2960 N   0  0  0  0  0  0  0  0  0  0  0  0
  -24.5970  -15.8870   20.3870 H   0  0  0  0  0  0  0  0  0  0  0  0
  -26.2100  -15.6790   19.9330 H   0  0  0  0  0  0  0  0  0  0  0  0
  -28.7900  -23.0070   20.2400 N   0  0  0  0  0  0  0  0  0  0  0  0
  -27.7880  -22.8320   20.2850 H   0  0  0  0  0  0  0  0  0  0  0  0
  -29.0190  -24.3680   19.7350 C   0  0  0  0  0  2  0  0  0  0  0  0
  -28.3700  -25.3900   20.6960 C   0  0  0  0  0  2  0  0  0  0  0  0
  -28.4370  -26.7340   20.1990 O   0  0  0  0  0  0  0  0  0  0  0  0
  -24.5650  -31.8840   23.2410 C   0  0  0  0  0  0  0  0  0  0  0  0
  -27.2560  -27.4440   20.2000 C   0  0  0  0  0  0  0  0  0  0  0  0
  -23.3780  -30.4700   21.5940 C   0  0  0  0  0  3  0  0  0  0  0  0
  -24.8500  -28.9300   20.1880 C   0  0  0  0  0  0  0  0  0  0  0  0
  -25.9020  -30.8390   21.4120 C   0  0  0  0  0  2  0  0  0  0  0  0
  -26.0000  -29.4650   20.7810 C   0  0  0  0  0  0  0  0  0  0  0  0
  -27.2070  -28.7310   20.7820 C   0  0  0  0  0  3  0  0  0  0  0  0
  -26.0910  -26.9190   19.6000 C   0  0  0  0  0  3  0  0  0  0  0  0
  -24.8900  -27.6560   19.5940 C   0  0  0  0  0  3  0  0  0  0  0  0
  -23.5990  -29.7830   20.2210 C   0  0  0  0  0  2  0  0  0  0  0  0
  -24.6340  -31.0780   22.1420 N   0  0  0  0  0  0  0  0  0  0  0  0
  -23.4790  -32.1530   23.7710 O   0  0  0  0  0  0  0  0  0  0  0  0
  -22.7210  -29.4510   22.5530 C   0  0  0  0  0  0  0  0  0  0  0  0
  -21.3970  -29.2690   22.4150 N   0  0  0  0  0  0  0  0  0  0  0  0
  -23.3990  -28.8280   23.3740 O   0  0  0  0  0  0  0  0  0  0  0  0
  -20.9140  -29.8230   21.7230 H   0  0  0  0  0  0  0  0  0  0  0  0
  -18.0180  -28.0820   22.8920 C   0  0  0  0  0  0  0  0  0  0  0  0
  -20.5740  -28.3340   23.1820 C   0  0  0  0  0  3  0  0  0  0  0  0
  -20.6790  -26.9020   22.6070 C   0  0  0  0  0  2  0  0  0  0  0  0
  -19.5840  -26.5820   21.5850 C   0  0  0  0  0  2  0  0  0  0  0  0
  -18.1970  -26.7310   22.2180 C   0  0  0  0  0  2  0  0  0  0  0  0
  -19.1360  -28.8410   23.3290 C   0  0  0  0  0  0  0  0  0  0  0  0
  -18.9160  -30.1050   23.9190 C   0  0  0  0  0  3  0  0  0  0  0  0
  -17.6120  -30.6120   24.0700 C   0  0  0  0  0  3  0  0  0  0  0  0
  -16.5080  -29.8490   23.6510 C   0  0  0  0  0  3  0  0  0  0  0  0
  -16.7140  -28.5850   23.0680 C   0  0  0  0  0  3  0  0  0  0  0  0
  -25.8450  -32.5190   23.8690 C   0  0  0  0  0  3  0  0  0  0  0  0
  -25.5350  -33.9190   24.1850 N   0  0  0  0  0  0  0  0  0  0  0  0
  -25.8790  -34.9640   23.4210 C   0  0  0  0  0  0  0  0  0  0  0  0
  -26.5620  -34.8520   22.3990 O   0  0  0  0  0  0  0  0  0  0  0  0
  -24.9340  -34.0800   24.9800 H   0  0  0  0  0  0  0  0  0  0  0  0
  -24.1580  -36.7540   23.0220 C   0  0  0  0  0  1  0  0  0  0  0  0
  -25.3850  -36.3570   23.8580 C   0  0  0  0  0  3  0  0  0  0  0  0
  -27.5100  -37.2400   24.7150 C   0  0  0  0  0  1  0  0  0  0  0  0
  -26.4200  -37.4090   23.7570 N   0  0  0  0  0  0  0  0  0  0  0  0
  -26.0110  -38.3270   23.9060 H   0  0  0  0  0  0  0  0  0  0  0  0
  -26.3530  -31.7540   25.1530 C   0  0  1  0  0  0  0  0  0  0  0  0
  -25.2510  -31.5190   26.2110 C   0  0  0  0  0  1  0  0  0  0  0  0
  -26.9390  -30.3760   24.7680 C   0  0  0  0  0  1  0  0  0  0  0  0
  -27.4990  -32.5500   25.8210 C   0  0  0  0  0  1  0  0  0  0  0  0
  1  6  1  0
  3  1  1  0
  4  5  1  0
  5 51  1  0
  5  2  1  0
  6  2  1  0
  6 10  1  0
  7  3  1  0
  7  4  1  0
  8  7  1  0
  9  7  1  0
 10 13  1  0
 10 12  1  0
 11 10  1  0
 13 14  1  0
 15 14  1  0
 16 21  1  0
 17 18  1  0
 17 16  1  0
 19 18  1  0
 19 26  1  0
 19 20  1  0
 21 15  1  0
 21 20  1  0
 22 15  2  0
 23 24  2  0
 24 43  1  0
 25 24  1  0
 25 28  1  0
 26 23  1  0
 26 27  1  0
 27 25  2  0
 28 29  1  0
 29 30  2  0
 31 34  1  0
 31 30  1  0
 32 31  2  0
 33 32  1  0
 33 28  2  0
 34 35  1  0
 35 36  1  0
 36 37  2  0
 38 37  1  0
 38 42  1  0
 39 38  2  0
 40 35  2  0
 40 39  1  0
 41 40  1  0
 43 44  1  0
 44 47  1  0
 44 46  1  0
 45 43  2  0
 48 49  1  0
 48 23  1  0
 50 48  1  0
 51 52  1  0
 53 51  1  0
 53 54  1  0
 55 57  1  0
 55 54  1  0
 56 67  2  0
 57 62  1  0
 58 66  1  0
 58 68  1  0
 59 65  1  0
 59 61  1  0
 60 66  1  0
 61 62  2  0
 61 60  1  0
 63 57  2  0
 64 63  1  0
 64 59  2  0
 65 58  1  0
 66 56  1  0
 68 70  2  0
 69 68  1  0
 71 69  1  0
 72 81  2  0
 72 77  1  0
 73 69  1  0
 73 77  1  0
 74 73  1  0
 75 76  1  0
 75 74  1  0
 76 72  1  0
 77 78  2  0
 78 79  1  0
 80 79  2  0
 81 80  1  0
 82 56  1  0
 82 83  1  0
 82 92  1  0
 83 86  1  0
 84 88  1  0
 84 83  1  0
 85 84  2  0
 88 87  1  0
 90 88  1  0
 90 91  1  0
 90 89  1  0
 92 95  1  1
 92 93  1  0
 94 92  1  0
M  ISO  4  14 100  15 100  54 101  55 101
M  END
>  <TORSDO>  (58) 
F 22

>  <SCORE>  (58) 
-13.278

>  <name>  (58) 
57

>  <ligand_id>  (58) 
57

>  <original_smiles>  (58) 
[H]c1c([H])c([H])c2c(c1[H])C([H])([H])C([H])([H])C([H])([H])C2([H])N([H])C(=O)C1([H])N(C(=O)C([H])(N([H])C(=O)C([H])(N([H])C([H])([H])[H])C([H])([H])[H])C(C([H])([H])[H])(C([H])([H])[H])C([H])([H])[H])C([H])([H])c2c([H])c(OC([H])([H])C([H])([H])N([H])C3([H])C([H])([H])C([H])([N+]([H])([H])C([H])([H])C([H])([H])C(=O)N4C([H])([H])C([H])([H])C([H])([H])C([H])(n5nc(-c6c([H])c([H])c(Oc7c([H])c([H])c(F)c([H])c7F)c([H])c6[H])c(C(=O)N([H])[H])c5N([H])[H])C4([H])[H])C([H])([H])C([H])([H])[N+]([H])([H])C3([H])[H])c([H])c([H])c2C1([H])[H]

>  <smiles>  (58) 
[H]c1c([H])c([H])c2c(c1[H])C([H])([H])C([H])([H])C([H])([H])C2([H])N([H])C(=O)C1([H])N(C(=O)C([H])(N([H])C(=O)C([H])(N([H])C([H])([H])[H])C([H])([H])[H])C(C([H])([H])[H])(C([H])([H])[H])C([H])([H])[H])C([H])([H])c2c([H])c(OC([H])([H])C([H])([H])N([H])C3([H])C([H])([H])C([H])([N+]([H])([H])C([H])([H])C([H])([H])C(=O)N4C([H])([H])C([H])([H])C([H])([H])C([H])(n5nc(-c6c([H])c([H])c(Oc7c([H])c([H])c(F)c([H])c7F)c([H])c6[H])c(C(=O)N([H])[H])c5N([H])[H])C4([H])[H])C([H])([H])C([H])([H])[N+]([H])([H])C3([H])[H])c([H])c([H])c2C1([H])[H]

$$$$
58:0:0
     RDKit          3D

 91 99  0  0  1  0  0  0  0  0999 V2000
  -28.8060  -22.3330   20.0930 N   0  0  0  0  0  4  0  0  0  0  0  0
  -27.8190  -22.1460   20.0140 H   0  0  0  0  0  0  0  0  0  0  0  0
  -29.1800  -22.2910   19.1590 H   0  0  0  0  0  0  0  0  0  0  0  0
  -29.3980  -21.1580   20.8760 C   0  0  0  0  0  2  0  0  0  0  0  0
  -30.6170  -18.6380   18.1760 C   0  0  0  0  0  3  0  0  0  0  0  0
  -30.2290  -19.8150   18.8440 C   0  0  0  0  0  3  0  0  0  0  0  0
  -30.5050  -17.3740   18.7870 C   0  0  0  0  0  3  0  0  0  0  0  0
  -29.5680  -18.4530   20.7540 C   0  0  0  0  0  3  0  0  0  0  0  0
  -29.6920  -19.7730   20.1490 C   0  0  0  0  0  0  0  0  0  0  0  0
  -29.9920  -17.2250   20.0970 C   0  0  0  0  0  0  0  0  0  0  0  0
  -30.5920  -14.7170   20.3550 C   0  0  0  0  0  0  0  0  0  0  0  0
  -30.3570  -12.4470   19.3620 C   0  0  0  0  0  2  0  0  0  0  0  0
  -29.4210  -12.5500   18.1380 C   0  0  0  0  0  2  0  0  0  0  0  0
  -27.9490  -12.3960   18.5690 C   0  0  0  0  0  2  0  0  0  0  0  0
  -27.5890  -13.2780   19.7950 C   0  0  0  0  0  3  0  0  0  0  0  0
  -28.6500  -13.1710   20.9130 C   0  0  0  0  0  2  0  0  0  0  0  0
  -29.9530  -13.4990   20.3230 N   0  0  0  0  0  0  0  0  0  0  0  0
  -31.7660  -14.8030   19.9820 O   0  0  0  0  0  0  0  0  0  0  0  0
  -29.8580  -15.8560   20.6520 N   0  0  0  0  0  0  0  0  0  0  0  0
  -29.0050  -15.6830   21.1630 H   0  0  0  0  0  0  0  0  0  0  0  0
  -25.2050  -13.8800   20.5260 C   0  0  0  0  0  0  0  0  0  0  0  0
  -24.1370  -13.1120   20.9020 C   0  0  0  0  0  0  0  0  0  0  0  0
  -24.5940  -11.7590   20.8720 C   0  0  0  0  0  0  0  0  0  0  0  0
  -26.2450  -12.9960   20.2890 N   0  0  0  0  0  0  0  0  0  0  0  0
  -25.8840  -11.7150   20.5590 N   0  0  0  0  0  0  0  0  0  0  0  0
  -23.8630  -10.5000   21.0680 C   0  0  0  0  0  0  0  0  0  0  0  0
  -24.3070   -9.5210   21.9840 C   0  0  0  0  0  3  0  0  0  0  0  0
  -23.5750   -8.3280   22.1670 C   0  0  0  0  0  3  0  0  0  0  0  0
  -22.3850   -8.1050   21.4360 C   0  0  0  0  0  0  0  0  0  0  0  0
  -21.9600   -9.0720   20.5080 C   0  0  0  0  0  3  0  0  0  0  0  0
  -22.6920  -10.2570   20.3230 C   0  0  0  0  0  3  0  0  0  0  0  0
  -21.6230   -6.9650   21.5290 O   0  0  0  0  0  0  0  0  0  0  0  0
  -21.6070   -6.2020   22.6700 C   0  0  0  0  0  0  0  0  0  0  0  0
  -21.2440   -6.7420   23.9240 C   0  0  0  0  0  3  0  0  0  0  0  0
  -21.1740   -5.9070   25.0560 C   0  0  0  0  0  3  0  0  0  0  0  0
  -21.4550   -4.5330   24.9370 C   0  0  0  0  0  0  0  0  0  0  0  0
  -21.8110   -3.9920   23.6880 C   0  0  0  0  0  3  0  0  0  0  0  0
  -21.8830   -4.8250   22.5580 C   0  0  0  0  0  0  0  0  0  0  0  0
  -22.2060   -4.2950   21.3530 F   0  0  0  0  0  0  0  0  0  0  0  0
  -21.3810   -3.7290   26.0230 F   0  0  0  0  0  0  0  0  0  0  0  0
  -22.7430  -13.5960   21.1780 C   0  0  0  0  0  0  0  0  0  0  0  0
  -22.0150  -12.9070   22.0500 N   0  0  0  0  0  0  0  0  0  0  0  0
  -22.3070  -14.6210   20.6540 O   0  0  0  0  0  0  0  0  0  0  0  0
  -22.3800  -12.0790   22.4960 H   0  0  0  0  0  0  0  0  0  0  0  0
  -21.0790  -13.2130   22.2740 H   0  0  0  0  0  0  0  0  0  0  0  0
  -25.3740  -15.2510   20.3460 N   0  0  0  0  0  0  0  0  0  0  0  0
  -24.6090  -15.9070   20.4560 H   0  0  0  0  0  0  0  0  0  0  0  0
  -26.2200  -15.6830   19.9990 H   0  0  0  0  0  0  0  0  0  0  0  0
  -29.0010  -23.7770   20.6010 C   0  0  0  0  0  3  0  0  0  0  0  0
  -28.0720  -24.9320   19.9680 C   0  0  0  0  0  3  0  0  0  0  0  0
  -28.2800  -26.3930   20.2570 O   0  0  0  0  0  0  0  0  0  0  0  0
  -24.6130  -31.8780   23.2450 C   0  0  0  0  0  0  0  0  0  0  0  0
  -27.1830  -27.2830   20.1760 C   0  0  0  0  0  0  0  0  0  0  0  0
  -23.3940  -30.4830   21.6140 C   0  0  0  0  0  3  0  0  0  0  0  0
  -24.8310  -28.9310   20.1740 C   0  0  0  0  0  0  0  0  0  0  0  0
  -25.9360  -30.7850   21.4180 C   0  0  0  0  0  2  0  0  0  0  0  0
  -26.0070  -29.4040   20.7710 C   0  0  0  0  0  0  0  0  0  0  0  0
  -27.1840  -28.5910   20.7650 C   0  0  0  0  0  3  0  0  0  0  0  0
  -25.9890  -26.8870   19.5290 C   0  0  0  0  0  3  0  0  0  0  0  0
  -24.8270  -27.6790   19.5420 C   0  0  0  0  0  3  0  0  0  0  0  0
  -23.5980  -29.8100   20.2320 C   0  0  0  0  0  2  0  0  0  0  0  0
  -24.6670  -31.0670   22.1470 N   0  0  0  0  0  0  0  0  0  0  0  0
  -23.5330  -32.1590   23.7850 O   0  0  0  0  0  0  0  0  0  0  0  0
  -22.7350  -29.4680   22.5780 C   0  0  0  0  0  0  0  0  0  0  0  0
  -21.4080  -29.2920   22.4600 N   0  0  0  0  0  0  0  0  0  0  0  0
  -23.4170  -28.8410   23.3930 O   0  0  0  0  0  0  0  0  0  0  0  0
  -20.9160  -29.8500   21.7760 H   0  0  0  0  0  0  0  0  0  0  0  0
  -18.0330  -28.0900   22.9710 C   0  0  0  0  0  0  0  0  0  0  0  0
  -20.5920  -28.3560   23.2350 C   0  0  0  0  0  3  0  0  0  0  0  0
  -20.6950  -26.9220   22.6680 C   0  0  0  0  0  2  0  0  0  0  0  0
  -19.5920  -26.5910   21.6580 C   0  0  0  0  0  2  0  0  0  0  0  0
  -18.2110  -26.7370   22.3020 C   0  0  0  0  0  2  0  0  0  0  0  0
  -19.1510  -28.8580   23.3950 C   0  0  0  0  0  0  0  0  0  0  0  0
  -18.9300  -30.1230   23.9810 C   0  0  0  0  0  3  0  0  0  0  0  0
  -17.6230  -30.6210   24.1470 C   0  0  0  0  0  3  0  0  0  0  0  0
  -16.5210  -29.8520   23.7380 C   0  0  0  0  0  3  0  0  0  0  0  0
  -16.7260  -28.5880   23.1560 C   0  0  0  0  0  3  0  0  0  0  0  0
  -25.9000  -32.5080   23.8590 C   0  0  0  0  0  3  0  0  0  0  0  0
  -26.4260  -31.7330   25.1290 C   0  0  1  0  0  0  0  0  0  0  0  0
  -25.3420  -31.4970   26.2060 C   0  0  0  0  0  1  0  0  0  0  0  0
  -27.0020  -30.3550   24.7310 C   0  0  0  0  0  1  0  0  0  0  0  0
  -27.5850  -32.5230   25.7810 C   0  0  0  0  0  1  0  0  0  0  0  0
  -25.5930  -33.9060   24.1960 N   0  0  0  0  0  0  0  0  0  0  0  0
  -25.9130  -34.9610   23.4360 C   0  0  0  0  0  0  0  0  0  0  0  0
  -26.5680  -34.8610   22.3940 O   0  0  0  0  0  0  0  0  0  0  0  0
  -25.0100  -34.0580   25.0060 H   0  0  0  0  0  0  0  0  0  0  0  0
  -24.1740  -36.7520   23.1200 C   0  0  0  0  0  1  0  0  0  0  0  0
  -25.4320  -36.3480   23.9050 C   0  0  0  0  0  3  0  0  0  0  0  0
  -27.5840  -37.2360   24.6900 C   0  0  0  0  0  1  0  0  0  0  0  0
  -26.4610  -37.4040   23.7720 N   0  0  0  0  0  0  0  0  0  0  0  0
  -26.0560  -38.3220   23.9300 H   0  0  0  0  0  0  0  0  0  0  0  0
  1 49  1  0
  1  4  1  0
  2  1  1  0
  3  1  1  0
  5  7  2  0
  5  6  1  0
  6  9  2  0
  7 10  1  0
  9  8  1  0
  9  4  1  0
 10 19  1  0
 10  8  2  0
 11 19  1  0
 12 17  1  0
 13 14  1  0
 13 12  1  0
 15 14  1  0
 15 24  1  0
 15 16  1  0
 17 11  1  0
 17 16  1  0
 18 11  2  0
 19 20  1  0
 21 22  2  0
 22 41  1  0
 23 22  1  0
 23 26  1  0
 24 21  1  0
 24 25  1  0
 25 23  2  0
 26 27  1  0
 27 28  2  0
 29 32  1  0
 29 28  1  0
 30 29  2  0
 31 30  1  0
 31 26  2  0
 32 33  1  0
 33 34  1  0
 34 35  2  0
 36 35  1  0
 36 40  1  0
 37 36  2  0
 38 33  2  0
 38 37  1  0
 39 38  1  0
 41 42  1  0
 42 45  1  0
 42 44  1  0
 43 41  2  0
 46 47  1  0
 46 21  1  0
 48 46  1  0
 50 51  1  0
 50 49  2  0
 52 63  2  0
 53 51  1  0
 53 58  1  0
 54 62  1  0
 54 64  1  0
 55 61  1  0
 55 57  1  0
 56 62  1  0
 57 56  1  0
 58 57  2  0
 59 60  1  0
 59 53  2  0
 60 55  2  0
 61 54  1  0
 62 52  1  0
 64 66  2  0
 65 64  1  0
 67 65  1  0
 68 77  2  0
 68 73  1  0
 69 65  1  0
 69 73  1  0
 70 69  1  0
 71 72  1  0
 71 70  1  0
 72 68  1  0
 73 74  2  0
 74 75  1  0
 76 75  2  0
 77 76  1  0
 78 52  1  0
 78 83  1  0
 78 79  1  0
 79 82  1  1
 79 80  1  0
 81 79  1  0
 83 86  1  0
 84 88  1  0
 84 83  1  0
 85 84  2  0
 88 87  1  0
 90 88  1  0
 90 91  1  0
 90 89  1  0
M  ISO  4  11 100  19 100  50 101  51 101
M  END
>  <TORSDO>  (59) 
F 20

>  <SCORE>  (59) 
-13.766

>  <name>  (59) 
58

>  <ligand_id>  (59) 
58

>  <original_smiles>  (59) 
[H]c1c([H])c([H])c2c(c1[H])C([H])([H])C([H])([H])C([H])([H])C2([H])N([H])C(=O)C1([H])N(C(=O)C([H])(N([H])C(=O)C([H])(N([H])C([H])([H])[H])C([H])([H])[H])C(C([H])([H])[H])(C([H])([H])[H])C([H])([H])[H])C([H])([H])c2c([H])c(OC([H])([H])C([H])([H])[N+]([H])([H])C([H])([H])c3c([H])c([H])c([H])c(N([H])C(=O)N4C([H])([H])C([H])([H])C([H])([H])C([H])(n5nc(-c6c([H])c([H])c(Oc7c([H])c([H])c(F)c([H])c7F)c([H])c6[H])c(C(=O)N([H])[H])c5N([H])[H])C4([H])[H])c3[H])c([H])c([H])c2C1([H])[H]

>  <smiles>  (59) 
[H]c1c([H])c([H])c2c(c1[H])C([H])([H])C([H])([H])C([H])([H])C2([H])N([H])C(=O)C1([H])N(C(=O)C([H])(N([H])C(=O)C([H])(N([H])C([H])([H])[H])C([H])([H])[H])C(C([H])([H])[H])(C([H])([H])[H])C([H])([H])[H])C([H])([H])c2c([H])c(OC([H])([H])C([H])([H])[N+]([H])([H])C([H])([H])c3c([H])c([H])c([H])c(N([H])C(=O)N4C([H])([H])C([H])([H])C([H])([H])C([H])(n5nc(-c6c([H])c([H])c(Oc7c([H])c([H])c(F)c([H])c7F)c([H])c6[H])c(C(=O)N([H])[H])c5N([H])[H])C4([H])[H])c3[H])c([H])c([H])c2C1([H])[H]

$$$$
59:0:0
     RDKit          3D

 97105  0  0  1  0  0  0  0  0999 V2000
  -27.6890  -22.7930   21.5960 C   0  0  0  0  0  3  0  0  0  0  0  0
  -26.4420  -23.2070   22.1010 C   0  0  0  0  0  3  0  0  0  0  0  0
  -26.9250  -25.4740   21.3880 C   0  0  0  0  0  3  0  0  0  0  0  0
  -28.6010  -23.7180   21.0160 C   0  0  0  0  0  0  0  0  0  0  0  0
  -28.1940  -25.0860   20.9070 C   0  0  0  0  0  0  0  0  0  0  0  0
  -26.0670  -24.5650   22.0370 C   0  0  0  0  0  0  0  0  0  0  0  0
  -23.9850  -24.1980   23.3580 C   0  0  0  0  0  1  0  0  0  0  0  0
  -24.8930  -25.0720   22.6190 N   0  0  0  0  0  0  0  0  0  0  0  0
  -24.9380  -26.0350   22.9430 H   0  0  0  0  0  0  0  0  0  0  0  0
  -30.0090  -23.2690   20.5660 C   0  0  0  0  0  2  0  0  0  0  0  0
  -30.1350  -21.9140   19.9590 N   0  0  0  0  0  4  0  0  0  0  0  0
  -30.8590  -21.9860   19.2580 H   0  0  0  0  0  0  0  0  0  0  0  0
  -29.2810  -21.6910   19.4770 H   0  0  0  0  0  0  0  0  0  0  0  0
  -30.5300  -20.7940   20.8570 C   0  0  0  0  0  2  0  0  0  0  0  0
  -30.1150  -19.4120   20.2800 C   0  0  0  0  0  2  0  0  0  0  0  0
  -30.4660  -18.1910   21.1780 C   0  0  0  0  0  2  0  0  0  0  0  0
  -29.9970  -16.8640   20.5220 C   0  0  0  0  0  2  0  0  0  0  0  0
  -30.8770  -14.5720   20.6450 C   0  0  0  0  0  0  0  0  0  0  0  0
  -30.5260  -12.4820   19.3880 C   0  0  0  0  0  2  0  0  0  0  0  0
  -29.5920  -12.7830   18.1990 C   0  0  0  0  0  2  0  0  0  0  0  0
  -28.1180  -12.6320   18.6130 C   0  0  0  0  0  2  0  0  0  0  0  0
  -27.7870  -13.3960   19.9210 C   0  0  0  0  0  3  0  0  0  0  0  0
  -28.8390  -13.1120   21.0240 C   0  0  0  0  0  2  0  0  0  0  0  0
  -30.1790  -13.4100   20.4840 N   0  0  0  0  0  0  0  0  0  0  0  0
  -31.9610  -14.7820   20.1010 O   0  0  0  0  0  0  0  0  0  0  0  0
  -30.2050  -15.5890   21.2230 N   0  0  0  0  0  0  0  0  0  0  0  0
  -29.4230  -15.2940   21.7910 H   0  0  0  0  0  0  0  0  0  0  0  0
  -25.3880  -13.9910   20.6230 C   0  0  0  0  0  0  0  0  0  0  0  0
  -24.3070  -13.2140   20.9510 C   0  0  0  0  0  0  0  0  0  0  0  0
  -24.7530  -11.8580   20.8620 C   0  0  0  0  0  0  0  0  0  0  0  0
  -26.4290  -13.1100   20.3730 N   0  0  0  0  0  0  0  0  0  0  0  0
  -26.0470  -11.8200   20.5630 N   0  0  0  0  0  0  0  0  0  0  0  0
  -24.0060  -10.5990   20.9930 C   0  0  0  0  0  0  0  0  0  0  0  0
  -24.4430   -9.5660   21.8530 C   0  0  0  0  0  3  0  0  0  0  0  0
  -23.7000   -8.3730   21.9760 C   0  0  0  0  0  3  0  0  0  0  0  0
  -22.5040   -8.2030   21.2410 C   0  0  0  0  0  0  0  0  0  0  0  0
  -22.0840   -9.2220   20.3660 C   0  0  0  0  0  3  0  0  0  0  0  0
  -22.8290  -10.4070   20.2410 C   0  0  0  0  0  3  0  0  0  0  0  0
  -21.7300   -7.0680   21.2780 O   0  0  0  0  0  0  0  0  0  0  0  0
  -21.7130   -6.2440   22.3730 C   0  0  0  0  0  0  0  0  0  0  0  0
  -21.3560   -6.7140   23.6570 C   0  0  0  0  0  3  0  0  0  0  0  0
  -21.2850   -5.8170   24.7410 C   0  0  0  0  0  3  0  0  0  0  0  0
  -21.5600   -4.4510   24.5450 C   0  0  0  0  0  0  0  0  0  0  0  0
  -21.9120   -3.9790   23.2670 C   0  0  0  0  0  3  0  0  0  0  0  0
  -21.9860   -4.8740   22.1850 C   0  0  0  0  0  0  0  0  0  0  0  0
  -22.3030   -4.4110   20.9510 F   0  0  0  0  0  0  0  0  0  0  0  0
  -21.4840   -3.5870   25.5830 F   0  0  0  0  0  0  0  0  0  0  0  0
  -22.9130  -13.6980   21.2330 C   0  0  0  0  0  0  0  0  0  0  0  0
  -22.1730  -12.9770   22.0690 N   0  0  0  0  0  0  0  0  0  0  0  0
  -22.4910  -14.7490   20.7530 O   0  0  0  0  0  0  0  0  0  0  0  0
  -22.5260  -12.1270   22.4790 H   0  0  0  0  0  0  0  0  0  0  0  0
  -21.2330  -13.2780   22.2910 H   0  0  0  0  0  0  0  0  0  0  0  0
  -25.5720  -15.3650   20.5050 N   0  0  0  0  0  0  0  0  0  0  0  0
  -24.8060  -16.0210   20.6130 H   0  0  0  0  0  0  0  0  0  0  0  0
  -26.4300  -15.8030   20.1950 H   0  0  0  0  0  0  0  0  0  0  0  0
  -29.1080  -26.2140   20.4110 C   0  0  0  0  0  2  0  0  0  0  0  0
  -28.5870  -27.0230   19.3590 O   0  0  0  0  0  0  0  0  0  0  0  0
  -24.5980  -31.7360   23.0560 C   0  0  0  0  0  0  0  0  0  0  0  0
  -27.4200  -27.7210   19.5640 C   0  0  0  0  0  0  0  0  0  0  0  0
  -23.4660  -30.5040   21.2360 C   0  0  0  0  0  3  0  0  0  0  0  0
  -24.9930  -29.1590   19.6970 C   0  0  0  0  0  0  0  0  0  0  0  0
  -25.9890  -30.9380   21.1450 C   0  0  0  0  0  2  0  0  0  0  0  0
  -26.1260  -29.6440   20.3670 C   0  0  0  0  0  0  0  0  0  0  0  0
  -27.3510  -28.9330   20.2930 C   0  0  0  0  0  3  0  0  0  0  0  0
  -26.2710  -27.2560   18.8980 C   0  0  0  0  0  3  0  0  0  0  0  0
  -25.0580  -27.9660   18.9640 C   0  0  0  0  0  3  0  0  0  0  0  0
  -23.7260  -29.9820   19.8000 C   0  0  0  0  0  2  0  0  0  0  0  0
  -24.7000  -31.0650   21.8750 N   0  0  0  0  0  0  0  0  0  0  0  0
  -23.4960  -31.9210   23.5970 O   0  0  0  0  0  0  0  0  0  0  0  0
  -22.8140  -29.3680   22.0600 C   0  0  0  0  0  0  0  0  0  0  0  0
  -21.4820  -29.2420   21.9500 N   0  0  0  0  0  0  0  0  0  0  0  0
  -23.5000  -28.6150   22.7530 O   0  0  0  0  0  0  0  0  0  0  0  0
  -20.9900  -29.9030   21.3650 H   0  0  0  0  0  0  0  0  0  0  0  0
  -18.0730  -28.1660   22.4930 C   0  0  0  0  0  0  0  0  0  0  0  0
  -20.6570  -28.2230   22.5990 C   0  0  0  0  0  3  0  0  0  0  0  0
  -20.6180  -26.9240   21.7620 C   0  0  0  0  0  2  0  0  0  0  0  0
  -19.4270  -26.8630   20.7990 C   0  0  0  0  0  2  0  0  0  0  0  0
  -18.1070  -26.9620   21.5680 C   0  0  0  0  0  2  0  0  0  0  0  0
  -19.2720  -28.7660   22.9660 C   0  0  0  0  0  0  0  0  0  0  0  0
  -19.1820  -29.9040   23.7960 C   0  0  0  0  0  3  0  0  0  0  0  0
  -17.9320  -30.4410   24.1520 C   0  0  0  0  0  3  0  0  0  0  0  0
  -16.7480  -29.8330   23.6960 C   0  0  0  0  0  3  0  0  0  0  0  0
  -16.8230  -28.6940   22.8730 C   0  0  0  0  0  3  0  0  0  0  0  0
  -25.8530  -32.3160   23.7780 C   0  0  0  0  0  3  0  0  0  0  0  0
  -25.5170  -33.6750   24.2190 N   0  0  0  0  0  0  0  0  0  0  0  0
  -25.8800  -34.7920   23.5770 C   0  0  0  0  0  0  0  0  0  0  0  0
  -26.5970  -34.7850   22.5730 O   0  0  0  0  0  0  0  0  0  0  0  0
  -24.8720  -33.7530   24.9910 H   0  0  0  0  0  0  0  0  0  0  0  0
  -24.1500  -36.6010   23.3180 C   0  0  0  0  0  1  0  0  0  0  0  0
  -25.3620  -36.1310   24.1360 C   0  0  0  0  0  3  0  0  0  0  0  0
  -27.4560  -36.9530   25.1240 C   0  0  0  0  0  1  0  0  0  0  0  0
  -26.3870  -37.1950   24.1580 N   0  0  0  0  0  0  0  0  0  0  0  0
  -25.9670  -38.0940   24.3700 H   0  0  0  0  0  0  0  0  0  0  0  0
  -26.3310  -31.4340   24.9960 C   0  0  1  0  0  0  0  0  0  0  0  0
  -25.2050  -31.1170   26.0080 C   0  0  0  0  0  1  0  0  0  0  0  0
  -26.9170  -30.0930   24.4970 C   0  0  0  0  0  1  0  0  0  0  0  0
  -27.4600  -32.1650   25.7610 C   0  0  0  0  0  1  0  0  0  0  0  0
  1  2  1  0
  3  6  1  0
  4  1  2  0
  5  4  1  0
  5  3  2  0
  6  2  2  0
  6  8  1  0
  8  9  1  0
  8  7  1  0
 10  4  1  0
 11 10  1  0
 11 14  1  0
 12 11  1  0
 13 11  1  0
 15 14  1  0
 15 16  1  0
 17 16  1  0
 17 26  1  0
 18 26  1  0
 19 24  1  0
 20 21  1  0
 20 19  1  0
 22 21  1  0
 22 31  1  0
 22 23  1  0
 24 18  1  0
 24 23  1  0
 25 18  2  0
 26 27  1  0
 28 29  2  0
 29 48  1  0
 30 29  1  0
 30 33  1  0
 31 32  1  0
 31 28  1  0
 32 30  2  0
 33 34  1  0
 34 35  2  0
 36 39  1  0
 36 35  1  0
 37 36  2  0
 38 37  1  0
 38 33  2  0
 39 40  1  0
 40 41  1  0
 41 42  2  0
 43 42  1  0
 43 47  1  0
 44 43  2  0
 45 40  2  0
 45 44  1  0
 46 45  1  0
 48 49  1  0
 49 52  1  0
 49 51  1  0
 50 48  2  0
 53 54  1  0
 53 28  1  0
 55 53  1  0
 56  5  1  0
 57 59  1  0
 57 56  1  0
 58 69  2  0
 59 64  1  0
 60 68  1  0
 60 70  1  0
 61 67  1  0
 61 63  1  0
 62 68  1  0
 63 62  1  0
 64 63  2  0
 65 66  1  0
 65 59  2  0
 66 61  2  0
 67 60  1  0
 68 58  1  0
 70 72  2  0
 71 70  1  0
 73 71  1  0
 74 83  2  0
 74 79  1  0
 75 71  1  0
 75 79  1  0
 76 75  1  0
 77 78  1  0
 77 76  1  0
 78 74  1  0
 79 80  2  0
 80 81  1  0
 82 81  2  0
 83 82  1  0
 84 58  1  0
 84 85  1  0
 84 94  1  0
 85 88  1  0
 86 90  1  0
 86 85  1  0
 87 86  2  0
 90 89  1  0
 90 92  1  0
 92 93  1  0
 92 91  1  0
 94 97  1  1
 94 95  1  0
 96 94  1  0
M  ISO  4  18 100  26 100  56 101  57 101
M  END
>  <TORSDO>  (60) 
F 24

>  <SCORE>  (60) 
-11.744

>  <name>  (60) 
59

>  <ligand_id>  (60) 
59

>  <original_smiles>  (60) 
[H]c1c([H])c([H])c2c(c1[H])C([H])([H])C([H])([H])C([H])([H])C2([H])N([H])C(=O)C1([H])N(C(=O)C([H])(N([H])C(=O)C([H])(N([H])C([H])([H])[H])C([H])([H])[H])C(C([H])([H])[H])(C([H])([H])[H])C([H])([H])[H])C([H])([H])c2c([H])c(OC([H])([H])c3c([H])c(N([H])C([H])([H])[H])c([H])c([H])c3C([H])([H])[N+]([H])([H])C([H])([H])C([H])([H])C([H])([H])C([H])([H])N([H])C(=O)N3C([H])([H])C([H])([H])C([H])([H])C([H])(n4nc(-c5c([H])c([H])c(Oc6c([H])c([H])c(F)c([H])c6F)c([H])c5[H])c(C(=O)N([H])[H])c4N([H])[H])C3([H])[H])c([H])c([H])c2C1([H])[H]

>  <smiles>  (60) 
[H]c1c([H])c([H])c2c(c1[H])C([H])([H])C([H])([H])C([H])([H])C2([H])N([H])C(=O)C1([H])N(C(=O)C([H])(N([H])C(=O)C([H])(N([H])C([H])([H])[H])C([H])([H])[H])C(C([H])([H])[H])(C([H])([H])[H])C([H])([H])[H])C([H])([H])c2c([H])c(OC([H])([H])c3c([H])c(N([H])C([H])([H])[H])c([H])c([H])c3C([H])([H])[N+]([H])([H])C([H])([H])C([H])([H])C([H])([H])C([H])([H])N([H])C(=O)N3C([H])([H])C([H])([H])C([H])([H])C([H])(n4nc(-c5c([H])c([H])c(Oc6c([H])c([H])c(F)c([H])c6F)c([H])c5[H])c(C(=O)N([H])[H])c4N([H])[H])C3([H])[H])c([H])c([H])c2C1([H])[H]

$$$$
60:0:0
     RDKit          3D

 92100  0  0  1  0  0  0  0  0999 V2000
  -29.6040  -22.1970   21.1620 N   0  0  0  0  0  4  0  0  0  0  0  0
  -28.8910  -22.0530   20.4680 H   0  0  0  0  0  0  0  0  0  0  0  0
  -30.4980  -22.1460   20.7040 H   0  0  0  0  0  0  0  0  0  0  0  0
  -29.5290  -21.0830   22.1490 C   0  0  0  0  0  2  0  0  0  0  0  0
  -28.7580  -19.0880   20.7480 C   0  0  0  0  0  3  0  0  0  0  0  0
  -30.8980  -18.9160   21.8760 C   0  0  0  0  0  3  0  0  0  0  0  0
  -28.9450  -17.7940   20.2190 C   0  0  0  0  0  3  0  0  0  0  0  0
  -31.0840  -17.6140   21.3500 C   0  0  0  0  0  3  0  0  0  0  0  0
  -29.7440  -19.6770   21.5650 C   0  0  0  0  0  0  0  0  0  0  0  0
  -30.1180  -17.0450   20.4820 C   0  0  0  0  0  0  0  0  0  0  0  0
  -31.0830  -14.7620   20.1260 C   0  0  0  0  0  0  0  0  0  0  0  0
  -30.7500  -12.5330   19.1440 C   0  0  0  0  0  2  0  0  0  0  0  0
  -29.7750  -12.6470   17.9510 C   0  0  0  0  0  2  0  0  0  0  0  0
  -28.3110  -12.5780   18.4250 C   0  0  0  0  0  2  0  0  0  0  0  0
  -28.0070  -13.4730   19.6590 C   0  0  0  0  0  3  0  0  0  0  0  0
  -29.0990  -13.3390   20.7450 C   0  0  0  0  0  2  0  0  0  0  0  0
  -30.3980  -13.5860   20.1070 N   0  0  0  0  0  0  0  0  0  0  0  0
  -32.3000  -14.8170   19.9290 O   0  0  0  0  0  0  0  0  0  0  0  0
  -30.2660  -16.0430   18.2730 C   0  0  0  0  0  1  0  0  0  0  0  0
  -30.3330  -15.8320   19.7330 N   0  0  0  0  0  0  0  0  0  0  0  0
  -25.6490  -14.1210   20.4520 C   0  0  0  0  0  0  0  0  0  0  0  0
  -24.5730  -13.3650   20.8300 C   0  0  0  0  0  0  0  0  0  0  0  0
  -25.0040  -12.0040   20.7660 C   0  0  0  0  0  0  0  0  0  0  0  0
  -26.6680  -13.2190   20.1830 N   0  0  0  0  0  0  0  0  0  0  0  0
  -26.2870  -11.9410   20.4350 N   0  0  0  0  0  0  0  0  0  0  0  0
  -24.2550  -10.7540   20.9470 C   0  0  0  0  0  0  0  0  0  0  0  0
  -24.6450   -9.7920   21.9050 C   0  0  0  0  0  3  0  0  0  0  0  0
  -23.8980   -8.6080   22.0740 C   0  0  0  0  0  3  0  0  0  0  0  0
  -22.7460   -8.3750   21.2840 C   0  0  0  0  0  0  0  0  0  0  0  0
  -22.3760   -9.3250   20.3160 C   0  0  0  0  0  3  0  0  0  0  0  0
  -23.1240  -10.5010   20.1450 C   0  0  0  0  0  3  0  0  0  0  0  0
  -21.9750   -7.2400   21.3610 O   0  0  0  0  0  0  0  0  0  0  0  0
  -21.8140   -6.5590   22.5410 C   0  0  0  0  0  0  0  0  0  0  0  0
  -21.2430   -7.1660   23.6800 C   0  0  0  0  0  3  0  0  0  0  0  0
  -21.0300   -6.4110   24.8490 C   0  0  0  0  0  3  0  0  0  0  0  0
  -21.3790   -5.0470   24.8810 C   0  0  0  0  0  0  0  0  0  0  0  0
  -21.9420   -4.4380   23.7450 C   0  0  0  0  0  3  0  0  0  0  0  0
  -22.1570   -5.1920   22.5770 C   0  0  0  0  0  0  0  0  0  0  0  0
  -22.6800   -4.5960   21.4790 F   0  0  0  0  0  0  0  0  0  0  0  0
  -21.1690   -4.3180   26.0010 F   0  0  0  0  0  0  0  0  0  0  0  0
  -23.1930  -13.8660   21.1420 C   0  0  0  0  0  0  0  0  0  0  0  0
  -22.4750  -13.1760   22.0210 N   0  0  0  0  0  0  0  0  0  0  0  0
  -22.7620  -14.9050   20.6440 O   0  0  0  0  0  0  0  0  0  0  0  0
  -22.8380  -12.3360   22.4450 H   0  0  0  0  0  0  0  0  0  0  0  0
  -21.5520  -13.4970   22.2770 H   0  0  0  0  0  0  0  0  0  0  0  0
  -25.8400  -15.4890   20.2950 N   0  0  0  0  0  0  0  0  0  0  0  0
  -25.0940  -16.1610   20.4370 H   0  0  0  0  0  0  0  0  0  0  0  0
  -26.7040  -15.9130   19.9830 H   0  0  0  0  0  0  0  0  0  0  0  0
  -29.4430  -23.5460   21.7800 C   0  0  0  0  0  2  0  0  0  0  0  0
  -29.6640  -24.7770   20.8420 C   0  0  0  0  0  2  0  0  0  0  0  0
  -28.3700  -25.4700   20.3450 C   0  0  0  0  0  2  0  0  0  0  0  0
  -28.5570  -26.8610   19.9970 O   0  0  0  0  0  0  0  0  0  0  0  0
  -24.6760  -31.8810   23.2300 C   0  0  0  0  0  0  0  0  0  0  0  0
  -27.3940  -27.6100   19.9740 C   0  0  0  0  0  0  0  0  0  0  0  0
  -23.4950  -30.5310   21.5280 C   0  0  0  0  0  3  0  0  0  0  0  0
  -24.9760  -29.0860   20.0370 C   0  0  0  0  0  0  0  0  0  0  0  0
  -26.0160  -30.9420   21.3470 C   0  0  0  0  0  2  0  0  0  0  0  0
  -26.1270  -29.6030   20.6450 C   0  0  0  0  0  0  0  0  0  0  0  0
  -27.3410  -28.8760   20.6060 C   0  0  0  0  0  3  0  0  0  0  0  0
  -26.2260  -27.1160   19.3510 C   0  0  0  0  0  3  0  0  0  0  0  0
  -25.0220  -27.8420   19.3830 C   0  0  0  0  0  3  0  0  0  0  0  0
  -23.7160  -29.9150   20.1220 C   0  0  0  0  0  2  0  0  0  0  0  0
  -24.7470  -31.1300   22.0940 N   0  0  0  0  0  0  0  0  0  0  0  0
  -23.5910  -32.1100   23.7800 O   0  0  0  0  0  0  0  0  0  0  0  0
  -22.8620  -29.4570   22.4440 C   0  0  0  0  0  0  0  0  0  0  0  0
  -21.5420  -29.2540   22.3070 N   0  0  0  0  0  0  0  0  0  0  0  0
  -23.5560  -28.8110   23.2330 O   0  0  0  0  0  0  0  0  0  0  0  0
  -21.0420  -29.8290   21.6430 H   0  0  0  0  0  0  0  0  0  0  0  0
  -18.1880  -27.9830   22.7500 C   0  0  0  0  0  0  0  0  0  0  0  0
  -20.7420  -28.2710   23.0350 C   0  0  0  0  0  3  0  0  0  0  0  0
  -20.8670  -26.8680   22.3960 C   0  0  0  0  0  2  0  0  0  0  0  0
  -19.7710  -26.5730   21.3670 C   0  0  0  0  0  2  0  0  0  0  0  0
  -18.3870  -26.6670   22.0160 C   0  0  0  0  0  2  0  0  0  0  0  0
  -19.2950  -28.7430   23.2150 C   0  0  0  0  0  0  0  0  0  0  0  0
  -19.0550  -29.9770   23.8590 C   0  0  0  0  0  3  0  0  0  0  0  0
  -17.7420  -30.4500   24.0430 C   0  0  0  0  0  3  0  0  0  0  0  0
  -16.6510  -29.6850   23.5970 C   0  0  0  0  0  3  0  0  0  0  0  0
  -16.8750  -28.4530   22.9570 C   0  0  0  0  0  3  0  0  0  0  0  0
  -25.9520  -32.5070   23.8760 C   0  0  0  0  0  3  0  0  0  0  0  0
  -25.6260  -33.8920   24.2440 N   0  0  0  0  0  0  0  0  0  0  0  0
  -25.9620  -34.9690   23.5220 C   0  0  0  0  0  0  0  0  0  0  0  0
  -26.6490  -34.9020   22.4990 O   0  0  0  0  0  0  0  0  0  0  0  0
  -25.0130  -34.0170   25.0370 H   0  0  0  0  0  0  0  0  0  0  0  0
  -24.2370  -36.7670   23.1770 C   0  0  0  0  0  1  0  0  0  0  0  0
  -25.4550  -36.3380   24.0120 C   0  0  0  0  0  3  0  0  0  0  0  0
  -27.5550  -37.2060   24.9430 C   0  0  0  0  0  1  0  0  0  0  0  0
  -26.4860  -37.3980   23.9660 N   0  0  0  0  0  0  0  0  0  0  0  0
  -26.0710  -38.3120   24.1260 H   0  0  0  0  0  0  0  0  0  0  0  0
  -26.4720  -31.7050   25.1310 C   0  0  1  0  0  0  0  0  0  0  0  0
  -25.3770  -31.4160   26.1830 C   0  0  0  0  0  1  0  0  0  0  0  0
  -27.0770  -30.3490   24.6980 C   0  0  0  0  0  1  0  0  0  0  0  0
  -27.6080  -32.4940   25.8250 C   0  0  0  0  0  1  0  0  0  0  0  0
  1 49  1  0
  1  4  1  0
  2  1  1  0
  3  1  1  0
  5  9  1  0
  7 10  1  0
  7  5  2  0
  8  6  1  0
  9  6  2  0
  9  4  1  0
 10  8  2  0
 12 17  1  0
 13 14  1  0
 13 12  1  0
 15 14  1  0
 15 24  1  0
 15 16  1  0
 17 11  1  0
 17 16  1  0
 18 11  2  0
 19 20  1  0
 20 11  1  0
 20 10  1  0
 21 22  2  0
 22 41  1  0
 23 22  1  0
 23 26  1  0
 24 25  1  0
 24 21  1  0
 25 23  2  0
 26 27  1  0
 27 28  2  0
 29 32  1  0
 29 28  1  0
 30 29  2  0
 31 30  1  0
 31 26  2  0
 32 33  1  0
 33 38  2  0
 33 34  1  0
 34 35  2  0
 35 36  1  0
 36 40  1  0
 37 36  2  0
 38 37  1  0
 39 38  1  0
 41 42  1  0
 42 45  1  0
 42 44  1  0
 43 41  2  0
 46 47  1  0
 46 21  1  0
 48 46  1  0
 50 49  1  0
 51 50  1  0
 52 51  1  0
 53 64  2  0
 54 52  1  0
 54 59  1  0
 55 63  1  0
 55 65  1  0
 56 62  1  0
 56 58  1  0
 57 63  1  0
 58 57  1  0
 59 58  2  0
 60 61  1  0
 60 54  2  0
 61 56  2  0
 62 55  1  0
 63 53  1  0
 65 67  2  0
 66 65  1  0
 68 66  1  0
 69 78  2  0
 69 74  1  0
 70 66  1  0
 70 74  1  0
 71 70  1  0
 72 73  1  0
 72 71  1  0
 73 69  1  0
 74 75  2  0
 75 76  1  0
 77 76  2  0
 78 77  1  0
 79 53  1  0
 79 80  1  0
 79 89  1  0
 80 83  1  0
 81 85  1  0
 81 80  1  0
 82 81  2  0
 85 84  1  0
 87 85  1  0
 87 88  1  0
 87 86  1  0
 89 92  1  1
 89 90  1  0
 91 89  1  0
M  ISO  4  11 100  20 100  51 101  52 101
M  END
>  <TORSDO>  (61) 
F 21

>  <SCORE>  (61) 
-12.363

>  <name>  (61) 
60

>  <ligand_id>  (61) 
60

>  <original_smiles>  (61) 
[H]c1c([H])c([H])c2c(c1[H])C([H])([H])C([H])([H])C([H])([H])C2([H])N([H])C(=O)C1([H])N(C(=O)C([H])(N([H])C(=O)C([H])(N([H])C([H])([H])[H])C([H])([H])[H])C(C([H])([H])[H])(C([H])([H])[H])C([H])([H])[H])C([H])([H])c2c([H])c(OC([H])([H])C([H])([H])C([H])([H])[N+]([H])([H])C([H])([H])c3c([H])c([H])c(N(C(=O)N4C([H])([H])C([H])([H])C([H])([H])C([H])(n5nc(-c6c([H])c([H])c(Oc7c([H])c([H])c(F)c([H])c7F)c([H])c6[H])c(C(=O)N([H])[H])c5N([H])[H])C4([H])[H])C([H])([H])[H])c([H])c3[H])c([H])c([H])c2C1([H])[H]

>  <smiles>  (61) 
[H]c1c([H])c([H])c2c(c1[H])C([H])([H])C([H])([H])C([H])([H])C2([H])N([H])C(=O)C1([H])N(C(=O)C([H])(N([H])C(=O)C([H])(N([H])C([H])([H])[H])C([H])([H])[H])C(C([H])([H])[H])(C([H])([H])[H])C([H])([H])[H])C([H])([H])c2c([H])c(OC([H])([H])C([H])([H])C([H])([H])[N+]([H])([H])C([H])([H])c3c([H])c([H])c(N(C(=O)N4C([H])([H])C([H])([H])C([H])([H])C([H])(n5nc(-c6c([H])c([H])c(Oc7c([H])c([H])c(F)c([H])c7F)c([H])c6[H])c(C(=O)N([H])[H])c5N([H])[H])C4([H])[H])C([H])([H])[H])c([H])c3[H])c([H])c([H])c2C1([H])[H]

$$$$
61:0:0
     RDKit          3D

 93100  0  0  1  0  0  0  0  0999 V2000
  -29.5680  -20.5480   20.9670 C   0  0  0  0  0  0  0  0  0  0  0  0
  -29.8270  -21.8450   20.7050 N   0  0  0  0  0  0  0  0  0  0  0  0
  -28.4150  -20.1060   20.9560 O   0  0  0  0  0  0  0  0  0  0  0  0
  -30.7920  -22.1520   20.7100 H   0  0  0  0  0  0  0  0  0  0  0  0
  -28.7910  -22.8330   20.3720 C   0  0  0  0  0  2  0  0  0  0  0  0
  -29.2180  -24.3170   20.5220 C   0  0  0  0  0  2  0  0  0  0  0  0
  -28.0610  -25.2400   20.0810 C   0  0  0  0  0  2  0  0  0  0  0  0
  -28.2610  -26.6630   20.2200 O   0  0  0  0  0  0  0  0  0  0  0  0
  -24.5530  -31.9440   23.2560 C   0  0  0  0  0  0  0  0  0  0  0  0
  -27.1110  -27.4380   20.1770 C   0  0  0  0  0  0  0  0  0  0  0  0
  -23.3110  -30.5330   21.6530 C   0  0  0  0  0  3  0  0  0  0  0  0
  -24.7290  -28.9810   20.2150 C   0  0  0  0  0  0  0  0  0  0  0  0
  -25.8370  -30.8720   21.4050 C   0  0  0  0  0  2  0  0  0  0  0  0
  -25.9040  -29.4940   20.7780 C   0  0  0  0  0  0  0  0  0  0  0  0
  -27.0970  -28.7310   20.7580 C   0  0  0  0  0  3  0  0  0  0  0  0
  -25.9110  -26.9620   19.5880 C   0  0  0  0  0  3  0  0  0  0  0  0
  -24.7280  -27.7130   19.6190 C   0  0  0  0  0  3  0  0  0  0  0  0
  -23.4930  -29.8470   20.2740 C   0  0  0  0  0  2  0  0  0  0  0  0
  -24.5880  -31.1310   22.1620 N   0  0  0  0  0  0  0  0  0  0  0  0
  -23.4830  -32.2260   23.8120 O   0  0  0  0  0  0  0  0  0  0  0  0
  -22.6740  -29.5210   22.6330 C   0  0  0  0  0  0  0  0  0  0  0  0
  -21.3560  -29.3010   22.4950 N   0  0  0  0  0  0  0  0  0  0  0  0
  -23.3620  -28.9370   23.4750 O   0  0  0  0  0  0  0  0  0  0  0  0
  -20.8600  -29.8250   21.7890 H   0  0  0  0  0  0  0  0  0  0  0  0
  -18.0180  -27.9920   22.9450 C   0  0  0  0  0  0  0  0  0  0  0  0
  -20.5530  -28.3680   23.2850 C   0  0  0  0  0  3  0  0  0  0  0  0
  -20.7310  -26.9170   22.7840 C   0  0  0  0  0  2  0  0  0  0  0  0
  -19.6790  -26.5000   21.7530 C   0  0  0  0  0  2  0  0  0  0  0  0
  -18.2710  -26.6190   22.3440 C   0  0  0  0  0  2  0  0  0  0  0  0
  -19.0900  -28.8200   23.3720 C   0  0  0  0  0  0  0  0  0  0  0  0
  -18.8020  -30.1000   23.8910 C   0  0  0  0  0  3  0  0  0  0  0  0
  -17.4740  -30.5550   23.9900 C   0  0  0  0  0  3  0  0  0  0  0  0
  -16.4160  -29.7280   23.5780 C   0  0  0  0  0  3  0  0  0  0  0  0
  -16.6880  -28.4480   23.0620 C   0  0  0  0  0  3  0  0  0  0  0  0
  -25.8520  -32.5780   23.8410 C   0  0  0  0  0  3  0  0  0  0  0  0
  -25.5490  -33.9770   24.1740 N   0  0  0  0  0  0  0  0  0  0  0  0
  -25.8820  -35.0290   23.4130 C   0  0  0  0  0  0  0  0  0  0  0  0
  -26.5480  -34.9250   22.3800 O   0  0  0  0  0  0  0  0  0  0  0  0
  -24.9570  -34.1330   24.9760 H   0  0  0  0  0  0  0  0  0  0  0  0
  -24.1640  -36.8300   23.0600 C   0  0  0  0  0  1  0  0  0  0  0  0
  -25.4000  -36.4170   23.8730 C   0  0  0  0  0  3  0  0  0  0  0  0
  -27.5370  -37.2860   24.7140 C   0  0  0  0  0  1  0  0  0  0  0  0
  -26.4380  -37.4660   23.7690 N   0  0  0  0  0  0  0  0  0  0  0  0
  -26.0370  -38.3870   23.9210 H   0  0  0  0  0  0  0  0  0  0  0  0
  -26.4010  -31.8100   25.1050 C   0  0  1  0  0  0  0  0  0  0  0  0
  -25.3350  -31.5690   26.1980 C   0  0  0  0  0  1  0  0  0  0  0  0
  -26.9790  -30.4360   24.6970 C   0  0  0  0  0  1  0  0  0  0  0  0
  -27.5620  -32.6100   25.7410 C   0  0  0  0  0  1  0  0  0  0  0  0
  -30.7370  -19.5690   21.2550 C   0  0  0  0  0  3  0  0  0  0  0  0
  -30.1740  -18.2010   21.3700 N   0  0  0  0  0  4  0  0  0  0  0  0
  -29.9330  -18.0600   22.3370 H   0  0  0  0  0  0  0  0  0  0  0  0
  -29.3010  -18.2590   20.8590 H   0  0  0  0  0  0  0  0  0  0  0  0
  -31.0140  -17.0790   20.8640 C   0  0  0  0  0  2  0  0  0  0  0  0
  -30.3850  -15.6810   21.1320 C   0  0  0  0  0  2  0  0  0  0  0  0
  -31.0460  -14.5060   20.3730 C   0  0  0  0  0  0  0  0  0  0  0  0
  -30.7010  -12.3730   19.1670 C   0  0  0  0  0  2  0  0  0  0  0  0
  -29.7550  -12.6020   17.9700 C   0  0  0  0  0  2  0  0  0  0  0  0
  -28.2780  -12.5060   18.4050 C   0  0  0  0  0  2  0  0  0  0  0  0
  -27.9690  -13.3500   19.6710 C   0  0  0  0  0  3  0  0  0  0  0  0
  -29.0190  -13.0800   20.7720 C   0  0  0  0  0  2  0  0  0  0  0  0
  -30.3510  -13.3480   20.2090 N   0  0  0  0  0  0  0  0  0  0  0  0
  -32.1530  -14.6850   19.8540 O   0  0  0  0  0  0  0  0  0  0  0  0
  -25.5840  -14.0370   20.3600 C   0  0  0  0  0  0  0  0  0  0  0  0
  -24.4960  -13.3000   20.7490 C   0  0  0  0  0  0  0  0  0  0  0  0
  -24.9240  -11.9370   20.7490 C   0  0  0  0  0  0  0  0  0  0  0  0
  -26.6070  -13.1230   20.1520 N   0  0  0  0  0  0  0  0  0  0  0  0
  -26.2130  -11.8580   20.4440 N   0  0  0  0  0  0  0  0  0  0  0  0
  -24.1690  -10.6980   20.9680 C   0  0  0  0  0  0  0  0  0  0  0  0
  -24.5710   -9.7510   21.9360 C   0  0  0  0  0  3  0  0  0  0  0  0
  -23.8190   -8.5730   22.1400 C   0  0  0  0  0  3  0  0  0  0  0  0
  -22.6530   -8.3350   21.3760 C   0  0  0  0  0  0  0  0  0  0  0  0
  -22.2710   -9.2700   20.3980 C   0  0  0  0  0  3  0  0  0  0  0  0
  -23.0210  -10.4400   20.1920 C   0  0  0  0  0  3  0  0  0  0  0  0
  -21.8740   -7.2070   21.4870 O   0  0  0  0  0  0  0  0  0  0  0  0
  -21.7820   -6.5100   22.6650 C   0  0  0  0  0  0  0  0  0  0  0  0
  -21.3390   -7.1210   23.8590 C   0  0  0  0  0  3  0  0  0  0  0  0
  -21.1920   -6.3500   25.0300 C   0  0  0  0  0  3  0  0  0  0  0  0
  -21.4790   -4.9720   25.0090 C   0  0  0  0  0  0  0  0  0  0  0  0
  -21.9150   -4.3630   23.8190 C   0  0  0  0  0  3  0  0  0  0  0  0
  -22.0630   -5.1290   22.6500 C   0  0  0  0  0  0  0  0  0  0  0  0
  -22.4630   -4.5330   21.5010 F   0  0  0  0  0  0  0  0  0  0  0  0
  -21.3300   -4.2310   26.1310 F   0  0  0  0  0  0  0  0  0  0  0  0
  -23.1090  -13.8170   21.0050 C   0  0  0  0  0  0  0  0  0  0  0  0
  -22.3660  -13.1650   21.8930 N   0  0  0  0  0  0  0  0  0  0  0  0
  -22.6930  -14.8340   20.4520 O   0  0  0  0  0  0  0  0  0  0  0  0
  -22.7130  -12.3440   22.3650 H   0  0  0  0  0  0  0  0  0  0  0  0
  -21.4350  -13.4950   22.1020 H   0  0  0  0  0  0  0  0  0  0  0  0
  -25.7820  -15.3980   20.1490 N   0  0  0  0  0  0  0  0  0  0  0  0
  -25.0290  -16.0710   20.2300 H   0  0  0  0  0  0  0  0  0  0  0  0
  -26.6330  -15.8000   19.7790 H   0  0  0  0  0  0  0  0  0  0  0  0
  -30.7280  -20.0240   23.8230 C   0  0  0  0  0  1  0  0  0  0  0  0
  -32.5090  -21.1120   22.3840 C   0  0  0  0  0  1  0  0  0  0  0  0
  -31.5720  -19.8980   22.5350 C   0  0  0  0  0  3  0  0  0  0  0  0
  2  4  1  0
  2  1  1  0
  3  1  2  0
  5  6  1  0
  5  2  1  0
  7  8  1  0
  7  6  1  0
  9 20  2  0
 10  8  1  0
 10 15  1  0
 11 19  1  0
 11 21  1  0
 12 18  1  0
 12 14  1  0
 13 19  1  0
 14 13  1  0
 15 14  2  0
 16 17  1  0
 16 10  2  0
 17 12  2  0
 18 11  1  0
 19  9  1  0
 21 23  2  0
 22 21  1  0
 24 22  1  0
 25 34  2  0
 25 30  1  0
 26 22  1  0
 26 30  1  0
 27 26  1  0
 28 29  1  0
 28 27  1  0
 29 25  1  0
 30 31  2  0
 31 32  1  0
 33 32  2  0
 34 33  1  0
 35  9  1  0
 35 36  1  0
 35 45  1  0
 36 39  1  0
 37 41  1  0
 37 36  1  0
 38 37  2  0
 41 40  1  0
 43 41  1  0
 43 44  1  0
 43 42  1  0
 45 48  1  1
 45 46  1  0
 47 45  1  0
 49  1  1  0
 49 50  1  0
 49 93  1  0
 50 51  1  0
 52 50  1  0
 53 54  1  0
 53 50  1  0
 55 54  1  0
 56 61  1  0
 57 58  1  0
 57 56  1  0
 59 58  1  0
 59 66  1  0
 59 60  1  0
 61 55  1  0
 61 60  1  0
 62 55  2  0
 63 64  2  0
 64 65  1  0
 64 83  1  0
 65 68  1  0
 66 63  1  0
 66 67  1  0
 67 65  2  0
 68 69  1  0
 69 70  2  0
 71 74  1  0
 71 70  1  0
 72 71  2  0
 73 72  1  0
 73 68  2  0
 74 75  1  0
 75 76  1  0
 76 77  2  0
 78 77  1  0
 78 82  1  0
 79 78  2  0
 80 75  2  0
 80 79  1  0
 81 80  1  0
 83 84  1  0
 84 87  1  0
 84 86  1  0
 85 83  2  0
 88 89  1  0
 88 63  1  0
 90 88  1  0
 92 93  1  0
 93 91  1  0
M  ISO  4   7 101   8 101  54 100  55 100
M  END
>  <TORSDO>  (62) 
F 24

>  <SCORE>  (62) 
-12.476

>  <name>  (62) 
61

>  <ligand_id>  (62) 
61

>  <original_smiles>  (62) 
[H]c1c([H])c([H])c2c(c1[H])C([H])([H])C([H])([H])C([H])([H])C2([H])N([H])C(=O)C1([H])N(C(=O)C([H])(N([H])C(=O)C([H])(N([H])C([H])([H])[H])C([H])([H])[H])C(C([H])([H])[H])(C([H])([H])[H])C([H])([H])[H])C([H])([H])c2c([H])c(OC([H])([H])C([H])([H])C([H])([H])N([H])C(=O)C([H])(C([H])(C([H])([H])[H])C([H])([H])[H])[N+]([H])([H])C([H])([H])C([H])([H])C(=O)N3C([H])([H])C([H])([H])C([H])([H])C([H])(n4nc(-c5c([H])c([H])c(Oc6c([H])c([H])c(F)c([H])c6F)c([H])c5[H])c(C(=O)N([H])[H])c4N([H])[H])C3([H])[H])c([H])c([H])c2C1([H])[H]

>  <smiles>  (62) 
[H]c1c([H])c([H])c2c(c1[H])C([H])([H])C([H])([H])C([H])([H])C2([H])N([H])C(=O)C1([H])N(C(=O)C([H])(N([H])C(=O)C([H])(N([H])C([H])([H])[H])C([H])([H])[H])C(C([H])([H])[H])(C([H])([H])[H])C([H])([H])[H])C([H])([H])c2c([H])c(OC([H])([H])C([H])([H])C([H])([H])N([H])C(=O)C([H])(C([H])(C([H])([H])[H])C([H])([H])[H])[N+]([H])([H])C([H])([H])C([H])([H])C(=O)N3C([H])([H])C([H])([H])C([H])([H])C([H])(n4nc(-c5c([H])c([H])c(Oc6c([H])c([H])c(F)c([H])c6F)c([H])c5[H])c(C(=O)N([H])[H])c4N([H])[H])C3([H])[H])c([H])c([H])c2C1([H])[H]

$$$$
62:0:0
     RDKit          3D

 94101  0  0  1  0  0  0  0  0999 V2000
  -29.9210  -20.2590   20.9510 C   0  0  0  0  0  3  0  0  0  0  0  0
  -28.7630  -21.2610   20.8180 N   0  0  0  0  0  4  0  0  0  0  0  0
  -28.4230  -21.2030   19.8740 H   0  0  0  0  0  0  0  0  0  0  0  0
  -28.0150  -20.9490   21.4170 H   0  0  0  0  0  0  0  0  0  0  0  0
  -29.0140  -22.7360   21.0790 C   0  0  0  0  0  3  0  0  0  0  0  0
  -28.0280  -23.7650   20.3500 C   0  0  0  0  0  3  0  0  0  0  0  0
  -28.1090  -25.2650   20.8710 C   0  0  0  0  0  2  0  0  0  0  0  0
  -28.1400  -26.4210   19.9580 O   0  0  0  0  0  0  0  0  0  0  0  0
  -24.5220  -31.7420   23.1730 C   0  0  0  0  0  0  0  0  0  0  0  0
  -27.0250  -27.2330   19.9900 C   0  0  0  0  0  0  0  0  0  0  0  0
  -23.2700  -30.3570   21.5500 C   0  0  0  0  0  3  0  0  0  0  0  0
  -24.6810  -28.8170   20.0690 C   0  0  0  0  0  0  0  0  0  0  0  0
  -25.8170  -30.6740   21.3000 C   0  0  0  0  0  2  0  0  0  0  0  0
  -25.8680  -29.3040   20.6380 C   0  0  0  0  0  0  0  0  0  0  0  0
  -27.0520  -28.5210   20.5920 C   0  0  0  0  0  3  0  0  0  0  0  0
  -25.8180  -26.7820   19.4070 C   0  0  0  0  0  3  0  0  0  0  0  0
  -24.6440  -27.5540   19.4670 C   0  0  0  0  0  3  0  0  0  0  0  0
  -23.4470  -29.6910   20.1540 C   0  0  0  0  0  2  0  0  0  0  0  0
  -24.5620  -30.9450   22.0630 N   0  0  0  0  0  0  0  0  0  0  0  0
  -23.4570  -32.0110   23.7280 O   0  0  0  0  0  0  0  0  0  0  0  0
  -22.6420  -29.3250   22.5100 C   0  0  0  0  0  0  0  0  0  0  0  0
  -21.3270  -29.0840   22.3650 N   0  0  0  0  0  0  0  0  0  0  0  0
  -23.3360  -28.7270   23.3390 O   0  0  0  0  0  0  0  0  0  0  0  0
  -20.8310  -29.6090   21.6610 H   0  0  0  0  0  0  0  0  0  0  0  0
  -18.0130  -27.7130   22.7580 C   0  0  0  0  0  0  0  0  0  0  0  0
  -20.5400  -28.1250   23.1350 C   0  0  0  0  0  3  0  0  0  0  0  0
  -20.7570  -26.6850   22.6150 C   0  0  0  0  0  2  0  0  0  0  0  0
  -19.7210  -26.2800   21.5620 C   0  0  0  0  0  2  0  0  0  0  0  0
  -18.3020  -26.3600   22.1380 C   0  0  0  0  0  2  0  0  0  0  0  0
  -19.0660  -28.5520   23.2200 C   0  0  0  0  0  0  0  0  0  0  0  0
  -18.7490  -29.8280   23.7320 C   0  0  0  0  0  3  0  0  0  0  0  0
  -17.4080  -30.2540   23.8140 C   0  0  0  0  0  3  0  0  0  0  0  0
  -16.3710  -29.4020   23.3850 C   0  0  0  0  0  3  0  0  0  0  0  0
  -16.6760  -28.1390   22.8530 C   0  0  0  0  0  3  0  0  0  0  0  0
  -25.8220  -32.3670   23.7610 C   0  0  0  0  0  3  0  0  0  0  0  0
  -26.3740  -31.5820   25.0090 C   0  0  1  0  0  0  0  0  0  0  0  0
  -25.3170  -31.3350   26.1090 C   0  0  0  0  0  1  0  0  0  0  0  0
  -26.9350  -30.2060   24.5890 C   0  0  0  0  0  1  0  0  0  0  0  0
  -27.5580  -32.3590   25.6360 C   0  0  0  0  0  1  0  0  0  0  0  0
  -25.5290  -33.7620   24.1130 N   0  0  0  0  0  0  0  0  0  0  0  0
  -25.8710  -34.8180   23.3600 C   0  0  0  0  0  0  0  0  0  0  0  0
  -26.5610  -34.7250   22.3370 O   0  0  0  0  0  0  0  0  0  0  0  0
  -24.9230  -33.9200   24.9050 H   0  0  0  0  0  0  0  0  0  0  0  0
  -24.1770  -36.6470   23.0220 C   0  0  0  0  0  1  0  0  0  0  0  0
  -25.4040  -36.2150   23.8400 C   0  0  0  0  0  3  0  0  0  0  0  0
  -27.5340  -37.0580   24.7280 C   0  0  0  0  0  1  0  0  0  0  0  0
  -26.4570  -37.2570   23.7560 N   0  0  0  0  0  0  0  0  0  0  0  0
  -26.0570  -38.1780   23.9150 H   0  0  0  0  0  0  0  0  0  0  0  0
  -32.0950  -20.0110   22.5160 C   0  0  0  0  0  1  0  0  0  0  0  0
  -30.6030  -20.4220   22.3570 C   0  0  0  0  0  2  0  0  0  0  0  0
  -29.5020  -18.7630   20.4780 C   0  0  0  0  0  3  0  0  0  0  0  0
  -29.5490  -18.8370   19.0080 N   0  0  0  0  0  0  0  0  0  0  0  0
  -30.4760  -19.1090   18.6830 H   0  0  0  0  0  0  0  0  0  0  0  0
  -28.9310  -19.5420   18.6260 H   0  0  0  0  0  0  0  0  0  0  0  0
  -30.3250  -17.3980   20.9380 C   0  0  0  0  0  2  0  0  0  0  0  0
  -31.0470  -16.3910   19.9710 C   0  0  0  0  0  3  0  0  0  0  0  0
  -31.5340  -14.9350   20.4530 C   0  0  0  0  0  0  0  0  0  0  0  0
  -31.1310  -12.7270   19.4440 C   0  0  0  0  0  2  0  0  0  0  0  0
  -30.2740  -12.9090   18.1690 C   0  0  0  0  0  2  0  0  0  0  0  0
  -28.7640  -12.9640   18.5090 C   0  0  0  0  0  2  0  0  0  0  0  0
  -28.3980  -13.7620   19.7960 C   0  0  0  0  0  3  0  0  0  0  0  0
  -29.4150  -13.5860   20.9410 C   0  0  0  0  0  2  0  0  0  0  0  0
  -30.7620  -13.7960   20.3900 N   0  0  0  0  0  0  0  0  0  0  0  0
  -32.7580  -14.8310   20.4670 O   0  0  0  0  0  0  0  0  0  0  0  0
  -26.0130  -14.4710   20.3790 C   0  0  0  0  0  0  0  0  0  0  0  0
  -24.8910  -13.7430   20.6930 C   0  0  0  0  0  0  0  0  0  0  0  0
  -25.3040  -12.3720   20.6850 C   0  0  0  0  0  0  0  0  0  0  0  0
  -27.0300  -13.5360   20.2190 N   0  0  0  0  0  0  0  0  0  0  0  0
  -26.6070  -12.2770   20.4640 N   0  0  0  0  0  0  0  0  0  0  0  0
  -24.5200  -11.1380   20.8390 C   0  0  0  0  0  0  0  0  0  0  0  0
  -24.8840  -10.1410   21.7680 C   0  0  0  0  0  3  0  0  0  0  0  0
  -24.0930   -8.9800   21.9060 C   0  0  0  0  0  3  0  0  0  0  0  0
  -22.9190   -8.8170   21.1210 C   0  0  0  0  0  0  0  0  0  0  0  0
  -22.5850   -9.8070   20.1810 C   0  0  0  0  0  3  0  0  0  0  0  0
  -23.3790  -10.9630   20.0370 C   0  0  0  0  0  3  0  0  0  0  0  0
  -22.1080   -7.7060   21.1680 O   0  0  0  0  0  0  0  0  0  0  0  0
  -21.9490   -6.9850   22.3260 C   0  0  0  0  0  0  0  0  0  0  0  0
  -21.4520   -7.5780   23.5140 C   0  0  0  0  0  3  0  0  0  0  0  0
  -21.2430   -6.7830   24.6580 C   0  0  0  0  0  3  0  0  0  0  0  0
  -21.5110   -5.4000   24.6050 C   0  0  0  0  0  0  0  0  0  0  0  0
  -22.0140   -4.8130   23.4340 C   0  0  0  0  0  3  0  0  0  0  0  0
  -22.2300   -5.6040   22.2930 C   0  0  0  0  0  0  0  0  0  0  0  0
  -22.6760   -5.0370   21.1490 F   0  0  0  0  0  0  0  0  0  0  0  0
  -21.3160   -4.6270   25.7070 F   0  0  0  0  0  0  0  0  0  0  0  0
  -23.5140  -14.2870   20.8740 C   0  0  0  0  0  0  0  0  0  0  0  0
  -22.7230  -13.6380   21.7370 N   0  0  0  0  0  0  0  0  0  0  0  0
  -23.1390  -15.2970   20.3020 O   0  0  0  0  0  0  0  0  0  0  0  0
  -23.0450  -12.8180   22.2220 H   0  0  0  0  0  0  0  0  0  0  0  0
  -21.7820  -13.9680   21.8940 H   0  0  0  0  0  0  0  0  0  0  0  0
  -26.2390  -15.8290   20.1910 N   0  0  0  0  0  0  0  0  0  0  0  0
  -25.4990  -16.5180   20.2550 H   0  0  0  0  0  0  0  0  0  0  0  0
  -27.1330  -16.2210   19.9100 H   0  0  0  0  0  0  0  0  0  0  0  0
  -31.7540  -16.4790   17.4450 C   0  0  0  0  0  1  0  0  0  0  0  0
  -30.5880  -16.4360   18.4880 C   0  0  0  0  0  2  0  0  0  0  0  0
  1 50  1  0
  2  1  1  0
  2  5  1  0
  2  4  1  0
  3  2  1  0
  6  7  1  0
  6  5  2  0
  8 10  1  0
  8  7  1  0
  9 20  2  0
 10 15  1  0
 11 19  1  0
 11 21  1  0
 12 18  1  0
 12 14  1  0
 13 19  1  0
 14 13  1  0
 15 14  2  0
 16 17  1  0
 16 10  2  0
 17 12  2  0
 18 11  1  0
 19  9  1  0
 21 23  2  0
 22 21  1  0
 24 22  1  0
 25 34  2  0
 25 30  1  0
 26 22  1  0
 26 30  1  0
 27 26  1  0
 28 29  1  0
 28 27  1  0
 29 25  1  0
 30 31  2  0
 31 32  1  0
 33 32  2  0
 34 33  1  0
 35  9  1  0
 35 40  1  0
 35 36  1  0
 36 39  1  1
 36 37  1  0
 38 36  1  0
 40 43  1  0
 41 45  1  0
 41 40  1  0
 42 41  2  0
 45 44  1  0
 47 45  1  0
 47 48  1  0
 47 46  1  0
 50 49  1  0
 51 55  1  0
 51  1  1  0
 52 51  1  0
 53 52  1  0
 54 52  1  0
 56 94  1  0
 56 57  1  0
 56 55  1  0
 57 64  2  0
 58 63  1  0
 59 60  1  0
 59 58  1  0
 61 60  1  0
 61 68  1  0
 61 62  1  0
 63 57  1  0
 63 62  1  0
 65 66  2  0
 66 85  1  0
 67 66  1  0
 67 70  1  0
 68 65  1  0
 68 69  1  0
 69 67  2  0
 70 71  1  0
 71 72  2  0
 73 76  1  0
 73 72  1  0
 74 73  2  0
 75 74  1  0
 75 70  2  0
 76 77  1  0
 77 78  1  0
 78 79  2  0
 80 79  1  0
 80 84  1  0
 81 80  2  0
 82 77  2  0
 82 81  1  0
 83 82  1  0
 85 86  1  0
 86 89  1  0
 86 88  1  0
 87 85  2  0
 90 91  1  0
 90 65  1  0
 92 90  1  0
 93 94  1  0
M  ISO  4   7 101   8 101  56 100  57 100
M  END
>  <TORSDO>  (63) 
F 26

>  <SCORE>  (63) 
-11.055

>  <name>  (63) 
62

>  <ligand_id>  (63) 
62

>  <original_smiles>  (63) 
[H]c1c([H])c([H])c2c(c1[H])C([H])([H])C([H])([H])C([H])([H])C2([H])N([H])C(=O)C1([H])N(C(=O)C([H])(N([H])C(=O)C([H])(N([H])C([H])([H])[H])C([H])([H])[H])C(C([H])([H])[H])(C([H])([H])[H])C([H])([H])[H])C([H])([H])c2c([H])c(OC([H])([H])C([H])([H])C([H])([H])[N+]([H])([H])C([H])(C([H])([H])C([H])([H])[H])C([H])(N([H])[H])C([H])([H])C([H])(C(=O)N3C([H])([H])C([H])([H])C([H])([H])C([H])(n4nc(-c5c([H])c([H])c(Oc6c([H])c([H])c(F)c([H])c6F)c([H])c5[H])c(C(=O)N([H])[H])c4N([H])[H])C3([H])[H])C([H])([H])C([H])([H])[H])c([H])c([H])c2C1([H])[H]

>  <smiles>  (63) 
[H]c1c([H])c([H])c2c(c1[H])C([H])([H])C([H])([H])C([H])([H])C2([H])N([H])C(=O)C1([H])N(C(=O)C([H])(N([H])C(=O)C([H])(N([H])C([H])([H])[H])C([H])([H])[H])C(C([H])([H])[H])(C([H])([H])[H])C([H])([H])[H])C([H])([H])c2c([H])c(OC([H])([H])C([H])([H])C([H])([H])[N+]([H])([H])C([H])(C([H])([H])C([H])([H])[H])C([H])(N([H])[H])C([H])([H])C([H])(C(=O)N3C([H])([H])C([H])([H])C([H])([H])C([H])(n4nc(-c5c([H])c([H])c(Oc6c([H])c([H])c(F)c([H])c6F)c([H])c5[H])c(C(=O)N([H])[H])c4N([H])[H])C3([H])[H])C([H])([H])C([H])([H])[H])c([H])c([H])c2C1([H])[H]

$$$$
63:0:0
     RDKit          3D

 96105  0  0  1  0  0  0  0  0999 V2000
  -32.5770  -14.8400   19.8300 C   0  0  0  0  0  0  0  0  0  0  0  0
  -31.8490  -12.6410   18.9530 C   0  0  0  0  0  2  0  0  0  0  0  0
  -30.9260  -12.8300   17.7320 C   0  0  0  0  0  2  0  0  0  0  0  0
  -29.4580  -12.9660   18.1840 C   0  0  0  0  0  2  0  0  0  0  0  0
  -29.2920  -13.9880   19.3380 C   0  0  0  0  0  3  0  0  0  0  0  0
  -30.3330  -13.7340   20.4600 C   0  0  0  0  0  2  0  0  0  0  0  0
  -31.6610  -13.8150   19.8380 N   0  0  0  0  0  0  0  0  0  0  0  0
  -33.7190  -14.5970   19.4250 O   0  0  0  0  0  0  0  0  0  0  0  0
  -32.3150  -20.9960   18.4860 C   0  0  0  0  0  2  0  0  0  0  0  0
  -31.5270  -19.7450   18.9600 C   0  0  0  0  0  2  0  0  0  0  0  0
  -30.8390  -18.1540   20.8390 C   0  0  0  0  0  2  0  0  0  0  0  0
  -33.1950  -18.5630   20.5530 C   0  0  0  0  0  2  0  0  0  0  0  0
  -32.5830  -21.7420   20.8240 C   0  0  0  0  0  2  0  0  0  0  0  0
  -30.9370  -16.8210   20.0630 C   0  0  0  0  0  2  0  0  0  0  0  0
  -33.3430  -17.1610   19.8940 C   0  0  0  0  0  2  0  0  0  0  0  0
  -31.7750  -20.5310   21.3870 C   0  0  0  0  0  3  0  0  0  0  0  0
  -32.1410  -22.2140   19.4200 C   0  0  0  0  0  3  0  0  0  0  0  0
  -31.8190  -19.2720   20.4190 C   0  0  1  0  0  0  0  0  0  0  0  0
  -32.2600  -16.1590   20.1260 N   0  0  0  0  0  0  0  0  0  0  0  0
  -27.0920  -15.0970   20.0860 C   0  0  0  0  0  0  0  0  0  0  0  0
  -25.8950  -14.5660   20.4850 C   0  0  0  0  0  0  0  0  0  0  0  0
  -26.0630  -13.1500   20.4600 C   0  0  0  0  0  0  0  0  0  0  0  0
  -27.9250  -14.0150   19.8480 N   0  0  0  0  0  0  0  0  0  0  0  0
  -27.3100  -12.8380   20.1310 N   0  0  0  0  0  0  0  0  0  0  0  0
  -25.0920  -12.0690   20.6700 C   0  0  0  0  0  0  0  0  0  0  0  0
  -25.4640  -10.8520   21.2810 C   0  0  0  0  0  3  0  0  0  0  0  0
  -24.5100   -9.8340   21.4860 C   0  0  0  0  0  3  0  0  0  0  0  0
  -23.1680  -10.0290   21.0860 C   0  0  0  0  0  0  0  0  0  0  0  0
  -22.8060  -11.2340   20.4580 C   0  0  0  0  0  3  0  0  0  0  0  0
  -23.7590  -12.2440   20.2480 C   0  0  0  0  0  3  0  0  0  0  0  0
  -22.1760   -9.0870   21.2280 O   0  0  0  0  0  0  0  0  0  0  0  0
  -22.3660   -7.9480   21.9690 C   0  0  0  0  0  0  0  0  0  0  0  0
  -22.7620   -7.9990   23.3230 C   0  0  0  0  0  3  0  0  0  0  0  0
  -22.8720   -6.8090   24.0710 C   0  0  0  0  0  3  0  0  0  0  0  0
  -22.5840   -5.5690   23.4670 C   0  0  0  0  0  0  0  0  0  0  0  0
  -22.1880   -5.5160   22.1200 C   0  0  0  0  0  3  0  0  0  0  0  0
  -22.0750   -6.7030   21.3740 C   0  0  0  0  0  0  0  0  0  0  0  0
  -21.6720   -6.6490   20.0820 F   0  0  0  0  0  0  0  0  0  0  0  0
  -22.6830   -4.4280   24.1850 F   0  0  0  0  0  0  0  0  0  0  0  0
  -24.6350  -15.3300   20.7720 C   0  0  0  0  0  0  0  0  0  0  0  0
  -23.8100  -14.8320   21.6910 N   0  0  0  0  0  0  0  0  0  0  0  0
  -24.3940  -16.4000   20.2170 O   0  0  0  0  0  0  0  0  0  0  0  0
  -24.0220  -13.9700   22.1700 H   0  0  0  0  0  0  0  0  0  0  0  0
  -22.9630  -15.3310   21.9270 H   0  0  0  0  0  0  0  0  0  0  0  0
  -27.5240  -16.4040   19.8910 N   0  0  0  0  0  0  0  0  0  0  0  0
  -26.9010  -17.1960   20.0140 H   0  0  0  0  0  0  0  0  0  0  0  0
  -28.4410  -16.6620   19.5520 H   0  0  0  0  0  0  0  0  0  0  0  0
  -29.0960  -20.7020   21.3440 C   0  0  0  0  0  1  0  0  0  0  0  0
  -30.3260  -20.6500   23.5610 C   0  0  0  0  0  1  0  0  0  0  0  0
  -30.4290  -20.9960   22.0620 C   0  0  0  0  0  3  0  0  0  0  0  0
  -32.9150  -23.4150   18.9670 N   0  0  0  0  0  4  0  0  0  0  0  0
  -33.3990  -23.1730   18.1170 H   0  0  0  0  0  0  0  0  0  0  0  0
  -33.6330  -23.6030   19.6460 H   0  0  0  0  0  0  0  0  0  0  0  0
  -32.1830  -24.7030   18.7070 C   0  0  0  0  0  2  0  0  0  0  0  0
  -32.1610  -25.6690   19.9330 C   0  0  0  0  0  2  0  0  0  0  0  0
  -31.4030  -26.8880   19.7490 O   0  0  0  0  0  0  0  0  0  0  0  0
  -27.6250  -30.9610   24.2720 C   0  0  0  0  0  0  0  0  0  0  0  0
  -30.2700  -27.0460   20.5250 C   0  0  0  0  0  0  0  0  0  0  0  0
  -26.8240  -28.6380   23.9660 C   0  0  0  0  0  3  0  0  0  0  0  0
  -27.8900  -27.3420   22.0370 C   0  0  0  0  0  0  0  0  0  0  0  0
  -28.1050  -29.8330   22.0990 C   0  0  0  0  0  2  0  0  0  0  0  0
  -28.6220  -28.4740   21.6580 C   0  0  0  0  0  0  0  0  0  0  0  0
  -29.8050  -28.3330   20.8920 C   0  0  0  0  0  3  0  0  0  0  0  0
  -29.5190  -25.9180   20.9200 C   0  0  0  0  0  3  0  0  0  0  0  0
  -28.3340  -26.0580   21.6690 C   0  0  0  0  0  3  0  0  0  0  0  0
  -26.6330  -27.5730   22.8490 C   0  0  0  0  0  2  0  0  0  0  0  0
  -27.5490  -29.8550   23.4750 N   0  0  0  0  0  0  0  0  0  0  0  0
  -27.0740  -30.9900   25.3810 O   0  0  0  0  0  0  0  0  0  0  0  0
  -27.5060  -27.9660   25.1790 C   0  0  0  0  0  0  0  0  0  0  0  0
  -26.7730  -27.8640   26.2980 N   0  0  0  0  0  0  0  0  0  0  0  0
  -28.6570  -27.5290   25.0960 O   0  0  0  0  0  0  0  0  0  0  0  0
  -25.8420  -28.2530   26.2870 H   0  0  0  0  0  0  0  0  0  0  0  0
  -26.1320  -27.7410   29.8540 C   0  0  0  0  0  0  0  0  0  0  0  0
  -27.1930  -27.2350   27.5500 C   0  0  0  0  0  3  0  0  0  0  0  0
  -26.5830  -25.8200   27.6930 C   0  0  0  0  0  2  0  0  0  0  0  0
  -25.2610  -25.8090   28.4660 C   0  0  0  0  0  2  0  0  0  0  0  0
  -25.4560  -26.3780   29.8750 C   0  0  0  0  0  2  0  0  0  0  0  0
  -26.9340  -28.1490   28.7530 C   0  0  0  0  0  0  0  0  0  0  0  0
  -27.5090  -29.4380   28.7660 C   0  0  0  0  0  3  0  0  0  0  0  0
  -27.2960  -30.3110   29.8510 C   0  0  0  0  0  3  0  0  0  0  0  0
  -26.5160  -29.8950   30.9440 C   0  0  0  0  0  3  0  0  0  0  0  0
  -25.9420  -28.6120   30.9470 C   0  0  0  0  0  3  0  0  0  0  0  0
  -28.3890  -32.2450   23.8240 C   0  0  0  0  0  3  0  0  0  0  0  0
  -29.8750  -32.3010   24.3550 C   0  0  1  0  0  0  0  0  0  0  0  0
  -30.0110  -31.9590   25.8570 C   0  0  0  0  0  1  0  0  0  0  0  0
  -30.7750  -31.3250   23.5620 C   0  0  0  0  0  1  0  0  0  0  0  0
  -30.4590  -33.7170   24.1310 C   0  0  0  0  0  1  0  0  0  0  0  0
  -27.6220  -33.4050   24.2980 N   0  0  0  0  0  0  0  0  0  0  0  0
  -27.0070  -34.2880   23.5000 C   0  0  0  0  0  0  0  0  0  0  0  0
  -27.0910  -34.2480   22.2690 O   0  0  0  0  0  0  0  0  0  0  0  0
  -27.4720  -33.4720   25.2950 H   0  0  0  0  0  0  0  0  0  0  0  0
  -24.6850  -35.1910   23.8370 C   0  0  0  0  0  1  0  0  0  0  0  0
  -26.1710  -35.3930   24.1750 C   0  0  0  0  0  3  0  0  0  0  0  0
  -27.8720  -37.1540   24.3670 C   0  0  0  0  0  1  0  0  0  0  0  0
  -26.5860  -36.7620   23.7940 N   0  0  0  0  0  0  0  0  0  0  0  0
  -25.8920  -37.4440   24.0850 H   0  0  0  0  0  0  0  0  0  0  0  0
  1  7  1  0
  1 19  1  0
  2  7  1  0
  3  4  1  0
  3  2  1  0
  5  4  1  0
  5 23  1  0
  5  6  1  0
  7  6  1  0
  8  1  2  0
  9 10  1  0
  9 17  1  0
 13 16  1  0
 14 19  1  0
 14 11  1  0
 15 19  1  0
 15 12  1  0
 16 50  1  0
 17 51  1  0
 17 13  1  0
 18 10  1  6
 18 12  1  0
 18 11  1  0
 18 16  1  0
 20 21  2  0
 21 40  1  0
 22 21  1  0
 22 25  1  0
 23 20  1  0
 23 24  1  0
 24 22  2  0
 25 26  1  0
 26 27  2  0
 28 31  1  0
 28 27  1  0
 29 28  2  0
 30 29  1  0
 30 25  2  0
 31 32  1  0
 32 33  1  0
 33 34  2  0
 35 34  1  0
 35 39  1  0
 36 35  2  0
 37 32  2  0
 37 36  1  0
 38 37  1  0
 40 41  1  0
 41 44  1  0
 41 43  1  0
 42 40  2  0
 45 46  1  0
 45 20  1  0
 47 45  1  0
 48 50  1  0
 50 49  1  0
 51 53  1  0
 52 51  1  0
 54 51  1  0
 54 55  1  0
 56 55  1  0
 56 58  1  0
 57 68  2  0
 58 63  2  0
 58 64  1  0
 59 69  1  0
 60 66  1  0
 61 67  1  0
 62 60  2  0
 62 61  1  0
 63 62  1  0
 64 65  2  0
 65 60  1  0
 66 59  1  0
 67 59  1  0
 67 57  1  0
 69 70  1  0
 71 69  2  0
 72 70  1  0
 73 77  1  0
 73 82  1  0
 74 70  1  0
 74 75  1  0
 74 78  1  0
 75 76  1  0
 76 77  1  0
 78 79  1  0
 78 73  2  0
 79 80  2  0
 80 81  1  0
 81 82  2  0
 83 57  1  0
 83 88  1  0
 83 84  1  0
 84 85  1  1
 86 84  1  0
 87 84  1  0
 88 91  1  0
 89 93  1  0
 89 88  1  0
 90 89  2  0
 93 92  1  0
 95 96  1  0
 95 93  1  0
 95 94  1  0
M  ISO  4   1 100  19 100  55 101  56 101
M  END
>  <TORSDO>  (64) 
F 19

>  <SCORE>  (64) 
-8.325

>  <name>  (64) 
63

>  <ligand_id>  (64) 
63

>  <original_smiles>  (64) 
[H]c1c([H])c([H])c2c(c1[H])C([H])([H])C([H])([H])C([H])([H])C2([H])N([H])C(=O)C1([H])N(C(=O)C([H])(N([H])C(=O)C([H])(N([H])C([H])([H])[H])C([H])([H])[H])C(C([H])([H])[H])(C([H])([H])[H])C([H])([H])[H])C([H])([H])c2c([H])c(OC([H])([H])C([H])([H])[N+]([H])([H])C3([H])C([H])([H])C([H])([H])C4(C([H])([H])C([H])([H])N(C(=O)N5C([H])([H])C([H])([H])C([H])([H])C([H])(n6nc(-c7c([H])c([H])c(Oc8c([H])c([H])c(F)c([H])c8F)c([H])c7[H])c(C(=O)N([H])[H])c6N([H])[H])C5([H])[H])C([H])([H])C4([H])[H])C([H])(C([H])(C([H])([H])[H])C([H])([H])[H])C3([H])[H])c([H])c([H])c2C1([H])[H]

>  <smiles>  (64) 
[H]c1c([H])c([H])c2c(c1[H])C([H])([H])C([H])([H])C([H])([H])C2([H])N([H])C(=O)C1([H])N(C(=O)C([H])(N([H])C(=O)C([H])(N([H])C([H])([H])[H])C([H])([H])[H])C(C([H])([H])[H])(C([H])([H])[H])C([H])([H])[H])C([H])([H])c2c([H])c(OC([H])([H])C([H])([H])[N+]([H])([H])C3([H])C([H])([H])C([H])([H])C4(C([H])([H])C([H])([H])N(C(=O)N5C([H])([H])C([H])([H])C([H])([H])C([H])(n6nc(-c7c([H])c([H])c(Oc8c([H])c([H])c(F)c([H])c8F)c([H])c7[H])c(C(=O)N([H])[H])c6N([H])[H])C5([H])[H])C([H])([H])C4([H])[H])C([H])(C([H])(C([H])([H])[H])C([H])([H])[H])C3([H])[H])c([H])c([H])c2C1([H])[H]

$$$$
64:0:0
     RDKit          3D

 91 98  0  0  1  0  0  0  0  0999 V2000
  -29.0520  -22.4270   19.8680 N   0  0  0  0  0  4  0  0  0  0  0  0
  -29.6760  -22.5100   19.0800 H   0  0  0  0  0  0  0  0  0  0  0  0
  -28.1360  -22.2580   19.4810 H   0  0  0  0  0  0  0  0  0  0  0  0
  -30.4770  -21.4390   21.7210 C   0  0  0  0  0  1  0  0  0  0  0  0
  -29.4210  -21.1530   20.6360 C   0  0  0  0  0  3  0  0  0  0  0  0
  -29.8960  -19.8940   19.7460 C   0  0  0  0  0  2  0  0  0  0  0  0
  -29.4770  -18.3770   20.1160 C   0  0  0  0  0  3  0  0  0  0  0  0
  -26.8840  -18.5450   20.0470 C   0  0  0  0  0  1  0  0  0  0  0  0
  -28.1590  -17.9970   19.3920 C   0  0  0  0  0  2  0  0  0  0  0  0
  -30.5820  -17.2290   19.8500 C   0  0  0  0  0  2  0  0  0  0  0  0
  -31.0980  -14.7340   20.0150 C   0  0  0  0  0  0  0  0  0  0  0  0
  -30.7480  -12.4970   18.9640 C   0  0  0  0  0  2  0  0  0  0  0  0
  -29.7820  -12.6260   17.7660 C   0  0  0  0  0  2  0  0  0  0  0  0
  -28.3180  -12.5130   18.2330 C   0  0  0  0  0  2  0  0  0  0  0  0
  -28.0140  -13.4040   19.4670 C   0  0  0  0  0  3  0  0  0  0  0  0
  -29.0950  -13.2510   20.5590 C   0  0  0  0  0  2  0  0  0  0  0  0
  -30.3980  -13.5490   19.9470 N   0  0  0  0  0  0  0  0  0  0  0  0
  -32.1970  -14.8350   19.4580 O   0  0  0  0  0  0  0  0  0  0  0  0
  -30.4500  -15.9550   21.9970 C   0  0  0  0  0  1  0  0  0  0  0  0
  -30.4820  -15.8640   20.5300 N   0  0  0  0  0  0  0  0  0  0  0  0
  -25.6550  -14.0720   20.2380 C   0  0  0  0  0  0  0  0  0  0  0  0
  -24.5780  -13.3320   20.6440 C   0  0  0  0  0  0  0  0  0  0  0  0
  -25.0020  -11.9690   20.6130 C   0  0  0  0  0  0  0  0  0  0  0  0
  -26.6700  -13.1630   19.9880 N   0  0  0  0  0  0  0  0  0  0  0  0
  -26.2830  -11.8920   20.2720 N   0  0  0  0  0  0  0  0  0  0  0  0
  -24.2450  -10.7300   20.8340 C   0  0  0  0  0  0  0  0  0  0  0  0
  -24.6560   -9.7720   21.7880 C   0  0  0  0  0  3  0  0  0  0  0  0
  -23.9000   -8.5980   21.9950 C   0  0  0  0  0  3  0  0  0  0  0  0
  -22.7170   -8.3740   21.2510 C   0  0  0  0  0  0  0  0  0  0  0  0
  -22.3260   -9.3200   20.2870 C   0  0  0  0  0  3  0  0  0  0  0  0
  -23.0820  -10.4860   20.0780 C   0  0  0  0  0  3  0  0  0  0  0  0
  -21.9330   -7.2520   21.3680 O   0  0  0  0  0  0  0  0  0  0  0  0
  -21.8390   -6.5600   22.5480 C   0  0  0  0  0  0  0  0  0  0  0  0
  -21.4200   -7.1820   23.7450 C   0  0  0  0  0  3  0  0  0  0  0  0
  -21.2700   -6.4170   24.9200 C   0  0  0  0  0  3  0  0  0  0  0  0
  -21.5270   -5.0330   24.8980 C   0  0  0  0  0  0  0  0  0  0  0  0
  -21.9390   -4.4120   23.7060 C   0  0  0  0  0  3  0  0  0  0  0  0
  -22.0900   -5.1730   22.5340 C   0  0  0  0  0  0  0  0  0  0  0  0
  -22.4660   -4.5650   21.3830 F   0  0  0  0  0  0  0  0  0  0  0  0
  -21.3760   -4.2980   26.0240 F   0  0  0  0  0  0  0  0  0  0  0  0
  -23.2040  -13.8520   20.9500 C   0  0  0  0  0  0  0  0  0  0  0  0
  -22.4900  -13.1970   21.8600 N   0  0  0  0  0  0  0  0  0  0  0  0
  -22.7740  -14.8740   20.4190 O   0  0  0  0  0  0  0  0  0  0  0  0
  -22.8520  -12.3740   22.3160 H   0  0  0  0  0  0  0  0  0  0  0  0
  -21.5680  -13.5280   22.1070 H   0  0  0  0  0  0  0  0  0  0  0  0
  -25.8500  -15.4360   20.0400 N   0  0  0  0  0  0  0  0  0  0  0  0
  -25.1080  -16.1130   20.1700 H   0  0  0  0  0  0  0  0  0  0  0  0
  -26.7100  -15.8480   19.6990 H   0  0  0  0  0  0  0  0  0  0  0  0
  -29.0170  -23.7910   20.5750 C   0  0  0  0  0  3  0  0  0  0  0  0
  -28.1640  -24.9520   19.8690 C   0  0  0  0  0  3  0  0  0  0  0  0
  -28.3030  -26.3850   20.2720 O   0  0  0  0  0  0  0  0  0  0  0  0
  -24.5930  -31.8310   23.2180 C   0  0  0  0  0  0  0  0  0  0  0  0
  -27.1960  -27.2540   20.1730 C   0  0  0  0  0  0  0  0  0  0  0  0
  -23.3890  -30.4420   21.5700 C   0  0  0  0  0  3  0  0  0  0  0  0
  -24.8390  -28.8920   20.1410 C   0  0  0  0  0  0  0  0  0  0  0  0
  -25.9310  -30.7460   21.4010 C   0  0  0  0  0  2  0  0  0  0  0  0
  -26.0070  -29.3680   20.7510 C   0  0  0  0  0  0  0  0  0  0  0  0
  -27.1850  -28.5610   20.7590 C   0  0  0  0  0  3  0  0  0  0  0  0
  -26.0100  -26.8490   19.5150 C   0  0  0  0  0  3  0  0  0  0  0  0
  -24.8460  -27.6400   19.5110 C   0  0  0  0  0  3  0  0  0  0  0  0
  -23.6050  -29.7710   20.1890 C   0  0  0  0  0  2  0  0  0  0  0  0
  -24.6560  -31.0230   22.1190 N   0  0  0  0  0  0  0  0  0  0  0  0
  -23.5090  -32.1140   23.7490 O   0  0  0  0  0  0  0  0  0  0  0  0
  -22.7160  -29.4270   22.5240 C   0  0  0  0  0  0  0  0  0  0  0  0
  -21.3910  -29.2510   22.3860 N   0  0  0  0  0  0  0  0  0  0  0  0
  -23.3870  -28.8020   23.3500 O   0  0  0  0  0  0  0  0  0  0  0  0
  -20.9100  -29.8060   21.6920 H   0  0  0  0  0  0  0  0  0  0  0  0
  -18.0100  -28.0530   22.8460 C   0  0  0  0  0  0  0  0  0  0  0  0
  -20.5640  -28.3170   23.1510 C   0  0  0  0  0  3  0  0  0  0  0  0
  -20.6770  -26.8830   22.5860 C   0  0  0  0  0  2  0  0  0  0  0  0
  -19.5900  -26.5520   21.5580 C   0  0  0  0  0  2  0  0  0  0  0  0
  -18.1990  -26.7000   22.1810 C   0  0  0  0  0  2  0  0  0  0  0  0
  -19.1220  -28.8190   23.2880 C   0  0  0  0  0  0  0  0  0  0  0  0
  -18.8920  -30.0850   23.8700 C   0  0  0  0  0  3  0  0  0  0  0  0
  -17.5840  -30.5850   24.0140 C   0  0  0  0  0  3  0  0  0  0  0  0
  -16.4870  -29.8150   23.5900 C   0  0  0  0  0  3  0  0  0  0  0  0
  -16.7010  -28.5510   23.0120 C   0  0  0  0  0  3  0  0  0  0  0  0
  -25.8760  -32.4560   23.8450 C   0  0  0  0  0  3  0  0  0  0  0  0
  -26.3830  -31.6790   25.1230 C   0  0  1  0  0  0  0  0  0  0  0  0
  -25.2840  -31.4460   26.1840 C   0  0  0  0  0  1  0  0  0  0  0  0
  -26.9630  -30.3000   24.7340 C   0  0  0  0  0  1  0  0  0  0  0  0
  -27.5350  -32.4680   25.7920 C   0  0  0  0  0  1  0  0  0  0  0  0
  -25.5740  -33.8550   24.1770 N   0  0  0  0  0  0  0  0  0  0  0  0
  -25.9090  -34.9080   23.4180 C   0  0  0  0  0  0  0  0  0  0  0  0
  -26.5760  -34.8030   22.3860 O   0  0  0  0  0  0  0  0  0  0  0  0
  -24.9810  -34.0110   24.9790 H   0  0  0  0  0  0  0  0  0  0  0  0
  -24.1860  -36.7080   23.0730 C   0  0  0  0  0  1  0  0  0  0  0  0
  -25.4290  -36.2980   23.8790 C   0  0  0  0  0  3  0  0  0  0  0  0
  -27.5710  -37.1720   24.7000 C   0  0  0  0  0  1  0  0  0  0  0  0
  -26.4650  -37.3470   23.7630 N   0  0  0  0  0  0  0  0  0  0  0  0
  -26.0630  -38.2680   23.9160 H   0  0  0  0  0  0  0  0  0  0  0  0
  1 49  1  0
  1  5  1  0
  2  1  1  0
  3  1  1  0
  5  4  1  0
  6  7  1  0
  6  5  1  0
  7  9  1  0
  9  8  1  0
 10  7  1  0
 10 20  1  0
 11 20  1  0
 12 17  1  0
 13 14  1  0
 13 12  1  0
 15 14  1  0
 15 24  1  0
 15 16  1  0
 17 11  1  0
 17 16  1  0
 18 11  2  0
 20 19  1  0
 21 22  2  0
 22 41  1  0
 23 22  1  0
 23 26  1  0
 24 21  1  0
 24 25  1  0
 25 23  2  0
 26 27  1  0
 27 28  2  0
 29 32  1  0
 29 28  1  0
 30 29  2  0
 31 30  1  0
 31 26  2  0
 32 33  1  0
 33 34  1  0
 34 35  2  0
 36 35  1  0
 36 40  1  0
 37 36  2  0
 38 33  2  0
 38 37  1  0
 39 38  1  0
 41 42  1  0
 42 45  1  0
 42 44  1  0
 43 41  2  0
 46 47  1  0
 46 21  1  0
 48 46  1  0
 50 51  1  0
 50 49  2  0
 52 63  2  0
 53 51  1  0
 53 58  1  0
 54 62  1  0
 54 64  1  0
 55 61  1  0
 55 57  1  0
 56 62  1  0
 57 58  2  0
 57 56  1  0
 59 53  2  0
 60 59  1  0
 60 55  2  0
 61 54  1  0
 62 52  1  0
 64 66  2  0
 65 64  1  0
 67 65  1  0
 68 77  2  0
 68 73  1  0
 69 65  1  0
 69 73  1  0
 70 69  1  0
 71 72  1  0
 71 70  1  0
 72 68  1  0
 73 74  2  0
 74 75  1  0
 76 75  2  0
 77 76  1  0
 78 52  1  0
 78 83  1  0
 78 79  1  0
 79 82  1  1
 79 80  1  0
 81 79  1  0
 83 86  1  0
 84 88  1  0
 84 83  1  0
 85 84  2  0
 88 87  1  0
 90 88  1  0
 90 91  1  0
 90 89  1  0
M  ISO  4  11 100  20 100  50 101  51 101
M  END
>  <TORSDO>  (65) 
F 23

>  <SCORE>  (65) 
-12.402

>  <name>  (65) 
64

>  <ligand_id>  (65) 
64

>  <original_smiles>  (65) 
[H]c1c([H])c([H])c2c(c1[H])C([H])([H])C([H])([H])C([H])([H])C2([H])N([H])C(=O)C1([H])N(C(=O)C([H])(N([H])C(=O)C([H])(N([H])C([H])([H])[H])C([H])([H])[H])C(C([H])([H])[H])(C([H])([H])[H])C([H])([H])[H])C([H])([H])c2c([H])c(OC([H])([H])C([H])([H])[N+]([H])([H])C([H])(C([H])([H])[H])C([H])([H])C([H])(C([H])([H])N(C(=O)N3C([H])([H])C([H])([H])C([H])([H])C([H])(n4nc(-c5c([H])c([H])c(Oc6c([H])c([H])c(F)c([H])c6F)c([H])c5[H])c(C(=O)N([H])[H])c4N([H])[H])C3([H])[H])C([H])([H])[H])C([H])([H])C([H])([H])[H])c([H])c([H])c2C1([H])[H]

>  <smiles>  (65) 
[H]c1c([H])c([H])c2c(c1[H])C([H])([H])C([H])([H])C([H])([H])C2([H])N([H])C(=O)C1([H])N(C(=O)C([H])(N([H])C(=O)C([H])(N([H])C([H])([H])[H])C([H])([H])[H])C(C([H])([H])[H])(C([H])([H])[H])C([H])([H])[H])C([H])([H])c2c([H])c(OC([H])([H])C([H])([H])[N+]([H])([H])C([H])(C([H])([H])[H])C([H])([H])C([H])(C([H])([H])N(C(=O)N3C([H])([H])C([H])([H])C([H])([H])C([H])(n4nc(-c5c([H])c([H])c(Oc6c([H])c([H])c(F)c([H])c6F)c([H])c5[H])c(C(=O)N([H])[H])c4N([H])[H])C3([H])[H])C([H])([H])[H])C([H])([H])C([H])([H])[H])c([H])c([H])c2C1([H])[H]

$$$$
65:0:0
     RDKit          3D

 94101  0  0  1  0  0  0  0  0999 V2000
  -30.4740  -15.2480   20.2970 C   0  0  0  0  0  0  0  0  0  0  0  0
  -30.3890  -12.7950   19.4490 C   0  0  0  0  0  2  0  0  0  0  0  0
  -29.4830  -12.5870   18.2100 C   0  0  0  0  0  2  0  0  0  0  0  0
  -28.0310  -12.3280   18.6440 C   0  0  0  0  0  2  0  0  0  0  0  0
  -27.5760  -13.3020   19.7570 C   0  0  0  0  0  3  0  0  0  0  0  0
  -28.6200  -13.4640   20.8880 C   0  0  0  0  0  2  0  0  0  0  0  0
  -29.8620  -13.9550   20.2630 N   0  0  0  0  0  0  0  0  0  0  0  0
  -31.6850  -15.2010   20.0330 O   0  0  0  0  0  0  0  0  0  0  0  0
  -30.0470  -18.1620   20.1150 C   0  0  0  0  0  3  0  0  0  0  0  0
  -29.7360  -16.7200   20.4460 N   0  0  0  0  0  0  0  0  0  0  0  0
  -29.2880  -19.4450   20.3710 N   0  0  0  0  0  0  0  0  0  0  0  0
  -28.7890  -16.6740   20.7790 H   0  0  0  0  0  0  0  0  0  0  0  0
  -28.5280  -19.2840   21.0180 H   0  0  0  0  0  0  0  0  0  0  0  0
  -25.1970  -13.8700   20.4800 C   0  0  0  0  0  0  0  0  0  0  0  0
  -24.1290  -13.0980   20.8470 C   0  0  0  0  0  0  0  0  0  0  0  0
  -24.5940  -11.7470   20.8330 C   0  0  0  0  0  0  0  0  0  0  0  0
  -26.2420  -12.9910   20.2580 N   0  0  0  0  0  0  0  0  0  0  0  0
  -25.8900  -11.7090   20.5380 N   0  0  0  0  0  0  0  0  0  0  0  0
  -23.8610  -10.4880   21.0200 C   0  0  0  0  0  0  0  0  0  0  0  0
  -24.2830   -9.5200   21.9580 C   0  0  0  0  0  3  0  0  0  0  0  0
  -23.5470   -8.3280   22.1370 C   0  0  0  0  0  3  0  0  0  0  0  0
  -22.3760   -8.0960   21.3790 C   0  0  0  0  0  0  0  0  0  0  0  0
  -21.9730   -9.0530   20.4320 C   0  0  0  0  0  3  0  0  0  0  0  0
  -22.7080  -10.2360   20.2500 C   0  0  0  0  0  3  0  0  0  0  0  0
  -21.6120   -6.9560   21.4690 O   0  0  0  0  0  0  0  0  0  0  0  0
  -21.5670   -6.2090   22.6180 C   0  0  0  0  0  0  0  0  0  0  0  0
  -21.1540   -6.7600   23.8510 C   0  0  0  0  0  3  0  0  0  0  0  0
  -21.0550   -5.9400   24.9920 C   0  0  0  0  0  3  0  0  0  0  0  0
  -21.3580   -4.5680   24.9020 C   0  0  0  0  0  0  0  0  0  0  0  0
  -21.7660   -4.0160   23.6750 C   0  0  0  0  0  3  0  0  0  0  0  0
  -21.8660   -4.8340   22.5360 C   0  0  0  0  0  0  0  0  0  0  0  0
  -22.2380   -4.2930   21.3510 F   0  0  0  0  0  0  0  0  0  0  0  0
  -21.2570   -3.7770   25.9950 F   0  0  0  0  0  0  0  0  0  0  0  0
  -22.7310  -13.5800   21.0860 C   0  0  0  0  0  0  0  0  0  0  0  0
  -21.9870  -12.9000   21.9520 N   0  0  0  0  0  0  0  0  0  0  0  0
  -22.3040  -14.6000   20.5430 O   0  0  0  0  0  0  0  0  0  0  0  0
  -22.3440  -12.0780   22.4150 H   0  0  0  0  0  0  0  0  0  0  0  0
  -21.0460  -13.2060   22.1540 H   0  0  0  0  0  0  0  0  0  0  0  0
  -25.3600  -15.2390   20.2870 N   0  0  0  0  0  0  0  0  0  0  0  0
  -24.5720  -15.8760   20.3550 H   0  0  0  0  0  0  0  0  0  0  0  0
  -26.1630  -15.6570   19.8370 H   0  0  0  0  0  0  0  0  0  0  0  0
  -30.8810  -18.3490   17.8000 C   0  0  0  0  0  1  0  0  0  0  0  0
  -31.3140  -18.2950   19.2710 C   0  0  0  0  0  3  0  0  0  0  0  0
  -32.2960  -19.4540   19.6090 C   0  0  0  0  0  2  0  0  0  0  0  0
  -32.8760  -19.4140   20.9750 N   0  0  0  0  0  4  0  0  0  0  0  0
  -33.2670  -18.5010   21.1470 H   0  0  0  0  0  0  0  0  0  0  0  0
  -32.1360  -19.5550   21.6430 H   0  0  0  0  0  0  0  0  0  0  0  0
  -35.2550  -20.0670   20.5440 C   0  0  0  0  0  1  0  0  0  0  0  0
  -34.1460  -20.6250   22.7480 C   0  0  0  0  0  1  0  0  0  0  0  0
  -33.9280  -20.4330   21.2360 C   0  0  0  0  0  3  0  0  0  0  0  0
  -29.0940  -21.0340   19.7940 C   0  0  0  0  0  2  0  0  0  0  0  0
  -28.8350  -22.6510   20.5560 C   0  0  0  0  0  3  0  0  0  0  0  0
  -28.2090  -24.2300   19.9250 C   0  0  0  0  0  3  0  0  0  0  0  0
  -28.2520  -25.8160   20.3950 O   0  0  0  0  0  0  0  0  0  0  0  0
  -24.6270  -31.8050   23.2260 C   0  0  0  0  0  0  0  0  0  0  0  0
  -27.2330  -26.9030   20.2730 C   0  0  0  0  0  0  0  0  0  0  0  0
  -23.4610  -30.3950   21.5820 C   0  0  0  0  0  3  0  0  0  0  0  0
  -24.9260  -28.7790   20.1940 C   0  0  0  0  0  0  0  0  0  0  0  0
  -26.0290  -30.5990   21.4760 C   0  0  0  0  0  2  0  0  0  0  0  0
  -26.1030  -29.1850   20.8320 C   0  0  0  0  0  0  0  0  0  0  0  0
  -27.2450  -28.2660   20.8540 C   0  0  0  0  0  3  0  0  0  0  0  0
  -26.0300  -26.6520   19.5740 C   0  0  0  0  0  3  0  0  0  0  0  0
  -24.9150  -27.5310   19.5470 C   0  0  0  0  0  3  0  0  0  0  0  0
  -23.7080  -29.6990   20.2170 C   0  0  0  0  0  2  0  0  0  0  0  0
  -24.7270  -30.9620   22.1480 N   0  0  0  0  0  0  0  0  0  0  0  0
  -23.5300  -32.1000   23.7270 O   0  0  0  0  0  0  0  0  0  0  0  0
  -22.7490  -29.4100   22.5460 C   0  0  0  0  0  0  0  0  0  0  0  0
  -21.4190  -29.2600   22.4130 N   0  0  0  0  0  0  0  0  0  0  0  0
  -23.4030  -28.7780   23.3810 O   0  0  0  0  0  0  0  0  0  0  0  0
  -20.9450  -29.8180   21.7160 H   0  0  0  0  0  0  0  0  0  0  0  0
  -18.0180  -28.0930   22.9110 C   0  0  0  0  0  0  0  0  0  0  0  0
  -20.5820  -28.3310   23.1810 C   0  0  0  0  0  3  0  0  0  0  0  0
  -20.6690  -26.8990   22.6040 C   0  0  0  0  0  2  0  0  0  0  0  0
  -19.5650  -26.5890   21.5870 C   0  0  0  0  0  2  0  0  0  0  0  0
  -18.1830  -26.7450   22.2290 C   0  0  0  0  0  2  0  0  0  0  0  0
  -19.1450  -28.8440   23.3440 C   0  0  0  0  0  0  0  0  0  0  0  0
  -18.9350  -30.1040   23.9450 C   0  0  0  0  0  3  0  0  0  0  0  0
  -17.6340  -30.6130   24.1160 C   0  0  0  0  0  3  0  0  0  0  0  0
  -16.5240  -29.8600   23.6970 C   0  0  0  0  0  3  0  0  0  0  0  0
  -16.7170  -28.6020   23.1000 C   0  0  0  0  0  3  0  0  0  0  0  0
  -25.8870  -32.4550   23.8750 C   0  0  0  0  0  3  0  0  0  0  0  0
  -25.5640  -33.8600   24.1890 N   0  0  0  0  0  0  0  0  0  0  0  0
  -25.9070  -34.9130   23.4370 C   0  0  0  0  0  0  0  0  0  0  0  0
  -26.5910  -34.8050   22.4140 O   0  0  0  0  0  0  0  0  0  0  0  0
  -24.9580  -34.0160   24.9790 H   0  0  0  0  0  0  0  0  0  0  0  0
  -24.1810  -36.7110   23.0650 C   0  0  0  0  0  1  0  0  0  0  0  0
  -25.4190  -36.3070   23.8830 C   0  0  0  0  0  3  0  0  0  0  0  0
  -27.5470  -37.2050   24.7200 C   0  0  0  0  0  1  0  0  0  0  0  0
  -26.4500  -37.3600   23.7670 N   0  0  0  0  0  0  0  0  0  0  0  0
  -26.0420  -38.2820   23.9010 H   0  0  0  0  0  0  0  0  0  0  0  0
  -26.3630  -31.7070   25.1830 C   0  0  1  0  0  0  0  0  0  0  0  0
  -25.2420  -31.4950   26.2270 C   0  0  0  0  0  1  0  0  0  0  0  0
  -26.9500  -30.3200   24.8420 C   0  0  0  0  0  1  0  0  0  0  0  0
  -27.4990  -32.5090   25.8600 C   0  0  0  0  0  1  0  0  0  0  0  0
  1 10  1  0
  2  7  1  0
  3  4  1  0
  3  2  1  0
  5  4  1  0
  5 17  1  0
  5  6  1  0
  7  1  1  0
  7  6  1  0
  8  1  2  0
  9 11  1  0
  9 10  1  0
 10 12  1  0
 11 13  1  0
 14 15  2  0
 15 34  1  0
 16 15  1  0
 16 19  1  0
 17 14  1  0
 17 18  1  0
 18 16  2  0
 19 20  1  0
 20 21  2  0
 22 25  1  0
 22 21  1  0
 23 22  2  0
 24 23  1  0
 24 19  2  0
 25 26  1  0
 26 27  1  0
 27 28  2  0
 29 28  1  0
 29 33  1  0
 30 29  2  0
 31 26  2  0
 31 30  1  0
 32 31  1  0
 34 35  1  0
 35 38  1  0
 35 37  1  0
 36 34  2  0
 39 40  1  0
 39 14  1  0
 41 39  1  0
 43 42  1  0
 43 44  1  0
 43  9  1  0
 44 45  1  0
 45 46  1  0
 45 50  1  0
 45 47  1  0
 48 50  1  0
 50 49  1  0
 51 11  1  0
 51 52  1  0
 53 54  1  0
 53 52  2  0
 55 66  2  0
 56 54  1  0
 56 61  1  0
 57 65  1  0
 57 67  1  0
 58 64  1  0
 58 60  1  0
 59 65  1  0
 60 61  2  0
 60 59  1  0
 62 56  2  0
 63 62  1  0
 63 58  2  0
 64 57  1  0
 65 55  1  0
 67 69  2  0
 68 67  1  0
 70 68  1  0
 71 80  2  0
 71 76  1  0
 72 68  1  0
 72 76  1  0
 73 72  1  0
 74 75  1  0
 74 73  1  0
 75 71  1  0
 76 77  2  0
 77 78  1  0
 79 78  2  0
 80 79  1  0
 81 55  1  0
 81 82  1  0
 81 91  1  0
 82 85  1  0
 83 87  1  0
 83 82  1  0
 84 83  2  0
 87 86  1  0
 89 87  1  0
 89 90  1  0
 89 88  1  0
 91 94  1  1
 91 92  1  0
 93 91  1  0
M  ISO  4   1 100  10 100  53 101  54 101
M  END
>  <TORSDO>  (66) 
F 22

>  <SCORE>  (66) 
-14.896

>  <name>  (66) 
65

>  <ligand_id>  (66) 
65

>  <original_smiles>  (66) 
[H]c1c([H])c([H])c2c(c1[H])C([H])([H])C([H])([H])C([H])([H])C2([H])N([H])C(=O)C1([H])N(C(=O)C([H])(N([H])C(=O)C([H])(N([H])C([H])([H])[H])C([H])([H])[H])C(C([H])([H])[H])(C([H])([H])[H])C([H])([H])[H])C([H])([H])c2c([H])c(OC([H])([H])C([H])([H])C([H])([H])[N+]([H])=C(N([H])C(=O)N3C([H])([H])C([H])([H])C([H])([H])C([H])(n4nc(-c5c([H])c([H])c(Oc6c([H])c([H])c(F)c([H])c6F)c([H])c5[H])c(C(=O)N([H])[H])c4N([H])[H])C3([H])[H])C([H])(C([H])([H])[H])C([H])([H])[N+]([H])([H])C([H])(C([H])([H])[H])C([H])([H])[H])c([H])c([H])c2C1([H])[H]

>  <smiles>  (66) 
[H]c1c([H])c([H])c2c(c1[H])C([H])([H])C([H])([H])C([H])([H])C2([H])N([H])C(=O)C1([H])N(C(=O)C([H])(N([H])C(=O)C([H])(N([H])C([H])([H])[H])C([H])([H])[H])C(C([H])([H])[H])(C([H])([H])[H])C([H])([H])[H])C([H])([H])c2c([H])c(OC([H])([H])C([H])([H])C([H])([H])[N+]([H])=C(N([H])C(=O)N3C([H])([H])C([H])([H])C([H])([H])C([H])(n4nc(-c5c([H])c([H])c(Oc6c([H])c([H])c(F)c([H])c6F)c([H])c5[H])c(C(=O)N([H])[H])c4N([H])[H])C3([H])[H])C([H])(C([H])([H])[H])C([H])([H])[N+]([H])([H])C([H])(C([H])([H])[H])C([H])([H])[H])c([H])c([H])c2C1([H])[H]

$$$$
66:0:0
     RDKit          3D

 99103  0  0  1  0  0  0  0  0999 V2000
  -25.6590  -14.1410   18.0870 C   0  0  0  0  0  3  0  0  0  0  0  0
  -26.5300  -13.0880   18.1460 C   0  0  0  0  0  3  0  0  0  0  0  0
  -26.0570  -15.4180   18.4480 C   0  0  0  0  0  2  0  0  0  0  0  0
  -27.8270  -13.1430   18.7190 C   0  0  0  0  0  2  0  0  0  0  0  0
  -28.2220  -14.7140   19.5050 C   0  0  0  0  0  2  0  0  0  0  0  0
  -27.3230  -15.7040   18.9590 C   0  0  0  0  0  3  0  0  0  0  0  0
  -28.5080  -17.3150   17.5950 C   0  0  0  0  0  1  0  0  0  0  0  0
  -27.6200  -17.0850   18.7620 N   0  0  0  0  0  0  0  0  0  0  0  0
  -26.7800  -17.6610   18.6820 H   0  0  0  0  0  0  0  0  0  0  0  0
  -28.4080  -11.2670   17.9630 C   0  0  0  0  0 15  0  0  0  0  0  0
  -28.8220   -9.4820   18.5610 N   0  0  0  0  0  0  0  0  0  0  0  0
  -27.9580   -9.5680   19.1450 H   0  0  0  0  0  0  0  0  0  0  0  0
  -28.0510   -6.8670   18.6460 C   0  0  0  0  0  1  0  0  0  0  0  0
  -28.4630   -8.2370   17.7470 C   0  0  0  0  0  2  0  0  0  0  0  0
  -29.6990   -8.7280   19.9160 C   0  0  0  0  0  2  0  0  0  0  0  0
  -30.8060   -9.3430   21.1690 C   0  0  0  0  0  2  0  0  0  0  0  0
  -32.3000  -10.0060   20.8590 C   0  0  0  0  0  0  0  0  0  0  0  0
  -32.8040  -11.6310   18.9240 C   0  0  0  0  0  2  0  0  0  0  0  0
  -32.2740  -13.1050   18.9590 C   0  0  0  0  0  2  0  0  0  0  0  0
  -31.3820  -13.3340   20.3540 C   0  0  0  0  0  3  0  0  0  0  0  0
  -30.3830  -12.1900   21.3380 C   0  0  0  0  0  3  0  0  0  0  0  0
  -30.9170  -11.4480   20.0480 C   0  0  0  0  0  3  0  0  0  0  0  0
  -32.1190  -10.9250   19.9600 N   0  0  0  0  0  0  0  0  0  0  0  0
  -33.4330   -9.8290   21.2810 O   0  0  0  0  0  0  0  0  0  0  0  0
  -27.6800  -13.2160   21.8740 C   0  0  0  0  0  0  0  0  0  0  0  0
  -26.4170  -12.6510   21.7340 C   0  0  0  0  0  0  0  0  0  0  0  0
  -26.4800  -11.2560   21.7190 C   0  0  0  0  0  0  0  0  0  0  0  0
  -28.6830  -12.2290   21.9300 N   0  0  0  0  0  0  0  0  0  0  0  0
  -27.7050  -11.2210   22.2830 N   0  0  0  0  0  0  0  0  0  0  0  0
  -25.4410  -10.1200   21.4560 C   0  0  0  0  0  0  0  0  0  0  0  0
  -25.3120   -8.9230   22.2090 C   0  0  0  0  0  3  0  0  0  0  0  0
  -24.2430   -8.0110   22.2160 C   0  0  0  0  0  3  0  0  0  0  0  0
  -23.2620   -8.1530   21.2310 C   0  0  0  0  0  0  0  0  0  0  0  0
  -23.3480   -9.2490   20.3180 C   0  0  0  0  0  3  0  0  0  0  0  0
  -24.4130  -10.2120   20.4530 C   0  0  0  0  0  3  0  0  0  0  0  0
  -22.2130   -7.2710   21.1500 O   0  0  0  0  0  0  0  0  0  0  0  0
  -21.6000   -6.6800   22.2320 C   0  0  0  0  0  0  0  0  0  0  0  0
  -21.0440   -7.4500   23.2770 C   0  0  0  0  0  3  0  0  0  0  0  0
  -20.3690   -6.8060   24.3290 C   0  0  0  0  0  3  0  0  0  0  0  0
  -20.2100   -5.4180   24.3260 C   0  0  0  0  0  0  0  0  0  0  0  0
  -20.8220   -4.6450   23.3270 C   0  0  0  0  0  3  0  0  0  0  0  0
  -21.5070   -5.2710   22.2670 C   0  0  0  0  0  0  0  0  0  0  0  0
  -22.0530   -4.5140   21.2850 F   0  0  0  0  0  0  0  0  0  0  0  0
  -19.5500   -4.8210   25.3430 F   0  0  0  0  0  0  0  0  0  0  0  0
  -25.1350  -13.3690   21.6980 C   0  0  0  0  0  0  0  0  0  0  0  0
  -24.1650  -12.9490   22.4680 N   0  0  0  0  0  0  0  0  0  0  0  0
  -25.0460  -14.4070   21.0420 O   0  0  0  0  0  0  0  0  0  0  0  0
  -24.2600  -12.2500   23.1930 H   0  0  0  0  0  0  0  0  0  0  0  0
  -23.3330  -13.5100   22.4490 H   0  0  0  0  0  0  0  0  0  0  0  0
  -28.1150  -14.5290   21.9870 N   0  0  0  0  0  0  0  0  0  0  0  0
  -27.3360  -15.1690   22.0880 H   0  0  0  0  0  0  0  0  0  0  0  0
  -28.9670  -14.8000   22.4970 H   0  0  0  0  0  0  0  0  0  0  0  0
  -29.4210  -15.9360   20.6160 C   0  0  0  0  0  1  0  0  0  0  0  0
  -29.5950  -17.6110   21.5230 N   0  0  0  0  0  4  0  0  0  0  0  0
  -29.8250  -17.3470   22.4650 H   0  0  0  0  0  0  0  0  0  0  0  0
  -28.6120  -17.8860   21.6000 H   0  0  0  0  0  0  0  0  0  0  0  0
  -30.4800  -19.3000   21.4690 C   0  0  0  0  0  1  0  0  0  0  0  0
  -30.5370  -21.3130   22.1480 C   0  0  0  0  0 15  0  0  0  0  0  0
  -31.2740  -23.0880   22.0720 O   0  0  0  0  0  1  0  0  0  0  0  0
  -28.6900  -30.5890   23.6270 C   0  0  0  0  0  0  0  0  0  0  0  0
  -30.7600  -24.5910   21.8320 C   0  0  0  0  0  0  0  0  0  0  0  0
  -27.6410  -29.0340   22.0650 C   0  0  0  0  0  3  0  0  0  0  0  0
  -29.0350  -27.0390   21.1620 C   0  0  0  0  0  0  0  0  0  0  0  0
  -30.2020  -28.8150   22.4150 C   0  0  0  0  0  2  0  0  0  0  0  0
  -30.1500  -27.2700   21.9710 C   0  0  0  0  0  0  0  0  0  0  0  0
  -31.0250  -26.0590   22.2700 C   0  0  0  0  0  3  0  0  0  0  0  0
  -29.7170  -24.6580   20.9050 C   0  0  0  0  0  3  0  0  0  0  0  0
  -28.8860  -25.7660   20.6090 C   0  0  0  0  0  3  0  0  0  0  0  0
  -28.0120  -28.1340   20.8660 C   0  0  0  0  0  2  0  0  0  0  0  0
  -28.8790  -29.5340   22.7470 N   0  0  0  0  0  0  0  0  0  0  0  0
  -27.5560  -31.0490   23.8620 O   0  0  0  0  0  0  0  0  0  0  0  0
  -26.6810  -28.2800   23.0360 C   0  0  0  0  0  0  0  0  0  0  0  0
  -25.3800  -28.1650   22.6950 N   0  0  0  0  0  0  0  0  0  0  0  0
  -27.1200  -27.8100   24.0900 O   0  0  0  0  0  0  0  0  0  0  0  0
  -25.0790  -28.6100   21.8390 H   0  0  0  0  0  0  0  0  0  0  0  0
  -21.8580  -27.2360   22.7990 C   0  0  0  0  0  0  0  0  0  0  0  0
  -24.3580  -27.4190   23.4500 C   0  0  0  0  0  3  0  0  0  0  0  0
  -24.4330  -25.9030   23.1430 C   0  0  0  0  0  2  0  0  0  0  0  0
  -23.4860  -25.4680   22.0210 C   0  0  0  0  0  2  0  0  0  0  0  0
  -22.0350  -25.7870   22.3860 C   0  0  0  0  0  2  0  0  0  0  0  0
  -22.9490  -28.0090   23.2820 C   0  0  0  0  0  0  0  0  0  0  0  0
  -22.7250  -29.3600   23.6300 C   0  0  0  0  0  3  0  0  0  0  0  0
  -21.4460  -29.9370   23.4980 C   0  0  0  0  0  3  0  0  0  0  0  0
  -20.3730  -29.1640   23.0220 C   0  0  0  0  0  3  0  0  0  0  0  0
  -20.5790  -27.8150   22.6840 C   0  0  0  0  0  3  0  0  0  0  0  0
  -29.8680  -31.2840   24.3700 C   0  0  0  0  0  3  0  0  0  0  0  0
  -30.0300  -30.7900   25.8630 C   0  0  1  0  0  0  0  0  0  0  0  0
  -28.7200  -30.8240   26.6880 C   0  0  0  0  0  1  0  0  0  0  0  0
  -30.5650  -29.3460   25.9040 C   0  0  0  0  0  1  0  0  0  0  0  0
  -31.0750  -31.6690   26.5860 C   0  0  0  0  0  1  0  0  0  0  0  0
  -29.6270  -32.7480   24.3640 N   0  0  0  0  0  0  0  0  0  0  0  0
  -30.1460  -33.6250   23.4940 C   0  0  0  0  0  0  0  0  0  0  0  0
  -30.9270  -33.2800   22.6030 O   0  0  0  0  0  0  0  0  0  0  0  0
  -28.9580  -33.0850   25.0410 H   0  0  0  0  0  0  0  0  0  0  0  0
  -28.6330  -35.4500   22.6250 C   0  0  0  0  0  1  0  0  0  0  0  0
  -29.7530  -35.1140   23.6280 C   0  0  0  0  0  3  0  0  0  0  0  0
  -31.8640  -36.0250   24.4990 C   0  0  0  0  0  1  0  0  0  0  0  0
  -30.8820  -36.0500   23.4190 N   0  0  0  0  0  0  0  0  0  0  0  0
  -30.5450  -37.0060   23.3190 H   0  0  0  0  0  0  0  0  0  0  0  0
  1  2  2  0
  1  3  1  0
  2  4  1  0
  3  6  1  0
  4  5  1  0
  6  8  1  0
  6  5  1  0
  7  8  1  0
  9  8  1  0
 11 12  1  0
 11 15  1  0
 14 11  1  0
 14 13  1  0
 15 16  1  0
 17 16  1  0
 17 24  2  0
 18 19  1  0
 18 23  1  0
 20 19  1  0
 20 21  1  0
 21 28  1  0
 22 23  1  0
 22 20  1  0
 22 21  1  0
 23 17  1  0
 25 28  1  0
 25 50  1  0
 26 25  2  0
 27 26  1  0
 27 29  2  0
 28 29  1  0
 30 27  1  0
 30 31  1  0
 31 32  2  0
 33 32  1  0
 34 35  1  0
 34 33  2  0
 35 30  2  0
 36 33  1  0
 36 37  1  0
 37 42  2  0
 37 38  1  0
 38 39  2  0
 40 39  1  0
 40 44  1  0
 41 40  2  0
 42 41  1  0
 43 42  1  0
 45 26  1  0
 45 46  1  0
 46 48  1  0
 47 45  2  0
 49 46  1  0
 50 51  1  0
 50 52  1  0
 53 54  1  0
 54 56  1  0
 54 55  1  0
 57 54  1  0
 60 71  2  0
 61 59  1  0
 61 66  1  0
 62 70  1  0
 62 72  1  0
 63 65  1  0
 64 70  1  0
 65 66  2  0
 65 64  1  0
 67 61  2  0
 68 67  1  0
 68 63  2  0
 69 63  1  0
 69 62  1  0
 70 60  1  0
 72 74  2  0
 73 72  1  0
 75 73  1  0
 76 81  1  0
 77 73  1  0
 78 77  1  0
 79 80  1  0
 79 78  1  0
 80 76  1  0
 81 77  1  0
 81 82  2  0
 83 82  1  0
 84 83  2  0
 85 76  2  0
 85 84  1  0
 86 60  1  0
 86 87  1  0
 87 89  1  6
 87 90  1  0
 87 88  1  0
 91 86  1  0
 91 94  1  0
 92 96  1  0
 92 91  1  0
 93 92  2  0
 96 95  1  0
 98 96  1  0
 98 97  1  0
 99 98  1  0
M  ISO  4  16 100  17 100  58 101  59 101
M  END
>  <TORSDO>  (67) 
F 26

>  <SCORE>  (67) 
5.537

>  <name>  (67) 
66

>  <ligand_id>  (67) 
66

>  <original_smiles>  (67) 
[H]c1c([H])c([H])c2c(c1[H])C([H])([H])C([H])([H])C([H])([H])C2([H])N([H])C(=O)C1([H])N(C(=O)C([H])(N([H])C(=O)C([H])(N([H])C([H])([H])[H])C([H])([H])[H])C(C([H])([H])[H])(C([H])([H])[H])C([H])([H])[H])C([H])([H])c2c([H])c(OC([H])([H])C([H])([H])[N+]([H])([H])C([H])([H])c3c(N([H])C([H])([H])[H])c([H])c([H])c([H])c3C([H])([H])[N+]([H])(C([H])([H])C([H])([H])[H])C([H])([H])C([H])([H])C(=O)N3C([H])([H])C([H])([H])C([H])([H])C([H])(n4nc(-c5c([H])c([H])c(Oc6c([H])c([H])c(F)c([H])c6F)c([H])c5[H])c(C(=O)N([H])[H])c4N([H])[H])C3([H])[H])c([H])c([H])c2C1([H])[H]

>  <smiles>  (67) 
[H]c1c([H])c([H])c2c(c1[H])C([H])([H])C([H])([H])C([H])([H])C2([H])N([H])C(=O)C1([H])N(C(=O)C([H])(N([H])C(=O)C([H])(N([H])C([H])([H])[H])C([H])([H])[H])C(C([H])([H])[H])(C([H])([H])[H])C([H])([H])[H])C([H])([H])c2c([H])c(OC([H])([H])C([H])([H])[N+]([H])([H])C([H])([H])c3c(N([H])C([H])([H])[H])c([H])c([H])c([H])c3C([H])([H])[N+]([H])(C([H])([H])C([H])([H])[H])C([H])([H])C([H])([H])C(=O)N3C([H])([H])C([H])([H])C([H])([H])C([H])(n4nc(-c5c([H])c([H])c(Oc6c([H])c([H])c(F)c([H])c6F)c([H])c5[H])c(C(=O)N([H])[H])c4N([H])[H])C3([H])[H])c([H])c([H])c2C1([H])[H]

$$$$
67:0:0
     RDKit          3D

 95102  0  0  1  0  0  0  0  0999 V2000
  -30.1440  -22.0260   20.1570 N   0  0  0  0  0  0  0  0  0  0  0  0
  -30.6790  -22.0170   21.0210 H   0  0  0  0  0  0  0  0  0  0  0  0
  -29.7950  -20.6450   19.8150 C   0  0  0  0  0  2  0  0  0  0  0  0
  -31.9470  -19.9690   21.0460 C   0  0  0  0  0  1  0  0  0  0  0  0
  -31.8650  -20.0380   18.5310 C   0  0  0  0  0  1  0  0  0  0  0  0
  -31.0510  -19.7170   19.8040 C   0  0  2  0  0  0  0  0  0  0  0  0
  -30.6480  -18.2810   19.7460 N   0  0  0  0  0  4  0  0  0  0  0  0
  -30.0820  -18.1510   18.9220 H   0  0  0  0  0  0  0  0  0  0  0  0
  -31.4670  -17.7110   19.6140 H   0  0  0  0  0  0  0  0  0  0  0  0
  -29.8900  -17.7120   20.8910 C   0  0  0  0  0  2  0  0  0  0  0  0
  -30.6790  -16.6210   21.6510 C   0  0  0  0  0  2  0  0  0  0  0  0
  -30.7220  -14.4000   20.5200 C   0  0  0  0  0  0  0  0  0  0  0  0
  -30.3690  -12.3210   19.2480 C   0  0  0  0  0  2  0  0  0  0  0  0
  -29.4320  -12.5710   18.0510 C   0  0  0  0  0  2  0  0  0  0  0  0
  -27.9560  -12.4490   18.4710 C   0  0  0  0  0  2  0  0  0  0  0  0
  -27.6290  -13.2510   19.7580 C   0  0  0  0  0  3  0  0  0  0  0  0
  -28.6700  -12.9660   20.8620 C   0  0  0  0  0  2  0  0  0  0  0  0
  -30.0100  -13.2630   20.3150 N   0  0  0  0  0  0  0  0  0  0  0  0
  -31.7730  -14.6640   19.9300 O   0  0  0  0  0  0  0  0  0  0  0  0
  -30.1710  -15.2780   21.3670 N   0  0  0  0  0  0  0  0  0  0  0  0
  -29.3170  -14.9940   21.8240 H   0  0  0  0  0  0  0  0  0  0  0  0
  -25.2180  -13.8770   20.4120 C   0  0  0  0  0  0  0  0  0  0  0  0
  -24.1420  -13.1140   20.7840 C   0  0  0  0  0  0  0  0  0  0  0  0
  -24.6000  -11.7620   20.7810 C   0  0  0  0  0  0  0  0  0  0  0  0
  -26.2660  -12.9900   20.2170 N   0  0  0  0  0  0  0  0  0  0  0  0
  -25.8950  -11.7130   20.4900 N   0  0  0  0  0  0  0  0  0  0  0  0
  -23.8700  -10.5040   20.9850 C   0  0  0  0  0  0  0  0  0  0  0  0
  -24.2980   -9.5480   21.9310 C   0  0  0  0  0  3  0  0  0  0  0  0
  -23.5690   -8.3530   22.1220 C   0  0  0  0  0  3  0  0  0  0  0  0
  -22.3990   -8.1090   21.3640 C   0  0  0  0  0  0  0  0  0  0  0  0
  -21.9920   -9.0530   20.4050 C   0  0  0  0  0  3  0  0  0  0  0  0
  -22.7200  -10.2390   20.2140 C   0  0  0  0  0  3  0  0  0  0  0  0
  -21.6430   -6.9660   21.4600 O   0  0  0  0  0  0  0  0  0  0  0  0
  -21.5930   -6.2310   22.6180 C   0  0  0  0  0  0  0  0  0  0  0  0
  -21.1740   -6.7970   23.8430 C   0  0  0  0  0  3  0  0  0  0  0  0
  -21.0730   -5.9900   24.9940 C   0  0  0  0  0  3  0  0  0  0  0  0
  -21.3780   -4.6180   24.9200 C   0  0  0  0  0  0  0  0  0  0  0  0
  -21.7920   -4.0520   23.7020 C   0  0  0  0  0  3  0  0  0  0  0  0
  -21.8960   -4.8570   22.5530 C   0  0  0  0  0  0  0  0  0  0  0  0
  -22.2730   -4.3020   21.3760 F   0  0  0  0  0  0  0  0  0  0  0  0
  -21.2740   -3.8400   26.0230 F   0  0  0  0  0  0  0  0  0  0  0  0
  -22.7440  -13.6020   21.0330 C   0  0  0  0  0  0  0  0  0  0  0  0
  -22.0030  -12.9180   21.9020 N   0  0  0  0  0  0  0  0  0  0  0  0
  -22.3130  -14.6170   20.4920 O   0  0  0  0  0  0  0  0  0  0  0  0
  -22.3650  -12.0990   22.3640 H   0  0  0  0  0  0  0  0  0  0  0  0
  -21.0620  -13.2240   22.1100 H   0  0  0  0  0  0  0  0  0  0  0  0
  -25.3880  -15.2440   20.2080 N   0  0  0  0  0  0  0  0  0  0  0  0
  -24.6200  -15.9040   20.2780 H   0  0  0  0  0  0  0  0  0  0  0  0
  -26.2460  -15.6680   19.8820 H   0  0  0  0  0  0  0  0  0  0  0  0
  -28.9600  -22.8890   20.3270 C   0  0  0  0  0  3  0  0  0  0  0  0
  -28.1680  -22.5620   21.6120 C   0  0  0  0  0  3  0  0  0  0  0  0
  -28.7080  -22.3530   22.7020 O   0  0  0  0  0  0  0  0  0  0  0  0
  -29.3640  -24.3860   20.3190 C   0  0  0  0  0  2  0  0  0  0  0  0
  -28.1610  -25.2680   19.9600 C   0  0  0  0  0  2  0  0  0  0  0  0
  -28.3680  -26.6770   20.1380 O   0  0  0  0  0  0  0  0  0  0  0  0
  -24.6150  -31.8700   23.2530 C   0  0  0  0  0  0  0  0  0  0  0  0
  -27.2120  -27.4360   20.1200 C   0  0  0  0  0  0  0  0  0  0  0  0
  -23.3950  -30.4820   21.6160 C   0  0  0  0  0  3  0  0  0  0  0  0
  -24.8290  -28.9650   20.1610 C   0  0  0  0  0  0  0  0  0  0  0  0
  -25.9210  -30.8350   21.4020 C   0  0  0  0  0  2  0  0  0  0  0  0
  -25.9970  -29.4720   20.7470 C   0  0  0  0  0  0  0  0  0  0  0  0
  -27.1930  -28.7140   20.7260 C   0  0  0  0  0  3  0  0  0  0  0  0
  -26.0190  -26.9600   19.5190 C   0  0  0  0  0  3  0  0  0  0  0  0
  -24.8350  -27.7070   19.5460 C   0  0  0  0  0  3  0  0  0  0  0  0
  -23.5900  -29.8230   20.2270 C   0  0  0  0  0  2  0  0  0  0  0  0
  -24.6640  -31.0740   22.1490 N   0  0  0  0  0  0  0  0  0  0  0  0
  -23.5370  -32.1470   23.7980 O   0  0  0  0  0  0  0  0  0  0  0  0
  -22.7510  -29.4510   22.5710 C   0  0  0  0  0  0  0  0  0  0  0  0
  -21.4270  -29.2690   22.4490 N   0  0  0  0  0  0  0  0  0  0  0  0
  -23.4410  -28.8210   23.3770 O   0  0  0  0  0  0  0  0  0  0  0  0
  -20.9320  -29.8330   21.7710 H   0  0  0  0  0  0  0  0  0  0  0  0
  -18.0530  -28.0760   22.9450 C   0  0  0  0  0  0  0  0  0  0  0  0
  -20.6110  -28.3290   23.2160 C   0  0  0  0  0  3  0  0  0  0  0  0
  -20.7120  -26.9010   22.6350 C   0  0  0  0  0  2  0  0  0  0  0  0
  -19.6080  -26.5820   21.6210 C   0  0  0  0  0  2  0  0  0  0  0  0
  -18.2270  -26.7280   22.2670 C   0  0  0  0  0  2  0  0  0  0  0  0
  -19.1720  -28.8350   23.3760 C   0  0  0  0  0  0  0  0  0  0  0  0
  -18.9560  -30.0990   23.9670 C   0  0  0  0  0  3  0  0  0  0  0  0
  -17.6520  -30.6020   24.1340 C   0  0  0  0  0  3  0  0  0  0  0  0
  -16.5460  -29.8390   23.7220 C   0  0  0  0  0  3  0  0  0  0  0  0
  -16.7480  -28.5780   23.1310 C   0  0  0  0  0  3  0  0  0  0  0  0
  -25.9090  -32.4910   23.8650 C   0  0  0  0  0  3  0  0  0  0  0  0
  -26.4290  -31.7130   25.1350 C   0  0  1  0  0  0  0  0  0  0  0  0
  -25.3420  -31.4760   26.2110 C   0  0  0  0  0  1  0  0  0  0  0  0
  -27.0010  -30.3320   24.7360 C   0  0  0  0  0  1  0  0  0  0  0  0
  -27.5880  -32.5000   25.7900 C   0  0  0  0  0  1  0  0  0  0  0  0
  -25.6090  -33.8900   24.1980 N   0  0  0  0  0  0  0  0  0  0  0  0
  -25.9430  -34.9380   23.4330 C   0  0  0  0  0  0  0  0  0  0  0  0
  -26.6090  -34.8300   22.4000 O   0  0  0  0  0  0  0  0  0  0  0  0
  -25.0100  -34.0470   24.9960 H   0  0  0  0  0  0  0  0  0  0  0  0
  -24.2250  -36.7430   23.0830 C   0  0  0  0  0  1  0  0  0  0  0  0
  -25.4670  -36.3290   23.8890 C   0  0  0  0  0  3  0  0  0  0  0  0
  -27.6100  -37.2060   24.7110 C   0  0  0  0  0  1  0  0  0  0  0  0
  -26.5060  -37.3750   23.7710 N   0  0  0  0  0  0  0  0  0  0  0  0
  -26.1030  -38.2980   23.9170 H   0  0  0  0  0  0  0  0  0  0  0  0
  1 50  1  0
  1  2  1  0
  3  1  1  0
  6  5  1  6
  6  3  1  0
  6  4  1  0
  7  6  1  0
  7 10  1  0
  8  7  1  0
  9  7  1  0
 10 11  1  0
 12 20  1  0
 13 18  1  0
 14 15  1  0
 14 13  1  0
 16 15  1  0
 16 25  1  0
 16 17  1  0
 18 12  1  0
 18 17  1  0
 19 12  2  0
 20 11  1  0
 20 21  1  0
 22 23  2  0
 23 42  1  0
 24 23  1  0
 24 27  1  0
 25 22  1  0
 25 26  1  0
 26 24  2  0
 27 28  1  0
 28 29  2  0
 30 33  1  0
 30 29  1  0
 31 30  2  0
 32 31  1  0
 32 27  2  0
 33 34  1  0
 34 35  1  0
 35 36  2  0
 37 36  1  0
 37 41  1  0
 38 37  2  0
 39 34  2  0
 39 38  1  0
 40 39  1  0
 42 43  1  0
 43 46  1  0
 43 45  1  0
 44 42  2  0
 47 48  1  0
 47 22  1  0
 49 47  1  0
 50 53  1  0
 50 51  1  0
 51 52  2  0
 54 55  1  0
 54 53  1  0
 56 67  2  0
 57 55  1  0
 57 62  1  0
 58 66  1  0
 58 68  1  0
 59 65  1  0
 59 61  1  0
 60 66  1  0
 61 60  1  0
 62 61  2  0
 63 64  1  0
 63 57  2  0
 64 59  2  0
 65 58  1  0
 66 56  1  0
 68 70  2  0
 69 68  1  0
 71 69  1  0
 72 81  2  0
 72 77  1  0
 73 69  1  0
 73 77  1  0
 74 73  1  0
 75 76  1  0
 75 74  1  0
 76 72  1  0
 77 78  2  0
 78 79  1  0
 80 79  2  0
 81 80  1  0
 82 56  1  0
 82 87  1  0
 82 83  1  0
 83 86  1  1
 83 84  1  0
 85 83  1  0
 87 90  1  0
 88 92  1  0
 88 87  1  0
 89 88  2  0
 92 91  1  0
 94 92  1  0
 94 95  1  0
 94 93  1  0
M  ISO  4  12 100  20 100  54 101  55 101
M  END
>  <TORSDO>  (68) 
F 25

>  <SCORE>  (68) 
-12.254

>  <name>  (68) 
67

>  <ligand_id>  (68) 
67

>  <original_smiles>  (68) 
[H]C(=O)C([H])(N([H])C([H])([H])C(C([H])([H])[H])(C([H])([H])[H])[N+]([H])([H])C([H])([H])C([H])([H])N([H])C(=O)N1C([H])([H])C([H])([H])C([H])([H])C([H])(n2nc(-c3c([H])c([H])c(Oc4c([H])c([H])c(F)c([H])c4F)c([H])c3[H])c(C(=O)N([H])[H])c2N([H])[H])C1([H])[H])C([H])([H])C([H])([H])Oc1c([H])c([H])c2c(c1[H])C([H])([H])N(C(=O)C([H])(N([H])C(=O)C([H])(N([H])C([H])([H])[H])C([H])([H])[H])C(C([H])([H])[H])(C([H])([H])[H])C([H])([H])[H])C([H])(C(=O)N([H])C1([H])c3c([H])c([H])c([H])c([H])c3C([H])([H])C([H])([H])C1([H])[H])C2([H])[H]

>  <smiles>  (68) 
[H]C(=O)C([H])(N([H])C([H])([H])C(C([H])([H])[H])(C([H])([H])[H])[N+]([H])([H])C([H])([H])C([H])([H])N([H])C(=O)N1C([H])([H])C([H])([H])C([H])([H])C([H])(n2nc(-c3c([H])c([H])c(Oc4c([H])c([H])c(F)c([H])c4F)c([H])c3[H])c(C(=O)N([H])[H])c2N([H])[H])C1([H])[H])C([H])([H])C([H])([H])Oc1c([H])c([H])c2c(c1[H])C([H])([H])N(C(=O)C([H])(N([H])C(=O)C([H])(N([H])C([H])([H])[H])C([H])([H])[H])C(C([H])([H])[H])(C([H])([H])[H])C([H])([H])[H])C([H])(C(=O)N([H])C1([H])c3c([H])c([H])c([H])c([H])c3C([H])([H])C([H])([H])C1([H])[H])C2([H])[H]

$$$$
68:0:0
     RDKit          3D

 94102  0  0  1  0  0  0  0  0999 V2000
  -32.0830  -19.4010   22.2440 C   0  0  0  0  0  3  0  0  0  0  0  0
  -31.7660  -21.8210   22.1600 C   0  0  0  0  0  3  0  0  0  0  0  0
  -29.8830  -20.3310   21.7640 C   0  0  0  0  0  3  0  0  0  0  0  0
  -32.6080  -20.7060   22.3540 C   0  0  0  0  0  0  0  0  0  0  0  0
  -30.7120  -19.2050   21.9590 C   0  0  0  0  0  0  0  0  0  0  0  0
  -30.3950  -21.6440   21.8550 C   0  0  0  0  0  0  0  0  0  0  0  0
  -29.5200  -22.7220   21.6320 N   0  0  0  0  0  0  0  0  0  0  0  0
  -28.5310  -22.5140   21.5190 H   0  0  0  0  0  0  0  0  0  0  0  0
  -29.8830  -24.0660   22.0690 C   0  0  0  0  0  2  0  0  0  0  0  0
  -28.7960  -25.1130   21.7600 C   0  0  0  0  0  2  0  0  0  0  0  0
  -28.6790  -25.4730   20.2660 C   0  0  0  0  0  2  0  0  0  0  0  0
  -28.5900  -26.8880   20.1160 O   0  0  0  0  0  0  0  0  0  0  0  0
  -24.6300  -31.8920   23.2340 C   0  0  0  0  0  0  0  0  0  0  0  0
  -27.3640  -27.5070   20.1630 C   0  0  0  0  0  0  0  0  0  0  0  0
  -23.4510  -30.4750   21.5820 C   0  0  0  0  0  3  0  0  0  0  0  0
  -24.9350  -28.9520   20.1730 C   0  0  0  0  0  0  0  0  0  0  0  0
  -25.9700  -30.8720   21.4010 C   0  0  0  0  0  2  0  0  0  0  0  0
  -26.0780  -29.5030   20.7630 C   0  0  0  0  0  0  0  0  0  0  0  0
  -27.2940  -28.7870   20.7540 C   0  0  0  0  0  3  0  0  0  0  0  0
  -26.2010  -26.9580   19.5770 C   0  0  0  0  0  3  0  0  0  0  0  0
  -24.9890  -27.6760   19.5820 C   0  0  0  0  0  3  0  0  0  0  0  0
  -23.6790  -29.7930   20.2060 C   0  0  0  0  0  2  0  0  0  0  0  0
  -24.7010  -31.0940   22.1320 N   0  0  0  0  0  0  0  0  0  0  0  0
  -23.5430  -32.1500   23.7680 O   0  0  0  0  0  0  0  0  0  0  0  0
  -22.8090  -29.4440   22.5370 C   0  0  0  0  0  0  0  0  0  0  0  0
  -21.4850  -29.2600   22.4120 N   0  0  0  0  0  0  0  0  0  0  0  0
  -23.5000  -28.8130   23.3420 O   0  0  0  0  0  0  0  0  0  0  0  0
  -20.9920  -29.8190   21.7310 H   0  0  0  0  0  0  0  0  0  0  0  0
  -18.1120  -28.0740   22.9220 C   0  0  0  0  0  0  0  0  0  0  0  0
  -20.6720  -28.3140   23.1740 C   0  0  0  0  0  3  0  0  0  0  0  0
  -20.7630  -26.8910   22.5750 C   0  0  0  0  0  2  0  0  0  0  0  0
  -19.6510  -26.5920   21.5650 C   0  0  0  0  0  2  0  0  0  0  0  0
  -18.2760  -26.7350   22.2250 C   0  0  0  0  0  2  0  0  0  0  0  0
  -19.2380  -28.8230   23.3530 C   0  0  0  0  0  0  0  0  0  0  0  0
  -19.0340  -30.0810   23.9620 C   0  0  0  0  0  3  0  0  0  0  0  0
  -17.7350  -30.5890   24.1460 C   0  0  0  0  0  3  0  0  0  0  0  0
  -16.6220  -29.8350   23.7330 C   0  0  0  0  0  3  0  0  0  0  0  0
  -16.8120  -28.5800   23.1270 C   0  0  0  0  0  3  0  0  0  0  0  0
  -25.9060  -32.5350   23.8630 C   0  0  0  0  0  3  0  0  0  0  0  0
  -25.5820  -33.9290   24.1890 N   0  0  0  0  0  0  0  0  0  0  0  0
  -25.9060  -34.9830   23.4280 C   0  0  0  0  0  0  0  0  0  0  0  0
  -26.5830  -34.8840   22.4000 O   0  0  0  0  0  0  0  0  0  0  0  0
  -24.9900  -34.0800   24.9930 H   0  0  0  0  0  0  0  0  0  0  0  0
  -24.1650  -36.7540   23.0540 C   0  0  0  0  0  1  0  0  0  0  0  0
  -25.4010  -36.3670   23.8780 C   0  0  0  0  0  3  0  0  0  0  0  0
  -27.5180  -37.2760   24.7300 C   0  0  0  0  0  1  0  0  0  0  0  0
  -26.4240  -37.4300   23.7740 N   0  0  0  0  0  0  0  0  0  0  0  0
  -26.0060  -38.3450   23.9150 H   0  0  0  0  0  0  0  0  0  0  0  0
  -26.4260  -31.7690   25.1410 C   0  0  1  0  0  0  0  0  0  0  0  0
  -25.3290  -31.5160   26.2020 C   0  0  0  0  0  1  0  0  0  0  0  0
  -27.0270  -30.3990   24.7460 C   0  0  0  0  0  1  0  0  0  0  0  0
  -27.5620  -32.5740   25.8110 C   0  0  0  0  0  1  0  0  0  0  0  0
  -30.1370  -17.9250   21.8890 N   0  0  0  0  0  0  0  0  0  0  0  0
  -29.1370  -17.9140   21.7010 H   0  0  0  0  0  0  0  0  0  0  0  0
  -30.9030  -16.8430   21.2720 C   0  0  0  0  0  2  0  0  0  0  0  0
  -30.1290  -15.5070   21.2870 C   0  0  0  0  0  2  0  0  0  0  0  0
  -30.7090  -14.4350   20.3450 C   0  0  0  0  0  0  0  0  0  0  0  0
  -30.3490  -12.3610   19.0510 C   0  0  0  0  0  2  0  0  0  0  0  0
  -29.3750  -12.6310   17.8870 C   0  0  0  0  0  2  0  0  0  0  0  0
  -27.9140  -12.4800   18.3510 C   0  0  0  0  0  2  0  0  0  0  0  0
  -27.6170  -13.2670   19.6550 C   0  0  0  0  0  3  0  0  0  0  0  0
  -28.6970  -12.9800   20.7240 C   0  0  0  0  0  2  0  0  0  0  0  0
  -30.0120  -13.2880   20.1390 N   0  0  0  0  0  0  0  0  0  0  0  0
  -31.7690  -14.6760   19.7570 O   0  0  0  0  0  0  0  0  0  0  0  0
  -25.2180  -13.8560   20.3870 C   0  0  0  0  0  0  0  0  0  0  0  0
  -24.1630  -13.0750   20.7730 C   0  0  0  0  0  0  0  0  0  0  0  0
  -24.6370  -11.7270   20.7420 C   0  0  0  0  0  0  0  0  0  0  0  0
  -26.2710  -12.9850   20.1520 N   0  0  0  0  0  0  0  0  0  0  0  0
  -25.9240  -11.7000   20.4180 N   0  0  0  0  0  0  0  0  0  0  0  0
  -23.9280  -10.4590   20.9470 C   0  0  0  0  0  0  0  0  0  0  0  0
  -24.3740   -9.5090   21.8930 C   0  0  0  0  0  3  0  0  0  0  0  0
  -23.6660   -8.3040   22.0860 C   0  0  0  0  0  3  0  0  0  0  0  0
  -22.4980   -8.0400   21.3320 C   0  0  0  0  0  0  0  0  0  0  0  0
  -22.0700   -8.9780   20.3770 C   0  0  0  0  0  3  0  0  0  0  0  0
  -22.7790  -10.1750   20.1840 C   0  0  0  0  0  3  0  0  0  0  0  0
  -21.7590   -6.8840   21.4340 O   0  0  0  0  0  0  0  0  0  0  0  0
  -21.7070   -6.1640   22.6000 C   0  0  0  0  0  0  0  0  0  0  0  0
  -21.2490   -6.7340   23.8080 C   0  0  0  0  0  3  0  0  0  0  0  0
  -21.1460   -5.9380   24.9670 C   0  0  0  0  0  3  0  0  0  0  0  0
  -21.4900   -4.5730   24.9170 C   0  0  0  0  0  0  0  0  0  0  0  0
  -21.9420   -4.0040   23.7140 C   0  0  0  0  0  3  0  0  0  0  0  0
  -22.0460   -4.7960   22.5580 C   0  0  0  0  0  0  0  0  0  0  0  0
  -22.4610   -4.2360   21.3960 F   0  0  0  0  0  0  0  0  0  0  0  0
  -21.3830   -3.8070   26.0280 F   0  0  0  0  0  0  0  0  0  0  0  0
  -22.7640  -13.5380   21.0640 C   0  0  0  0  0  0  0  0  0  0  0  0
  -22.0560  -12.8340   21.9410 N   0  0  0  0  0  0  0  0  0  0  0  0
  -22.3080  -14.5590   20.5510 O   0  0  0  0  0  0  0  0  0  0  0  0
  -22.4370  -12.0070   22.3750 H   0  0  0  0  0  0  0  0  0  0  0  0
  -21.1200  -13.1280   22.1810 H   0  0  0  0  0  0  0  0  0  0  0  0
  -25.3680  -15.2280   20.2000 N   0  0  0  0  0  0  0  0  0  0  0  0
  -24.5980  -15.8790   20.3180 H   0  0  0  0  0  0  0  0  0  0  0  0
  -26.2140  -15.6710   19.8670 H   0  0  0  0  0  0  0  0  0  0  0  0
  -34.9620  -20.9710   21.4470 C   0  0  0  0  0  1  0  0  0  0  0  0
  -34.0740  -20.9070   22.6950 C   0  0  0  0  0  2  0  0  0  0  0  0
  1  4  1  0
  2  4  2  0
  3  6  2  0
  3  5  1  0
  4 94  1  0
  5  1  2  0
  6  2  1  0
  7  6  1  0
  7  9  1  0
  8  7  1  0
 10  9  1  0
 11 10  1  0
 12 14  1  0
 12 11  1  0
 13 24  2  0
 14 19  1  0
 15 23  1  0
 15 25  1  0
 16 22  1  0
 16 18  1  0
 17 23  1  0
 18 17  1  0
 19 18  2  0
 20 21  1  0
 20 14  2  0
 21 16  2  0
 22 15  1  0
 23 13  1  0
 25 27  2  0
 26 25  1  0
 28 26  1  0
 29 38  2  0
 29 34  1  0
 30 26  1  0
 30 34  1  0
 31 30  1  0
 32 33  1  0
 32 31  1  0
 33 29  1  0
 34 35  2  0
 35 36  1  0
 37 36  2  0
 38 37  1  0
 39 13  1  0
 39 40  1  0
 39 49  1  0
 40 43  1  0
 41 45  1  0
 41 40  1  0
 42 41  2  0
 45 44  1  0
 47 45  1  0
 47 48  1  0
 47 46  1  0
 49 52  1  1
 49 50  1  0
 51 49  1  0
 53  5  1  0
 54 53  1  0
 55 56  1  0
 55 53  1  0
 57 56  1  0
 58 63  1  0
 59 60  1  0
 59 58  1  0
 61 60  1  0
 61 68  1  0
 61 62  1  0
 63 57  1  0
 63 62  1  0
 64 57  2  0
 65 66  2  0
 66 85  1  0
 67 66  1  0
 67 70  1  0
 68 65  1  0
 68 69  1  0
 69 67  2  0
 70 71  1  0
 71 72  2  0
 73 76  1  0
 73 72  1  0
 74 73  2  0
 75 74  1  0
 75 70  2  0
 76 77  1  0
 77 78  1  0
 78 79  2  0
 80 79  1  0
 80 84  1  0
 81 80  2  0
 82 77  2  0
 82 81  1  0
 83 82  1  0
 85 86  1  0
 86 89  1  0
 86 88  1  0
 87 85  2  0
 90 91  1  0
 90 65  1  0
 92 90  1  0
 93 94  1  0
M  ISO  4  11 101  12 101  56 100  57 100
M  END
>  <TORSDO>  (69) 
F 24

>  <SCORE>  (69) 
-12.543

>  <name>  (69) 
68

>  <ligand_id>  (69) 
68

>  <original_smiles>  (69) 
[H]c1c([H])c([H])c2c(c1[H])C([H])([H])C([H])([H])C([H])([H])C2([H])N([H])C(=O)C1([H])N(C(=O)C([H])(N([H])C(=O)C([H])(N([H])C([H])([H])[H])C([H])([H])[H])C(C([H])([H])[H])(C([H])([H])[H])C([H])([H])[H])C([H])([H])c2c([H])c(OC([H])([H])C([H])([H])C([H])([H])N([H])c3c([H])c(N([H])C([H])([H])C([H])([H])C(=O)N4C([H])([H])C([H])([H])C([H])([H])C([H])(n5nc(-c6c([H])c([H])c(Oc7c([H])c([H])c(F)c([H])c7F)c([H])c6[H])c(C(=O)N([H])[H])c5N([H])[H])C4([H])[H])c([H])c(C([H])([H])C([H])([H])[H])c3[H])c([H])c([H])c2C1([H])[H]

>  <smiles>  (69) 
[H]c1c([H])c([H])c2c(c1[H])C([H])([H])C([H])([H])C([H])([H])C2([H])N([H])C(=O)C1([H])N(C(=O)C([H])(N([H])C(=O)C([H])(N([H])C([H])([H])[H])C([H])([H])[H])C(C([H])([H])[H])(C([H])([H])[H])C([H])([H])[H])C([H])([H])c2c([H])c(OC([H])([H])C([H])([H])C([H])([H])N([H])c3c([H])c(N([H])C([H])([H])C([H])([H])C(=O)N4C([H])([H])C([H])([H])C([H])([H])C([H])(n5nc(-c6c([H])c([H])c(Oc7c([H])c([H])c(F)c([H])c7F)c([H])c6[H])c(C(=O)N([H])[H])c5N([H])[H])C4([H])[H])c([H])c(C([H])([H])C([H])([H])[H])c3[H])c([H])c([H])c2C1([H])[H]

$$$$
69:0:0
     RDKit          3D

 99107  0  0  1  0  0  0  0  0999 V2000
  -27.6420  -18.0430   17.6790 C   0  0  0  0  0  3  0  0  0  0  0  0
  -28.2010  -19.3260   17.5670 C   0  0  0  0  0  3  0  0  0  0  0  0
  -28.4810  -16.9210   17.7850 C   0  0  0  0  0  3  0  0  0  0  0  0
  -30.4390  -18.3750   17.7170 C   0  0  0  0  0  3  0  0  0  0  0  0
  -29.6010  -19.5080   17.5530 C   0  0  0  0  0  0  0  0  0  0  0  0
  -29.8800  -17.0790   17.8360 C   0  0  0  0  0  0  0  0  0  0  0  0
  -30.7830  -15.8530   17.9410 C   0  0  0  0  0  2  0  0  0  0  0  0
  -31.0820  -13.6570   18.9600 C   0  0  0  0  0  0  0  0  0  0  0  0
  -30.6000  -11.2910   18.4640 C   0  0  0  0  0  2  0  0  0  0  0  0
  -29.5100  -11.1910   17.3800 C   0  0  0  0  0  2  0  0  0  0  0  0
  -28.1040  -11.2060   18.0130 C   0  0  0  0  0  2  0  0  0  0  0  0
  -27.9260  -12.3430   19.0520 C   0  0  0  0  0  3  0  0  0  0  0  0
  -29.1240  -12.4040   20.0230 C   0  0  0  0  0  2  0  0  0  0  0  0
  -30.3500  -12.5320   19.2200 N   0  0  0  0  0  0  0  0  0  0  0  0
  -32.1740  -13.5840   18.3900 O   0  0  0  0  0  0  0  0  0  0  0  0
  -30.4480  -14.8610   19.0090 N   0  0  0  0  0  0  0  0  0  0  0  0
  -25.7400  -13.2320   20.0710 C   0  0  0  0  0  0  0  0  0  0  0  0
  -24.6760  -12.5920   20.6470 C   0  0  0  0  0  0  0  0  0  0  0  0
  -24.9970  -11.2010   20.6340 C   0  0  0  0  0  0  0  0  0  0  0  0
  -26.6490  -12.2380   19.7480 N   0  0  0  0  0  0  0  0  0  0  0  0
  -26.2160  -11.0140   20.1430 N   0  0  0  0  0  0  0  0  0  0  0  0
  -24.1950  -10.0310   21.0120 C   0  0  0  0  0  0  0  0  0  0  0  0
  -24.5850   -9.1800   22.0690 C   0  0  0  0  0  3  0  0  0  0  0  0
  -23.7860   -8.0720   22.4260 C   0  0  0  0  0  3  0  0  0  0  0  0
  -22.5870   -7.8050   21.7230 C   0  0  0  0  0  0  0  0  0  0  0  0
  -22.2160   -8.6440   20.6570 C   0  0  0  0  0  3  0  0  0  0  0  0
  -23.0120   -9.7430   20.3000 C   0  0  0  0  0  3  0  0  0  0  0  0
  -21.7630   -6.7370   21.9820 O   0  0  0  0  0  0  0  0  0  0  0  0
  -21.5250   -6.3040   23.2610 C   0  0  0  0  0  0  0  0  0  0  0  0
  -20.9750   -7.1540   24.2450 C   0  0  0  0  0  3  0  0  0  0  0  0
  -20.6850   -6.6510   25.5300 C   0  0  0  0  0  3  0  0  0  0  0  0
  -20.9260   -5.2960   25.8280 C   0  0  0  0  0  0  0  0  0  0  0  0
  -21.4630   -4.4450   24.8460 C   0  0  0  0  0  3  0  0  0  0  0  0
  -21.7580   -4.9470   23.5670 C   0  0  0  0  0  0  0  0  0  0  0  0
  -22.2530   -4.1170   22.6170 F   0  0  0  0  0  0  0  0  0  0  0  0
  -20.6400   -4.8100   27.0570 F   0  0  0  0  0  0  0  0  0  0  0  0
  -23.3920  -13.2250   21.0980 C   0  0  0  0  0  0  0  0  0  0  0  0
  -22.7580  -12.6580   22.1190 N   0  0  0  0  0  0  0  0  0  0  0  0
  -22.9700  -14.2590   20.5810 O   0  0  0  0  0  0  0  0  0  0  0  0
  -23.1140  -11.8180   22.5530 H   0  0  0  0  0  0  0  0  0  0  0  0
  -21.9050  -13.0690   22.4700 H   0  0  0  0  0  0  0  0  0  0  0  0
  -25.9970  -14.5680   19.7800 N   0  0  0  0  0  0  0  0  0  0  0  0
  -25.2760  -15.2690   19.9070 H   0  0  0  0  0  0  0  0  0  0  0  0
  -26.7410  -14.8810   19.1710 H   0  0  0  0  0  0  0  0  0  0  0  0
  -30.2200  -15.5180   20.3120 C   0  0  0  0  0  2  0  0  0  0  0  0
  -28.7490  -15.9650   20.4940 C   0  0  0  0  0  2  0  0  0  0  0  0
  -29.1230  -18.2660   21.3630 C   0  0  0  0  0  1  0  0  0  0  0  0
  -28.5360  -16.9240   21.6090 N   0  0  1  0  0  4  0  0  0  0  0  0
  -29.0370  -16.5510   22.4050 H   0  0  0  0  0  0  0  0  0  0  0  0
  -26.0900  -16.9500   20.9020 C   0  0  0  0  0  1  0  0  0  0  0  0
  -27.1160  -16.9890   22.0530 C   0  0  0  0  0  2  0  0  0  0  0  0
  -30.1160  -20.9240   17.2880 C   0  0  0  0  0  2  0  0  0  0  0  0
  -31.6000  -21.2370   17.5730 C   0  0  0  0  0  2  0  0  0  0  0  0
  -33.0450  -22.8820   16.4060 C   0  0  0  0  0  1  0  0  0  0  0  0
  -31.8780  -22.6800   17.2980 N   0  0  2  0  0  4  0  0  0  0  0  0
  -31.0910  -22.9730   16.7400 H   0  0  0  0  0  0  0  0  0  0  0  0
  -31.8810  -23.6000   18.4750 C   0  0  0  0  0  2  0  0  0  0  0  0
  -30.6170  -24.4830   18.4790 C   0  0  0  0  0  2  0  0  0  0  0  0
  -30.7140  -25.5810   19.3940 O   0  0  0  0  0  0  0  0  0  0  0  0
  -27.2330  -30.0560   23.6940 C   0  0  0  0  0  0  0  0  0  0  0  0
  -29.6140  -26.4110   19.5320 C   0  0  0  0  0  0  0  0  0  0  0  0
  -26.0110  -29.3590   21.6590 C   0  0  0  0  0  3  0  0  0  0  0  0
  -27.3960  -28.1390   19.9010 C   0  0  0  0  0  0  0  0  0  0  0  0
  -28.5700  -29.4340   21.6860 C   0  0  0  0  0  2  0  0  0  0  0  0
  -28.5540  -28.3110   20.6700 C   0  0  0  0  0  0  0  0  0  0  0  0
  -29.6610  -27.4500   20.4890 C   0  0  0  0  0  3  0  0  0  0  0  0
  -28.4350  -26.2620   18.7590 C   0  0  0  0  0  3  0  0  0  0  0  0
  -27.3340  -27.1140   18.9440 C   0  0  0  0  0  3  0  0  0  0  0  0
  -26.2500  -29.0930   20.1500 C   0  0  0  0  0  2  0  0  0  0  0  0
  -27.2860  -29.6100   22.4070 N   0  0  0  0  0  0  0  0  0  0  0  0
  -26.1490  -30.2930   24.2440 O   0  0  0  0  0  0  0  0  0  0  0  0
  -25.1810  -28.1920   22.2410 C   0  0  0  0  0  0  0  0  0  0  0  0
  -23.8580  -28.2280   22.0130 N   0  0  0  0  0  0  0  0  0  0  0  0
  -25.7300  -27.2720   22.8530 O   0  0  0  0  0  0  0  0  0  0  0  0
  -23.4860  -29.0230   21.5120 H   0  0  0  0  0  0  0  0  0  0  0  0
  -20.3490  -27.3720   21.9690 C   0  0  0  0  0  0  0  0  0  0  0  0
  -22.8870  -27.2190   22.4330 C   0  0  0  0  0  3  0  0  0  0  0  0
  -22.8880  -26.0110   21.4680 C   0  0  0  0  0  2  0  0  0  0  0  0
  -21.8460  -26.1330   20.3500 C   0  0  0  0  0  2  0  0  0  0  0  0
  -20.4370  -26.2600   20.9380 C   0  0  0  0  0  2  0  0  0  0  0  0
  -21.5020  -27.8320   22.6600 C   0  0  0  0  0  0  0  0  0  0  0  0
  -21.3700  -28.8940   23.5830 C   0  0  0  0  0  3  0  0  0  0  0  0
  -20.1160  -29.4870   23.8210 C   0  0  0  0  0  3  0  0  0  0  0  0
  -18.9770  -29.0180   23.1460 C   0  0  0  0  0  3  0  0  0  0  0  0
  -19.0930  -27.9600   22.2270 C   0  0  0  0  0  3  0  0  0  0  0  0
  -28.5280  -30.3080   24.5280 C   0  0  0  0  0  3  0  0  0  0  0  0
  -28.9260  -29.0860   25.4420 C   0  0  1  0  0  0  0  0  0  0  0  0
  -27.7710  -28.5760   26.3350 C   0  0  0  0  0  1  0  0  0  0  0  0
  -29.4150  -27.8980   24.5820 C   0  0  0  0  0  1  0  0  0  0  0  0
  -30.1020  -29.4800   26.3650 C   0  0  0  0  0  1  0  0  0  0  0  0
  -28.3030  -31.5130   25.3380 N   0  0  0  0  0  0  0  0  0  0  0  0
  -28.7410  -32.7380   25.0160 C   0  0  0  0  0  0  0  0  0  0  0  0
  -29.4450  -32.9590   24.0270 O   0  0  0  0  0  0  0  0  0  0  0  0
  -27.6850  -31.4170   26.1300 H   0  0  0  0  0  0  0  0  0  0  0  0
  -27.1440  -34.6580   25.3130 C   0  0  0  0  0  1  0  0  0  0  0  0
  -28.3300  -33.9040   25.9350 C   0  0  0  0  0  3  0  0  0  0  0  0
  -30.4920  -34.2730   27.0390 C   0  0  0  0  0  1  0  0  0  0  0  0
  -29.4310  -34.8500   26.2160 N   0  0  0  0  0  0  0  0  0  0  0  0
  -29.0820  -35.6810   26.6850 H   0  0  0  0  0  0  0  0  0  0  0  0
  1  3  1  0
  2  1  2  0
  3  6  2  0
  4  6  1  0
  5  2  1  0
  5  4  2  0
  6  7  1  0
  7 16  1  0
  8 16  1  0
  8 14  1  0
  9 14  1  0
 10 11  1  0
 10  9  1  0
 12 11  1  0
 12 20  1  0
 12 13  1  0
 14 13  1  0
 15  8  2  0
 16 45  1  0
 17 18  2  0
 18 37  1  0
 19 18  1  0
 19 22  1  0
 20 17  1  0
 20 21  1  0
 21 19  2  0
 22 23  1  0
 23 24  2  0
 25 28  1  0
 25 24  1  0
 26 25  2  0
 27 26  1  0
 27 22  2  0
 28 29  1  0
 29 34  2  0
 29 30  1  0
 30 31  2  0
 31 32  1  0
 32 36  1  0
 33 32  2  0
 34 33  1  0
 35 34  1  0
 37 38  1  0
 38 41  1  0
 38 40  1  0
 39 37  2  0
 42 43  1  0
 42 17  1  0
 44 42  1  0
 45 46  1  0
 46 48  1  0
 47 48  1  0
 48 51  1  0
 48 49  1  1
 50 51  1  0
 52  5  1  0
 52 53  1  0
 54 55  1  0
 55 53  1  0
 55 57  1  0
 55 56  1  6
 57 58  1  0
 58 59  1  0
 59 61  1  0
 60 71  2  0
 61 66  1  0
 62 72  1  0
 62 70  1  0
 63 69  1  0
 63 65  1  0
 64 70  1  0
 65 64  1  0
 66 65  2  0
 67 68  1  0
 67 61  2  0
 68 63  2  0
 69 62  1  0
 70 60  1  0
 72 74  2  0
 73 72  1  0
 75 73  1  0
 76 85  2  0
 76 81  1  0
 77 73  1  0
 77 81  1  0
 78 77  1  0
 79 80  1  0
 79 78  1  0
 80 76  1  0
 81 82  2  0
 82 83  1  0
 84 83  2  0
 85 84  1  0
 86 60  1  0
 86 91  1  0
 86 87  1  0
 87 88  1  1
 87 90  1  0
 89 87  1  0
 91 94  1  0
 92 91  1  0
 92 96  1  0
 93 92  2  0
 96 95  1  0
 96 98  1  0
 98 99  1  0
 98 97  1  0
M  ISO  4   8 100  16 100  58 101  59 101
M  END
>  <TORSDO>  (70) 
F 26

>  <SCORE>  (70) 
1.529

>  <name>  (70) 
69

>  <ligand_id>  (70) 
69

>  <original_smiles>  (70) 
[H]c1c([H])c([H])c2c(c1[H])C([H])([H])C([H])([H])C([H])([H])C2([H])N([H])C(=O)C1([H])N(C(=O)C([H])(N([H])C(=O)C([H])(N([H])C([H])([H])[H])C([H])([H])[H])C(C([H])([H])[H])(C([H])([H])[H])C([H])([H])[H])C([H])([H])c2c([H])c(OC([H])([H])C([H])([H])[N+]([H])(C([H])([H])[H])C([H])([H])C([H])([H])c3c([H])c([H])c([H])c(C([H])([H])N(C(=O)N4C([H])([H])C([H])([H])C([H])([H])C([H])(n5nc(-c6c([H])c([H])c(Oc7c([H])c([H])c(F)c([H])c7F)c([H])c6[H])c(C(=O)N([H])[H])c5N([H])[H])C4([H])[H])C([H])([H])C([H])([H])[N+]([H])(C([H])([H])[H])C([H])([H])C([H])([H])[H])c3[H])c([H])c([H])c2C1([H])[H]

>  <smiles>  (70) 
[H]c1c([H])c([H])c2c(c1[H])C([H])([H])C([H])([H])C([H])([H])C2([H])N([H])C(=O)C1([H])N(C(=O)C([H])(N([H])C(=O)C([H])(N([H])C([H])([H])[H])C([H])([H])[H])C(C([H])([H])[H])(C([H])([H])[H])C([H])([H])[H])C([H])([H])c2c([H])c(OC([H])([H])C([H])([H])[N+]([H])(C([H])([H])[H])C([H])([H])C([H])([H])c3c([H])c([H])c([H])c(C([H])([H])N(C(=O)N4C([H])([H])C([H])([H])C([H])([H])C([H])(n5nc(-c6c([H])c([H])c(Oc7c([H])c([H])c(F)c([H])c7F)c([H])c6[H])c(C(=O)N([H])[H])c5N([H])[H])C4([H])[H])C([H])([H])C([H])([H])[N+]([H])(C([H])([H])[H])C([H])([H])C([H])([H])[H])c3[H])c([H])c([H])c2C1([H])[H]

$$$$
70:0:0
     RDKit          3D

 83 88  0  0  1  0  0  0  0  0999 V2000
  -28.0110  -23.1400   20.5260 C   0  0  0  0  0 15  0  0  0  0  0  0
  -29.3360  -19.8110   20.6020 C   0  0  0  0  0  3  0  0  0  0  0  0
  -28.5550  -18.5480   18.9290 C   0  0  0  0  0  3  0  0  0  0  0  0
  -29.3530  -18.1560   20.0070 C   0  0  0  0  0  3  0  0  0  0  0  0
  -28.6680  -21.2090   20.1130 C   0  0  0  0  0  3  0  0  0  0  0  0
  -27.9780  -20.3170   18.7150 S   0  0  0  0  0  0  0  0  0  0  0  0
  -30.0800  -16.2440   20.0710 C   0  0  0  0  0  2  0  0  0  0  0  0
  -30.3040  -13.5690   19.2900 C   0  0  0  0  0  2  0  0  0  0  0  0
  -29.4500  -12.9180   18.1440 C   0  0  0  0  0  2  0  0  0  0  0  0
  -28.0840  -12.4460   18.6530 C   0  0  0  0  0  2  0  0  0  0  0  0
  -27.5120  -13.4760   19.6430 C   0  0  0  0  0  3  0  0  0  0  0  0
  -28.5250  -14.0150   20.6950 C   0  0  0  0  0  2  0  0  0  0  0  0
  -29.6040  -14.7910   19.9880 N   0  0  0  0  0  0  0  0  0  0  0  0
  -31.3210  -16.0420   19.9930 O   0  0  0  0  0  1  0  0  0  0  0  0
  -25.1840  -13.9390   20.5040 C   0  0  0  0  0  0  0  0  0  0  0  0
  -24.1430  -13.1440   20.8840 C   0  0  0  0  0  0  0  0  0  0  0  0
  -24.6230  -11.7990   20.8150 C   0  0  0  0  0  0  0  0  0  0  0  0
  -26.2290  -13.0860   20.2140 N   0  0  0  0  0  0  0  0  0  0  0  0
  -25.9090  -11.7860   20.4630 N   0  0  0  0  0  0  0  0  0  0  0  0
  -23.9040  -10.5300   21.0040 C   0  0  0  0  0  0  0  0  0  0  0  0
  -24.3440   -9.5560   21.9270 C   0  0  0  0  0  3  0  0  0  0  0  0
  -23.6170   -8.3590   22.1090 C   0  0  0  0  0  3  0  0  0  0  0  0
  -22.4340   -8.1250   21.3680 C   0  0  0  0  0  0  0  0  0  0  0  0
  -22.0110   -9.0880   20.4350 C   0  0  0  0  0  3  0  0  0  0  0  0
  -22.7380  -10.2760   20.2510 C   0  0  0  0  0  3  0  0  0  0  0  0
  -21.6780   -6.9810   21.4600 O   0  0  0  0  0  0  0  0  0  0  0  0
  -21.6250   -6.2410   22.6140 C   0  0  0  0  0  0  0  0  0  0  0  0
  -21.1760   -6.7950   23.8320 C   0  0  0  0  0  3  0  0  0  0  0  0
  -21.0710   -5.9830   24.9790 C   0  0  0  0  0  3  0  0  0  0  0  0
  -21.4060   -4.6170   24.9080 C   0  0  0  0  0  0  0  0  0  0  0  0
  -21.8490   -4.0630   23.6950 C   0  0  0  0  0  3  0  0  0  0  0  0
  -21.9550   -4.8730   22.5500 C   0  0  0  0  0  0  0  0  0  0  0  0
  -22.3610   -4.3270   21.3780 F   0  0  0  0  0  0  0  0  0  0  0  0
  -21.2980   -3.8340   26.0080 F   0  0  0  0  0  0  0  0  0  0  0  0
  -22.7510  -13.6090   21.1900 C   0  0  0  0  0  0  0  0  0  0  0  0
  -22.0410  -12.8950   22.0560 N   0  0  0  0  0  0  0  0  0  0  0  0
  -22.3020  -14.6440   20.6990 O   0  0  0  0  0  0  0  0  0  0  0  0
  -22.4200  -12.0570   22.4740 H   0  0  0  0  0  0  0  0  0  0  0  0
  -21.1080  -13.1880   22.3030 H   0  0  0  0  0  0  0  0  0  0  0  0
  -25.3270  -15.3150   20.3450 N   0  0  0  0  0  0  0  0  0  0  0  0
  -24.5570  -15.9580   20.4990 H   0  0  0  0  0  0  0  0  0  0  0  0
  -26.1670  -15.7740   20.0180 H   0  0  0  0  0  0  0  0  0  0  0  0
  -28.1410  -25.0530   20.2400 O   0  0  0  0  0  1  0  0  0  0  0  0
  -24.6500  -31.8290   23.1260 C   0  0  0  0  0  0  0  0  0  0  0  0
  -27.2030  -26.4230   20.2670 C   0  0  0  0  0  0  0  0  0  0  0  0
  -23.4950  -30.3960   21.5040 C   0  0  0  0  0  3  0  0  0  0  0  0
  -24.9610  -28.6680   20.1540 C   0  0  0  0  0  0  0  0  0  0  0  0
  -26.0880  -30.4500   21.4410 C   0  0  0  0  0  2  0  0  0  0  0  0
  -26.1610  -28.9690   20.8090 C   0  0  0  0  0  0  0  0  0  0  0  0
  -27.2510  -27.8900   20.8170 C   0  0  0  0  0  3  0  0  0  0  0  0
  -25.9620  -26.4230   19.5510 C   0  0  0  0  0  3  0  0  0  0  0  0
  -24.9220  -27.4220   19.4980 C   0  0  0  0  0  3  0  0  0  0  0  0
  -23.7660  -29.6560   20.1590 C   0  0  0  0  0  2  0  0  0  0  0  0
  -24.7730  -30.9340   22.0750 N   0  0  0  0  0  0  0  0  0  0  0  0
  -23.5450  -32.1450   23.6050 O   0  0  0  0  0  0  0  0  0  0  0  0
  -22.7420  -29.4580   22.4910 C   0  0  0  0  0  0  0  0  0  0  0  0
  -21.4060  -29.3220   22.3650 N   0  0  0  0  0  0  0  0  0  0  0  0
  -23.3800  -28.8440   23.3480 O   0  0  0  0  0  0  0  0  0  0  0  0
  -20.9360  -29.8670   21.6550 H   0  0  0  0  0  0  0  0  0  0  0  0
  -18.0060  -28.1270   22.8980 C   0  0  0  0  0  0  0  0  0  0  0  0
  -20.5690  -28.3990   23.1460 C   0  0  0  0  0  3  0  0  0  0  0  0
  -20.6640  -26.9590   22.5860 C   0  0  0  0  0  2  0  0  0  0  0  0
  -19.5600  -26.6320   21.5750 C   0  0  0  0  0  2  0  0  0  0  0  0
  -18.1800  -26.7780   22.2210 C   0  0  0  0  0  2  0  0  0  0  0  0
  -19.1270  -28.8950   23.3170 C   0  0  0  0  0  0  0  0  0  0  0  0
  -18.9040  -30.1530   23.9180 C   0  0  0  0  0  3  0  0  0  0  0  0
  -17.5970  -30.6450   24.0970 C   0  0  0  0  0  3  0  0  0  0  0  0
  -16.4930  -29.8770   23.6900 C   0  0  0  0  0  3  0  0  0  0  0  0
  -16.6990  -28.6180   23.0960 C   0  0  0  0  0  3  0  0  0  0  0  0
  -25.8890  -32.5120   23.7820 C   0  0  0  0  0  3  0  0  0  0  0  0
  -25.5410  -33.9140   24.1040 N   0  0  0  0  0  0  0  0  0  0  0  0
  -25.8730  -34.9890   23.3730 C   0  0  0  0  0  0  0  0  0  0  0  0
  -26.5530  -34.9040   22.3490 O   0  0  0  0  0  0  0  0  0  0  0  0
  -24.9320  -34.0500   24.8980 H   0  0  0  0  0  0  0  0  0  0  0  0
  -24.1370  -36.7900   23.0480 C   0  0  0  0  0  1  0  0  0  0  0  0
  -25.3810  -36.3750   23.8510 C   0  0  0  0  0  3  0  0  0  0  0  0
  -27.5070  -37.2760   24.6920 C   0  0  0  0  0  1  0  0  0  0  0  0
  -26.4060  -37.4380   23.7460 N   0  0  0  0  0  0  0  0  0  0  0  0
  -25.9920  -38.3540   23.8970 H   0  0  0  0  0  0  0  0  0  0  0  0
  -26.3710  -31.7790   25.0960 C   0  0  1  0  0  0  0  0  0  0  0  0
  -25.2490  -31.5620   26.1400 C   0  0  0  0  0  1  0  0  0  0  0  0
  -26.9740  -30.3950   24.7760 C   0  0  0  0  0  1  0  0  0  0  0  0
  -27.4980  -32.5980   25.7700 C   0  0  0  0  0  1  0  0  0  0  0  0
  3  4  2  0
  4  2  1  0
  5  2  2  0
  6  3  1  0
  6  5  1  0
  8 13  1  0
  9 10  1  0
  9  8  1  0
 11 10  1  0
 11 18  1  0
 11 12  1  0
 13  7  1  0
 13 12  1  0
 14  7  1  0
 15 16  2  0
 16 35  1  0
 17 16  1  0
 17 20  1  0
 18 19  1  0
 18 15  1  0
 19 17  2  0
 20 21  1  0
 21 22  2  0
 23 26  1  0
 23 22  1  0
 24 23  2  0
 25 24  1  0
 25 20  2  0
 26 27  1  0
 27 28  1  0
 28 29  2  0
 30 29  1  0
 30 34  1  0
 31 30  2  0
 32 27  2  0
 32 31  1  0
 33 32  1  0
 35 36  1  0
 36 39  1  0
 36 38  1  0
 37 35  2  0
 40 41  1  0
 40 15  1  0
 42 40  1  0
 43 45  1  0
 44 55  2  0
 45 50  1  0
 46 54  1  0
 46 56  1  0
 47 53  1  0
 47 49  1  0
 48 54  1  0
 49 50  2  0
 49 48  1  0
 51 45  2  0
 52 51  1  0
 52 47  2  0
 53 46  1  0
 54 44  1  0
 56 58  2  0
 57 56  1  0
 59 57  1  0
 60 69  2  0
 60 65  1  0
 61 57  1  0
 61 65  1  0
 62 61  1  0
 63 64  1  0
 63 62  1  0
 64 60  1  0
 65 66  2  0
 66 67  1  0
 68 67  2  0
 69 68  1  0
 70 44  1  0
 70 71  1  0
 70 80  1  0
 71 74  1  0
 72 76  1  0
 72 71  1  0
 73 72  2  0
 76 75  1  0
 78 76  1  0
 78 79  1  0
 78 77  1  0
 80 83  1  1
 80 81  1  0
 82 80  1  0
M  ISO  4   1 101   4 100   7 100  43 101
M  END
>  <TORSDO>  (71) 
F 17

>  <SCORE>  (71) 
-16.654

>  <name>  (71) 
70

>  <ligand_id>  (71) 
70

>  <original_smiles>  (71) 
[H]c1sc(C([H])([H])Oc2c([H])c([H])c3c(c2[H])C([H])([H])N(C(=O)C([H])(N([H])C(=O)C([H])(N([H])C([H])([H])[H])C([H])([H])[H])C(C([H])([H])[H])(C([H])([H])[H])C([H])([H])[H])C([H])(C(=O)N([H])C2([H])c4c([H])c([H])c([H])c([H])c4C([H])([H])C([H])([H])C2([H])[H])C3([H])[H])c([H])c1C(=O)N1C([H])([H])C([H])([H])C([H])([H])C([H])(n2nc(-c3c([H])c([H])c(Oc4c([H])c([H])c(F)c([H])c4F)c([H])c3[H])c(C(=O)N([H])[H])c2N([H])[H])C1([H])[H]

>  <smiles>  (71) 
[H]c1sc(C([H])([H])Oc2c([H])c([H])c3c(c2[H])C([H])([H])N(C(=O)C([H])(N([H])C(=O)C([H])(N([H])C([H])([H])[H])C([H])([H])[H])C(C([H])([H])[H])(C([H])([H])[H])C([H])([H])[H])C([H])(C(=O)N([H])C2([H])c4c([H])c([H])c([H])c([H])c4C([H])([H])C([H])([H])C2([H])[H])C3([H])[H])c([H])c1C(=O)N1C([H])([H])C([H])([H])C([H])([H])C([H])(n2nc(-c3c([H])c([H])c(Oc4c([H])c([H])c(F)c([H])c4F)c([H])c3[H])c(C(=O)N([H])[H])c2N([H])[H])C1([H])[H]

$$$$
71:0:0
     RDKit          3D

 93100  0  0  1  0  0  0  0  0999 V2000
  -29.3410  -19.0430   19.8630 N   0  0  0  0  0  4  0  0  0  0  0  0
  -30.1120  -19.2160   19.2370 H   0  0  0  0  0  0  0  0  0  0  0  0
  -28.5300  -18.9520   19.2690 H   0  0  0  0  0  0  0  0  0  0  0  0
  -30.2220  -20.5890   21.7250 C   0  0  0  0  0  1  0  0  0  0  0  0
  -29.1290  -20.4050   20.6520 C   0  0  0  0  0  3  0  0  0  0  0  0
  -29.0530  -21.8540   19.8110 C   0  0  0  0  0  2  0  0  0  0  0  0
  -28.1650  -23.2630   20.0700 C   0  0  0  0  0  2  0  0  0  0  0  0
  -28.6020  -24.7220   20.7400 C   0  0  0  0  0  2  0  0  0  0  0  0
  -28.5000  -26.1680   20.2110 O   0  0  0  0  0  0  0  0  0  0  0  0
  -24.7580  -31.7550   23.2160 C   0  0  0  0  0  0  0  0  0  0  0  0
  -27.3770  -27.0470   20.2720 C   0  0  0  0  0  0  0  0  0  0  0  0
  -23.5700  -30.3300   21.5920 C   0  0  0  0  0  3  0  0  0  0  0  0
  -25.0280  -28.7390   20.2010 C   0  0  0  0  0  0  0  0  0  0  0  0
  -26.1170  -30.6210   21.4230 C   0  0  0  0  0  2  0  0  0  0  0  0
  -26.2000  -29.2200   20.8000 C   0  0  0  0  0  0  0  0  0  0  0  0
  -27.3780  -28.3910   20.8090 C   0  0  0  0  0  3  0  0  0  0  0  0
  -26.1780  -26.6420   19.6510 C   0  0  0  0  0  3  0  0  0  0  0  0
  -25.0270  -27.4640   19.6100 C   0  0  0  0  0  3  0  0  0  0  0  0
  -23.7970  -29.6300   20.2250 C   0  0  0  0  0  2  0  0  0  0  0  0
  -24.8340  -30.9250   22.1330 N   0  0  0  0  0  0  0  0  0  0  0  0
  -23.6700  -32.0380   23.7390 O   0  0  0  0  0  0  0  0  0  0  0  0
  -22.8960  -29.3310   22.5660 C   0  0  0  0  0  0  0  0  0  0  0  0
  -21.5690  -29.1580   22.4430 N   0  0  0  0  0  0  0  0  0  0  0  0
  -23.5700  -28.7120   23.3930 O   0  0  0  0  0  0  0  0  0  0  0  0
  -21.0810  -29.7080   21.7490 H   0  0  0  0  0  0  0  0  0  0  0  0
  -18.1860  -27.9760   22.9690 C   0  0  0  0  0  0  0  0  0  0  0  0
  -20.7470  -28.2280   23.2220 C   0  0  0  0  0  3  0  0  0  0  0  0
  -20.8410  -26.7930   22.6540 C   0  0  0  0  0  2  0  0  0  0  0  0
  -19.7310  -26.4680   21.6480 C   0  0  0  0  0  2  0  0  0  0  0  0
  -18.3540  -26.6220   22.2980 C   0  0  0  0  0  2  0  0  0  0  0  0
  -19.3100  -28.7360   23.3870 C   0  0  0  0  0  0  0  0  0  0  0  0
  -19.0990  -30.0020   23.9760 C   0  0  0  0  0  3  0  0  0  0  0  0
  -17.7960  -30.5060   24.1500 C   0  0  0  0  0  3  0  0  0  0  0  0
  -16.6860  -29.7420   23.7480 C   0  0  0  0  0  3  0  0  0  0  0  0
  -16.8830  -28.4790   23.1620 C   0  0  0  0  0  3  0  0  0  0  0  0
  -26.0330  -32.4040   23.8390 C   0  0  0  0  0  3  0  0  0  0  0  0
  -26.5530  -31.6460   25.1220 C   0  0  1  0  0  0  0  0  0  0  0  0
  -25.4590  -31.4040   26.1880 C   0  0  0  0  0  1  0  0  0  0  0  0
  -27.1520  -30.2730   24.7410 C   0  0  0  0  0  1  0  0  0  0  0  0
  -27.6930  -32.4580   25.7830 C   0  0  0  0  0  1  0  0  0  0  0  0
  -25.7080  -33.8010   24.1650 N   0  0  0  0  0  0  0  0  0  0  0  0
  -26.0190  -34.8580   23.4020 C   0  0  0  0  0  0  0  0  0  0  0  0
  -26.6770  -34.7590   22.3630 O   0  0  0  0  0  0  0  0  0  0  0  0
  -25.1220  -33.9490   24.9750 H   0  0  0  0  0  0  0  0  0  0  0  0
  -24.2640  -36.6300   23.0780 C   0  0  0  0  0  1  0  0  0  0  0  0
  -25.5250  -36.2410   23.8660 C   0  0  0  0  0  3  0  0  0  0  0  0
  -27.6610  -37.1590   24.6550 C   0  0  0  0  0  1  0  0  0  0  0  0
  -26.5410  -37.3060   23.7300 N   0  0  0  0  0  0  0  0  0  0  0  0
  -26.1250  -38.2220   23.8820 H   0  0  0  0  0  0  0  0  0  0  0  0
  -29.6190  -17.5920   20.4630 C   0  0  0  0  0  3  0  0  0  0  0  0
  -28.4830  -17.1250   21.4080 C   0  0  0  0  0  2  0  0  0  0  0  0
  -27.1680  -16.7110   20.7290 C   0  0  0  0  0  2  0  0  0  0  0  0
  -24.7990  -15.8210   21.0980 C   0  0  0  0  0  1  0  0  0  0  0  0
  -26.1010  -16.2950   21.7550 C   0  0  0  0  0  2  0  0  0  0  0  0
  -30.0980  -16.3320   19.4440 C   0  0  0  0  0  3  0  0  0  0  0  0
  -30.8470  -14.8990   19.8830 C   0  0  0  0  0  0  0  0  0  0  0  0
  -30.7750  -12.5070   19.0740 C   0  0  0  0  0  2  0  0  0  0  0  0
  -29.9080  -12.3640   17.8000 C   0  0  0  0  0  2  0  0  0  0  0  0
  -28.4170  -12.2110   18.1470 C   0  0  0  0  0  2  0  0  0  0  0  0
  -27.9440  -13.1970   19.2460 C   0  0  0  0  0  3  0  0  0  0  0  0
  -28.9340  -13.2700   20.4240 C   0  0  0  0  0  2  0  0  0  0  0  0
  -30.2460  -13.6410   19.8820 N   0  0  0  0  0  0  0  0  0  0  0  0
  -32.0830  -14.9040   19.8590 O   0  0  0  0  0  0  0  0  0  0  0  0
  -25.4850  -13.7510   19.6970 C   0  0  0  0  0  0  0  0  0  0  0  0
  -24.4280  -12.9850   20.1040 C   0  0  0  0  0  0  0  0  0  0  0  0
  -24.9530  -11.6750   20.3250 C   0  0  0  0  0  0  0  0  0  0  0  0
  -26.5840  -12.9100   19.6860 N   0  0  0  0  0  0  0  0  0  0  0  0
  -26.2670  -11.6670   20.1350 N   0  0  0  0  0  0  0  0  0  0  0  0
  -24.2690  -10.4150   20.6450 C   0  0  0  0  0  0  0  0  0  0  0  0
  -24.6780   -9.6070   21.7270 C   0  0  0  0  0  3  0  0  0  0  0  0
  -23.9930   -8.4090   22.0280 C   0  0  0  0  0  3  0  0  0  0  0  0
  -22.8820   -8.0120   21.2440 C   0  0  0  0  0  0  0  0  0  0  0  0
  -22.4940   -8.8080   20.1530 C   0  0  0  0  0  3  0  0  0  0  0  0
  -23.1810   -9.9970   19.8540 C   0  0  0  0  0  3  0  0  0  0  0  0
  -22.1710   -6.8540   21.4480 O   0  0  0  0  0  0  0  0  0  0  0  0
  -22.0410   -6.2990   22.6950 C   0  0  0  0  0  0  0  0  0  0  0  0
  -21.4870   -7.0180   23.7770 C   0  0  0  0  0  3  0  0  0  0  0  0
  -21.3070   -6.3870   25.0230 C   0  0  0  0  0  3  0  0  0  0  0  0
  -21.6700   -5.0370   25.1890 C   0  0  0  0  0  0  0  0  0  0  0  0
  -22.2160   -4.3180   24.1110 C   0  0  0  0  0  3  0  0  0  0  0  0
  -22.3990   -4.9460   22.8670 C   0  0  0  0  0  0  0  0  0  0  0  0
  -22.9050   -4.2420   21.8260 F   0  0  0  0  0  0  0  0  0  0  0  0
  -21.4910   -4.4280   26.3830 F   0  0  0  0  0  0  0  0  0  0  0  0
  -22.9930  -13.4150   20.1780 C   0  0  0  0  0  0  0  0  0  0  0  0
  -22.2330  -12.8530   21.1120 N   0  0  0  0  0  0  0  0  0  0  0  0
  -22.5490  -14.2910   19.4360 O   0  0  0  0  0  0  0  0  0  0  0  0
  -22.6040  -12.1500   21.7330 H   0  0  0  0  0  0  0  0  0  0  0  0
  -21.2670  -13.1310   21.2080 H   0  0  0  0  0  0  0  0  0  0  0  0
  -25.5980  -15.0790   19.3010 N   0  0  0  0  0  0  0  0  0  0  0  0
  -24.7940  -15.6930   19.2490 H   0  0  0  0  0  0  0  0  0  0  0  0
  -26.4420  -15.4980   18.9380 H   0  0  0  0  0  0  0  0  0  0  0  0
  -31.5200  -16.2450   17.1920 C   0  0  0  0  0  1  0  0  0  0  0  0
  -31.0260  -17.0460   18.4040 C   0  0  0  0  0  2  0  0  0  0  0  0
  1 50  1  0
  1  5  1  0
  2  1  1  0
  3  1  1  0
  5  4  1  0
  6  7  1  0
  6  5  1  0
  7  8  1  0
  9 11  1  0
  9  8  1  0
 10 21  2  0
 11 16  1  0
 12 20  1  0
 12 22  1  0
 13 19  1  0
 13 15  1  0
 14 20  1  0
 15 16  2  0
 15 14  1  0
 17 11  2  0
 18 17  1  0
 18 13  2  0
 19 12  1  0
 20 10  1  0
 22 24  2  0
 23 22  1  0
 25 23  1  0
 26 35  2  0
 26 31  1  0
 27 23  1  0
 27 31  1  0
 28 27  1  0
 29 30  1  0
 29 28  1  0
 30 26  1  0
 31 32  2  0
 32 33  1  0
 34 33  2  0
 35 34  1  0
 36 10  1  0
 36 41  1  0
 36 37  1  0
 37 40  1  1
 37 38  1  0
 39 37  1  0
 41 44  1  0
 42 46  1  0
 42 41  1  0
 43 42  2  0
 46 45  1  0
 48 46  1  0
 48 49  1  0
 48 47  1  0
 50 51  1  0
 52 51  1  0
 52 54  1  0
 53 54  1  0
 55 93  1  0
 55 56  1  0
 55 50  1  0
 57 62  1  0
 58 59  1  0
 58 57  1  0
 60 59  1  0
 60 67  1  0
 60 61  1  0
 62 56  1  0
 62 61  1  0
 63 56  2  0
 64 65  2  0
 65 84  1  0
 65 66  1  0
 66 69  1  0
 67 64  1  0
 67 68  1  0
 68 66  2  0
 69 70  1  0
 70 71  2  0
 72 75  1  0
 72 71  1  0
 73 72  2  0
 74 73  1  0
 74 69  2  0
 75 76  1  0
 76 81  2  0
 76 77  1  0
 77 78  2  0
 78 79  1  0
 79 83  1  0
 80 79  2  0
 81 80  1  0
 82 81  1  0
 84 85  1  0
 85 88  1  0
 85 87  1  0
 86 84  2  0
 89 64  1  0
 90 89  1  0
 91 89  1  0
 92 93  1  0
M  ISO  4   8 101   9 101  55 100  56 100
M  END
>  <TORSDO>  (72) 
F 26

>  <SCORE>  (72) 
-5.055

>  <name>  (72) 
71

>  <ligand_id>  (72) 
71

>  <original_smiles>  (72) 
[H]c1c([H])c([H])c2c(c1[H])C([H])([H])C([H])([H])C([H])([H])C2([H])N([H])C(=O)C1([H])N(C(=O)C([H])(N([H])C(=O)C([H])(N([H])C([H])([H])[H])C([H])([H])[H])C(C([H])([H])[H])(C([H])([H])[H])C([H])([H])[H])C([H])([H])c2c([H])c(OC([H])([H])C([H])([H])C([H])([H])C([H])(C([H])([H])[H])[N+]([H])([H])C([H])(C([H])([H])C([H])([H])C([H])([H])C([H])([H])[H])C([H])(C(=O)N3C([H])([H])C([H])([H])C([H])([H])C([H])(n4nc(-c5c([H])c([H])c(Oc6c([H])c([H])c(F)c([H])c6F)c([H])c5[H])c(C(=O)N([H])[H])c4N([H])[H])C3([H])[H])C([H])([H])C([H])([H])[H])c([H])c([H])c2C1([H])[H]

>  <smiles>  (72) 
[H]c1c([H])c([H])c2c(c1[H])C([H])([H])C([H])([H])C([H])([H])C2([H])N([H])C(=O)C1([H])N(C(=O)C([H])(N([H])C(=O)C([H])(N([H])C([H])([H])[H])C([H])([H])[H])C(C([H])([H])[H])(C([H])([H])[H])C([H])([H])[H])C([H])([H])c2c([H])c(OC([H])([H])C([H])([H])C([H])([H])C([H])(C([H])([H])[H])[N+]([H])([H])C([H])(C([H])([H])C([H])([H])C([H])([H])C([H])([H])[H])C([H])(C(=O)N3C([H])([H])C([H])([H])C([H])([H])C([H])(n4nc(-c5c([H])c([H])c(Oc6c([H])c([H])c(F)c([H])c6F)c([H])c5[H])c(C(=O)N([H])[H])c4N([H])[H])C3([H])[H])C([H])([H])C([H])([H])[H])c([H])c([H])c2C1([H])[H]

$$$$
72:0:0
     RDKit          3D

 92100  0  0  1  0  0  0  0  0999 V2000
  -27.9390  -21.8940   20.7260 C   0  0  0  0  0  2  0  0  0  0  0  0
  -28.5030  -18.0980   20.3010 C   0  0  0  0  0  3  0  0  0  0  0  0
  -30.3620  -19.0050   21.5730 C   0  0  0  0  0  3  0  0  0  0  0  0
  -27.9810  -19.4010   20.1350 C   0  0  0  0  0  3  0  0  0  0  0  0
  -29.8390  -20.3090   21.4100 C   0  0  0  0  0  3  0  0  0  0  0  0
  -29.6800  -17.8830   21.0510 C   0  0  0  0  0  0  0  0  0  0  0  0
  -28.6260  -20.5190   20.7140 C   0  0  0  0  0  0  0  0  0  0  0  0
  -30.1700  -16.4620   21.3430 C   0  0  0  0  0  2  0  0  0  0  0  0
  -31.0560  -14.5510   20.0630 C   0  0  0  0  0  0  0  0  0  0  0  0
  -30.6810  -12.3980   18.9380 C   0  0  0  0  0  2  0  0  0  0  0  0
  -29.7080  -12.6510   17.7690 C   0  0  0  0  0  2  0  0  0  0  0  0
  -28.2430  -12.5570   18.2430 C   0  0  0  0  0  2  0  0  0  0  0  0
  -27.9700  -13.3750   19.5340 C   0  0  0  0  0  3  0  0  0  0  0  0
  -29.0610  -13.1150   20.5980 C   0  0  0  0  0  2  0  0  0  0  0  0
  -30.3650  -13.3850   19.9780 N   0  0  0  0  0  0  0  0  0  0  0  0
  -32.2140  -14.6810   19.6640 O   0  0  0  0  0  0  0  0  0  0  0  0
  -30.2870  -15.6440   20.1430 N   0  0  0  0  0  0  0  0  0  0  0  0
  -30.4810  -16.2510   19.3630 H   0  0  0  0  0  0  0  0  0  0  0  0
  -25.6080  -14.0360   20.3140 C   0  0  0  0  0  0  0  0  0  0  0  0
  -24.5330  -13.2840   20.7100 C   0  0  0  0  0  0  0  0  0  0  0  0
  -24.9640  -11.9230   20.6640 C   0  0  0  0  0  0  0  0  0  0  0  0
  -26.6270  -13.1320   20.0540 N   0  0  0  0  0  0  0  0  0  0  0  0
  -26.2450  -11.8580   20.3220 N   0  0  0  0  0  0  0  0  0  0  0  0
  -24.2170  -10.6750   20.8720 C   0  0  0  0  0  0  0  0  0  0  0  0
  -24.6290   -9.7210   21.8290 C   0  0  0  0  0  3  0  0  0  0  0  0
  -23.8870   -8.5360   22.0260 C   0  0  0  0  0  3  0  0  0  0  0  0
  -22.7170   -8.2970   21.2640 C   0  0  0  0  0  0  0  0  0  0  0  0
  -22.3240   -9.2380   20.2970 C   0  0  0  0  0  3  0  0  0  0  0  0
  -23.0670  -10.4140   20.0990 C   0  0  0  0  0  3  0  0  0  0  0  0
  -21.9490   -7.1630   21.3690 O   0  0  0  0  0  0  0  0  0  0  0  0
  -21.8380   -6.4740   22.5490 C   0  0  0  0  0  0  0  0  0  0  0  0
  -21.3720   -7.0910   23.7310 C   0  0  0  0  0  3  0  0  0  0  0  0
  -21.2050   -6.3280   24.9040 C   0  0  0  0  0  3  0  0  0  0  0  0
  -21.4970   -4.9510   24.8960 C   0  0  0  0  0  0  0  0  0  0  0  0
  -21.9580   -4.3350   23.7190 C   0  0  0  0  0  3  0  0  0  0  0  0
  -22.1260   -5.0940   22.5490 C   0  0  0  0  0  0  0  0  0  0  0  0
  -22.5500   -4.4920   21.4110 F   0  0  0  0  0  0  0  0  0  0  0  0
  -21.3300   -4.2160   26.0200 F   0  0  0  0  0  0  0  0  0  0  0  0
  -23.1520  -13.7880   21.0170 C   0  0  0  0  0  0  0  0  0  0  0  0
  -22.4380  -13.1120   21.9110 N   0  0  0  0  0  0  0  0  0  0  0  0
  -22.7150  -14.8150   20.5010 O   0  0  0  0  0  0  0  0  0  0  0  0
  -22.8050  -12.2800   22.3490 H   0  0  0  0  0  0  0  0  0  0  0  0
  -21.5120  -13.4310   22.1610 H   0  0  0  0  0  0  0  0  0  0  0  0
  -25.7970  -15.4030   20.1300 N   0  0  0  0  0  0  0  0  0  0  0  0
  -25.0570  -16.0870   20.2520 H   0  0  0  0  0  0  0  0  0  0  0  0
  -26.6570  -15.8080   19.7820 H   0  0  0  0  0  0  0  0  0  0  0  0
  -28.5620  -22.9720   19.9180 N   0  0  0  0  0  4  0  0  0  0  0  0
  -28.4370  -22.7490   18.9420 H   0  0  0  0  0  0  0  0  0  0  0  0
  -29.5560  -22.9820   20.0950 H   0  0  0  0  0  0  0  0  0  0  0  0
  -27.9680  -24.3100   20.2340 C   0  0  0  0  0  2  0  0  0  0  0  0
  -28.4670  -25.4940   19.3680 C   0  0  0  0  0  2  0  0  0  0  0  0
  -28.3300  -26.7680   20.0270 O   0  0  0  0  0  0  0  0  0  0  0  0
  -24.5210  -31.8890   23.2090 C   0  0  0  0  0  0  0  0  0  0  0  0
  -27.1290  -27.4560   20.0400 C   0  0  0  0  0  0  0  0  0  0  0  0
  -23.2920  -30.4980   21.5740 C   0  0  0  0  0  3  0  0  0  0  0  0
  -24.7260  -28.9640   20.1190 C   0  0  0  0  0  0  0  0  0  0  0  0
  -25.8150  -30.8470   21.3490 C   0  0  0  0  0  2  0  0  0  0  0  0
  -25.8910  -29.4780   20.7000 C   0  0  0  0  0  0  0  0  0  0  0  0
  -27.0900  -28.7280   20.6650 C   0  0  0  0  0  3  0  0  0  0  0  0
  -25.9420  -26.9580   19.4540 C   0  0  0  0  0  3  0  0  0  0  0  0
  -24.7460  -27.7060   19.4930 C   0  0  0  0  0  3  0  0  0  0  0  0
  -23.4860  -29.8290   20.1860 C   0  0  0  0  0  2  0  0  0  0  0  0
  -24.5610  -31.0940   22.1020 N   0  0  0  0  0  0  0  0  0  0  0  0
  -23.4480  -32.1600   23.7670 O   0  0  0  0  0  0  0  0  0  0  0  0
  -22.6550  -29.4700   22.5360 C   0  0  0  0  0  0  0  0  0  0  0  0
  -21.3330  -29.2660   22.4040 N   0  0  0  0  0  0  0  0  0  0  0  0
  -23.3420  -28.8610   23.3570 O   0  0  0  0  0  0  0  0  0  0  0  0
  -20.8420  -29.7830   21.6870 H   0  0  0  0  0  0  0  0  0  0  0  0
  -17.9680  -28.0630   22.9410 C   0  0  0  0  0  0  0  0  0  0  0  0
  -20.5260  -28.3420   23.1980 C   0  0  0  0  0  3  0  0  0  0  0  0
  -20.6290  -26.8990   22.6550 C   0  0  0  0  0  2  0  0  0  0  0  0
  -19.5370  -26.5770   21.6290 C   0  0  0  0  0  2  0  0  0  0  0  0
  -18.1580  -26.7070   22.2830 C   0  0  0  0  0  2  0  0  0  0  0  0
  -19.0830  -28.8410   23.3540 C   0  0  0  0  0  0  0  0  0  0  0  0
  -18.8570  -30.1100   23.9260 C   0  0  0  0  0  3  0  0  0  0  0  0
  -17.5500  -30.6030   24.0910 C   0  0  0  0  0  3  0  0  0  0  0  0
  -16.4510  -29.8240   23.6990 C   0  0  0  0  0  3  0  0  0  0  0  0
  -16.6610  -28.5540   23.1300 C   0  0  0  0  0  3  0  0  0  0  0  0
  -25.8160  -32.5160   23.8150 C   0  0  0  0  0  3  0  0  0  0  0  0
  -25.5160  -33.9130   24.1530 N   0  0  0  0  0  0  0  0  0  0  0  0
  -25.8470  -34.9670   23.3940 C   0  0  0  0  0  0  0  0  0  0  0  0
  -26.5090  -34.8620   22.3570 O   0  0  0  0  0  0  0  0  0  0  0  0
  -24.9280  -34.0720   24.9590 H   0  0  0  0  0  0  0  0  0  0  0  0
  -24.1240  -36.7680   23.0500 C   0  0  0  0  0  1  0  0  0  0  0  0
  -25.3660  -36.3560   23.8570 C   0  0  0  0  0  3  0  0  0  0  0  0
  -27.5080  -37.2260   24.6850 C   0  0  0  0  0  1  0  0  0  0  0  0
  -26.4020  -37.4050   23.7460 N   0  0  0  0  0  0  0  0  0  0  0  0
  -26.0020  -38.3270   23.8980 H   0  0  0  0  0  0  0  0  0  0  0  0
  -26.3510  -31.7380   25.0780 C   0  0  1  0  0  0  0  0  0  0  0  0
  -25.2740  -31.4920   26.1610 C   0  0  0  0  0  1  0  0  0  0  0  0
  -26.9270  -30.3650   24.6660 C   0  0  0  0  0  1  0  0  0  0  0  0
  -27.5130  -32.5270   25.7260 C   0  0  0  0  0  1  0  0  0  0  0  0
  2  6  1  0
  4  2  2  0
  4  7  1  0
  5  3  1  0
  6  8  1  0
  6  3  2  0
  7  1  1  0
  7  5  2  0
  9 17  1  0
 10 15  1  0
 11 12  1  0
 11 10  1  0
 13 12  1  0
 13 22  1  0
 13 14  1  0
 15  9  1  0
 15 14  1  0
 16  9  2  0
 17  8  1  0
 18 17  1  0
 19 20  2  0
 20 39  1  0
 21 20  1  0
 21 24  1  0
 22 19  1  0
 22 23  1  0
 23 21  2  0
 24 25  1  0
 25 26  2  0
 27 30  1  0
 27 26  1  0
 28 27  2  0
 29 28  1  0
 29 24  2  0
 30 31  1  0
 31 32  1  0
 32 33  2  0
 34 33  1  0
 34 38  1  0
 35 34  2  0
 36 31  2  0
 36 35  1  0
 37 36  1  0
 39 40  1  0
 40 43  1  0
 40 42  1  0
 41 39  2  0
 44 45  1  0
 44 19  1  0
 46 44  1  0
 47 49  1  0
 47 50  1  0
 47  1  1  0
 48 47  1  0
 51 52  1  0
 51 50  1  0
 52 54  1  0
 53 64  2  0
 54 59  1  0
 55 63  1  0
 55 65  1  0
 56 62  1  0
 56 58  1  0
 57 63  1  0
 58 57  1  0
 59 58  2  0
 60 61  1  0
 60 54  2  0
 61 56  2  0
 62 55  1  0
 63 53  1  0
 65 67  2  0
 66 65  1  0
 68 66  1  0
 69 78  2  0
 69 74  1  0
 70 66  1  0
 70 74  1  0
 71 70  1  0
 72 73  1  0
 72 71  1  0
 73 69  1  0
 74 75  2  0
 75 76  1  0
 77 76  2  0
 78 77  1  0
 79 53  1  0
 79 80  1  0
 79 89  1  0
 80 83  1  0
 81 85  1  0
 81 80  1  0
 82 81  2  0
 85 84  1  0
 87 85  1  0
 87 88  1  0
 87 86  1  0
 89 92  1  1
 89 90  1  0
 91 89  1  0
M  ISO  4   9 100  17 100  51 101  52 101
M  END
>  <TORSDO>  (73) 
F 21

>  <SCORE>  (73) 
-13.256

>  <name>  (73) 
72

>  <ligand_id>  (73) 
72

>  <original_smiles>  (73) 
[H]c1c([H])c([H])c2c(c1[H])C([H])([H])C([H])([H])C([H])([H])C2([H])N([H])C(=O)C1([H])N(C(=O)C([H])(N([H])C(=O)C([H])(N([H])C([H])([H])[H])C([H])([H])[H])C(C([H])([H])[H])(C([H])([H])[H])C([H])([H])[H])C([H])([H])c2c([H])c(OC([H])([H])C([H])([H])[N+]([H])([H])C([H])([H])c3c([H])c([H])c(C([H])([H])N([H])C(=O)N4C([H])([H])C([H])([H])C([H])([H])C([H])(n5nc(-c6c([H])c([H])c(Oc7c([H])c([H])c(F)c([H])c7F)c([H])c6[H])c(C(=O)N([H])[H])c5N([H])[H])C4([H])[H])c([H])c3[H])c([H])c([H])c2C1([H])[H]

>  <smiles>  (73) 
[H]c1c([H])c([H])c2c(c1[H])C([H])([H])C([H])([H])C([H])([H])C2([H])N([H])C(=O)C1([H])N(C(=O)C([H])(N([H])C(=O)C([H])(N([H])C([H])([H])[H])C([H])([H])[H])C(C([H])([H])[H])(C([H])([H])[H])C([H])([H])[H])C([H])([H])c2c([H])c(OC([H])([H])C([H])([H])[N+]([H])([H])C([H])([H])c3c([H])c([H])c(C([H])([H])N([H])C(=O)N4C([H])([H])C([H])([H])C([H])([H])C([H])(n5nc(-c6c([H])c([H])c(Oc7c([H])c([H])c(F)c([H])c7F)c([H])c6[H])c(C(=O)N([H])[H])c5N([H])[H])C4([H])[H])c([H])c3[H])c([H])c([H])c2C1([H])[H]

$$$$
73:0:0
     RDKit          3D

 91 98  0  0  1  0  0  0  0  0999 V2000
  -27.3670  -20.2250   19.7540 C   0  0  0  0  0  1  0  0  0  0  0  0
  -28.6770  -20.6100   20.4590 C   0  0  0  0  0  3  0  0  0  0  0  0
  -29.0370  -22.0470   19.9760 N   0  0  0  0  0  0  0  0  0  0  0  0
  -28.8580  -22.0800   18.9740 H   0  0  0  0  0  0  0  0  0  0  0  0
  -28.4410  -23.3650   20.5620 C   0  0  0  0  0  2  0  0  0  0  0  0
  -28.3710  -24.8220   19.7300 C   0  0  0  0  0  2  0  0  0  0  0  0
  -28.2820  -26.2620   20.2930 O   0  0  0  0  0  0  0  0  0  0  0  0
  -24.5920  -31.8730   23.2220 C   0  0  0  0  0  0  0  0  0  0  0  0
  -27.1870  -27.1860   20.1880 C   0  0  0  0  0  0  0  0  0  0  0  0
  -23.3930  -30.4730   21.5840 C   0  0  0  0  0  3  0  0  0  0  0  0
  -24.8440  -28.9020   20.1570 C   0  0  0  0  0  0  0  0  0  0  0  0
  -25.9440  -30.7500   21.4160 C   0  0  0  0  0  2  0  0  0  0  0  0
  -26.0190  -29.3610   20.7630 C   0  0  0  0  0  0  0  0  0  0  0  0
  -27.1870  -28.5170   20.7640 C   0  0  0  0  0  3  0  0  0  0  0  0
  -25.9830  -26.8150   19.5510 C   0  0  0  0  0  3  0  0  0  0  0  0
  -24.8360  -27.6400   19.5400 C   0  0  0  0  0  3  0  0  0  0  0  0
  -23.6130  -29.7930   20.2060 C   0  0  0  0  0  2  0  0  0  0  0  0
  -24.6630  -31.0540   22.1280 N   0  0  0  0  0  0  0  0  0  0  0  0
  -23.5070  -32.1550   23.7530 O   0  0  0  0  0  0  0  0  0  0  0  0
  -22.7210  -29.4630   22.5460 C   0  0  0  0  0  0  0  0  0  0  0  0
  -21.3930  -29.2930   22.4260 N   0  0  0  0  0  0  0  0  0  0  0  0
  -23.3960  -28.8350   23.3680 O   0  0  0  0  0  0  0  0  0  0  0  0
  -20.9080  -29.8520   21.7380 H   0  0  0  0  0  0  0  0  0  0  0  0
  -18.0100  -28.1080   22.9450 C   0  0  0  0  0  0  0  0  0  0  0  0
  -20.5720  -28.3590   23.2000 C   0  0  0  0  0  3  0  0  0  0  0  0
  -20.6650  -26.9280   22.6220 C   0  0  0  0  0  2  0  0  0  0  0  0
  -19.5550  -26.6110   21.6130 C   0  0  0  0  0  2  0  0  0  0  0  0
  -18.1780  -26.7590   22.2650 C   0  0  0  0  0  2  0  0  0  0  0  0
  -19.1350  -28.8660   23.3700 C   0  0  0  0  0  0  0  0  0  0  0  0
  -18.9230  -30.1260   23.9700 C   0  0  0  0  0  3  0  0  0  0  0  0
  -17.6220  -30.6300   24.1480 C   0  0  0  0  0  3  0  0  0  0  0  0
  -16.5120  -29.8700   23.7380 C   0  0  0  0  0  3  0  0  0  0  0  0
  -16.7070  -28.6110   23.1420 C   0  0  0  0  0  3  0  0  0  0  0  0
  -25.8700  -32.5110   23.8470 C   0  0  0  0  0  3  0  0  0  0  0  0
  -25.5540  -33.9100   24.1760 N   0  0  0  0  0  0  0  0  0  0  0  0
  -25.8840  -34.9670   23.4230 C   0  0  0  0  0  0  0  0  0  0  0  0
  -26.5540  -34.8660   22.3910 O   0  0  0  0  0  0  0  0  0  0  0  0
  -24.9550  -34.0600   24.9760 H   0  0  0  0  0  0  0  0  0  0  0  0
  -24.1530  -36.7630   23.0760 C   0  0  0  0  0  1  0  0  0  0  0  0
  -25.3950  -36.3550   23.8850 C   0  0  0  0  0  3  0  0  0  0  0  0
  -27.5280  -37.2420   24.7160 C   0  0  0  0  0  1  0  0  0  0  0  0
  -26.4260  -37.4100   23.7720 N   0  0  0  0  0  0  0  0  0  0  0  0
  -26.0190  -38.3280   23.9210 H   0  0  0  0  0  0  0  0  0  0  0  0
  -26.3810  -31.7460   25.1300 C   0  0  1  0  0  0  0  0  0  0  0  0
  -25.2840  -31.5150   26.1960 C   0  0  0  0  0  1  0  0  0  0  0  0
  -26.9670  -30.3650   24.7520 C   0  0  0  0  0  1  0  0  0  0  0  0
  -27.5290  -32.5450   25.7920 C   0  0  0  0  0  1  0  0  0  0  0  0
  -29.7820  -19.3420   20.4460 C   0  0  0  0  0  3  0  0  0  0  0  0
  -32.2250  -19.2460   19.9180 C   0  0  0  0  0  1  0  0  0  0  0  0
  -30.9120  -19.8680   19.6580 N   0  0  0  0  0  4  0  0  0  0  0  0
  -30.6920  -19.8160   18.6770 H   0  0  0  0  0  0  0  0  0  0  0  0
  -30.9520  -20.8520   19.8880 H   0  0  0  0  0  0  0  0  0  0  0  0
  -29.5040  -17.7170   20.0530 C   0  0  0  0  0  2  0  0  0  0  0  0
  -30.7010  -16.7030   22.1770 C   0  0  0  0  0  1  0  0  0  0  0  0
  -29.8910  -16.3250   20.9230 C   0  0  0  0  0  3  0  0  0  0  0  0
  -30.5610  -14.9330   20.3190 C   0  0  0  0  0  0  0  0  0  0  0  0
  -30.4220  -12.6050   19.3260 C   0  0  0  0  0  2  0  0  0  0  0  0
  -29.4860  -12.6180   18.0950 C   0  0  0  0  0  2  0  0  0  0  0  0
  -28.0190  -12.4190   18.5230 C   0  0  0  0  0  2  0  0  0  0  0  0
  -27.6310  -13.3160   19.7280 C   0  0  0  0  0  3  0  0  0  0  0  0
  -28.6870  -13.2650   20.8520 C   0  0  0  0  0  2  0  0  0  0  0  0
  -29.9690  -13.6730   20.2630 N   0  0  0  0  0  0  0  0  0  0  0  0
  -31.7130  -15.0160   19.8810 O   0  0  0  0  0  0  0  0  0  0  0  0
  -25.2450  -13.8990   20.4530 C   0  0  0  0  0  0  0  0  0  0  0  0
  -24.1800  -13.1250   20.8240 C   0  0  0  0  0  0  0  0  0  0  0  0
  -24.6460  -11.7740   20.8020 C   0  0  0  0  0  0  0  0  0  0  0  0
  -26.2890  -13.0210   20.2200 N   0  0  0  0  0  0  0  0  0  0  0  0
  -25.9370  -11.7370   20.4940 N   0  0  0  0  0  0  0  0  0  0  0  0
  -23.9190  -10.5120   20.9970 C   0  0  0  0  0  0  0  0  0  0  0  0
  -24.3450   -9.5510   21.9410 C   0  0  0  0  0  3  0  0  0  0  0  0
  -23.6170   -8.3570   22.1240 C   0  0  0  0  0  3  0  0  0  0  0  0
  -22.4490   -8.1130   21.3620 C   0  0  0  0  0  0  0  0  0  0  0  0
  -22.0410   -9.0630   20.4080 C   0  0  0  0  0  3  0  0  0  0  0  0
  -22.7710  -10.2500   20.2250 C   0  0  0  0  0  3  0  0  0  0  0  0
  -21.6920   -6.9690   21.4540 O   0  0  0  0  0  0  0  0  0  0  0  0
  -21.6330   -6.2360   22.6120 C   0  0  0  0  0  0  0  0  0  0  0  0
  -21.1960   -6.8000   23.8310 C   0  0  0  0  0  3  0  0  0  0  0  0
  -21.0850   -5.9930   24.9790 C   0  0  0  0  0  3  0  0  0  0  0  0
  -21.4010   -4.6220   24.9120 C   0  0  0  0  0  0  0  0  0  0  0  0
  -21.8320   -4.0580   23.6990 C   0  0  0  0  0  3  0  0  0  0  0  0
  -21.9440   -4.8620   22.5510 C   0  0  0  0  0  0  0  0  0  0  0  0
  -22.3390   -4.3090   21.3790 F   0  0  0  0  0  0  0  0  0  0  0  0
  -21.2870   -3.8450   26.0150 F   0  0  0  0  0  0  0  0  0  0  0  0
  -22.7820  -13.6040   21.0880 C   0  0  0  0  0  0  0  0  0  0  0  0
  -22.0510  -12.9120   21.9560 N   0  0  0  0  0  0  0  0  0  0  0  0
  -22.3480  -14.6270   20.5640 O   0  0  0  0  0  0  0  0  0  0  0  0
  -22.4140  -12.0840   22.4020 H   0  0  0  0  0  0  0  0  0  0  0  0
  -21.1140  -13.2180   22.1770 H   0  0  0  0  0  0  0  0  0  0  0  0
  -25.4090  -15.2690   20.2700 N   0  0  0  0  0  0  0  0  0  0  0  0
  -24.6410  -15.9230   20.3790 H   0  0  0  0  0  0  0  0  0  0  0  0
  -26.2610  -15.7090   19.9450 H   0  0  0  0  0  0  0  0  0  0  0  0
  2  1  1  0
  3  2  1  0
  3  5  1  0
  4  3  1  0
  6  7  1  0
  6  5  1  0
  8 19  2  0
  9  7  1  0
  9 14  1  0
 10 18  1  0
 10 20  1  0
 11 17  1  0
 11 13  1  0
 12 18  1  0
 13 14  2  0
 13 12  1  0
 15  9  2  0
 16 15  1  0
 16 11  2  0
 17 10  1  0
 18  8  1  0
 20 22  2  0
 21 20  1  0
 23 21  1  0
 24 33  2  0
 24 29  1  0
 25 21  1  0
 25 29  1  0
 26 25  1  0
 27 28  1  0
 27 26  1  0
 28 24  1  0
 29 30  2  0
 30 31  1  0
 32 31  2  0
 33 32  1  0
 34  8  1  0
 34 35  1  0
 34 44  1  0
 35 38  1  0
 36 40  1  0
 36 35  1  0
 37 36  2  0
 40 39  1  0
 42 40  1  0
 42 43  1  0
 42 41  1  0
 44 47  1  1
 44 45  1  0
 46 44  1  0
 48 53  1  0
 48  2  1  0
 50 52  1  0
 50 49  1  0
 50 48  1  0
 51 50  1  0
 53 55  1  0
 55 54  1  0
 56 55  1  0
 57 62  1  0
 58 59  1  0
 58 57  1  0
 60 59  1  0
 60 67  1  0
 60 61  1  0
 62 56  1  0
 62 61  1  0
 63 56  2  0
 64 65  2  0
 65 84  1  0
 66 65  1  0
 66 69  1  0
 67 64  1  0
 67 68  1  0
 68 66  2  0
 69 70  1  0
 70 71  2  0
 72 75  1  0
 72 71  1  0
 73 72  2  0
 74 73  1  0
 74 69  2  0
 75 76  1  0
 76 77  1  0
 77 78  2  0
 79 78  1  0
 79 83  1  0
 80 79  2  0
 81 76  2  0
 81 80  1  0
 82 81  1  0
 84 85  1  0
 85 88  1  0
 85 87  1  0
 86 84  2  0
 89 90  1  0
 89 64  1  0
 91 89  1  0
M  ISO  4   6 101   7 101  55 100  56 100
M  END
>  <TORSDO>  (74) 
F 23

>  <SCORE>  (74) 
-13.205

>  <name>  (74) 
73

>  <ligand_id>  (74) 
73

>  <original_smiles>  (74) 
[H]c1c([H])c([H])c2c(c1[H])C([H])([H])C([H])([H])C([H])([H])C2([H])N([H])C(=O)C1([H])N(C(=O)C([H])(N([H])C(=O)C([H])(N([H])C([H])([H])[H])C([H])([H])[H])C(C([H])([H])[H])(C([H])([H])[H])C([H])([H])[H])C([H])([H])c2c([H])c(OC([H])([H])C([H])([H])N([H])C([H])(C([H])([H])[H])C([H])(C([H])([H])C([H])(C(=O)N3C([H])([H])C([H])([H])C([H])([H])C([H])(n4nc(-c5c([H])c([H])c(Oc6c([H])c([H])c(F)c([H])c6F)c([H])c5[H])c(C(=O)N([H])[H])c4N([H])[H])C3([H])[H])C([H])([H])[H])[N+]([H])([H])C([H])([H])[H])c([H])c([H])c2C1([H])[H]

>  <smiles>  (74) 
[H]c1c([H])c([H])c2c(c1[H])C([H])([H])C([H])([H])C([H])([H])C2([H])N([H])C(=O)C1([H])N(C(=O)C([H])(N([H])C(=O)C([H])(N([H])C([H])([H])[H])C([H])([H])[H])C(C([H])([H])[H])(C([H])([H])[H])C([H])([H])[H])C([H])([H])c2c([H])c(OC([H])([H])C([H])([H])N([H])C([H])(C([H])([H])[H])C([H])(C([H])([H])C([H])(C(=O)N3C([H])([H])C([H])([H])C([H])([H])C([H])(n4nc(-c5c([H])c([H])c(Oc6c([H])c([H])c(F)c([H])c6F)c([H])c5[H])c(C(=O)N([H])[H])c4N([H])[H])C3([H])[H])C([H])([H])[H])[N+]([H])([H])C([H])([H])[H])c([H])c([H])c2C1([H])[H]

$$$$
74:0:0
     RDKit          3D

 89 96  0  0  1  0  0  0  0  0999 V2000
  -29.6240  -20.7330   20.4880 N   0  0  0  0  0  4  0  0  0  0  0  0
  -29.7830  -20.7360   21.4820 H   0  0  0  0  0  0  0  0  0  0  0  0
  -30.5190  -20.9190   20.0600 H   0  0  0  0  0  0  0  0  0  0  0  0
  -27.7330  -19.0710   20.4210 C   0  0  0  0  0  1  0  0  0  0  0  0
  -29.2250  -19.2690   20.0720 C   0  0  0  0  0  3  0  0  0  0  0  0
  -30.0730  -17.8980   20.5540 C   0  0  0  0  0  2  0  0  0  0  0  0
  -31.1460  -16.8970   18.5030 C   0  0  0  0  0  1  0  0  0  0  0  0
  -28.8220  -16.3340   18.9140 C   0  0  0  0  0  1  0  0  0  0  0  0
  -30.1560  -16.4970   19.6350 C   0  0  2  0  0  0  0  0  0  0  0  0
  -30.7280  -14.9980   20.1390 C   0  0  0  0  0  0  0  0  0  0  0  0
  -30.5010  -12.6350   19.2940 C   0  0  0  0  0  2  0  0  0  0  0  0
  -29.5640  -12.5580   18.0690 C   0  0  0  0  0  2  0  0  0  0  0  0
  -28.1080  -12.3320   18.5190 C   0  0  0  0  0  2  0  0  0  0  0  0
  -27.6890  -13.2850   19.6620 C   0  0  0  0  0  3  0  0  0  0  0  0
  -28.7640  -13.4280   20.7650 C   0  0  0  0  0  2  0  0  0  0  0  0
  -30.0460  -13.7790   20.1300 N   0  0  0  0  0  0  0  0  0  0  0  0
  -31.9570  -14.9040   20.1520 O   0  0  0  0  0  0  0  0  0  0  0  0
  -25.3280  -13.9140   20.4110 C   0  0  0  0  0  0  0  0  0  0  0  0
  -24.2570  -13.1530   20.7850 C   0  0  0  0  0  0  0  0  0  0  0  0
  -24.7160  -11.7990   20.7760 C   0  0  0  0  0  0  0  0  0  0  0  0
  -26.3630  -13.0180   20.1860 N   0  0  0  0  0  0  0  0  0  0  0  0
  -26.0060  -11.7460   20.4760 N   0  0  0  0  0  0  0  0  0  0  0  0
  -23.9870  -10.5460   20.9730 C   0  0  0  0  0  0  0  0  0  0  0  0
  -24.4150   -9.5900   21.9190 C   0  0  0  0  0  3  0  0  0  0  0  0
  -23.6860   -8.3960   22.1070 C   0  0  0  0  0  3  0  0  0  0  0  0
  -22.5170   -8.1530   21.3470 C   0  0  0  0  0  0  0  0  0  0  0  0
  -22.1100   -9.0990   20.3890 C   0  0  0  0  0  3  0  0  0  0  0  0
  -22.8390  -10.2830   20.2000 C   0  0  0  0  0  3  0  0  0  0  0  0
  -21.7590   -7.0130   21.4450 O   0  0  0  0  0  0  0  0  0  0  0  0
  -21.7020   -6.2870   22.6060 C   0  0  0  0  0  0  0  0  0  0  0  0
  -21.2650   -6.8570   23.8220 C   0  0  0  0  0  3  0  0  0  0  0  0
  -21.1560   -6.0550   24.9750 C   0  0  0  0  0  3  0  0  0  0  0  0
  -21.4720   -4.6840   24.9140 C   0  0  0  0  0  0  0  0  0  0  0  0
  -21.9020   -4.1150   23.7020 C   0  0  0  0  0  3  0  0  0  0  0  0
  -22.0140   -4.9150   22.5520 C   0  0  0  0  0  0  0  0  0  0  0  0
  -22.4090   -4.3560   21.3810 F   0  0  0  0  0  0  0  0  0  0  0  0
  -21.3590   -3.9110   26.0200 F   0  0  0  0  0  0  0  0  0  0  0  0
  -22.8610  -13.6410   21.0370 C   0  0  0  0  0  0  0  0  0  0  0  0
  -22.1250  -12.9610   21.9090 N   0  0  0  0  0  0  0  0  0  0  0  0
  -22.4300  -14.6590   20.4980 O   0  0  0  0  0  0  0  0  0  0  0  0
  -22.4870  -12.1370   22.3660 H   0  0  0  0  0  0  0  0  0  0  0  0
  -21.1870  -13.2690   22.1230 H   0  0  0  0  0  0  0  0  0  0  0  0
  -25.4940  -15.2820   20.2120 N   0  0  0  0  0  0  0  0  0  0  0  0
  -24.7270  -15.9360   20.3100 H   0  0  0  0  0  0  0  0  0  0  0  0
  -26.3400  -15.7140   19.8650 H   0  0  0  0  0  0  0  0  0  0  0  0
  -28.6890  -21.9570   20.1600 C   0  0  0  0  0  2  0  0  0  0  0  0
  -29.0830  -23.5450   20.4590 C   0  0  0  0  0  3  0  0  0  0  0  0
  -28.0420  -24.7940   20.1210 C   0  0  0  0  0  3  0  0  0  0  0  0
  -28.2880  -26.2940   20.3300 O   0  0  0  0  0  0  0  0  0  0  0  0
  -24.6040  -31.8990   23.2740 C   0  0  0  0  0  0  0  0  0  0  0  0
  -27.2070  -27.2310   20.2550 C   0  0  0  0  0  0  0  0  0  0  0  0
  -23.4060  -30.4980   21.6360 C   0  0  0  0  0  3  0  0  0  0  0  0
  -24.8600  -28.9280   20.2180 C   0  0  0  0  0  0  0  0  0  0  0  0
  -25.9560  -30.7830   21.4690 C   0  0  0  0  0  2  0  0  0  0  0  0
  -26.0350  -29.3940   20.8230 C   0  0  0  0  0  0  0  0  0  0  0  0
  -27.2100  -28.5610   20.8230 C   0  0  0  0  0  3  0  0  0  0  0  0
  -26.0040  -26.8520   19.6160 C   0  0  0  0  0  3  0  0  0  0  0  0
  -24.8530  -27.6690   19.6020 C   0  0  0  0  0  3  0  0  0  0  0  0
  -23.6280  -29.8170   20.2590 C   0  0  0  0  0  2  0  0  0  0  0  0
  -24.6750  -31.0790   22.1810 N   0  0  0  0  0  0  0  0  0  0  0  0
  -23.5190  -32.1830   23.8010 O   0  0  0  0  0  0  0  0  0  0  0  0
  -22.7290  -29.4910   22.5990 C   0  0  0  0  0  0  0  0  0  0  0  0
  -21.4030  -29.3110   22.4620 N   0  0  0  0  0  0  0  0  0  0  0  0
  -23.3980  -28.8730   23.4310 O   0  0  0  0  0  0  0  0  0  0  0  0
  -20.9200  -29.8610   21.7650 H   0  0  0  0  0  0  0  0  0  0  0  0
  -18.0250  -28.0990   22.9400 C   0  0  0  0  0  0  0  0  0  0  0  0
  -20.5790  -28.3780   23.2350 C   0  0  0  0  0  3  0  0  0  0  0  0
  -20.6960  -26.9410   22.6770 C   0  0  0  0  0  2  0  0  0  0  0  0
  -19.6070  -26.6000   21.6540 C   0  0  0  0  0  2  0  0  0  0  0  0
  -18.2170  -26.7440   22.2800 C   0  0  0  0  0  2  0  0  0  0  0  0
  -19.1330  -28.8730   23.3740 C   0  0  0  0  0  0  0  0  0  0  0  0
  -18.8990  -30.1400   23.9520 C   0  0  0  0  0  3  0  0  0  0  0  0
  -17.5900  -30.6330   24.1000 C   0  0  0  0  0  3  0  0  0  0  0  0
  -16.4950  -29.8560   23.6820 C   0  0  0  0  0  3  0  0  0  0  0  0
  -16.7130  -28.5910   23.1080 C   0  0  0  0  0  3  0  0  0  0  0  0
  -25.8840  -32.5330   23.9000 C   0  0  0  0  0  3  0  0  0  0  0  0
  -25.5790  -33.9390   24.2110 N   0  0  0  0  0  0  0  0  0  0  0  0
  -25.9210  -34.9810   23.4430 C   0  0  0  0  0  0  0  0  0  0  0  0
  -26.5920  -34.8620   22.4160 O   0  0  0  0  0  0  0  0  0  0  0  0
  -24.9850  -34.1060   25.0110 H   0  0  0  0  0  0  0  0  0  0  0  0
  -24.2080  -36.7850   23.0590 C   0  0  0  0  0  1  0  0  0  0  0  0
  -25.4410  -36.3790   23.8830 C   0  0  0  0  0  3  0  0  0  0  0  0
  -27.5770  -37.2580   24.7200 C   0  0  0  0  0  1  0  0  0  0  0  0
  -26.4830  -37.4230   23.7650 N   0  0  0  0  0  0  0  0  0  0  0  0
  -26.0830  -38.3480   23.9000 H   0  0  0  0  0  0  0  0  0  0  0  0
  -26.3820  -31.7770   25.1930 C   0  0  1  0  0  0  0  0  0  0  0  0
  -25.2770  -31.5630   26.2540 C   0  0  0  0  0  1  0  0  0  0  0  0
  -26.9580  -30.3890   24.8300 C   0  0  0  0  0  1  0  0  0  0  0  0
  -27.5320  -32.5720   25.8520 C   0  0  0  0  0  1  0  0  0  0  0  0
  1  2  1  0
  3  1  1  0
  5  4  1  0
  5  1  1  0
  5  6  1  0
  9  7  1  6
  8  9  1  0
  9 10  1  0
  9  6  1  0
 10 17  2  0
 11 16  1  0
 12 13  1  0
 12 11  1  0
 14 13  1  0
 14 21  1  0
 14 15  1  0
 16 10  1  0
 16 15  1  0
 18 19  2  0
 19 38  1  0
 20 19  1  0
 20 23  1  0
 21 18  1  0
 21 22  1  0
 22 20  2  0
 23 24  1  0
 24 25  2  0
 26 29  1  0
 26 25  1  0
 27 26  2  0
 28 27  1  0
 28 23  2  0
 29 30  1  0
 30 31  1  0
 31 32  2  0
 33 32  1  0
 33 37  1  0
 34 33  2  0
 35 30  2  0
 35 34  1  0
 36 35  1  0
 38 39  1  0
 39 42  1  0
 39 41  1  0
 40 38  2  0
 43 44  1  0
 43 18  1  0
 45 43  1  0
 46 47  1  0
 46  1  1  0
 48 49  1  0
 48 47  2  0
 50 61  2  0
 51 49  1  0
 51 56  1  0
 52 60  1  0
 52 62  1  0
 53 59  1  0
 53 55  1  0
 54 60  1  0
 55 56  2  0
 55 54  1  0
 57 51  2  0
 58 57  1  0
 58 53  2  0
 59 52  1  0
 60 50  1  0
 62 64  2  0
 63 62  1  0
 65 63  1  0
 66 75  2  0
 66 71  1  0
 67 63  1  0
 67 71  1  0
 68 67  1  0
 69 70  1  0
 69 68  1  0
 70 66  1  0
 71 72  2  0
 72 73  1  0
 74 73  2  0
 75 74  1  0
 76 50  1  0
 76 77  1  0
 76 86  1  0
 77 80  1  0
 78 82  1  0
 78 77  1  0
 79 78  2  0
 82 81  1  0
 84 82  1  0
 84 85  1  0
 84 83  1  0
 86 89  1  1
 86 87  1  0
 88 86  1  0
M  ISO  4   9 100  10 100  48 101  49 101
M  END
>  <TORSDO>  (75) 
F 22

>  <SCORE>  (75) 
-12.819

>  <name>  (75) 
74

>  <ligand_id>  (75) 
74

>  <original_smiles>  (75) 
[H]c1c([H])c([H])c2c(c1[H])C([H])([H])C([H])([H])C([H])([H])C2([H])N([H])C(=O)C1([H])N(C(=O)C([H])(N([H])C(=O)C([H])(N([H])C([H])([H])[H])C([H])([H])[H])C(C([H])([H])[H])(C([H])([H])[H])C([H])([H])[H])C([H])([H])c2c([H])c(OC([H])([H])C([H])([H])C([H])([H])[N+]([H])([H])C([H])(C([H])([H])[H])C([H])([H])C(C(=O)N3C([H])([H])C([H])([H])C([H])([H])C([H])(n4nc(-c5c([H])c([H])c(Oc6c([H])c([H])c(F)c([H])c6F)c([H])c5[H])c(C(=O)N([H])[H])c4N([H])[H])C3([H])[H])(C([H])([H])[H])C([H])([H])[H])c([H])c([H])c2C1([H])[H]

>  <smiles>  (75) 
[H]c1c([H])c([H])c2c(c1[H])C([H])([H])C([H])([H])C([H])([H])C2([H])N([H])C(=O)C1([H])N(C(=O)C([H])(N([H])C(=O)C([H])(N([H])C([H])([H])[H])C([H])([H])[H])C(C([H])([H])[H])(C([H])([H])[H])C([H])([H])[H])C([H])([H])c2c([H])c(OC([H])([H])C([H])([H])C([H])([H])[N+]([H])([H])C([H])(C([H])([H])[H])C([H])([H])C(C(=O)N3C([H])([H])C([H])([H])C([H])([H])C([H])(n4nc(-c5c([H])c([H])c(Oc6c([H])c([H])c(F)c([H])c6F)c([H])c5[H])c(C(=O)N([H])[H])c4N([H])[H])C3([H])[H])(C([H])([H])[H])C([H])([H])[H])c([H])c([H])c2C1([H])[H]

$$$$
75:0:0
     RDKit          3D

 90 97  0  0  1  0  0  0  0  0999 V2000
  -29.3530  -21.9760   20.4430 C   0  0  0  0  0  3  0  0  0  0  0  0
  -28.8680  -20.3520   18.5420 C   0  0  0  0  0  1  0  0  0  0  0  0
  -28.9140  -20.5130   20.0150 N   0  0  1  0  0  4  0  0  0  0  0  0
  -27.9430  -20.4720   20.2910 H   0  0  0  0  0  0  0  0  0  0  0  0
  -29.5230  -19.2310   20.7210 C   0  0  0  0  0  2  0  0  0  0  0  0
  -29.6540  -17.7160   20.0090 C   0  0  0  0  0  2  0  0  0  0  0  0
  -29.8170  -16.2770   20.8440 C   0  0  0  0  0  2  0  0  0  0  0  0
  -30.5160  -14.8910   20.2940 C   0  0  0  0  0  0  0  0  0  0  0  0
  -30.3500  -12.5750   19.2890 C   0  0  0  0  0  2  0  0  0  0  0  0
  -29.3990  -12.6140   18.0700 C   0  0  0  0  0  2  0  0  0  0  0  0
  -27.9350  -12.4270   18.5130 C   0  0  0  0  0  2  0  0  0  0  0  0
  -27.5680  -13.3150   19.7310 C   0  0  0  0  0  3  0  0  0  0  0  0
  -28.6390  -13.2420   20.8410 C   0  0  0  0  0  2  0  0  0  0  0  0
  -29.9190  -13.6360   20.2420 N   0  0  0  0  0  0  0  0  0  0  0  0
  -31.6710  -14.9760   19.8620 O   0  0  0  0  0  0  0  0  0  0  0  0
  -25.1920  -13.9050   20.4810 C   0  0  0  0  0  0  0  0  0  0  0  0
  -24.1280  -13.1350   20.8620 C   0  0  0  0  0  0  0  0  0  0  0  0
  -24.5880  -11.7820   20.8320 C   0  0  0  0  0  0  0  0  0  0  0  0
  -26.2310  -13.0240   20.2360 N   0  0  0  0  0  0  0  0  0  0  0  0
  -25.8770  -11.7420   20.5110 N   0  0  0  0  0  0  0  0  0  0  0  0
  -23.8590  -10.5230   21.0330 C   0  0  0  0  0  0  0  0  0  0  0  0
  -24.3070   -9.5480   21.9520 C   0  0  0  0  0  3  0  0  0  0  0  0
  -23.5780   -8.3550   22.1410 C   0  0  0  0  0  3  0  0  0  0  0  0
  -22.3860   -8.1260   21.4120 C   0  0  0  0  0  0  0  0  0  0  0  0
  -21.9570   -9.0900   20.4830 C   0  0  0  0  0  3  0  0  0  0  0  0
  -22.6870  -10.2760   20.2910 C   0  0  0  0  0  3  0  0  0  0  0  0
  -21.6260   -6.9860   21.5120 O   0  0  0  0  0  0  0  0  0  0  0  0
  -21.6130   -6.2280   22.6560 C   0  0  0  0  0  0  0  0  0  0  0  0
  -21.2490   -6.7730   23.9060 C   0  0  0  0  0  3  0  0  0  0  0  0
  -21.1810   -5.9420   25.0430 C   0  0  0  0  0  3  0  0  0  0  0  0
  -21.4670   -4.5690   24.9300 C   0  0  0  0  0  0  0  0  0  0  0  0
  -21.8240   -4.0240   23.6840 C   0  0  0  0  0  3  0  0  0  0  0  0
  -21.8930   -4.8510   22.5500 C   0  0  0  0  0  0  0  0  0  0  0  0
  -22.2170   -4.3160   21.3480 F   0  0  0  0  0  0  0  0  0  0  0  0
  -21.3940   -3.7690   26.0210 F   0  0  0  0  0  0  0  0  0  0  0  0
  -22.7350  -13.6170   21.1440 C   0  0  0  0  0  0  0  0  0  0  0  0
  -22.0120  -12.9260   22.0190 N   0  0  0  0  0  0  0  0  0  0  0  0
  -22.2960  -14.6420   20.6240 O   0  0  0  0  0  0  0  0  0  0  0  0
  -22.3800  -12.0980   22.4620 H   0  0  0  0  0  0  0  0  0  0  0  0
  -21.0770  -13.2310   22.2500 H   0  0  0  0  0  0  0  0  0  0  0  0
  -25.3580  -15.2760   20.2990 N   0  0  0  0  0  0  0  0  0  0  0  0
  -24.5950  -15.9330   20.4170 H   0  0  0  0  0  0  0  0  0  0  0  0
  -26.2090  -15.7110   19.9670 H   0  0  0  0  0  0  0  0  0  0  0  0
  -28.3480  -23.3350   20.2730 C   0  0  0  0  0  2  0  0  0  0  0  0
  -28.3850  -24.8890   19.6160 C   0  0  0  0  0  2  0  0  0  0  0  0
  -28.2630  -26.2760   20.2700 O   0  0  0  0  0  0  0  0  0  0  0  0
  -24.6100  -31.8710   23.2330 C   0  0  0  0  0  0  0  0  0  0  0  0
  -27.1700  -27.1970   20.1660 C   0  0  0  0  0  0  0  0  0  0  0  0
  -23.3920  -30.4750   21.6040 C   0  0  0  0  0  3  0  0  0  0  0  0
  -24.8260  -28.9040   20.1610 C   0  0  0  0  0  0  0  0  0  0  0  0
  -25.9390  -30.7530   21.4110 C   0  0  0  0  0  2  0  0  0  0  0  0
  -26.0060  -29.3640   20.7580 C   0  0  0  0  0  0  0  0  0  0  0  0
  -27.1740  -28.5220   20.7490 C   0  0  0  0  0  3  0  0  0  0  0  0
  -25.9610  -26.8200   19.5410 C   0  0  0  0  0  3  0  0  0  0  0  0
  -24.8140  -27.6450   19.5410 C   0  0  0  0  0  3  0  0  0  0  0  0
  -23.5970  -29.7960   20.2220 C   0  0  0  0  0  2  0  0  0  0  0  0
  -24.6670  -31.0540   22.1380 N   0  0  0  0  0  0  0  0  0  0  0  0
  -23.5300  -32.1560   23.7730 O   0  0  0  0  0  0  0  0  0  0  0  0
  -22.7250  -29.4680   22.5730 C   0  0  0  0  0  0  0  0  0  0  0  0
  -21.3990  -29.2880   22.4490 N   0  0  0  0  0  0  0  0  0  0  0  0
  -23.4030  -28.8510   23.3980 O   0  0  0  0  0  0  0  0  0  0  0  0
  -20.9080  -29.8380   21.7580 H   0  0  0  0  0  0  0  0  0  0  0  0
  -18.0310  -28.0510   22.9390 C   0  0  0  0  0  0  0  0  0  0  0  0
  -20.5840  -28.3520   23.2270 C   0  0  0  0  0  3  0  0  0  0  0  0
  -20.7100  -26.9130   22.6750 C   0  0  0  0  0  2  0  0  0  0  0  0
  -19.6220  -26.5600   21.6550 C   0  0  0  0  0  2  0  0  0  0  0  0
  -18.2330  -26.6950   22.2840 C   0  0  0  0  0  2  0  0  0  0  0  0
  -19.1340  -28.8360   23.3680 C   0  0  0  0  0  0  0  0  0  0  0  0
  -18.8920  -30.1030   23.9410 C   0  0  0  0  0  3  0  0  0  0  0  0
  -17.5780  -30.5860   24.0900 C   0  0  0  0  0  3  0  0  0  0  0  0
  -16.4890  -29.7990   23.6760 C   0  0  0  0  0  3  0  0  0  0  0  0
  -16.7160  -28.5330   23.1070 C   0  0  0  0  0  3  0  0  0  0  0  0
  -25.8960  -32.5050   23.8480 C   0  0  0  0  0  3  0  0  0  0  0  0
  -26.4200  -31.7340   25.1210 C   0  0  1  0  0  0  0  0  0  0  0  0
  -25.3340  -31.5010   26.1990 C   0  0  0  0  0  1  0  0  0  0  0  0
  -26.9940  -30.3530   24.7290 C   0  0  0  0  0  1  0  0  0  0  0  0
  -27.5790  -32.5240   25.7730 C   0  0  0  0  0  1  0  0  0  0  0  0
  -25.5880  -33.9030   24.1860 N   0  0  0  0  0  0  0  0  0  0  0  0
  -25.9120  -34.9610   23.4310 C   0  0  0  0  0  0  0  0  0  0  0  0
  -26.5700  -34.8640   22.3910 O   0  0  0  0  0  0  0  0  0  0  0  0
  -25.0020  -34.0530   24.9940 H   0  0  0  0  0  0  0  0  0  0  0  0
  -24.1780  -36.7580   23.1150 C   0  0  0  0  0  1  0  0  0  0  0  0
  -25.4330  -36.3490   23.9030 C   0  0  0  0  0  3  0  0  0  0  0  0
  -27.5830  -37.2310   24.6990 C   0  0  0  0  0  1  0  0  0  0  0  0
  -26.4640  -37.4030   23.7760 N   0  0  0  0  0  0  0  0  0  0  0  0
  -26.0610  -38.3220   23.9350 H   0  0  0  0  0  0  0  0  0  0  0  0
  -30.7970  -22.2540   19.9220 C   0  0  0  0  0  2  0  0  0  0  0  0
  -31.5990  -23.3060   20.7110 C   0  0  0  0  0  2  0  0  0  0  0  0
  -32.9180  -23.3790   20.1960 O   0  0  0  0  0  0  0  0  0  0  0  0
  -33.3950  -24.0340   20.7010 H   0  0  0  0  0  0  0  0  0  0  0  0
  1 87  1  0
  2  3  1  0
  3  4  1  1
  3  1  1  0
  3  5  1  0
  6  5  1  0
  6  7  1  0
  8  7  1  0
  9 14  1  0
 10 11  1  0
 10  9  1  0
 12 11  1  0
 12 19  1  0
 12 13  1  0
 14  8  1  0
 14 13  1  0
 15  8  2  0
 16 17  2  0
 17 36  1  0
 18 17  1  0
 18 21  1  0
 19 16  1  0
 19 20  1  0
 20 18  2  0
 21 22  1  0
 22 23  2  0
 24 27  1  0
 24 23  1  0
 25 24  2  0
 26 25  1  0
 26 21  2  0
 27 28  1  0
 28 29  1  0
 29 30  2  0
 31 30  1  0
 31 35  1  0
 32 31  2  0
 33 28  2  0
 33 32  1  0
 34 33  1  0
 36 37  1  0
 37 40  1  0
 37 39  1  0
 38 36  2  0
 41 42  1  0
 41 16  1  0
 43 41  1  0
 44  1  1  0
 45 46  1  0
 45 44  1  0
 47 58  2  0
 48 46  1  0
 48 53  1  0
 49 57  1  0
 49 59  1  0
 50 56  1  0
 50 52  1  0
 51 57  1  0
 52 51  1  0
 53 52  2  0
 54 55  1  0
 54 48  2  0
 55 50  2  0
 56 49  1  0
 57 47  1  0
 59 61  2  0
 60 59  1  0
 62 60  1  0
 63 72  2  0
 63 68  1  0
 64 60  1  0
 64 68  1  0
 65 64  1  0
 66 67  1  0
 66 65  1  0
 67 63  1  0
 68 69  2  0
 69 70  1  0
 71 70  2  0
 72 71  1  0
 73 47  1  0
 73 78  1  0
 73 74  1  0
 74 77  1  1
 74 75  1  0
 76 74  1  0
 78 81  1  0
 79 83  1  0
 79 78  1  0
 80 79  2  0
 83 82  1  0
 85 83  1  0
 85 86  1  0
 85 84  1  0
 87 88  1  0
 89 90  1  0
 89 88  1  0
M  ISO  4   7 100   8 100  45 101  46 101
M  END
>  <TORSDO>  (76) 
F 25

>  <SCORE>  (76) 
-12.680

>  <name>  (76) 
75

>  <ligand_id>  (76) 
75

>  <original_smiles>  (76) 
[H]OC([H])([H])C([H])([H])C([H])(C([H])([H])C([H])([H])Oc1c([H])c([H])c2c(c1[H])C([H])([H])N(C(=O)C([H])(N([H])C(=O)C([H])(N([H])C([H])([H])[H])C([H])([H])[H])C(C([H])([H])[H])(C([H])([H])[H])C([H])([H])[H])C([H])(C(=O)N([H])C1([H])c3c([H])c([H])c([H])c([H])c3C([H])([H])C([H])([H])C1([H])[H])C2([H])[H])[N+]([H])(C([H])([H])[H])C([H])([H])C([H])([H])C([H])([H])C(=O)N1C([H])([H])C([H])([H])C([H])([H])C([H])(n2nc(-c3c([H])c([H])c(Oc4c([H])c([H])c(F)c([H])c4F)c([H])c3[H])c(C(=O)N([H])[H])c2N([H])[H])C1([H])[H]

>  <smiles>  (76) 
[H]OC([H])([H])C([H])([H])C([H])(C([H])([H])C([H])([H])Oc1c([H])c([H])c2c(c1[H])C([H])([H])N(C(=O)C([H])(N([H])C(=O)C([H])(N([H])C([H])([H])[H])C([H])([H])[H])C(C([H])([H])[H])(C([H])([H])[H])C([H])([H])[H])C([H])(C(=O)N([H])C1([H])c3c([H])c([H])c([H])c([H])c3C([H])([H])C([H])([H])C1([H])[H])C2([H])[H])[N+]([H])(C([H])([H])[H])C([H])([H])C([H])([H])C([H])([H])C(=O)N1C([H])([H])C([H])([H])C([H])([H])C([H])(n2nc(-c3c([H])c([H])c(Oc4c([H])c([H])c(F)c([H])c4F)c([H])c3[H])c(C(=O)N([H])[H])c2N([H])[H])C1([H])[H]

$$$$
76:0:0
     RDKit          3D

 98106  0  0  1  0  0  0  0  0999 V2000
  -25.9050  -22.6050   19.5560 C   0  0  0  0  0  2  0  0  0  0  0  0
  -28.1940  -21.5890   19.0650 C   0  0  0  0  0  3  0  0  0  0  0  0
  -26.5160  -20.2190   20.1760 C   0  0  0  0  0  3  0  0  0  0  0  0
  -29.1000  -20.5090   19.1090 C   0  0  0  0  0  3  0  0  0  0  0  0
  -27.4300  -19.1490   20.2400 C   0  0  0  0  0  3  0  0  0  0  0  0
  -26.8960  -21.4520   19.6010 C   0  0  0  0  0  0  0  0  0  0  0  0
  -28.7310  -19.2860   19.7160 C   0  0  0  0  0  0  0  0  0  0  0  0
  -29.6150  -18.2030   19.8380 N   0  0  0  0  0  0  0  0  0  0  0  0
  -29.3200  -17.4780   20.4840 H   0  0  0  0  0  0  0  0  0  0  0  0
  -31.0450  -18.4960   19.8380 C   0  0  0  0  0  2  0  0  0  0  0  0
  -31.8020  -17.6470   20.8700 C   0  0  0  0  0  2  0  0  0  0  0  0
  -31.8830  -15.2620   20.1740 C   0  0  0  0  0  0  0  0  0  0  0  0
  -31.6070  -12.9390   19.4030 C   0  0  0  0  0  2  0  0  0  0  0  0
  -30.7170  -12.8860   18.1470 C   0  0  0  0  0  2  0  0  0  0  0  0
  -29.2280  -12.8300   18.5360 C   0  0  0  0  0  2  0  0  0  0  0  0
  -28.8390  -13.9180   19.5720 C   0  0  0  0  0  3  0  0  0  0  0  0
  -29.8340  -13.9190   20.7520 C   0  0  0  0  0  2  0  0  0  0  0  0
  -31.1940  -14.0940   20.2130 N   0  0  0  0  0  0  0  0  0  0  0  0
  -32.9410  -15.4100   19.5560 O   0  0  0  0  0  0  0  0  0  0  0  0
  -31.3270  -16.2650   20.8620 N   0  0  0  0  0  0  0  0  0  0  0  0
  -30.4690  -16.0630   21.3520 H   0  0  0  0  0  0  0  0  0  0  0  0
  -26.4900  -14.7130   20.2740 C   0  0  0  0  0  0  0  0  0  0  0  0
  -25.3560  -14.0240   20.6150 C   0  0  0  0  0  0  0  0  0  0  0  0
  -25.7020  -12.6400   20.5560 C   0  0  0  0  0  0  0  0  0  0  0  0
  -27.4580  -13.7520   20.0290 N   0  0  0  0  0  0  0  0  0  0  0  0
  -26.9860  -12.4980   20.2560 N   0  0  0  0  0  0  0  0  0  0  0  0
  -24.8730  -11.4380   20.7190 C   0  0  0  0  0  0  0  0  0  0  0  0
  -25.1780  -10.4560   21.6870 C   0  0  0  0  0  3  0  0  0  0  0  0
  -24.3570   -9.3160   21.8330 C   0  0  0  0  0  3  0  0  0  0  0  0
  -23.2180   -9.1530   21.0100 C   0  0  0  0  0  0  0  0  0  0  0  0
  -22.9320  -10.1230   20.0330 C   0  0  0  0  0  3  0  0  0  0  0  0
  -23.7530  -11.2540   19.8860 C   0  0  0  0  0  3  0  0  0  0  0  0
  -22.3800   -8.0650   21.0630 O   0  0  0  0  0  0  0  0  0  0  0  0
  -22.1410   -7.3970   22.2360 C   0  0  0  0  0  0  0  0  0  0  0  0
  -21.6070   -8.0480   23.3710 C   0  0  0  0  0  3  0  0  0  0  0  0
  -21.3100   -7.3080   24.5320 C   0  0  0  0  0  3  0  0  0  0  0  0
  -21.5380   -5.9190   24.5610 C   0  0  0  0  0  0  0  0  0  0  0  0
  -22.0640   -5.2690   23.4310 C   0  0  0  0  0  3  0  0  0  0  0  0
  -22.3610   -6.0050   22.2710 C   0  0  0  0  0  0  0  0  0  0  0  0
  -22.8490   -5.3700   21.1780 F   0  0  0  0  0  0  0  0  0  0  0  0
  -21.2460   -5.2060   25.6740 F   0  0  0  0  0  0  0  0  0  0  0  0
  -24.0000  -14.6100   20.8870 C   0  0  0  0  0  0  0  0  0  0  0  0
  -23.2180  -13.9730   21.7520 N   0  0  0  0  0  0  0  0  0  0  0  0
  -23.6450  -15.6670   20.3710 O   0  0  0  0  0  0  0  0  0  0  0  0
  -23.5160  -13.1150   22.1950 H   0  0  0  0  0  0  0  0  0  0  0  0
  -22.3060  -14.3480   21.9730 H   0  0  0  0  0  0  0  0  0  0  0  0
  -26.7730  -16.0680   20.1390 N   0  0  0  0  0  0  0  0  0  0  0  0
  -26.0730  -16.7860   20.2920 H   0  0  0  0  0  0  0  0  0  0  0  0
  -27.6760  -16.4470   19.8810 H   0  0  0  0  0  0  0  0  0  0  0  0
  -25.7830  -23.2260   20.9040 N   0  0  2  0  0  4  0  0  0  0  0  0
  -26.2630  -22.5530   21.4820 H   0  0  0  0  0  0  0  0  0  0  0  0
  -23.3780  -23.9980   20.5210 C   0  0  0  0  0  1  0  0  0  0  0  0
  -24.2420  -23.6470   22.8850 C   0  0  0  0  0  1  0  0  0  0  0  0
  -24.3690  -23.2140   21.4110 C   0  0  0  0  0  3  0  0  0  0  0  0
  -26.5220  -24.5120   21.1120 C   0  0  0  0  0  3  0  0  0  0  0  0
  -27.9930  -24.5510   20.5840 C   0  0  0  0  0  3  0  0  0  0  0  0
  -28.7780  -25.8580   20.8870 C   0  0  0  0  0  2  0  0  0  0  0  0
  -28.7620  -26.8470   19.8460 O   0  0  0  0  0  0  0  0  0  0  0  0
  -24.8010  -31.6910   23.1860 C   0  0  0  0  0  0  0  0  0  0  0  0
  -27.6190  -27.5970   19.8350 C   0  0  0  0  0  0  0  0  0  0  0  0
  -23.6630  -30.3750   21.4270 C   0  0  0  0  0  3  0  0  0  0  0  0
  -25.1880  -29.0160   19.9000 C   0  0  0  0  0  0  0  0  0  0  0  0
  -26.1740  -30.8390   21.2930 C   0  0  0  0  0  2  0  0  0  0  0  0
  -26.3150  -29.5240   20.5610 C   0  0  0  0  0  0  0  0  0  0  0  0
  -27.5330  -28.8150   20.5420 C   0  0  0  0  0  3  0  0  0  0  0  0
  -26.5000  -27.1300   19.1180 C   0  0  0  0  0  3  0  0  0  0  0  0
  -25.2750  -27.8140   19.1750 C   0  0  0  0  0  3  0  0  0  0  0  0
  -23.9120  -29.8210   19.9990 C   0  0  0  0  0  2  0  0  0  0  0  0
  -24.8960  -30.9780   22.0300 N   0  0  0  0  0  0  0  0  0  0  0  0
  -23.7040  -31.8890   23.7270 O   0  0  0  0  0  0  0  0  0  0  0  0
  -23.0400  -29.2580   22.2940 C   0  0  0  0  0  0  0  0  0  0  0  0
  -21.7190  -29.0600   22.1540 N   0  0  0  0  0  0  0  0  0  0  0  0
  -23.7390  -28.5760   23.0490 O   0  0  0  0  0  0  0  0  0  0  0  0
  -21.2180  -29.6620   21.5170 H   0  0  0  0  0  0  0  0  0  0  0  0
  -18.3670  -27.7880   22.5730 C   0  0  0  0  0  0  0  0  0  0  0  0
  -20.9250  -28.0450   22.8420 C   0  0  0  0  0  3  0  0  0  0  0  0
  -21.0360  -26.6740   22.1330 C   0  0  0  0  0  2  0  0  0  0  0  0
  -19.9260  -26.4350   21.1040 C   0  0  0  0  0  2  0  0  0  0  0  0
  -18.5500  -26.5070   21.7750 C   0  0  0  0  0  2  0  0  0  0  0  0
  -19.4820  -28.5180   23.0600 C   0  0  0  0  0  0  0  0  0  0  0  0
  -19.2580  -29.7230   23.7610 C   0  0  0  0  0  3  0  0  0  0  0  0
  -17.9510  -30.1920   23.9850 C   0  0  0  0  0  3  0  0  0  0  0  0
  -16.8490  -29.4550   23.5170 C   0  0  0  0  0  3  0  0  0  0  0  0
  -17.0590  -28.2550   22.8150 C   0  0  0  0  0  3  0  0  0  0  0  0
  -26.0610  -32.3170   23.8670 C   0  0  0  0  0  3  0  0  0  0  0  0
  -26.5710  -31.4860   25.1070 C   0  0  1  0  0  0  0  0  0  0  0  0
  -25.4630  -31.1700   26.1360 C   0  0  0  0  0  1  0  0  0  0  0  0
  -27.1900  -30.1440   24.6480 C   0  0  0  0  0  1  0  0  0  0  0  0
  -27.6930  -32.2620   25.8340 C   0  0  0  0  0  1  0  0  0  0  0  0
  -25.7110  -33.6870   24.2670 N   0  0  0  0  0  0  0  0  0  0  0  0
  -26.0240  -34.7860   23.5690 C   0  0  0  0  0  0  0  0  0  0  0  0
  -26.7120  -34.7540   22.5450 O   0  0  0  0  0  0  0  0  0  0  0  0
  -25.1070  -33.7860   25.0690 H   0  0  0  0  0  0  0  0  0  0  0  0
  -24.2450  -36.5400   23.2890 C   0  0  0  0  0  1  0  0  0  0  0  0
  -25.4910  -36.1330   24.0910 C   0  0  0  0  0  3  0  0  0  0  0  0
  -27.5860  -37.0390   24.9920 C   0  0  0  0  0  1  0  0  0  0  0  0
  -26.4920  -37.2210   24.0420 N   0  0  0  0  0  0  0  0  0  0  0  0
  -26.0560  -38.1200   24.2280 H   0  0  0  0  0  0  0  0  0  0  0  0
  1  6  1  0
  1 50  1  0
  2  4  2  0
  2  6  1  0
  3  5  1  0
  4  7  1  0
  6  3  2  0
  7  8  1  0
  7  5  2  0
  8  9  1  0
 10  8  1  0
 10 11  1  0
 12 18  1  0
 12 20  1  0
 13 18  1  0
 14 15  1  0
 14 13  1  0
 16 15  1  0
 16 25  1  0
 16 17  1  0
 18 17  1  0
 19 12  2  0
 20 11  1  0
 20 21  1  0
 22 23  2  0
 23 42  1  0
 24 23  1  0
 24 27  1  0
 25 26  1  0
 25 22  1  0
 26 24  2  0
 27 28  1  0
 28 29  2  0
 30 33  1  0
 30 29  1  0
 31 30  2  0
 32 31  1  0
 32 27  2  0
 33 34  1  0
 34 39  2  0
 34 35  1  0
 35 36  2  0
 36 37  1  0
 37 41  1  0
 38 37  2  0
 39 38  1  0
 40 39  1  0
 42 43  1  0
 43 46  1  0
 43 45  1  0
 44 42  2  0
 47 22  1  0
 47 48  1  0
 49 47  1  0
 50 55  1  0
 50 54  1  0
 50 51  1  1
 52 54  1  0
 54 53  1  0
 56 57  1  0
 56 55  2  0
 58 57  1  0
 59 70  2  0
 60 58  1  0
 60 65  1  0
 61 69  1  0
 61 71  1  0
 62 68  1  0
 62 64  1  0
 63 69  1  0
 64 63  1  0
 65 64  2  0
 66 67  1  0
 66 60  2  0
 67 62  2  0
 68 61  1  0
 69 59  1  0
 71 73  2  0
 72 71  1  0
 74 72  1  0
 75 84  2  0
 75 80  1  0
 76 72  1  0
 76 80  1  0
 77 76  1  0
 78 79  1  0
 78 77  1  0
 79 75  1  0
 80 81  2  0
 81 82  1  0
 83 82  2  0
 84 83  1  0
 85 59  1  0
 85 90  1  0
 85 86  1  0
 86 89  1  1
 86 87  1  0
 88 86  1  0
 90 93  1  0
 91 95  1  0
 91 90  1  0
 92 91  2  0
 95 94  1  0
 97 95  1  0
 97 98  1  0
 97 96  1  0
M  ISO  4  12 100  20 100  57 101  58 101
M  END
>  <TORSDO>  (77) 
F 25

>  <SCORE>  (77) 
-8.410

>  <name>  (77) 
76

>  <ligand_id>  (77) 
76

>  <original_smiles>  (77) 
[H]c1c([H])c([H])c2c(c1[H])C([H])([H])C([H])([H])C([H])([H])C2([H])N([H])C(=O)C1([H])N(C(=O)C([H])(N([H])C(=O)C([H])(N([H])C([H])([H])[H])C([H])([H])[H])C(C([H])([H])[H])(C([H])([H])[H])C([H])([H])[H])C([H])([H])c2c([H])c(OC([H])([H])C([H])([H])C([H])([H])[N+]([H])(C([H])([H])c3c([H])c([H])c(N([H])C([H])([H])C([H])([H])N([H])C(=O)N4C([H])([H])C([H])([H])C([H])([H])C([H])(n5nc(-c6c([H])c([H])c(Oc7c([H])c([H])c(F)c([H])c7F)c([H])c6[H])c(C(=O)N([H])[H])c5N([H])[H])C4([H])[H])c([H])c3[H])C([H])(C([H])([H])[H])C([H])([H])[H])c([H])c([H])c2C1([H])[H]

>  <smiles>  (77) 
[H]c1c([H])c([H])c2c(c1[H])C([H])([H])C([H])([H])C([H])([H])C2([H])N([H])C(=O)C1([H])N(C(=O)C([H])(N([H])C(=O)C([H])(N([H])C([H])([H])[H])C([H])([H])[H])C(C([H])([H])[H])(C([H])([H])[H])C([H])([H])[H])C([H])([H])c2c([H])c(OC([H])([H])C([H])([H])C([H])([H])[N+]([H])(C([H])([H])c3c([H])c([H])c(N([H])C([H])([H])C([H])([H])N([H])C(=O)N4C([H])([H])C([H])([H])C([H])([H])C([H])(n5nc(-c6c([H])c([H])c(Oc7c([H])c([H])c(F)c([H])c7F)c([H])c6[H])c(C(=O)N([H])[H])c5N([H])[H])C4([H])[H])c([H])c3[H])C([H])(C([H])([H])[H])C([H])([H])[H])c([H])c([H])c2C1([H])[H]

$$$$
77:0:0
     RDKit          3D

 90 98  0  0  1  0  0  0  0  0999 V2000
  -29.8010  -20.6030   19.9840 C   0  0  0  0  0  3  0  0  0  0  0  0
  -29.4760  -19.0650   19.8980 N   0  0  0  0  0  0  0  0  0  0  0  0
  -28.4850  -18.8580   19.8050 H   0  0  0  0  0  0  0  0  0  0  0  0
  -31.0620  -16.7350   22.5590 C   0  0  0  0  0  3  0  0  0  0  0  0
  -29.9170  -16.2730   21.8740 C   0  0  0  0  0  2  0  0  0  0  0  0
  -31.9870  -17.5590   21.8830 C   0  0  0  0  0  3  0  0  0  0  0  0
  -29.8820  -16.4570   20.4720 C   0  0  0  0  0  3  0  0  0  0  0  0
  -31.6360  -18.1370   20.6470 C   0  0  0  0  0  3  0  0  0  0  0  0
  -30.3370  -17.8560   20.1340 C   0  0  0  0  0  3  0  0  0  0  0  0
  -32.6410  -19.0830   19.9980 C   0  0  0  0  0  1  0  0  0  0  0  0
  -30.4140  -15.0850   19.8170 C   0  0  0  0  0  0  0  0  0  0  0  0
  -30.1620  -12.7420   18.8880 C   0  0  0  0  0  2  0  0  0  0  0  0
  -29.1420  -12.7190   17.7280 C   0  0  0  0  0  2  0  0  0  0  0  0
  -27.7230  -12.4870   18.2760 C   0  0  0  0  0  2  0  0  0  0  0  0
  -27.4040  -13.3950   19.4900 C   0  0  0  0  0  3  0  0  0  0  0  0
  -28.5480  -13.4260   20.5300 C   0  0  0  0  0  2  0  0  0  0  0  0
  -29.7840  -13.8340   19.8410 N   0  0  0  0  0  0  0  0  0  0  0  0
  -31.5100  -15.1260   19.2490 O   0  0  0  0  0  0  0  0  0  0  0  0
  -25.0970  -13.9220   20.4680 C   0  0  0  0  0  0  0  0  0  0  0  0
  -24.0720  -13.1210   20.8880 C   0  0  0  0  0  0  0  0  0  0  0  0
  -24.5300  -11.7770   20.7430 C   0  0  0  0  0  0  0  0  0  0  0  0
  -26.1160  -13.0630   20.0890 N   0  0  0  0  0  0  0  0  0  0  0  0
  -25.7880  -11.7640   20.3180 N   0  0  0  0  0  0  0  0  0  0  0  0
  -23.8160  -10.5050   20.9320 C   0  0  0  0  0  0  0  0  0  0  0  0
  -24.2730   -9.5220   21.8420 C   0  0  0  0  0  3  0  0  0  0  0  0
  -23.5560   -8.3200   22.0180 C   0  0  0  0  0  3  0  0  0  0  0  0
  -22.3660   -8.0890   21.2870 C   0  0  0  0  0  0  0  0  0  0  0  0
  -21.9280   -9.0560   20.3670 C   0  0  0  0  0  3  0  0  0  0  0  0
  -22.6470  -10.2510   20.1880 C   0  0  0  0  0  3  0  0  0  0  0  0
  -21.6190   -6.9400   21.3770 O   0  0  0  0  0  0  0  0  0  0  0  0
  -21.5530   -6.2130   22.5360 C   0  0  0  0  0  0  0  0  0  0  0  0
  -21.0740   -6.7750   23.7410 C   0  0  0  0  0  3  0  0  0  0  0  0
  -20.9540   -5.9710   24.8920 C   0  0  0  0  0  3  0  0  0  0  0  0
  -21.3080   -4.6070   24.8390 C   0  0  0  0  0  0  0  0  0  0  0  0
  -21.7840   -4.0480   23.6410 C   0  0  0  0  0  3  0  0  0  0  0  0
  -21.9000   -4.8490   22.4900 C   0  0  0  0  0  0  0  0  0  0  0  0
  -22.3390   -4.2980   21.3320 F   0  0  0  0  0  0  0  0  0  0  0  0
  -21.1870   -3.8360   25.9420 F   0  0  0  0  0  0  0  0  0  0  0  0
  -22.7040  -13.5790   21.3050 C   0  0  0  0  0  0  0  0  0  0  0  0
  -22.0500  -12.8410   22.1940 N   0  0  0  0  0  0  0  0  0  0  0  0
  -22.2280  -14.6310   20.8760 O   0  0  0  0  0  0  0  0  0  0  0  0
  -22.4430  -11.9880   22.5650 H   0  0  0  0  0  0  0  0  0  0  0  0
  -21.1370  -13.1390   22.5100 H   0  0  0  0  0  0  0  0  0  0  0  0
  -25.2390  -15.3020   20.3560 N   0  0  0  0  0  0  0  0  0  0  0  0
  -24.4830  -15.9360   20.5950 H   0  0  0  0  0  0  0  0  0  0  0  0
  -26.0490  -15.7830   19.9890 H   0  0  0  0  0  0  0  0  0  0  0  0
  -28.6720  -21.8660   19.9560 C   0  0  0  0  0  3  0  0  0  0  0  0
  -29.0160  -23.5320   19.9940 C   0  0  0  0  0  3  0  0  0  0  0  0
  -27.9000  -24.8060   19.9590 C   0  0  0  0  0  3  0  0  0  0  0  0
  -28.1560  -26.3420   20.0890 O   0  0  0  0  0  0  0  0  0  0  0  0
  -24.5720  -32.0180   23.2050 C   0  0  0  0  0  0  0  0  0  0  0  0
  -27.0830  -27.3130   20.0870 C   0  0  0  0  0  0  0  0  0  0  0  0
  -23.3330  -30.6240   21.5930 C   0  0  0  0  0  3  0  0  0  0  0  0
  -24.7460  -29.0480   20.1430 C   0  0  0  0  0  0  0  0  0  0  0  0
  -25.8840  -30.8920   21.3690 C   0  0  0  0  0  2  0  0  0  0  0  0
  -25.9420  -29.4980   20.7150 C   0  0  0  0  0  0  0  0  0  0  0  0
  -27.1100  -28.6440   20.6720 C   0  0  0  0  0  3  0  0  0  0  0  0
  -25.8520  -26.9670   19.4830 C   0  0  0  0  0  3  0  0  0  0  0  0
  -24.7120  -27.7950   19.5140 C   0  0  0  0  0  3  0  0  0  0  0  0
  -23.5260  -29.9490   20.2100 C   0  0  0  0  0  2  0  0  0  0  0  0
  -24.6170  -31.1990   22.1120 N   0  0  0  0  0  0  0  0  0  0  0  0
  -23.4990  -32.3030   23.7600 O   0  0  0  0  0  0  0  0  0  0  0  0
  -22.6740  -29.6180   22.5710 C   0  0  0  0  0  0  0  0  0  0  0  0
  -21.3480  -29.4240   22.4510 N   0  0  0  0  0  0  0  0  0  0  0  0
  -23.3580  -29.0150   23.4020 O   0  0  0  0  0  0  0  0  0  0  0  0
  -20.8530  -29.9630   21.7550 H   0  0  0  0  0  0  0  0  0  0  0  0
  -17.9890  -28.1610   22.9640 C   0  0  0  0  0  0  0  0  0  0  0  0
  -20.5430  -28.4860   23.2390 C   0  0  0  0  0  3  0  0  0  0  0  0
  -20.6790  -27.0450   22.6930 C   0  0  0  0  0  2  0  0  0  0  0  0
  -19.5880  -26.6770   21.6830 C   0  0  0  0  0  2  0  0  0  0  0  0
  -18.2000  -26.8020   22.3160 C   0  0  0  0  0  2  0  0  0  0  0  0
  -19.0900  -28.9570   23.3830 C   0  0  0  0  0  0  0  0  0  0  0  0
  -18.8370  -30.2250   23.9520 C   0  0  0  0  0  3  0  0  0  0  0  0
  -17.5200  -30.6960   24.1080 C   0  0  0  0  0  3  0  0  0  0  0  0
  -16.4360  -29.8970   23.7030 C   0  0  0  0  0  3  0  0  0  0  0  0
  -16.6710  -28.6320   23.1340 C   0  0  0  0  0  3  0  0  0  0  0  0
  -25.8670  -32.6480   23.8020 C   0  0  0  0  0  3  0  0  0  0  0  0
  -25.5650  -34.0420   24.1610 N   0  0  0  0  0  0  0  0  0  0  0  0
  -25.8730  -35.1070   23.4100 C   0  0  0  0  0  0  0  0  0  0  0  0
  -26.5100  -35.0180   22.3570 O   0  0  0  0  0  0  0  0  0  0  0  0
  -24.9980  -34.1860   24.9840 H   0  0  0  0  0  0  0  0  0  0  0  0
  -24.1400  -36.9100   23.1400 C   0  0  0  0  0  1  0  0  0  0  0  0
  -25.4040  -36.4890   23.9050 C   0  0  0  0  0  3  0  0  0  0  0  0
  -27.5590  -37.3630   24.6920 C   0  0  0  0  0  1  0  0  0  0  0  0
  -26.4320  -37.5420   23.7810 N   0  0  0  0  0  0  0  0  0  0  0  0
  -26.0290  -38.4590   23.9540 H   0  0  0  0  0  0  0  0  0  0  0  0
  -26.4170  -31.8630   25.0560 C   0  0  1  0  0  0  0  0  0  0  0  0
  -25.3450  -31.5990   26.1400 C   0  0  0  0  0  1  0  0  0  0  0  0
  -27.0140  -30.4990   24.6380 C   0  0  0  0  0  1  0  0  0  0  0  0
  -27.5690  -32.6610   25.7110 C   0  0  0  0  0  1  0  0  0  0  0  0
  2  1  1  0
  3  2  1  0
  5  4  1  0
  6  4  2  0
  7 11  1  0
  7  5  1  0
  8 10  1  0
  8  6  1  0
  9  2  1  0
  9  7  1  0
  9  8  1  0
 11 17  1  0
 12 17  1  0
 13 14  1  0
 13 12  1  0
 15 14  1  0
 15 22  1  0
 15 16  1  0
 17 16  1  0
 18 11  2  0
 19 20  2  0
 20 39  1  0
 21 20  1  0
 21 24  1  0
 22 23  1  0
 22 19  1  0
 23 21  2  0
 24 25  1  0
 25 26  2  0
 27 30  1  0
 27 26  1  0
 28 27  2  0
 29 28  1  0
 29 24  2  0
 30 31  1  0
 31 32  1  0
 32 33  2  0
 34 33  1  0
 34 38  1  0
 35 34  2  0
 36 31  2  0
 36 35  1  0
 37 36  1  0
 39 40  1  0
 40 43  1  0
 40 42  1  0
 41 39  2  0
 44 19  1  0
 44 45  1  0
 46 44  1  0
 47  1  2  0
 47 48  1  0
 49 48  2  0
 49 50  1  0
 51 62  2  0
 52 50  1  0
 52 57  1  0
 53 61  1  0
 53 63  1  0
 54 60  1  0
 54 56  1  0
 55 61  1  0
 56 55  1  0
 57 56  2  0
 58 59  1  0
 58 52  2  0
 59 54  2  0
 60 53  1  0
 61 51  1  0
 63 65  2  0
 64 63  1  0
 66 64  1  0
 67 76  2  0
 67 72  1  0
 68 64  1  0
 68 72  1  0
 69 68  1  0
 70 71  1  0
 70 69  1  0
 71 67  1  0
 72 73  2  0
 73 74  1  0
 75 74  2  0
 76 75  1  0
 77 51  1  0
 77 78  1  0
 77 87  1  0
 78 81  1  0
 79 83  1  0
 79 78  1  0
 80 79  2  0
 83 82  1  0
 85 83  1  0
 85 86  1  0
 85 84  1  0
 87 90  1  1
 87 88  1  0
 89 87  1  0
M  ISO  4   7 100  11 100  49 101  50 101
M  END
>  <TORSDO>  (78) 
F 21

>  <SCORE>  (78) 
-13.394

>  <name>  (78) 
77

>  <ligand_id>  (78) 
77

>  <original_smiles>  (78) 
[H]c1c([H])c(C(=O)N2C([H])([H])C([H])([H])C([H])([H])C([H])(n3nc(-c4c([H])c([H])c(Oc5c([H])c([H])c(F)c([H])c5F)c([H])c4[H])c(C(=O)N([H])[H])c3N([H])[H])C2([H])[H])c(N([H])C([H])([H])C([H])([H])C([H])([H])C([H])([H])Oc2c([H])c([H])c3c(c2[H])C([H])([H])N(C(=O)C([H])(N([H])C(=O)C([H])(N([H])C([H])([H])[H])C([H])([H])[H])C(C([H])([H])[H])(C([H])([H])[H])C([H])([H])[H])C([H])(C(=O)N([H])C2([H])c4c([H])c([H])c([H])c([H])c4C([H])([H])C([H])([H])C2([H])[H])C3([H])[H])c(C([H])([H])[H])c1[H]

>  <smiles>  (78) 
[H]c1c([H])c(C(=O)N2C([H])([H])C([H])([H])C([H])([H])C([H])(n3nc(-c4c([H])c([H])c(Oc5c([H])c([H])c(F)c([H])c5F)c([H])c4[H])c(C(=O)N([H])[H])c3N([H])[H])C2([H])[H])c(N([H])C([H])([H])C([H])([H])C([H])([H])C([H])([H])Oc2c([H])c([H])c3c(c2[H])C([H])([H])N(C(=O)C([H])(N([H])C(=O)C([H])(N([H])C([H])([H])[H])C([H])([H])[H])C(C([H])([H])[H])(C([H])([H])[H])C([H])([H])[H])C([H])(C(=O)N([H])C2([H])c4c([H])c([H])c([H])c([H])c4C([H])([H])C([H])([H])C2([H])[H])C3([H])[H])c(C([H])([H])[H])c1[H]

$$$$
78:0:0
     RDKit          3D

 98106  0  0  1  0  0  0  0  0999 V2000
  -28.6230  -18.9370   20.6810 C   0  0  0  0  0  2  0  0  0  0  0  0
  -29.5930  -17.8520   21.2100 C   0  0  0  0  0  2  0  0  0  0  0  0
  -30.0950  -16.8710   20.1030 C   0  0  0  0  0  3  0  0  0  0  0  0
  -31.2920  -14.7750   19.6400 C   0  0  0  0  0  0  0  0  0  0  0  0
  -30.7420  -12.6620   18.4880 C   0  0  0  0  0  2  0  0  0  0  0  0
  -29.6860  -12.8820   17.3900 C   0  0  0  0  0  2  0  0  0  0  0  0
  -28.2700  -12.7570   17.9820 C   0  0  0  0  0  2  0  0  0  0  0  0
  -28.0840  -13.6170   19.2590 C   0  0  0  0  0  3  0  0  0  0  0  0
  -29.2480  -13.4100   20.2540 C   0  0  0  0  0  2  0  0  0  0  0  0
  -30.5160  -13.6590   19.5480 N   0  0  0  0  0  0  0  0  0  0  0  0
  -32.3080  -14.9240   18.9530 O   0  0  0  0  0  0  0  0  0  0  0  0
  -30.9360  -15.7190   20.5540 N   0  0  0  0  0  0  0  0  0  0  0  0
  -25.8390  -14.2760   20.3280 C   0  0  0  0  0  0  0  0  0  0  0  0
  -24.7780  -13.5260   20.7660 C   0  0  0  0  0  0  0  0  0  0  0  0
  -25.1450  -12.1630   20.5530 C   0  0  0  0  0  0  0  0  0  0  0  0
  -26.7880  -13.3670   19.8840 N   0  0  0  0  0  0  0  0  0  0  0  0
  -26.3800  -12.0860   20.0760 N   0  0  0  0  0  0  0  0  0  0  0  0
  -24.3690  -10.9280   20.7220 C   0  0  0  0  0  0  0  0  0  0  0  0
  -24.8140   -9.8840   21.5630 C   0  0  0  0  0  3  0  0  0  0  0  0
  -24.0410   -8.7140   21.7250 C   0  0  0  0  0  3  0  0  0  0  0  0
  -22.8070   -8.5800   21.0450 C   0  0  0  0  0  0  0  0  0  0  0  0
  -22.3790   -9.6120   20.1910 C   0  0  0  0  0  3  0  0  0  0  0  0
  -23.1530  -10.7730   20.0270 C   0  0  0  0  0  3  0  0  0  0  0  0
  -22.0010   -7.4690   21.1210 O   0  0  0  0  0  0  0  0  0  0  0  0
  -21.9450   -6.6980   22.2540 C   0  0  0  0  0  0  0  0  0  0  0  0
  -21.6020   -7.2430   23.5100 C   0  0  0  0  0  3  0  0  0  0  0  0
  -21.4880   -6.4030   24.6350 C   0  0  0  0  0  3  0  0  0  0  0  0
  -21.7050   -5.0180   24.5060 C   0  0  0  0  0  0  0  0  0  0  0  0
  -22.0400   -4.4720   23.2530 C   0  0  0  0  0  3  0  0  0  0  0  0
  -22.1570   -5.3100   22.1310 C   0  0  0  0  0  0  0  0  0  0  0  0
  -22.4580   -4.7750   20.9230 F   0  0  0  0  0  0  0  0  0  0  0  0
  -21.5870   -4.2090   25.5840 F   0  0  0  0  0  0  0  0  0  0  0  0
  -23.4610  -14.0490   21.2610 C   0  0  0  0  0  0  0  0  0  0  0  0
  -22.8330  -13.3380   22.1940 N   0  0  0  0  0  0  0  0  0  0  0  0
  -23.0030  -15.1160   20.8580 O   0  0  0  0  0  0  0  0  0  0  0  0
  -23.2190  -12.4720   22.5390 H   0  0  0  0  0  0  0  0  0  0  0  0
  -21.9540  -13.6660   22.5670 H   0  0  0  0  0  0  0  0  0  0  0  0
  -26.0640  -15.6460   20.2500 N   0  0  0  0  0  0  0  0  0  0  0  0
  -25.3520  -16.3220   20.5010 H   0  0  0  0  0  0  0  0  0  0  0  0
  -26.8800  -16.0700   19.8290 H   0  0  0  0  0  0  0  0  0  0  0  0
  -31.3200  -15.2460   22.9730 C   0  0  0  0  0  1  0  0  0  0  0  0
  -31.8560  -15.9090   21.6940 C   0  0  0  0  0  2  0  0  0  0  0  0
  -32.5830  -18.9260   18.0000 C   0  0  0  0  0  3  0  0  0  0  0  0
  -31.9280  -18.9700   16.7550 C   0  0  0  0  0  3  0  0  0  0  0  0
  -31.9820  -18.2660   19.0900 C   0  0  0  0  0  3  0  0  0  0  0  0
  -30.0610  -17.7100   17.6950 C   0  0  0  0  0  3  0  0  0  0  0  0
  -30.6650  -18.3630   16.6000 C   0  0  0  0  0  0  0  0  0  0  0  0
  -30.7200  -17.6490   18.9410 C   0  0  0  0  0  0  0  0  0  0  0  0
  -29.9720  -18.3910   15.2540 C   0  0  0  0  0  1  0  0  0  0  0  0
  -28.5370  -20.1960   21.5710 C   0  0  0  0  0  2  0  0  0  0  0  0
  -27.7250  -21.3490   20.9410 C   0  0  0  0  0  2  0  0  0  0  0  0
  -28.5170  -22.2340   20.0490 N   0  0  0  0  0  4  0  0  0  0  0  0
  -27.9220  -22.4500   19.2640 H   0  0  0  0  0  0  0  0  0  0  0  0
  -29.3110  -21.7330   19.6860 H   0  0  0  0  0  0  0  0  0  0  0  0
  -28.9480  -23.5270   20.6400 C   0  0  0  0  0  2  0  0  0  0  0  0
  -29.1150  -24.6310   19.5690 C   0  0  0  0  0  2  0  0  0  0  0  0
  -29.2760  -26.0450   20.1650 C   0  0  0  0  0  2  0  0  0  0  0  0
  -29.0590  -27.0720   19.1910 O   0  0  0  0  0  0  0  0  0  0  0  0
  -24.7000  -31.3880   22.7810 C   0  0  0  0  0  0  0  0  0  0  0  0
  -27.8170  -27.6530   19.2660 C   0  0  0  0  0  0  0  0  0  0  0  0
  -23.6430  -30.0100   21.0190 C   0  0  0  0  0  3  0  0  0  0  0  0
  -25.2510  -28.8150   19.4390 C   0  0  0  0  0  0  0  0  0  0  0  0
  -26.0960  -30.7100   20.8330 C   0  0  0  0  0  2  0  0  0  0  0  0
  -26.3430  -29.4290   20.0660 C   0  0  0  0  0  0  0  0  0  0  0  0
  -27.6300  -28.8540   19.9820 C   0  0  0  0  0  3  0  0  0  0  0  0
  -26.7140  -27.0470   18.6280 C   0  0  0  0  0  3  0  0  0  0  0  0
  -25.4300  -27.6210   18.7180 C   0  0  0  0  0  3  0  0  0  0  0  0
  -23.9080  -29.4950   19.5800 C   0  0  0  0  0  2  0  0  0  0  0  0
  -24.8300  -30.7140   21.6040 N   0  0  0  0  0  0  0  0  0  0  0  0
  -23.6050  -31.4690   23.3540 O   0  0  0  0  0  0  0  0  0  0  0  0
  -23.1450  -28.8280   21.8790 C   0  0  0  0  0  0  0  0  0  0  0  0
  -21.8490  -28.4990   21.7490 N   0  0  0  0  0  0  0  0  0  0  0  0
  -23.9190  -28.2140   22.6190 O   0  0  0  0  0  0  0  0  0  0  0  0
  -21.2810  -29.0540   21.1250 H   0  0  0  0  0  0  0  0  0  0  0  0
  -18.6510  -26.8700   22.1700 C   0  0  0  0  0  0  0  0  0  0  0  0
  -21.1680  -27.3970   22.4280 C   0  0  0  0  0  3  0  0  0  0  0  0
  -21.4210  -26.0560   21.7020 C   0  0  0  0  0  2  0  0  0  0  0  0
  -20.3380  -25.7120   20.6760 C   0  0  0  0  0  2  0  0  0  0  0  0
  -18.9650  -25.6280   21.3510 C   0  0  0  0  0  2  0  0  0  0  0  0
  -19.6860  -27.7080   22.6610 C   0  0  0  0  0  0  0  0  0  0  0  0
  -19.3400  -28.8720   23.3840 C   0  0  0  0  0  3  0  0  0  0  0  0
  -17.9920  -29.2020   23.6150 C   0  0  0  0  0  3  0  0  0  0  0  0
  -16.9720  -28.3580   23.1410 C   0  0  0  0  0  3  0  0  0  0  0  0
  -17.3020  -27.1930   22.4260 C   0  0  0  0  0  3  0  0  0  0  0  0
  -25.9120  -32.1090   23.4510 C   0  0  0  0  0  3  0  0  0  0  0  0
  -26.5700  -31.2710   24.6140 C   0  0  1  0  0  0  0  0  0  0  0  0
  -25.5520  -30.7480   25.6560 C   0  0  0  0  0  1  0  0  0  0  0  0
  -27.3300  -30.0510   24.0430 C   0  0  0  0  0  1  0  0  0  0  0  0
  -27.6190  -32.1360   25.3530 C   0  0  0  0  0  1  0  0  0  0  0  0
  -25.4360  -33.4060   23.9480 N   0  0  0  0  0  0  0  0  0  0  0  0
  -25.6210  -34.5740   23.3180 C   0  0  0  0  0  0  0  0  0  0  0  0
  -26.2840  -34.6810   22.2830 O   0  0  0  0  0  0  0  0  0  0  0  0
  -24.8350  -33.3880   24.7590 H   0  0  0  0  0  0  0  0  0  0  0  0
  -23.6750  -36.1610   23.1740 C   0  0  0  0  0  1  0  0  0  0  0  0
  -24.9640  -35.8210   23.9370 C   0  0  0  0  0  3  0  0  0  0  0  0
  -26.9800  -36.8610   24.8780 C   0  0  0  0  0  1  0  0  0  0  0  0
  -25.8540  -37.0020   23.9580 N   0  0  0  0  0  0  0  0  0  0  0  0
  -25.3360  -37.8380   24.2170 H   0  0  0  0  0  0  0  0  0  0  0  0
  1  2  1  0
  1 50  1  0
  3 12  1  0
  3  2  1  0
  4 12  1  0
  5 10  1  0
  6  7  1  0
  6  5  1  0
  8  7  1  0
  8 16  1  0
  8  9  1  0
 10  4  1  0
 10  9  1  0
 11  4  2  0
 12 42  1  0
 13 14  2  0
 14 33  1  0
 15 18  1  0
 15 14  1  0
 16 17  1  0
 16 13  1  0
 17 15  2  0
 18 19  1  0
 19 20  2  0
 21 24  1  0
 21 20  1  0
 22 21  2  0
 23 22  1  0
 23 18  2  0
 24 25  1  0
 25 26  1  0
 26 27  2  0
 28 27  1  0
 28 32  1  0
 29 28  2  0
 30 25  2  0
 30 29  1  0
 31 30  1  0
 33 34  1  0
 34 36  1  0
 34 37  1  0
 35 33  2  0
 38 13  1  0
 38 39  1  0
 40 38  1  0
 42 41  1  0
 43 45  1  0
 44 43  2  0
 46 48  1  0
 47 44  1  0
 47 46  2  0
 48 45  2  0
 48  3  1  0
 49 47  1  0
 51 50  1  0
 52 55  1  0
 52 51  1  0
 53 52  1  0
 54 52  1  0
 56 57  1  0
 56 55  1  0
 58 60  1  0
 58 57  1  0
 59 70  2  0
 60 65  1  0
 61 69  1  0
 61 71  1  0
 62 68  1  0
 62 64  1  0
 63 69  1  0
 64 63  1  0
 65 64  2  0
 66 67  1  0
 66 60  2  0
 67 62  2  0
 68 61  1  0
 69 59  1  0
 71 73  2  0
 72 71  1  0
 74 72  1  0
 75 84  2  0
 75 80  1  0
 76 72  1  0
 76 80  1  0
 77 76  1  0
 78 79  1  0
 78 77  1  0
 79 75  1  0
 80 81  2  0
 81 82  1  0
 83 82  2  0
 84 83  1  0
 85 59  1  0
 85 90  1  0
 85 86  1  0
 86 89  1  1
 86 87  1  0
 88 86  1  0
 90 93  1  0
 91 95  1  0
 91 90  1  0
 92 91  2  0
 95 94  1  0
 95 97  1  0
 97 98  1  0
 97 96  1  0
M  ISO  4   4 100  12 100  57 101  58 101
M  END
>  <TORSDO>  (79) 
F 26

>  <SCORE>  (79) 
-5.531

>  <name>  (79) 
78

>  <ligand_id>  (79) 
78

>  <original_smiles>  (79) 
[H]c1c([H])c([H])c2c(c1[H])C([H])([H])C([H])([H])C([H])([H])C2([H])N([H])C(=O)C1([H])N(C(=O)C([H])(N([H])C(=O)C([H])(N([H])C([H])([H])[H])C([H])([H])[H])C(C([H])([H])[H])(C([H])([H])[H])C([H])([H])[H])C([H])([H])c2c([H])c(OC([H])([H])C([H])([H])C([H])([H])[N+]([H])([H])C([H])([H])C([H])([H])C([H])([H])C([H])([H])C([H])(c3c([H])c([H])c([H])c(C([H])([H])[H])c3[H])N(C(=O)N3C([H])([H])C([H])([H])C([H])([H])C([H])(n4nc(-c5c([H])c([H])c(Oc6c([H])c([H])c(F)c([H])c6F)c([H])c5[H])c(C(=O)N([H])[H])c4N([H])[H])C3([H])[H])C([H])([H])C([H])([H])[H])c([H])c([H])c2C1([H])[H]

>  <smiles>  (79) 
[H]c1c([H])c([H])c2c(c1[H])C([H])([H])C([H])([H])C([H])([H])C2([H])N([H])C(=O)C1([H])N(C(=O)C([H])(N([H])C(=O)C([H])(N([H])C([H])([H])[H])C([H])([H])[H])C(C([H])([H])[H])(C([H])([H])[H])C([H])([H])[H])C([H])([H])c2c([H])c(OC([H])([H])C([H])([H])C([H])([H])[N+]([H])([H])C([H])([H])C([H])([H])C([H])([H])C([H])([H])C([H])(c3c([H])c([H])c([H])c(C([H])([H])[H])c3[H])N(C(=O)N3C([H])([H])C([H])([H])C([H])([H])C([H])(n4nc(-c5c([H])c([H])c(Oc6c([H])c([H])c(F)c([H])c6F)c([H])c5[H])c(C(=O)N([H])[H])c4N([H])[H])C3([H])[H])C([H])([H])C([H])([H])[H])c([H])c([H])c2C1([H])[H]

$$$$
79:0:0
     RDKit          3D

 92100  0  0  1  0  0  0  0  0999 V2000
  -29.4840  -21.6880   19.8190 N   0  0  0  0  0  4  0  0  0  0  0  0
  -28.8260  -21.5150   19.0760 H   0  0  0  0  0  0  0  0  0  0  0  0
  -30.3420  -21.9960   19.3880 H   0  0  0  0  0  0  0  0  0  0  0  0
  -32.0380  -19.0170   20.2590 C   0  0  0  0  0  2  0  0  0  0  0  0
  -31.7010  -17.6750   20.9470 C   0  0  0  0  0  2  0  0  0  0  0  0
  -29.1700  -17.8170   20.5830 C   0  0  0  0  0  2  0  0  0  0  0  0
  -31.2950  -20.2620   20.8080 C   0  0  0  0  0  2  0  0  0  0  0  0
  -29.1340  -19.1680   19.8060 C   0  0  0  0  0  2  0  0  0  0  0  0
  -30.4520  -16.9670   20.3670 C   0  0  0  0  0  3  0  0  0  0  0  0
  -29.7690  -20.3960   20.5280 C   0  0  0  0  0  3  0  0  0  0  0  0
  -30.8170  -14.5150   20.0640 C   0  0  0  0  0  0  0  0  0  0  0  0
  -30.3460  -12.4370   18.7980 C   0  0  0  0  0  2  0  0  0  0  0  0
  -29.3250  -12.7110   17.6750 C   0  0  0  0  0  2  0  0  0  0  0  0
  -27.8830  -12.5600   18.1910 C   0  0  0  0  0  2  0  0  0  0  0  0
  -27.6490  -13.3220   19.5220 C   0  0  0  0  0  3  0  0  0  0  0  0
  -28.7790  -13.0350   20.5310 C   0  0  0  0  0  2  0  0  0  0  0  0
  -30.0700  -13.3750   19.9040 N   0  0  0  0  0  0  0  0  0  0  0  0
  -31.8340  -14.7040   19.3890 O   0  0  0  0  0  0  0  0  0  0  0  0
  -30.1150  -15.3650   22.2600 C   0  0  0  0  0  1  0  0  0  0  0  0
  -30.3060  -15.5410   20.8130 N   0  0  0  0  0  0  0  0  0  0  0  0
  -25.3080  -13.9000   20.4230 C   0  0  0  0  0  0  0  0  0  0  0  0
  -24.2690  -13.1160   20.8480 C   0  0  0  0  0  0  0  0  0  0  0  0
  -24.7250  -11.7650   20.7410 C   0  0  0  0  0  0  0  0  0  0  0  0
  -26.3330  -13.0270   20.0890 N   0  0  0  0  0  0  0  0  0  0  0  0
  -25.9890  -11.7370   20.3370 N   0  0  0  0  0  0  0  0  0  0  0  0
  -24.0110  -10.4980   20.9460 C   0  0  0  0  0  0  0  0  0  0  0  0
  -24.4740   -9.5300   21.8620 C   0  0  0  0  0  3  0  0  0  0  0  0
  -23.7610   -8.3280   22.0580 C   0  0  0  0  0  3  0  0  0  0  0  0
  -22.5690   -8.0860   21.3350 C   0  0  0  0  0  0  0  0  0  0  0  0
  -22.1230   -9.0420   20.4040 C   0  0  0  0  0  3  0  0  0  0  0  0
  -22.8390  -10.2350   20.2090 C   0  0  0  0  0  3  0  0  0  0  0  0
  -21.8230   -6.9380   21.4410 O   0  0  0  0  0  0  0  0  0  0  0  0
  -21.7640   -6.2210   22.6090 C   0  0  0  0  0  0  0  0  0  0  0  0
  -21.3190   -6.8000   23.8170 C   0  0  0  0  0  3  0  0  0  0  0  0
  -21.2060   -6.0090   24.9770 C   0  0  0  0  0  3  0  0  0  0  0  0
  -21.5280   -4.6390   24.9310 C   0  0  0  0  0  0  0  0  0  0  0  0
  -21.9620   -4.0600   23.7270 C   0  0  0  0  0  3  0  0  0  0  0  0
  -22.0770   -4.8460   22.5680 C   0  0  0  0  0  0  0  0  0  0  0  0
  -22.4760   -4.2770   21.4050 F   0  0  0  0  0  0  0  0  0  0  0  0
  -21.4110   -3.8780   26.0430 F   0  0  0  0  0  0  0  0  0  0  0  0
  -22.8940  -13.5820   21.2350 C   0  0  0  0  0  0  0  0  0  0  0  0
  -22.2310  -12.8640   22.1340 N   0  0  0  0  0  0  0  0  0  0  0  0
  -22.4190  -14.6180   20.7720 O   0  0  0  0  0  0  0  0  0  0  0  0
  -22.6310  -12.0290   22.5360 H   0  0  0  0  0  0  0  0  0  0  0  0
  -21.3090  -13.1570   22.4280 H   0  0  0  0  0  0  0  0  0  0  0  0
  -25.4620  -15.2740   20.2790 N   0  0  0  0  0  0  0  0  0  0  0  0
  -24.7150  -15.9280   20.4910 H   0  0  0  0  0  0  0  0  0  0  0  0
  -26.3020  -15.7270   19.9430 H   0  0  0  0  0  0  0  0  0  0  0  0
  -28.9440  -22.8000   20.6600 C   0  0  0  0  0  2  0  0  0  0  0  0
  -29.0390  -24.2220   20.0130 C   0  0  0  0  0  2  0  0  0  0  0  0
  -28.3570  -25.3450   20.8500 C   0  0  0  0  0  2  0  0  0  0  0  0
  -28.4800  -26.6730   20.2870 O   0  0  0  0  0  0  0  0  0  0  0  0
  -24.6170  -31.9150   23.2330 C   0  0  0  0  0  0  0  0  0  0  0  0
  -27.3190  -27.4240   20.2670 C   0  0  0  0  0  0  0  0  0  0  0  0
  -23.4340  -30.4690   21.6120 C   0  0  0  0  0  3  0  0  0  0  0  0
  -24.9110  -28.9190   20.2240 C   0  0  0  0  0  0  0  0  0  0  0  0
  -25.9560  -30.8480   21.4190 C   0  0  0  0  0  2  0  0  0  0  0  0
  -26.0610  -29.4640   20.8080 C   0  0  0  0  0  0  0  0  0  0  0  0
  -27.2710  -28.7260   20.8210 C   0  0  0  0  0  3  0  0  0  0  0  0
  -26.1530  -26.9000   19.6680 C   0  0  0  0  0  3  0  0  0  0  0  0
  -24.9530  -27.6360   19.6490 C   0  0  0  0  0  3  0  0  0  0  0  0
  -23.6570  -29.7640   20.2470 C   0  0  0  0  0  2  0  0  0  0  0  0
  -24.6870  -31.0950   22.1460 N   0  0  0  0  0  0  0  0  0  0  0  0
  -23.5310  -32.1850   23.7640 O   0  0  0  0  0  0  0  0  0  0  0  0
  -22.7850  -29.4620   22.5900 C   0  0  0  0  0  0  0  0  0  0  0  0
  -21.4620  -29.2680   22.4610 N   0  0  0  0  0  0  0  0  0  0  0  0
  -23.4690  -28.8580   23.4200 O   0  0  0  0  0  0  0  0  0  0  0  0
  -20.9710  -29.8120   21.7660 H   0  0  0  0  0  0  0  0  0  0  0  0
  -18.0990  -28.0400   22.9520 C   0  0  0  0  0  0  0  0  0  0  0  0
  -20.6500  -28.3360   23.2420 C   0  0  0  0  0  3  0  0  0  0  0  0
  -20.7750  -26.8930   22.6980 C   0  0  0  0  0  2  0  0  0  0  0  0
  -19.6870  -26.5350   21.6810 C   0  0  0  0  0  2  0  0  0  0  0  0
  -18.2970  -26.6770   22.3090 C   0  0  0  0  0  2  0  0  0  0  0  0
  -19.2030  -28.8250   23.3760 C   0  0  0  0  0  0  0  0  0  0  0  0
  -18.9630  -30.0990   23.9350 C   0  0  0  0  0  3  0  0  0  0  0  0
  -17.6500  -30.5870   24.0760 C   0  0  0  0  0  3  0  0  0  0  0  0
  -16.5610  -29.7980   23.6680 C   0  0  0  0  0  3  0  0  0  0  0  0
  -16.7850  -28.5260   23.1110 C   0  0  0  0  0  3  0  0  0  0  0  0
  -25.8920  -32.5680   23.8510 C   0  0  0  0  0  3  0  0  0  0  0  0
  -26.4170  -31.8190   25.1360 C   0  0  1  0  0  0  0  0  0  0  0  0
  -25.3270  -31.5760   26.2070 C   0  0  0  0  0  1  0  0  0  0  0  0
  -27.0190  -30.4450   24.7570 C   0  0  0  0  0  1  0  0  0  0  0  0
  -27.5540  -32.6350   25.7920 C   0  0  0  0  0  1  0  0  0  0  0  0
  -25.5670  -33.9680   24.1620 N   0  0  0  0  0  0  0  0  0  0  0  0
  -25.8940  -35.0130   23.3900 C   0  0  0  0  0  0  0  0  0  0  0  0
  -26.5700  -34.9030   22.3630 O   0  0  0  0  0  0  0  0  0  0  0  0
  -24.9680  -34.1280   24.9580 H   0  0  0  0  0  0  0  0  0  0  0  0
  -24.1480  -36.7810   22.9960 C   0  0  0  0  0  1  0  0  0  0  0  0
  -25.3870  -36.4020   23.8220 C   0  0  0  0  0  3  0  0  0  0  0  0
  -27.5080  -37.3190   24.6550 C   0  0  0  0  0  1  0  0  0  0  0  0
  -26.4100  -37.4660   23.7040 N   0  0  0  0  0  0  0  0  0  0  0  0
  -25.9930  -38.3830   23.8380 H   0  0  0  0  0  0  0  0  0  0  0  0
  1 49  1  0
  2  1  1  0
  3  1  1  0
  4  7  1  0
  4  5  1  0
  8 10  1  0
  8  6  1  0
  9  6  1  0
  9 20  1  0
  9  5  1  0
 10  1  1  0
 10  7  1  0
 11 20  1  0
 12 17  1  0
 13 14  1  0
 13 12  1  0
 15 14  1  0
 15 24  1  0
 15 16  1  0
 17 11  1  0
 17 16  1  0
 18 11  2  0
 20 19  1  0
 21 22  2  0
 22 41  1  0
 23 22  1  0
 23 26  1  0
 24 25  1  0
 24 21  1  0
 25 23  2  0
 26 27  1  0
 27 28  2  0
 29 32  1  0
 29 28  1  0
 30 29  2  0
 31 30  1  0
 31 26  2  0
 32 33  1  0
 33 34  1  0
 34 35  2  0
 36 35  1  0
 36 40  1  0
 37 36  2  0
 38 33  2  0
 38 37  1  0
 39 38  1  0
 41 42  1  0
 42 45  1  0
 42 44  1  0
 43 41  2  0
 46 21  1  0
 46 47  1  0
 48 46  1  0
 50 49  1  0
 50 51  1  0
 52 51  1  0
 53 64  2  0
 54 52  1  0
 54 59  1  0
 55 63  1  0
 55 65  1  0
 56 62  1  0
 56 58  1  0
 57 63  1  0
 58 59  2  0
 58 57  1  0
 60 54  2  0
 61 60  1  0
 61 56  2  0
 62 55  1  0
 63 53  1  0
 65 67  2  0
 66 65  1  0
 68 66  1  0
 69 78  2  0
 69 74  1  0
 70 66  1  0
 70 74  1  0
 71 70  1  0
 72 73  1  0
 72 71  1  0
 73 69  1  0
 74 75  2  0
 75 76  1  0
 77 76  2  0
 78 77  1  0
 79 53  1  0
 79 84  1  0
 79 80  1  0
 80 83  1  1
 80 81  1  0
 82 80  1  0
 84 87  1  0
 85 89  1  0
 85 84  1  0
 86 85  2  0
 89 88  1  0
 91 89  1  0
 91 92  1  0
 91 90  1  0
M  ISO  4  11 100  20 100  51 101  52 101
M  END
>  <TORSDO>  (80) 
F 20

>  <SCORE>  (80) 
-12.914

>  <name>  (80) 
79

>  <ligand_id>  (80) 
79

>  <original_smiles>  (80) 
[H]c1c([H])c([H])c2c(c1[H])C([H])([H])C([H])([H])C([H])([H])C2([H])N([H])C(=O)C1([H])N(C(=O)C([H])(N([H])C(=O)C([H])(N([H])C([H])([H])[H])C([H])([H])[H])C(C([H])([H])[H])(C([H])([H])[H])C([H])([H])[H])C([H])([H])c2c([H])c(OC([H])([H])C([H])([H])C([H])([H])[N+]([H])([H])C3([H])C([H])([H])C([H])([H])C([H])([H])C([H])(N(C(=O)N4C([H])([H])C([H])([H])C([H])([H])C([H])(n5nc(-c6c([H])c([H])c(Oc7c([H])c([H])c(F)c([H])c7F)c([H])c6[H])c(C(=O)N([H])[H])c5N([H])[H])C4([H])[H])C([H])([H])[H])C([H])([H])C3([H])[H])c([H])c([H])c2C1([H])[H]

>  <smiles>  (80) 
[H]c1c([H])c([H])c2c(c1[H])C([H])([H])C([H])([H])C([H])([H])C2([H])N([H])C(=O)C1([H])N(C(=O)C([H])(N([H])C(=O)C([H])(N([H])C([H])([H])[H])C([H])([H])[H])C(C([H])([H])[H])(C([H])([H])[H])C([H])([H])[H])C([H])([H])c2c([H])c(OC([H])([H])C([H])([H])C([H])([H])[N+]([H])([H])C3([H])C([H])([H])C([H])([H])C([H])([H])C([H])(N(C(=O)N4C([H])([H])C([H])([H])C([H])([H])C([H])(n5nc(-c6c([H])c([H])c(Oc7c([H])c([H])c(F)c([H])c7F)c([H])c6[H])c(C(=O)N([H])[H])c5N([H])[H])C4([H])[H])C([H])([H])[H])C([H])([H])C3([H])[H])c([H])c([H])c2C1([H])[H]

$$$$
80:0:0
     RDKit          3D

 86 94  0  0  1  0  0  0  0  0999 V2000
  -28.9280  -22.4220   20.4370 C   0  0  0  0  0  3  0  0  0  0  0  0
  -30.3970  -15.6130   20.0550 C   0  0  0  0  0  0  0  0  0  0  0  0
  -30.3460  -13.1130   19.2130 C   0  0  0  0  0  2  0  0  0  0  0  0
  -29.4130  -12.7660   18.0250 C   0  0  0  0  0  2  0  0  0  0  0  0
  -28.0010  -12.4430   18.5290 C   0  0  0  0  0  2  0  0  0  0  0  0
  -27.5450  -13.4400   19.6210 C   0  0  0  0  0  3  0  0  0  0  0  0
  -28.6170  -13.7290   20.6970 C   0  0  0  0  0  2  0  0  0  0  0  0
  -29.7790  -14.3040   19.9890 N   0  0  0  0  0  0  0  0  0  0  0  0
  -31.6150  -15.4720   19.8380 O   0  0  0  0  0  0  0  0  0  0  0  0
  -28.5110  -17.8360   20.4010 C   0  0  0  0  0  2  0  0  0  0  0  0
  -30.5540  -18.3250   19.5020 C   0  0  0  0  0  2  0  0  0  0  0  0
  -28.2930  -19.5360   20.7270 C   0  0  0  0  0  2  0  0  0  0  0  0
  -30.3320  -19.9820   19.8790 C   0  0  0  0  0  2  0  0  0  0  0  0
  -29.8290  -17.0540   20.0570 N   0  0  0  0  0  0  0  0  0  0  0  0
  -28.9680  -20.7400   19.9630 N   0  0  2  0  0  4  0  0  0  0  0  0
  -28.5950  -20.7230   19.0250 H   0  0  0  0  0  0  0  0  0  0  0  0
  -25.2180  -13.9680   20.4890 C   0  0  0  0  0  0  0  0  0  0  0  0
  -24.1710  -13.1820   20.8780 C   0  0  0  0  0  0  0  0  0  0  0  0
  -24.6360  -11.8320   20.8020 C   0  0  0  0  0  0  0  0  0  0  0  0
  -26.2490  -13.0990   20.1870 N   0  0  0  0  0  0  0  0  0  0  0  0
  -25.9160  -11.8060   20.4430 N   0  0  0  0  0  0  0  0  0  0  0  0
  -23.9130  -10.5670   20.9900 C   0  0  0  0  0  0  0  0  0  0  0  0
  -24.3460   -9.5980   21.9220 C   0  0  0  0  0  3  0  0  0  0  0  0
  -23.6190   -8.4010   22.1010 C   0  0  0  0  0  3  0  0  0  0  0  0
  -22.4440   -8.1650   21.3490 C   0  0  0  0  0  0  0  0  0  0  0  0
  -22.0300   -9.1220   20.4060 C   0  0  0  0  0  3  0  0  0  0  0  0
  -22.7580  -10.3100   20.2250 C   0  0  0  0  0  3  0  0  0  0  0  0
  -21.6880   -7.0210   21.4370 O   0  0  0  0  0  0  0  0  0  0  0  0
  -21.6050   -6.3010   22.6030 C   0  0  0  0  0  0  0  0  0  0  0  0
  -21.1020   -6.8690   23.7940 C   0  0  0  0  0  3  0  0  0  0  0  0
  -20.9680   -6.0750   24.9510 C   0  0  0  0  0  3  0  0  0  0  0  0
  -21.3280   -4.7150   24.9160 C   0  0  0  0  0  0  0  0  0  0  0  0
  -21.8230   -4.1460   23.7300 C   0  0  0  0  0  3  0  0  0  0  0  0
  -21.9580   -4.9380   22.5760 C   0  0  0  0  0  0  0  0  0  0  0  0
  -22.4170   -4.3790   21.4300 F   0  0  0  0  0  0  0  0  0  0  0  0
  -21.1910   -3.9490   26.0250 F   0  0  0  0  0  0  0  0  0  0  0  0
  -22.7840  -13.6550   21.2010 C   0  0  0  0  0  0  0  0  0  0  0  0
  -22.0860  -12.9480   22.0810 N   0  0  0  0  0  0  0  0  0  0  0  0
  -22.3330  -14.6880   20.7090 O   0  0  0  0  0  0  0  0  0  0  0  0
  -22.4670  -12.1120   22.4990 H   0  0  0  0  0  0  0  0  0  0  0  0
  -21.1570  -13.2480   22.3420 H   0  0  0  0  0  0  0  0  0  0  0  0
  -25.3760  -15.3420   20.3330 N   0  0  0  0  0  0  0  0  0  0  0  0
  -24.6110  -15.9920   20.4820 H   0  0  0  0  0  0  0  0  0  0  0  0
  -26.2090  -15.7840   19.9680 H   0  0  0  0  0  0  0  0  0  0  0  0
  -28.0550  -24.0330   19.9590 C   0  0  0  0  0  3  0  0  0  0  0  0
  -28.1800  -25.7260   20.2860 O   0  0  0  0  0  0  0  0  0  0  0  0
  -24.6740  -31.8880   23.2420 C   0  0  0  0  0  0  0  0  0  0  0  0
  -27.1960  -26.8980   20.2060 C   0  0  0  0  0  0  0  0  0  0  0  0
  -23.4770  -30.4990   21.6020 C   0  0  0  0  0  3  0  0  0  0  0  0
  -24.9190  -28.8760   20.1690 C   0  0  0  0  0  0  0  0  0  0  0  0
  -26.0500  -30.6680   21.4620 C   0  0  0  0  0  2  0  0  0  0  0  0
  -26.1130  -29.2480   20.7980 C   0  0  0  0  0  0  0  0  0  0  0  0
  -27.2390  -28.2830   20.7890 C   0  0  0  0  0  3  0  0  0  0  0  0
  -25.9730  -26.7190   19.5190 C   0  0  0  0  0  3  0  0  0  0  0  0
  -24.8830  -27.6370   19.5060 C   0  0  0  0  0  3  0  0  0  0  0  0
  -23.7080  -29.8150   20.2250 C   0  0  0  0  0  2  0  0  0  0  0  0
  -24.7570  -31.0490   22.1550 N   0  0  0  0  0  0  0  0  0  0  0  0
  -23.5840  -32.1810   23.7630 O   0  0  0  0  0  0  0  0  0  0  0  0
  -22.7740  -29.5100   22.5700 C   0  0  0  0  0  0  0  0  0  0  0  0
  -21.4440  -29.3430   22.4430 N   0  0  0  0  0  0  0  0  0  0  0  0
  -23.4360  -28.8900   23.4060 O   0  0  0  0  0  0  0  0  0  0  0  0
  -20.9600  -29.8950   21.7470 H   0  0  0  0  0  0  0  0  0  0  0  0
  -18.0650  -28.1090   22.9460 C   0  0  0  0  0  0  0  0  0  0  0  0
  -20.6230  -28.4010   23.2130 C   0  0  0  0  0  3  0  0  0  0  0  0
  -20.7360  -26.9690   22.6400 C   0  0  0  0  0  2  0  0  0  0  0  0
  -19.6390  -26.6360   21.6240 C   0  0  0  0  0  2  0  0  0  0  0  0
  -18.2550  -26.7640   22.2660 C   0  0  0  0  0  2  0  0  0  0  0  0
  -19.1750  -28.8860   23.3760 C   0  0  0  0  0  0  0  0  0  0  0  0
  -18.9390  -30.1400   23.9780 C   0  0  0  0  0  3  0  0  0  0  0  0
  -17.6280  -30.6220   24.1490 C   0  0  0  0  0  3  0  0  0  0  0  0
  -16.5330  -29.8460   23.7320 C   0  0  0  0  0  3  0  0  0  0  0  0
  -16.7530  -28.5910   23.1370 C   0  0  0  0  0  3  0  0  0  0  0  0
  -25.9430  -32.5330   23.8780 C   0  0  0  0  0  3  0  0  0  0  0  0
  -25.6300  -33.9390   24.1990 N   0  0  0  0  0  0  0  0  0  0  0  0
  -25.9440  -34.9920   23.4330 C   0  0  0  0  0  0  0  0  0  0  0  0
  -26.5850  -34.8830   22.3850 O   0  0  0  0  0  0  0  0  0  0  0  0
  -25.0550  -34.0960   25.0140 H   0  0  0  0  0  0  0  0  0  0  0  0
  -24.1960  -36.7850   23.1450 C   0  0  0  0  0  1  0  0  0  0  0  0
  -25.4750  -36.3870   23.9000 C   0  0  0  0  0  3  0  0  0  0  0  0
  -27.6370  -37.3000   24.6290 C   0  0  0  0  0  1  0  0  0  0  0  0
  -26.4980  -37.4430   23.7260 N   0  0  0  0  0  0  0  0  0  0  0  0
  -26.0940  -38.3640   23.8700 H   0  0  0  0  0  0  0  0  0  0  0  0
  -26.4300  -31.7820   25.1810 C   0  0  1  0  0  0  0  0  0  0  0  0
  -25.3170  -31.5720   26.2340 C   0  0  0  0  0  1  0  0  0  0  0  0
  -27.0110  -30.3920   24.8340 C   0  0  0  0  0  1  0  0  0  0  0  0
  -27.5750  -32.5810   25.8470 C   0  0  0  0  0  1  0  0  0  0  0  0
  2 14  1  0
  3  8  1  0
  4  5  1  0
  4  3  1  0
  6  5  1  0
  6 20  1  0
  6  7  1  0
  8  2  1  0
  8  7  1  0
  9  2  2  0
 10 12  1  0
 11 13  1  0
 11 14  1  0
 13 15  1  0
 14 10  1  0
 15  1  1  0
 15 12  1  0
 15 16  1  6
 17 18  2  0
 18 37  1  0
 19 18  1  0
 19 22  1  0
 20 21  1  0
 20 17  1  0
 21 19  2  0
 22 23  1  0
 23 24  2  0
 25 28  1  0
 25 24  1  0
 26 25  2  0
 27 26  1  0
 27 22  2  0
 28 29  1  0
 29 30  1  0
 30 31  2  0
 32 31  1  0
 32 36  1  0
 33 32  2  0
 34 29  2  0
 34 33  1  0
 35 34  1  0
 37 38  1  0
 38 41  1  0
 38 40  1  0
 39 37  2  0
 42 43  1  0
 42 17  1  0
 44 42  1  0
 45 46  1  0
 45  1  2  0
 47 58  2  0
 48 46  1  0
 48 53  1  0
 49 57  1  0
 49 59  1  0
 50 56  1  0
 50 52  1  0
 51 57  1  0
 52 51  1  0
 53 52  2  0
 54 48  2  0
 55 54  1  0
 55 50  2  0
 56 49  1  0
 57 47  1  0
 59 61  2  0
 60 59  1  0
 62 60  1  0
 63 72  2  0
 63 68  1  0
 64 60  1  0
 64 68  1  0
 65 64  1  0
 66 67  1  0
 66 65  1  0
 67 63  1  0
 68 69  2  0
 69 70  1  0
 71 70  2  0
 72 71  1  0
 73 47  1  0
 73 74  1  0
 73 83  1  0
 74 77  1  0
 75 79  1  0
 75 74  1  0
 76 75  2  0
 79 78  1  0
 81 82  1  0
 81 79  1  0
 81 80  1  0
 83 86  1  1
 83 84  1  0
 85 83  1  0
M  ISO  4   2 100  14 100  45 101  46 101
M  END
>  <TORSDO>  (81) 
F 17

>  <SCORE>  (81) 
-16.400

>  <name>  (81) 
80

>  <ligand_id>  (81) 
80

>  <original_smiles>  (81) 
[H]c1c([H])c([H])c2c(c1[H])C([H])([H])C([H])([H])C([H])([H])C2([H])N([H])C(=O)C1([H])N(C(=O)C([H])(N([H])C(=O)C([H])(N([H])C([H])([H])[H])C([H])([H])[H])C(C([H])([H])[H])(C([H])([H])[H])C([H])([H])[H])C([H])([H])c2c([H])c(OC([H])([H])C([H])([H])[N+]3([H])C([H])([H])C([H])([H])N(C(=O)N4C([H])([H])C([H])([H])C([H])([H])C([H])(n5nc(-c6c([H])c([H])c(Oc7c([H])c([H])c(F)c([H])c7F)c([H])c6[H])c(C(=O)N([H])[H])c5N([H])[H])C4([H])[H])C([H])([H])C3([H])[H])c([H])c([H])c2C1([H])[H]

>  <smiles>  (81) 
[H]c1c([H])c([H])c2c(c1[H])C([H])([H])C([H])([H])C([H])([H])C2([H])N([H])C(=O)C1([H])N(C(=O)C([H])(N([H])C(=O)C([H])(N([H])C([H])([H])[H])C([H])([H])[H])C(C([H])([H])[H])(C([H])([H])[H])C([H])([H])[H])C([H])([H])c2c([H])c(OC([H])([H])C([H])([H])[N+]3([H])C([H])([H])C([H])([H])N(C(=O)N4C([H])([H])C([H])([H])C([H])([H])C([H])(n5nc(-c6c([H])c([H])c(Oc7c([H])c([H])c(F)c([H])c7F)c([H])c6[H])c(C(=O)N([H])[H])c5N([H])[H])C4([H])[H])C([H])([H])C3([H])[H])c([H])c([H])c2C1([H])[H]

$$$$
81:0:0
     RDKit          3D

 97104  0  0  1  0  0  0  0  0999 V2000
  -30.4520  -20.3120   22.0700 C   0  0  0  0  0  2  0  0  0  0  0  0
  -30.8190  -21.7670   22.4530 C   0  0  0  0  0  2  0  0  0  0  0  0
  -29.7530  -22.7860   21.9980 C   0  0  0  0  0  2  0  0  0  0  0  0
  -30.1170  -24.1980   22.2690 N   0  0  0  0  0  4  0  0  0  0  0  0
  -31.1140  -24.3130   22.1490 H   0  0  0  0  0  0  0  0  0  0  0  0
  -29.9080  -24.4060   23.2350 H   0  0  0  0  0  0  0  0  0  0  0  0
  -29.4010  -25.1430   21.3790 C   0  0  0  0  0  2  0  0  0  0  0  0
  -29.4560  -26.6160   21.8290 C   0  0  0  0  0  2  0  0  0  0  0  0
  -28.9820  -27.3650   20.7170 O   0  0  0  0  0  0  0  0  0  0  0  0
  -24.4910  -32.1370   23.6330 C   0  0  0  0  0  0  0  0  0  0  0  0
  -27.7410  -27.9500   20.7970 C   0  0  0  0  0  0  0  0  0  0  0  0
  -23.5190  -30.5830   21.9700 C   0  0  0  0  0  3  0  0  0  0  0  0
  -25.1970  -29.1660   20.6730 C   0  0  0  0  0  0  0  0  0  0  0  0
  -25.9990  -31.1960   21.8910 C   0  0  0  0  0  2  0  0  0  0  0  0
  -26.2590  -29.8220   21.3120 C   0  0  0  0  0  0  0  0  0  0  0  0
  -27.5330  -29.2160   21.3870 C   0  0  0  0  0  3  0  0  0  0  0  0
  -26.6670  -27.2950   20.1630 C   0  0  0  0  0  3  0  0  0  0  0  0
  -25.3920  -27.8920   20.1080 C   0  0  0  0  0  3  0  0  0  0  0  0
  -23.8710  -29.8940   20.6250 C   0  0  0  0  0  2  0  0  0  0  0  0
  -24.6820  -31.3210   22.5590 N   0  0  0  0  0  0  0  0  0  0  0  0
  -23.3620  -32.3130   24.1100 O   0  0  0  0  0  0  0  0  0  0  0  0
  -22.9240  -29.5220   22.9240 C   0  0  0  0  0  0  0  0  0  0  0  0
  -21.6680  -29.1220   22.6660 N   0  0  0  0  0  0  0  0  0  0  0  0
  -23.5930  -29.0570   23.8520 O   0  0  0  0  0  0  0  0  0  0  0  0
  -21.1820  -29.5590   21.8960 H   0  0  0  0  0  0  0  0  0  0  0  0
  -18.5010  -27.3900   22.8380 C   0  0  0  0  0  0  0  0  0  0  0  0
  -20.9200  -28.1050   23.4020 C   0  0  0  0  0  3  0  0  0  0  0  0
  -21.3340  -26.6810   22.9680 C   0  0  0  0  0  2  0  0  0  0  0  0
  -20.4500  -26.1080   21.8550 C   0  0  0  0  0  2  0  0  0  0  0  0
  -18.9860  -26.0510   22.3070 C   0  0  0  0  0  2  0  0  0  0  0  0
  -19.4100  -28.3600   23.3380 C   0  0  0  0  0  0  0  0  0  0  0  0
  -18.9120  -29.6010   23.7870 C   0  0  0  0  0  3  0  0  0  0  0  0
  -17.5350  -29.8830   23.7410 C   0  0  0  0  0  3  0  0  0  0  0  0
  -16.6360  -28.9140   23.2610 C   0  0  0  0  0  3  0  0  0  0  0  0
  -17.1200  -27.6700   22.8150 C   0  0  0  0  0  3  0  0  0  0  0  0
  -25.6780  -32.9070   24.2990 C   0  0  0  0  0  3  0  0  0  0  0  0
  -25.3430  -34.3350   24.2810 N   0  0  0  0  0  0  0  0  0  0  0  0
  -25.8280  -35.2170   23.3960 C   0  0  0  0  0  0  0  0  0  0  0  0
  -26.6740  -34.9180   22.5490 O   0  0  0  0  0  0  0  0  0  0  0  0
  -24.6140  -34.6390   24.9090 H   0  0  0  0  0  0  0  0  0  0  0  0
  -24.2350  -36.8690   22.3710 C   0  0  0  0  0  1  0  0  0  0  0  0
  -25.2920  -36.6590   23.4660 C   0  0  0  0  0  3  0  0  0  0  0  0
  -27.2630  -37.7150   24.4800 C   0  0  0  0  0  1  0  0  0  0  0  0
  -26.3480  -37.6840   23.3410 N   0  0  0  0  0  0  0  0  0  0  0  0
  -25.9430  -38.6090   23.2370 H   0  0  0  0  0  0  0  0  0  0  0  0
  -25.9840  -32.4230   25.7690 C   0  0  1  0  0  0  0  0  0  0  0  0
  -24.7300  -32.3390   26.6720 C   0  0  0  0  0  1  0  0  0  0  0  0
  -26.6500  -31.0270   25.7550 C   0  0  0  0  0  1  0  0  0  0  0  0
  -26.9910  -33.3870   26.4370 C   0  0  0  0  0  1  0  0  0  0  0  0
  -31.6870  -19.4110   21.8490 C   0  0  0  0  0  2  0  0  0  0  0  0
  -31.4060  -17.9230   21.5150 C   0  0  0  0  0  3  0  0  0  0  0  0
  -32.6180  -17.3320   20.8800 N   0  0  0  0  0  4  0  0  0  0  0  0
  -33.1730  -17.0040   21.6550 H   0  0  0  0  0  0  0  0  0  0  0  0
  -33.1590  -18.0620   20.4420 H   0  0  0  0  0  0  0  0  0  0  0  0
  -32.1110  -16.6190   18.5400 C   0  0  0  0  0  1  0  0  0  0  0  0
  -33.9470  -15.5620   19.8610 C   0  0  0  0  0  1  0  0  0  0  0  0
  -31.5740  -15.0530   20.4480 C   0  0  0  0  0  1  0  0  0  0  0  0
  -32.5300  -16.1630   19.9550 C   0  0  1  0  0  0  0  0  0  0  0  0
  -30.1200  -17.6870   20.6850 C   0  0  0  0  0  2  0  0  0  0  0  0
  -30.2730  -16.8550   19.3930 C   0  0  0  0  0  2  0  0  0  0  0  0
  -29.4100  -15.5780   19.4570 C   0  0  0  0  0  2  0  0  0  0  0  0
  -30.0960  -14.2970   18.9550 C   0  0  0  0  0  0  0  0  0  0  0  0
  -30.2180  -11.8250   18.9730 C   0  0  0  0  0  2  0  0  0  0  0  0
  -29.2500  -11.2020   17.9510 C   0  0  0  0  0  2  0  0  0  0  0  0
  -27.8400  -11.0420   18.5520 C   0  0  0  0  0  2  0  0  0  0  0  0
  -27.3330  -12.3400   19.2330 C   0  0  0  0  0  3  0  0  0  0  0  0
  -28.4070  -12.9050   20.1880 C   0  0  0  0  0  2  0  0  0  0  0  0
  -29.6500  -13.1030   19.4210 N   0  0  0  0  0  0  0  0  0  0  0  0
  -31.0290  -14.3910   18.1490 O   0  0  0  0  0  0  0  0  0  0  0  0
  -25.1500  -13.0460   20.4070 C   0  0  0  0  0  0  0  0  0  0  0  0
  -24.0990  -12.3160   20.8950 C   0  0  0  0  0  0  0  0  0  0  0  0
  -24.4290  -10.9460   20.6670 C   0  0  0  0  0  0  0  0  0  0  0  0
  -26.0610  -12.1200   19.9190 N   0  0  0  0  0  0  0  0  0  0  0  0
  -25.6380  -10.8470   20.1290 N   0  0  0  0  0  0  0  0  0  0  0  0
  -23.6420   -9.7240   20.8770 C   0  0  0  0  0  0  0  0  0  0  0  0
  -23.8600   -8.8870   21.9940 C   0  0  0  0  0  3  0  0  0  0  0  0
  -23.0790   -7.7260   22.1820 C   0  0  0  0  0  3  0  0  0  0  0  0
  -22.0650   -7.3950   21.2530 C   0  0  0  0  0  0  0  0  0  0  0  0
  -21.8670   -8.2180   20.1300 C   0  0  0  0  0  3  0  0  0  0  0  0
  -22.6500   -9.3700   19.9410 C   0  0  0  0  0  3  0  0  0  0  0  0
  -21.2750   -6.2750   21.3420 O   0  0  0  0  0  0  0  0  0  0  0  0
  -20.7140   -5.8830   22.5310 C   0  0  0  0  0  0  0  0  0  0  0  0
  -19.8220   -6.7130   23.2440 C   0  0  0  0  0  3  0  0  0  0  0  0
  -19.2140   -6.2420   24.4240 C   0  0  0  0  0  3  0  0  0  0  0  0
  -19.4880   -4.9420   24.8900 C   0  0  0  0  0  0  0  0  0  0  0  0
  -20.3710   -4.1120   24.1780 C   0  0  0  0  0  3  0  0  0  0  0  0
  -20.9800   -4.5800   23.0000 C   0  0  0  0  0  0  0  0  0  0  0  0
  -21.8150   -3.7690   22.3060 F   0  0  0  0  0  0  0  0  0  0  0  0
  -18.8970   -4.4860   26.0190 F   0  0  0  0  0  0  0  0  0  0  0  0
  -22.8140  -12.8590   21.4550 C   0  0  0  0  0  0  0  0  0  0  0  0
  -22.1980  -12.1410   22.3880 N   0  0  0  0  0  0  0  0  0  0  0  0
  -22.3750  -13.9520   21.1020 O   0  0  0  0  0  0  0  0  0  0  0  0
  -22.5660  -11.2520   22.6940 H   0  0  0  0  0  0  0  0  0  0  0  0
  -21.3430  -12.4850   22.8020 H   0  0  0  0  0  0  0  0  0  0  0  0
  -25.3990  -14.4120   20.3200 N   0  0  0  0  0  0  0  0  0  0  0  0
  -24.7230  -15.1060   20.6180 H   0  0  0  0  0  0  0  0  0  0  0  0
  -26.2210  -14.8200   19.8940 H   0  0  0  0  0  0  0  0  0  0  0  0
  1  2  1  0
  3  4  1  0
  3  2  1  0
  4  6  1  0
  5  4  1  0
  7  8  1  0
  7  4  1  0
  9 11  1  0
  9  8  1  0
 10 21  2  0
 11 16  1  0
 12 20  1  0
 12 22  1  0
 13 15  1  0
 14 20  1  0
 15 16  2  0
 15 14  1  0
 17 11  2  0
 18 17  1  0
 18 13  2  0
 19 13  1  0
 19 12  1  0
 20 10  1  0
 22 24  2  0
 23 22  1  0
 25 23  1  0
 26 31  1  0
 27 23  1  0
 28 27  1  0
 29 30  1  0
 29 28  1  0
 30 26  1  0
 31 27  1  0
 31 32  2  0
 33 32  1  0
 34 33  2  0
 35 26  2  0
 35 34  1  0
 36 10  1  0
 36 46  1  0
 37 36  1  0
 37 40  1  0
 38 42  1  0
 38 37  1  0
 39 38  2  0
 42 41  1  0
 44 42  1  0
 44 43  1  0
 45 44  1  0
 46 49  1  1
 46 47  1  0
 48 46  1  0
 50  1  1  0
 51 59  1  0
 51 50  1  0
 52 51  1  0
 52 53  1  0
 54 52  1  0
 58 55  1  6
 56 58  1  0
 58 57  1  0
 58 52  1  0
 60 61  1  0
 60 59  1  0
 62 68  1  0
 62 61  1  0
 63 68  1  0
 64 65  1  0
 64 63  1  0
 66 65  1  0
 66 73  1  0
 66 67  1  0
 68 67  1  0
 69 62  2  0
 70 71  2  0
 71 90  1  0
 72 75  1  0
 72 71  1  0
 73 74  1  0
 73 70  1  0
 74 72  2  0
 75 76  1  0
 76 77  2  0
 78 81  1  0
 78 77  1  0
 79 78  2  0
 80 79  1  0
 80 75  2  0
 81 82  1  0
 82 87  2  0
 82 83  1  0
 83 84  2  0
 84 85  1  0
 85 89  1  0
 86 85  2  0
 87 86  1  0
 88 87  1  0
 90 91  1  0
 91 93  1  0
 91 94  1  0
 92 90  2  0
 95 70  1  0
 95 96  1  0
 97 95  1  0
M  ISO  4   8 101   9 101  61 100  62 100
M  END
>  <TORSDO>  (82) 
F 28

>  <SCORE>  (82) 
-6.789

>  <name>  (82) 
81

>  <ligand_id>  (82) 
81

>  <original_smiles>  (82) 
[H]c1c([H])c([H])c2c(c1[H])C([H])([H])C([H])([H])C([H])([H])C2([H])N([H])C(=O)C1([H])N(C(=O)C([H])(N([H])C(=O)C([H])(N([H])C([H])([H])[H])C([H])([H])[H])C(C([H])([H])[H])(C([H])([H])[H])C([H])([H])[H])C([H])([H])c2c([H])c(OC([H])([H])C([H])([H])[N+]([H])([H])C([H])([H])C([H])([H])C([H])([H])C([H])([H])C([H])(C([H])([H])C([H])([H])C([H])([H])C(=O)N3C([H])([H])C([H])([H])C([H])([H])C([H])(n4nc(-c5c([H])c([H])c(Oc6c([H])c([H])c(F)c([H])c6F)c([H])c5[H])c(C(=O)N([H])[H])c4N([H])[H])C3([H])[H])[N+]([H])([H])C(C([H])([H])[H])(C([H])([H])[H])C([H])([H])[H])c([H])c([H])c2C1([H])[H]

>  <smiles>  (82) 
[H]c1c([H])c([H])c2c(c1[H])C([H])([H])C([H])([H])C([H])([H])C2([H])N([H])C(=O)C1([H])N(C(=O)C([H])(N([H])C(=O)C([H])(N([H])C([H])([H])[H])C([H])([H])[H])C(C([H])([H])[H])(C([H])([H])[H])C([H])([H])[H])C([H])([H])c2c([H])c(OC([H])([H])C([H])([H])[N+]([H])([H])C([H])([H])C([H])([H])C([H])([H])C([H])([H])C([H])(C([H])([H])C([H])([H])C([H])([H])C(=O)N3C([H])([H])C([H])([H])C([H])([H])C([H])(n4nc(-c5c([H])c([H])c(Oc6c([H])c([H])c(F)c([H])c6F)c([H])c5[H])c(C(=O)N([H])[H])c4N([H])[H])C3([H])[H])[N+]([H])([H])C(C([H])([H])[H])(C([H])([H])[H])C([H])([H])[H])c([H])c([H])c2C1([H])[H]

$$$$
82:0:0
     RDKit          3D

 88 95  0  0  1  0  0  0  0  0999 V2000
  -28.8510  -22.6100   19.6890 C   0  0  0  0  0  0  0  0  0  0  0  0
  -29.7950  -19.5730   19.6690 C   0  0  0  0  0  0  0  0  0  0  0  0
  -29.5640  -21.0370   20.1410 N   0  0  0  0  0  4  0  0  0  0  0  0
  -29.8680  -19.4960   18.4410 O   0  0  0  0  0  0  0  0  0  0  0  0
  -29.6840  -21.0420   21.1470 H   0  0  0  0  0  0  0  0  0  0  0  0
  -29.8540  -17.8850   20.4570 C   0  0  0  0  0  2  0  0  0  0  0  0
  -30.6040  -16.1880   20.1980 C   0  0  0  0  0  0  0  0  0  0  0  0
  -30.8160  -13.5660   19.6870 C   0  0  0  0  0  2  0  0  0  0  0  0
  -30.0190  -13.0530   18.4530 C   0  0  0  0  0  2  0  0  0  0  0  0
  -28.5710  -12.7170   18.8350 C   0  0  0  0  0  2  0  0  0  0  0  0
  -27.9750  -13.7990   19.7630 C   0  0  0  0  0  3  0  0  0  0  0  0
  -28.9180  -14.2330   20.9100 C   0  0  0  0  0  2  0  0  0  0  0  0
  -30.1400  -14.8020   20.2980 N   0  0  0  0  0  0  0  0  0  0  0  0
  -31.8260  -16.1210   19.9560 O   0  0  0  0  0  0  0  0  0  0  0  0
  -25.5960  -14.3580   20.4520 C   0  0  0  0  0  0  0  0  0  0  0  0
  -24.5120  -13.5900   20.7680 C   0  0  0  0  0  0  0  0  0  0  0  0
  -24.9600  -12.2330   20.7280 C   0  0  0  0  0  0  0  0  0  0  0  0
  -26.6340  -13.4750   20.2270 N   0  0  0  0  0  0  0  0  0  0  0  0
  -26.2630  -12.1860   20.4610 N   0  0  0  0  0  0  0  0  0  0  0  0
  -24.2060  -10.9800   20.8700 C   0  0  0  0  0  0  0  0  0  0  0  0
  -24.5950   -9.9790   21.7870 C   0  0  0  0  0  3  0  0  0  0  0  0
  -23.8350   -8.7960   21.9210 C   0  0  0  0  0  3  0  0  0  0  0  0
  -22.6730   -8.6040   21.1370 C   0  0  0  0  0  0  0  0  0  0  0  0
  -22.3030   -9.5930   20.2100 C   0  0  0  0  0  3  0  0  0  0  0  0
  -23.0620  -10.7680   20.0740 C   0  0  0  0  0  3  0  0  0  0  0  0
  -21.8910   -7.4750   21.1800 O   0  0  0  0  0  0  0  0  0  0  0  0
  -21.8200   -6.6910   22.3040 C   0  0  0  0  0  0  0  0  0  0  0  0
  -21.3870   -7.2050   23.5450 C   0  0  0  0  0  3  0  0  0  0  0  0
  -21.2620   -6.3490   24.6570 C   0  0  0  0  0  3  0  0  0  0  0  0
  -21.5590   -4.9790   24.5290 C   0  0  0  0  0  0  0  0  0  0  0  0
  -21.9850   -4.4640   23.2920 C   0  0  0  0  0  3  0  0  0  0  0  0
  -22.1110   -5.3170   22.1820 C   0  0  0  0  0  0  0  0  0  0  0  0
  -22.5010   -4.8110   20.9870 F   0  0  0  0  0  0  0  0  0  0  0  0
  -21.4320   -4.1540   25.5940 F   0  0  0  0  0  0  0  0  0  0  0  0
  -23.1140  -14.0860   20.9910 C   0  0  0  0  0  0  0  0  0  0  0  0
  -22.3470  -13.3990   21.8300 N   0  0  0  0  0  0  0  0  0  0  0  0
  -22.7110  -15.1190   20.4590 O   0  0  0  0  0  0  0  0  0  0  0  0
  -22.6870  -12.5640   22.2840 H   0  0  0  0  0  0  0  0  0  0  0  0
  -21.4080  -13.7150   22.0240 H   0  0  0  0  0  0  0  0  0  0  0  0
  -25.7850  -15.7290   20.3070 N   0  0  0  0  0  0  0  0  0  0  0  0
  -25.0240  -16.3920   20.4080 H   0  0  0  0  0  0  0  0  0  0  0  0
  -26.6520  -16.1630   20.0180 H   0  0  0  0  0  0  0  0  0  0  0  0
  -27.3610  -22.5330   20.0970 C   0  0  0  0  0  2  0  0  0  0  0  0
  -26.6740  -22.4430   17.6230 C   0  0  0  0  0  1  0  0  0  0  0  0
  -24.9230  -22.3470   19.4310 C   0  0  0  0  0  1  0  0  0  0  0  0
  -26.3640  -21.9680   19.0550 C   0  0  0  0  0  3  0  0  0  0  0  0
  -29.1900  -24.5180   19.6050 C   0  0  0  0  0  2  0  0  0  0  0  0
  -28.8250  -26.1420   20.1840 O   0  0  0  0  0  0  0  0  0  0  0  0
  -24.8000  -31.9370   23.3050 C   0  0  0  0  0  0  0  0  0  0  0  0
  -27.7720  -27.2730   20.0720 C   0  0  0  0  0  0  0  0  0  0  0  0
  -23.7650  -30.5760   21.5350 C   0  0  0  0  0  3  0  0  0  0  0  0
  -25.3680  -29.1340   20.0620 C   0  0  0  0  0  0  0  0  0  0  0  0
  -26.3260  -30.9030   21.5190 C   0  0  0  0  0  2  0  0  0  0  0  0
  -26.5080  -29.5290   20.7690 C   0  0  0  0  0  0  0  0  0  0  0  0
  -27.6880  -28.6220   20.7500 C   0  0  0  0  0  3  0  0  0  0  0  0
  -26.5930  -27.0890   19.3080 C   0  0  0  0  0  3  0  0  0  0  0  0
  -25.4470  -27.9450   19.3120 C   0  0  0  0  0  3  0  0  0  0  0  0
  -24.0940  -29.9930   20.1300 C   0  0  0  0  0  2  0  0  0  0  0  0
  -24.9840  -31.1710   22.1760 N   0  0  0  0  0  0  0  0  0  0  0  0
  -23.6740  -32.1290   23.7950 O   0  0  0  0  0  0  0  0  0  0  0  0
  -23.0890  -29.4900   22.4150 C   0  0  0  0  0  0  0  0  0  0  0  0
  -21.7760  -29.2530   22.2310 N   0  0  0  0  0  0  0  0  0  0  0  0
  -23.7590  -28.8610   23.2380 O   0  0  0  0  0  0  0  0  0  0  0  0
  -21.2820  -29.8150   21.5510 H   0  0  0  0  0  0  0  0  0  0  0  0
  -18.4610  -27.8060   22.5680 C   0  0  0  0  0  0  0  0  0  0  0  0
  -20.9930  -28.2130   22.9110 C   0  0  0  0  0  3  0  0  0  0  0  0
  -21.1960  -26.8360   22.2380 C   0  0  0  0  0  2  0  0  0  0  0  0
  -20.1380  -26.5220   21.1750 C   0  0  0  0  0  2  0  0  0  0  0  0
  -18.7390  -26.5280   21.7960 C   0  0  0  0  0  2  0  0  0  0  0  0
  -19.5180  -28.6060   23.0790 C   0  0  0  0  0  0  0  0  0  0  0  0
  -19.2020  -29.7960   23.7690 C   0  0  0  0  0  3  0  0  0  0  0  0
  -17.8620  -30.1920   23.9460 C   0  0  0  0  0  3  0  0  0  0  0  0
  -16.8200  -29.3920   23.4470 C   0  0  0  0  0  3  0  0  0  0  0  0
  -17.1210  -28.1990   22.7640 C   0  0  0  0  0  3  0  0  0  0  0  0
  -25.9960  -32.6260   24.0330 C   0  0  0  0  0  3  0  0  0  0  0  0
  -25.5970  -34.0070   24.3690 N   0  0  0  0  0  0  0  0  0  0  0  0
  -25.9400  -35.1010   23.6760 C   0  0  0  0  0  0  0  0  0  0  0  0
  -26.6820  -35.0570   22.6910 O   0  0  0  0  0  0  0  0  0  0  0  0
  -24.9400  -34.1100   25.1280 H   0  0  0  0  0  0  0  0  0  0  0  0
  -24.1570  -36.8420   23.2870 C   0  0  0  0  0  1  0  0  0  0  0  0
  -25.3750  -36.4590   24.1460 C   0  0  0  0  0  3  0  0  0  0  0  0
  -27.4270  -37.4130   25.1040 C   0  0  0  0  0  1  0  0  0  0  0  0
  -26.3660  -37.5570   24.1110 N   0  0  0  0  0  0  0  0  0  0  0  0
  -25.9150  -38.4560   24.2560 H   0  0  0  0  0  0  0  0  0  0  0  0
  -26.4430  -31.8660   25.3440 C   0  0  1  0  0  0  0  0  0  0  0  0
  -25.2820  -31.5760   26.3250 C   0  0  0  0  0  1  0  0  0  0  0  0
  -27.1100  -30.5150   25.0040 C   0  0  0  0  0  1  0  0  0  0  0  0
  -27.5070  -32.7010   26.0970 C   0  0  0  0  0  1  0  0  0  0  0  0
  1 43  1  0
  1  3  2  3
  2  3  1  0
  2  6  1  0
  3  5  1  0
  4  2  2  0
  7 13  1  0
  7  6  1  0
  8 13  1  0
  9 10  1  0
  9  8  1  0
 11 10  1  0
 11 18  1  0
 11 12  1  0
 13 12  1  0
 14  7  2  0
 15 16  2  0
 16 35  1  0
 17 16  1  0
 17 20  1  0
 18 15  1  0
 18 19  1  0
 19 17  2  0
 20 21  1  0
 21 22  2  0
 23 26  1  0
 23 22  1  0
 24 23  2  0
 25 24  1  0
 25 20  2  0
 26 27  1  0
 27 28  1  0
 28 29  2  0
 30 29  1  0
 30 34  1  0
 31 30  2  0
 32 27  2  0
 32 31  1  0
 33 32  1  0
 35 36  1  0
 36 39  1  0
 36 38  1  0
 37 35  2  0
 40 41  1  0
 40 15  1  0
 42 40  1  0
 44 46  1  0
 46 45  1  0
 46 43  1  0
 47  1  1  0
 47 48  1  0
 49 60  2  0
 50 48  1  0
 50 55  1  0
 51 59  1  0
 51 61  1  0
 52 58  1  0
 52 54  1  0
 53 59  1  0
 54 53  1  0
 55 54  2  0
 56 57  1  0
 56 50  2  0
 57 52  2  0
 58 51  1  0
 59 49  1  0
 61 63  2  0
 62 61  1  0
 64 62  1  0
 65 74  2  0
 65 70  1  0
 66 62  1  0
 66 70  1  0
 67 66  1  0
 68 69  1  0
 68 67  1  0
 69 65  1  0
 70 71  2  0
 71 72  1  0
 73 72  2  0
 74 73  1  0
 75 49  1  0
 75 76  1  0
 75 85  1  0
 76 79  1  0
 77 81  1  0
 77 76  1  0
 78 77  2  0
 81 80  1  0
 83 81  1  0
 83 84  1  0
 83 82  1  0
 85 88  1  1
 85 86  1  0
 87 85  1  0
M  ISO  4   6 100   7 100  47 101  48 101
M  END
>  <TORSDO>  (83) 
F 21

>  <SCORE>  (83) 
-14.256

>  <name>  (83) 
82

>  <ligand_id>  (83) 
82

>  <original_smiles>  (83) 
[H]c1c([H])c([H])c2c(c1[H])C([H])([H])C([H])([H])C([H])([H])C2([H])N([H])C(=O)C1([H])N(C(=O)C([H])(N([H])C(=O)C([H])(N([H])C([H])([H])[H])C([H])([H])[H])C(C([H])([H])[H])(C([H])([H])[H])C([H])([H])[H])C([H])([H])c2c([H])c(OC([H])([H])C([H])(N([H])C(=O)C([H])([H])C(=O)N3C([H])([H])C([H])([H])C([H])([H])C([H])(n4nc(-c5c([H])c([H])c(Oc6c([H])c([H])c(F)c([H])c6F)c([H])c5[H])c(C(=O)N([H])[H])c4N([H])[H])C3([H])[H])C([H])([H])C([H])(C([H])([H])[H])C([H])([H])[H])c([H])c([H])c2C1([H])[H]

>  <smiles>  (83) 
[H]c1c([H])c([H])c2c(c1[H])C([H])([H])C([H])([H])C([H])([H])C2([H])N([H])C(=O)C1([H])N(C(=O)C([H])(N([H])C(=O)C([H])(N([H])C([H])([H])[H])C([H])([H])[H])C(C([H])([H])[H])(C([H])([H])[H])C([H])([H])[H])C([H])([H])c2c([H])c(OC([H])([H])C([H])(N([H])C(=O)C([H])([H])C(=O)N3C([H])([H])C([H])([H])C([H])([H])C([H])(n4nc(-c5c([H])c([H])c(Oc6c([H])c([H])c(F)c([H])c6F)c([H])c5[H])c(C(=O)N([H])[H])c4N([H])[H])C3([H])[H])C([H])([H])C([H])(C([H])([H])[H])C([H])([H])[H])c([H])c([H])c2C1([H])[H]

$$$$
83:0:0
     RDKit          3D

 95102  0  0  1  0  0  0  0  0999 V2000
  -28.4070  -23.4590   23.3240 C   0  0  0  0  0  1  0  0  0  0  0  0
  -28.3740  -22.8910   21.8900 C   0  0  0  0  0  3  0  0  0  0  0  0
  -29.4780  -21.9270   21.6650 N   0  0  0  0  0  4  0  0  0  0  0  0
  -29.9030  -22.2360   20.8100 H   0  0  0  0  0  0  0  0  0  0  0  0
  -30.1600  -21.9930   22.3980 H   0  0  0  0  0  0  0  0  0  0  0  0
  -29.0750  -20.5160   21.4640 C   0  0  0  0  0  2  0  0  0  0  0  0
  -30.2790  -19.5530   21.3590 C   0  0  0  0  0  2  0  0  0  0  0  0
  -29.8510  -18.1010   21.0480 C   0  0  0  0  0  2  0  0  0  0  0  0
  -30.7650  -17.0390   21.7040 C   0  0  0  0  0  2  0  0  0  0  0  0
  -31.7050  -16.3070   20.7170 C   0  0  0  0  0  2  0  0  0  0  0  0
  -31.5090  -14.1960   19.3670 C   0  0  0  0  0  0  0  0  0  0  0  0
  -31.0430  -11.8660   18.6960 C   0  0  0  0  0  2  0  0  0  0  0  0
  -29.9810  -11.8100   17.5870 C   0  0  0  0  0  2  0  0  0  0  0  0
  -28.5540  -11.8090   18.1700 C   0  0  0  0  0  2  0  0  0  0  0  0
  -28.3460  -12.9430   19.2060 C   0  0  0  0  0  3  0  0  0  0  0  0
  -29.4910  -12.9480   20.2390 C   0  0  0  0  0  2  0  0  0  0  0  0
  -30.7620  -13.0680   19.4930 N   0  0  0  0  0  0  0  0  0  0  0  0
  -32.5850  -14.2270   18.7620 O   0  0  0  0  0  0  0  0  0  0  0  0
  -30.9760  -15.3100   19.9090 N   0  0  0  0  0  0  0  0  0  0  0  0
  -30.0050  -15.5060   19.6070 H   0  0  0  0  0  0  0  0  0  0  0  0
  -26.2000  -13.8910   20.2620 C   0  0  0  0  0  0  0  0  0  0  0  0
  -25.0600  -13.2870   20.7260 C   0  0  0  0  0  0  0  0  0  0  0  0
  -25.2660  -11.8860   20.5570 C   0  0  0  0  0  0  0  0  0  0  0  0
  -27.0340  -12.8650   19.8460 N   0  0  0  0  0  0  0  0  0  0  0  0
  -26.4750  -11.6480   20.0650 N   0  0  0  0  0  0  0  0  0  0  0  0
  -24.3560  -10.7510   20.7810 C   0  0  0  0  0  0  0  0  0  0  0  0
  -24.7110   -9.6800   21.6240 C   0  0  0  0  0  3  0  0  0  0  0  0
  -23.8150   -8.6120   21.8550 C   0  0  0  0  0  3  0  0  0  0  0  0
  -22.5450   -8.6110   21.2320 C   0  0  0  0  0  0  0  0  0  0  0  0
  -22.2010   -9.6690   20.3780 C   0  0  0  0  0  3  0  0  0  0  0  0
  -23.0970  -10.7300   20.1500 C   0  0  0  0  0  3  0  0  0  0  0  0
  -21.6190   -7.6040   21.3700 O   0  0  0  0  0  0  0  0  0  0  0  0
  -21.5080   -6.8780   22.5310 C   0  0  0  0  0  0  0  0  0  0  0  0
  -21.2560   -7.5010   23.7740 C   0  0  0  0  0  3  0  0  0  0  0  0
  -21.0830   -6.7120   24.9290 C   0  0  0  0  0  3  0  0  0  0  0  0
  -21.1480   -5.3080   24.8430 C   0  0  0  0  0  0  0  0  0  0  0  0
  -21.3960   -4.6870   23.6050 C   0  0  0  0  0  3  0  0  0  0  0  0
  -21.5730   -5.4710   22.4500 C   0  0  0  0  0  0  0  0  0  0  0  0
  -21.7880   -4.8690   21.2560 F   0  0  0  0  0  0  0  0  0  0  0  0
  -20.9710   -4.5530   25.9500 F   0  0  0  0  0  0  0  0  0  0  0  0
  -23.8150  -13.9720   21.2200 C   0  0  0  0  0  0  0  0  0  0  0  0
  -23.1320  -13.3610   22.1820 N   0  0  0  0  0  0  0  0  0  0  0  0
  -23.4710  -15.0730   20.7900 O   0  0  0  0  0  0  0  0  0  0  0  0
  -23.4440  -12.4810   22.5610 H   0  0  0  0  0  0  0  0  0  0  0  0
  -22.2910  -13.7740   22.5590 H   0  0  0  0  0  0  0  0  0  0  0  0
  -26.5930  -15.2160   20.1420 N   0  0  0  0  0  0  0  0  0  0  0  0
  -25.9760  -15.9890   20.3630 H   0  0  0  0  0  0  0  0  0  0  0  0
  -27.4900  -15.5080   19.7800 H   0  0  0  0  0  0  0  0  0  0  0  0
  -28.3410  -23.9760   20.7660 C   0  0  0  0  0  3  0  0  0  0  0  0
  -26.9850  -22.7260   19.1260 C   0  0  0  0  0  1  0  0  0  0  0  0
  -28.2480  -23.3660   19.4360 N   0  0  0  0  0  0  0  0  0  0  0  0
  -29.0700  -22.8840   19.0810 H   0  0  0  0  0  0  0  0  0  0  0  0
  -29.5100  -24.9870   20.6750 C   0  0  0  0  0  2  0  0  0  0  0  0
  -29.2970  -25.9750   19.4930 C   0  0  0  0  0  2  0  0  0  0  0  0
  -28.9430  -27.2760   19.9380 O   0  0  0  0  0  0  0  0  0  0  0  0
  -24.5570  -31.7390   23.2130 C   0  0  0  0  0  0  0  0  0  0  0  0
  -27.6470  -27.7610   19.9420 C   0  0  0  0  0  0  0  0  0  0  0  0
  -23.4870  -30.3190   21.4870 C   0  0  0  0  0  3  0  0  0  0  0  0
  -25.0860  -28.9980   19.9990 C   0  0  0  0  0  0  0  0  0  0  0  0
  -25.9390  -30.9600   21.2820 C   0  0  0  0  0  2  0  0  0  0  0  0
  -26.1800  -29.6260   20.6060 C   0  0  0  0  0  0  0  0  0  0  0  0
  -27.4500  -29.0050   20.5780 C   0  0  0  0  0  3  0  0  0  0  0  0
  -26.5270  -27.1250   19.3530 C   0  0  0  0  0  3  0  0  0  0  0  0
  -25.2570  -27.7450   19.3780 C   0  0  0  0  0  3  0  0  0  0  0  0
  -23.7490  -29.7080   20.0830 C   0  0  0  0  0  2  0  0  0  0  0  0
  -24.6830  -31.0140   22.0640 N   0  0  0  0  0  0  0  0  0  0  0  0
  -23.4540  -31.8830   23.7620 O   0  0  0  0  0  0  0  0  0  0  0  0
  -22.9260  -29.2050   22.3960 C   0  0  0  0  0  0  0  0  0  0  0  0
  -21.6340  -28.8940   22.2220 N   0  0  0  0  0  0  0  0  0  0  0  0
  -23.6550  -28.6180   23.2020 O   0  0  0  0  0  0  0  0  0  0  0  0
  -21.1010  -29.4260   21.5450 H   0  0  0  0  0  0  0  0  0  0  0  0
  -18.3990  -27.3340   22.5620 C   0  0  0  0  0  0  0  0  0  0  0  0
  -20.9040  -27.8400   22.9250 C   0  0  0  0  0  3  0  0  0  0  0  0
  -21.1690  -26.4570   22.2860 C   0  0  0  0  0  2  0  0  0  0  0  0
  -20.1370  -26.0720   21.2190 C   0  0  0  0  0  2  0  0  0  0  0  0
  -18.7330  -26.0440   21.8270 C   0  0  0  0  0  2  0  0  0  0  0  0
  -19.4190  -28.1870   23.0610 C   0  0  0  0  0  0  0  0  0  0  0  0
  -19.0550  -29.3950   23.6930 C   0  0  0  0  0  3  0  0  0  0  0  0
  -17.7020  -29.7570   23.8310 C   0  0  0  0  0  3  0  0  0  0  0  0
  -16.6980  -28.9020   23.3490 C   0  0  0  0  0  3  0  0  0  0  0  0
  -17.0420  -27.6900   22.7250 C   0  0  0  0  0  3  0  0  0  0  0  0
  -25.7760  -32.4530   23.8790 C   0  0  0  0  0  3  0  0  0  0  0  0
  -26.2670  -31.7330   25.1910 C   0  0  1  0  0  0  0  0  0  0  0  0
  -25.1300  -31.4210   26.1890 C   0  0  0  0  0  1  0  0  0  0  0  0
  -26.9730  -30.4040   24.8320 C   0  0  0  0  0  1  0  0  0  0  0  0
  -27.3060  -32.6160   25.9220 C   0  0  0  0  0  1  0  0  0  0  0  0
  -25.3890  -33.8400   24.1580 N   0  0  0  0  0  0  0  0  0  0  0  0
  -25.7200  -34.8870   23.3890 C   0  0  0  0  0  0  0  0  0  0  0  0
  -26.4510  -34.7880   22.3970 O   0  0  0  0  0  0  0  0  0  0  0  0
  -24.7340  -33.9830   24.9140 H   0  0  0  0  0  0  0  0  0  0  0  0
  -23.9300  -36.5770   22.8820 C   0  0  0  0  0  1  0  0  0  0  0  0
  -25.1380  -36.2580   23.7780 C   0  0  0  0  0  3  0  0  0  0  0  0
  -27.1780  -37.2550   24.7090 C   0  0  0  0  0  1  0  0  0  0  0  0
  -26.1270  -37.3530   23.7000 N   0  0  0  0  0  0  0  0  0  0  0  0
  -25.6700  -38.2540   23.8170 H   0  0  0  0  0  0  0  0  0  0  0  0
  2  1  1  0
  3  2  1  0
  3  5  1  0
  4  3  1  0
  6  3  1  0
  7  6  1  0
  8  7  1  0
  8  9  1  0
 10  9  1  0
 11 17  1  0
 11 19  1  0
 12 17  1  0
 13 14  1  0
 13 12  1  0
 15 14  1  0
 15 24  1  0
 15 16  1  0
 17 16  1  0
 18 11  2  0
 19 10  1  0
 20 19  1  0
 21 22  2  0
 22 41  1  0
 23 22  1  0
 23 26  1  0
 24 25  1  0
 24 21  1  0
 25 23  2  0
 26 27  1  0
 27 28  2  0
 29 32  1  0
 29 28  1  0
 30 29  2  0
 31 30  1  0
 31 26  2  0
 32 33  1  0
 33 34  1  0
 34 35  2  0
 36 35  1  0
 36 40  1  0
 37 36  2  0
 38 33  2  0
 38 37  1  0
 39 38  1  0
 41 42  1  0
 42 45  1  0
 42 44  1  0
 43 41  2  0
 46 21  1  0
 46 47  1  0
 48 46  1  0
 49 53  1  0
 49  2  1  0
 50 51  1  0
 51 49  1  0
 52 51  1  0
 54 55  1  0
 54 53  1  0
 55 57  1  0
 56 67  2  0
 57 62  1  0
 58 66  1  0
 58 68  1  0
 59 65  1  0
 59 61  1  0
 60 66  1  0
 61 60  1  0
 62 61  2  0
 63 64  1  0
 63 57  2  0
 64 59  2  0
 65 58  1  0
 66 56  1  0
 68 70  2  0
 69 68  1  0
 71 69  1  0
 72 81  2  0
 72 77  1  0
 73 69  1  0
 73 77  1  0
 74 73  1  0
 75 76  1  0
 75 74  1  0
 76 72  1  0
 77 78  2  0
 78 79  1  0
 80 79  2  0
 81 80  1  0
 82 56  1  0
 82 87  1  0
 82 83  1  0
 83 86  1  1
 83 84  1  0
 85 83  1  0
 87 90  1  0
 88 92  1  0
 88 87  1  0
 89 88  2  0
 92 91  1  0
 94 92  1  0
 94 95  1  0
 94 93  1  0
M  ISO  4  11 100  19 100  54 101  55 101
M  END
>  <TORSDO>  (84) 
F 26

>  <SCORE>  (84) 
-9.483

>  <name>  (84) 
83

>  <ligand_id>  (84) 
83

>  <original_smiles>  (84) 
[H]c1c([H])c([H])c2c(c1[H])C([H])([H])C([H])([H])C([H])([H])C2([H])N([H])C(=O)C1([H])N(C(=O)C([H])(N([H])C(=O)C([H])(N([H])C([H])([H])[H])C([H])([H])[H])C(C([H])([H])[H])(C([H])([H])[H])C([H])([H])[H])C([H])([H])c2c([H])c(OC([H])([H])C([H])([H])C([H])(N([H])C([H])([H])[H])C([H])(C([H])([H])[H])[N+]([H])([H])C([H])([H])C([H])([H])C([H])([H])C([H])([H])C([H])([H])N([H])C(=O)N3C([H])([H])C([H])([H])C([H])([H])C([H])(n4nc(-c5c([H])c([H])c(Oc6c([H])c([H])c(F)c([H])c6F)c([H])c5[H])c(C(=O)N([H])[H])c4N([H])[H])C3([H])[H])c([H])c([H])c2C1([H])[H]

>  <smiles>  (84) 
[H]c1c([H])c([H])c2c(c1[H])C([H])([H])C([H])([H])C([H])([H])C2([H])N([H])C(=O)C1([H])N(C(=O)C([H])(N([H])C(=O)C([H])(N([H])C([H])([H])[H])C([H])([H])[H])C(C([H])([H])[H])(C([H])([H])[H])C([H])([H])[H])C([H])([H])c2c([H])c(OC([H])([H])C([H])([H])C([H])(N([H])C([H])([H])[H])C([H])(C([H])([H])[H])[N+]([H])([H])C([H])([H])C([H])([H])C([H])([H])C([H])([H])C([H])([H])N([H])C(=O)N3C([H])([H])C([H])([H])C([H])([H])C([H])(n4nc(-c5c([H])c([H])c(Oc6c([H])c([H])c(F)c([H])c6F)c([H])c5[H])c(C(=O)N([H])[H])c4N([H])[H])C3([H])[H])c([H])c([H])c2C1([H])[H]

$$$$
84:0:0
     RDKit          3D

 90 97  0  0  1  0  0  0  0  0999 V2000
  -30.8070  -23.1030   20.5720 C   0  0  0  0  0  1  0  0  0  0  0  0
  -29.3070  -22.7310   20.6490 C   0  0  0  0  0  3  0  0  0  0  0  0
  -28.9960  -21.3300   20.1000 N   0  0  0  0  0  4  0  0  0  0  0  0
  -28.7610  -21.4150   19.1240 H   0  0  0  0  0  0  0  0  0  0  0  0
  -28.1490  -21.0380   20.5620 H   0  0  0  0  0  0  0  0  0  0  0  0
  -30.9260  -20.1700   18.9900 C   0  0  0  0  0  1  0  0  0  0  0  0
  -30.0000  -20.1810   20.2270 C   0  0  0  0  0  3  0  0  0  0  0  0
  -29.4000  -18.7040   20.4280 C   0  0  0  0  0  2  0  0  0  0  0  0
  -31.4790  -17.6780   21.5780 C   0  0  0  0  0  1  0  0  0  0  0  0
  -30.4010  -17.4450   20.5000 C   0  0  0  0  0  3  0  0  0  0  0  0
  -29.7510  -15.9910   20.6870 C   0  0  0  0  0  2  0  0  0  0  0  0
  -30.5630  -14.6880   20.2740 C   0  0  0  0  0  0  0  0  0  0  0  0
  -30.3490  -12.4430   19.2190 C   0  0  0  0  0  2  0  0  0  0  0  0
  -29.3900  -12.5590   18.0140 C   0  0  0  0  0  2  0  0  0  0  0  0
  -27.9250  -12.3870   18.4590 C   0  0  0  0  0  2  0  0  0  0  0  0
  -27.5740  -13.2630   19.6910 C   0  0  0  0  0  3  0  0  0  0  0  0
  -28.6450  -13.1380   20.7960 C   0  0  0  0  0  2  0  0  0  0  0  0
  -29.9510  -13.4640   20.2090 N   0  0  0  0  0  0  0  0  0  0  0  0
  -31.7200  -14.8210   19.8600 O   0  0  0  0  0  0  0  0  0  0  0  0
  -25.1910  -13.8560   20.4460 C   0  0  0  0  0  0  0  0  0  0  0  0
  -24.1320  -13.0810   20.8310 C   0  0  0  0  0  0  0  0  0  0  0  0
  -24.5970  -11.7310   20.7990 C   0  0  0  0  0  0  0  0  0  0  0  0
  -26.2340  -12.9780   20.1980 N   0  0  0  0  0  0  0  0  0  0  0  0
  -25.8840  -11.6950   20.4730 N   0  0  0  0  0  0  0  0  0  0  0  0
  -23.8790  -10.4660   21.0020 C   0  0  0  0  0  0  0  0  0  0  0  0
  -24.3290   -9.5030   21.9310 C   0  0  0  0  0  3  0  0  0  0  0  0
  -23.6110   -8.3030   22.1220 C   0  0  0  0  0  3  0  0  0  0  0  0
  -22.4310   -8.0580   21.3820 C   0  0  0  0  0  0  0  0  0  0  0  0
  -22.0010   -9.0100   20.4420 C   0  0  0  0  0  3  0  0  0  0  0  0
  -22.7190  -10.2020   20.2500 C   0  0  0  0  0  3  0  0  0  0  0  0
  -21.6830   -6.9090   21.4820 O   0  0  0  0  0  0  0  0  0  0  0  0
  -21.6560   -6.1650   22.6350 C   0  0  0  0  0  0  0  0  0  0  0  0
  -21.2500   -6.7190   23.8690 C   0  0  0  0  0  3  0  0  0  0  0  0
  -21.1700   -5.9010   25.0140 C   0  0  0  0  0  3  0  0  0  0  0  0
  -21.4860   -4.5320   24.9260 C   0  0  0  0  0  0  0  0  0  0  0  0
  -21.8850   -3.9780   23.6970 C   0  0  0  0  0  3  0  0  0  0  0  0
  -21.9670   -4.7930   22.5540 C   0  0  0  0  0  0  0  0  0  0  0  0
  -22.3310   -4.2510   21.3660 F   0  0  0  0  0  0  0  0  0  0  0  0
  -21.4020   -3.7440   26.0230 F   0  0  0  0  0  0  0  0  0  0  0  0
  -22.7350  -13.5540   21.1190 C   0  0  0  0  0  0  0  0  0  0  0  0
  -22.0210  -12.8570   21.9940 N   0  0  0  0  0  0  0  0  0  0  0  0
  -22.2880  -14.5760   20.6010 O   0  0  0  0  0  0  0  0  0  0  0  0
  -22.3950  -12.0310   22.4370 H   0  0  0  0  0  0  0  0  0  0  0  0
  -21.0840  -13.1560   22.2250 H   0  0  0  0  0  0  0  0  0  0  0  0
  -25.3500  -15.2270   20.2650 N   0  0  0  0  0  0  0  0  0  0  0  0
  -24.5860  -15.8800   20.3910 H   0  0  0  0  0  0  0  0  0  0  0  0
  -26.1990  -15.6670   19.9340 H   0  0  0  0  0  0  0  0  0  0  0  0
  -28.4740  -23.9430   20.0150 C   0  0  0  0  0  2  0  0  0  0  0  0
  -28.3650  -25.2980   20.8500 C   0  0  0  0  0  2  0  0  0  0  0  0
  -28.3920  -26.6000   20.1660 O   0  0  0  0  0  0  0  0  0  0  0  0
  -24.6320  -31.9170   23.2650 C   0  0  0  0  0  0  0  0  0  0  0  0
  -27.2490  -27.3960   20.2020 C   0  0  0  0  0  0  0  0  0  0  0  0
  -23.4230  -30.5170   21.6260 C   0  0  0  0  0  3  0  0  0  0  0  0
  -24.8720  -28.9640   20.2010 C   0  0  0  0  0  0  0  0  0  0  0  0
  -25.9550  -30.8530   21.4270 C   0  0  0  0  0  2  0  0  0  0  0  0
  -26.0380  -29.4740   20.7870 C   0  0  0  0  0  0  0  0  0  0  0  0
  -27.2330  -28.7010   20.7720 C   0  0  0  0  0  3  0  0  0  0  0  0
  -26.0630  -26.9190   19.6090 C   0  0  0  0  0  3  0  0  0  0  0  0
  -24.8830  -27.6910   19.6040 C   0  0  0  0  0  3  0  0  0  0  0  0
  -23.6330  -29.8360   20.2460 C   0  0  0  0  0  2  0  0  0  0  0  0
  -24.6890  -31.1120   22.1640 N   0  0  0  0  0  0  0  0  0  0  0  0
  -23.5510  -32.1910   23.8060 O   0  0  0  0  0  0  0  0  0  0  0  0
  -22.7670  -29.4990   22.5880 C   0  0  0  0  0  0  0  0  0  0  0  0
  -21.4400  -29.3200   22.4630 N   0  0  0  0  0  0  0  0  0  0  0  0
  -23.4480  -28.8760   23.4060 O   0  0  0  0  0  0  0  0  0  0  0  0
  -20.9500  -29.8770   21.7780 H   0  0  0  0  0  0  0  0  0  0  0  0
  -18.0680  -28.1140   22.9610 C   0  0  0  0  0  0  0  0  0  0  0  0
  -20.6240  -28.3810   23.2340 C   0  0  0  0  0  3  0  0  0  0  0  0
  -20.7320  -26.9490   22.6610 C   0  0  0  0  0  2  0  0  0  0  0  0
  -19.6320  -26.6210   21.6460 C   0  0  0  0  0  2  0  0  0  0  0  0
  -18.2500  -26.7630   22.2880 C   0  0  0  0  0  2  0  0  0  0  0  0
  -19.1840  -28.8800   23.3910 C   0  0  0  0  0  0  0  0  0  0  0  0
  -18.9610  -30.1430   23.9820 C   0  0  0  0  0  3  0  0  0  0  0  0
  -17.6540  -30.6420   24.1420 C   0  0  0  0  0  3  0  0  0  0  0  0
  -16.5530  -29.8730   23.7280 C   0  0  0  0  0  3  0  0  0  0  0  0
  -16.7600  -28.6110   23.1440 C   0  0  0  0  0  3  0  0  0  0  0  0
  -25.9170  -32.5480   23.8850 C   0  0  0  0  0  3  0  0  0  0  0  0
  -26.4320  -31.7810   25.1640 C   0  0  1  0  0  0  0  0  0  0  0  0
  -25.3410  -31.5530   26.2340 C   0  0  0  0  0  1  0  0  0  0  0  0
  -27.0090  -30.3990   24.7760 C   0  0  0  0  0  1  0  0  0  0  0  0
  -27.5880  -32.5730   25.8200 C   0  0  0  0  0  1  0  0  0  0  0  0
  -25.6120  -33.9490   24.2090 N   0  0  0  0  0  0  0  0  0  0  0  0
  -25.9480  -34.9970   23.4460 C   0  0  0  0  0  0  0  0  0  0  0  0
  -26.6170  -34.8880   22.4140 O   0  0  0  0  0  0  0  0  0  0  0  0
  -25.0190  -34.1090   25.0090 H   0  0  0  0  0  0  0  0  0  0  0  0
  -24.2240  -36.7940   23.0870 C   0  0  0  0  0  1  0  0  0  0  0  0
  -25.4660  -36.3900   23.8990 C   0  0  0  0  0  3  0  0  0  0  0  0
  -27.6050  -37.2710   24.7200 C   0  0  0  0  0  1  0  0  0  0  0  0
  -26.5010  -37.4390   23.7790 N   0  0  0  0  0  0  0  0  0  0  0  0
  -26.0980  -38.3610   23.9250 H   0  0  0  0  0  0  0  0  0  0  0  0
  2  1  1  0
  3  7  1  0
  3  5  1  0
  3  2  1  0
  4  3  1  0
  7  6  1  0
  7  8  1  0
  8 10  1  0
 10 11  1  0
 10  9  1  0
 12 11  1  0
 13 18  1  0
 14 15  1  0
 14 13  1  0
 16 15  1  0
 16 23  1  0
 16 17  1  0
 18 12  1  0
 18 17  1  0
 19 12  2  0
 20 21  2  0
 21 40  1  0
 22 21  1  0
 22 25  1  0
 23 20  1  0
 23 24  1  0
 24 22  2  0
 25 26  1  0
 26 27  2  0
 28 31  1  0
 28 27  1  0
 29 28  2  0
 30 29  1  0
 30 25  2  0
 31 32  1  0
 32 33  1  0
 33 34  2  0
 35 34  1  0
 35 39  1  0
 36 35  2  0
 37 32  2  0
 37 36  1  0
 38 37  1  0
 40 41  1  0
 41 44  1  0
 41 43  1  0
 42 40  2  0
 45 46  1  0
 45 20  1  0
 47 45  1  0
 48  2  1  0
 48 49  1  0
 50 52  1  0
 50 49  1  0
 51 62  2  0
 52 57  1  0
 53 61  1  0
 53 63  1  0
 54 60  1  0
 54 56  1  0
 55 61  1  0
 56 55  1  0
 57 56  2  0
 58 52  2  0
 59 58  1  0
 59 54  2  0
 60 53  1  0
 61 51  1  0
 63 65  2  0
 64 63  1  0
 66 64  1  0
 67 76  2  0
 67 72  1  0
 68 64  1  0
 68 72  1  0
 69 68  1  0
 70 71  1  0
 70 69  1  0
 71 67  1  0
 72 73  2  0
 73 74  1  0
 75 74  2  0
 76 75  1  0
 77 51  1  0
 77 82  1  0
 77 78  1  0
 78 81  1  1
 78 79  1  0
 80 78  1  0
 82 85  1  0
 83 87  1  0
 83 82  1  0
 84 83  2  0
 87 86  1  0
 89 87  1  0
 89 90  1  0
 89 88  1  0
M  ISO  4  11 100  12 100  49 101  50 101
M  END
>  <TORSDO>  (85) 
F 23

>  <SCORE>  (85) 
-12.709

>  <name>  (85) 
84

>  <ligand_id>  (85) 
84

>  <original_smiles>  (85) 
[H]c1c([H])c([H])c2c(c1[H])C([H])([H])C([H])([H])C([H])([H])C2([H])N([H])C(=O)C1([H])N(C(=O)C([H])(N([H])C(=O)C([H])(N([H])C([H])([H])[H])C([H])([H])[H])C(C([H])([H])[H])(C([H])([H])[H])C([H])([H])[H])C([H])([H])c2c([H])c(OC([H])([H])C([H])([H])C([H])(C([H])([H])[H])[N+]([H])([H])C([H])(C([H])([H])[H])C([H])([H])C([H])(C([H])([H])[H])C([H])([H])C(=O)N3C([H])([H])C([H])([H])C([H])([H])C([H])(n4nc(-c5c([H])c([H])c(Oc6c([H])c([H])c(F)c([H])c6F)c([H])c5[H])c(C(=O)N([H])[H])c4N([H])[H])C3([H])[H])c([H])c([H])c2C1([H])[H]

>  <smiles>  (85) 
[H]c1c([H])c([H])c2c(c1[H])C([H])([H])C([H])([H])C([H])([H])C2([H])N([H])C(=O)C1([H])N(C(=O)C([H])(N([H])C(=O)C([H])(N([H])C([H])([H])[H])C([H])([H])[H])C(C([H])([H])[H])(C([H])([H])[H])C([H])([H])[H])C([H])([H])c2c([H])c(OC([H])([H])C([H])([H])C([H])(C([H])([H])[H])[N+]([H])([H])C([H])(C([H])([H])[H])C([H])([H])C([H])(C([H])([H])[H])C([H])([H])C(=O)N3C([H])([H])C([H])([H])C([H])([H])C([H])(n4nc(-c5c([H])c([H])c(Oc6c([H])c([H])c(F)c([H])c6F)c([H])c5[H])c(C(=O)N([H])[H])c4N([H])[H])C3([H])[H])c([H])c([H])c2C1([H])[H]

$$$$
85:0:0
     RDKit          3D

 92100  0  0  1  0  0  0  0  0999 V2000
  -28.5410  -22.5280   21.4500 C   0  0  0  0  0  2  0  0  0  0  0  0
  -28.6490  -22.5080   19.0310 C   0  0  0  0  0  2  0  0  0  0  0  0
  -28.8090  -24.1030   21.3920 C   0  0  0  0  0  2  0  0  0  0  0  0
  -28.7580  -24.1180   19.0880 C   0  0  0  0  0  2  0  0  0  0  0  0
  -29.1390  -21.6360   20.2800 C   0  0  0  0  0  3  0  0  0  0  0  0
  -28.1400  -24.7950   20.2660 N   0  0  0  0  0  0  0  0  0  0  0  0
  -28.7690  -20.0870   20.3450 N   0  0  1  0  0  4  0  0  0  0  0  0
  -28.5780  -19.9490   21.3280 H   0  0  0  0  0  0  0  0  0  0  0  0
  -27.4710  -19.8820   19.6250 C   0  0  0  0  0  2  0  0  0  0  0  0
  -25.4650  -18.4630   18.9460 C   0  0  0  0  0  1  0  0  0  0  0  0
  -26.7550  -18.5280   19.8000 C   0  0  0  0  0  2  0  0  0  0  0  0
  -29.7810  -18.9110   20.0310 C   0  0  0  0  0  2  0  0  0  0  0  0
  -30.0110  -17.6140   21.0670 C   0  0  0  0  0  2  0  0  0  0  0  0
  -30.8380  -14.9910   20.6880 C   0  0  0  0  0  0  0  0  0  0  0  0
  -30.8300  -12.6240   19.8070 C   0  0  0  0  0  2  0  0  0  0  0  0
  -29.9610  -12.5190   18.5330 C   0  0  0  0  0  2  0  0  0  0  0  0
  -28.4700  -12.3340   18.8860 C   0  0  0  0  0  2  0  0  0  0  0  0
  -27.9930  -13.3130   19.9890 C   0  0  0  0  0  3  0  0  0  0  0  0
  -28.9750  -13.3450   21.1780 C   0  0  0  0  0  2  0  0  0  0  0  0
  -30.2820  -13.7240   20.6360 N   0  0  0  0  0  0  0  0  0  0  0  0
  -32.0590  -15.1080   20.5500 O   0  0  0  0  0  0  0  0  0  0  0  0
  -29.9570  -16.0930   20.6940 N   0  0  0  0  0  0  0  0  0  0  0  0
  -29.0070  -15.7620   20.6470 H   0  0  0  0  0  0  0  0  0  0  0  0
  -25.5770  -13.9360   20.5660 C   0  0  0  0  0  0  0  0  0  0  0  0
  -24.4820  -13.1760   20.8820 C   0  0  0  0  0  0  0  0  0  0  0  0
  -24.9390  -11.8220   20.9090 C   0  0  0  0  0  0  0  0  0  0  0  0
  -26.6240  -13.0440   20.4090 N   0  0  0  0  0  0  0  0  0  0  0  0
  -26.2460  -11.7700   20.6860 N   0  0  0  0  0  0  0  0  0  0  0  0
  -24.1930  -10.5670   21.0760 C   0  0  0  0  0  0  0  0  0  0  0  0
  -24.5770   -9.5960   22.0270 C   0  0  0  0  0  3  0  0  0  0  0  0
  -23.8290   -8.4090   22.1790 C   0  0  0  0  0  3  0  0  0  0  0  0
  -22.6840   -8.1810   21.3780 C   0  0  0  0  0  0  0  0  0  0  0  0
  -22.3210   -9.1410   20.4160 C   0  0  0  0  0  3  0  0  0  0  0  0
  -23.0690  -10.3210   20.2630 C   0  0  0  0  0  3  0  0  0  0  0  0
  -21.9110   -7.0470   21.4400 O   0  0  0  0  0  0  0  0  0  0  0  0
  -21.8250   -6.2940   22.5840 C   0  0  0  0  0  0  0  0  0  0  0  0
  -21.3970   -6.8490   23.8100 C   0  0  0  0  0  3  0  0  0  0  0  0
  -21.2570   -6.0270   24.9460 C   0  0  0  0  0  3  0  0  0  0  0  0
  -21.5320   -4.6490   24.8550 C   0  0  0  0  0  0  0  0  0  0  0  0
  -21.9510   -4.0920   23.6350 C   0  0  0  0  0  3  0  0  0  0  0  0
  -22.0910   -4.9120   22.5010 C   0  0  0  0  0  0  0  0  0  0  0  0
  -22.4730   -4.3660   21.3230 F   0  0  0  0  0  0  0  0  0  0  0  0
  -21.3910   -3.8580   25.9450 F   0  0  0  0  0  0  0  0  0  0  0  0
  -23.0740  -13.6680   21.0480 C   0  0  0  0  0  0  0  0  0  0  0  0
  -22.2900  -12.9940   21.8850 N   0  0  0  0  0  0  0  0  0  0  0  0
  -22.6730  -14.6800   20.4740 O   0  0  0  0  0  0  0  0  0  0  0  0
  -22.6240  -12.1680   22.3590 H   0  0  0  0  0  0  0  0  0  0  0  0
  -21.3430  -13.3020   22.0500 H   0  0  0  0  0  0  0  0  0  0  0  0
  -25.7670  -15.3010   20.3750 N   0  0  0  0  0  0  0  0  0  0  0  0
  -25.0260  -15.9850   20.4660 H   0  0  0  0  0  0  0  0  0  0  0  0
  -26.6370  -15.7110   20.0610 H   0  0  0  0  0  0  0  0  0  0  0  0
  -28.4870  -26.3220   20.2920 O   0  0  0  0  0  0  0  0  0  0  0  0
  -24.6830  -31.8630   23.2390 C   0  0  0  0  0  0  0  0  0  0  0  0
  -27.3860  -27.2290   20.2720 C   0  0  0  0  0  0  0  0  0  0  0  0
  -23.5330  -30.4430   21.5830 C   0  0  0  0  0  3  0  0  0  0  0  0
  -25.0290  -28.8830   20.1990 C   0  0  0  0  0  0  0  0  0  0  0  0
  -26.0810  -30.7580   21.4590 C   0  0  0  0  0  2  0  0  0  0  0  0
  -26.1850  -29.3680   20.8230 C   0  0  0  0  0  0  0  0  0  0  0  0
  -27.3670  -28.5480   20.8530 C   0  0  0  0  0  3  0  0  0  0  0  0
  -26.2110  -26.8300   19.6050 C   0  0  0  0  0  3  0  0  0  0  0  0
  -25.0440  -27.6230   19.5820 C   0  0  0  0  0  3  0  0  0  0  0  0
  -23.7860  -29.7570   20.2160 C   0  0  0  0  0  2  0  0  0  0  0  0
  -24.7850  -31.0430   22.1490 N   0  0  0  0  0  0  0  0  0  0  0  0
  -23.5840  -32.1300   23.7460 O   0  0  0  0  0  0  0  0  0  0  0  0
  -22.8550  -29.4280   22.5370 C   0  0  0  0  0  0  0  0  0  0  0  0
  -21.5260  -29.2670   22.4110 N   0  0  0  0  0  0  0  0  0  0  0  0
  -23.5240  -28.7880   23.3520 O   0  0  0  0  0  0  0  0  0  0  0  0
  -21.0450  -29.8410   21.7340 H   0  0  0  0  0  0  0  0  0  0  0  0
  -18.1320  -28.1110   22.9170 C   0  0  0  0  0  0  0  0  0  0  0  0
  -20.6960  -28.3290   23.1730 C   0  0  0  0  0  3  0  0  0  0  0  0
  -20.7690  -26.9050   22.5780 C   0  0  0  0  0  2  0  0  0  0  0  0
  -19.6550  -26.6130   21.5670 C   0  0  0  0  0  2  0  0  0  0  0  0
  -18.2790  -26.7730   22.2200 C   0  0  0  0  0  2  0  0  0  0  0  0
  -19.2630  -28.8500   23.3510 C   0  0  0  0  0  0  0  0  0  0  0  0
  -19.0700  -30.1050   23.9670 C   0  0  0  0  0  3  0  0  0  0  0  0
  -17.7740  -30.6220   24.1510 C   0  0  0  0  0  3  0  0  0  0  0  0
  -16.6540  -29.8790   23.7360 C   0  0  0  0  0  3  0  0  0  0  0  0
  -16.8350  -28.6260   23.1250 C   0  0  0  0  0  3  0  0  0  0  0  0
  -25.9390  -32.5180   23.8880 C   0  0  0  0  0  3  0  0  0  0  0  0
  -25.6020  -33.9170   24.1950 N   0  0  0  0  0  0  0  0  0  0  0  0
  -25.9410  -34.9700   23.4420 C   0  0  0  0  0  0  0  0  0  0  0  0
  -26.6410  -34.8690   22.4320 O   0  0  0  0  0  0  0  0  0  0  0  0
  -24.9860  -34.0700   24.9820 H   0  0  0  0  0  0  0  0  0  0  0  0
  -24.1970  -36.7410   23.0440 C   0  0  0  0  0  1  0  0  0  0  0  0
  -25.4250  -36.3550   23.8840 C   0  0  0  0  0  3  0  0  0  0  0  0
  -27.5360  -37.2630   24.7450 C   0  0  0  0  0  1  0  0  0  0  0  0
  -26.4440  -37.4220   23.7860 N   0  0  0  0  0  0  0  0  0  0  0  0
  -26.0270  -38.3340   23.9360 H   0  0  0  0  0  0  0  0  0  0  0  0
  -26.4270  -31.7710   25.1890 C   0  0  1  0  0  0  0  0  0  0  0  0
  -25.3010  -31.5390   26.2280 C   0  0  0  0  0  1  0  0  0  0  0  0
  -27.0290  -30.3930   24.8340 C   0  0  0  0  0  1  0  0  0  0  0  0
  -27.5630  -32.5760   25.8630 C   0  0  0  0  0  1  0  0  0  0  0  0
  2  4  1  0
  2  5  1  0
  3  1  1  0
  4  6  1  0
  5  7  1  0
  5  1  1  0
  6 52  1  0
  6  3  1  0
  7  8  1  1
  9 11  1  0
  9  7  1  0
 10 11  1  0
 12  7  1  0
 12 13  1  0
 14 22  1  0
 15 20  1  0
 16 17  1  0
 16 15  1  0
 18 17  1  0
 18 27  1  0
 18 19  1  0
 20 14  1  0
 20 19  1  0
 21 14  2  0
 22 13  1  0
 23 22  1  0
 24 25  2  0
 25 26  1  0
 25 44  1  0
 26 29  1  0
 27 24  1  0
 27 28  1  0
 28 26  2  0
 29 30  1  0
 30 31  2  0
 32 35  1  0
 32 31  1  0
 33 32  2  0
 34 33  1  0
 34 29  2  0
 35 36  1  0
 36 37  1  0
 37 38  2  0
 39 38  1  0
 39 43  1  0
 40 39  2  0
 41 36  2  0
 41 40  1  0
 42 41  1  0
 44 45  1  0
 45 48  1  0
 45 47  1  0
 46 44  2  0
 49 50  1  0
 49 24  1  0
 51 49  1  0
 53 64  2  0
 54 52  1  0
 54 59  1  0
 55 63  1  0
 55 65  1  0
 56 62  1  0
 56 58  1  0
 57 63  1  0
 58 59  2  0
 58 57  1  0
 60 54  2  0
 61 60  1  0
 61 56  2  0
 62 55  1  0
 63 53  1  0
 65 67  2  0
 66 65  1  0
 68 66  1  0
 69 78  2  0
 69 74  1  0
 70 66  1  0
 70 74  1  0
 71 70  1  0
 72 73  1  0
 72 71  1  0
 73 69  1  0
 74 75  2  0
 75 76  1  0
 77 76  2  0
 78 77  1  0
 79 53  1  0
 79 80  1  0
 79 89  1  0
 80 83  1  0
 81 85  1  0
 81 80  1  0
 82 81  2  0
 85 84  1  0
 87 85  1  0
 87 88  1  0
 87 86  1  0
 89 92  1  1
 89 90  1  0
 91 89  1  0
M  ISO  4   6 101  14 100  22 100  52 101
M  END
>  <TORSDO>  (86) 
F 21

>  <SCORE>  (86) 
-12.424

>  <name>  (86) 
85

>  <ligand_id>  (86) 
85

>  <original_smiles>  (86) 
[H]c1c([H])c([H])c2c(c1[H])C([H])([H])C([H])([H])C([H])([H])C2([H])N([H])C(=O)C1([H])N(C(=O)C([H])(N([H])C(=O)C([H])(N([H])C([H])([H])[H])C([H])([H])[H])C(C([H])([H])[H])(C([H])([H])[H])C([H])([H])[H])C([H])([H])c2c([H])c(ON3C([H])([H])C([H])([H])C([H])([N+]([H])(C([H])([H])C([H])([H])N([H])C(=O)N4C([H])([H])C([H])([H])C([H])([H])C([H])(n5nc(-c6c([H])c([H])c(Oc7c([H])c([H])c(F)c([H])c7F)c([H])c6[H])c(C(=O)N([H])[H])c5N([H])[H])C4([H])[H])C([H])([H])C([H])([H])C([H])([H])[H])C([H])([H])C3([H])[H])c([H])c([H])c2C1([H])[H]

>  <smiles>  (86) 
[H]c1c([H])c([H])c2c(c1[H])C([H])([H])C([H])([H])C([H])([H])C2([H])N([H])C(=O)C1([H])N(C(=O)C([H])(N([H])C(=O)C([H])(N([H])C([H])([H])[H])C([H])([H])[H])C(C([H])([H])[H])(C([H])([H])[H])C([H])([H])[H])C([H])([H])c2c([H])c(ON3C([H])([H])C([H])([H])C([H])([N+]([H])(C([H])([H])C([H])([H])N([H])C(=O)N4C([H])([H])C([H])([H])C([H])([H])C([H])(n5nc(-c6c([H])c([H])c(Oc7c([H])c([H])c(F)c([H])c7F)c([H])c6[H])c(C(=O)N([H])[H])c5N([H])[H])C4([H])[H])C([H])([H])C([H])([H])C([H])([H])[H])C([H])([H])C3([H])[H])c([H])c([H])c2C1([H])[H]

$$$$
86:0:0
     RDKit          3D

 97105  0  0  1  0  0  0  0  0999 V2000
  -28.3820  -21.4370   23.7170 C   0  0  0  0  0  1  0  0  0  0  0  0
  -27.7920  -21.8550   22.3560 C   0  0  0  0  0  3  0  0  0  0  0  0
  -27.9870  -23.3080   22.1240 N   0  0  0  0  0  4  0  0  0  0  0  0
  -27.8810  -23.7470   23.0240 H   0  0  0  0  0  0  0  0  0  0  0  0
  -28.9270  -23.5020   21.8150 H   0  0  0  0  0  0  0  0  0  0  0  0
  -27.0190  -23.9760   21.2220 C   0  0  0  0  0  2  0  0  0  0  0  0
  -26.9800  -25.4980   21.4800 C   0  0  0  0  0  2  0  0  0  0  0  0
  -25.9830  -26.2540   20.5860 C   0  0  0  0  0  2  0  0  0  0  0  0
  -26.2300  -27.6620   20.6530 O   0  0  0  0  0  0  0  0  0  0  0  0
  -28.2670  -32.6430   25.2890 C   0  0  0  0  0  0  0  0  0  0  0  0
  -25.8780  -28.3830   21.7740 C   0  0  0  0  0  0  0  0  0  0  0  0
  -26.1420  -31.4970   25.8230 C   0  0  0  0  0  3  0  0  0  0  0  0
  -25.1890  -30.0140   23.9820 C   0  0  0  0  0  0  0  0  0  0  0  0
  -26.9330  -31.7090   23.4010 C   0  0  0  0  0  2  0  0  0  0  0  0
  -26.2140  -30.4080   23.1140 C   0  0  0  0  0  0  0  0  0  0  0  0
  -26.5550  -29.6000   22.0080 C   0  0  0  0  0  3  0  0  0  0  0  0
  -24.8530  -27.9930   22.6690 C   0  0  0  0  0  3  0  0  0  0  0  0
  -24.5050  -28.8050   23.7650 C   0  0  0  0  0  3  0  0  0  0  0  0
  -24.8690  -30.9450   25.1300 C   0  0  0  0  0  2  0  0  0  0  0  0
  -27.1770  -31.9570   24.8420 N   0  0  0  0  0  0  0  0  0  0  0  0
  -28.3980  -32.9290   26.4860 O   0  0  0  0  0  0  0  0  0  0  0  0
  -26.6650  -30.4290   26.8110 C   0  0  0  0  0  0  0  0  0  0  0  0
  -26.1520  -30.4590   28.0520 N   0  0  0  0  0  0  0  0  0  0  0  0
  -27.4880  -29.5840   26.4510 O   0  0  0  0  0  0  0  0  0  0  0  0
  -25.4880  -31.1900   28.2690 H   0  0  0  0  0  0  0  0  0  0  0  0
  -25.5450  -29.7490   31.5430 C   0  0  0  0  0  0  0  0  0  0  0  0
  -26.4640  -29.5290   29.1370 C   0  0  0  0  0  3  0  0  0  0  0  0
  -25.6070  -28.2470   29.0350 C   0  0  0  0  0  2  0  0  0  0  0  0
  -24.3150  -28.3190   29.8550 C   0  0  0  0  0  2  0  0  0  0  0  0
  -24.6330  -28.5520   31.3370 C   0  0  0  0  0  2  0  0  0  0  0  0
  -26.3940  -30.2170   30.5050 C   0  0  0  0  0  0  0  0  0  0  0  0
  -27.1960  -31.3560   30.7340 C   0  0  0  0  0  3  0  0  0  0  0  0
  -27.1630  -32.0200   31.9750 C   0  0  0  0  0  3  0  0  0  0  0  0
  -26.3350  -31.5420   33.0060 C   0  0  0  0  0  3  0  0  0  0  0  0
  -25.5320  -30.4080   32.7910 C   0  0  0  0  0  3  0  0  0  0  0  0
  -29.3900  -33.1190   24.3150 C   0  0  0  0  0  3  0  0  0  0  0  0
  -29.7890  -34.4720   24.7270 N   0  0  0  0  0  0  0  0  0  0  0  0
  -29.3490  -35.6010   24.1550 C   0  0  0  0  0  0  0  0  0  0  0  0
  -28.6090  -35.6080   23.1680 O   0  0  0  0  0  0  0  0  0  0  0  0
  -30.3450  -34.5420   25.5660 H   0  0  0  0  0  0  0  0  0  0  0  0
  -28.6810  -37.4860   25.6820 C   0  0  0  0  0  1  0  0  0  0  0  0
  -29.7980  -36.9360   24.7810 C   0  0  0  0  0  3  0  0  0  0  0  0
  -31.3970  -37.6190   23.0470 C   0  0  0  0  0  1  0  0  0  0  0  0
  -30.1790  -37.9560   23.7790 N   0  0  0  0  0  0  0  0  0  0  0  0
  -30.3140  -38.8630   24.2200 H   0  0  0  0  0  0  0  0  0  0  0  0
  -30.6370  -32.1540   24.2820 C   0  0  1  0  0  0  0  0  0  0  0  0
  -31.1780  -31.7890   25.6840 C   0  0  0  0  0  1  0  0  0  0  0  0
  -30.2840  -30.8360   23.5520 C   0  0  0  0  0  1  0  0  0  0  0  0
  -31.7850  -32.8090   23.4790 C   0  0  0  0  0  1  0  0  0  0  0  0
  -28.2790  -20.9380   21.2020 C   0  0  0  0  0  2  0  0  0  0  0  0
  -29.5890  -21.3580   20.4910 C   0  0  0  0  0  2  0  0  0  0  0  0
  -32.2060  -18.1840   19.0250 C   0  0  0  0  0  3  0  0  0  0  0  0
  -32.6570  -19.5130   19.0950 C   0  0  0  0  0  3  0  0  0  0  0  0
  -30.0260  -18.8860   19.8590 C   0  0  0  0  0  3  0  0  0  0  0  0
  -30.4770  -20.2280   19.9470 C   0  0  0  0  0  0  0  0  0  0  0  0
  -30.8850  -17.8640   19.4020 C   0  0  0  0  0  0  0  0  0  0  0  0
  -31.8030  -20.5450   19.5550 C   0  0  0  0  0  0  0  0  0  0  0  0
  -31.1600  -15.4490   19.0210 C   0  0  0  0  0  0  0  0  0  0  0  0
  -31.2560  -12.9860   18.9030 C   0  0  0  0  0  2  0  0  0  0  0  0
  -30.3630  -12.4460   17.7720 C   0  0  0  0  0  2  0  0  0  0  0  0
  -28.9190  -12.2430   18.2700 C   0  0  0  0  0  2  0  0  0  0  0  0
  -28.3650  -13.4870   19.0130 C   0  0  0  0  0  3  0  0  0  0  0  0
  -29.3750  -13.9960   20.0680 C   0  0  0  0  0  2  0  0  0  0  0  0
  -30.6620  -14.2390   19.3900 N   0  0  0  0  0  0  0  0  0  0  0  0
  -32.1870  -15.5750   18.3450 O   0  0  0  0  0  0  0  0  0  0  0  0
  -30.4390  -16.5170   19.3970 N   0  0  0  0  0  0  0  0  0  0  0  0
  -29.5220  -16.3310   19.7740 H   0  0  0  0  0  0  0  0  0  0  0  0
  -26.0370  -14.0960   19.9280 C   0  0  0  0  0  0  0  0  0  0  0  0
  -25.0010  -13.3240   20.3810 C   0  0  0  0  0  0  0  0  0  0  0  0
  -25.4510  -11.9700   20.2960 C   0  0  0  0  0  0  0  0  0  0  0  0
  -27.0550  -13.2150   19.6030 N   0  0  0  0  0  0  0  0  0  0  0  0
  -26.7100  -11.9310   19.8780 N   0  0  0  0  0  0  0  0  0  0  0  0
  -24.7390  -10.7100   20.5350 C   0  0  0  0  0  0  0  0  0  0  0  0
  -25.1550   -9.8050   21.5370 C   0  0  0  0  0  3  0  0  0  0  0  0
  -24.4420   -8.6060   21.7600 C   0  0  0  0  0  3  0  0  0  0  0  0
  -23.3000   -8.3040   20.9810 C   0  0  0  0  0  0  0  0  0  0  0  0
  -22.9050   -9.1960   19.9690 C   0  0  0  0  0  3  0  0  0  0  0  0
  -23.6180  -10.3870   19.7440 C   0  0  0  0  0  3  0  0  0  0  0  0
  -22.5620   -7.1520   21.1090 O   0  0  0  0  0  0  0  0  0  0  0  0
  -22.3620   -6.5580   22.3290 C   0  0  0  0  0  0  0  0  0  0  0  0
  -21.7690   -7.2510   23.4080 C   0  0  0  0  0  3  0  0  0  0  0  0
  -21.5190   -6.5810   24.6220 C   0  0  0  0  0  3  0  0  0  0  0  0
  -21.8490   -5.2190   24.7570 C   0  0  0  0  0  0  0  0  0  0  0  0
  -22.4340   -4.5270   23.6830 C   0  0  0  0  0  3  0  0  0  0  0  0
  -22.6870   -5.1930   22.4710 C   0  0  0  0  0  0  0  0  0  0  0  0
  -23.2310   -4.5160   21.4320 F   0  0  0  0  0  0  0  0  0  0  0  0
  -21.6020   -4.5740   25.9210 F   0  0  0  0  0  0  0  0  0  0  0  0
  -23.6340  -13.8030   20.7790 C   0  0  0  0  0  0  0  0  0  0  0  0
  -23.0180  -13.1500   21.7590 N   0  0  0  0  0  0  0  0  0  0  0  0
  -23.1250  -14.7920   20.2530 O   0  0  0  0  0  0  0  0  0  0  0  0
  -23.4460  -12.3520   22.2040 H   0  0  0  0  0  0  0  0  0  0  0  0
  -22.1060  -13.4550   22.0680 H   0  0  0  0  0  0  0  0  0  0  0  0
  -26.1920  -15.4680   19.7520 N   0  0  0  0  0  0  0  0  0  0  0  0
  -25.4410  -16.1250   19.9300 H   0  0  0  0  0  0  0  0  0  0  0  0
  -27.0150  -15.9050   19.3560 H   0  0  0  0  0  0  0  0  0  0  0  0
  -33.5170  -22.2080   19.2400 C   0  0  0  0  0  1  0  0  0  0  0  0
  -32.1990  -21.8640   19.6530 O   0  0  0  0  0  0  0  0  0  0  0  0
  2  1  1  0
  3  2  1  0
  3  4  1  0
  5  3  1  0
  6  7  1  0
  6  3  1  0
  8  9  1  0
  8  7  1  0
  9 11  1  0
 10 21  2  0
 11 16  2  0
 11 17  1  0
 12 22  1  0
 13 19  1  0
 14 20  1  0
 15 14  1  0
 15 13  2  0
 16 15  1  0
 17 18  2  0
 18 13  1  0
 19 12  1  0
 20 10  1  0
 20 12  1  0
 22 23  1  0
 23 25  1  0
 24 22  2  0
 26 35  1  0
 27 23  1  0
 27 31  1  0
 28 27  1  0
 28 29  1  0
 29 30  1  0
 30 26  1  0
 31 32  1  0
 31 26  2  0
 32 33  2  0
 33 34  1  0
 35 34  2  0
 36 37  1  0
 36 10  1  0
 37 40  1  0
 38 37  1  0
 38 42  1  0
 39 38  2  0
 42 41  1  0
 43 44  1  0
 44 45  1  0
 44 42  1  0
 46 36  1  0
 46 47  1  1
 48 46  1  0
 49 46  1  0
 50  2  1  0
 51 50  1  0
 52 53  2  0
 52 56  1  0
 53 57  1  0
 54 55  1  0
 55 51  1  0
 56 54  2  0
 57 97  1  0
 57 55  2  0
 58 64  1  0
 58 66  1  0
 59 64  1  0
 60 61  1  0
 60 59  1  0
 62 61  1  0
 62 71  1  0
 62 63  1  0
 64 63  1  0
 65 58  2  0
 66 56  1  0
 66 67  1  0
 68 69  2  0
 69 88  1  0
 70 69  1  0
 70 73  1  0
 71 72  1  0
 71 68  1  0
 72 70  2  0
 73 74  1  0
 74 75  2  0
 76 79  1  0
 76 75  1  0
 77 76  2  0
 78 77  1  0
 78 73  2  0
 79 80  1  0
 80 85  2  0
 80 81  1  0
 81 82  2  0
 82 83  1  0
 83 87  1  0
 84 83  2  0
 85 84  1  0
 86 85  1  0
 88 89  1  0
 89 92  1  0
 89 91  1  0
 90 88  2  0
 93 68  1  0
 93 94  1  0
 95 93  1  0
 96 97  1  0
M  ISO  4   8 101   9 101  58 100  66 100
M  END
>  <TORSDO>  (87) 
F 24

>  <SCORE>  (87) 
-3.334

>  <name>  (87) 
86

>  <ligand_id>  (87) 
86

>  <original_smiles>  (87) 
[H]c1c([H])c([H])c2c(c1[H])C([H])([H])C([H])([H])C([H])([H])C2([H])N([H])C(=O)C1([H])N(C(=O)C([H])(N([H])C(=O)C([H])(N([H])C([H])([H])[H])C([H])([H])[H])C(C([H])([H])[H])(C([H])([H])[H])C([H])([H])[H])C([H])([H])c2c([H])c(OC([H])([H])C([H])([H])C([H])([H])[N+]([H])([H])C([H])(C([H])([H])[H])C([H])([H])C([H])([H])c3c([H])c(N([H])C(=O)N4C([H])([H])C([H])([H])C([H])([H])C([H])(n5nc(-c6c([H])c([H])c(Oc7c([H])c([H])c(F)c([H])c7F)c([H])c6[H])c(C(=O)N([H])[H])c5N([H])[H])C4([H])[H])c([H])c([H])c3OC([H])([H])[H])c([H])c([H])c2C1([H])[H]

>  <smiles>  (87) 
[H]c1c([H])c([H])c2c(c1[H])C([H])([H])C([H])([H])C([H])([H])C2([H])N([H])C(=O)C1([H])N(C(=O)C([H])(N([H])C(=O)C([H])(N([H])C([H])([H])[H])C([H])([H])[H])C(C([H])([H])[H])(C([H])([H])[H])C([H])([H])[H])C([H])([H])c2c([H])c(OC([H])([H])C([H])([H])C([H])([H])[N+]([H])([H])C([H])(C([H])([H])[H])C([H])([H])C([H])([H])c3c([H])c(N([H])C(=O)N4C([H])([H])C([H])([H])C([H])([H])C([H])(n5nc(-c6c([H])c([H])c(Oc7c([H])c([H])c(F)c([H])c7F)c([H])c6[H])c(C(=O)N([H])[H])c5N([H])[H])C4([H])[H])c([H])c([H])c3OC([H])([H])[H])c([H])c([H])c2C1([H])[H]

$$$$
87:0:0
     RDKit          3D

 91 99  0  0  1  0  0  0  0  0999 V2000
  -30.4570  -21.1500   21.9820 C   0  0  0  0  0  2  0  0  0  0  0  0
  -30.2090  -17.8480   19.9550 C   0  0  0  0  0  2  0  0  0  0  0  0
  -30.2710  -17.3280   22.3920 C   0  0  0  0  0  2  0  0  0  0  0  0
  -30.5640  -19.3220   20.2770 C   0  0  0  0  0  2  0  0  0  0  0  0
  -30.6270  -18.8020   22.6780 C   0  0  0  0  0  2  0  0  0  0  0  0
  -30.7710  -16.8690   21.0110 C   0  0  0  0  0  3  0  0  0  0  0  0
  -30.1130  -19.7370   21.6360 N   0  0  1  0  0  4  0  0  0  0  0  0
  -29.1060  -19.6710   21.6580 H   0  0  0  0  0  0  0  0  0  0  0  0
  -31.0010  -14.5280   20.0800 C   0  0  0  0  0  0  0  0  0  0  0  0
  -30.6540  -12.3750   18.9240 C   0  0  0  0  0  2  0  0  0  0  0  0
  -29.6430  -12.5660   17.7750 C   0  0  0  0  0  2  0  0  0  0  0  0
  -28.1940  -12.4310   18.2840 C   0  0  0  0  0  2  0  0  0  0  0  0
  -27.9250  -13.2790   19.5560 C   0  0  0  0  0  3  0  0  0  0  0  0
  -29.0330  -13.0430   20.6060 C   0  0  0  0  0  2  0  0  0  0  0  0
  -30.3290  -13.3510   19.9720 N   0  0  0  0  0  0  0  0  0  0  0  0
  -32.0720  -14.7530   19.5090 O   0  0  0  0  0  0  0  0  0  0  0  0
  -30.3560  -15.4800   20.7760 N   0  0  0  0  0  0  0  0  0  0  0  0
  -29.4810  -15.1900   21.1840 H   0  0  0  0  0  0  0  0  0  0  0  0
  -25.5830  -13.9120   20.4190 C   0  0  0  0  0  0  0  0  0  0  0  0
  -24.5230  -13.1480   20.8290 C   0  0  0  0  0  0  0  0  0  0  0  0
  -24.9540  -11.7900   20.7300 C   0  0  0  0  0  0  0  0  0  0  0  0
  -26.5950  -13.0190   20.1020 N   0  0  0  0  0  0  0  0  0  0  0  0
  -26.2210  -11.7360   20.3430 N   0  0  0  0  0  0  0  0  0  0  0  0
  -24.2160  -10.5350   20.9260 C   0  0  0  0  0  0  0  0  0  0  0  0
  -24.6160   -9.5870   21.8920 C   0  0  0  0  0  3  0  0  0  0  0  0
  -23.8800   -8.3960   22.0740 C   0  0  0  0  0  3  0  0  0  0  0  0
  -22.7300   -8.1460   21.2880 C   0  0  0  0  0  0  0  0  0  0  0  0
  -22.3500   -9.0820   20.3100 C   0  0  0  0  0  3  0  0  0  0  0  0
  -23.0870  -10.2640   20.1270 C   0  0  0  0  0  3  0  0  0  0  0  0
  -21.9680   -7.0060   21.3770 O   0  0  0  0  0  0  0  0  0  0  0  0
  -21.7730   -6.3630   22.5730 C   0  0  0  0  0  0  0  0  0  0  0  0
  -21.1650   -7.0050   23.6750 C   0  0  0  0  0  3  0  0  0  0  0  0
  -20.9200   -6.2870   24.8620 C   0  0  0  0  0  3  0  0  0  0  0  0
  -21.2720   -4.9260   24.9470 C   0  0  0  0  0  0  0  0  0  0  0  0
  -21.8710   -4.2830   23.8490 C   0  0  0  0  0  3  0  0  0  0  0  0
  -22.1180   -4.9990   22.6650 C   0  0  0  0  0  0  0  0  0  0  0  0
  -22.6770   -4.3690   21.6040 F   0  0  0  0  0  0  0  0  0  0  0  0
  -21.0290   -4.2330   26.0840 F   0  0  0  0  0  0  0  0  0  0  0  0
  -23.1540  -13.6410   21.2000 C   0  0  0  0  0  0  0  0  0  0  0  0
  -22.4730  -12.9390   22.1000 N   0  0  0  0  0  0  0  0  0  0  0  0
  -22.7000  -14.6830   20.7290 O   0  0  0  0  0  0  0  0  0  0  0  0
  -22.8530  -12.0950   22.5010 H   0  0  0  0  0  0  0  0  0  0  0  0
  -21.5570  -13.2520   22.3920 H   0  0  0  0  0  0  0  0  0  0  0  0
  -25.7650  -15.2840   20.2720 N   0  0  0  0  0  0  0  0  0  0  0  0
  -25.0170  -15.9490   20.4360 H   0  0  0  0  0  0  0  0  0  0  0  0
  -26.5990  -15.7130   19.8920 H   0  0  0  0  0  0  0  0  0  0  0  0
  -29.9310  -22.2480   21.0140 C   0  0  0  0  0  2  0  0  0  0  0  0
  -30.2680  -23.6600   21.5510 C   0  0  0  0  0  2  0  0  0  0  0  0
  -30.0620  -24.8590   20.5930 C   0  0  0  0  0  2  0  0  0  0  0  0
  -28.6190  -25.3910   20.4600 C   0  0  0  0  0  2  0  0  0  0  0  0
  -28.6640  -26.7670   20.0610 O   0  0  0  0  0  0  0  0  0  0  0  0
  -24.7140  -31.7470   23.2630 C   0  0  0  0  0  0  0  0  0  0  0  0
  -27.4690  -27.4530   20.0810 C   0  0  0  0  0  0  0  0  0  0  0  0
  -23.5470  -30.3760   21.5660 C   0  0  0  0  0  3  0  0  0  0  0  0
  -25.0410  -28.9040   20.1130 C   0  0  0  0  0  0  0  0  0  0  0  0
  -26.0670  -30.7870   21.4010 C   0  0  0  0  0  2  0  0  0  0  0  0
  -26.1840  -29.4390   20.7220 C   0  0  0  0  0  0  0  0  0  0  0  0
  -27.4020  -28.7230   20.6960 C   0  0  0  0  0  3  0  0  0  0  0  0
  -26.3080  -26.9260   19.4740 C   0  0  0  0  0  3  0  0  0  0  0  0
  -25.0980  -27.6470   19.4860 C   0  0  0  0  0  3  0  0  0  0  0  0
  -23.7810  -29.7380   20.1700 C   0  0  0  0  0  2  0  0  0  0  0  0
  -24.7940  -30.9830   22.1360 N   0  0  0  0  0  0  0  0  0  0  0  0
  -23.6240  -31.9830   23.8010 O   0  0  0  0  0  0  0  0  0  0  0  0
  -22.9050  -29.3150   22.4890 C   0  0  0  0  0  0  0  0  0  0  0  0
  -21.5910  -29.0940   22.3220 N   0  0  0  0  0  0  0  0  0  0  0  0
  -23.5870  -28.6940   23.3100 O   0  0  0  0  0  0  0  0  0  0  0  0
  -21.1020  -29.6510   21.6350 H   0  0  0  0  0  0  0  0  0  0  0  0
  -18.2470  -27.7770   22.6910 C   0  0  0  0  0  0  0  0  0  0  0  0
  -20.7840  -28.1150   23.0500 C   0  0  0  0  0  3  0  0  0  0  0  0
  -20.9530  -26.6990   22.4530 C   0  0  0  0  0  2  0  0  0  0  0  0
  -19.8950  -26.3570   21.3990 C   0  0  0  0  0  2  0  0  0  0  0  0
  -18.4900  -26.4450   22.0000 C   0  0  0  0  0  2  0  0  0  0  0  0
  -19.3250  -28.5680   23.1700 C   0  0  0  0  0  0  0  0  0  0  0  0
  -19.0450  -29.8130   23.7730 C   0  0  0  0  0  3  0  0  0  0  0  0
  -17.7190  -30.2680   23.9050 C   0  0  0  0  0  3  0  0  0  0  0  0
  -16.6550  -29.4740   23.4440 C   0  0  0  0  0  3  0  0  0  0  0  0
  -16.9200  -28.2310   22.8430 C   0  0  0  0  0  3  0  0  0  0  0  0
  -25.9840  -32.3790   23.9160 C   0  0  0  0  0  3  0  0  0  0  0  0
  -25.6510  -33.7610   24.2820 N   0  0  0  0  0  0  0  0  0  0  0  0
  -25.9910  -34.8410   23.5660 C   0  0  0  0  0  0  0  0  0  0  0  0
  -26.6890  -34.7790   22.5510 O   0  0  0  0  0  0  0  0  0  0  0  0
  -25.0330  -33.8840   25.0720 H   0  0  0  0  0  0  0  0  0  0  0  0
  -24.2640  -36.6340   23.2060 C   0  0  0  0  0  1  0  0  0  0  0  0
  -25.4740  -36.2090   24.0540 C   0  0  0  0  0  3  0  0  0  0  0  0
  -27.5620  -37.0790   25.0070 C   0  0  0  0  0  1  0  0  0  0  0  0
  -26.5020  -37.2720   24.0220 N   0  0  0  0  0  0  0  0  0  0  0  0
  -26.0820  -38.1840   24.1820 H   0  0  0  0  0  0  0  0  0  0  0  0
  -26.5030  -31.5770   25.1710 C   0  0  1  0  0  0  0  0  0  0  0  0
  -25.4020  -31.2690   26.2120 C   0  0  0  0  0  1  0  0  0  0  0  0
  -27.1310  -30.2320   24.7380 C   0  0  0  0  0  1  0  0  0  0  0  0
  -27.6220  -32.3780   25.8800 C   0  0  0  0  0  1  0  0  0  0  0  0
  2  4  1  0
  2  6  1  0
  3  5  1  0
  4  7  1  0
  6 17  1  0
  6  3  1  0
  7  8  1  6
  7  1  1  0
  7  5  1  0
  9 17  1  0
 10 15  1  0
 11 12  1  0
 11 10  1  0
 13 12  1  0
 13 22  1  0
 13 14  1  0
 15  9  1  0
 15 14  1  0
 16  9  2  0
 17 18  1  0
 19 20  2  0
 20 39  1  0
 21 20  1  0
 21 24  1  0
 22 23  1  0
 22 19  1  0
 23 21  2  0
 24 25  1  0
 25 26  2  0
 27 30  1  0
 27 26  1  0
 28 27  2  0
 29 28  1  0
 29 24  2  0
 30 31  1  0
 31 36  2  0
 31 32  1  0
 32 33  2  0
 33 34  1  0
 34 38  1  0
 35 34  2  0
 36 35  1  0
 37 36  1  0
 39 40  1  0
 40 43  1  0
 40 42  1  0
 41 39  2  0
 44 19  1  0
 44 45  1  0
 46 44  1  0
 47 48  1  0
 47  1  1  0
 49 48  1  0
 50 49  1  0
 51 53  1  0
 51 50  1  0
 52 63  2  0
 53 58  1  0
 54 62  1  0
 54 64  1  0
 55 61  1  0
 55 57  1  0
 56 62  1  0
 57 56  1  0
 58 57  2  0
 59 60  1  0
 59 53  2  0
 60 55  2  0
 61 54  1  0
 62 52  1  0
 64 66  2  0
 65 64  1  0
 67 65  1  0
 68 77  2  0
 68 73  1  0
 69 65  1  0
 69 73  1  0
 70 69  1  0
 71 72  1  0
 71 70  1  0
 72 68  1  0
 73 74  2  0
 74 75  1  0
 76 75  2  0
 77 76  1  0
 78 52  1  0
 78 79  1  0
 78 88  1  0
 79 82  1  0
 80 84  1  0
 80 79  1  0
 81 80  2  0
 84 83  1  0
 86 84  1  0
 86 87  1  0
 86 85  1  0
 88 91  1  1
 88 89  1  0
 90 88  1  0
M  ISO  4   9 100  17 100  50 101  51 101
M  END
>  <TORSDO>  (88) 
F 21

>  <SCORE>  (88) 
-12.629

>  <name>  (88) 
87

>  <ligand_id>  (88) 
87

>  <original_smiles>  (88) 
[H]c1c([H])c([H])c2c(c1[H])C([H])([H])C([H])([H])C([H])([H])C2([H])N([H])C(=O)C1([H])N(C(=O)C([H])(N([H])C(=O)C([H])(N([H])C([H])([H])[H])C([H])([H])[H])C(C([H])([H])[H])(C([H])([H])[H])C([H])([H])[H])C([H])([H])c2c([H])c(OC([H])([H])C([H])([H])C([H])([H])C([H])([H])C([H])([H])[N+]3([H])C([H])([H])C([H])([H])C([H])(N([H])C(=O)N4C([H])([H])C([H])([H])C([H])([H])C([H])(n5nc(-c6c([H])c([H])c(Oc7c([H])c([H])c(F)c([H])c7F)c([H])c6[H])c(C(=O)N([H])[H])c5N([H])[H])C4([H])[H])C([H])([H])C3([H])[H])c([H])c([H])c2C1([H])[H]

>  <smiles>  (88) 
[H]c1c([H])c([H])c2c(c1[H])C([H])([H])C([H])([H])C([H])([H])C2([H])N([H])C(=O)C1([H])N(C(=O)C([H])(N([H])C(=O)C([H])(N([H])C([H])([H])[H])C([H])([H])[H])C(C([H])([H])[H])(C([H])([H])[H])C([H])([H])[H])C([H])([H])c2c([H])c(OC([H])([H])C([H])([H])C([H])([H])C([H])([H])C([H])([H])[N+]3([H])C([H])([H])C([H])([H])C([H])(N([H])C(=O)N4C([H])([H])C([H])([H])C([H])([H])C([H])(n5nc(-c6c([H])c([H])c(Oc7c([H])c([H])c(F)c([H])c7F)c([H])c6[H])c(C(=O)N([H])[H])c5N([H])[H])C4([H])[H])C([H])([H])C3([H])[H])c([H])c([H])c2C1([H])[H]

$$$$
88:0:0
     RDKit          3D

 86 94  0  0  1  0  0  0  0  0999 V2000
  -29.1870  -21.3180   21.2240 C   0  0  0  0  0  3  0  0  0  0  0  0
  -28.3800  -21.1180   19.1690 C   0  0  0  0  0  3  0  0  0  0  0  0
  -29.5320  -19.8170   21.2250 C   0  0  0  0  0  3  0  0  0  0  0  0
  -28.7130  -19.6270   19.1720 C   0  0  0  0  0  3  0  0  0  0  0  0
  -28.5590  -22.1940   20.1860 C   0  0  0  0  0  0  0  0  0  0  0  0
  -29.3450  -18.7470   20.1930 C   0  0  0  0  0  0  0  0  0  0  0  0
  -30.2600  -15.7190   20.1520 C   0  0  0  0  0  0  0  0  0  0  0  0
  -30.3680  -13.1860   19.3140 C   0  0  0  0  0  2  0  0  0  0  0  0
  -29.4450  -12.7990   18.1230 C   0  0  0  0  0  2  0  0  0  0  0  0
  -28.0320  -12.4420   18.6110 C   0  0  0  0  0  2  0  0  0  0  0  0
  -27.5460  -13.4280   19.6970 C   0  0  0  0  0  3  0  0  0  0  0  0
  -28.6050  -13.7230   20.7850 C   0  0  0  0  0  2  0  0  0  0  0  0
  -29.7610  -14.3480   20.1030 N   0  0  0  0  0  0  0  0  0  0  0  0
  -31.4880  -15.6960   19.9420 O   0  0  0  0  0  0  0  0  0  0  0  0
  -29.4300  -17.0280   20.2420 N   0  0  0  0  0  0  0  0  0  0  0  0
  -28.4830  -16.6860   20.3090 H   0  0  0  0  0  0  0  0  0  0  0  0
  -25.2060  -13.9340   20.5460 C   0  0  0  0  0  0  0  0  0  0  0  0
  -24.1600  -13.1410   20.9260 C   0  0  0  0  0  0  0  0  0  0  0  0
  -24.6350  -11.7950   20.8480 C   0  0  0  0  0  0  0  0  0  0  0  0
  -26.2460  -13.0750   20.2480 N   0  0  0  0  0  0  0  0  0  0  0  0
  -25.9180  -11.7780   20.4970 N   0  0  0  0  0  0  0  0  0  0  0  0
  -23.9180  -10.5250   21.0260 C   0  0  0  0  0  0  0  0  0  0  0  0
  -24.3490   -9.5550   21.9580 C   0  0  0  0  0  3  0  0  0  0  0  0
  -23.6270   -8.3540   22.1270 C   0  0  0  0  0  3  0  0  0  0  0  0
  -22.4590   -8.1140   21.3660 C   0  0  0  0  0  0  0  0  0  0  0  0
  -22.0470   -9.0720   20.4240 C   0  0  0  0  0  3  0  0  0  0  0  0
  -22.7690  -10.2640   20.2520 C   0  0  0  0  0  3  0  0  0  0  0  0
  -21.7100   -6.9650   21.4440 O   0  0  0  0  0  0  0  0  0  0  0  0
  -21.6210   -6.2410   22.6070 C   0  0  0  0  0  0  0  0  0  0  0  0
  -21.1120   -6.8040   23.7970 C   0  0  0  0  0  3  0  0  0  0  0  0
  -20.9720   -6.0060   24.9500 C   0  0  0  0  0  3  0  0  0  0  0  0
  -21.3310   -4.6460   24.9130 C   0  0  0  0  0  0  0  0  0  0  0  0
  -21.8340   -4.0820   23.7270 C   0  0  0  0  0  3  0  0  0  0  0  0
  -21.9740   -4.8770   22.5770 C   0  0  0  0  0  0  0  0  0  0  0  0
  -22.4380   -4.3230   21.4310 F   0  0  0  0  0  0  0  0  0  0  0  0
  -21.1910   -3.8770   26.0190 F   0  0  0  0  0  0  0  0  0  0  0  0
  -22.7690  -13.6060   21.2420 C   0  0  0  0  0  0  0  0  0  0  0  0
  -22.0680  -12.8890   22.1130 N   0  0  0  0  0  0  0  0  0  0  0  0
  -22.3150  -14.6380   20.7530 O   0  0  0  0  0  0  0  0  0  0  0  0
  -22.4500  -12.0540   22.5310 H   0  0  0  0  0  0  0  0  0  0  0  0
  -21.1340  -13.1820   22.3670 H   0  0  0  0  0  0  0  0  0  0  0  0
  -25.3510  -15.3100   20.3950 N   0  0  0  0  0  0  0  0  0  0  0  0
  -24.5750  -15.9490   20.5370 H   0  0  0  0  0  0  0  0  0  0  0  0
  -26.1650  -15.7610   20.0010 H   0  0  0  0  0  0  0  0  0  0  0  0
  -27.7930  -23.9010   20.1770 C   0  0  0  0  0  2  0  0  0  0  0  0
  -28.1150  -25.6130   20.3110 O   0  0  0  0  0  0  0  0  0  0  0  0
  -24.6620  -31.9150   23.2510 C   0  0  0  0  0  0  0  0  0  0  0  0
  -27.1570  -26.8350   20.2600 C   0  0  0  0  0  0  0  0  0  0  0  0
  -23.4600  -30.5190   21.6230 C   0  0  0  0  0  3  0  0  0  0  0  0
  -24.8950  -28.8660   20.2080 C   0  0  0  0  0  0  0  0  0  0  0  0
  -26.0380  -30.6560   21.4870 C   0  0  0  0  0  2  0  0  0  0  0  0
  -26.0950  -29.2230   20.8340 C   0  0  0  0  0  0  0  0  0  0  0  0
  -27.2120  -28.2350   20.8280 C   0  0  0  0  0  3  0  0  0  0  0  0
  -25.9230  -26.6850   19.5790 C   0  0  0  0  0  3  0  0  0  0  0  0
  -24.8460  -27.6220   19.5560 C   0  0  0  0  0  3  0  0  0  0  0  0
  -23.6900  -29.8190   20.2540 C   0  0  0  0  0  2  0  0  0  0  0  0
  -24.7450  -31.0630   22.1720 N   0  0  0  0  0  0  0  0  0  0  0  0
  -23.5730  -32.2210   23.7660 O   0  0  0  0  0  0  0  0  0  0  0  0
  -22.7450  -29.5460   22.5990 C   0  0  0  0  0  0  0  0  0  0  0  0
  -21.4140  -29.3860   22.4710 N   0  0  0  0  0  0  0  0  0  0  0  0
  -23.4000  -28.9330   23.4470 O   0  0  0  0  0  0  0  0  0  0  0  0
  -20.9350  -29.9310   21.7680 H   0  0  0  0  0  0  0  0  0  0  0  0
  -18.0320  -28.1550   22.9720 C   0  0  0  0  0  0  0  0  0  0  0  0
  -20.5870  -28.4540   23.2490 C   0  0  0  0  0  3  0  0  0  0  0  0
  -20.7060  -27.0130   22.6990 C   0  0  0  0  0  2  0  0  0  0  0  0
  -19.6170  -26.6650   21.6810 C   0  0  0  0  0  2  0  0  0  0  0  0
  -18.2280  -26.8010   22.3110 C   0  0  0  0  0  2  0  0  0  0  0  0
  -19.1380  -28.9370   23.3980 C   0  0  0  0  0  0  0  0  0  0  0  0
  -18.8970  -30.2000   23.9820 C   0  0  0  0  0  3  0  0  0  0  0  0
  -17.5830  -30.6820   24.1390 C   0  0  0  0  0  3  0  0  0  0  0  0
  -16.4920  -29.8990   23.7250 C   0  0  0  0  0  3  0  0  0  0  0  0
  -16.7170  -28.6360   23.1490 C   0  0  0  0  0  3  0  0  0  0  0  0
  -25.9320  -32.5610   23.8830 C   0  0  0  0  0  3  0  0  0  0  0  0
  -25.6160  -33.9640   24.2200 N   0  0  0  0  0  0  0  0  0  0  0  0
  -25.9160  -35.0270   23.4620 C   0  0  0  0  0  0  0  0  0  0  0  0
  -26.5470  -34.9310   22.4070 O   0  0  0  0  0  0  0  0  0  0  0  0
  -25.0470  -34.1100   25.0410 H   0  0  0  0  0  0  0  0  0  0  0  0
  -24.1590  -36.8170   23.2140 C   0  0  0  0  0  1  0  0  0  0  0  0
  -25.4490  -36.4160   23.9480 C   0  0  0  0  0  3  0  0  0  0  0  0
  -27.6160  -37.3300   24.6580 C   0  0  0  0  0  1  0  0  0  0  0  0
  -26.4640  -37.4780   23.7730 N   0  0  0  0  0  0  0  0  0  0  0  0
  -26.0580  -38.3960   23.9330 H   0  0  0  0  0  0  0  0  0  0  0  0
  -26.4320  -31.8030   25.1750 C   0  0  1  0  0  0  0  0  0  0  0  0
  -25.3290  -31.5820   26.2370 C   0  0  0  0  0  1  0  0  0  0  0  0
  -27.0120  -30.4160   24.8140 C   0  0  0  0  0  1  0  0  0  0  0  0
  -27.5810  -32.5990   25.8380 C   0  0  0  0  0  1  0  0  0  0  0  0
  1  3  1  0
  2  4  2  0
  2  5  1  0
  4  6  1  0
  5  1  2  0
  6 15  1  0
  6  3  2  0
  7 15  1  0
  8 13  1  0
  9 10  1  0
  9  8  1  0
 11 10  1  0
 11 20  1  0
 11 12  1  0
 13  7  1  0
 13 12  1  0
 14  7  2  0
 15 16  1  0
 17 18  2  0
 18 37  1  0
 19 18  1  0
 19 22  1  0
 20 21  1  0
 20 17  1  0
 21 19  2  0
 22 23  1  0
 23 24  2  0
 25 28  1  0
 25 24  1  0
 26 25  2  0
 27 26  1  0
 27 22  2  0
 28 29  1  0
 29 30  1  0
 30 31  2  0
 32 31  1  0
 32 36  1  0
 33 32  2  0
 34 29  2  0
 34 33  1  0
 35 34  1  0
 37 38  1  0
 38 41  1  0
 38 40  1  0
 39 37  2  0
 42 43  1  0
 42 17  1  0
 44 42  1  0
 45  5  1  0
 45 46  1  0
 47 58  2  0
 48 46  1  0
 48 53  1  0
 49 57  1  0
 49 59  1  0
 50 56  1  0
 50 52  1  0
 51 57  1  0
 52 51  1  0
 53 52  2  0
 54 48  2  0
 55 54  1  0
 55 50  2  0
 56 49  1  0
 57 47  1  0
 59 61  2  0
 60 59  1  0
 62 60  1  0
 63 72  2  0
 63 68  1  0
 64 60  1  0
 64 68  1  0
 65 64  1  0
 66 67  1  0
 66 65  1  0
 67 63  1  0
 68 69  2  0
 69 70  1  0
 71 70  2  0
 72 71  1  0
 73 47  1  0
 73 74  1  0
 73 83  1  0
 74 77  1  0
 75 79  1  0
 75 74  1  0
 76 75  2  0
 79 78  1  0
 81 82  1  0
 81 79  1  0
 81 80  1  0
 83 86  1  1
 83 84  1  0
 85 83  1  0
M  ISO  4   7 100  15 100  45 101  46 101
M  END
>  <TORSDO>  (89) 
F 17

>  <SCORE>  (89) 
-16.448

>  <name>  (89) 
88

>  <ligand_id>  (89) 
88

>  <original_smiles>  (89) 
[H]c1c([H])c([H])c2c(c1[H])C([H])([H])C([H])([H])C([H])([H])C2([H])N([H])C(=O)C1([H])N(C(=O)C([H])(N([H])C(=O)C([H])(N([H])C([H])([H])[H])C([H])([H])[H])C(C([H])([H])[H])(C([H])([H])[H])C([H])([H])[H])C([H])([H])c2c([H])c(OC([H])([H])c3c([H])c([H])c(N([H])C(=O)N4C([H])([H])C([H])([H])C([H])([H])C([H])(n5nc(-c6c([H])c([H])c(Oc7c([H])c([H])c(F)c([H])c7F)c([H])c6[H])c(C(=O)N([H])[H])c5N([H])[H])C4([H])[H])c([H])c3[H])c([H])c([H])c2C1([H])[H]

>  <smiles>  (89) 
[H]c1c([H])c([H])c2c(c1[H])C([H])([H])C([H])([H])C([H])([H])C2([H])N([H])C(=O)C1([H])N(C(=O)C([H])(N([H])C(=O)C([H])(N([H])C([H])([H])[H])C([H])([H])[H])C(C([H])([H])[H])(C([H])([H])[H])C([H])([H])[H])C([H])([H])c2c([H])c(OC([H])([H])c3c([H])c([H])c(N([H])C(=O)N4C([H])([H])C([H])([H])C([H])([H])C([H])(n5nc(-c6c([H])c([H])c(Oc7c([H])c([H])c(F)c([H])c7F)c([H])c6[H])c(C(=O)N([H])[H])c5N([H])[H])C4([H])[H])c([H])c3[H])c([H])c([H])c2C1([H])[H]

$$$$
89:0:0
     RDKit          3D

 97104  0  0  1  0  0  0  0  0999 V2000
  -29.6400  -19.1910   20.1230 C   0  0  0  0  0  3  0  0  0  0  0  0
  -28.6920  -20.6300   20.4470 N   0  0  0  0  0  4  0  0  0  0  0  0
  -27.8380  -20.4720   19.9340 H   0  0  0  0  0  0  0  0  0  0  0  0
  -28.4200  -20.5310   21.4130 H   0  0  0  0  0  0  0  0  0  0  0  0
  -28.9690  -22.3530   20.2610 C   0  0  0  0  0  3  0  0  0  0  0  0
  -27.9360  -23.9640   20.3500 C   0  0  0  0  0  3  0  0  0  0  0  0
  -28.1310  -25.6960   20.3270 O   0  0  0  0  0  0  0  0  0  0  0  0
  -24.5870  -31.9290   23.2120 C   0  0  0  0  0  0  0  0  0  0  0  0
  -27.1390  -26.8740   20.2790 C   0  0  0  0  0  0  0  0  0  0  0  0
  -23.4010  -30.5040   21.5970 C   0  0  0  0  0  3  0  0  0  0  0  0
  -24.8530  -28.8570   20.2000 C   0  0  0  0  0  0  0  0  0  0  0  0
  -25.9760  -30.6790   21.4590 C   0  0  0  0  0  2  0  0  0  0  0  0
  -26.0490  -29.2430   20.8210 C   0  0  0  0  0  0  0  0  0  0  0  0
  -27.1810  -28.2790   20.8240 C   0  0  0  0  0  3  0  0  0  0  0  0
  -25.9090  -26.6840   19.6050 C   0  0  0  0  0  3  0  0  0  0  0  0
  -24.8200  -27.6030   19.5680 C   0  0  0  0  0  3  0  0  0  0  0  0
  -23.6380  -29.7950   20.2340 C   0  0  0  0  0  2  0  0  0  0  0  0
  -24.6780  -31.0700   22.1410 N   0  0  0  0  0  0  0  0  0  0  0  0
  -23.4940  -32.2280   23.7220 O   0  0  0  0  0  0  0  0  0  0  0  0
  -22.7000  -29.5290   22.5820 C   0  0  0  0  0  0  0  0  0  0  0  0
  -21.3750  -29.3380   22.4420 N   0  0  0  0  0  0  0  0  0  0  0  0
  -23.3580  -28.9430   23.4430 O   0  0  0  0  0  0  0  0  0  0  0  0
  -20.8920  -29.8650   21.7270 H   0  0  0  0  0  0  0  0  0  0  0  0
  -18.0060  -28.0730   22.9470 C   0  0  0  0  0  0  0  0  0  0  0  0
  -20.5580  -28.4020   23.2260 C   0  0  0  0  0  3  0  0  0  0  0  0
  -20.6930  -26.9600   22.6860 C   0  0  0  0  0  2  0  0  0  0  0  0
  -19.6080  -26.5910   21.6680 C   0  0  0  0  0  2  0  0  0  0  0  0
  -18.2180  -26.7160   22.2970 C   0  0  0  0  0  2  0  0  0  0  0  0
  -19.1040  -28.8710   23.3680 C   0  0  0  0  0  0  0  0  0  0  0  0
  -18.8480  -30.1350   23.9410 C   0  0  0  0  0  3  0  0  0  0  0  0
  -17.5280  -30.6050   24.0930 C   0  0  0  0  0  3  0  0  0  0  0  0
  -16.4470  -29.8070   23.6830 C   0  0  0  0  0  3  0  0  0  0  0  0
  -16.6870  -28.5420   23.1180 C   0  0  0  0  0  3  0  0  0  0  0  0
  -25.8500  -32.5930   23.8400 C   0  0  0  0  0  3  0  0  0  0  0  0
  -25.5200  -33.9980   24.1510 N   0  0  0  0  0  0  0  0  0  0  0  0
  -25.8590  -35.0540   23.4010 C   0  0  0  0  0  0  0  0  0  0  0  0
  -26.5410  -34.9500   22.3780 O   0  0  0  0  0  0  0  0  0  0  0  0
  -24.9130  -34.1520   24.9440 H   0  0  0  0  0  0  0  0  0  0  0  0
  -24.1520  -36.8680   23.0150 C   0  0  0  0  0  1  0  0  0  0  0  0
  -25.3700  -36.4470   23.8530 C   0  0  0  0  0  3  0  0  0  0  0  0
  -27.4810  -37.3270   24.7520 C   0  0  0  0  0  1  0  0  0  0  0  0
  -26.4110  -37.4950   23.7730 N   0  0  0  0  0  0  0  0  0  0  0  0
  -26.0030  -38.4180   23.9040 H   0  0  0  0  0  0  0  0  0  0  0  0
  -26.3510  -31.8560   25.1440 C   0  0  1  0  0  0  0  0  0  0  0  0
  -25.2460  -31.6440   26.2050 C   0  0  0  0  0  1  0  0  0  0  0  0
  -26.9440  -30.4700   24.8090 C   0  0  0  0  0  1  0  0  0  0  0  0
  -27.4880  -32.6740   25.8020 C   0  0  0  0  0  1  0  0  0  0  0  0
  -30.0020  -19.3440   18.6180 C   0  0  0  0  0  2  0  0  0  0  0  0
  -31.4310  -18.9730   18.2260 C   0  0  0  0  0  0  0  0  0  0  0  0
  -31.5750  -17.6990   17.4170 C   0  0  0  0  0  1  0  0  0  0  0  0
  -32.4720  -19.6730   18.4630 N   0  0  0  0  0  0  0  0  0  0  0  0
  -32.3870  -20.9760   19.1020 C   0  0  0  0  0  2  0  0  0  0  0  0
  -33.7160  -21.3030   19.8030 C   0  0  0  0  0  2  0  0  0  0  0  0
  -36.2510  -21.3820   19.7310 C   0  0  0  0  0  1  0  0  0  0  0  0
  -34.9660  -21.3480   18.8890 C   0  0  0  0  0  3  0  0  0  0  0  0
  -34.9280  -22.4610   17.8140 C   0  0  0  0  0  2  0  0  0  0  0  0
  -34.8440  -23.8200   18.3780 N   0  0  0  0  0  4  0  0  0  0  0  0
  -34.0340  -23.9240   18.9590 H   0  0  0  0  0  0  0  0  0  0  0  0
  -34.7790  -24.4920   17.6340 H   0  0  0  0  0  0  0  0  0  0  0  0
  -35.6640  -24.0350   18.9170 H   0  0  0  0  0  0  0  0  0  0  0  0
  -29.4030  -17.3110   20.4440 C   0  0  0  0  0  2  0  0  0  0  0  0
  -30.2640  -15.6800   20.2280 C   0  0  0  0  0  0  0  0  0  0  0  0
  -30.3620  -13.1610   19.3590 C   0  0  0  0  0  2  0  0  0  0  0  0
  -29.4400  -12.8470   18.1450 C   0  0  0  0  0  2  0  0  0  0  0  0
  -28.0150  -12.5070   18.6060 C   0  0  0  0  0  2  0  0  0  0  0  0
  -27.5390  -13.4730   19.7160 C   0  0  0  0  0  3  0  0  0  0  0  0
  -28.5900  -13.7120   20.8200 C   0  0  0  0  0  2  0  0  0  0  0  0
  -29.7780  -14.3080   20.1810 N   0  0  0  0  0  0  0  0  0  0  0  0
  -31.4880  -15.6440   20.0060 O   0  0  0  0  0  0  0  0  0  0  0  0
  -25.1930  -13.9920   20.5400 C   0  0  0  0  0  0  0  0  0  0  0  0
  -24.1420  -13.2030   20.9100 C   0  0  0  0  0  0  0  0  0  0  0  0
  -24.6140  -11.8550   20.8440 C   0  0  0  0  0  0  0  0  0  0  0  0
  -26.2320  -13.1270   20.2530 N   0  0  0  0  0  0  0  0  0  0  0  0
  -25.9000  -11.8330   20.5060 N   0  0  0  0  0  0  0  0  0  0  0  0
  -23.8930  -10.5880   21.0220 C   0  0  0  0  0  0  0  0  0  0  0  0
  -24.3190   -9.6180   21.9550 C   0  0  0  0  0  3  0  0  0  0  0  0
  -23.5950   -8.4180   22.1230 C   0  0  0  0  0  3  0  0  0  0  0  0
  -22.4290   -8.1810   21.3560 C   0  0  0  0  0  0  0  0  0  0  0  0
  -22.0230   -9.1390   20.4100 C   0  0  0  0  0  3  0  0  0  0  0  0
  -22.7480  -10.3300   20.2420 C   0  0  0  0  0  3  0  0  0  0  0  0
  -21.6760   -7.0340   21.4320 O   0  0  0  0  0  0  0  0  0  0  0  0
  -21.5890   -6.3060   22.5920 C   0  0  0  0  0  0  0  0  0  0  0  0
  -21.0620   -6.8560   23.7810 C   0  0  0  0  0  3  0  0  0  0  0  0
  -20.9260   -6.0510   24.9310 C   0  0  0  0  0  3  0  0  0  0  0  0
  -21.3080   -4.6970   24.8910 C   0  0  0  0  0  0  0  0  0  0  0  0
  -21.8280   -4.1450   23.7060 C   0  0  0  0  0  3  0  0  0  0  0  0
  -21.9650   -4.9470   22.5600 C   0  0  0  0  0  0  0  0  0  0  0  0
  -22.4460   -4.4040   21.4170 F   0  0  0  0  0  0  0  0  0  0  0  0
  -21.1710   -3.9230   25.9930 F   0  0  0  0  0  0  0  0  0  0  0  0
  -22.7490  -13.6700   21.2090 C   0  0  0  0  0  0  0  0  0  0  0  0
  -22.0360  -12.9560   22.0700 N   0  0  0  0  0  0  0  0  0  0  0  0
  -22.3030  -14.7080   20.7160 O   0  0  0  0  0  0  0  0  0  0  0  0
  -22.4140  -12.1190   22.4900 H   0  0  0  0  0  0  0  0  0  0  0  0
  -21.0990  -13.2460   22.3140 H   0  0  0  0  0  0  0  0  0  0  0  0
  -25.3510  -15.3680   20.3900 N   0  0  0  0  0  0  0  0  0  0  0  0
  -24.5860  -16.0190   20.5330 H   0  0  0  0  0  0  0  0  0  0  0  0
  -26.1930  -15.8160   20.0540 H   0  0  0  0  0  0  0  0  0  0  0  0
  1 48  1  0
  1 61  1  0
  1  2  1  0
  2  4  1  0
  3  2  1  0
  5  6  2  0
  5  2  1  0
  7  6  1  0
  8 19  2  0
  9  7  1  0
  9 14  1  0
 10 18  1  0
 10 20  1  0
 11 17  1  0
 11 13  1  0
 12 18  1  0
 13 14  2  0
 13 12  1  0
 15  9  2  0
 16 15  1  0
 16 11  2  0
 17 10  1  0
 18  8  1  0
 20 22  2  0
 21 20  1  0
 23 21  1  0
 24 33  2  0
 24 29  1  0
 25 21  1  0
 25 29  1  0
 26 25  1  0
 27 28  1  0
 27 26  1  0
 28 24  1  0
 29 30  2  0
 30 31  1  0
 32 31  2  0
 33 32  1  0
 34  8  1  0
 34 35  1  0
 34 44  1  0
 35 38  1  0
 36 40  1  0
 36 35  1  0
 37 36  2  0
 40 39  1  0
 42 40  1  0
 42 43  1  0
 42 41  1  0
 44 47  1  1
 44 45  1  0
 46 44  1  0
 49 51  2  0
 49 48  1  0
 50 49  1  0
 51 52  1  0
 52 53  1  0
 55 54  1  0
 55 53  1  0
 56 57  1  0
 56 55  1  0
 57 60  1  0
 57 58  1  0
 59 57  1  0
 62 61  1  0
 63 68  1  0
 64 65  1  0
 64 63  1  0
 66 65  1  0
 66 73  1  0
 66 67  1  0
 68 62  1  0
 68 67  1  0
 69 62  2  0
 70 71  2  0
 71 90  1  0
 72 71  1  0
 72 75  1  0
 73 74  1  0
 73 70  1  0
 74 72  2  0
 75 76  1  0
 76 77  2  0
 78 81  1  0
 78 77  1  0
 79 78  2  0
 80 79  1  0
 80 75  2  0
 81 82  1  0
 82 83  1  0
 83 84  2  0
 85 84  1  0
 85 89  1  0
 86 85  2  0
 87 82  2  0
 87 86  1  0
 88 87  1  0
 90 91  1  0
 91 94  1  0
 91 93  1  0
 92 90  2  0
 95 96  1  0
 95 70  1  0
 97 95  1  0
M  ISO  4   6 101   7 101  61 100  62 100
M  END
>  <TORSDO>  (90) 
F 27

>  <SCORE>  (90) 
-13.938

>  <name>  (90) 
89

>  <ligand_id>  (90) 
89

>  <original_smiles>  (90) 
[H]c1c([H])c([H])c2c(c1[H])C([H])([H])C([H])([H])C([H])([H])C2([H])N([H])C(=O)C1([H])N(C(=O)C([H])(N([H])C(=O)C([H])(N([H])C([H])([H])[H])C([H])([H])[H])C(C([H])([H])[H])(C([H])([H])[H])C([H])([H])[H])C([H])([H])c2c([H])c(OC([H])([H])C([H])([H])[N+]([H])([H])C([H])(C([H])([H])C(=O)N3C([H])([H])C([H])([H])C([H])([H])C([H])(n4nc(-c5c([H])c([H])c(Oc6c([H])c([H])c(F)c([H])c6F)c([H])c5[H])c(C(=O)N([H])[H])c4N([H])[H])C3([H])[H])C([H])([H])C(=NC([H])([H])C([H])([H])C([H])(C([H])([H])[H])C([H])([H])[N+]([H])([H])[H])C([H])([H])[H])c([H])c([H])c2C1([H])[H]

>  <smiles>  (90) 
[H]c1c([H])c([H])c2c(c1[H])C([H])([H])C([H])([H])C([H])([H])C2([H])N([H])C(=O)C1([H])N(C(=O)C([H])(N([H])C(=O)C([H])(N([H])C([H])([H])[H])C([H])([H])[H])C(C([H])([H])[H])(C([H])([H])[H])C([H])([H])[H])C([H])([H])c2c([H])c(OC([H])([H])C([H])([H])[N+]([H])([H])C([H])(C([H])([H])C(=O)N3C([H])([H])C([H])([H])C([H])([H])C([H])(n4nc(-c5c([H])c([H])c(Oc6c([H])c([H])c(F)c([H])c6F)c([H])c5[H])c(C(=O)N([H])[H])c4N([H])[H])C3([H])[H])C([H])([H])C(=NC([H])([H])C([H])([H])C([H])(C([H])([H])[H])C([H])([H])[N+]([H])([H])[H])C([H])([H])[H])c([H])c([H])c2C1([H])[H]

$$$$
90:0:0
     RDKit          3D

 90 98  0  0  1  0  0  0  0  0999 V2000
  -29.0590  -19.0900   20.6490 C   0  0  0  0  0  0  0  0  0  0  0  0
  -30.8940  -18.7050   19.2690 C   0  0  0  0  0  2  0  0  0  0  0  0
  -29.3190  -20.4940   19.8820 C   0  0  0  0  0  3  0  0  0  0  0  0
  -30.1450  -17.9320   20.3990 C   0  0  1  0  0  0  0  0  0  0  0  0
  -31.0420  -17.8790   21.6580 C   0  0  0  0  0  1  0  0  0  0  0  0
  -30.7110  -20.1940   19.4640 N   0  0  0  0  0  4  0  0  0  0  0  0
  -28.0970  -18.8860   21.3940 O   0  0  0  0  0  0  0  0  0  0  0  0
  -30.9520  -20.6940   18.6250 H   0  0  0  0  0  0  0  0  0  0  0  0
  -31.3380  -20.4910   20.1950 H   0  0  0  0  0  0  0  0  0  0  0  0
  -29.6440  -16.3520   20.1210 C   0  0  0  0  0  2  0  0  0  0  0  0
  -30.5480  -14.9890   19.8930 C   0  0  0  0  0  0  0  0  0  0  0  0
  -30.4050  -12.6560   18.9300 C   0  0  0  0  0  2  0  0  0  0  0  0
  -29.3850  -12.6660   17.7640 C   0  0  0  0  0  2  0  0  0  0  0  0
  -27.9480  -12.4560   18.2840 C   0  0  0  0  0  2  0  0  0  0  0  0
  -27.6280  -13.3500   19.5090 C   0  0  0  0  0  3  0  0  0  0  0  0
  -28.7550  -13.3030   20.5600 C   0  0  0  0  0  2  0  0  0  0  0  0
  -30.0010  -13.7120   19.8970 N   0  0  0  0  0  0  0  0  0  0  0  0
  -31.7200  -15.1010   19.5160 O   0  0  0  0  0  0  0  0  0  0  0  0
  -25.3050  -13.9220   20.4280 C   0  0  0  0  0  0  0  0  0  0  0  0
  -24.2630  -13.1410   20.8480 C   0  0  0  0  0  0  0  0  0  0  0  0
  -24.7150  -11.7900   20.7440 C   0  0  0  0  0  0  0  0  0  0  0  0
  -26.3230  -13.0460   20.0890 N   0  0  0  0  0  0  0  0  0  0  0  0
  -25.9810  -11.7570   20.3430 N   0  0  0  0  0  0  0  0  0  0  0  0
  -23.9960  -10.5260   20.9460 C   0  0  0  0  0  0  0  0  0  0  0  0
  -24.4570   -9.5510   21.8580 C   0  0  0  0  0  3  0  0  0  0  0  0
  -23.7360   -8.3530   22.0490 C   0  0  0  0  0  3  0  0  0  0  0  0
  -22.5400   -8.1200   21.3290 C   0  0  0  0  0  0  0  0  0  0  0  0
  -22.0980   -9.0850   20.4060 C   0  0  0  0  0  3  0  0  0  0  0  0
  -22.8190  -10.2740   20.2130 C   0  0  0  0  0  3  0  0  0  0  0  0
  -21.7880   -6.9750   21.4310 O   0  0  0  0  0  0  0  0  0  0  0  0
  -21.7420   -6.2450   22.5910 C   0  0  0  0  0  0  0  0  0  0  0  0
  -21.2790   -6.8000   23.8040 C   0  0  0  0  0  3  0  0  0  0  0  0
  -21.1830   -5.9940   24.9570 C   0  0  0  0  0  3  0  0  0  0  0  0
  -21.5400   -4.6340   24.8970 C   0  0  0  0  0  0  0  0  0  0  0  0
  -21.9970   -4.0780   23.6890 C   0  0  0  0  0  3  0  0  0  0  0  0
  -22.0940   -4.8810   22.5380 C   0  0  0  0  0  0  0  0  0  0  0  0
  -22.5140   -4.3350   21.3720 F   0  0  0  0  0  0  0  0  0  0  0  0
  -21.4420   -3.8580   26.0010 F   0  0  0  0  0  0  0  0  0  0  0  0
  -22.8900  -13.6160   21.2300 C   0  0  0  0  0  0  0  0  0  0  0  0
  -22.2170  -12.8930   22.1170 N   0  0  0  0  0  0  0  0  0  0  0  0
  -22.4280  -14.6630   20.7770 O   0  0  0  0  0  0  0  0  0  0  0  0
  -22.6050  -12.0460   22.5030 H   0  0  0  0  0  0  0  0  0  0  0  0
  -21.2990  -13.1920   22.4150 H   0  0  0  0  0  0  0  0  0  0  0  0
  -25.4650  -15.2970   20.2830 N   0  0  0  0  0  0  0  0  0  0  0  0
  -24.7150  -15.9520   20.4780 H   0  0  0  0  0  0  0  0  0  0  0  0
  -26.2980  -15.7450   19.9240 H   0  0  0  0  0  0  0  0  0  0  0  0
  -28.9870  -21.9800   20.6040 C   0  0  0  0  0  2  0  0  0  0  0  0
  -28.9990  -23.5070   19.9060 C   0  0  0  0  0  3  0  0  0  0  0  0
  -28.2340  -24.8480   20.5520 C   0  0  0  0  0  3  0  0  0  0  0  0
  -28.4250  -26.3330   20.1740 O   0  0  0  0  0  0  0  0  0  0  0  0
  -24.6190  -31.8800   23.1580 C   0  0  0  0  0  0  0  0  0  0  0  0
  -27.3280  -27.2560   20.1550 C   0  0  0  0  0  0  0  0  0  0  0  0
  -23.4660  -30.4710   21.4940 C   0  0  0  0  0  3  0  0  0  0  0  0
  -24.9620  -28.9270   20.0890 C   0  0  0  0  0  0  0  0  0  0  0  0
  -26.0130  -30.7930   21.3640 C   0  0  0  0  0  2  0  0  0  0  0  0
  -26.1220  -29.4060   20.7130 C   0  0  0  0  0  0  0  0  0  0  0  0
  -27.3090  -28.5870   20.7250 C   0  0  0  0  0  3  0  0  0  0  0  0
  -26.1420  -26.8650   19.4980 C   0  0  0  0  0  3  0  0  0  0  0  0
  -24.9820  -27.6680   19.4680 C   0  0  0  0  0  3  0  0  0  0  0  0
  -23.7180  -29.8000   20.1170 C   0  0  0  0  0  2  0  0  0  0  0  0
  -24.7170  -31.0690   22.0610 N   0  0  0  0  0  0  0  0  0  0  0  0
  -23.5210  -32.1430   23.6720 O   0  0  0  0  0  0  0  0  0  0  0  0
  -22.7920  -29.4480   22.4420 C   0  0  0  0  0  0  0  0  0  0  0  0
  -21.4640  -29.2740   22.3100 N   0  0  0  0  0  0  0  0  0  0  0  0
  -23.4650  -28.8140   23.2580 O   0  0  0  0  0  0  0  0  0  0  0  0
  -20.9790  -29.8380   21.6260 H   0  0  0  0  0  0  0  0  0  0  0  0
  -18.0810  -28.0880   22.8150 C   0  0  0  0  0  0  0  0  0  0  0  0
  -20.6440  -28.3260   23.0670 C   0  0  0  0  0  3  0  0  0  0  0  0
  -20.7310  -26.9070   22.4590 C   0  0  0  0  0  2  0  0  0  0  0  0
  -19.6180  -26.6140   21.4470 C   0  0  0  0  0  2  0  0  0  0  0  0
  -18.2430  -26.7530   22.1060 C   0  0  0  0  0  2  0  0  0  0  0  0
  -19.2090  -28.8330   23.2520 C   0  0  0  0  0  0  0  0  0  0  0  0
  -19.0010  -30.0820   23.8750 C   0  0  0  0  0  3  0  0  0  0  0  0
  -17.7010  -30.5860   24.0670 C   0  0  0  0  0  3  0  0  0  0  0  0
  -16.5880  -29.8380   23.6460 C   0  0  0  0  0  3  0  0  0  0  0  0
  -16.7790  -28.5900   23.0250 C   0  0  0  0  0  3  0  0  0  0  0  0
  -25.8780  -32.5320   23.8060 C   0  0  0  0  0  3  0  0  0  0  0  0
  -26.3820  -31.7650   25.0910 C   0  0  1  0  0  0  0  0  0  0  0  0
  -25.2710  -31.5050   26.1360 C   0  0  0  0  0  1  0  0  0  0  0  0
  -26.9950  -30.3980   24.7090 C   0  0  0  0  0  1  0  0  0  0  0  0
  -27.5050  -32.5760   25.7780 C   0  0  0  0  0  1  0  0  0  0  0  0
  -25.5390  -33.9240   24.1410 N   0  0  0  0  0  0  0  0  0  0  0  0
  -25.8630  -34.9890   23.3960 C   0  0  0  0  0  0  0  0  0  0  0  0
  -26.5440  -34.9050   22.3710 O   0  0  0  0  0  0  0  0  0  0  0  0
  -24.9340  -34.0630   24.9370 H   0  0  0  0  0  0  0  0  0  0  0  0
  -24.1170  -36.7660   23.0320 C   0  0  0  0  0  1  0  0  0  0  0  0
  -25.3500  -36.3680   23.8590 C   0  0  0  0  0  3  0  0  0  0  0  0
  -27.4540  -37.2780   24.7420 C   0  0  0  0  0  1  0  0  0  0  0  0
  -26.3710  -37.4350   23.7740 N   0  0  0  0  0  0  0  0  0  0  0  0
  -25.9480  -38.3490   23.9150 H   0  0  0  0  0  0  0  0  0  0  0  0
  1  7  2  0
  2  6  1  0
  2  4  1  0
  3 47  1  0
  3  1  1  0
  4  1  1  0
  4  5  1  1
  6  3  1  0
  6  9  1  0
  8  6  1  0
 10  4  1  0
 11 17  1  0
 11 10  1  0
 12 17  1  0
 13 14  1  0
 13 12  1  0
 15 14  1  0
 15 22  1  0
 15 16  1  0
 17 16  1  0
 18 11  2  0
 19 20  2  0
 20 39  1  0
 21 20  1  0
 21 24  1  0
 22 23  1  0
 22 19  1  0
 23 21  2  0
 24 25  1  0
 25 26  2  0
 27 30  1  0
 27 26  1  0
 28 27  2  0
 29 28  1  0
 29 24  2  0
 30 31  1  0
 31 32  1  0
 32 33  2  0
 34 33  1  0
 34 38  1  0
 35 34  2  0
 36 31  2  0
 36 35  1  0
 37 36  1  0
 39 40  1  0
 40 43  1  0
 40 42  1  0
 41 39  2  0
 44 19  1  0
 44 45  1  0
 46 44  1  0
 48 49  2  0
 48 47  1  0
 50 49  1  0
 51 62  2  0
 52 50  1  0
 52 57  1  0
 53 61  1  0
 53 63  1  0
 54 60  1  0
 54 56  1  0
 55 61  1  0
 56 57  2  0
 56 55  1  0
 58 52  2  0
 59 58  1  0
 59 54  2  0
 60 53  1  0
 61 51  1  0
 63 65  2  0
 64 63  1  0
 66 64  1  0
 67 76  2  0
 67 72  1  0
 68 64  1  0
 68 72  1  0
 69 68  1  0
 70 71  1  0
 70 69  1  0
 71 67  1  0
 72 73  2  0
 73 74  1  0
 75 74  2  0
 76 75  1  0
 77 51  1  0
 77 82  1  0
 77 78  1  0
 78 81  1  1
 78 79  1  0
 80 78  1  0
 82 85  1  0
 83 87  1  0
 83 82  1  0
 84 83  2  0
 87 86  1  0
 89 87  1  0
 89 90  1  0
 89 88  1  0
M  ISO  4  10 100  11 100  49 101  50 101
M  END
>  <TORSDO>  (91) 
F 20

>  <SCORE>  (91) 
-13.046

>  <name>  (91) 
90

>  <ligand_id>  (91) 
90

>  <original_smiles>  (91) 
[H]c1c([H])c([H])c2c(c1[H])C([H])([H])C([H])([H])C([H])([H])C2([H])N([H])C(=O)C1([H])N(C(=O)C([H])(N([H])C(=O)C([H])(N([H])C([H])([H])[H])C([H])([H])[H])C(C([H])([H])[H])(C([H])([H])[H])C([H])([H])[H])C([H])([H])c2c([H])c(OC([H])([H])C([H])([H])C([H])([H])C3([H])C(=O)C(C([H])([H])[H])(C([H])([H])C(=O)N4C([H])([H])C([H])([H])C([H])([H])C([H])(n5nc(-c6c([H])c([H])c(Oc7c([H])c([H])c(F)c([H])c7F)c([H])c6[H])c(C(=O)N([H])[H])c5N([H])[H])C4([H])[H])C([H])([H])[N+]3([H])[H])c([H])c([H])c2C1([H])[H]

>  <smiles>  (91) 
[H]c1c([H])c([H])c2c(c1[H])C([H])([H])C([H])([H])C([H])([H])C2([H])N([H])C(=O)C1([H])N(C(=O)C([H])(N([H])C(=O)C([H])(N([H])C([H])([H])[H])C([H])([H])[H])C(C([H])([H])[H])(C([H])([H])[H])C([H])([H])[H])C([H])([H])c2c([H])c(OC([H])([H])C([H])([H])C([H])([H])C3([H])C(=O)C(C([H])([H])[H])(C([H])([H])C(=O)N4C([H])([H])C([H])([H])C([H])([H])C([H])(n5nc(-c6c([H])c([H])c(Oc7c([H])c([H])c(F)c([H])c7F)c([H])c6[H])c(C(=O)N([H])[H])c5N([H])[H])C4([H])[H])C([H])([H])[N+]3([H])[H])c([H])c([H])c2C1([H])[H]

$$$$
91:0:0
     RDKit          3D

 87 94  0  0  1  0  0  0  0  0999 V2000
  -29.1630  -22.0130   20.9400 C   0  0  0  0  0  3  0  0  0  0  0  0
  -28.8510  -23.4260   20.9420 C   0  0  0  0  0  0  0  0  0  0  0  0
  -29.3410  -24.1750   22.1780 C   0  0  0  0  0  1  0  0  0  0  0  0
  -29.0300  -20.7200   20.0910 C   0  0  0  0  0  0  0  0  0  0  0  0
  -29.4670  -19.4580   20.6290 N   0  0  0  0  0  0  0  0  0  0  0  0
  -28.6010  -20.7500   18.9390 O   0  0  0  0  0  0  0  0  0  0  0  0
  -29.7570  -19.5330   21.5950 H   0  0  0  0  0  0  0  0  0  0  0  0
  -29.7750  -18.0100   20.0050 C   0  0  0  0  0  2  0  0  0  0  0  0
  -29.7260  -16.4840   20.7860 C   0  0  0  0  0  2  0  0  0  0  0  0
  -30.4880  -15.0450   20.3500 C   0  0  0  0  0  0  0  0  0  0  0  0
  -30.4100  -12.6740   19.4030 C   0  0  0  0  0  2  0  0  0  0  0  0
  -29.4920  -12.6320   18.1550 C   0  0  0  0  0  2  0  0  0  0  0  0
  -28.0250  -12.4120   18.5640 C   0  0  0  0  0  2  0  0  0  0  0  0
  -27.6020  -13.3250   19.7440 C   0  0  0  0  0  3  0  0  0  0  0  0
  -28.6420  -13.3330   20.8840 C   0  0  0  0  0  2  0  0  0  0  0  0
  -29.9210  -13.7630   20.3050 N   0  0  0  0  0  0  0  0  0  0  0  0
  -31.6710  -15.1030   19.9900 O   0  0  0  0  0  0  0  0  0  0  0  0
  -25.2050  -13.8910   20.4320 C   0  0  0  0  0  0  0  0  0  0  0  0
  -24.1410  -13.1130   20.7990 C   0  0  0  0  0  0  0  0  0  0  0  0
  -24.6190  -11.7660   20.8010 C   0  0  0  0  0  0  0  0  0  0  0  0
  -26.2590  -13.0190   20.2250 N   0  0  0  0  0  0  0  0  0  0  0  0
  -25.9150  -11.7360   20.5130 N   0  0  0  0  0  0  0  0  0  0  0  0
  -23.8980  -10.5020   21.0030 C   0  0  0  0  0  0  0  0  0  0  0  0
  -24.3280   -9.5480   21.9520 C   0  0  0  0  0  3  0  0  0  0  0  0
  -23.6080   -8.3500   22.1420 C   0  0  0  0  0  3  0  0  0  0  0  0
  -22.4410   -8.0950   21.3820 C   0  0  0  0  0  0  0  0  0  0  0  0
  -22.0290   -9.0370   20.4220 C   0  0  0  0  0  3  0  0  0  0  0  0
  -22.7520  -10.2270   20.2310 C   0  0  0  0  0  3  0  0  0  0  0  0
  -21.6910   -6.9480   21.4800 O   0  0  0  0  0  0  0  0  0  0  0  0
  -21.6490   -6.2130   22.6380 C   0  0  0  0  0  0  0  0  0  0  0  0
  -21.2270   -6.7740   23.8620 C   0  0  0  0  0  3  0  0  0  0  0  0
  -21.1310   -5.9650   25.0120 C   0  0  0  0  0  3  0  0  0  0  0  0
  -21.4480   -4.5950   24.9380 C   0  0  0  0  0  0  0  0  0  0  0  0
  -21.8620   -4.0330   23.7180 C   0  0  0  0  0  3  0  0  0  0  0  0
  -21.9600   -4.8400   22.5700 C   0  0  0  0  0  0  0  0  0  0  0  0
  -22.3390   -4.2880   21.3930 F   0  0  0  0  0  0  0  0  0  0  0  0
  -21.3490   -3.8160   26.0400 F   0  0  0  0  0  0  0  0  0  0  0  0
  -22.7360  -13.5840   21.0370 C   0  0  0  0  0  0  0  0  0  0  0  0
  -21.9980  -12.8990   21.9030 N   0  0  0  0  0  0  0  0  0  0  0  0
  -22.3000  -14.5950   20.4880 O   0  0  0  0  0  0  0  0  0  0  0  0
  -22.3650  -12.0820   22.3690 H   0  0  0  0  0  0  0  0  0  0  0  0
  -21.0540  -13.1950   22.1040 H   0  0  0  0  0  0  0  0  0  0  0  0
  -25.3600  -15.2600   20.2350 N   0  0  0  0  0  0  0  0  0  0  0  0
  -24.5860  -15.9100   20.3230 H   0  0  0  0  0  0  0  0  0  0  0  0
  -26.2120  -15.7020   19.9140 H   0  0  0  0  0  0  0  0  0  0  0  0
  -28.0910  -24.5830   20.0350 C   0  0  0  0  0  2  0  0  0  0  0  0
  -28.2440  -26.1300   20.3320 O   0  0  0  0  0  0  0  0  0  0  0  0
  -24.6320  -31.8860   23.2530 C   0  0  0  0  0  0  0  0  0  0  0  0
  -27.1930  -27.1280   20.2360 C   0  0  0  0  0  0  0  0  0  0  0  0
  -23.4300  -30.4920   21.6150 C   0  0  0  0  0  3  0  0  0  0  0  0
  -24.8740  -28.9040   20.1910 C   0  0  0  0  0  0  0  0  0  0  0  0
  -25.9860  -30.7380   21.4550 C   0  0  0  0  0  2  0  0  0  0  0  0
  -26.0540  -29.3420   20.8050 C   0  0  0  0  0  0  0  0  0  0  0  0
  -27.2110  -28.4680   20.8110 C   0  0  0  0  0  3  0  0  0  0  0  0
  -25.9900  -26.8060   19.5700 C   0  0  0  0  0  3  0  0  0  0  0  0
  -24.8580  -27.6530   19.5560 C   0  0  0  0  0  3  0  0  0  0  0  0
  -23.6500  -29.8100   20.2370 C   0  0  0  0  0  2  0  0  0  0  0  0
  -24.7020  -31.0630   22.1620 N   0  0  0  0  0  0  0  0  0  0  0  0
  -23.5460  -32.1770   23.7780 O   0  0  0  0  0  0  0  0  0  0  0  0
  -22.7450  -29.4900   22.5790 C   0  0  0  0  0  0  0  0  0  0  0  0
  -21.4160  -29.3210   22.4490 N   0  0  0  0  0  0  0  0  0  0  0  0
  -23.4120  -28.8680   23.4110 O   0  0  0  0  0  0  0  0  0  0  0  0
  -20.9340  -29.8750   21.7540 H   0  0  0  0  0  0  0  0  0  0  0  0
  -18.0360  -28.1100   22.9300 C   0  0  0  0  0  0  0  0  0  0  0  0
  -20.5910  -28.3880   23.2210 C   0  0  0  0  0  3  0  0  0  0  0  0
  -20.7050  -26.9500   22.6620 C   0  0  0  0  0  2  0  0  0  0  0  0
  -19.6150  -26.6120   21.6390 C   0  0  0  0  0  2  0  0  0  0  0  0
  -18.2260  -26.7550   22.2670 C   0  0  0  0  0  2  0  0  0  0  0  0
  -19.1450  -28.8830   23.3630 C   0  0  0  0  0  0  0  0  0  0  0  0
  -18.9130  -30.1480   23.9450 C   0  0  0  0  0  3  0  0  0  0  0  0
  -17.6020  -30.6410   24.0950 C   0  0  0  0  0  3  0  0  0  0  0  0
  -16.5080  -29.8650   23.6780 C   0  0  0  0  0  3  0  0  0  0  0  0
  -16.7250  -28.6010   23.1010 C   0  0  0  0  0  3  0  0  0  0  0  0
  -25.9100  -32.5210   23.8810 C   0  0  0  0  0  3  0  0  0  0  0  0
  -26.4110  -31.7580   25.1700 C   0  0  1  0  0  0  0  0  0  0  0  0
  -25.3090  -31.5420   26.2340 C   0  0  0  0  0  1  0  0  0  0  0  0
  -26.9850  -30.3710   24.8020 C   0  0  0  0  0  1  0  0  0  0  0  0
  -27.5640  -32.5510   25.8320 C   0  0  0  0  0  1  0  0  0  0  0  0
  -25.6050  -33.9240   24.2040 N   0  0  0  0  0  0  0  0  0  0  0  0
  -25.9380  -34.9750   23.4440 C   0  0  0  0  0  0  0  0  0  0  0  0
  -26.6030  -34.8660   22.4100 O   0  0  0  0  0  0  0  0  0  0  0  0
  -25.0140  -34.0820   25.0070 H   0  0  0  0  0  0  0  0  0  0  0  0
  -24.2140  -36.7770   23.1020 C   0  0  0  0  0  1  0  0  0  0  0  0
  -25.4630  -36.3680   23.9010 C   0  0  0  0  0  3  0  0  0  0  0  0
  -27.6090  -37.2510   24.7070 C   0  0  0  0  0  1  0  0  0  0  0  0
  -26.4980  -37.4170   23.7730 N   0  0  0  0  0  0  0  0  0  0  0  0
  -26.0970  -38.3400   23.9180 H   0  0  0  0  0  0  0  0  0  0  0  0
  1  2  2  0
  2  3  1  0
  4  5  1  0
  4  1  1  0
  5  7  1  0
  6  4  2  0
  8  5  1  0
  8  9  1  0
 10  9  1  0
 11 16  1  0
 12 13  1  0
 12 11  1  0
 14 13  1  0
 14 21  1  0
 14 15  1  0
 16 10  1  0
 16 15  1  0
 17 10  2  0
 18 19  2  0
 19 20  1  0
 19 38  1  0
 20 23  1  0
 21 18  1  0
 21 22  1  0
 22 20  2  0
 23 24  1  0
 24 25  2  0
 26 29  1  0
 26 25  1  0
 27 26  2  0
 28 27  1  0
 28 23  2  0
 29 30  1  0
 30 31  1  0
 31 32  2  0
 33 32  1  0
 33 37  1  0
 34 33  2  0
 35 30  2  0
 35 34  1  0
 36 35  1  0
 38 39  1  0
 39 42  1  0
 39 41  1  0
 40 38  2  0
 43 44  1  0
 43 18  1  0
 45 43  1  0
 46 47  1  0
 46  2  1  0
 48 59  2  0
 49 47  1  0
 49 54  1  0
 50 58  1  0
 50 60  1  0
 51 57  1  0
 51 53  1  0
 52 58  1  0
 53 54  2  0
 53 52  1  0
 55 49  2  0
 56 55  1  0
 56 51  2  0
 57 50  1  0
 58 48  1  0
 60 62  2  0
 61 60  1  0
 63 61  1  0
 64 73  2  0
 64 69  1  0
 65 61  1  0
 65 69  1  0
 66 65  1  0
 67 68  1  0
 67 66  1  0
 68 64  1  0
 69 70  2  0
 70 71  1  0
 72 71  2  0
 73 72  1  0
 74 48  1  0
 74 79  1  0
 74 75  1  0
 75 78  1  1
 75 76  1  0
 77 75  1  0
 79 82  1  0
 80 84  1  0
 80 79  1  0
 81 80  2  0
 84 83  1  0
 86 84  1  0
 86 87  1  0
 86 85  1  0
M  ISO  4   9 100  10 100  46 101  47 101
M  END
>  <TORSDO>  (92) 
F 20

>  <SCORE>  (92) 
-14.531

>  <name>  (92) 
91

>  <ligand_id>  (92) 
91

>  <original_smiles>  (92) 
[H]C(C(=O)N([H])C([H])([H])C([H])([H])C(=O)N1C([H])([H])C([H])([H])C([H])([H])C([H])(n2nc(-c3c([H])c([H])c(Oc4c([H])c([H])c(F)c([H])c4F)c([H])c3[H])c(C(=O)N([H])[H])c2N([H])[H])C1([H])[H])=C(C([H])([H])[H])C([H])([H])Oc1c([H])c([H])c2c(c1[H])C([H])([H])N(C(=O)C([H])(N([H])C(=O)C([H])(N([H])C([H])([H])[H])C([H])([H])[H])C(C([H])([H])[H])(C([H])([H])[H])C([H])([H])[H])C([H])(C(=O)N([H])C1([H])c3c([H])c([H])c([H])c([H])c3C([H])([H])C([H])([H])C1([H])[H])C2([H])[H]

>  <smiles>  (92) 
[H]C(C(=O)N([H])C([H])([H])C([H])([H])C(=O)N1C([H])([H])C([H])([H])C([H])([H])C([H])(n2nc(-c3c([H])c([H])c(Oc4c([H])c([H])c(F)c([H])c4F)c([H])c3[H])c(C(=O)N([H])[H])c2N([H])[H])C1([H])[H])=C(C([H])([H])[H])C([H])([H])Oc1c([H])c([H])c2c(c1[H])C([H])([H])N(C(=O)C([H])(N([H])C(=O)C([H])(N([H])C([H])([H])[H])C([H])([H])[H])C(C([H])([H])[H])(C([H])([H])[H])C([H])([H])[H])C([H])(C(=O)N([H])C1([H])c3c([H])c([H])c([H])c([H])c3C([H])([H])C([H])([H])C1([H])[H])C2([H])[H]

$$$$
92:0:0
     RDKit          3D

 96104  0  0  1  0  0  0  0  0999 V2000
  -28.8680  -20.8700   20.0290 C   0  0  0  0  0  2  0  0  0  0  0  0
  -29.7290  -22.4400   18.1550 C   0  0  0  0  0  1  0  0  0  0  0  0
  -28.9480  -22.3190   19.4860 C   0  0  0  0  0  3  0  0  0  0  0  0
  -29.5430  -23.1790   20.5460 N   0  0  0  0  0  4  0  0  0  0  0  0
  -29.0040  -23.0470   21.3890 H   0  0  0  0  0  0  0  0  0  0  0  0
  -30.4660  -22.8150   20.7490 H   0  0  0  0  0  0  0  0  0  0  0  0
  -29.6760  -24.6370   20.2920 C   0  0  0  0  0  2  0  0  0  0  0  0
  -28.3250  -25.3240   20.0300 C   0  0  0  0  0  2  0  0  0  0  0  0
  -28.4130  -26.7380   20.2200 O   0  0  0  0  0  0  0  0  0  0  0  0
  -24.5630  -31.9140   23.2310 C   0  0  0  0  0  0  0  0  0  0  0  0
  -27.2240  -27.4400   20.2130 C   0  0  0  0  0  0  0  0  0  0  0  0
  -23.3590  -30.4860   21.6080 C   0  0  0  0  0  3  0  0  0  0  0  0
  -24.8160  -28.9290   20.2170 C   0  0  0  0  0  0  0  0  0  0  0  0
  -25.8830  -30.8490   21.4080 C   0  0  0  0  0  2  0  0  0  0  0  0
  -25.9750  -29.4700   20.7880 C   0  0  0  0  0  0  0  0  0  0  0  0
  -27.1800  -28.7320   20.7830 C   0  0  0  0  0  3  0  0  0  0  0  0
  -26.0360  -26.9070   19.6530 C   0  0  0  0  0  3  0  0  0  0  0  0
  -24.8410  -27.6430   19.6540 C   0  0  0  0  0  3  0  0  0  0  0  0
  -23.5720  -29.7860   20.2410 C   0  0  0  0  0  2  0  0  0  0  0  0
  -24.6190  -31.0990   22.1400 N   0  0  0  0  0  0  0  0  0  0  0  0
  -23.4800  -32.1930   23.7660 O   0  0  0  0  0  0  0  0  0  0  0  0
  -22.7080  -29.4800   22.5820 C   0  0  0  0  0  0  0  0  0  0  0  0
  -21.3820  -29.2970   22.4530 N   0  0  0  0  0  0  0  0  0  0  0  0
  -23.3890  -28.8660   23.4060 O   0  0  0  0  0  0  0  0  0  0  0  0
  -20.8920  -29.8400   21.7550 H   0  0  0  0  0  0  0  0  0  0  0  0
  -18.0030  -28.1310   22.9770 C   0  0  0  0  0  0  0  0  0  0  0  0
  -20.5640  -28.3710   23.2360 C   0  0  0  0  0  3  0  0  0  0  0  0
  -20.6550  -26.9350   22.6710 C   0  0  0  0  0  2  0  0  0  0  0  0
  -19.5470  -26.6130   21.6640 C   0  0  0  0  0  2  0  0  0  0  0  0
  -18.1680  -26.7730   22.3120 C   0  0  0  0  0  2  0  0  0  0  0  0
  -19.1300  -28.8870   23.3970 C   0  0  0  0  0  0  0  0  0  0  0  0
  -18.9240  -30.1570   23.9750 C   0  0  0  0  0  3  0  0  0  0  0  0
  -17.6240  -30.6710   24.1410 C   0  0  0  0  0  3  0  0  0  0  0  0
  -16.5130  -29.9120   23.7400 C   0  0  0  0  0  3  0  0  0  0  0  0
  -16.7030  -28.6450   23.1620 C   0  0  0  0  0  3  0  0  0  0  0  0
  -25.8500  -32.5500   23.8430 C   0  0  0  0  0  3  0  0  0  0  0  0
  -25.5340  -33.9470   24.1690 N   0  0  0  0  0  0  0  0  0  0  0  0
  -25.8630  -35.0000   23.4070 C   0  0  0  0  0  0  0  0  0  0  0  0
  -26.5360  -34.8980   22.3780 O   0  0  0  0  0  0  0  0  0  0  0  0
  -24.9330  -34.1030   24.9650 H   0  0  0  0  0  0  0  0  0  0  0  0
  -24.1360  -36.7870   23.0330 C   0  0  0  0  0  1  0  0  0  0  0  0
  -25.3690  -36.3850   23.8590 C   0  0  0  0  0  3  0  0  0  0  0  0
  -27.4900  -37.2720   24.7150 C   0  0  0  0  0  1  0  0  0  0  0  0
  -26.3990  -37.4420   23.7580 N   0  0  0  0  0  0  0  0  0  0  0  0
  -25.9890  -38.3590   23.9060 H   0  0  0  0  0  0  0  0  0  0  0  0
  -26.3800  -31.7860   25.1180 C   0  0  1  0  0  0  0  0  0  0  0  0
  -25.2920  -31.5430   26.1890 C   0  0  0  0  0  1  0  0  0  0  0  0
  -26.9770  -30.4140   24.7250 C   0  0  0  0  0  1  0  0  0  0  0  0
  -27.5270  -32.5940   25.7730 C   0  0  0  0  0  1  0  0  0  0  0  0
  -28.4370  -19.8450   19.0610 N   0  0  0  0  0  0  0  0  0  0  0  0
  -27.5120  -19.4780   19.2570 H   0  0  0  0  0  0  0  0  0  0  0  0
  -31.8290  -18.4870   18.8680 C   0  0  0  0  0  3  0  0  0  0  0  0
  -30.7010  -19.2190   18.4850 C   0  0  0  0  0  3  0  0  0  0  0  0
  -29.2510  -17.6020   19.5900 C   0  0  0  0  0  3  0  0  0  0  0  0
  -31.6800  -17.3580   19.6920 C   0  0  0  0  0  0  0  0  0  0  0  0
  -29.4320  -18.8640   18.9840 C   0  0  0  0  0  0  0  0  0  0  0  0
  -30.3770  -16.8090   19.9100 C   0  0  0  0  0  0  0  0  0  0  0  0
  -32.9320  -16.8380   20.3780 C   0  0  0  0  0  1  0  0  0  0  0  0
  -30.6690  -14.4170   19.9270 C   0  0  0  0  0  0  0  0  0  0  0  0
  -30.1630  -12.3430   18.7120 C   0  0  0  0  0  2  0  0  0  0  0  0
  -29.1230  -12.6160   17.6060 C   0  0  0  0  0  2  0  0  0  0  0  0
  -27.6950  -12.4450   18.1610 C   0  0  0  0  0  2  0  0  0  0  0  0
  -27.4760  -13.2520   19.4740 C   0  0  0  0  0  3  0  0  0  0  0  0
  -28.6180  -12.9620   20.4660 C   0  0  0  0  0  2  0  0  0  0  0  0
  -29.8940  -13.2940   19.8100 N   0  0  0  0  0  0  0  0  0  0  0  0
  -31.7300  -14.4980   19.2990 O   0  0  0  0  0  0  0  0  0  0  0  0
  -29.6640  -15.5720   21.8960 C   0  0  0  0  0  1  0  0  0  0  0  0
  -30.1680  -15.5320   20.5260 N   0  0  0  0  0  0  0  0  0  0  0  0
  -25.1550  -13.8570   20.4120 C   0  0  0  0  0  0  0  0  0  0  0  0
  -24.1200  -13.0870   20.8640 C   0  0  0  0  0  0  0  0  0  0  0  0
  -24.5660  -11.7350   20.7680 C   0  0  0  0  0  0  0  0  0  0  0  0
  -26.1680  -12.9770   20.0660 N   0  0  0  0  0  0  0  0  0  0  0  0
  -25.8210  -11.6920   20.3360 N   0  0  0  0  0  0  0  0  0  0  0  0
  -23.8530  -10.4720   20.9970 C   0  0  0  0  0  0  0  0  0  0  0  0
  -24.3350   -9.5040   21.9070 C   0  0  0  0  0  3  0  0  0  0  0  0
  -23.6180   -8.3070   22.1220 C   0  0  0  0  0  3  0  0  0  0  0  0
  -22.4090   -8.0670   21.4260 C   0  0  0  0  0  0  0  0  0  0  0  0
  -21.9460   -9.0270   20.5090 C   0  0  0  0  0  3  0  0  0  0  0  0
  -22.6620  -10.2150   20.2900 C   0  0  0  0  0  3  0  0  0  0  0  0
  -21.6580   -6.9250   21.5550 O   0  0  0  0  0  0  0  0  0  0  0  0
  -21.6410   -6.2010   22.7220 C   0  0  0  0  0  0  0  0  0  0  0  0
  -21.2540   -6.7750   23.9520 C   0  0  0  0  0  3  0  0  0  0  0  0
  -21.1850   -5.9760   25.1120 C   0  0  0  0  0  3  0  0  0  0  0  0
  -21.4980   -4.6050   25.0400 C   0  0  0  0  0  0  0  0  0  0  0  0
  -21.8770   -4.0290   23.8150 C   0  0  0  0  0  3  0  0  0  0  0  0
  -21.9470   -4.8260   22.6580 C   0  0  0  0  0  0  0  0  0  0  0  0
  -22.2940   -4.2610   21.4760 F   0  0  0  0  0  0  0  0  0  0  0  0
  -21.4220   -3.8350   26.1510 F   0  0  0  0  0  0  0  0  0  0  0  0
  -22.7580  -13.5710   21.2660 C   0  0  0  0  0  0  0  0  0  0  0  0
  -22.1130  -12.8870   22.2050 N   0  0  0  0  0  0  0  0  0  0  0  0
  -22.2710  -14.5910   20.7790 O   0  0  0  0  0  0  0  0  0  0  0  0
  -22.5210  -12.0690   22.6330 H   0  0  0  0  0  0  0  0  0  0  0  0
  -21.1930  -13.1890   22.4920 H   0  0  0  0  0  0  0  0  0  0  0  0
  -25.3030  -15.2310   20.2500 N   0  0  0  0  0  0  0  0  0  0  0  0
  -24.5340  -15.8630   20.4350 H   0  0  0  0  0  0  0  0  0  0  0  0
  -26.1100  -15.6880   19.8450 H   0  0  0  0  0  0  0  0  0  0  0  0
  3  2  1  0
  3  1  1  0
  3  4  1  0
  4  6  1  0
  4  5  1  0
  7  4  1  0
  8  9  1  0
  8  7  1  0
 10 21  2  0
 11  9  1  0
 11 16  1  0
 12 20  1  0
 12 22  1  0
 13 19  1  0
 13 15  1  0
 14 20  1  0
 15 14  1  0
 16 15  2  0
 17 18  1  0
 17 11  2  0
 18 13  2  0
 19 12  1  0
 20 10  1  0
 22 24  2  0
 23 22  1  0
 25 23  1  0
 26 35  2  0
 26 31  1  0
 27 23  1  0
 27 31  1  0
 28 27  1  0
 29 30  1  0
 29 28  1  0
 30 26  1  0
 31 32  2  0
 32 33  1  0
 34 33  2  0
 35 34  1  0
 36 10  1  0
 36 37  1  0
 36 46  1  0
 37 40  1  0
 38 42  1  0
 38 37  1  0
 39 38  2  0
 42 41  1  0
 44 42  1  0
 44 45  1  0
 44 43  1  0
 46 49  1  1
 46 47  1  0
 48 46  1  0
 50 51  1  0
 50  1  1  0
 52 55  1  0
 53 52  2  0
 53 56  1  0
 54 57  1  0
 55 57  2  0
 55 58  1  0
 56 50  1  0
 56 54  2  0
 57 68  1  0
 59 68  1  0
 60 65  1  0
 61 62  1  0
 61 60  1  0
 63 62  1  0
 63 72  1  0
 63 64  1  0
 65 59  1  0
 65 64  1  0
 66 59  2  0
 68 67  1  0
 69 70  2  0
 70 89  1  0
 71 70  1  0
 71 74  1  0
 72 73  1  0
 72 69  1  0
 73 71  2  0
 74 75  1  0
 75 76  2  0
 77 80  1  0
 77 76  1  0
 78 77  2  0
 79 78  1  0
 79 74  2  0
 80 81  1  0
 81 82  1  0
 82 83  2  0
 84 83  1  0
 84 88  1  0
 85 84  2  0
 86 81  2  0
 86 85  1  0
 87 86  1  0
 89 90  1  0
 90 93  1  0
 90 92  1  0
 91 89  2  0
 94 69  1  0
 94 95  1  0
 96 94  1  0
M  ISO  4   8 101   9 101  59 100  68 100
M  END
>  <TORSDO>  (93) 
F 22

>  <SCORE>  (93) 
-12.088

>  <name>  (93) 
92

>  <ligand_id>  (93) 
92

>  <original_smiles>  (93) 
[H]c1c([H])c([H])c2c(c1[H])C([H])([H])C([H])([H])C([H])([H])C2([H])N([H])C(=O)C1([H])N(C(=O)C([H])(N([H])C(=O)C([H])(N([H])C([H])([H])[H])C([H])([H])[H])C(C([H])([H])[H])(C([H])([H])[H])C([H])([H])[H])C([H])([H])c2c([H])c(OC([H])([H])C([H])([H])[N+]([H])([H])C([H])(C([H])([H])[H])C([H])([H])N([H])c3c([H])c([H])c(C([H])([H])[H])c(N(C(=O)N4C([H])([H])C([H])([H])C([H])([H])C([H])(n5nc(-c6c([H])c([H])c(Oc7c([H])c([H])c(F)c([H])c7F)c([H])c6[H])c(C(=O)N([H])[H])c5N([H])[H])C4([H])[H])C([H])([H])[H])c3[H])c([H])c([H])c2C1([H])[H]

>  <smiles>  (93) 
[H]c1c([H])c([H])c2c(c1[H])C([H])([H])C([H])([H])C([H])([H])C2([H])N([H])C(=O)C1([H])N(C(=O)C([H])(N([H])C(=O)C([H])(N([H])C([H])([H])[H])C([H])([H])[H])C(C([H])([H])[H])(C([H])([H])[H])C([H])([H])[H])C([H])([H])c2c([H])c(OC([H])([H])C([H])([H])[N+]([H])([H])C([H])(C([H])([H])[H])C([H])([H])N([H])c3c([H])c([H])c(C([H])([H])[H])c(N(C(=O)N4C([H])([H])C([H])([H])C([H])([H])C([H])(n5nc(-c6c([H])c([H])c(Oc7c([H])c([H])c(F)c([H])c7F)c([H])c6[H])c(C(=O)N([H])[H])c5N([H])[H])C4([H])[H])C([H])([H])[H])c3[H])c([H])c([H])c2C1([H])[H]

$$$$
93:0:0
     RDKit          3D

 92100  0  0  1  0  0  0  0  0999 V2000
  -29.4040  -19.0180   20.1270 N   0  0  0  0  0  0  0  0  0  0  0  0
  -28.4240  -18.8140   19.9420 H   0  0  0  0  0  0  0  0  0  0  0  0
  -31.3010  -16.6340   22.6410 C   0  0  0  0  0  3  0  0  0  0  0  0
  -30.0900  -16.1740   22.0750 C   0  0  0  0  0  3  0  0  0  0  0  0
  -32.1400  -17.4860   21.8920 C   0  0  0  0  0  3  0  0  0  0  0  0
  -29.9090  -16.3940   20.6850 C   0  0  0  0  0  3  0  0  0  0  0  0
  -31.6180  -18.1230   20.7520 C   0  0  0  0  0  0  0  0  0  0  0  0
  -30.2840  -17.8190   20.3570 C   0  0  0  0  0  3  0  0  0  0  0  0
  -30.4690  -15.0760   19.9550 C   0  0  0  0  0  0  0  0  0  0  0  0
  -30.2270  -12.7740   18.9150 C   0  0  0  0  0  2  0  0  0  0  0  0
  -29.2220  -12.8020   17.7410 C   0  0  0  0  0  2  0  0  0  0  0  0
  -27.7880  -12.5800   18.2430 C   0  0  0  0  0  2  0  0  0  0  0  0
  -27.4670  -13.4560   19.4780 C   0  0  0  0  0  3  0  0  0  0  0  0
  -28.5840  -13.4140   20.5420 C   0  0  0  0  0  2  0  0  0  0  0  0
  -29.8420  -13.8270   19.9020 N   0  0  0  0  0  0  0  0  0  0  0  0
  -31.5770  -15.1520   19.4090 O   0  0  0  0  0  0  0  0  0  0  0  0
  -25.1330  -14.0040   20.3690 C   0  0  0  0  0  0  0  0  0  0  0  0
  -24.1000  -13.2160   20.7900 C   0  0  0  0  0  0  0  0  0  0  0  0
  -24.5760  -11.8690   20.7100 C   0  0  0  0  0  0  0  0  0  0  0  0
  -26.1650  -13.1400   20.0470 N   0  0  0  0  0  0  0  0  0  0  0  0
  -25.8460  -11.8510   20.3250 N   0  0  0  0  0  0  0  0  0  0  0  0
  -23.8700  -10.5990   20.9240 C   0  0  0  0  0  0  0  0  0  0  0  0
  -24.3490   -9.6320   21.8350 C   0  0  0  0  0  3  0  0  0  0  0  0
  -23.6410   -8.4280   22.0370 C   0  0  0  0  0  3  0  0  0  0  0  0
  -22.4410   -8.1830   21.3290 C   0  0  0  0  0  0  0  0  0  0  0  0
  -21.9800   -9.1370   20.4040 C   0  0  0  0  0  3  0  0  0  0  0  0
  -22.6900  -10.3340   20.2000 C   0  0  0  0  0  3  0  0  0  0  0  0
  -21.6980   -7.0330   21.4430 O   0  0  0  0  0  0  0  0  0  0  0  0
  -21.6890   -6.2990   22.6020 C   0  0  0  0  0  0  0  0  0  0  0  0
  -21.2830   -6.8560   23.8340 C   0  0  0  0  0  3  0  0  0  0  0  0
  -21.2130   -6.0440   24.9840 C   0  0  0  0  0  3  0  0  0  0  0  0
  -21.5420   -4.6790   24.9040 C   0  0  0  0  0  0  0  0  0  0  0  0
  -21.9410   -4.1200   23.6750 C   0  0  0  0  0  3  0  0  0  0  0  0
  -22.0090   -4.9290   22.5270 C   0  0  0  0  0  0  0  0  0  0  0  0
  -22.3750   -4.3820   21.3430 F   0  0  0  0  0  0  0  0  0  0  0  0
  -21.4690   -3.8970   26.0060 F   0  0  0  0  0  0  0  0  0  0  0  0
  -22.7160  -13.6740   21.1430 C   0  0  0  0  0  0  0  0  0  0  0  0
  -22.0460  -12.9680   22.0470 N   0  0  0  0  0  0  0  0  0  0  0  0
  -22.2410  -14.6980   20.6540 O   0  0  0  0  0  0  0  0  0  0  0  0
  -22.4390  -12.1400   22.4680 H   0  0  0  0  0  0  0  0  0  0  0  0
  -21.1170  -13.2570   22.3180 H   0  0  0  0  0  0  0  0  0  0  0  0
  -25.2670  -15.3820   20.2080 N   0  0  0  0  0  0  0  0  0  0  0  0
  -24.4990  -16.0120   20.4100 H   0  0  0  0  0  0  0  0  0  0  0  0
  -26.0890  -15.8590   19.8590 H   0  0  0  0  0  0  0  0  0  0  0  0
  -32.3620  -19.1360   20.1550 N   0  0  0  0  0  0  0  0  0  0  0  0
  -33.3520  -18.9300   20.0750 H   0  0  0  0  0  0  0  0  0  0  0  0
  -31.9760  -19.4400   19.2690 H   0  0  0  0  0  0  0  0  0  0  0  0
  -29.7360  -20.5530   20.2500 C   0  0  0  0  0  3  0  0  0  0  0  0
  -28.6320  -21.8400   20.1650 C   0  0  0  0  0  3  0  0  0  0  0  0
  -29.0110  -23.5000   20.1460 C   0  0  0  0  0  3  0  0  0  0  0  0
  -27.9160  -24.7980   20.0770 C   0  0  0  0  0  3  0  0  0  0  0  0
  -28.1770  -26.3340   20.1960 O   0  0  0  0  0  0  0  0  0  0  0  0
  -24.5740  -32.0090   23.2720 C   0  0  0  0  0  0  0  0  0  0  0  0
  -27.1070  -27.3090   20.1730 C   0  0  0  0  0  0  0  0  0  0  0  0
  -23.3410  -30.6190   21.6530 C   0  0  0  0  0  3  0  0  0  0  0  0
  -24.7630  -29.0450   20.2040 C   0  0  0  0  0  0  0  0  0  0  0  0
  -25.8910  -30.8850   21.4420 C   0  0  0  0  0  2  0  0  0  0  0  0
  -25.9540  -29.4930   20.7870 C   0  0  0  0  0  0  0  0  0  0  0  0
  -27.1250  -28.6420   20.7560 C   0  0  0  0  0  3  0  0  0  0  0  0
  -25.8840  -26.9640   19.5550 C   0  0  0  0  0  3  0  0  0  0  0  0
  -24.7380  -27.7910   19.5760 C   0  0  0  0  0  3  0  0  0  0  0  0
  -23.5400  -29.9480   20.2700 C   0  0  0  0  0  2  0  0  0  0  0  0
  -24.6230  -31.1920   22.1780 N   0  0  0  0  0  0  0  0  0  0  0  0
  -23.4990  -32.2990   23.8200 O   0  0  0  0  0  0  0  0  0  0  0  0
  -22.6800  -29.6110   22.6250 C   0  0  0  0  0  0  0  0  0  0  0  0
  -21.3550  -29.4160   22.4960 N   0  0  0  0  0  0  0  0  0  0  0  0
  -23.3590  -29.0050   23.4570 O   0  0  0  0  0  0  0  0  0  0  0  0
  -20.8640  -29.9550   21.7970 H   0  0  0  0  0  0  0  0  0  0  0  0
  -17.9970  -28.1400   22.9620 C   0  0  0  0  0  0  0  0  0  0  0  0
  -20.5430  -28.4780   23.2750 C   0  0  0  0  0  3  0  0  0  0  0  0
  -20.6980  -27.0360   22.7410 C   0  0  0  0  0  2  0  0  0  0  0  0
  -19.6240  -26.6550   21.7170 C   0  0  0  0  0  2  0  0  0  0  0  0
  -18.2250  -26.7790   22.3260 C   0  0  0  0  0  2  0  0  0  0  0  0
  -19.0860  -28.9440   23.3930 C   0  0  0  0  0  0  0  0  0  0  0  0
  -18.8210  -30.2140   23.9480 C   0  0  0  0  0  3  0  0  0  0  0  0
  -17.5000  -30.6800   24.0820 C   0  0  0  0  0  3  0  0  0  0  0  0
  -16.4260  -29.8740   23.6660 C   0  0  0  0  0  3  0  0  0  0  0  0
  -16.6750  -28.6070   23.1100 C   0  0  0  0  0  3  0  0  0  0  0  0
  -25.8660  -32.6390   23.8750 C   0  0  0  0  0  3  0  0  0  0  0  0
  -25.5700  -34.0390   24.2150 N   0  0  0  0  0  0  0  0  0  0  0  0
  -25.8910  -35.0930   23.4520 C   0  0  0  0  0  0  0  0  0  0  0  0
  -26.5380  -34.9870   22.4070 O   0  0  0  0  0  0  0  0  0  0  0  0
  -24.9930  -34.1940   25.0280 H   0  0  0  0  0  0  0  0  0  0  0  0
  -24.1590  -36.8910   23.1550 C   0  0  0  0  0  1  0  0  0  0  0  0
  -25.4220  -36.4820   23.9260 C   0  0  0  0  0  3  0  0  0  0  0  0
  -27.5820  -37.3580   24.6960 C   0  0  0  0  0  1  0  0  0  0  0  0
  -26.4530  -37.5310   23.7860 N   0  0  0  0  0  0  0  0  0  0  0  0
  -26.0540  -38.4520   23.9480 H   0  0  0  0  0  0  0  0  0  0  0  0
  -26.3950  -31.8640   25.1440 C   0  0  1  0  0  0  0  0  0  0  0  0
  -25.3110  -31.6300   26.2230 C   0  0  0  0  0  1  0  0  0  0  0  0
  -26.9730  -30.4860   24.7480 C   0  0  0  0  0  1  0  0  0  0  0  0
  -27.5550  -32.6540   25.7940 C   0  0  0  0  0  1  0  0  0  0  0  0
  1 48  1  0
  2  1  1  0
  4  3  2  0
  5  3  1  0
  6  9  1  0
  6  4  1  0
  7  5  2  0
  8  1  1  0
  8  6  1  0
  8  7  1  0
 10 15  1  0
 11 12  1  0
 11 10  1  0
 13 12  1  0
 13 20  1  0
 13 14  1  0
 15  9  1  0
 15 14  1  0
 16  9  2  0
 17 18  2  0
 18 37  1  0
 19 18  1  0
 19 22  1  0
 20 21  1  0
 20 17  1  0
 21 19  2  0
 22 23  1  0
 23 24  2  0
 25 28  1  0
 25 24  1  0
 26 25  2  0
 27 26  1  0
 27 22  2  0
 28 29  1  0
 29 30  1  0
 30 31  2  0
 32 31  1  0
 32 36  1  0
 33 32  2  0
 34 29  2  0
 34 33  1  0
 35 34  1  0
 37 38  1  0
 38 41  1  0
 38 40  1  0
 39 37  2  0
 42 17  1  0
 42 43  1  0
 44 42  1  0
 45  7  1  0
 46 45  1  0
 47 45  1  0
 49 48  2  0
 50 49  1  0
 51 50  2  0
 51 52  1  0
 53 64  2  0
 54 52  1  0
 54 59  1  0
 55 63  1  0
 55 65  1  0
 56 62  1  0
 56 58  1  0
 57 63  1  0
 58 57  1  0
 59 58  2  0
 60 61  1  0
 60 54  2  0
 61 56  2  0
 62 55  1  0
 63 53  1  0
 65 67  2  0
 66 65  1  0
 68 66  1  0
 69 78  2  0
 69 74  1  0
 70 66  1  0
 70 74  1  0
 71 70  1  0
 72 73  1  0
 72 71  1  0
 73 69  1  0
 74 75  2  0
 75 76  1  0
 77 76  2  0
 78 77  1  0
 79 53  1  0
 79 80  1  0
 79 89  1  0
 80 83  1  0
 81 85  1  0
 81 80  1  0
 82 81  2  0
 85 84  1  0
 87 85  1  0
 87 88  1  0
 87 86  1  0
 89 92  1  1
 89 90  1  0
 91 89  1  0
M  ISO  4   6 100   9 100  51 101  52 101
M  END
>  <TORSDO>  (94) 
F 22

>  <SCORE>  (94) 
-12.994

>  <name>  (94) 
93

>  <ligand_id>  (94) 
93

>  <original_smiles>  (94) 
[H]c1c([H])c(C(=O)N2C([H])([H])C([H])([H])C([H])([H])C([H])(n3nc(-c4c([H])c([H])c(Oc5c([H])c([H])c(F)c([H])c5F)c([H])c4[H])c(C(=O)N([H])[H])c3N([H])[H])C2([H])[H])c(N([H])C([H])([H])C([H])([H])C([H])([H])C([H])([H])Oc2c([H])c([H])c3c(c2[H])C([H])([H])N(C(=O)C([H])(N([H])C(=O)C([H])(N([H])C([H])([H])[H])C([H])([H])[H])C(C([H])([H])[H])(C([H])([H])[H])C([H])([H])[H])C([H])(C(=O)N([H])C2([H])c4c([H])c([H])c([H])c([H])c4C([H])([H])C([H])([H])C2([H])[H])C3([H])[H])c(N([H])[H])c1[H]

>  <smiles>  (94) 
[H]c1c([H])c(C(=O)N2C([H])([H])C([H])([H])C([H])([H])C([H])(n3nc(-c4c([H])c([H])c(Oc5c([H])c([H])c(F)c([H])c5F)c([H])c4[H])c(C(=O)N([H])[H])c3N([H])[H])C2([H])[H])c(N([H])C([H])([H])C([H])([H])C([H])([H])C([H])([H])Oc2c([H])c([H])c3c(c2[H])C([H])([H])N(C(=O)C([H])(N([H])C(=O)C([H])(N([H])C([H])([H])[H])C([H])([H])[H])C(C([H])([H])[H])(C([H])([H])[H])C([H])([H])[H])C([H])(C(=O)N([H])C2([H])c4c([H])c([H])c([H])c([H])c4C([H])([H])C([H])([H])C2([H])[H])C3([H])[H])c(N([H])[H])c1[H]

$$$$
94:0:0
     RDKit          3D

 96103  0  0  1  0  0  0  0  0999 V2000
  -29.2850  -21.1660   20.4590 C   0  0  0  0  0  3  0  0  0  0  0  0
  -28.8690  -22.3700   19.5980 N   0  0  0  0  0  4  0  0  0  0  0  0
  -29.5420  -22.4930   18.8590 H   0  0  0  0  0  0  0  0  0  0  0  0
  -28.0120  -22.0840   19.1500 H   0  0  0  0  0  0  0  0  0  0  0  0
  -28.5810  -23.7340   20.2590 C   0  0  0  0  0  3  0  0  0  0  0  0
  -28.4100  -25.0400   19.3230 C   0  0  0  0  0  3  0  0  0  0  0  0
  -28.3270  -26.4080   19.9180 O   0  0  0  0  0  0  0  0  0  0  0  0
  -24.6280  -31.7210   23.0740 C   0  0  0  0  0  0  0  0  0  0  0  0
  -27.1790  -27.2220   19.8800 C   0  0  0  0  0  0  0  0  0  0  0  0
  -23.3890  -30.3570   21.4260 C   0  0  0  0  0  3  0  0  0  0  0  0
  -24.8130  -28.8340   19.9390 C   0  0  0  0  0  0  0  0  0  0  0  0
  -25.9180  -30.6880   21.1860 C   0  0  0  0  0  2  0  0  0  0  0  0
  -25.9900  -29.3170   20.5220 C   0  0  0  0  0  0  0  0  0  0  0  0
  -27.1730  -28.5190   20.4900 C   0  0  0  0  0  3  0  0  0  0  0  0
  -25.9690  -26.7950   19.2810 C   0  0  0  0  0  3  0  0  0  0  0  0
  -24.8050  -27.5800   19.3060 C   0  0  0  0  0  3  0  0  0  0  0  0
  -23.5760  -29.7070   20.0290 C   0  0  0  0  0  2  0  0  0  0  0  0
  -24.6660  -30.9400   21.9520 N   0  0  0  0  0  0  0  0  0  0  0  0
  -23.5550  -31.9830   23.6410 O   0  0  0  0  0  0  0  0  0  0  0  0
  -22.7500  -29.3190   22.3820 C   0  0  0  0  0  0  0  0  0  0  0  0
  -21.4220  -29.1410   22.2700 N   0  0  0  0  0  0  0  0  0  0  0  0
  -23.4440  -28.6790   23.1780 O   0  0  0  0  0  0  0  0  0  0  0  0
  -20.9280  -29.7170   21.6030 H   0  0  0  0  0  0  0  0  0  0  0  0
  -18.0510  -27.9240   22.7610 C   0  0  0  0  0  0  0  0  0  0  0  0
  -20.6100  -28.1850   23.0240 C   0  0  0  0  0  3  0  0  0  0  0  0
  -20.7130  -26.7700   22.4110 C   0  0  0  0  0  2  0  0  0  0  0  0
  -19.6000  -26.4640   21.4020 C   0  0  0  0  0  2  0  0  0  0  0  0
  -18.2270  -26.5860   22.0640 C   0  0  0  0  0  2  0  0  0  0  0  0
  -19.1700  -28.6820   23.1970 C   0  0  0  0  0  0  0  0  0  0  0  0
  -18.9510  -29.9370   23.8110 C   0  0  0  0  0  3  0  0  0  0  0  0
  -17.6450  -30.4270   23.9990 C   0  0  0  0  0  3  0  0  0  0  0  0
  -16.5400  -29.6630   23.5840 C   0  0  0  0  0  3  0  0  0  0  0  0
  -16.7450  -28.4150   22.9660 C   0  0  0  0  0  3  0  0  0  0  0  0
  -25.9220  -32.3350   23.6930 C   0  0  0  0  0  3  0  0  0  0  0  0
  -25.6130  -33.7200   24.0770 N   0  0  0  0  0  0  0  0  0  0  0  0
  -25.9310  -34.8000   23.3520 C   0  0  0  0  0  0  0  0  0  0  0  0
  -26.5810  -34.7360   22.3050 O   0  0  0  0  0  0  0  0  0  0  0  0
  -25.0210  -33.8360   24.8860 H   0  0  0  0  0  0  0  0  0  0  0  0
  -24.1890  -36.6030   23.1090 C   0  0  0  0  0  1  0  0  0  0  0  0
  -25.4510  -36.1700   23.8710 C   0  0  0  0  0  3  0  0  0  0  0  0
  -27.6040  -37.0360   24.6770 C   0  0  0  0  0  1  0  0  0  0  0  0
  -26.4760  -37.2290   23.7670 N   0  0  0  0  0  0  0  0  0  0  0  0
  -26.0710  -38.1410   23.9590 H   0  0  0  0  0  0  0  0  0  0  0  0
  -26.4670  -31.5170   24.9280 C   0  0  1  0  0  0  0  0  0  0  0  0
  -25.3990  -31.2270   26.0100 C   0  0  0  0  0  1  0  0  0  0  0  0
  -27.0510  -30.1620   24.4620 C   0  0  0  0  0  1  0  0  0  0  0  0
  -27.6280  -32.2930   25.5930 C   0  0  0  0  0  1  0  0  0  0  0  0
  -30.4150  -21.4960   21.4840 C   0  0  0  0  0  2  0  0  0  0  0  0
  -31.0370  -21.5230   23.9520 C   0  0  0  0  0  1  0  0  0  0  0  0
  -29.2320  -23.1220   23.1310 C   0  0  0  0  0  1  0  0  0  0  0  0
  -29.9070  -21.7410   22.9340 C   0  0  0  0  0  3  0  0  0  0  0  0
  -29.4810  -19.7220   19.7050 C   0  0  0  0  0  3  0  0  0  0  0  0
  -28.1010  -19.0180   17.5850 C   0  0  0  0  0  1  0  0  0  0  0  0
  -28.0980  -19.3040   19.1010 C   0  0  0  0  0  3  0  0  0  0  0  0
  -25.8560  -18.1090   19.5320 C   0  0  0  0  0  1  0  0  0  0  0  0
  -27.3440  -18.2260   19.9260 C   0  0  0  0  0  2  0  0  0  0  0  0
  -30.0030  -18.5630   20.5350 N   0  0  0  0  0  0  0  0  0  0  0  0
  -29.3950  -18.4200   21.3340 H   0  0  0  0  0  0  0  0  0  0  0  0
  -30.4620  -17.2450   19.9480 C   0  0  0  0  0  3  0  0  0  0  0  0
  -30.4860  -15.9470   20.8900 C   0  0  0  0  0  3  0  0  0  0  0  0
  -31.1250  -14.5870   20.3400 C   0  0  0  0  0  0  0  0  0  0  0  0
  -30.8560  -12.2790   19.4200 C   0  0  0  0  0  2  0  0  0  0  0  0
  -29.9340  -12.3600   18.1810 C   0  0  0  0  0  2  0  0  0  0  0  0
  -28.4540  -12.2610   18.5970 C   0  0  0  0  0  2  0  0  0  0  0  0
  -28.1180  -13.2230   19.7710 C   0  0  0  0  0  3  0  0  0  0  0  0
  -29.1530  -13.1000   20.9130 C   0  0  0  0  0  2  0  0  0  0  0  0
  -30.4720  -13.3760   20.3330 N   0  0  0  0  0  0  0  0  0  0  0  0
  -32.2580  -14.6590   19.8480 O   0  0  0  0  0  0  0  0  0  0  0  0
  -25.7700  -13.9670   20.5040 C   0  0  0  0  0  0  0  0  0  0  0  0
  -24.6520  -13.2470   20.8420 C   0  0  0  0  0  0  0  0  0  0  0  0
  -25.0210  -11.8740   20.7580 C   0  0  0  0  0  0  0  0  0  0  0  0
  -26.7530  -13.0240   20.2500 N   0  0  0  0  0  0  0  0  0  0  0  0
  -26.3080  -11.7590   20.4540 N   0  0  0  0  0  0  0  0  0  0  0  0
  -24.2090  -10.6540   20.9060 C   0  0  0  0  0  0  0  0  0  0  0  0
  -24.5760   -9.6220   21.7990 C   0  0  0  0  0  3  0  0  0  0  0  0
  -23.7620   -8.4740   21.9360 C   0  0  0  0  0  3  0  0  0  0  0  0
  -22.5720   -8.3490   21.1800 C   0  0  0  0  0  0  0  0  0  0  0  0
  -22.2320   -9.3670   20.2720 C   0  0  0  0  0  3  0  0  0  0  0  0
  -23.0420  -10.5050   20.1370 C   0  0  0  0  0  3  0  0  0  0  0  0
  -21.7360   -7.2610   21.2240 O   0  0  0  0  0  0  0  0  0  0  0  0
  -21.6150   -6.4960   22.3540 C   0  0  0  0  0  0  0  0  0  0  0  0
  -21.2020   -7.0460   23.5860 C   0  0  0  0  0  3  0  0  0  0  0  0
  -21.0260   -6.2100   24.7060 C   0  0  0  0  0  3  0  0  0  0  0  0
  -21.2500   -4.8260   24.5930 C   0  0  0  0  0  0  0  0  0  0  0  0
  -21.6520   -4.2730   23.3640 C   0  0  0  0  0  3  0  0  0  0  0  0
  -21.8270   -5.1070   22.2440 C   0  0  0  0  0  0  0  0  0  0  0  0
  -22.1960   -4.5700   21.0570 F   0  0  0  0  0  0  0  0  0  0  0  0
  -21.0760   -4.0180   25.6690 F   0  0  0  0  0  0  0  0  0  0  0  0
  -23.2920  -13.8030   21.1400 C   0  0  0  0  0  0  0  0  0  0  0  0
  -22.5490  -13.1310   22.0140 N   0  0  0  0  0  0  0  0  0  0  0  0
  -22.9030  -14.8560   20.6390 O   0  0  0  0  0  0  0  0  0  0  0  0
  -22.8900  -12.2740   22.4280 H   0  0  0  0  0  0  0  0  0  0  0  0
  -21.6330  -13.4720   22.2630 H   0  0  0  0  0  0  0  0  0  0  0  0
  -26.0280  -15.3230   20.3830 N   0  0  0  0  0  0  0  0  0  0  0  0
  -25.3270  -16.0270   20.5910 H   0  0  0  0  0  0  0  0  0  0  0  0
  -26.9360  -15.7150   20.1750 H   0  0  0  0  0  0  0  0  0  0  0  0
  1 48  1  0
  2  5  1  0
  2  1  1  0
  3  2  1  0
  4  2  1  0
  6  7  1  0
  6  5  2  0
  8 19  2  0
  9  7  1  0
  9 14  1  0
 10 18  1  0
 10 20  1  0
 11 17  1  0
 11 13  1  0
 12 18  1  0
 13 12  1  0
 14 13  2  0
 15 16  1  0
 15  9  2  0
 16 11  2  0
 17 10  1  0
 18  8  1  0
 20 22  2  0
 21 20  1  0
 23 21  1  0
 24 33  2  0
 24 29  1  0
 25 21  1  0
 25 29  1  0
 26 25  1  0
 27 28  1  0
 27 26  1  0
 28 24  1  0
 29 30  2  0
 30 31  1  0
 32 31  2  0
 33 32  1  0
 34  8  1  0
 34 35  1  0
 34 44  1  0
 35 38  1  0
 36 40  1  0
 36 35  1  0
 37 36  2  0
 40 39  1  0
 42 40  1  0
 42 43  1  0
 42 41  1  0
 44 47  1  1
 44 45  1  0
 46 44  1  0
 48 51  1  0
 51 50  1  0
 51 49  1  0
 52  1  1  0
 52 57  1  0
 54 53  1  0
 54 52  1  0
 54 56  1  0
 55 56  1  0
 57 58  1  0
 59 57  1  0
 59 60  2  0
 61 60  1  0
 62 67  1  0
 63 64  1  0
 63 62  1  0
 65 64  1  0
 65 72  1  0
 65 66  1  0
 67 61  1  0
 67 66  1  0
 68 61  2  0
 69 70  2  0
 70 89  1  0
 71 70  1  0
 71 74  1  0
 72 73  1  0
 72 69  1  0
 73 71  2  0
 74 75  1  0
 75 76  2  0
 77 80  1  0
 77 76  1  0
 78 77  2  0
 79 78  1  0
 79 74  2  0
 80 81  1  0
 81 82  1  0
 82 83  2  0
 84 83  1  0
 84 88  1  0
 85 84  2  0
 86 81  2  0
 86 85  1  0
 87 86  1  0
 89 90  1  0
 90 93  1  0
 90 92  1  0
 91 89  2  0
 94 69  1  0
 94 95  1  0
 96 94  1  0
M  ISO  4   6 101   7 101  60 100  61 100
M  END
>  <TORSDO>  (95) 
F 27

>  <SCORE>  (95) 
-11.422

>  <name>  (95) 
94

>  <ligand_id>  (95) 
94

>  <original_smiles>  (95) 
[H]c1c([H])c([H])c2c(c1[H])C([H])([H])C([H])([H])C([H])([H])C2([H])N([H])C(=O)C1([H])N(C(=O)C([H])(N([H])C(=O)C([H])(N([H])C([H])([H])[H])C([H])([H])[H])C(C([H])([H])[H])(C([H])([H])[H])C([H])([H])[H])C([H])([H])c2c([H])c(OC([H])([H])C([H])([H])[N+]([H])([H])C([H])(C([H])([H])C([H])(C([H])([H])[H])C([H])([H])[H])C([H])(N([H])C([H])([H])C([H])([H])C(=O)N3C([H])([H])C([H])([H])C([H])([H])C([H])(n4nc(-c5c([H])c([H])c(Oc6c([H])c([H])c(F)c([H])c6F)c([H])c5[H])c(C(=O)N([H])[H])c4N([H])[H])C3([H])[H])C([H])(C([H])([H])[H])C([H])([H])C([H])([H])[H])c([H])c([H])c2C1([H])[H]

>  <smiles>  (95) 
[H]c1c([H])c([H])c2c(c1[H])C([H])([H])C([H])([H])C([H])([H])C2([H])N([H])C(=O)C1([H])N(C(=O)C([H])(N([H])C(=O)C([H])(N([H])C([H])([H])[H])C([H])([H])[H])C(C([H])([H])[H])(C([H])([H])[H])C([H])([H])[H])C([H])([H])c2c([H])c(OC([H])([H])C([H])([H])[N+]([H])([H])C([H])(C([H])([H])C([H])(C([H])([H])[H])C([H])([H])[H])C([H])(N([H])C([H])([H])C([H])([H])C(=O)N3C([H])([H])C([H])([H])C([H])([H])C([H])(n4nc(-c5c([H])c([H])c(Oc6c([H])c([H])c(F)c([H])c6F)c([H])c5[H])c(C(=O)N([H])[H])c4N([H])[H])C3([H])[H])C([H])(C([H])([H])[H])C([H])([H])C([H])([H])[H])c([H])c([H])c2C1([H])[H]

$$$$
95:0:0
     RDKit          3D

 97105  0  0  1  0  0  0  0  0999 V2000
  -33.1800  -20.1520   18.7780 C   0  0  0  0  0  3  0  0  0  0  0  0
  -32.6010  -19.0840   19.4890 C   0  0  0  0  0  3  0  0  0  0  0  0
  -32.7810  -21.4730   19.0460 C   0  0  0  0  0  3  0  0  0  0  0  0
  -31.1910  -20.6480   20.7100 C   0  0  0  0  0  3  0  0  0  0  0  0
  -31.5740  -19.3200   20.4320 C   0  0  0  0  0  0  0  0  0  0  0  0
  -31.8070  -21.7260   20.0350 C   0  0  0  0  0  0  0  0  0  0  0  0
  -30.9040  -18.1630   21.1760 C   0  0  0  0  0  2  0  0  0  0  0  0
  -30.4370  -16.9940   20.2710 C   0  0  0  0  0  3  0  0  0  0  0  0
  -30.1460  -15.7030   21.1070 C   0  0  0  0  0  2  0  0  0  0  0  0
  -30.7300  -14.4350   20.4480 C   0  0  0  0  0  0  0  0  0  0  0  0
  -30.3350  -12.3440   19.2250 C   0  0  0  0  0  2  0  0  0  0  0  0
  -29.3810  -12.6280   18.0490 C   0  0  0  0  0  2  0  0  0  0  0  0
  -27.9120  -12.4970   18.4990 C   0  0  0  0  0  2  0  0  0  0  0  0
  -27.6060  -13.2880   19.7980 C   0  0  0  0  0  3  0  0  0  0  0  0
  -28.6810  -13.0200   20.8760 C   0  0  0  0  0  2  0  0  0  0  0  0
  -30.0010  -13.2990   20.2930 N   0  0  0  0  0  0  0  0  0  0  0  0
  -31.8590  -14.5410   19.9680 O   0  0  0  0  0  0  0  0  0  0  0  0
  -25.2070  -13.8690   20.5270 C   0  0  0  0  0  0  0  0  0  0  0  0
  -24.1470  -13.0840   20.8970 C   0  0  0  0  0  0  0  0  0  0  0  0
  -24.6230  -11.7370   20.8620 C   0  0  0  0  0  0  0  0  0  0  0  0
  -26.2600  -12.9990   20.2890 N   0  0  0  0  0  0  0  0  0  0  0  0
  -25.9110  -11.7110   20.5480 N   0  0  0  0  0  0  0  0  0  0  0  0
  -23.9090  -10.4670   21.0530 C   0  0  0  0  0  0  0  0  0  0  0  0
  -24.3500   -9.5000   21.9830 C   0  0  0  0  0  3  0  0  0  0  0  0
  -23.6330   -8.2960   22.1600 C   0  0  0  0  0  3  0  0  0  0  0  0
  -22.4610   -8.0520   21.4040 C   0  0  0  0  0  0  0  0  0  0  0  0
  -22.0410   -9.0060   20.4600 C   0  0  0  0  0  3  0  0  0  0  0  0
  -22.7600  -10.2000   20.2830 C   0  0  0  0  0  3  0  0  0  0  0  0
  -21.7140   -6.9020   21.4910 O   0  0  0  0  0  0  0  0  0  0  0  0
  -21.6700   -6.1590   22.6440 C   0  0  0  0  0  0  0  0  0  0  0  0
  -21.2360   -6.7110   23.8690 C   0  0  0  0  0  3  0  0  0  0  0  0
  -21.1390   -5.8950   25.0140 C   0  0  0  0  0  3  0  0  0  0  0  0
  -21.4680   -4.5280   24.9340 C   0  0  0  0  0  0  0  0  0  0  0  0
  -21.8980   -3.9770   23.7130 C   0  0  0  0  0  3  0  0  0  0  0  0
  -21.9950   -4.7890   22.5710 C   0  0  0  0  0  0  0  0  0  0  0  0
  -22.3900   -4.2490   21.3930 F   0  0  0  0  0  0  0  0  0  0  0  0
  -21.3660   -3.7420   26.0300 F   0  0  0  0  0  0  0  0  0  0  0  0
  -22.7470  -13.5480   21.1770 C   0  0  0  0  0  0  0  0  0  0  0  0
  -22.0310  -12.8410   22.0440 N   0  0  0  0  0  0  0  0  0  0  0  0
  -22.2970  -14.5710   20.6640 O   0  0  0  0  0  0  0  0  0  0  0  0
  -22.4100  -12.0120   22.4780 H   0  0  0  0  0  0  0  0  0  0  0  0
  -21.0950  -13.1340   22.2830 H   0  0  0  0  0  0  0  0  0  0  0  0
  -25.3530  -15.2410   20.3560 N   0  0  0  0  0  0  0  0  0  0  0  0
  -24.5810  -15.8860   20.4890 H   0  0  0  0  0  0  0  0  0  0  0  0
  -26.2000  -15.6950   20.0410 H   0  0  0  0  0  0  0  0  0  0  0  0
  -29.2640  -17.3650   19.3260 C   0  0  0  0  0  2  0  0  0  0  0  0
  -29.7090  -18.1480   18.1550 N   0  0  0  0  0  4  0  0  0  0  0  0
  -30.1850  -18.9840   18.4520 H   0  0  0  0  0  0  0  0  0  0  0  0
  -28.9260  -18.4110   17.5810 H   0  0  0  0  0  0  0  0  0  0  0  0
  -30.3390  -17.6080   17.5860 H   0  0  0  0  0  0  0  0  0  0  0  0
  -31.4660  -23.1570   20.4050 C   0  0  0  0  0  2  0  0  0  0  0  0
  -30.2370  -23.6210   19.7360 N   0  0  0  0  0  4  0  0  0  0  0  0
  -29.4740  -23.0490   20.0590 H   0  0  0  0  0  0  0  0  0  0  0  0
  -30.3400  -23.4810   18.7440 H   0  0  0  0  0  0  0  0  0  0  0  0
  -29.9460  -25.0430   20.0140 C   0  0  0  0  0  2  0  0  0  0  0  0
  -28.5130  -25.4670   19.6660 C   0  0  0  0  0  2  0  0  0  0  0  0
  -28.4110  -26.8000   20.1510 O   0  0  0  0  0  0  0  0  0  0  0  0
  -24.5580  -31.8720   23.2440 C   0  0  0  0  0  0  0  0  0  0  0  0
  -27.1980  -27.4470   20.1490 C   0  0  0  0  0  0  0  0  0  0  0  0
  -23.3460  -30.4770   21.5960 C   0  0  0  0  0  3  0  0  0  0  0  0
  -24.7930  -28.9300   20.1780 C   0  0  0  0  0  0  0  0  0  0  0  0
  -25.8690  -30.8310   21.4030 C   0  0  0  0  0  2  0  0  0  0  0  0
  -25.9490  -29.4610   20.7630 C   0  0  0  0  0  0  0  0  0  0  0  0
  -27.1500  -28.7220   20.7500 C   0  0  0  0  0  3  0  0  0  0  0  0
  -26.0240  -26.9180   19.5670 C   0  0  0  0  0  3  0  0  0  0  0  0
  -24.8220  -27.6560   19.5840 C   0  0  0  0  0  3  0  0  0  0  0  0
  -23.5530  -29.7920   20.2180 C   0  0  0  0  0  2  0  0  0  0  0  0
  -24.6090  -31.0750   22.1400 N   0  0  0  0  0  0  0  0  0  0  0  0
  -23.4780  -32.1490   23.7830 O   0  0  0  0  0  0  0  0  0  0  0  0
  -22.6900  -29.4600   22.5560 C   0  0  0  0  0  0  0  0  0  0  0  0
  -21.3650  -29.2800   22.4210 N   0  0  0  0  0  0  0  0  0  0  0  0
  -23.3670  -28.8320   23.3730 O   0  0  0  0  0  0  0  0  0  0  0  0
  -20.8790  -29.8400   21.7340 H   0  0  0  0  0  0  0  0  0  0  0  0
  -17.9880  -28.0910   22.8950 C   0  0  0  0  0  0  0  0  0  0  0  0
  -20.5430  -28.3450   23.1870 C   0  0  0  0  0  3  0  0  0  0  0  0
  -20.6490  -26.9130   22.6160 C   0  0  0  0  0  2  0  0  0  0  0  0
  -19.5560  -26.5890   21.5930 C   0  0  0  0  0  2  0  0  0  0  0  0
  -18.1680  -26.7390   22.2230 C   0  0  0  0  0  2  0  0  0  0  0  0
  -19.1040  -28.8510   23.3320 C   0  0  0  0  0  0  0  0  0  0  0  0
  -18.8850  -30.1180   23.9160 C   0  0  0  0  0  3  0  0  0  0  0  0
  -17.5810  -30.6260   24.0670 C   0  0  0  0  0  3  0  0  0  0  0  0
  -16.4780  -29.8630   23.6480 C   0  0  0  0  0  3  0  0  0  0  0  0
  -16.6810  -28.5970   23.0680 C   0  0  0  0  0  3  0  0  0  0  0  0
  -25.8490  -32.4950   23.8630 C   0  0  0  0  0  3  0  0  0  0  0  0
  -26.3640  -31.7190   25.1370 C   0  0  1  0  0  0  0  0  0  0  0  0
  -25.2700  -31.4840   26.2050 C   0  0  0  0  0  1  0  0  0  0  0  0
  -26.9420  -30.3400   24.7390 C   0  0  0  0  0  1  0  0  0  0  0  0
  -27.5190  -32.5070   25.8020 C   0  0  0  0  0  1  0  0  0  0  0  0
  -25.5510  -33.8930   24.1930 N   0  0  0  0  0  0  0  0  0  0  0  0
  -25.8910  -34.9430   23.4310 C   0  0  0  0  0  0  0  0  0  0  0  0
  -26.5620  -34.8350   22.4000 O   0  0  0  0  0  0  0  0  0  0  0  0
  -24.9640  -34.0530   24.9980 H   0  0  0  0  0  0  0  0  0  0  0  0
  -24.1780  -36.7460   23.0630 C   0  0  0  0  0  1  0  0  0  0  0  0
  -25.4100  -36.3340   23.8840 C   0  0  0  0  0  3  0  0  0  0  0  0
  -27.5420  -37.2040   24.7340 C   0  0  0  0  0  1  0  0  0  0  0  0
  -26.4510  -37.3790   23.7810 N   0  0  0  0  0  0  0  0  0  0  0  0
  -26.0480  -38.3000   23.9280 H   0  0  0  0  0  0  0  0  0  0  0  0
  1  3  2  0
  1  2  1  0
  2  5  2  0
  3  6  1  0
  5  4  1  0
  5  7  1  0
  6 51  1  0
  6  4  2  0
  8 46  1  0
  8  9  1  0
  8  7  1  0
 10  9  1  0
 11 16  1  0
 12 13  1  0
 12 11  1  0
 14 13  1  0
 14 21  1  0
 14 15  1  0
 16 10  1  0
 16 15  1  0
 17 10  2  0
 18 19  2  0
 19 38  1  0
 20 19  1  0
 20 23  1  0
 21 18  1  0
 21 22  1  0
 22 20  2  0
 23 24  1  0
 24 25  2  0
 26 29  1  0
 26 25  1  0
 27 26  2  0
 28 27  1  0
 28 23  2  0
 29 30  1  0
 30 31  1  0
 31 32  2  0
 33 32  1  0
 33 37  1  0
 34 33  2  0
 35 30  2  0
 35 34  1  0
 36 35  1  0
 38 39  1  0
 39 42  1  0
 39 41  1  0
 40 38  2  0
 43 44  1  0
 43 18  1  0
 45 43  1  0
 47 48  1  0
 47 46  1  0
 49 47  1  0
 50 47  1  0
 52 55  1  0
 52 53  1  0
 52 51  1  0
 54 52  1  0
 56 55  1  0
 56 57  1  0
 58 69  2  0
 59 57  1  0
 59 64  1  0
 60 68  1  0
 60 70  1  0
 61 67  1  0
 61 63  1  0
 62 68  1  0
 63 62  1  0
 64 63  2  0
 65 66  1  0
 65 59  2  0
 66 61  2  0
 67 60  1  0
 68 58  1  0
 70 72  2  0
 71 70  1  0
 73 71  1  0
 74 83  2  0
 74 79  1  0
 75 71  1  0
 75 79  1  0
 76 75  1  0
 77 78  1  0
 77 76  1  0
 78 74  1  0
 79 80  2  0
 80 81  1  0
 82 81  2  0
 83 82  1  0
 84 58  1  0
 84 89  1  0
 84 85  1  0
 85 88  1  1
 85 86  1  0
 87 85  1  0
 89 92  1  0
 90 94  1  0
 90 89  1  0
 91 90  2  0
 94 93  1  0
 96 94  1  0
 96 97  1  0
 96 95  1  0
M  ISO  4   9 100  10 100  56 101  57 101
M  END
>  <TORSDO>  (96) 
F 25

>  <SCORE>  (96) 
-12.538

>  <name>  (96) 
95

>  <ligand_id>  (96) 
95

>  <original_smiles>  (96) 
[H]c1c([H])c([H])c2c(c1[H])C([H])([H])C([H])([H])C([H])([H])C2([H])N([H])C(=O)C1([H])N(C(=O)C([H])(N([H])C(=O)C([H])(N([H])C([H])([H])[H])C([H])([H])[H])C(C([H])([H])[H])(C([H])([H])[H])C([H])([H])[H])C([H])([H])c2c([H])c(OC([H])([H])C([H])([H])[N+]([H])([H])C([H])([H])c3c([H])c([H])c([H])c(C([H])([H])C([H])(C([H])([H])C(=O)N4C([H])([H])C([H])([H])C([H])([H])C([H])(n5nc(-c6c([H])c([H])c(Oc7c([H])c([H])c(F)c([H])c7F)c([H])c6[H])c(C(=O)N([H])[H])c5N([H])[H])C4([H])[H])C([H])([H])[N+]([H])([H])[H])c3[H])c([H])c([H])c2C1([H])[H]

>  <smiles>  (96) 
[H]c1c([H])c([H])c2c(c1[H])C([H])([H])C([H])([H])C([H])([H])C2([H])N([H])C(=O)C1([H])N(C(=O)C([H])(N([H])C(=O)C([H])(N([H])C([H])([H])[H])C([H])([H])[H])C(C([H])([H])[H])(C([H])([H])[H])C([H])([H])[H])C([H])([H])c2c([H])c(OC([H])([H])C([H])([H])[N+]([H])([H])C([H])([H])c3c([H])c([H])c([H])c(C([H])([H])C([H])(C([H])([H])C(=O)N4C([H])([H])C([H])([H])C([H])([H])C([H])(n5nc(-c6c([H])c([H])c(Oc7c([H])c([H])c(F)c([H])c7F)c([H])c6[H])c(C(=O)N([H])[H])c5N([H])[H])C4([H])[H])C([H])([H])[N+]([H])([H])[H])c3[H])c([H])c([H])c2C1([H])[H]

$$$$
96:0:0
     RDKit          3D

 92100  0  0  1  0  0  0  0  0999 V2000
  -26.4980  -22.1670   18.3950 C   0  0  0  0  0  1  0  0  0  0  0  0
  -27.8710  -22.4300   17.7310 C   0  0  0  0  0  3  0  0  0  0  0  0
  -28.6970  -23.4510   18.4330 N   0  0  0  0  0  4  0  0  0  0  0  0
  -29.1180  -23.0500   19.2550 H   0  0  0  0  0  0  0  0  0  0  0  0
  -29.4480  -23.7170   17.8130 H   0  0  0  0  0  0  0  0  0  0  0  0
  -27.9370  -24.6650   18.8190 C   0  0  0  0  0  2  0  0  0  0  0  0
  -28.7740  -25.9430   19.0430 C   0  0  0  0  0  2  0  0  0  0  0  0
  -28.3620  -26.7540   20.1560 O   0  0  0  0  0  0  0  0  0  0  0  0
  -24.5460  -31.9040   23.2400 C   0  0  0  0  0  0  0  0  0  0  0  0
  -27.1770  -27.4670   20.1210 C   0  0  0  0  0  0  0  0  0  0  0  0
  -23.3360  -30.5100   21.5970 C   0  0  0  0  0  3  0  0  0  0  0  0
  -24.7830  -28.9830   20.1640 C   0  0  0  0  0  0  0  0  0  0  0  0
  -25.8660  -30.8570   21.4050 C   0  0  0  0  0  2  0  0  0  0  0  0
  -25.9430  -29.4890   20.7600 C   0  0  0  0  0  0  0  0  0  0  0  0
  -27.1370  -28.7330   20.7510 C   0  0  0  0  0  3  0  0  0  0  0  0
  -25.9850  -26.9750   19.5380 C   0  0  0  0  0  3  0  0  0  0  0  0
  -24.7980  -27.7210   19.5570 C   0  0  0  0  0  3  0  0  0  0  0  0
  -23.5420  -29.8410   20.2150 C   0  0  0  0  0  2  0  0  0  0  0  0
  -24.6020  -31.1030   22.1380 N   0  0  0  0  0  0  0  0  0  0  0  0
  -23.4660  -32.1820   23.7770 O   0  0  0  0  0  0  0  0  0  0  0  0
  -22.6820  -29.4860   22.5510 C   0  0  0  0  0  0  0  0  0  0  0  0
  -21.3560  -29.3120   22.4250 N   0  0  0  0  0  0  0  0  0  0  0  0
  -23.3630  -28.8510   23.3610 O   0  0  0  0  0  0  0  0  0  0  0  0
  -20.8670  -29.8780   21.7460 H   0  0  0  0  0  0  0  0  0  0  0  0
  -17.9740  -28.1430   22.9210 C   0  0  0  0  0  0  0  0  0  0  0  0
  -20.5340  -28.3780   23.1920 C   0  0  0  0  0  3  0  0  0  0  0  0
  -20.6230  -26.9480   22.6090 C   0  0  0  0  0  2  0  0  0  0  0  0
  -19.5180  -26.6390   21.5950 C   0  0  0  0  0  2  0  0  0  0  0  0
  -18.1380  -26.7930   22.2420 C   0  0  0  0  0  2  0  0  0  0  0  0
  -19.1000  -28.8940   23.3530 C   0  0  0  0  0  0  0  0  0  0  0  0
  -18.8940  -30.1580   23.9450 C   0  0  0  0  0  3  0  0  0  0  0  0
  -17.5940  -30.6720   24.1120 C   0  0  0  0  0  3  0  0  0  0  0  0
  -16.4820  -29.9180   23.6990 C   0  0  0  0  0  3  0  0  0  0  0  0
  -16.6730  -28.6560   23.1080 C   0  0  0  0  0  3  0  0  0  0  0  0
  -25.8350  -32.5280   23.8610 C   0  0  0  0  0  3  0  0  0  0  0  0
  -25.5340  -33.9270   24.1900 N   0  0  0  0  0  0  0  0  0  0  0  0
  -25.8710  -34.9760   23.4260 C   0  0  0  0  0  0  0  0  0  0  0  0
  -26.5410  -34.8670   22.3950 O   0  0  0  0  0  0  0  0  0  0  0  0
  -24.9400  -34.0880   24.9910 H   0  0  0  0  0  0  0  0  0  0  0  0
  -24.1490  -36.7720   23.0660 C   0  0  0  0  0  1  0  0  0  0  0  0
  -25.3880  -36.3660   23.8800 C   0  0  0  0  0  3  0  0  0  0  0  0
  -27.5260  -37.2420   24.7090 C   0  0  0  0  0  1  0  0  0  0  0  0
  -26.4240  -37.4150   23.7660 N   0  0  0  0  0  0  0  0  0  0  0  0
  -26.0210  -38.3360   23.9150 H   0  0  0  0  0  0  0  0  0  0  0  0
  -26.3510  -31.7520   25.1350 C   0  0  1  0  0  0  0  0  0  0  0  0
  -25.2590  -31.5160   26.2050 C   0  0  0  0  0  1  0  0  0  0  0  0
  -26.9270  -30.3720   24.7370 C   0  0  0  0  0  1  0  0  0  0  0  0
  -27.5060  -32.5410   25.7960 C   0  0  0  0  0  1  0  0  0  0  0  0
  -28.6460  -21.1240   17.4620 C   0  0  0  0  0  2  0  0  0  0  0  0
  -28.8210  -20.1690   18.6630 C   0  0  0  0  0  2  0  0  0  0  0  0
  -29.2260  -18.7740   18.1670 C   0  0  0  0  0  2  0  0  0  0  0  0
  -30.1800  -16.6100   19.0740 C   0  0  0  0  0  3  0  0  0  0  0  0
  -29.2430  -16.1370   21.1480 C   0  0  0  0  0  3  0  0  0  0  0  0
  -30.0730  -15.6820   20.1510 C   0  0  0  0  0  0  0  0  0  0  0  0
  -29.3940  -17.7180   19.2110 C   0  0  0  0  0  0  0  0  0  0  0  0
  -28.5210  -17.6720   20.7250 S   0  0  0  0  0  0  0  0  0  0  0  0
  -30.8430  -14.4030   20.0810 C   0  0  0  0  0  0  0  0  0  0  0  0
  -30.4240  -12.2800   18.9590 C   0  0  0  0  0  2  0  0  0  0  0  0
  -29.4470  -12.5740   17.7990 C   0  0  0  0  0  2  0  0  0  0  0  0
  -27.9840  -12.4790   18.2780 C   0  0  0  0  0  2  0  0  0  0  0  0
  -27.7270  -13.2800   19.5830 C   0  0  0  0  0  3  0  0  0  0  0  0
  -28.8210  -12.9870   20.6330 C   0  0  0  0  0  2  0  0  0  0  0  0
  -30.1370  -13.2450   20.0300 N   0  0  0  0  0  0  0  0  0  0  0  0
  -32.0150  -14.4850   19.7050 O   0  0  0  0  0  0  0  0  0  0  0  0
  -25.3730  -13.9280   20.3960 C   0  0  0  0  0  0  0  0  0  0  0  0
  -24.3020  -13.1710   20.7990 C   0  0  0  0  0  0  0  0  0  0  0  0
  -24.7350  -11.8120   20.7350 C   0  0  0  0  0  0  0  0  0  0  0  0
  -26.3880  -13.0270   20.1150 N   0  0  0  0  0  0  0  0  0  0  0  0
  -26.0110  -11.7500   20.3750 N   0  0  0  0  0  0  0  0  0  0  0  0
  -23.9920  -10.5610   20.9420 C   0  0  0  0  0  0  0  0  0  0  0  0
  -24.4240   -9.5920   21.8720 C   0  0  0  0  0  3  0  0  0  0  0  0
  -23.6850   -8.4050   22.0640 C   0  0  0  0  0  3  0  0  0  0  0  0
  -22.5000   -8.1790   21.3240 C   0  0  0  0  0  0  0  0  0  0  0  0
  -22.0870   -9.1370   20.3820 C   0  0  0  0  0  3  0  0  0  0  0  0
  -22.8270  -10.3160   20.1890 C   0  0  0  0  0  3  0  0  0  0  0  0
  -21.7320   -7.0440   21.4260 O   0  0  0  0  0  0  0  0  0  0  0  0
  -21.6570   -6.3280   22.5940 C   0  0  0  0  0  0  0  0  0  0  0  0
  -21.2300   -6.9170   23.8040 C   0  0  0  0  0  3  0  0  0  0  0  0
  -21.1010   -6.1260   24.9640 C   0  0  0  0  0  3  0  0  0  0  0  0
  -21.3880   -4.7490   24.9140 C   0  0  0  0  0  0  0  0  0  0  0  0
  -21.8070   -4.1600   23.7090 C   0  0  0  0  0  3  0  0  0  0  0  0
  -21.9370   -4.9460   22.5510 C   0  0  0  0  0  0  0  0  0  0  0  0
  -22.3220   -4.3710   21.3870 F   0  0  0  0  0  0  0  0  0  0  0  0
  -21.2560   -3.9890   26.0260 F   0  0  0  0  0  0  0  0  0  0  0  0
  -22.9270  -13.6730   21.1330 C   0  0  0  0  0  0  0  0  0  0  0  0
  -22.2220  -12.9830   22.0230 N   0  0  0  0  0  0  0  0  0  0  0  0
  -22.4880  -14.7110   20.6420 O   0  0  0  0  0  0  0  0  0  0  0  0
  -22.5880  -12.1430   22.4450 H   0  0  0  0  0  0  0  0  0  0  0  0
  -21.2990  -13.3010   22.2840 H   0  0  0  0  0  0  0  0  0  0  0  0
  -25.5620  -15.2950   20.2280 N   0  0  0  0  0  0  0  0  0  0  0  0
  -24.8270  -15.9750   20.3810 H   0  0  0  0  0  0  0  0  0  0  0  0
  -26.4370  -15.7130   19.9350 H   0  0  0  0  0  0  0  0  0  0  0  0
  2  1  1  0
  2  3  1  0
  3  6  1  0
  3  4  1  0
  5  3  1  0
  6  7  1  0
  7  8  1  0
  9 20  2  0
 10  8  1  0
 10 15  1  0
 11 19  1  0
 11 21  1  0
 12 18  1  0
 12 14  1  0
 13 19  1  0
 14 13  1  0
 15 14  2  0
 16 17  1  0
 16 10  2  0
 17 12  2  0
 18 11  1  0
 19  9  1  0
 21 23  2  0
 22 21  1  0
 24 22  1  0
 25 34  2  0
 25 30  1  0
 26 22  1  0
 26 30  1  0
 27 26  1  0
 28 29  1  0
 28 27  1  0
 29 25  1  0
 30 31  2  0
 31 32  1  0
 33 32  2  0
 34 33  1  0
 35  9  1  0
 35 36  1  0
 35 45  1  0
 36 39  1  0
 37 41  1  0
 37 36  1  0
 38 37  2  0
 41 40  1  0
 43 41  1  0
 43 44  1  0
 43 42  1  0
 45 48  1  1
 45 46  1  0
 47 45  1  0
 49  2  1  0
 49 50  1  0
 51 50  1  0
 51 55  1  0
 52 55  2  0
 52 54  1  0
 54 53  2  0
 55 56  1  0
 56 53  1  0
 57 54  1  0
 58 63  1  0
 59 60  1  0
 59 58  1  0
 61 60  1  0
 61 68  1  0
 61 62  1  0
 63 57  1  0
 63 62  1  0
 64 57  2  0
 65 66  2  0
 66 85  1  0
 67 66  1  0
 67 70  1  0
 68 69  1  0
 68 65  1  0
 69 67  2  0
 70 71  1  0
 71 72  2  0
 73 76  1  0
 73 72  1  0
 74 73  2  0
 75 74  1  0
 75 70  2  0
 76 77  1  0
 77 78  1  0
 78 79  2  0
 80 79  1  0
 80 84  1  0
 81 80  2  0
 82 77  2  0
 82 81  1  0
 83 82  1  0
 85 86  1  0
 86 89  1  0
 86 88  1  0
 87 85  2  0
 90 91  1  0
 90 65  1  0
 92 90  1  0
M  ISO  4   7 101   8 101  54 100  57 100
M  END
>  <TORSDO>  (97) 
F 23

>  <SCORE>  (97) 
-12.504

>  <name>  (97) 
96

>  <ligand_id>  (97) 
96

>  <original_smiles>  (97) 
[H]c1sc(C([H])([H])C([H])([H])C([H])([H])C([H])(C([H])([H])[H])[N+]([H])([H])C([H])([H])C([H])([H])Oc2c([H])c([H])c3c(c2[H])C([H])([H])N(C(=O)C([H])(N([H])C(=O)C([H])(N([H])C([H])([H])[H])C([H])([H])[H])C(C([H])([H])[H])(C([H])([H])[H])C([H])([H])[H])C([H])(C(=O)N([H])C2([H])c4c([H])c([H])c([H])c([H])c4C([H])([H])C([H])([H])C2([H])[H])C3([H])[H])c([H])c1C(=O)N1C([H])([H])C([H])([H])C([H])([H])C([H])(n2nc(-c3c([H])c([H])c(Oc4c([H])c([H])c(F)c([H])c4F)c([H])c3[H])c(C(=O)N([H])[H])c2N([H])[H])C1([H])[H]

>  <smiles>  (97) 
[H]c1sc(C([H])([H])C([H])([H])C([H])([H])C([H])(C([H])([H])[H])[N+]([H])([H])C([H])([H])C([H])([H])Oc2c([H])c([H])c3c(c2[H])C([H])([H])N(C(=O)C([H])(N([H])C(=O)C([H])(N([H])C([H])([H])[H])C([H])([H])[H])C(C([H])([H])[H])(C([H])([H])[H])C([H])([H])[H])C([H])(C(=O)N([H])C2([H])c4c([H])c([H])c([H])c([H])c4C([H])([H])C([H])([H])C2([H])[H])C3([H])[H])c([H])c1C(=O)N1C([H])([H])C([H])([H])C([H])([H])C([H])(n2nc(-c3c([H])c([H])c(Oc4c([H])c([H])c(F)c([H])c4F)c([H])c3[H])c(C(=O)N([H])[H])c2N([H])[H])C1([H])[H]

$$$$
97:0:0
     RDKit          3D

 91 98  0  0  1  0  0  0  0  0999 V2000
  -29.0040  -22.5660   20.5610 N   0  0  0  0  0  4  0  0  0  0  0  0
  -28.0970  -22.3310   20.9340 H   0  0  0  0  0  0  0  0  0  0  0  0
  -29.6130  -22.6500   21.3610 H   0  0  0  0  0  0  0  0  0  0  0  0
  -30.7630  -21.6380   19.0040 C   0  0  0  0  0  1  0  0  0  0  0  0
  -29.4780  -21.3270   19.8020 C   0  0  0  0  0  3  0  0  0  0  0  0
  -29.7310  -20.0380   20.7030 C   0  0  0  0  0  0  0  0  0  0  0  0
  -29.8620  -18.7770   20.1590 N   0  0  0  0  0  0  0  0  0  0  0  0
  -29.8620  -20.2090   21.9160 O   0  0  0  0  0  0  0  0  0  0  0  0
  -29.7210  -18.7200   19.1590 H   0  0  0  0  0  0  0  0  0  0  0  0
  -31.9050  -17.5780   20.8760 C   0  0  0  0  0  1  0  0  0  0  0  0
  -30.3660  -17.5050   20.8260 C   0  0  0  0  0  3  0  0  0  0  0  0
  -29.7660  -16.0880   20.3070 C   0  0  0  0  0  2  0  0  0  0  0  0
  -30.6030  -14.7270   20.1690 C   0  0  0  0  0  0  0  0  0  0  0  0
  -30.3630  -12.4750   19.1450 C   0  0  0  0  0  2  0  0  0  0  0  0
  -29.3950  -12.6060   17.9450 C   0  0  0  0  0  2  0  0  0  0  0  0
  -27.9330  -12.4480   18.4020 C   0  0  0  0  0  2  0  0  0  0  0  0
  -27.6000  -13.3090   19.6490 C   0  0  0  0  0  3  0  0  0  0  0  0
  -28.6840  -13.1630   20.7380 C   0  0  0  0  0  2  0  0  0  0  0  0
  -29.9820  -13.5000   20.1390 N   0  0  0  0  0  0  0  0  0  0  0  0
  -31.7860  -14.8050   19.8290 O   0  0  0  0  0  0  0  0  0  0  0  0
  -25.2270  -13.9070   20.4300 C   0  0  0  0  0  0  0  0  0  0  0  0
  -24.1650  -13.1350   20.8180 C   0  0  0  0  0  0  0  0  0  0  0  0
  -24.6240  -11.7830   20.7760 C   0  0  0  0  0  0  0  0  0  0  0  0
  -26.2640  -13.0260   20.1680 N   0  0  0  0  0  0  0  0  0  0  0  0
  -25.9080  -11.7430   20.4380 N   0  0  0  0  0  0  0  0  0  0  0  0
  -23.8990  -10.5220   20.9850 C   0  0  0  0  0  0  0  0  0  0  0  0
  -24.3440   -9.5590   21.9160 C   0  0  0  0  0  3  0  0  0  0  0  0
  -23.6220   -8.3620   22.1120 C   0  0  0  0  0  3  0  0  0  0  0  0
  -22.4370   -8.1210   21.3760 C   0  0  0  0  0  0  0  0  0  0  0  0
  -22.0110   -9.0700   20.4310 C   0  0  0  0  0  3  0  0  0  0  0  0
  -22.7340  -10.2590   20.2350 C   0  0  0  0  0  3  0  0  0  0  0  0
  -21.6860   -6.9750   21.4790 O   0  0  0  0  0  0  0  0  0  0  0  0
  -21.6510   -6.2380   22.6350 C   0  0  0  0  0  0  0  0  0  0  0  0
  -21.2390   -6.8000   23.8630 C   0  0  0  0  0  3  0  0  0  0  0  0
  -21.1510   -5.9890   25.0130 C   0  0  0  0  0  3  0  0  0  0  0  0
  -21.4640   -4.6180   24.9340 C   0  0  0  0  0  0  0  0  0  0  0  0
  -21.8680   -4.0580   23.7110 C   0  0  0  0  0  3  0  0  0  0  0  0
  -21.9580   -4.8650   22.5630 C   0  0  0  0  0  0  0  0  0  0  0  0
  -22.3270   -4.3130   21.3810 F   0  0  0  0  0  0  0  0  0  0  0  0
  -21.3720   -3.8380   26.0370 F   0  0  0  0  0  0  0  0  0  0  0  0
  -22.7740  -13.6110   21.1190 C   0  0  0  0  0  0  0  0  0  0  0  0
  -22.0650  -12.9130   21.9990 N   0  0  0  0  0  0  0  0  0  0  0  0
  -22.3250  -14.6380   20.6110 O   0  0  0  0  0  0  0  0  0  0  0  0
  -22.4460  -12.0850   22.4320 H   0  0  0  0  0  0  0  0  0  0  0  0
  -21.1290  -13.2070   22.2410 H   0  0  0  0  0  0  0  0  0  0  0  0
  -25.3910  -15.2770   20.2520 N   0  0  0  0  0  0  0  0  0  0  0  0
  -24.6320  -15.9340   20.3900 H   0  0  0  0  0  0  0  0  0  0  0  0
  -26.2400  -15.7160   19.9220 H   0  0  0  0  0  0  0  0  0  0  0  0
  -28.9260  -23.9320   19.8630 C   0  0  0  0  0  3  0  0  0  0  0  0
  -28.2240  -25.1250   20.6680 C   0  0  0  0  0  3  0  0  0  0  0  0
  -28.3830  -26.5310   20.2090 O   0  0  0  0  0  0  0  0  0  0  0  0
  -24.6010  -31.9120   23.2220 C   0  0  0  0  0  0  0  0  0  0  0  0
  -27.2550  -27.3630   20.1980 C   0  0  0  0  0  0  0  0  0  0  0  0
  -23.4150  -30.5060   21.5740 C   0  0  0  0  0  3  0  0  0  0  0  0
  -24.8820  -28.9570   20.1650 C   0  0  0  0  0  0  0  0  0  0  0  0
  -25.9530  -30.8350   21.4110 C   0  0  0  0  0  2  0  0  0  0  0  0
  -26.0440  -29.4560   20.7670 C   0  0  0  0  0  0  0  0  0  0  0  0
  -27.2360  -28.6730   20.7680 C   0  0  0  0  0  3  0  0  0  0  0  0
  -26.0730  -26.9120   19.5710 C   0  0  0  0  0  3  0  0  0  0  0  0
  -24.8970  -27.6910   19.5570 C   0  0  0  0  0  3  0  0  0  0  0  0
  -23.6420  -29.8270   20.1980 C   0  0  0  0  0  2  0  0  0  0  0  0
  -24.6750  -31.1020   22.1260 N   0  0  0  0  0  0  0  0  0  0  0  0
  -23.5140  -32.1860   23.7490 O   0  0  0  0  0  0  0  0  0  0  0  0
  -22.7460  -29.4900   22.5310 C   0  0  0  0  0  0  0  0  0  0  0  0
  -21.4220  -29.3110   22.3970 N   0  0  0  0  0  0  0  0  0  0  0  0
  -23.4210  -28.8650   23.3530 O   0  0  0  0  0  0  0  0  0  0  0  0
  -20.9380  -29.8680   21.7070 H   0  0  0  0  0  0  0  0  0  0  0  0
  -18.0430  -28.1140   22.8770 C   0  0  0  0  0  0  0  0  0  0  0  0
  -20.5980  -28.3740   23.1630 C   0  0  0  0  0  3  0  0  0  0  0  0
  -20.7040  -26.9420   22.5890 C   0  0  0  0  0  2  0  0  0  0  0  0
  -19.6090  -26.6190   21.5670 C   0  0  0  0  0  2  0  0  0  0  0  0
  -18.2230  -26.7640   22.2030 C   0  0  0  0  0  2  0  0  0  0  0  0
  -19.1580  -28.8760   23.3140 C   0  0  0  0  0  0  0  0  0  0  0  0
  -18.9350  -30.1390   23.9040 C   0  0  0  0  0  3  0  0  0  0  0  0
  -17.6290  -30.6400   24.0610 C   0  0  0  0  0  3  0  0  0  0  0  0
  -16.5280  -29.8750   23.6400 C   0  0  0  0  0  3  0  0  0  0  0  0
  -16.7350  -28.6130   23.0550 C   0  0  0  0  0  3  0  0  0  0  0  0
  -25.8780  -32.5480   23.8540 C   0  0  0  0  0  3  0  0  0  0  0  0
  -25.5640  -33.9480   24.1730 N   0  0  0  0  0  0  0  0  0  0  0  0
  -25.9090  -34.9970   23.4140 C   0  0  0  0  0  0  0  0  0  0  0  0
  -26.5910  -34.8880   22.3920 O   0  0  0  0  0  0  0  0  0  0  0  0
  -24.9570  -34.1070   24.9630 H   0  0  0  0  0  0  0  0  0  0  0  0
  -24.1880  -36.7930   23.0300 C   0  0  0  0  0  1  0  0  0  0  0  0
  -25.4180  -36.3880   23.8590 C   0  0  0  0  0  3  0  0  0  0  0  0
  -27.5420  -37.2750   24.7150 C   0  0  0  0  0  1  0  0  0  0  0  0
  -26.4530  -37.4400   23.7550 N   0  0  0  0  0  0  0  0  0  0  0  0
  -26.0470  -38.3610   23.8940 H   0  0  0  0  0  0  0  0  0  0  0  0
  -26.3810  -31.7850   25.1410 C   0  0  1  0  0  0  0  0  0  0  0  0
  -25.2780  -31.5550   26.1990 C   0  0  0  0  0  1  0  0  0  0  0  0
  -26.9680  -30.4040   24.7670 C   0  0  0  0  0  1  0  0  0  0  0  0
  -27.5250  -32.5830   25.8090 C   0  0  0  0  0  1  0  0  0  0  0  0
  1  2  1  0
  1  3  1  0
  5  4  1  0
  5  1  1  0
  5  6  1  0
  6  8  2  0
  7  6  1  0
  7 11  1  0
  9  7  1  0
 11 10  1  0
 12 11  1  0
 13 12  1  0
 14 19  1  0
 15 16  1  0
 15 14  1  0
 17 16  1  0
 17 24  1  0
 17 18  1  0
 19 13  1  0
 19 18  1  0
 20 13  2  0
 21 22  2  0
 22 41  1  0
 23 22  1  0
 23 26  1  0
 24 21  1  0
 24 25  1  0
 25 23  2  0
 26 27  1  0
 27 28  2  0
 29 32  1  0
 29 28  1  0
 30 29  2  0
 31 30  1  0
 31 26  2  0
 32 33  1  0
 33 34  1  0
 34 35  2  0
 36 35  1  0
 36 40  1  0
 37 36  2  0
 38 33  2  0
 38 37  1  0
 39 38  1  0
 41 42  1  0
 42 45  1  0
 42 44  1  0
 43 41  2  0
 46 47  1  0
 46 21  1  0
 48 46  1  0
 49  1  1  0
 49 50  2  0
 51 50  1  0
 52 63  2  0
 53 51  1  0
 53 58  1  0
 54 62  1  0
 54 64  1  0
 55 61  1  0
 55 57  1  0
 56 62  1  0
 57 58  2  0
 57 56  1  0
 59 53  2  0
 60 59  1  0
 60 55  2  0
 61 54  1  0
 62 52  1  0
 64 66  2  0
 65 64  1  0
 67 65  1  0
 68 77  2  0
 68 73  1  0
 69 65  1  0
 69 73  1  0
 70 69  1  0
 71 72  1  0
 71 70  1  0
 72 68  1  0
 73 74  2  0
 74 75  1  0
 76 75  2  0
 77 76  1  0
 78 52  1  0
 78 79  1  0
 78 88  1  0
 79 82  1  0
 80 84  1  0
 80 79  1  0
 81 80  2  0
 84 83  1  0
 86 84  1  0
 86 87  1  0
 86 85  1  0
 88 91  1  1
 88 89  1  0
 90 88  1  0
M  ISO  4  12 100  13 100  50 101  51 101
M  END
>  <TORSDO>  (98) 
F 22

>  <SCORE>  (98) 
-13.027

>  <name>  (98) 
97

>  <ligand_id>  (98) 
97

>  <original_smiles>  (98) 
[H]c1c([H])c([H])c2c(c1[H])C([H])([H])C([H])([H])C([H])([H])C2([H])N([H])C(=O)C1([H])N(C(=O)C([H])(N([H])C(=O)C([H])(N([H])C([H])([H])[H])C([H])([H])[H])C(C([H])([H])[H])(C([H])([H])[H])C([H])([H])[H])C([H])([H])c2c([H])c(OC([H])([H])C([H])([H])[N+]([H])([H])C([H])(C(=O)N([H])C([H])(C([H])([H])[H])C([H])([H])C(=O)N3C([H])([H])C([H])([H])C([H])([H])C([H])(n4nc(-c5c([H])c([H])c(Oc6c([H])c([H])c(F)c([H])c6F)c([H])c5[H])c(C(=O)N([H])[H])c4N([H])[H])C3([H])[H])C([H])([H])[H])c([H])c([H])c2C1([H])[H]

>  <smiles>  (98) 
[H]c1c([H])c([H])c2c(c1[H])C([H])([H])C([H])([H])C([H])([H])C2([H])N([H])C(=O)C1([H])N(C(=O)C([H])(N([H])C(=O)C([H])(N([H])C([H])([H])[H])C([H])([H])[H])C(C([H])([H])[H])(C([H])([H])[H])C([H])([H])[H])C([H])([H])c2c([H])c(OC([H])([H])C([H])([H])[N+]([H])([H])C([H])(C(=O)N([H])C([H])(C([H])([H])[H])C([H])([H])C(=O)N3C([H])([H])C([H])([H])C([H])([H])C([H])(n4nc(-c5c([H])c([H])c(Oc6c([H])c([H])c(F)c([H])c6F)c([H])c5[H])c(C(=O)N([H])[H])c4N([H])[H])C3([H])[H])C([H])([H])[H])c([H])c([H])c2C1([H])[H]

$$$$
98:0:0
     RDKit          3D

 98106  0  0  1  0  0  0  0  0999 V2000
  -30.0950  -24.2750   15.0080 C   0  0  0  0  0  3  0  0  0  0  0  0
  -29.5940  -24.4580   17.3760 C   0  0  0  0  0  3  0  0  0  0  0  0
  -29.8900  -25.6620   14.8560 C   0  0  0  0  0  3  0  0  0  0  0  0
  -29.3550  -25.8340   17.2150 C   0  0  0  0  0  3  0  0  0  0  0  0
  -29.9700  -23.6570   16.2760 C   0  0  0  0  0  0  0  0  0  0  0  0
  -29.5130  -26.4570   15.9550 C   0  0  0  0  0  0  0  0  0  0  0  0
  -29.3050  -27.8330   15.7610 N   0  0  0  0  0  0  0  0  0  0  0  0
  -30.0370  -28.4760   16.0580 H   0  0  0  0  0  0  0  0  0  0  0  0
  -28.3840  -28.2940   14.7230 C   0  0  0  0  0  2  0  0  0  0  0  0
  -26.9250  -27.8500   14.9710 C   0  0  0  0  0  2  0  0  0  0  0  0
  -26.4310  -27.0040   13.8670 N   0  0  0  0  0  4  0  0  0  0  0  0
  -26.2530  -26.0900   14.2420 H   0  0  0  0  0  0  0  0  0  0  0  0
  -27.1480  -26.8830   13.1550 H   0  0  0  0  0  0  0  0  0  0  0  0
  -25.1910  -27.4660   13.2140 C   0  0  0  0  0  2  0  0  0  0  0  0
  -24.0110  -26.5370   13.5680 C   0  0  0  0  0  2  0  0  0  0  0  0
  -23.4730  -24.1820   13.8560 C   0  0  0  0  0  0  0  0  0  0  0  0
  -22.4710  -22.9510   15.7460 C   0  0  0  0  0  2  0  0  0  0  0  0
  -21.3430  -23.7630   16.4110 C   0  0  0  0  0  2  0  0  0  0  0  0
  -21.9100  -24.7170   17.4840 C   0  0  0  0  0  2  0  0  0  0  0  0
  -23.1040  -25.5560   16.9590 C   0  0  0  0  0  3  0  0  0  0  0  0
  -24.1350  -24.6410   16.2550 C   0  0  0  0  0  2  0  0  0  0  0  0
  -23.4460  -23.8990   15.1850 N   0  0  0  0  0  0  0  0  0  0  0  0
  -22.7900  -23.5900   13.0200 O   0  0  0  0  0  0  0  0  0  0  0  0
  -24.3460  -25.1170   13.4560 N   0  0  0  0  0  0  0  0  0  0  0  0
  -24.6810  -24.9080   12.5270 H   0  0  0  0  0  0  0  0  0  0  0  0
  -24.1750  -27.6640   17.9850 C   0  0  0  0  0  0  0  0  0  0  0  0
  -24.6010  -27.9430   19.2540 C   0  0  0  0  0  0  0  0  0  0  0  0
  -24.3770  -26.7550   20.0150 C   0  0  0  0  0  0  0  0  0  0  0  0
  -23.7210  -26.3530   18.0160 N   0  0  0  0  0  0  0  0  0  0  0  0
  -23.9020  -25.7920   19.2370 N   0  0  0  0  0  0  0  0  0  0  0  0
  -24.5300  -26.4960   21.4510 C   0  0  0  0  0  0  0  0  0  0  0  0
  -25.7970  -26.2410   22.0230 C   0  0  0  0  0  3  0  0  0  0  0  0
  -25.9220  -26.0120   23.4090 C   0  0  0  0  0  3  0  0  0  0  0  0
  -24.7770  -26.0360   24.2390 C   0  0  0  0  0  0  0  0  0  0  0  0
  -23.5150  -26.2640   23.6610 C   0  0  0  0  0  3  0  0  0  0  0  0
  -23.3900  -26.4890   22.2800 C   0  0  0  0  0  3  0  0  0  0  0  0
  -24.8000  -25.7990   25.5930 O   0  0  0  0  0  0  0  0  0  0  0  0
  -25.1490  -26.7780   26.4890 C   0  0  0  0  0  0  0  0  0  0  0  0
  -24.2830  -27.8500   26.7950 C   0  0  0  0  0  3  0  0  0  0  0  0
  -24.6540  -28.7980   27.7690 C   0  0  0  0  0  3  0  0  0  0  0  0
  -25.8800  -28.6690   28.4470 C   0  0  0  0  0  0  0  0  0  0  0  0
  -26.7410  -27.5980   28.1480 C   0  0  0  0  0  3  0  0  0  0  0  0
  -26.3750  -26.6540   27.1740 C   0  0  0  0  0  0  0  0  0  0  0  0
  -27.1980  -25.6120   26.9030 F   0  0  0  0  0  0  0  0  0  0  0  0
  -26.2330  -29.5740   29.3900 F   0  0  0  0  0  0  0  0  0  0  0  0
  -25.0840  -29.2690   19.7650 C   0  0  0  0  0  0  0  0  0  0  0  0
  -26.2440  -29.2970   20.4100 N   0  0  0  0  0  0  0  0  0  0  0  0
  -24.4500  -30.3010   19.5440 O   0  0  0  0  0  0  0  0  0  0  0  0
  -26.7740  -28.4540   20.5760 H   0  0  0  0  0  0  0  0  0  0  0  0
  -26.6060  -30.1770   20.7530 H   0  0  0  0  0  0  0  0  0  0  0  0
  -24.1020  -28.4250   16.8170 N   0  0  0  0  0  0  0  0  0  0  0  0
  -24.1750  -29.4070   17.0690 H   0  0  0  0  0  0  0  0  0  0  0  0
  -23.2060  -28.2640   16.3700 H   0  0  0  0  0  0  0  0  0  0  0  0
  -30.1530  -22.1440   16.4380 C   0  0  0  0  0  3  0  0  0  0  0  0
  -28.9390  -21.4640   16.7170 O   0  0  0  0  0  0  0  0  0  0  0  0
  -28.4400  -21.4480   15.9080 H   0  0  0  0  0  0  0  0  0  0  0  0
  -31.1730  -21.7290   17.5250 C   0  0  0  0  0  2  0  0  0  0  0  0
  -32.3980  -21.3290   16.9180 O   0  0  0  0  0  0  0  0  0  0  0  0
  -38.0220  -22.3720   21.1070 C   0  0  0  0  0  0  0  0  0  0  0  0
  -33.4780  -22.1270   17.2050 C   0  0  0  0  0  0  0  0  0  0  0  0
  -37.4780  -24.2310   19.5660 C   0  0  0  0  0  3  0  0  0  0  0  0
  -35.7410  -23.7050   17.7800 C   0  0  0  0  0  0  0  0  0  0  0  0
  -36.8680  -21.8180   18.9720 C   0  0  0  0  0  2  0  0  0  0  0  0
  -35.6920  -22.3720   18.1990 C   0  0  0  0  0  0  0  0  0  0  0  0
  -34.5660  -21.5740   17.9050 C   0  0  0  0  0  3  0  0  0  0  0  0
  -33.5330  -23.4790   16.7940 C   0  0  0  0  0  3  0  0  0  0  0  0
  -34.6590  -24.2690   17.0840 C   0  0  0  0  0  3  0  0  0  0  0  0
  -36.9940  -24.4820   18.1150 C   0  0  0  0  0  2  0  0  0  0  0  0
  -37.4520  -22.7790   19.9380 N   0  0  0  0  0  0  0  0  0  0  0  0
  -38.6040  -23.1760   21.8480 O   0  0  0  0  0  0  0  0  0  0  0  0
  -36.6490  -25.1220   20.5180 C   0  0  0  0  0  0  0  0  0  0  0  0
  -37.3320  -26.0360   21.2280 N   0  0  0  0  0  0  0  0  0  0  0  0
  -35.4230  -25.0050   20.5870 O   0  0  0  0  0  0  0  0  0  0  0  0
  -38.3380  -26.0620   21.1240 H   0  0  0  0  0  0  0  0  0  0  0  0
  -38.1390  -28.3300   23.8960 C   0  0  0  0  0  0  0  0  0  0  0  0
  -36.7600  -27.0070   22.1560 C   0  0  0  0  0  3  0  0  0  0  0  0
  -36.5180  -28.3690   21.4630 C   0  0  0  0  0  2  0  0  0  0  0  0
  -37.6910  -29.3420   21.6200 C   0  0  0  0  0  2  0  0  0  0  0  0
  -37.9690  -29.6130   23.1000 C   0  0  0  0  0  2  0  0  0  0  0  0
  -37.5860  -27.1030   23.4440 C   0  0  0  0  0  0  0  0  0  0  0  0
  -37.8060  -25.9320   24.2010 C   0  0  0  0  0  3  0  0  0  0  0  0
  -38.5590  -25.9740   25.3900 C   0  0  0  0  0  3  0  0  0  0  0  0
  -39.0900  -27.1950   25.8410 C   0  0  0  0  0  3  0  0  0  0  0  0
  -38.8770  -28.3690   25.0970 C   0  0  0  0  0  3  0  0  0  0  0  0
  -37.9940  -20.8770   21.5570 C   0  0  0  0  0  3  0  0  0  0  0  0
  -37.1620  -20.6370   22.8740 C   0  0  1  0  0  0  0  0  0  0  0  0
  -37.7490  -21.3420   24.1200 C   0  0  0  0  0  1  0  0  0  0  0  0
  -35.7050  -21.1280   22.6970 C   0  0  0  0  0  1  0  0  0  0  0  0
  -37.0840  -19.1220   23.1770 C   0  0  0  0  0  1  0  0  0  0  0  0
  -39.3860  -20.4440   21.7310 N   0  0  0  0  0  0  0  0  0  0  0  0
  -40.0450  -19.6430   20.8820 C   0  0  0  0  0  0  0  0  0  0  0  0
  -39.5110  -19.1290   19.8940 O   0  0  0  0  0  0  0  0  0  0  0  0
  -39.9020  -20.8670   22.4890 H   0  0  0  0  0  0  0  0  0  0  0  0
  -42.3980  -19.9820   20.0610 C   0  0  0  0  0  1  0  0  0  0  0  0
  -41.5320  -19.3710   21.1750 C   0  0  0  0  0  3  0  0  0  0  0  0
  -41.3160  -17.3450   22.5450 C   0  0  0  0  0  1  0  0  0  0  0  0
  -41.8500  -17.9340   21.3200 N   0  0  0  0  0  0  0  0  0  0  0  0
  -42.8550  -17.7840   21.3100 H   0  0  0  0  0  0  0  0  0  0  0  0
  1  5  1  0
  3  1  2  0
  3  6  1  0
  4  2  1  0
  5 54  1  0
  5  2  2  0
  6  4  2  0
  7  6  1  0
  7  8  1  0
  9 10  1  0
  9  7  1  0
 11 12  1  0
 11 10  1  0
 13 11  1  0
 14 15  1  0
 14 11  1  0
 16 22  1  0
 17 18  1  0
 18 19  1  0
 20 21  1  0
 20 19  1  0
 20 29  1  0
 22 17  1  0
 22 21  1  0
 23 16  2  0
 24 15  1  0
 24 16  1  0
 25 24  1  0
 26 29  1  0
 26 27  2  0
 27 46  1  0
 27 28  1  0
 28 31  1  0
 29 30  1  0
 30 28  2  0
 31 32  2  0
 31 36  1  0
 32 33  1  0
 33 34  2  0
 34 37  1  0
 35 34  1  0
 36 35  2  0
 37 38  1  0
 38 39  2  0
 38 43  1  0
 39 40  1  0
 40 41  2  0
 41 45  1  0
 42 41  1  0
 43 42  2  0
 44 43  1  0
 46 47  1  0
 47 49  1  0
 47 50  1  0
 48 46  2  0
 51 52  1  0
 51 26  1  0
 53 51  1  0
 54 55  1  0
 54 57  1  0
 56 55  1  0
 58 60  1  0
 58 57  1  0
 59 70  2  0
 60 65  1  0
 61 69  1  0
 61 71  1  0
 62 68  1  0
 62 64  1  0
 63 69  1  0
 64 63  1  0
 65 64  2  0
 66 67  1  0
 66 60  2  0
 67 62  2  0
 68 61  1  0
 69 59  1  0
 71 73  2  0
 71 72  1  0
 74 72  1  0
 75 84  1  0
 76 72  1  0
 76 80  1  0
 77 78  1  0
 77 76  1  0
 78 79  1  0
 79 75  1  0
 80 75  2  0
 80 81  1  0
 81 82  2  0
 82 83  1  0
 84 83  2  0
 85 59  1  0
 85 90  1  0
 85 86  1  0
 86 89  1  1
 86 87  1  0
 88 86  1  0
 90 93  1  0
 91 95  1  0
 91 90  1  0
 92 91  2  0
 95 94  1  0
 95 97  1  0
 97 96  1  0
 98 97  1  0
M  ISO  4  16 100  24 100  57 101  58 101
M  END
>  <TORSDO>  (99) 
F 25

>  <SCORE>  (99) 
-5.775

>  <name>  (99) 
98

>  <ligand_id>  (99) 
98

>  <original_smiles>  (99) 
[H]OC([H])(c1c([H])c([H])c(N([H])C([H])([H])C([H])([H])[N+]([H])([H])C([H])([H])C([H])([H])N([H])C(=O)N2C([H])([H])C([H])([H])C([H])([H])C([H])(n3nc(-c4c([H])c([H])c(Oc5c([H])c([H])c(F)c([H])c5F)c([H])c4[H])c(C(=O)N([H])[H])c3N([H])[H])C2([H])[H])c([H])c1[H])C([H])([H])Oc1c([H])c([H])c2c(c1[H])C([H])([H])N(C(=O)C([H])(N([H])C(=O)C([H])(N([H])C([H])([H])[H])C([H])([H])[H])C(C([H])([H])[H])(C([H])([H])[H])C([H])([H])[H])C([H])(C(=O)N([H])C1([H])c3c([H])c([H])c([H])c([H])c3C([H])([H])C([H])([H])C1([H])[H])C2([H])[H]

>  <smiles>  (99) 
[H]OC([H])(c1c([H])c([H])c(N([H])C([H])([H])C([H])([H])[N+]([H])([H])C([H])([H])C([H])([H])N([H])C(=O)N2C([H])([H])C([H])([H])C([H])([H])C([H])(n3nc(-c4c([H])c([H])c(Oc5c([H])c([H])c(F)c([H])c5F)c([H])c4[H])c(C(=O)N([H])[H])c3N([H])[H])C2([H])[H])c([H])c1[H])C([H])([H])Oc1c([H])c([H])c2c(c1[H])C([H])([H])N(C(=O)C([H])(N([H])C(=O)C([H])(N([H])C([H])([H])[H])C([H])([H])[H])C(C([H])([H])[H])(C([H])([H])[H])C([H])([H])[H])C([H])(C(=O)N([H])C1([H])c3c([H])c([H])c([H])c([H])c3C([H])([H])C([H])([H])C1([H])[H])C2([H])[H]

$$$$
