0:0:0
     RDKit          3D

 92100  0  0  1  0  0  0  0  0999 V2000
  -29.5290  -20.6430   20.1980 N   0  0  0  0  0  4  0  0  0  0  0  0
  -30.4520  -20.6880   20.6000 H   0  0  0  0  0  0  0  0  0  0  0  0
  -29.6310  -20.7800   19.2070 H   0  0  0  0  0  0  0  0  0  0  0  0
  -27.5610  -19.0710   19.9490 C   0  0  0  0  0  1  0  0  0  0  0  0
  -29.0440  -19.1450   20.3980 C   0  0  0  0  0  3  0  0  0  0  0  0
  -32.3530  -18.2890   20.2140 C   0  0  0  0  0  2  0  0  0  0  0  0
  -32.5100  -16.9780   20.9930 C   0  0  0  0  0  2  0  0  0  0  0  0
  -31.2350  -18.2210   19.1590 C   0  0  0  0  0  2  0  0  0  0  0  0
  -31.1490  -16.4960   21.5420 C   0  0  0  0  0  2  0  0  0  0  0  0
  -29.8540  -17.8080   19.7330 C   0  0  0  0  0  3  0  0  0  0  0  0
  -30.0050  -16.2940   20.4880 C   0  0  2  0  0  0  0  0  0  0  0  0
  -28.7520  -16.0700   21.3500 C   0  0  0  0  0  1  0  0  0  0  0  0
  -30.4060  -14.8970   19.6470 C   0  0  0  0  0  0  0  0  0  0  0  0
  -30.0900  -12.6450   18.5070 C   0  0  0  0  0  2  0  0  0  0  0  0
  -29.0200  -12.7650   17.3940 C   0  0  0  0  0  2  0  0  0  0  0  0
  -27.5970  -12.5790   17.9620 C   0  0  0  0  0  2  0  0  0  0  0  0
  -27.3890  -13.3180   19.3100 C   0  0  0  0  0  3  0  0  0  0  0  0
  -28.5800  -13.1110   20.2670 C   0  0  0  0  0  2  0  0  0  0  0  0
  -29.7800  -13.6390   19.5860 N   0  0  0  0  0  0  0  0  0  0  0  0
  -31.4320  -14.9740   18.9630 O   0  0  0  0  0  0  0  0  0  0  0  0
  -25.0870  -13.8310   20.3160 C   0  0  0  0  0  0  0  0  0  0  0  0
  -24.0860  -13.0220   20.7850 C   0  0  0  0  0  0  0  0  0  0  0  0
  -24.5590  -11.6840   20.6420 C   0  0  0  0  0  0  0  0  0  0  0  0
  -26.1120  -12.9820   19.9290 N   0  0  0  0  0  0  0  0  0  0  0  0
  -25.8030  -11.6820   20.1760 N   0  0  0  0  0  0  0  0  0  0  0  0
  -23.8730  -10.4020   20.8710 C   0  0  0  0  0  0  0  0  0  0  0  0
  -24.3830   -9.4460   21.7750 C   0  0  0  0  0  3  0  0  0  0  0  0
  -23.6990   -8.2280   21.9960 C   0  0  0  0  0  3  0  0  0  0  0  0
  -22.4890   -7.9630   21.3060 C   0  0  0  0  0  0  0  0  0  0  0  0
  -22.0010   -8.9100   20.3860 C   0  0  0  0  0  3  0  0  0  0  0  0
  -22.6850  -10.1170   20.1690 C   0  0  0  0  0  3  0  0  0  0  0  0
  -21.7700   -6.7980   21.4360 O   0  0  0  0  0  0  0  0  0  0  0  0
  -21.7530   -6.0870   22.6100 C   0  0  0  0  0  0  0  0  0  0  0  0
  -21.3210   -6.6670   23.8230 C   0  0  0  0  0  3  0  0  0  0  0  0
  -21.2550   -5.8830   24.9930 C   0  0  0  0  0  3  0  0  0  0  0  0
  -21.6070   -4.5190   24.9460 C   0  0  0  0  0  0  0  0  0  0  0  0
  -22.0280   -3.9390   23.7350 C   0  0  0  0  0  3  0  0  0  0  0  0
  -22.0990   -4.7210   22.5710 C   0  0  0  0  0  0  0  0  0  0  0  0
  -22.4850   -4.1520   21.4040 F   0  0  0  0  0  0  0  0  0  0  0  0
  -21.5330   -3.7630   26.0670 F   0  0  0  0  0  0  0  0  0  0  0  0
  -22.7270  -13.4630   21.2450 C   0  0  0  0  0  0  0  0  0  0  0  0
  -22.1290  -12.7230   22.1750 N   0  0  0  0  0  0  0  0  0  0  0  0
  -22.2060  -14.4920   20.8180 O   0  0  0  0  0  0  0  0  0  0  0  0
  -22.5700  -11.8940   22.5420 H   0  0  0  0  0  0  0  0  0  0  0  0
  -21.2180  -12.9880   22.5190 H   0  0  0  0  0  0  0  0  0  0  0  0
  -25.2000  -15.2080   20.1670 N   0  0  0  0  0  0  0  0  0  0  0  0
  -24.4360  -15.8410   20.3810 H   0  0  0  0  0  0  0  0  0  0  0  0
  -25.9830  -15.6750   19.7280 H   0  0  0  0  0  0  0  0  0  0  0  0
  -28.7630  -21.9140   20.7620 C   0  0  0  0  0  2  0  0  0  0  0  0
  -29.1780  -23.5040   20.4060 C   0  0  0  0  0  3  0  0  0  0  0  0
  -28.2170  -24.8230   20.7910 C   0  0  0  0  0  3  0  0  0  0  0  0
  -28.4310  -26.3090   20.4230 O   0  0  0  0  0  0  0  0  0  0  0  0
  -24.6880  -31.9320   23.2910 C   0  0  0  0  0  0  0  0  0  0  0  0
  -27.3370  -27.2390   20.3620 C   0  0  0  0  0  0  0  0  0  0  0  0
  -23.5110  -30.5290   21.6370 C   0  0  0  0  0  3  0  0  0  0  0  0
  -24.9860  -28.9390   20.2570 C   0  0  0  0  0  0  0  0  0  0  0  0
  -26.0620  -30.8060   21.5070 C   0  0  0  0  0  2  0  0  0  0  0  0
  -26.1530  -29.4110   20.8750 C   0  0  0  0  0  0  0  0  0  0  0  0
  -27.3290  -28.5780   20.9060 C   0  0  0  0  0  3  0  0  0  0  0  0
  -26.1500  -26.8550   19.7000 C   0  0  0  0  0  3  0  0  0  0  0  0
  -24.9950  -27.6700   19.6550 C   0  0  0  0  0  3  0  0  0  0  0  0
  -23.7560  -29.8330   20.2720 C   0  0  0  0  0  2  0  0  0  0  0  0
  -24.7730  -31.1080   22.2030 N   0  0  0  0  0  0  0  0  0  0  0  0
  -23.5960  -32.2200   23.8020 O   0  0  0  0  0  0  0  0  0  0  0  0
  -22.8120  -29.5320   22.5960 C   0  0  0  0  0  0  0  0  0  0  0  0
  -21.4850  -29.3650   22.4420 N   0  0  0  0  0  0  0  0  0  0  0  0
  -23.4650  -28.9080   23.4360 O   0  0  0  0  0  0  0  0  0  0  0  0
  -21.0130  -29.9140   21.7380 H   0  0  0  0  0  0  0  0  0  0  0  0
  -18.0920  -28.1820   22.8890 C   0  0  0  0  0  0  0  0  0  0  0  0
  -20.6460  -28.4370   23.2070 C   0  0  0  0  0  3  0  0  0  0  0  0
  -20.7560  -27.0000   22.6460 C   0  0  0  0  0  2  0  0  0  0  0  0
  -19.6740  -26.6730   21.6120 C   0  0  0  0  0  2  0  0  0  0  0  0
  -18.2780  -26.8290   22.2250 C   0  0  0  0  0  2  0  0  0  0  0  0
  -19.2040  -28.9440   23.3360 C   0  0  0  0  0  0  0  0  0  0  0  0
  -18.9770  -30.2100   23.9180 C   0  0  0  0  0  3  0  0  0  0  0  0
  -17.6720  -30.7150   24.0570 C   0  0  0  0  0  3  0  0  0  0  0  0
  -16.5740  -29.9510   23.6280 C   0  0  0  0  0  3  0  0  0  0  0  0
  -16.7840  -28.6850   23.0510 C   0  0  0  0  0  3  0  0  0  0  0  0
  -25.9570  -32.5640   23.9350 C   0  0  0  0  0  3  0  0  0  0  0  0
  -25.6500  -33.9650   24.2580 N   0  0  0  0  0  0  0  0  0  0  0  0
  -26.0040  -35.0180   23.5060 C   0  0  0  0  0  0  0  0  0  0  0  0
  -26.6900  -34.9090   22.4850 O   0  0  0  0  0  0  0  0  0  0  0  0
  -25.0470  -34.1250   25.0530 H   0  0  0  0  0  0  0  0  0  0  0  0
  -24.2940  -36.8230   23.1260 C   0  0  0  0  0  1  0  0  0  0  0  0
  -25.5210  -36.4100   23.9560 C   0  0  0  0  0  3  0  0  0  0  0  0
  -27.6510  -37.2820   24.8120 C   0  0  0  0  0  1  0  0  0  0  0  0
  -26.5630  -37.4580   23.8540 N   0  0  0  0  0  0  0  0  0  0  0  0
  -26.1600  -38.3790   24.0030 H   0  0  0  0  0  0  0  0  0  0  0  0
  -26.4460  -31.7960   25.2260 C   0  0  1  0  0  0  0  0  0  0  0  0
  -25.3310  -31.5670   26.2740 C   0  0  0  0  0  1  0  0  0  0  0  0
  -27.0310  -30.4130   24.8530 C   0  0  0  0  0  1  0  0  0  0  0  0
  -27.5860  -32.5890   25.9090 C   0  0  0  0  0  1  0  0  0  0  0  0
  1  5  1  0
  1  2  1  0
  1 49  1  0
  3  1  1  0
  5  4  1  0
  6  7  1  0
  7  9  1  0
  8 10  1  0
  8  6  1  0
 10  5  1  0
 10 11  1  0
 11 12  1  1
 11  9  1  0
 13 11  1  0
 14 19  1  0
 15 16  1  0
 15 14  1  0
 17 16  1  0
 17 24  1  0
 17 18  1  0
 19 13  1  0
 19 18  1  0
 20 13  2  0
 21 22  2  0
 22 41  1  0
 23 22  1  0
 23 26  1  0
 24 25  1  0
 24 21  1  0
 25 23  2  0
 26 27  1  0
 27 28  2  0
 29 32  1  0
 29 28  1  0
 30 29  2  0
 31 30  1  0
 31 26  2  0
 32 33  1  0
 33 34  1  0
 34 35  2  0
 36 35  1  0
 36 40  1  0
 37 36  2  0
 38 33  2  0
 38 37  1  0
 39 38  1  0
 41 42  1  0
 42 45  1  0
 42 44  1  0
 43 41  2  0
 46 21  1  0
 46 47  1  0
 48 46  1  0
 50 49  1  0
 50 51  2  0
 52 51  1  0
 53 64  2  0
 54 52  1  0
 54 59  1  0
 55 63  1  0
 55 65  1  0
 56 62  1  0
 56 58  1  0
 57 63  1  0
 58 59  2  0
 58 57  1  0
 60 54  2  0
 61 60  1  0
 61 56  2  0
 62 55  1  0
 63 53  1  0
 65 67  2  0
 66 65  1  0
 68 66  1  0
 69 78  2  0
 69 74  1  0
 70 66  1  0
 70 74  1  0
 71 70  1  0
 72 73  1  0
 72 71  1  0
 73 69  1  0
 74 75  2  0
 75 76  1  0
 77 76  2  0
 78 77  1  0
 79 53  1  0
 79 80  1  0
 79 89  1  0
 80 83  1  0
 81 85  1  0
 81 80  1  0
 82 81  2  0
 85 84  1  0
 87 85  1  0
 87 88  1  0
 87 86  1  0
 89 92  1  1
 89 90  1  0
 91 89  1  0
M  ISO  4  11 100  13 100  51 101  52 101
M  END
>  <TORSDO>  (1) 
F 21

>  <SCORE>  (1) 
-12.139

>  <name>  (1) 
0

>  <ligand_id>  (1) 
0

>  <original_smiles>  (1) 
[H]c1c([H])c([H])c2c(c1[H])C([H])([H])C([H])([H])C([H])([H])C2([H])N([H])C(=O)C1([H])N(C(=O)C([H])(N([H])C(=O)C([H])(N([H])C([H])([H])[H])C([H])([H])[H])C(C([H])([H])[H])(C([H])([H])[H])C([H])([H])[H])C([H])([H])c2c([H])c(OC([H])([H])C([H])([H])C([H])([H])[N+]([H])([H])C([H])(C([H])([H])[H])C3([H])C([H])([H])C([H])([H])C([H])([H])C([H])([H])C3(C(=O)N3C([H])([H])C([H])([H])C([H])([H])C([H])(n4nc(-c5c([H])c([H])c(Oc6c([H])c([H])c(F)c([H])c6F)c([H])c5[H])c(C(=O)N([H])[H])c4N([H])[H])C3([H])[H])C([H])([H])[H])c([H])c([H])c2C1([H])[H]

>  <smiles>  (1) 
[H]c1c([H])c([H])c2c(c1[H])C([H])([H])C([H])([H])C([H])([H])C2([H])N([H])C(=O)C1([H])N(C(=O)C([H])(N([H])C(=O)C([H])(N([H])C([H])([H])[H])C([H])([H])[H])C(C([H])([H])[H])(C([H])([H])[H])C([H])([H])[H])C([H])([H])c2c([H])c(OC([H])([H])C([H])([H])C([H])([H])[N+]([H])([H])C([H])(C([H])([H])[H])C3([H])C([H])([H])C([H])([H])C([H])([H])C([H])([H])C3(C(=O)N3C([H])([H])C([H])([H])C([H])([H])C([H])(n4nc(-c5c([H])c([H])c(Oc6c([H])c([H])c(F)c([H])c6F)c([H])c5[H])c(C(=O)N([H])[H])c4N([H])[H])C3([H])[H])C([H])([H])[H])c([H])c([H])c2C1([H])[H]

$$$$
1:0:0
     RDKit          3D

 95103  0  0  1  0  0  0  0  0999 V2000
  -29.6160  -21.4420   22.5130 C   0  0  0  0  0  3  0  0  0  0  0  0
  -31.9020  -21.9460   21.8630 C   0  0  0  0  0  3  0  0  0  0  0  0
  -29.9290  -20.0690   22.5540 C   0  0  0  0  0  3  0  0  0  0  0  0
  -32.2160  -20.5720   21.9170 C   0  0  0  0  0  3  0  0  0  0  0  0
  -30.6000  -22.3890   22.1720 C   0  0  0  0  0  0  0  0  0  0  0  0
  -31.2380  -19.6090   22.2680 C   0  0  0  0  0  0  0  0  0  0  0  0
  -32.9550  -17.8480   22.5800 C   0  0  0  0  0  1  0  0  0  0  0  0
  -31.5620  -18.2370   22.3610 N   0  0  0  0  0  0  0  0  0  0  0  0
  -30.6560  -17.2300   21.8140 C   0  0  0  0  0  2  0  0  0  0  0  0
  -31.1360  -16.6970   20.4560 C   0  0  0  0  0  2  0  0  0  0  0  0
  -31.0030  -14.4530   19.3930 C   0  0  0  0  0  0  0  0  0  0  0  0
  -30.6210  -12.1700   18.5400 C   0  0  0  0  0  2  0  0  0  0  0  0
  -29.5750  -12.1690   17.4120 C   0  0  0  0  0  2  0  0  0  0  0  0
  -28.1430  -12.0990   17.9810 C   0  0  0  0  0  2  0  0  0  0  0  0
  -27.8980  -13.1370   19.1060 C   0  0  0  0  0  3  0  0  0  0  0  0
  -29.0340  -13.0720   20.1490 C   0  0  0  0  0  2  0  0  0  0  0  0
  -30.3160  -13.2850   19.4460 N   0  0  0  0  0  0  0  0  0  0  0  0
  -31.9740  -14.6490   18.6560 O   0  0  0  0  0  0  0  0  0  0  0  0
  -30.5510  -15.3880   20.2290 N   0  0  0  0  0  0  0  0  0  0  0  0
  -29.7440  -15.1400   20.7840 H   0  0  0  0  0  0  0  0  0  0  0  0
  -25.6180  -13.8950   20.0380 C   0  0  0  0  0  0  0  0  0  0  0  0
  -24.5570  -13.1900   20.5390 C   0  0  0  0  0  0  0  0  0  0  0  0
  -24.9440  -11.8150   20.5000 C   0  0  0  0  0  0  0  0  0  0  0  0
  -26.5870  -12.9520   19.7280 N   0  0  0  0  0  0  0  0  0  0  0  0
  -26.1890  -11.6980   20.0580 N   0  0  0  0  0  0  0  0  0  0  0  0
  -24.1790  -10.5990   20.8010 C   0  0  0  0  0  0  0  0  0  0  0  0
  -24.5650   -9.7240   21.8410 C   0  0  0  0  0  3  0  0  0  0  0  0
  -23.8040   -8.5690   22.1230 C   0  0  0  0  0  3  0  0  0  0  0  0
  -22.6430   -8.2820   21.3660 C   0  0  0  0  0  0  0  0  0  0  0  0
  -22.2770   -9.1430   20.3170 C   0  0  0  0  0  3  0  0  0  0  0  0
  -23.0380  -10.2900   20.0330 C   0  0  0  0  0  3  0  0  0  0  0  0
  -21.8570   -7.1710   21.5520 O   0  0  0  0  0  0  0  0  0  0  0  0
  -21.6390   -6.6450   22.8010 C   0  0  0  0  0  0  0  0  0  0  0  0
  -21.0260   -7.3960   23.8290 C   0  0  0  0  0  3  0  0  0  0  0  0
  -20.7570   -6.7940   25.0740 C   0  0  0  0  0  3  0  0  0  0  0  0
  -21.0880   -5.4420   25.2900 C   0  0  0  0  0  0  0  0  0  0  0  0
  -21.6930   -4.6940   24.2660 C   0  0  0  0  0  3  0  0  0  0  0  0
  -21.9640   -5.2920   23.0240 C   0  0  0  0  0  0  0  0  0  0  0  0
  -22.5270   -4.5590   22.0330 F   0  0  0  0  0  0  0  0  0  0  0  0
  -20.8220   -4.8620   26.4840 F   0  0  0  0  0  0  0  0  0  0  0  0
  -23.2230  -13.7480   20.9440 C   0  0  0  0  0  0  0  0  0  0  0  0
  -22.5620  -13.1170   21.9090 N   0  0  0  0  0  0  0  0  0  0  0  0
  -22.7820  -14.7800   20.4400 O   0  0  0  0  0  0  0  0  0  0  0  0
  -22.9350  -12.2820   22.3360 H   0  0  0  0  0  0  0  0  0  0  0  0
  -21.6720  -13.4740   22.2230 H   0  0  0  0  0  0  0  0  0  0  0  0
  -25.8350  -15.2500   19.8060 N   0  0  0  0  0  0  0  0  0  0  0  0
  -25.1210  -15.9490   19.9750 H   0  0  0  0  0  0  0  0  0  0  0  0
  -26.6730  -15.6340   19.3870 H   0  0  0  0  0  0  0  0  0  0  0  0
  -30.2660  -23.8740   22.1790 C   0  0  0  0  0  2  0  0  0  0  0  0
  -29.6930  -24.3160   20.8920 N   0  0  0  0  0  4  0  0  0  0  0  0
  -30.3760  -24.1420   20.1690 H   0  0  0  0  0  0  0  0  0  0  0  0
  -28.8890  -23.7410   20.6960 H   0  0  0  0  0  0  0  0  0  0  0  0
  -29.2990  -25.7460   20.8780 C   0  0  0  0  0  2  0  0  0  0  0  0
  -28.6740  -26.1740   19.5400 C   0  0  0  0  0  2  0  0  0  0  0  0
  -28.4990  -27.5910   19.5670 O   0  0  0  0  0  0  0  0  0  0  0  0
  -24.3810  -31.9360   23.3850 C   0  0  0  0  0  0  0  0  0  0  0  0
  -27.2370  -28.1130   19.7370 C   0  0  0  0  0  0  0  0  0  0  0  0
  -23.2130  -30.6060   21.6560 C   0  0  0  0  0  3  0  0  0  0  0  0
  -24.7150  -29.3570   20.0200 C   0  0  0  0  0  0  0  0  0  0  0  0
  -25.6800  -31.2170   21.3850 C   0  0  0  0  0  2  0  0  0  0  0  0
  -25.8480  -29.9300   20.6080 C   0  0  0  0  0  0  0  0  0  0  0  0
  -27.1090  -29.3160   20.4640 C   0  0  0  0  0  3  0  0  0  0  0  0
  -26.0840  -27.5450   19.1460 C   0  0  0  0  0  3  0  0  0  0  0  0
  -24.8260  -28.1610   19.2880 C   0  0  0  0  0  3  0  0  0  0  0  0
  -23.4060  -30.0910   20.2040 C   0  0  0  0  0  2  0  0  0  0  0  0
  -24.4440  -31.2640   22.2010 N   0  0  0  0  0  0  0  0  0  0  0  0
  -23.3120  -32.0510   24.0000 O   0  0  0  0  0  0  0  0  0  0  0  0
  -22.7040  -29.4380   22.5310 C   0  0  0  0  0  0  0  0  0  0  0  0
  -21.4410  -29.0350   22.3150 N   0  0  0  0  0  0  0  0  0  0  0  0
  -23.4440  -28.8990   23.3580 O   0  0  0  0  0  0  0  0  0  0  0  0
  -20.8940  -29.5340   21.6270 H   0  0  0  0  0  0  0  0  0  0  0  0
  -18.3700  -27.1430   22.4270 C   0  0  0  0  0  0  0  0  0  0  0  0
  -20.7650  -27.9290   22.9900 C   0  0  0  0  0  3  0  0  0  0  0  0
  -21.2350  -26.5650   22.4340 C   0  0  0  0  0  2  0  0  0  0  0  0
  -20.3490  -26.0370   21.3000 C   0  0  0  0  0  2  0  0  0  0  0  0
  -18.9040  -25.8750   21.7820 C   0  0  0  0  0  2  0  0  0  0  0  0
  -19.2440  -28.1140   22.9810 C   0  0  0  0  0  0  0  0  0  0  0  0
  -18.6960  -29.2910   23.5370 C   0  0  0  0  0  3  0  0  0  0  0  0
  -17.3050  -29.5030   23.5460 C   0  0  0  0  0  3  0  0  0  0  0  0
  -16.4430  -28.5290   23.0110 C   0  0  0  0  0  3  0  0  0  0  0  0
  -16.9750  -27.3520   22.4570 C   0  0  0  0  0  3  0  0  0  0  0  0
  -25.6400  -32.6120   24.0130 C   0  0  0  0  0  3  0  0  0  0  0  0
  -25.2950  -34.0100   24.3010 N   0  0  0  0  0  0  0  0  0  0  0  0
  -25.6300  -35.0500   23.5250 C   0  0  0  0  0  0  0  0  0  0  0  0
  -26.3320  -34.9340   22.5160 O   0  0  0  0  0  0  0  0  0  0  0  0
  -24.6750  -34.1730   25.0800 H   0  0  0  0  0  0  0  0  0  0  0  0
  -23.8900  -36.8050   23.0590 C   0  0  0  0  0  1  0  0  0  0  0  0
  -25.1010  -36.4370   23.9320 C   0  0  0  0  0  3  0  0  0  0  0  0
  -27.1750  -37.3820   24.8470 C   0  0  0  0  0  1  0  0  0  0  0  0
  -26.1210  -37.5060   23.8440 N   0  0  0  0  0  0  0  0  0  0  0  0
  -25.6910  -38.4210   23.9450 H   0  0  0  0  0  0  0  0  0  0  0  0
  -26.1560  -31.8840   25.3160 C   0  0  1  0  0  0  0  0  0  0  0  0
  -25.0420  -31.5970   26.3490 C   0  0  0  0  0  1  0  0  0  0  0  0
  -26.8280  -30.5390   24.9580 C   0  0  0  0  0  1  0  0  0  0  0  0
  -27.2340  -32.7500   26.0110 C   0  0  0  0  0  1  0  0  0  0  0  0
  1  3  1  0
  2  4  2  0
  2  5  1  0
  4  6  1  0
  5 49  1  0
  5  1  2  0
  6  8  1  0
  6  3  2  0
  8  7  1  0
  9  8  1  0
 10  9  1  0
 11 17  1  0
 11 19  1  0
 12 17  1  0
 13 14  1  0
 13 12  1  0
 15 14  1  0
 15 24  1  0
 15 16  1  0
 17 16  1  0
 18 11  2  0
 19 10  1  0
 19 20  1  0
 21 22  2  0
 22 41  1  0
 23 22  1  0
 23 26  1  0
 24 21  1  0
 24 25  1  0
 25 23  2  0
 26 27  1  0
 27 28  2  0
 29 32  1  0
 29 28  1  0
 30 29  2  0
 31 30  1  0
 31 26  2  0
 32 33  1  0
 33 38  2  0
 33 34  1  0
 34 35  2  0
 35 36  1  0
 36 40  1  0
 37 36  2  0
 38 37  1  0
 39 38  1  0
 41 42  1  0
 42 45  1  0
 42 44  1  0
 43 41  2  0
 46 47  1  0
 46 21  1  0
 48 46  1  0
 50 49  1  0
 51 50  1  0
 52 50  1  0
 53 50  1  0
 54 55  1  0
 54 53  1  0
 55 57  1  0
 56 67  2  0
 57 62  1  0
 58 66  1  0
 58 68  1  0
 59 65  1  0
 59 61  1  0
 60 66  1  0
 61 60  1  0
 62 61  2  0
 63 64  1  0
 63 57  2  0
 64 59  2  0
 65 58  1  0
 66 56  1  0
 68 70  2  0
 69 68  1  0
 71 69  1  0
 72 81  2  0
 72 77  1  0
 73 69  1  0
 74 73  1  0
 75 76  1  0
 75 74  1  0
 76 72  1  0
 77 73  1  0
 77 78  2  0
 78 79  1  0
 80 79  2  0
 81 80  1  0
 82 56  1  0
 82 83  1  0
 82 92  1  0
 83 86  1  0
 84 88  1  0
 84 83  1  0
 85 84  2  0
 88 87  1  0
 90 88  1  0
 90 91  1  0
 90 89  1  0
 92 95  1  1
 92 93  1  0
 94 92  1  0
M  ISO  4  11 100  19 100  54 101  55 101
M  END
>  <TORSDO>  (2) 
F 23

>  <SCORE>  (2) 
-6.977

>  <name>  (2) 
1

>  <ligand_id>  (2) 
1

>  <original_smiles>  (2) 
[H]c1c([H])c([H])c2c(c1[H])C([H])([H])C([H])([H])C([H])([H])C2([H])N([H])C(=O)C1([H])N(C(=O)C([H])(N([H])C(=O)C([H])(N([H])C([H])([H])[H])C([H])([H])[H])C(C([H])([H])[H])(C([H])([H])[H])C([H])([H])[H])C([H])([H])c2c([H])c(OC([H])([H])C([H])([H])[N+]([H])([H])C([H])([H])c3c([H])c([H])c(N(C([H])([H])[H])C([H])([H])C([H])([H])N([H])C(=O)N4C([H])([H])C([H])([H])C([H])([H])C([H])(n5nc(-c6c([H])c([H])c(Oc7c([H])c([H])c(F)c([H])c7F)c([H])c6[H])c(C(=O)N([H])[H])c5N([H])[H])C4([H])[H])c([H])c3[H])c([H])c([H])c2C1([H])[H]

>  <smiles>  (2) 
[H]c1c([H])c([H])c2c(c1[H])C([H])([H])C([H])([H])C([H])([H])C2([H])N([H])C(=O)C1([H])N(C(=O)C([H])(N([H])C(=O)C([H])(N([H])C([H])([H])[H])C([H])([H])[H])C(C([H])([H])[H])(C([H])([H])[H])C([H])([H])[H])C([H])([H])c2c([H])c(OC([H])([H])C([H])([H])[N+]([H])([H])C([H])([H])c3c([H])c([H])c(N(C([H])([H])[H])C([H])([H])C([H])([H])N([H])C(=O)N4C([H])([H])C([H])([H])C([H])([H])C([H])(n5nc(-c6c([H])c([H])c(Oc7c([H])c([H])c(F)c([H])c7F)c([H])c6[H])c(C(=O)N([H])[H])c5N([H])[H])C4([H])[H])c([H])c3[H])c([H])c([H])c2C1([H])[H]

$$$$
2:0:0
     RDKit          3D

 85 93  0  0  1  0  0  0  0  0999 V2000
  -27.8690  -20.5330   20.2500 C   0  0  0  0  0  3  0  0  0  0  0  0
  -29.9410  -20.9170   20.2420 C   0  0  0  0  0  3  0  0  0  0  0  0
  -27.5530  -22.1030   20.2650 C   0  0  0  0  0  3  0  0  0  0  0  0
  -29.6220  -22.4840   20.2590 C   0  0  0  0  0  3  0  0  0  0  0  0
  -29.1170  -19.6110   20.2350 C   0  0  0  0  0  0  0  0  0  0  0  0
  -28.3750  -23.4100   20.2720 C   0  0  0  0  0  0  0  0  0  0  0  0
  -30.1350  -16.2720   20.1640 C   0  0  0  0  0  0  0  0  0  0  0  0
  -30.4150  -13.6120   19.3740 C   0  0  0  0  0  2  0  0  0  0  0  0
  -29.5800  -12.9620   18.2160 C   0  0  0  0  0  2  0  0  0  0  0  0
  -28.2080  -12.4820   18.7050 C   0  0  0  0  0  2  0  0  0  0  0  0
  -27.6220  -13.4990   19.7000 C   0  0  0  0  0  3  0  0  0  0  0  0
  -28.6220  -14.0210   20.7740 C   0  0  0  0  0  2  0  0  0  0  0  0
  -29.6930  -14.8130   20.0790 N   0  0  0  0  0  0  0  0  0  0  0  0
  -31.3800  -16.1530   20.0280 O   0  0  0  0  0  0  0  0  0  0  0  0
  -29.3210  -17.7340   20.2220 N   0  0  0  0  0  0  0  0  0  0  0  0
  -28.3760  -17.3810   20.2740 H   0  0  0  0  0  0  0  0  0  0  0  0
  -25.2700  -13.9480   20.5120 C   0  0  0  0  0  0  0  0  0  0  0  0
  -24.2310  -13.1450   20.8780 C   0  0  0  0  0  0  0  0  0  0  0  0
  -24.7240  -11.8040   20.8200 C   0  0  0  0  0  0  0  0  0  0  0  0
  -26.3290  -13.1030   20.2440 N   0  0  0  0  0  0  0  0  0  0  0  0
  -26.0170  -11.8020   20.4920 N   0  0  0  0  0  0  0  0  0  0  0  0
  -24.0140  -10.5290   21.0000 C   0  0  0  0  0  0  0  0  0  0  0  0
  -24.4420   -9.5660   21.9410 C   0  0  0  0  0  3  0  0  0  0  0  0
  -23.7250   -8.3630   22.1140 C   0  0  0  0  0  3  0  0  0  0  0  0
  -22.5630   -8.1110   21.3470 C   0  0  0  0  0  0  0  0  0  0  0  0
  -22.1520   -9.0620   20.3960 C   0  0  0  0  0  3  0  0  0  0  0  0
  -22.8690  -10.2570   20.2220 C   0  0  0  0  0  3  0  0  0  0  0  0
  -21.8180   -6.9590   21.4280 O   0  0  0  0  0  0  0  0  0  0  0  0
  -21.7340   -6.2350   22.5910 C   0  0  0  0  0  0  0  0  0  0  0  0
  -21.2190   -6.7950   23.7800 C   0  0  0  0  0  3  0  0  0  0  0  0
  -21.0870   -5.9970   24.9340 C   0  0  0  0  0  3  0  0  0  0  0  0
  -21.4570   -4.6390   24.8980 C   0  0  0  0  0  0  0  0  0  0  0  0
  -21.9650   -4.0790   23.7130 C   0  0  0  0  0  3  0  0  0  0  0  0
  -22.1000   -4.8740   22.5620 C   0  0  0  0  0  0  0  0  0  0  0  0
  -22.5680   -4.3230   21.4150 F   0  0  0  0  0  0  0  0  0  0  0  0
  -21.3240   -3.8690   26.0030 F   0  0  0  0  0  0  0  0  0  0  0  0
  -22.8300  -13.5980   21.1600 C   0  0  0  0  0  0  0  0  0  0  0  0
  -22.1210  -12.8920   22.0330 N   0  0  0  0  0  0  0  0  0  0  0  0
  -22.3730  -14.6170   20.6430 O   0  0  0  0  0  0  0  0  0  0  0  0
  -22.5050  -12.0690   22.4740 H   0  0  0  0  0  0  0  0  0  0  0  0
  -21.1810  -13.1790   22.2660 H   0  0  0  0  0  0  0  0  0  0  0  0
  -25.4000  -15.3240   20.3460 N   0  0  0  0  0  0  0  0  0  0  0  0
  -24.6150  -15.9550   20.4640 H   0  0  0  0  0  0  0  0  0  0  0  0
  -26.2250  -15.7790   19.9790 H   0  0  0  0  0  0  0  0  0  0  0  0
  -28.2040  -25.1520   20.3060 O   0  0  0  0  0  0  0  0  0  0  0  0
  -24.6990  -31.8750   23.1860 C   0  0  0  0  0  0  0  0  0  0  0  0
  -27.2260  -26.4850   20.2890 C   0  0  0  0  0  0  0  0  0  0  0  0
  -23.5350  -30.4560   21.5570 C   0  0  0  0  0  3  0  0  0  0  0  0
  -24.9910  -28.7300   20.1880 C   0  0  0  0  0  0  0  0  0  0  0  0
  -26.1260  -30.4990   21.4920 C   0  0  0  0  0  2  0  0  0  0  0  0
  -26.1870  -29.0250   20.8520 C   0  0  0  0  0  0  0  0  0  0  0  0
  -27.2670  -27.9420   20.8620 C   0  0  0  0  0  3  0  0  0  0  0  0
  -25.9970  -26.4900   19.5550 C   0  0  0  0  0  3  0  0  0  0  0  0
  -24.9550  -27.4910   19.5150 C   0  0  0  0  0  3  0  0  0  0  0  0
  -23.8000  -29.7230   20.2050 C   0  0  0  0  0  2  0  0  0  0  0  0
  -24.8140  -30.9850   22.1290 N   0  0  0  0  0  0  0  0  0  0  0  0
  -23.5970  -32.1920   23.6700 O   0  0  0  0  0  0  0  0  0  0  0  0
  -22.7800  -29.5160   22.5370 C   0  0  0  0  0  0  0  0  0  0  0  0
  -21.4440  -29.3840   22.4100 N   0  0  0  0  0  0  0  0  0  0  0  0
  -23.4160  -28.8980   23.3940 O   0  0  0  0  0  0  0  0  0  0  0  0
  -20.9760  -29.9330   21.7010 H   0  0  0  0  0  0  0  0  0  0  0  0
  -18.0400  -28.2000   22.9360 C   0  0  0  0  0  0  0  0  0  0  0  0
  -20.6050  -28.4590   23.1850 C   0  0  0  0  0  3  0  0  0  0  0  0
  -20.6930  -27.0230   22.6170 C   0  0  0  0  0  2  0  0  0  0  0  0
  -19.5880  -26.7060   21.6050 C   0  0  0  0  0  2  0  0  0  0  0  0
  -18.2090  -26.8540   22.2510 C   0  0  0  0  0  2  0  0  0  0  0  0
  -19.1640  -28.9620   23.3590 C   0  0  0  0  0  0  0  0  0  0  0  0
  -18.9470  -30.2160   23.9670 C   0  0  0  0  0  3  0  0  0  0  0  0
  -17.6430  -30.7140   24.1500 C   0  0  0  0  0  3  0  0  0  0  0  0
  -16.5350  -29.9530   23.7380 C   0  0  0  0  0  3  0  0  0  0  0  0
  -16.7340  -28.6970   23.1370 C   0  0  0  0  0  3  0  0  0  0  0  0
  -25.9420  -32.5460   23.8440 C   0  0  0  0  0  3  0  0  0  0  0  0
  -25.6070  -33.9530   24.1650 N   0  0  0  0  0  0  0  0  0  0  0  0
  -25.9340  -35.0200   23.4240 C   0  0  0  0  0  0  0  0  0  0  0  0
  -26.5960  -34.9260   22.3880 O   0  0  0  0  0  0  0  0  0  0  0  0
  -25.0120  -34.0970   24.9680 H   0  0  0  0  0  0  0  0  0  0  0  0
  -24.1920  -36.8230   23.1260 C   0  0  0  0  0  1  0  0  0  0  0  0
  -25.4560  -36.4120   23.9000 C   0  0  0  0  0  3  0  0  0  0  0  0
  -27.5990  -37.3240   24.6860 C   0  0  0  0  0  1  0  0  0  0  0  0
  -26.4820  -37.4700   23.7570 N   0  0  0  0  0  0  0  0  0  0  0  0
  -26.0730  -38.3910   23.8940 H   0  0  0  0  0  0  0  0  0  0  0  0
  -26.4160  -31.8110   25.1610 C   0  0  1  0  0  0  0  0  0  0  0  0
  -25.2890  -31.6010   26.2010 C   0  0  0  0  0  1  0  0  0  0  0  0
  -27.0110  -30.4230   24.8420 C   0  0  0  0  0  1  0  0  0  0  0  0
  -27.5460  -32.6230   25.8390 C   0  0  0  0  0  1  0  0  0  0  0  0
  1  3  1  0
  2  4  2  0
  3  6  2  0
  4  6  1  0
  5  2  1  0
  5  1  2  0
  6 45  1  0
  7 15  1  0
  8 13  1  0
  9 10  1  0
  9  8  1  0
 11 10  1  0
 11 20  1  0
 11 12  1  0
 13  7  1  0
 13 12  1  0
 14  7  2  0
 15  5  1  0
 15 16  1  0
 17 18  2  0
 18 37  1  0
 19 18  1  0
 19 22  1  0
 20 21  1  0
 20 17  1  0
 21 19  2  0
 22 23  1  0
 23 24  2  0
 25 28  1  0
 25 24  1  0
 26 25  2  0
 27 26  1  0
 27 22  2  0
 28 29  1  0
 29 30  1  0
 30 31  2  0
 32 31  1  0
 32 36  1  0
 33 32  2  0
 34 29  2  0
 34 33  1  0
 35 34  1  0
 37 38  1  0
 38 41  1  0
 38 40  1  0
 39 37  2  0
 42 43  1  0
 42 17  1  0
 44 42  1  0
 46 57  2  0
 47 45  1  0
 47 52  1  0
 48 56  1  0
 48 58  1  0
 49 55  1  0
 49 51  1  0
 50 56  1  0
 51 52  2  0
 51 50  1  0
 53 47  2  0
 54 53  1  0
 54 49  2  0
 55 48  1  0
 56 46  1  0
 58 60  2  0
 59 58  1  0
 61 59  1  0
 62 71  2  0
 62 67  1  0
 63 59  1  0
 63 67  1  0
 64 63  1  0
 65 66  1  0
 65 64  1  0
 66 62  1  0
 67 68  2  0
 68 69  1  0
 70 69  2  0
 71 70  1  0
 72 46  1  0
 72 73  1  0
 72 82  1  0
 73 76  1  0
 74 78  1  0
 74 73  1  0
 75 74  2  0
 78 77  1  0
 80 81  1  0
 80 78  1  0
 80 79  1  0
 82 85  1  1
 82 83  1  0
 84 82  1  0
M  ISO  4   6 101   7 100  15 100  45 101
M  END
>  <TORSDO>  (3) 
F 16

>  <SCORE>  (3) 
-16.478

>  <name>  (3) 
2

>  <ligand_id>  (3) 
2

>  <original_smiles>  (3) 
[H]c1c([H])c([H])c2c(c1[H])C([H])([H])C([H])([H])C([H])([H])C2([H])N([H])C(=O)C1([H])N(C(=O)C([H])(N([H])C(=O)C([H])(N([H])C([H])([H])[H])C([H])([H])[H])C(C([H])([H])[H])(C([H])([H])[H])C([H])([H])[H])C([H])([H])c2c([H])c(Oc3c([H])c([H])c(N([H])C(=O)N4C([H])([H])C([H])([H])C([H])([H])C([H])(n5nc(-c6c([H])c([H])c(Oc7c([H])c([H])c(F)c([H])c7F)c([H])c6[H])c(C(=O)N([H])[H])c5N([H])[H])C4([H])[H])c([H])c3[H])c([H])c([H])c2C1([H])[H]

>  <smiles>  (3) 
[H]c1c([H])c([H])c2c(c1[H])C([H])([H])C([H])([H])C([H])([H])C2([H])N([H])C(=O)C1([H])N(C(=O)C([H])(N([H])C(=O)C([H])(N([H])C([H])([H])[H])C([H])([H])[H])C(C([H])([H])[H])(C([H])([H])[H])C([H])([H])[H])C([H])([H])c2c([H])c(Oc3c([H])c([H])c(N([H])C(=O)N4C([H])([H])C([H])([H])C([H])([H])C([H])(n5nc(-c6c([H])c([H])c(Oc7c([H])c([H])c(F)c([H])c7F)c([H])c6[H])c(C(=O)N([H])[H])c5N([H])[H])C4([H])[H])c([H])c3[H])c([H])c([H])c2C1([H])[H]

$$$$
3:0:0
     RDKit          3D

 91 99  0  0  1  0  0  0  0  0999 V2000
  -29.1930  -22.6840   19.7820 N   0  0  0  0  0  4  0  0  0  0  0  0
  -29.1700  -22.2240   18.8860 H   0  0  0  0  0  0  0  0  0  0  0  0
  -30.1530  -22.9540   19.9280 H   0  0  0  0  0  0  0  0  0  0  0  0
  -28.8450  -21.5970   20.7730 C   0  0  0  0  0  2  0  0  0  0  0  0
  -28.1460  -19.1150   20.5070 C   0  0  0  0  0  3  0  0  0  0  0  0
  -30.5080  -19.5150   20.3950 C   0  0  0  0  0  3  0  0  0  0  0  0
  -28.3860  -17.7130   20.4870 C   0  0  0  0  0  3  0  0  0  0  0  0
  -30.7500  -18.0950   20.3520 C   0  0  0  0  0  3  0  0  0  0  0  0
  -29.1940  -20.0710   20.4950 C   0  0  0  0  0  0  0  0  0  0  0  0
  -29.6860  -17.1480   20.4290 C   0  0  0  0  0  0  0  0  0  0  0  0
  -30.6150  -14.6950   20.0770 C   0  0  0  0  0  0  0  0  0  0  0  0
  -30.4050  -12.4760   18.9600 C   0  0  0  0  0  2  0  0  0  0  0  0
  -29.3910  -12.6250   17.8010 C   0  0  0  0  0  2  0  0  0  0  0  0
  -27.9400  -12.4540   18.2980 C   0  0  0  0  0  2  0  0  0  0  0  0
  -27.6460  -13.2760   19.5800 C   0  0  0  0  0  3  0  0  0  0  0  0
  -28.7610  -13.0680   20.6320 C   0  0  0  0  0  2  0  0  0  0  0  0
  -30.0380  -13.4510   20.0050 N   0  0  0  0  0  0  0  0  0  0  0  0
  -31.7510  -14.9070   19.6370 O   0  0  0  0  0  0  0  0  0  0  0  0
  -29.7710  -15.6840   20.5210 N   0  0  0  0  0  0  0  0  0  0  0  0
  -28.9190  -15.2680   20.8640 H   0  0  0  0  0  0  0  0  0  0  0  0
  -25.2870  -13.8660   20.4160 C   0  0  0  0  0  0  0  0  0  0  0  0
  -24.2400  -13.0880   20.8270 C   0  0  0  0  0  0  0  0  0  0  0  0
  -24.7000  -11.7370   20.7530 C   0  0  0  0  0  0  0  0  0  0  0  0
  -26.3210  -12.9890   20.1200 N   0  0  0  0  0  0  0  0  0  0  0  0
  -25.9750  -11.7030   20.3830 N   0  0  0  0  0  0  0  0  0  0  0  0
  -23.9830  -10.4720   20.9570 C   0  0  0  0  0  0  0  0  0  0  0  0
  -24.4290   -9.5140   21.8940 C   0  0  0  0  0  3  0  0  0  0  0  0
  -23.7140   -8.3120   22.0840 C   0  0  0  0  0  3  0  0  0  0  0  0
  -22.5380   -8.0610   21.3380 C   0  0  0  0  0  0  0  0  0  0  0  0
  -22.1120   -9.0080   20.3880 C   0  0  0  0  0  3  0  0  0  0  0  0
  -22.8280  -10.2010   20.1970 C   0  0  0  0  0  3  0  0  0  0  0  0
  -21.7920   -6.9110   21.4380 O   0  0  0  0  0  0  0  0  0  0  0  0
  -21.7190   -6.2020   22.6090 C   0  0  0  0  0  0  0  0  0  0  0  0
  -21.2310   -6.7790   23.8010 C   0  0  0  0  0  3  0  0  0  0  0  0
  -21.1070   -5.9930   24.9650 C   0  0  0  0  0  3  0  0  0  0  0  0
  -21.4630   -4.6320   24.9370 C   0  0  0  0  0  0  0  0  0  0  0  0
  -21.9440   -4.0540   23.7490 C   0  0  0  0  0  3  0  0  0  0  0  0
  -22.0690   -4.8370   22.5870 C   0  0  0  0  0  0  0  0  0  0  0  0
  -22.5140   -4.2690   21.4400 F   0  0  0  0  0  0  0  0  0  0  0  0
  -21.3370   -3.8740   26.0520 F   0  0  0  0  0  0  0  0  0  0  0  0
  -22.8560  -13.5600   21.1710 C   0  0  0  0  0  0  0  0  0  0  0  0
  -22.1690  -12.8480   22.0570 N   0  0  0  0  0  0  0  0  0  0  0  0
  -22.3960  -14.5950   20.6890 O   0  0  0  0  0  0  0  0  0  0  0  0
  -22.5550  -12.0100   22.4680 H   0  0  0  0  0  0  0  0  0  0  0  0
  -21.2430  -13.1460   22.3300 H   0  0  0  0  0  0  0  0  0  0  0  0
  -25.4390  -15.2380   20.2390 N   0  0  0  0  0  0  0  0  0  0  0  0
  -24.6590  -15.8750   20.3570 H   0  0  0  0  0  0  0  0  0  0  0  0
  -26.2180  -15.6550   19.7460 H   0  0  0  0  0  0  0  0  0  0  0  0
  -28.3180  -23.9370   19.6270 C   0  0  0  0  0  2  0  0  0  0  0  0
  -28.4560  -25.1650   20.6370 C   0  0  0  0  0  2  0  0  0  0  0  0
  -28.4420  -26.5610   20.1350 O   0  0  0  0  0  0  0  0  0  0  0  0
  -24.6750  -31.8900   23.2510 C   0  0  0  0  0  0  0  0  0  0  0  0
  -27.2850  -27.3480   20.1820 C   0  0  0  0  0  0  0  0  0  0  0  0
  -23.4650  -30.5000   21.6030 C   0  0  0  0  0  3  0  0  0  0  0  0
  -24.9110  -28.9430   20.1790 C   0  0  0  0  0  0  0  0  0  0  0  0
  -26.0020  -30.8200   21.4160 C   0  0  0  0  0  2  0  0  0  0  0  0
  -26.0800  -29.4400   20.7690 C   0  0  0  0  0  0  0  0  0  0  0  0
  -27.2680  -28.6560   20.7550 C   0  0  0  0  0  3  0  0  0  0  0  0
  -26.0950  -26.8870   19.5840 C   0  0  0  0  0  3  0  0  0  0  0  0
  -24.9200  -27.6700   19.5800 C   0  0  0  0  0  3  0  0  0  0  0  0
  -23.6780  -29.8220   20.2230 C   0  0  0  0  0  2  0  0  0  0  0  0
  -24.7340  -31.0870   22.1470 N   0  0  0  0  0  0  0  0  0  0  0  0
  -23.5930  -32.1680   23.7890 O   0  0  0  0  0  0  0  0  0  0  0  0
  -22.8020  -29.4840   22.5610 C   0  0  0  0  0  0  0  0  0  0  0  0
  -21.4760  -29.3100   22.4330 N   0  0  0  0  0  0  0  0  0  0  0  0
  -23.4790  -28.8540   23.3780 O   0  0  0  0  0  0  0  0  0  0  0  0
  -20.9890  -29.8680   21.7460 H   0  0  0  0  0  0  0  0  0  0  0  0
  -18.0960  -28.1230   22.9210 C   0  0  0  0  0  0  0  0  0  0  0  0
  -20.6530  -28.3720   23.1990 C   0  0  0  0  0  3  0  0  0  0  0  0
  -20.7530  -26.9420   22.6180 C   0  0  0  0  0  2  0  0  0  0  0  0
  -19.6530  -26.6270   21.6010 C   0  0  0  0  0  2  0  0  0  0  0  0
  -18.2690  -26.7750   22.2420 C   0  0  0  0  0  2  0  0  0  0  0  0
  -19.2140  -28.8790   23.3570 C   0  0  0  0  0  0  0  0  0  0  0  0
  -18.9980  -30.1400   23.9520 C   0  0  0  0  0  3  0  0  0  0  0  0
  -17.6960  -30.6450   24.1180 C   0  0  0  0  0  3  0  0  0  0  0  0
  -16.5900  -29.8840   23.7010 C   0  0  0  0  0  3  0  0  0  0  0  0
  -16.7900  -28.6260   23.1060 C   0  0  0  0  0  3  0  0  0  0  0  0
  -25.9610  -32.5150   23.8730 C   0  0  0  0  0  3  0  0  0  0  0  0
  -26.4810  -31.7310   25.1420 C   0  0  1  0  0  0  0  0  0  0  0  0
  -25.3900  -31.4860   26.2110 C   0  0  0  0  0  1  0  0  0  0  0  0
  -27.0600  -30.3560   24.7350 C   0  0  0  0  0  1  0  0  0  0  0  0
  -27.6320  -32.5190   25.8100 C   0  0  0  0  0  1  0  0  0  0  0  0
  -25.6560  -33.9110   24.2190 N   0  0  0  0  0  0  0  0  0  0  0  0
  -25.9860  -34.9690   23.4680 C   0  0  0  0  0  0  0  0  0  0  0  0
  -26.6490  -34.8750   22.4320 O   0  0  0  0  0  0  0  0  0  0  0  0
  -25.0710  -34.0580   25.0260 H   0  0  0  0  0  0  0  0  0  0  0  0
  -24.2650  -36.7710   23.1340 C   0  0  0  0  0  1  0  0  0  0  0  0
  -25.5040  -36.3550   23.9420 C   0  0  0  0  0  3  0  0  0  0  0  0
  -27.6370  -37.2260   24.7870 C   0  0  0  0  0  1  0  0  0  0  0  0
  -26.5400  -37.4060   23.8410 N   0  0  0  0  0  0  0  0  0  0  0  0
  -26.1370  -38.3250   23.9940 H   0  0  0  0  0  0  0  0  0  0  0  0
  1  3  1  0
  1  4  1  0
  2  1  1  0
  6  9  2  0
  7  5  2  0
  8  6  1  0
  8 10  2  0
  9  5  1  0
  9  4  1  0
 10  7  1  0
 10 19  1  0
 11 19  1  0
 12 17  1  0
 13 14  1  0
 13 12  1  0
 15 14  1  0
 15 24  1  0
 15 16  1  0
 17 11  1  0
 17 16  1  0
 18 11  2  0
 19 20  1  0
 21 22  2  0
 22 41  1  0
 23 22  1  0
 23 26  1  0
 24 25  1  0
 24 21  1  0
 25 23  2  0
 26 27  1  0
 27 28  2  0
 29 32  1  0
 29 28  1  0
 30 29  2  0
 31 30  1  0
 31 26  2  0
 32 33  1  0
 33 34  1  0
 34 35  2  0
 36 35  1  0
 36 40  1  0
 37 36  2  0
 38 33  2  0
 38 37  1  0
 39 38  1  0
 41 42  1  0
 42 45  1  0
 42 44  1  0
 43 41  2  0
 46 47  1  0
 46 21  1  0
 48 46  1  0
 49  1  1  0
 49 50  1  0
 51 53  1  0
 51 50  1  0
 52 63  2  0
 53 58  1  0
 54 62  1  0
 54 64  1  0
 55 61  1  0
 55 57  1  0
 56 62  1  0
 57 56  1  0
 58 57  2  0
 59 53  2  0
 60 59  1  0
 60 55  2  0
 61 54  1  0
 62 52  1  0
 64 66  2  0
 65 64  1  0
 67 65  1  0
 68 77  2  0
 68 73  1  0
 69 65  1  0
 69 73  1  0
 70 69  1  0
 71 72  1  0
 71 70  1  0
 72 68  1  0
 73 74  2  0
 74 75  1  0
 76 75  2  0
 77 76  1  0
 78 52  1  0
 78 83  1  0
 78 79  1  0
 79 82  1  1
 79 80  1  0
 81 79  1  0
 83 86  1  0
 84 88  1  0
 84 83  1  0
 85 84  2  0
 88 87  1  0
 90 88  1  0
 90 91  1  0
 90 89  1  0
M  ISO  4  11 100  19 100  50 101  51 101
M  END
>  <TORSDO>  (4) 
F 20

>  <SCORE>  (4) 
-13.810

>  <name>  (4) 
3

>  <ligand_id>  (4) 
3

>  <original_smiles>  (4) 
[H]c1c([H])c([H])c2c(c1[H])C([H])([H])C([H])([H])C([H])([H])C2([H])N([H])C(=O)C1([H])N(C(=O)C([H])(N([H])C(=O)C([H])(N([H])C([H])([H])[H])C([H])([H])[H])C(C([H])([H])[H])(C([H])([H])[H])C([H])([H])[H])C([H])([H])c2c([H])c(OC([H])([H])C([H])([H])[N+]([H])([H])C([H])([H])c3c([H])c([H])c(N([H])C(=O)N4C([H])([H])C([H])([H])C([H])([H])C([H])(n5nc(-c6c([H])c([H])c(Oc7c([H])c([H])c(F)c([H])c7F)c([H])c6[H])c(C(=O)N([H])[H])c5N([H])[H])C4([H])[H])c([H])c3[H])c([H])c([H])c2C1([H])[H]

>  <smiles>  (4) 
[H]c1c([H])c([H])c2c(c1[H])C([H])([H])C([H])([H])C([H])([H])C2([H])N([H])C(=O)C1([H])N(C(=O)C([H])(N([H])C(=O)C([H])(N([H])C([H])([H])[H])C([H])([H])[H])C(C([H])([H])[H])(C([H])([H])[H])C([H])([H])[H])C([H])([H])c2c([H])c(OC([H])([H])C([H])([H])[N+]([H])([H])C([H])([H])c3c([H])c([H])c(N([H])C(=O)N4C([H])([H])C([H])([H])C([H])([H])C([H])(n5nc(-c6c([H])c([H])c(Oc7c([H])c([H])c(F)c([H])c7F)c([H])c6[H])c(C(=O)N([H])[H])c5N([H])[H])C4([H])[H])c([H])c3[H])c([H])c([H])c2C1([H])[H]

$$$$
4:0:0
     RDKit          3D

 94101  0  0  1  0  0  0  0  0999 V2000
  -28.6790  -21.7660   19.9070 C   0  0  0  0  0  3  0  0  0  0  0  0
  -29.4090  -19.1010   20.0530 C   0  0  0  0  0  0  0  0  0  0  0  0
  -29.4320  -20.4710   20.4630 N   0  0  0  0  0  0  0  0  0  0  0  0
  -28.7500  -18.7990   19.0600 O   0  0  0  0  0  0  0  0  0  0  0  0
  -30.0510  -20.6520   21.2440 H   0  0  0  0  0  0  0  0  0  0  0  0
  -31.7000  -18.0910   20.5800 C   0  0  0  0  0  1  0  0  0  0  0  0
  -30.1950  -17.8310   20.7720 C   0  0  0  0  0  3  0  0  0  0  0  0
  -30.5920  -15.0880   20.3010 C   0  0  0  0  0  0  0  0  0  0  0  0
  -30.4240  -12.7610   19.2990 C   0  0  0  0  0  2  0  0  0  0  0  0
  -29.4790  -12.7210   18.0780 C   0  0  0  0  0  2  0  0  0  0  0  0
  -28.0230  -12.4900   18.5200 C   0  0  0  0  0  2  0  0  0  0  0  0
  -27.6190  -13.3990   19.7090 C   0  0  0  0  0  3  0  0  0  0  0  0
  -28.6890  -13.4360   20.8230 C   0  0  0  0  0  2  0  0  0  0  0  0
  -29.9530  -13.8510   20.2020 N   0  0  0  0  0  0  0  0  0  0  0  0
  -31.8000  -15.1040   20.0510 O   0  0  0  0  0  0  0  0  0  0  0  0
  -29.8600  -16.2980   20.4880 N   0  0  0  0  0  0  0  0  0  0  0  0
  -28.8660  -16.1330   20.5260 H   0  0  0  0  0  0  0  0  0  0  0  0
  -25.2370  -13.9390   20.4780 C   0  0  0  0  0  0  0  0  0  0  0  0
  -24.1890  -13.1450   20.8470 C   0  0  0  0  0  0  0  0  0  0  0  0
  -24.6730  -11.8020   20.8090 C   0  0  0  0  0  0  0  0  0  0  0  0
  -26.2920  -13.0770   20.2230 N   0  0  0  0  0  0  0  0  0  0  0  0
  -25.9620  -11.7860   20.4890 N   0  0  0  0  0  0  0  0  0  0  0  0
  -23.9640  -10.5280   20.9980 C   0  0  0  0  0  0  0  0  0  0  0  0
  -24.3980   -9.5730   21.9460 C   0  0  0  0  0  3  0  0  0  0  0  0
  -23.6850   -8.3680   22.1260 C   0  0  0  0  0  3  0  0  0  0  0  0
  -22.5230   -8.1100   21.3590 C   0  0  0  0  0  0  0  0  0  0  0  0
  -22.1090   -9.0520   20.4010 C   0  0  0  0  0  3  0  0  0  0  0  0
  -22.8220  -10.2490   20.2200 C   0  0  0  0  0  3  0  0  0  0  0  0
  -21.7850   -6.9550   21.4450 O   0  0  0  0  0  0  0  0  0  0  0  0
  -21.7160   -6.2290   22.6080 C   0  0  0  0  0  0  0  0  0  0  0  0
  -21.2320   -6.7910   23.8090 C   0  0  0  0  0  3  0  0  0  0  0  0
  -21.1150   -5.9930   24.9640 C   0  0  0  0  0  3  0  0  0  0  0  0
  -21.4710   -4.6320   24.9160 C   0  0  0  0  0  0  0  0  0  0  0  0
  -21.9460   -4.0670   23.7200 C   0  0  0  0  0  3  0  0  0  0  0  0
  -22.0650   -4.8640   22.5670 C   0  0  0  0  0  0  0  0  0  0  0  0
  -22.5050   -4.3120   21.4110 F   0  0  0  0  0  0  0  0  0  0  0  0
  -21.3490   -3.8610   26.0220 F   0  0  0  0  0  0  0  0  0  0  0  0
  -22.7840  -13.6000   21.1200 C   0  0  0  0  0  0  0  0  0  0  0  0
  -22.0710  -12.8880   21.9840 N   0  0  0  0  0  0  0  0  0  0  0  0
  -22.3300  -14.6200   20.6020 O   0  0  0  0  0  0  0  0  0  0  0  0
  -22.4550  -12.0580   22.4120 H   0  0  0  0  0  0  0  0  0  0  0  0
  -21.1280  -13.1700   22.2170 H   0  0  0  0  0  0  0  0  0  0  0  0
  -25.3830  -15.3150   20.3150 N   0  0  0  0  0  0  0  0  0  0  0  0
  -24.6180  -15.9600   20.4750 H   0  0  0  0  0  0  0  0  0  0  0  0
  -26.2190  -15.7760   19.9790 H   0  0  0  0  0  0  0  0  0  0  0  0
  -27.1480  -21.4650   19.8880 C   0  0  0  0  0  2  0  0  0  0  0  0
  -26.3820  -21.9070   18.6280 C   0  0  0  0  0  0  0  0  0  0  0  0
  -25.0760  -22.1110   18.7450 N   0  0  0  0  0  0  0  0  0  0  0  0
  -26.9400  -22.0380   17.5400 O   0  0  0  0  0  0  0  0  0  0  0  0
  -24.6120  -22.0100   19.6370 H   0  0  0  0  0  0  0  0  0  0  0  0
  -24.5170  -22.3240   17.9300 H   0  0  0  0  0  0  0  0  0  0  0  0
  -28.9060  -23.3610   20.4640 C   0  0  0  0  0  3  0  0  0  0  0  0
  -28.0220  -24.7330   19.9810 C   0  0  0  0  0  3  0  0  0  0  0  0
  -28.2700  -26.2480   20.2810 O   0  0  0  0  0  0  0  0  0  0  0  0
  -24.6010  -31.9130   23.2460 C   0  0  0  0  0  0  0  0  0  0  0  0
  -27.2160  -27.2360   20.1960 C   0  0  0  0  0  0  0  0  0  0  0  0
  -23.4160  -30.5260   21.5930 C   0  0  0  0  0  3  0  0  0  0  0  0
  -24.8770  -28.9730   20.1590 C   0  0  0  0  0  0  0  0  0  0  0  0
  -25.9680  -30.8080   21.4360 C   0  0  0  0  0  2  0  0  0  0  0  0
  -26.0520  -29.4200   20.7780 C   0  0  0  0  0  0  0  0  0  0  0  0
  -27.2210  -28.5680   20.7840 C   0  0  0  0  0  3  0  0  0  0  0  0
  -26.0180  -26.8970   19.5320 C   0  0  0  0  0  3  0  0  0  0  0  0
  -24.8710  -27.7220   19.5250 C   0  0  0  0  0  3  0  0  0  0  0  0
  -23.6460  -29.8680   20.2070 C   0  0  0  0  0  2  0  0  0  0  0  0
  -24.6800  -31.1020   22.1460 N   0  0  0  0  0  0  0  0  0  0  0  0
  -23.5120  -32.1890   23.7710 O   0  0  0  0  0  0  0  0  0  0  0  0
  -22.7450  -29.5030   22.5450 C   0  0  0  0  0  0  0  0  0  0  0  0
  -21.4180  -29.3250   22.4140 N   0  0  0  0  0  0  0  0  0  0  0  0
  -23.4180  -28.8760   23.3660 O   0  0  0  0  0  0  0  0  0  0  0  0
  -20.9300  -29.8740   21.7190 H   0  0  0  0  0  0  0  0  0  0  0  0
  -18.0370  -28.1300   22.9270 C   0  0  0  0  0  0  0  0  0  0  0  0
  -20.6000  -28.3820   23.1800 C   0  0  0  0  0  3  0  0  0  0  0  0
  -20.6920  -26.9590   22.5850 C   0  0  0  0  0  2  0  0  0  0  0  0
  -19.5820  -26.6590   21.5730 C   0  0  0  0  0  2  0  0  0  0  0  0
  -18.2090  -26.7850   22.2430 C   0  0  0  0  0  2  0  0  0  0  0  0
  -19.1600  -28.8840   23.3590 C   0  0  0  0  0  0  0  0  0  0  0  0
  -18.9480  -30.1380   23.9700 C   0  0  0  0  0  3  0  0  0  0  0  0
  -17.6460  -30.6380   24.1600 C   0  0  0  0  0  3  0  0  0  0  0  0
  -16.5380  -29.8840   23.7410 C   0  0  0  0  0  3  0  0  0  0  0  0
  -16.7330  -28.6330   23.1230 C   0  0  0  0  0  3  0  0  0  0  0  0
  -25.8740  -32.5550   23.8800 C   0  0  0  0  0  3  0  0  0  0  0  0
  -25.5650  -33.9620   24.1860 N   0  0  0  0  0  0  0  0  0  0  0  0
  -25.9180  -35.0050   23.4230 C   0  0  0  0  0  0  0  0  0  0  0  0
  -26.6070  -34.8880   22.4060 O   0  0  0  0  0  0  0  0  0  0  0  0
  -24.9560  -34.1290   24.9730 H   0  0  0  0  0  0  0  0  0  0  0  0
  -24.2150  -36.8160   23.0190 C   0  0  0  0  0  1  0  0  0  0  0  0
  -25.4350  -36.4030   23.8590 C   0  0  0  0  0  3  0  0  0  0  0  0
  -27.5520  -37.2790   24.7410 C   0  0  0  0  0  1  0  0  0  0  0  0
  -26.4790  -37.4450   23.7640 N   0  0  0  0  0  0  0  0  0  0  0  0
  -26.0770  -38.3690   23.8910 H   0  0  0  0  0  0  0  0  0  0  0  0
  -26.3640  -31.8020   25.1780 C   0  0  1  0  0  0  0  0  0  0  0  0
  -25.2500  -31.5880   26.2280 C   0  0  0  0  0  1  0  0  0  0  0  0
  -26.9460  -30.4140   24.8220 C   0  0  0  0  0  1  0  0  0  0  0  0
  -27.5050  -32.6030   25.8480 C   0  0  0  0  0  1  0  0  0  0  0  0
  1 46  1  0
  1  3  1  0
  1 52  1  0
  2  3  1  0
  2  7  1  0
  3  5  1  0
  4  2  2  0
  7  6  1  0
  8 16  1  0
  9 14  1  0
 10 11  1  0
 10  9  1  0
 12 11  1  0
 12 21  1  0
 12 13  1  0
 14  8  1  0
 14 13  1  0
 15  8  2  0
 16 17  1  0
 16  7  1  0
 18 19  2  0
 19 38  1  0
 20 19  1  0
 20 23  1  0
 21 18  1  0
 21 22  1  0
 22 20  2  0
 23 24  1  0
 24 25  2  0
 26 29  1  0
 26 25  1  0
 27 26  2  0
 28 27  1  0
 28 23  2  0
 29 30  1  0
 30 31  1  0
 31 32  2  0
 33 32  1  0
 33 37  1  0
 34 33  2  0
 35 30  2  0
 35 34  1  0
 36 35  1  0
 38 39  1  0
 39 42  1  0
 39 41  1  0
 40 38  2  0
 43 44  1  0
 43 18  1  0
 45 43  1  0
 47 48  1  0
 47 46  1  0
 48 50  1  0
 49 47  2  0
 51 48  1  0
 53 54  1  0
 53 52  2  0
 55 66  2  0
 56 54  1  0
 56 61  1  0
 57 65  1  0
 57 67  1  0
 58 64  1  0
 58 60  1  0
 59 65  1  0
 60 61  2  0
 60 59  1  0
 62 56  2  0
 63 62  1  0
 63 58  2  0
 64 57  1  0
 65 55  1  0
 67 69  2  0
 68 67  1  0
 70 68  1  0
 71 80  2  0
 71 76  1  0
 72 68  1  0
 72 76  1  0
 73 72  1  0
 74 75  1  0
 74 73  1  0
 75 71  1  0
 76 77  2  0
 77 78  1  0
 79 78  2  0
 80 79  1  0
 81 55  1  0
 81 82  1  0
 81 91  1  0
 82 85  1  0
 83 87  1  0
 83 82  1  0
 84 83  2  0
 87 86  1  0
 89 87  1  0
 89 90  1  0
 89 88  1  0
 91 94  1  1
 91 92  1  0
 93 91  1  0
M  ISO  4   8 100  16 100  53 101  54 101
M  END
>  <TORSDO>  (5) 
F 22

>  <SCORE>  (5) 
-14.255

>  <name>  (5) 
4

>  <ligand_id>  (5) 
4

>  <original_smiles>  (5) 
[H]c1c([H])c([H])c2c(c1[H])C([H])([H])C([H])([H])C([H])([H])C2([H])N([H])C(=O)C1([H])N(C(=O)C([H])(N([H])C(=O)C([H])(N([H])C([H])([H])[H])C([H])([H])[H])C(C([H])([H])[H])(C([H])([H])[H])C([H])([H])[H])C([H])([H])c2c([H])c(OC([H])([H])C([H])([H])C([H])(N([H])C(=O)C([H])(N([H])C(=O)N3C([H])([H])C([H])([H])C([H])([H])C([H])(n4nc(-c5c([H])c([H])c(Oc6c([H])c([H])c(F)c([H])c6F)c([H])c5[H])c(C(=O)N([H])[H])c4N([H])[H])C3([H])[H])C([H])([H])[H])C([H])([H])C(=O)N([H])[H])c([H])c([H])c2C1([H])[H]

>  <smiles>  (5) 
[H]c1c([H])c([H])c2c(c1[H])C([H])([H])C([H])([H])C([H])([H])C2([H])N([H])C(=O)C1([H])N(C(=O)C([H])(N([H])C(=O)C([H])(N([H])C([H])([H])[H])C([H])([H])[H])C(C([H])([H])[H])(C([H])([H])[H])C([H])([H])[H])C([H])([H])c2c([H])c(OC([H])([H])C([H])([H])C([H])(N([H])C(=O)C([H])(N([H])C(=O)N3C([H])([H])C([H])([H])C([H])([H])C([H])(n4nc(-c5c([H])c([H])c(Oc6c([H])c([H])c(F)c([H])c6F)c([H])c5[H])c(C(=O)N([H])[H])c4N([H])[H])C3([H])[H])C([H])([H])[H])C([H])([H])C(=O)N([H])[H])c([H])c([H])c2C1([H])[H]

$$$$
5:0:0
     RDKit          3D

 92100  0  0  1  0  0  0  0  0999 V2000
  -31.5480  -19.4500   18.9490 C   0  0  0  0  0  2  0  0  0  0  0  0
  -30.8750  -20.6590   19.6730 C   0  0  0  0  0  2  0  0  0  0  0  0
  -30.8150  -18.0760   18.9950 C   0  0  0  0  0  2  0  0  0  0  0  0
  -29.1280  -18.9760   20.5770 C   0  0  0  0  0  2  0  0  0  0  0  0
  -29.3610  -20.5020   19.8980 C   0  0  0  0  0  3  0  0  0  0  0  0
  -30.2150  -17.7080   20.3730 C   0  0  1  0  0  0  0  0  0  0  0  0
  -30.5070  -14.9510   20.2320 C   0  0  0  0  0  0  0  0  0  0  0  0
  -30.3130  -12.6160   19.2760 C   0  0  0  0  0  2  0  0  0  0  0  0
  -29.3660  -12.5970   18.0550 C   0  0  0  0  0  2  0  0  0  0  0  0
  -27.9120  -12.3860   18.5140 C   0  0  0  0  0  2  0  0  0  0  0  0
  -27.5260  -13.3100   19.6980 C   0  0  0  0  0  3  0  0  0  0  0  0
  -28.5990  -13.3210   20.8080 C   0  0  0  0  0  2  0  0  0  0  0  0
  -29.8650  -13.7150   20.1770 N   0  0  0  0  0  0  0  0  0  0  0  0
  -31.7110  -14.9580   19.9570 O   0  0  0  0  0  0  0  0  0  0  0  0
  -29.7860  -16.1740   20.3850 N   0  0  0  0  0  0  0  0  0  0  0  0
  -28.8010  -16.0260   20.5510 H   0  0  0  0  0  0  0  0  0  0  0  0
  -25.1540  -13.8860   20.4610 C   0  0  0  0  0  0  0  0  0  0  0  0
  -24.0930  -13.1090   20.8420 C   0  0  0  0  0  0  0  0  0  0  0  0
  -24.5610  -11.7610   20.8120 C   0  0  0  0  0  0  0  0  0  0  0  0
  -26.1950  -13.0100   20.2160 N   0  0  0  0  0  0  0  0  0  0  0  0
  -25.8500  -11.7250   20.4940 N   0  0  0  0  0  0  0  0  0  0  0  0
  -23.8390  -10.4960   21.0100 C   0  0  0  0  0  0  0  0  0  0  0  0
  -24.2800   -9.5310   21.9420 C   0  0  0  0  0  3  0  0  0  0  0  0
  -23.5560   -8.3340   22.1280 C   0  0  0  0  0  3  0  0  0  0  0  0
  -22.3780   -8.0930   21.3820 C   0  0  0  0  0  0  0  0  0  0  0  0
  -21.9570   -9.0460   20.4390 C   0  0  0  0  0  3  0  0  0  0  0  0
  -22.6820  -10.2350   20.2510 C   0  0  0  0  0  3  0  0  0  0  0  0
  -21.6250   -6.9470   21.4780 O   0  0  0  0  0  0  0  0  0  0  0  0
  -21.5880   -6.2040   22.6310 C   0  0  0  0  0  0  0  0  0  0  0  0
  -21.1800   -6.7590   23.8630 C   0  0  0  0  0  3  0  0  0  0  0  0
  -21.0920   -5.9420   25.0080 C   0  0  0  0  0  3  0  0  0  0  0  0
  -21.3990   -4.5710   24.9220 C   0  0  0  0  0  0  0  0  0  0  0  0
  -21.8010   -4.0160   23.6940 C   0  0  0  0  0  3  0  0  0  0  0  0
  -21.8920   -4.8300   22.5520 C   0  0  0  0  0  0  0  0  0  0  0  0
  -22.2580   -4.2840   21.3670 F   0  0  0  0  0  0  0  0  0  0  0  0
  -21.3070   -3.7850   26.0190 F   0  0  0  0  0  0  0  0  0  0  0  0
  -22.6960  -13.5840   21.1170 C   0  0  0  0  0  0  0  0  0  0  0  0
  -21.9740  -12.8880   21.9880 N   0  0  0  0  0  0  0  0  0  0  0  0
  -22.2540  -14.6070   20.5950 O   0  0  0  0  0  0  0  0  0  0  0  0
  -22.3460  -12.0600   22.4300 H   0  0  0  0  0  0  0  0  0  0  0  0
  -21.0360  -13.1870   22.2160 H   0  0  0  0  0  0  0  0  0  0  0  0
  -25.3110  -15.2560   20.2760 N   0  0  0  0  0  0  0  0  0  0  0  0
  -24.5370  -15.9030   20.3800 H   0  0  0  0  0  0  0  0  0  0  0  0
  -26.1450  -15.6940   19.9090 H   0  0  0  0  0  0  0  0  0  0  0  0
  -28.6780  -21.8170   20.4850 N   0  0  0  0  0  4  0  0  0  0  0  0
  -28.8830  -21.8280   21.4720 H   0  0  0  0  0  0  0  0  0  0  0  0
  -27.6870  -21.6420   20.4150 H   0  0  0  0  0  0  0  0  0  0  0  0
  -28.9020  -23.3040   19.9470 C   0  0  0  0  0  3  0  0  0  0  0  0
  -28.0430  -24.6490   20.5160 C   0  0  0  0  0  3  0  0  0  0  0  0
  -28.2790  -26.1720   20.2200 O   0  0  0  0  0  0  0  0  0  0  0  0
  -24.6350  -31.8700   23.2240 C   0  0  0  0  0  0  0  0  0  0  0  0
  -27.2130  -27.1440   20.2070 C   0  0  0  0  0  0  0  0  0  0  0  0
  -23.4380  -30.4710   21.5880 C   0  0  0  0  0  3  0  0  0  0  0  0
  -24.8860  -28.8900   20.1720 C   0  0  0  0  0  0  0  0  0  0  0  0
  -25.9910  -30.7360   21.4220 C   0  0  0  0  0  2  0  0  0  0  0  0
  -26.0670  -29.3400   20.7780 C   0  0  0  0  0  0  0  0  0  0  0  0
  -27.2330  -28.4840   20.7740 C   0  0  0  0  0  3  0  0  0  0  0  0
  -26.0060  -26.7970   19.5650 C   0  0  0  0  0  3  0  0  0  0  0  0
  -24.8680  -27.6320   19.5510 C   0  0  0  0  0  3  0  0  0  0  0  0
  -23.6610  -29.7900   20.2130 C   0  0  0  0  0  2  0  0  0  0  0  0
  -24.7090  -31.0490   22.1340 N   0  0  0  0  0  0  0  0  0  0  0  0
  -23.5490  -32.1550   23.7520 O   0  0  0  0  0  0  0  0  0  0  0  0
  -22.7590  -29.4660   22.5540 C   0  0  0  0  0  0  0  0  0  0  0  0
  -21.4310  -29.2940   22.4290 N   0  0  0  0  0  0  0  0  0  0  0  0
  -23.4320  -28.8410   23.3790 O   0  0  0  0  0  0  0  0  0  0  0  0
  -20.9440  -29.8530   21.7420 H   0  0  0  0  0  0  0  0  0  0  0  0
  -18.0500  -28.0890   22.9330 C   0  0  0  0  0  0  0  0  0  0  0  0
  -20.6090  -28.3580   23.2030 C   0  0  0  0  0  3  0  0  0  0  0  0
  -20.7150  -26.9230   22.6350 C   0  0  0  0  0  2  0  0  0  0  0  0
  -19.6150  -26.5950   21.6200 C   0  0  0  0  0  2  0  0  0  0  0  0
  -18.2310  -26.7380   22.2620 C   0  0  0  0  0  2  0  0  0  0  0  0
  -19.1680  -28.8550   23.3600 C   0  0  0  0  0  0  0  0  0  0  0  0
  -18.9440  -30.1180   23.9500 C   0  0  0  0  0  3  0  0  0  0  0  0
  -17.6370  -30.6150   24.1170 C   0  0  0  0  0  3  0  0  0  0  0  0
  -16.5360  -29.8450   23.7050 C   0  0  0  0  0  3  0  0  0  0  0  0
  -16.7430  -28.5840   23.1180 C   0  0  0  0  0  3  0  0  0  0  0  0
  -25.9110  -32.5100   23.8510 C   0  0  0  0  0  3  0  0  0  0  0  0
  -26.4230  -31.7450   25.1340 C   0  0  1  0  0  0  0  0  0  0  0  0
  -25.3270  -31.5180   26.2020 C   0  0  0  0  0  1  0  0  0  0  0  0
  -27.0040  -30.3630   24.7540 C   0  0  0  0  0  1  0  0  0  0  0  0
  -27.5760  -32.5390   25.7920 C   0  0  0  0  0  1  0  0  0  0  0  0
  -25.5960  -33.9090   24.1840 N   0  0  0  0  0  0  0  0  0  0  0  0
  -25.9200  -34.9680   23.4290 C   0  0  0  0  0  0  0  0  0  0  0  0
  -26.5830  -34.8690   22.3920 O   0  0  0  0  0  0  0  0  0  0  0  0
  -25.0110  -34.0590   24.9920 H   0  0  0  0  0  0  0  0  0  0  0  0
  -24.1820  -36.7590   23.0990 C   0  0  0  0  0  1  0  0  0  0  0  0
  -25.4330  -36.3550   23.8950 C   0  0  0  0  0  3  0  0  0  0  0  0
  -27.5760  -37.2410   24.7010 C   0  0  0  0  0  1  0  0  0  0  0  0
  -26.4590  -37.4140   23.7760 N   0  0  0  0  0  0  0  0  0  0  0  0
  -26.0510  -38.3300   23.9410 H   0  0  0  0  0  0  0  0  0  0  0  0
  -30.8940  -17.4030   22.8880 C   0  0  0  0  0  1  0  0  0  0  0  0
  -31.3160  -17.8350   21.4720 C   0  0  0  0  0  2  0  0  0  0  0  0
  1  3  1  0
  1  2  1  0
  2  5  1  0
  3  6  1  0
  5 45  1  0
  5  4  1  0
  6 15  1  0
  6  4  1  0
  6 92  1  1
  7 15  1  0
  8 13  1  0
  9 10  1  0
  9  8  1  0
 11 10  1  0
 11 20  1  0
 11 12  1  0
 13  7  1  0
 13 12  1  0
 14  7  2  0
 15 16  1  0
 17 18  2  0
 18 37  1  0
 19 18  1  0
 19 22  1  0
 20 17  1  0
 20 21  1  0
 21 19  2  0
 22 23  1  0
 23 24  2  0
 25 28  1  0
 25 24  1  0
 26 25  2  0
 27 26  1  0
 27 22  2  0
 28 29  1  0
 29 30  1  0
 30 31  2  0
 32 31  1  0
 32 36  1  0
 33 32  2  0
 34 29  2  0
 34 33  1  0
 35 34  1  0
 37 38  1  0
 38 41  1  0
 38 40  1  0
 39 37  2  0
 42 43  1  0
 42 17  1  0
 44 42  1  0
 45 46  1  0
 47 45  1  0
 48 45  1  0
 48 49  2  0
 50 49  1  0
 51 62  2  0
 52 50  1  0
 52 57  1  0
 53 61  1  0
 53 63  1  0
 54 60  1  0
 54 56  1  0
 55 61  1  0
 56 55  1  0
 57 56  2  0
 58 52  2  0
 59 58  1  0
 59 54  2  0
 60 53  1  0
 61 51  1  0
 63 65  2  0
 64 63  1  0
 66 64  1  0
 67 76  2  0
 67 72  1  0
 68 64  1  0
 68 72  1  0
 69 68  1  0
 70 71  1  0
 70 69  1  0
 71 67  1  0
 72 73  2  0
 73 74  1  0
 75 74  2  0
 76 75  1  0
 77 51  1  0
 77 82  1  0
 77 78  1  0
 78 81  1  1
 78 79  1  0
 80 78  1  0
 82 85  1  0
 83 87  1  0
 83 82  1  0
 84 83  2  0
 87 86  1  0
 89 87  1  0
 89 90  1  0
 89 88  1  0
 92 91  1  0
M  ISO  4   7 100  15 100  49 101  50 101
M  END
>  <TORSDO>  (6) 
F 20

>  <SCORE>  (6) 
-14.460

>  <name>  (6) 
5

>  <ligand_id>  (6) 
5

>  <original_smiles>  (6) 
[H]c1c([H])c([H])c2c(c1[H])C([H])([H])C([H])([H])C([H])([H])C2([H])N([H])C(=O)C1([H])N(C(=O)C([H])(N([H])C(=O)C([H])(N([H])C([H])([H])[H])C([H])([H])[H])C(C([H])([H])[H])(C([H])([H])[H])C([H])([H])[H])C([H])([H])c2c([H])c(OC([H])([H])C([H])([H])[N+]([H])([H])C3([H])C([H])([H])C([H])([H])C([H])([H])C(N([H])C(=O)N4C([H])([H])C([H])([H])C([H])([H])C([H])(n5nc(-c6c([H])c([H])c(Oc7c([H])c([H])c(F)c([H])c7F)c([H])c6[H])c(C(=O)N([H])[H])c5N([H])[H])C4([H])[H])(C([H])([H])C([H])([H])[H])C3([H])[H])c([H])c([H])c2C1([H])[H]

>  <smiles>  (6) 
[H]c1c([H])c([H])c2c(c1[H])C([H])([H])C([H])([H])C([H])([H])C2([H])N([H])C(=O)C1([H])N(C(=O)C([H])(N([H])C(=O)C([H])(N([H])C([H])([H])[H])C([H])([H])[H])C(C([H])([H])[H])(C([H])([H])[H])C([H])([H])[H])C([H])([H])c2c([H])c(OC([H])([H])C([H])([H])[N+]([H])([H])C3([H])C([H])([H])C([H])([H])C([H])([H])C(N([H])C(=O)N4C([H])([H])C([H])([H])C([H])([H])C([H])(n5nc(-c6c([H])c([H])c(Oc7c([H])c([H])c(F)c([H])c7F)c([H])c6[H])c(C(=O)N([H])[H])c5N([H])[H])C4([H])[H])(C([H])([H])C([H])([H])[H])C3([H])[H])c([H])c([H])c2C1([H])[H]

$$$$
6:0:0
     RDKit          3D

 91 98  0  0  1  0  0  0  0  0999 V2000
  -29.9440  -21.0130   20.1780 N   0  0  0  0  0  4  0  0  0  0  0  0
  -30.6510  -21.1560   20.8820 H   0  0  0  0  0  0  0  0  0  0  0  0
  -29.1100  -20.7070   20.6530 H   0  0  0  0  0  0  0  0  0  0  0  0
  -31.5830  -20.3470   18.3640 C   0  0  0  0  0  1  0  0  0  0  0  0
  -30.4170  -19.8610   19.2590 C   0  0  0  0  0  3  0  0  0  0  0  0
  -30.8470  -18.3990   19.8650 C   0  0  0  0  0  2  0  0  0  0  0  0
  -29.8380  -17.1700   19.7430 C   0  0  0  0  0  3  0  0  0  0  0  0
  -30.9110  -14.6370   19.7690 C   0  0  0  0  0  0  0  0  0  0  0  0
  -30.6920  -12.2650   19.0070 C   0  0  0  0  0  2  0  0  0  0  0  0
  -29.7050  -12.2460   17.8170 C   0  0  0  0  0  2  0  0  0  0  0  0
  -28.2430  -12.1470   18.3020 C   0  0  0  0  0  2  0  0  0  0  0  0
  -27.9300  -13.1450   19.4470 C   0  0  0  0  0  3  0  0  0  0  0  0
  -29.0280  -13.1110   20.5370 C   0  0  0  0  0  2  0  0  0  0  0  0
  -30.3200  -13.3980   19.8830 N   0  0  0  0  0  0  0  0  0  0  0  0
  -32.0170  -14.7650   19.2350 O   0  0  0  0  0  0  0  0  0  0  0  0
  -30.1240  -15.7100   20.1290 N   0  0  0  0  0  0  0  0  0  0  0  0
  -29.3430  -15.3500   20.6570 H   0  0  0  0  0  0  0  0  0  0  0  0
  -25.6140  -13.8730   20.2900 C   0  0  0  0  0  0  0  0  0  0  0  0
  -24.5280  -13.1660   20.7230 C   0  0  0  0  0  0  0  0  0  0  0  0
  -24.9000  -11.7880   20.6440 C   0  0  0  0  0  0  0  0  0  0  0  0
  -26.5940  -12.9350   19.9990 N   0  0  0  0  0  0  0  0  0  0  0  0
  -26.1670  -11.6730   20.2650 N   0  0  0  0  0  0  0  0  0  0  0  0
  -24.0990  -10.5760   20.8550 C   0  0  0  0  0  0  0  0  0  0  0  0
  -24.4900   -9.5840   21.7810 C   0  0  0  0  0  3  0  0  0  0  0  0
  -23.6950   -8.4350   21.9790 C   0  0  0  0  0  3  0  0  0  0  0  0
  -22.4920   -8.2710   21.2500 C   0  0  0  0  0  0  0  0  0  0  0  0
  -22.1180   -9.2500   20.3120 C   0  0  0  0  0  3  0  0  0  0  0  0
  -22.9150  -10.3900   20.1140 C   0  0  0  0  0  3  0  0  0  0  0  0
  -21.6690   -7.1780   21.3590 O   0  0  0  0  0  0  0  0  0  0  0  0
  -21.5660   -6.4660   22.5280 C   0  0  0  0  0  0  0  0  0  0  0  0
  -21.1630   -7.0740   23.7370 C   0  0  0  0  0  3  0  0  0  0  0  0
  -21.0050   -6.2920   24.8980 C   0  0  0  0  0  3  0  0  0  0  0  0
  -21.2390   -4.9040   24.8530 C   0  0  0  0  0  0  0  0  0  0  0  0
  -21.6370   -4.2970   23.6490 C   0  0  0  0  0  3  0  0  0  0  0  0
  -21.7980   -5.0760   22.4890 C   0  0  0  0  0  0  0  0  0  0  0  0
  -22.1610   -4.4820   21.3270 F   0  0  0  0  0  0  0  0  0  0  0  0
  -21.0800   -4.1540   25.9670 F   0  0  0  0  0  0  0  0  0  0  0  0
  -23.1860  -13.7300   21.0880 C   0  0  0  0  0  0  0  0  0  0  0  0
  -22.4720  -13.0770   21.9980 N   0  0  0  0  0  0  0  0  0  0  0  0
  -22.7820  -14.7870   20.6020 O   0  0  0  0  0  0  0  0  0  0  0  0
  -22.8120  -12.2210   22.4140 H   0  0  0  0  0  0  0  0  0  0  0  0
  -21.5740  -13.4400   22.2840 H   0  0  0  0  0  0  0  0  0  0  0  0
  -25.8310  -15.2310   20.0920 N   0  0  0  0  0  0  0  0  0  0  0  0
  -25.0770  -15.9020   20.1990 H   0  0  0  0  0  0  0  0  0  0  0  0
  -26.6570  -15.6270   19.6660 H   0  0  0  0  0  0  0  0  0  0  0  0
  -27.3250  -16.7670   20.2810 C   0  0  0  0  0  1  0  0  0  0  0  0
  -28.5720  -17.6180   20.5060 C   0  0  0  0  0  2  0  0  0  0  0  0
  -29.6530  -22.3920   19.5430 C   0  0  0  0  0  2  0  0  0  0  0  0
  -29.0890  -23.6510   20.4290 C   0  0  0  0  0  2  0  0  0  0  0  0
  -28.0610  -24.8640   20.0480 C   0  0  0  0  0  2  0  0  0  0  0  0
  -28.3180  -26.3200   20.3050 O   0  0  0  0  0  0  0  0  0  0  0  0
  -24.5700  -31.8340   23.1800 C   0  0  0  0  0  0  0  0  0  0  0  0
  -27.2220  -27.2130   20.2110 C   0  0  0  0  0  0  0  0  0  0  0  0
  -23.3890  -30.4220   21.5360 C   0  0  0  0  0  3  0  0  0  0  0  0
  -24.8600  -28.8510   20.1520 C   0  0  0  0  0  0  0  0  0  0  0  0
  -25.9350  -30.7260   21.3910 C   0  0  0  0  0  2  0  0  0  0  0  0
  -26.0240  -29.3350   20.7660 C   0  0  0  0  0  0  0  0  0  0  0  0
  -27.2070  -28.5260   20.7880 C   0  0  0  0  0  3  0  0  0  0  0  0
  -26.0350  -26.8090   19.5510 C   0  0  0  0  0  3  0  0  0  0  0  0
  -24.8710  -27.5950   19.5350 C   0  0  0  0  0  3  0  0  0  0  0  0
  -23.6240  -29.7260   20.1710 C   0  0  0  0  0  2  0  0  0  0  0  0
  -24.6490  -31.0130   22.0930 N   0  0  0  0  0  0  0  0  0  0  0  0
  -23.4800  -32.1230   23.6940 O   0  0  0  0  0  0  0  0  0  0  0  0
  -22.7070  -29.4200   22.4980 C   0  0  0  0  0  0  0  0  0  0  0  0
  -21.3800  -29.2500   22.3560 N   0  0  0  0  0  0  0  0  0  0  0  0
  -23.3700  -28.7980   23.3330 O   0  0  0  0  0  0  0  0  0  0  0  0
  -20.9080  -29.8000   21.6520 H   0  0  0  0  0  0  0  0  0  0  0  0
  -17.9850  -28.1060   22.8430 C   0  0  0  0  0  0  0  0  0  0  0  0
  -20.5460  -28.3260   23.1260 C   0  0  0  0  0  3  0  0  0  0  0  0
  -20.6300  -26.8940   22.5510 C   0  0  0  0  0  2  0  0  0  0  0  0
  -19.5270  -26.5880   21.5320 C   0  0  0  0  0  2  0  0  0  0  0  0
  -18.1450  -26.7540   22.1690 C   0  0  0  0  0  2  0  0  0  0  0  0
  -19.1130  -28.8520   23.2790 C   0  0  0  0  0  0  0  0  0  0  0  0
  -18.9100  -30.1180   23.8690 C   0  0  0  0  0  3  0  0  0  0  0  0
  -17.6120  -30.6380   24.0270 C   0  0  0  0  0  3  0  0  0  0  0  0
  -16.4980  -29.8900   23.6070 C   0  0  0  0  0  3  0  0  0  0  0  0
  -16.6870  -28.6250   23.0230 C   0  0  0  0  0  3  0  0  0  0  0  0
  -25.8450  -32.4690   23.8150 C   0  0  0  0  0  3  0  0  0  0  0  0
  -26.3470  -31.6980   25.0970 C   0  0  1  0  0  0  0  0  0  0  0  0
  -25.2340  -31.4490   26.1420 C   0  0  0  0  0  1  0  0  0  0  0  0
  -26.9420  -30.3260   24.7070 C   0  0  0  0  0  1  0  0  0  0  0  0
  -27.4810  -32.4940   25.7820 C   0  0  0  0  0  1  0  0  0  0  0  0
  -25.5300  -33.8660   24.1440 N   0  0  0  0  0  0  0  0  0  0  0  0
  -25.8640  -34.9210   23.3880 C   0  0  0  0  0  0  0  0  0  0  0  0
  -26.5400  -34.8190   22.3610 O   0  0  0  0  0  0  0  0  0  0  0  0
  -24.9330  -34.0190   24.9430 H   0  0  0  0  0  0  0  0  0  0  0  0
  -24.1250  -36.7030   23.0330 C   0  0  0  0  0  1  0  0  0  0  0  0
  -25.3690  -36.3070   23.8440 C   0  0  0  0  0  3  0  0  0  0  0  0
  -27.4970  -37.2070   24.6780 C   0  0  0  0  0  1  0  0  0  0  0  0
  -26.3950  -37.3660   23.7300 N   0  0  0  0  0  0  0  0  0  0  0  0
  -25.9850  -38.2830   23.8730 H   0  0  0  0  0  0  0  0  0  0  0  0
  1  3  1  0
  1  2  1  0
  5  4  1  0
  5  6  1  0
  5  1  1  0
  7  6  1  0
  7 16  1  0
  7 47  1  0
  8 14  1  0
  8 16  1  0
  9 14  1  0
 10 11  1  0
 10  9  1  0
 12 11  1  0
 12 21  1  0
 12 13  1  0
 14 13  1  0
 15  8  2  0
 16 17  1  0
 18 19  2  0
 19 38  1  0
 20 19  1  0
 20 23  1  0
 21 22  1  0
 21 18  1  0
 22 20  2  0
 23 24  1  0
 24 25  2  0
 26 29  1  0
 26 25  1  0
 27 26  2  0
 28 27  1  0
 28 23  2  0
 29 30  1  0
 30 31  1  0
 31 32  2  0
 33 32  1  0
 33 37  1  0
 34 33  2  0
 35 30  2  0
 35 34  1  0
 36 35  1  0
 38 39  1  0
 39 42  1  0
 39 41  1  0
 40 38  2  0
 43 44  1  0
 43 18  1  0
 45 43  1  0
 46 47  1  0
 48  1  1  0
 48 49  1  0
 50 51  1  0
 50 49  1  0
 52 63  2  0
 53 51  1  0
 53 58  1  0
 54 62  1  0
 54 64  1  0
 55 61  1  0
 55 57  1  0
 56 62  1  0
 57 58  2  0
 57 56  1  0
 59 53  2  0
 60 59  1  0
 60 55  2  0
 61 54  1  0
 62 52  1  0
 64 66  2  0
 65 64  1  0
 67 65  1  0
 68 77  2  0
 68 73  1  0
 69 65  1  0
 69 73  1  0
 70 69  1  0
 71 72  1  0
 71 70  1  0
 72 68  1  0
 73 74  2  0
 74 75  1  0
 76 75  2  0
 77 76  1  0
 78 52  1  0
 78 83  1  0
 78 79  1  0
 79 82  1  1
 79 80  1  0
 81 79  1  0
 83 86  1  0
 84 88  1  0
 84 83  1  0
 85 84  2  0
 88 87  1  0
 90 88  1  0
 90 91  1  0
 90 89  1  0
M  ISO  4   8 100  16 100  50 101  51 101
M  END
>  <TORSDO>  (7) 
F 23

>  <SCORE>  (7) 
-12.515

>  <name>  (7) 
6

>  <ligand_id>  (7) 
6

>  <original_smiles>  (7) 
[H]c1c([H])c([H])c2c(c1[H])C([H])([H])C([H])([H])C([H])([H])C2([H])N([H])C(=O)C1([H])N(C(=O)C([H])(N([H])C(=O)C([H])(N([H])C([H])([H])[H])C([H])([H])[H])C(C([H])([H])[H])(C([H])([H])[H])C([H])([H])[H])C([H])([H])c2c([H])c(OC([H])([H])C([H])([H])C([H])([H])[N+]([H])([H])C([H])(C([H])([H])[H])C([H])([H])C([H])(N([H])C(=O)N3C([H])([H])C([H])([H])C([H])([H])C([H])(n4nc(-c5c([H])c([H])c(Oc6c([H])c([H])c(F)c([H])c6F)c([H])c5[H])c(C(=O)N([H])[H])c4N([H])[H])C3([H])[H])C([H])([H])C([H])([H])[H])c([H])c([H])c2C1([H])[H]

>  <smiles>  (7) 
[H]c1c([H])c([H])c2c(c1[H])C([H])([H])C([H])([H])C([H])([H])C2([H])N([H])C(=O)C1([H])N(C(=O)C([H])(N([H])C(=O)C([H])(N([H])C([H])([H])[H])C([H])([H])[H])C(C([H])([H])[H])(C([H])([H])[H])C([H])([H])[H])C([H])([H])c2c([H])c(OC([H])([H])C([H])([H])C([H])([H])[N+]([H])([H])C([H])(C([H])([H])[H])C([H])([H])C([H])(N([H])C(=O)N3C([H])([H])C([H])([H])C([H])([H])C([H])(n4nc(-c5c([H])c([H])c(Oc6c([H])c([H])c(F)c([H])c6F)c([H])c5[H])c(C(=O)N([H])[H])c4N([H])[H])C3([H])[H])C([H])([H])C([H])([H])[H])c([H])c([H])c2C1([H])[H]

$$$$
7:0:0
     RDKit          3D

 88 96  0  0  1  0  0  0  0  0999 V2000
  -30.5810  -19.2010   20.7390 C   0  0  0  0  0  2  0  0  0  0  0  0
  -28.5630  -18.9160   19.4600 C   0  0  0  0  0  2  0  0  0  0  0  0
  -30.0840  -20.7350   21.1300 C   0  0  0  0  0  2  0  0  0  0  0  0
  -28.1050  -20.4830   19.7770 C   0  0  0  0  0  2  0  0  0  0  0  0
  -29.4620  -18.0610   20.5000 C   0  0  0  0  0  3  0  0  0  0  0  0
  -29.1430  -21.5440   20.2000 N   0  0  1  0  0  4  0  0  0  0  0  0
  -29.7000  -21.7290   19.3740 H   0  0  0  0  0  0  0  0  0  0  0  0
  -30.4360  -15.2140   20.2770 C   0  0  0  0  0  0  0  0  0  0  0  0
  -30.4010  -12.7930   19.3720 C   0  0  0  0  0  2  0  0  0  0  0  0
  -29.4660  -12.6360   18.1460 C   0  0  0  0  0  2  0  0  0  0  0  0
  -28.0210  -12.3660   18.6090 C   0  0  0  0  0  2  0  0  0  0  0  0
  -27.5830  -13.3360   19.7360 C   0  0  0  0  0  3  0  0  0  0  0  0
  -28.6410  -13.4250   20.8590 C   0  0  0  0  0  2  0  0  0  0  0  0
  -29.8800  -13.9150   20.2280 N   0  0  0  0  0  0  0  0  0  0  0  0
  -31.6460  -15.2680   20.0270 O   0  0  0  0  0  0  0  0  0  0  0  0
  -29.6000  -16.4080   20.4150 N   0  0  0  0  0  0  0  0  0  0  0  0
  -28.6760  -16.0330   20.5670 H   0  0  0  0  0  0  0  0  0  0  0  0
  -25.1970  -13.9060   20.4680 C   0  0  0  0  0  0  0  0  0  0  0  0
  -24.1370  -13.1320   20.8400 C   0  0  0  0  0  0  0  0  0  0  0  0
  -24.6030  -11.7780   20.8170 C   0  0  0  0  0  0  0  0  0  0  0  0
  -26.2470  -13.0310   20.2370 N   0  0  0  0  0  0  0  0  0  0  0  0
  -25.8990  -11.7460   20.5160 N   0  0  0  0  0  0  0  0  0  0  0  0
  -23.8790  -10.5160   21.0110 C   0  0  0  0  0  0  0  0  0  0  0  0
  -24.3130   -9.5540   21.9510 C   0  0  0  0  0  3  0  0  0  0  0  0
  -23.5890   -8.3560   22.1340 C   0  0  0  0  0  3  0  0  0  0  0  0
  -22.4200   -8.1100   21.3790 C   0  0  0  0  0  0  0  0  0  0  0  0
  -22.0020   -9.0600   20.4300 C   0  0  0  0  0  3  0  0  0  0  0  0
  -22.7250  -10.2500   20.2450 C   0  0  0  0  0  3  0  0  0  0  0  0
  -21.6710   -6.9600   21.4690 O   0  0  0  0  0  0  0  0  0  0  0  0
  -21.6260   -6.2210   22.6240 C   0  0  0  0  0  0  0  0  0  0  0  0
  -21.1950   -6.7780   23.8480 C   0  0  0  0  0  3  0  0  0  0  0  0
  -21.0980   -5.9660   24.9950 C   0  0  0  0  0  3  0  0  0  0  0  0
  -21.4210   -4.5970   24.9200 C   0  0  0  0  0  0  0  0  0  0  0  0
  -21.8440   -4.0390   23.6990 C   0  0  0  0  0  3  0  0  0  0  0  0
  -21.9420   -4.8490   22.5550 C   0  0  0  0  0  0  0  0  0  0  0  0
  -22.3310   -4.3030   21.3780 F   0  0  0  0  0  0  0  0  0  0  0  0
  -21.3200   -3.8150   26.0190 F   0  0  0  0  0  0  0  0  0  0  0  0
  -22.7350  -13.6010   21.1050 C   0  0  0  0  0  0  0  0  0  0  0  0
  -22.0090  -12.9080   21.9680 N   0  0  0  0  0  0  0  0  0  0  0  0
  -22.2960  -14.6240   20.5750 O   0  0  0  0  0  0  0  0  0  0  0  0
  -22.3780  -12.0790   22.4140 H   0  0  0  0  0  0  0  0  0  0  0  0
  -21.0720  -13.2090   22.1940 H   0  0  0  0  0  0  0  0  0  0  0  0
  -25.3590  -15.2770   20.2760 N   0  0  0  0  0  0  0  0  0  0  0  0
  -24.5800  -15.9260   20.3700 H   0  0  0  0  0  0  0  0  0  0  0  0
  -26.1730  -15.6910   19.8440 H   0  0  0  0  0  0  0  0  0  0  0  0
  -28.6640  -23.0240   20.7570 C   0  0  0  0  0  2  0  0  0  0  0  0
  -28.2830  -24.5010   19.9140 C   0  0  0  0  0  2  0  0  0  0  0  0
  -28.2590  -26.0460   20.3910 O   0  0  0  0  0  0  0  0  0  0  0  0
  -24.6190  -31.8780   23.2640 C   0  0  0  0  0  0  0  0  0  0  0  0
  -27.2130  -27.0730   20.2620 C   0  0  0  0  0  0  0  0  0  0  0  0
  -23.4290  -30.4760   21.6160 C   0  0  0  0  0  3  0  0  0  0  0  0
  -24.8930  -28.8870   20.2020 C   0  0  0  0  0  0  0  0  0  0  0  0
  -26.0050  -30.7060   21.4950 C   0  0  0  0  0  2  0  0  0  0  0  0
  -26.0740  -29.3200   20.8150 C   0  0  0  0  0  0  0  0  0  0  0  0
  -27.2340  -28.4380   20.8090 C   0  0  0  0  0  3  0  0  0  0  0  0
  -25.9950  -26.7590   19.6240 C   0  0  0  0  0  3  0  0  0  0  0  0
  -24.8750  -27.6260   19.5830 C   0  0  0  0  0  3  0  0  0  0  0  0
  -23.6620  -29.7830   20.2450 C   0  0  0  0  0  2  0  0  0  0  0  0
  -24.7020  -31.0520   22.1710 N   0  0  0  0  0  0  0  0  0  0  0  0
  -23.5300  -32.1690   23.7820 O   0  0  0  0  0  0  0  0  0  0  0  0
  -22.7430  -29.4810   22.5840 C   0  0  0  0  0  0  0  0  0  0  0  0
  -21.4160  -29.3080   22.4490 N   0  0  0  0  0  0  0  0  0  0  0  0
  -23.4070  -28.8660   23.4220 O   0  0  0  0  0  0  0  0  0  0  0  0
  -20.9500  -29.8460   21.7320 H   0  0  0  0  0  0  0  0  0  0  0  0
  -18.0170  -28.1240   22.9470 C   0  0  0  0  0  0  0  0  0  0  0  0
  -20.5780  -28.3780   23.2130 C   0  0  0  0  0  3  0  0  0  0  0  0
  -20.6650  -26.9440   22.6390 C   0  0  0  0  0  2  0  0  0  0  0  0
  -19.5670  -26.6350   21.6170 C   0  0  0  0  0  2  0  0  0  0  0  0
  -18.1860  -26.7770   22.2640 C   0  0  0  0  0  2  0  0  0  0  0  0
  -19.1390  -28.8880   23.3720 C   0  0  0  0  0  0  0  0  0  0  0  0
  -18.9210  -30.1480   23.9660 C   0  0  0  0  0  3  0  0  0  0  0  0
  -17.6150  -30.6500   24.1330 C   0  0  0  0  0  3  0  0  0  0  0  0
  -16.5100  -29.8830   23.7240 C   0  0  0  0  0  3  0  0  0  0  0  0
  -16.7120  -28.6190   23.1420 C   0  0  0  0  0  3  0  0  0  0  0  0
  -25.8920  -32.5100   23.9040 C   0  0  0  0  0  3  0  0  0  0  0  0
  -25.5790  -33.9160   24.2150 N   0  0  0  0  0  0  0  0  0  0  0  0
  -25.9130  -34.9660   23.4500 C   0  0  0  0  0  0  0  0  0  0  0  0
  -26.5890  -34.8540   22.4240 O   0  0  0  0  0  0  0  0  0  0  0  0
  -24.9700  -34.0740   25.0030 H   0  0  0  0  0  0  0  0  0  0  0  0
  -24.1830  -36.7540   23.0740 C   0  0  0  0  0  1  0  0  0  0  0  0
  -25.4220  -36.3590   23.8930 C   0  0  0  0  0  3  0  0  0  0  0  0
  -27.5550  -37.2570   24.7170 C   0  0  0  0  0  1  0  0  0  0  0  0
  -26.4530  -37.4150   23.7710 N   0  0  0  0  0  0  0  0  0  0  0  0
  -26.0420  -38.3350   23.9120 H   0  0  0  0  0  0  0  0  0  0  0  0
  -26.3880  -31.7550   25.2050 C   0  0  1  0  0  0  0  0  0  0  0  0
  -25.2980  -31.5220   26.2760 C   0  0  0  0  0  1  0  0  0  0  0  0
  -26.9740  -30.3620   24.8700 C   0  0  0  0  0  1  0  0  0  0  0  0
  -27.5340  -32.5600   25.8620 C   0  0  0  0  0  1  0  0  0  0  0  0
  1  3  1  0
  2  4  1  0
  2  5  1  0
  4  6  1  0
  5 16  1  0
  5  1  1  0
  6 46  1  0
  6  3  1  0
  6  7  1  6
  8 16  1  0
  9 14  1  0
 10 11  1  0
 10  9  1  0
 12 11  1  0
 12 21  1  0
 12 13  1  0
 14  8  1  0
 14 13  1  0
 15  8  2  0
 16 17  1  0
 18 19  2  0
 19 38  1  0
 20 19  1  0
 20 23  1  0
 21 18  1  0
 21 22  1  0
 22 20  2  0
 23 24  1  0
 24 25  2  0
 26 29  1  0
 26 25  1  0
 27 26  2  0
 28 27  1  0
 28 23  2  0
 29 30  1  0
 30 31  1  0
 31 32  2  0
 33 32  1  0
 33 37  1  0
 34 33  2  0
 35 30  2  0
 35 34  1  0
 36 35  1  0
 38 39  1  0
 39 42  1  0
 39 41  1  0
 40 38  2  0
 43 44  1  0
 43 18  1  0
 45 43  1  0
 47 48  1  0
 47 46  1  0
 49 60  2  0
 50 48  1  0
 50 55  1  0
 51 59  1  0
 51 61  1  0
 52 58  1  0
 52 54  1  0
 53 59  1  0
 54 53  1  0
 55 54  2  0
 56 50  2  0
 57 56  1  0
 57 52  2  0
 58 51  1  0
 59 49  1  0
 61 63  2  0
 62 61  1  0
 64 62  1  0
 65 74  2  0
 65 70  1  0
 66 62  1  0
 66 70  1  0
 67 66  1  0
 68 69  1  0
 68 67  1  0
 69 65  1  0
 70 71  2  0
 71 72  1  0
 73 72  2  0
 74 73  1  0
 75 49  1  0
 75 76  1  0
 75 85  1  0
 76 79  1  0
 77 81  1  0
 77 76  1  0
 78 77  2  0
 81 80  1  0
 83 81  1  0
 83 84  1  0
 83 82  1  0
 85 88  1  1
 85 86  1  0
 87 85  1  0
M  ISO  4   8 100  16 100  47 101  48 101
M  END
>  <TORSDO>  (8) 
F 18

>  <SCORE>  (8) 
-15.423

>  <name>  (8) 
7

>  <ligand_id>  (8) 
7

>  <original_smiles>  (8) 
[H]c1c([H])c([H])c2c(c1[H])C([H])([H])C([H])([H])C([H])([H])C2([H])N([H])C(=O)C1([H])N(C(=O)C([H])(N([H])C(=O)C([H])(N([H])C([H])([H])[H])C([H])([H])[H])C(C([H])([H])[H])(C([H])([H])[H])C([H])([H])[H])C([H])([H])c2c([H])c(OC([H])([H])C([H])([H])[N+]3([H])C([H])([H])C([H])([H])C([H])(N([H])C(=O)N4C([H])([H])C([H])([H])C([H])([H])C([H])(n5nc(-c6c([H])c([H])c(Oc7c([H])c([H])c(F)c([H])c7F)c([H])c6[H])c(C(=O)N([H])[H])c5N([H])[H])C4([H])[H])C([H])([H])C3([H])[H])c([H])c([H])c2C1([H])[H]

>  <smiles>  (8) 
[H]c1c([H])c([H])c2c(c1[H])C([H])([H])C([H])([H])C([H])([H])C2([H])N([H])C(=O)C1([H])N(C(=O)C([H])(N([H])C(=O)C([H])(N([H])C([H])([H])[H])C([H])([H])[H])C(C([H])([H])[H])(C([H])([H])[H])C([H])([H])[H])C([H])([H])c2c([H])c(OC([H])([H])C([H])([H])[N+]3([H])C([H])([H])C([H])([H])C([H])(N([H])C(=O)N4C([H])([H])C([H])([H])C([H])([H])C([H])(n5nc(-c6c([H])c([H])c(Oc7c([H])c([H])c(F)c([H])c7F)c([H])c6[H])c(C(=O)N([H])[H])c5N([H])[H])C4([H])[H])C([H])([H])C3([H])[H])c([H])c([H])c2C1([H])[H]

$$$$
8:0:0
     RDKit          3D

 91100  0  0  1  0  0  0  0  0999 V2000
  -26.9600  -22.4540   20.3480 C   0  0  0  0  0  3  0  0  0  0  0  0
  -27.0600  -23.8950   20.2620 C   0  0  0  0  0  3  0  0  0  0  0  0
  -29.3580  -23.6510   19.6880 C   0  0  0  0  0  3  0  0  0  0  0  0
  -28.0580  -21.5760   20.1120 C   0  0  0  0  0  0  0  0  0  0  0  0
  -29.2690  -22.1630   19.8100 C   0  0  0  0  0  0  0  0  0  0  0  0
  -28.2440  -24.6210   19.8950 C   0  0  0  0  0  0  0  0  0  0  0  0
  -28.1390  -19.9950   20.1570 C   0  0  0  0  0  2  0  0  0  0  0  0
  -30.2980  -20.9400   19.6700 C   0  0  0  0  0  3  0  0  0  0  0  0
  -29.6650  -19.4880   20.2040 C   0  0  1  0  0  0  0  0  0  0  0  0
  -30.7580  -20.8340   18.2100 C   0  0  0  0  0  1  0  0  0  0  0  0
  -30.0440  -19.3500   21.6880 C   0  0  0  0  0  1  0  0  0  0  0  0
  -28.3110  -26.1230   19.7800 O   0  0  0  0  0  0  0  0  0  0  0  0
  -24.6520  -31.7670   23.0170 C   0  0  0  0  0  0  0  0  0  0  0  0
  -27.2400  -27.1230   19.7970 C   0  0  0  0  0  0  0  0  0  0  0  0
  -23.4460  -30.3980   21.3610 C   0  0  0  0  0  3  0  0  0  0  0  0
  -24.8940  -28.8850   19.8550 C   0  0  0  0  0  0  0  0  0  0  0  0
  -25.9960  -30.6900   21.1650 C   0  0  0  0  0  2  0  0  0  0  0  0
  -26.0760  -29.3100   20.4720 C   0  0  0  0  0  0  0  0  0  0  0  0
  -27.2440  -28.4430   20.4320 C   0  0  0  0  0  3  0  0  0  0  0  0
  -26.0410  -26.8460   19.1030 C   0  0  0  0  0  3  0  0  0  0  0  0
  -24.8920  -27.6710   19.1540 C   0  0  0  0  0  3  0  0  0  0  0  0
  -23.6550  -29.7670   19.9570 C   0  0  0  0  0  2  0  0  0  0  0  0
  -24.7190  -30.9750   21.9020 N   0  0  0  0  0  0  0  0  0  0  0  0
  -23.5710  -32.0160   23.5720 O   0  0  0  0  0  0  0  0  0  0  0  0
  -22.8000  -29.3530   22.3060 C   0  0  0  0  0  0  0  0  0  0  0  0
  -21.4710  -29.1750   22.2130 N   0  0  0  0  0  0  0  0  0  0  0  0
  -23.5000  -28.7050   23.0880 O   0  0  0  0  0  0  0  0  0  0  0  0
  -20.9600  -29.7490   21.5560 H   0  0  0  0  0  0  0  0  0  0  0  0
  -18.1210  -27.9040   22.7650 C   0  0  0  0  0  0  0  0  0  0  0  0
  -20.6820  -28.2000   22.9730 C   0  0  0  0  0  3  0  0  0  0  0  0
  -20.7880  -26.7880   22.3500 C   0  0  0  0  0  2  0  0  0  0  0  0
  -19.6660  -26.4820   21.3530 C   0  0  0  0  0  2  0  0  0  0  0  0
  -18.2990  -26.5830   22.0370 C   0  0  0  0  0  2  0  0  0  0  0  0
  -19.2390  -28.6710   23.1900 C   0  0  0  0  0  0  0  0  0  0  0  0
  -19.0140  -29.9070   23.8340 C   0  0  0  0  0  3  0  0  0  0  0  0
  -17.7070  -30.3790   24.0540 C   0  0  0  0  0  3  0  0  0  0  0  0
  -16.6040  -29.6100   23.6420 C   0  0  0  0  0  3  0  0  0  0  0  0
  -16.8120  -28.3750   23.0050 C   0  0  0  0  0  3  0  0  0  0  0  0
  -25.9280  -32.4090   23.6390 C   0  0  0  0  0  3  0  0  0  0  0  0
  -25.5940  -33.7920   24.0220 N   0  0  0  0  0  0  0  0  0  0  0  0
  -25.9070  -34.8820   23.3090 C   0  0  0  0  0  0  0  0  0  0  0  0
  -26.5740  -34.8300   22.2720 O   0  0  0  0  0  0  0  0  0  0  0  0
  -25.0000  -33.9040   24.8310 H   0  0  0  0  0  0  0  0  0  0  0  0
  -24.1690  -36.6810   23.0220 C   0  0  0  0  0  1  0  0  0  0  0  0
  -25.4050  -36.2450   23.8270 C   0  0  0  0  0  3  0  0  0  0  0  0
  -27.5170  -37.1140   24.7310 C   0  0  0  0  0  1  0  0  0  0  0  0
  -26.4310  -37.3100   23.7740 N   0  0  0  0  0  0  0  0  0  0  0  0
  -26.0150  -38.2210   23.9490 H   0  0  0  0  0  0  0  0  0  0  0  0
  -26.4770  -31.6140   24.8880 C   0  0  1  0  0  0  0  0  0  0  0  0
  -25.4060  -31.3330   25.9670 C   0  0  0  0  0  1  0  0  0  0  0  0
  -27.0760  -30.2550   24.4580 C   0  0  0  0  0  1  0  0  0  0  0  0
  -27.6260  -32.4100   25.5510 C   0  0  0  0  0  1  0  0  0  0  0  0
  -30.1770  -17.9610   19.5320 C   0  0  0  0  0  2  0  0  0  0  0  0
  -30.7040  -15.2080   19.8410 C   0  0  0  0  0  0  0  0  0  0  0  0
  -30.5880  -12.7980   18.9960 C   0  0  0  0  0  2  0  0  0  0  0  0
  -29.6030  -12.6750   17.8080 C   0  0  0  0  0  2  0  0  0  0  0  0
  -28.1690  -12.4440   18.3150 C   0  0  0  0  0  2  0  0  0  0  0  0
  -27.7990  -13.3970   19.4820 C   0  0  0  0  0  3  0  0  0  0  0  0
  -28.9050  -13.4870   20.5550 C   0  0  0  0  0  2  0  0  0  0  0  0
  -30.1270  -13.9260   19.8700 N   0  0  0  0  0  0  0  0  0  0  0  0
  -31.8840  -15.2470   19.4750 O   0  0  0  0  0  0  0  0  0  0  0  0
  -29.9440  -16.4300   20.0030 N   0  0  0  0  0  0  0  0  0  0  0  0
  -29.0060  -16.2540   20.3330 H   0  0  0  0  0  0  0  0  0  0  0  0
  -25.4820  -13.9660   20.3950 C   0  0  0  0  0  0  0  0  0  0  0  0
  -24.4330  -13.1900   20.8040 C   0  0  0  0  0  0  0  0  0  0  0  0
  -24.8770  -11.8360   20.6940 C   0  0  0  0  0  0  0  0  0  0  0  0
  -26.4950  -13.0870   20.0550 N   0  0  0  0  0  0  0  0  0  0  0  0
  -26.1450  -11.7980   20.3020 N   0  0  0  0  0  0  0  0  0  0  0  0
  -24.1450  -10.5750   20.8830 C   0  0  0  0  0  0  0  0  0  0  0  0
  -24.5490   -9.6220   21.8430 C   0  0  0  0  0  3  0  0  0  0  0  0
  -23.8150   -8.4280   22.0200 C   0  0  0  0  0  3  0  0  0  0  0  0
  -22.6630   -8.1810   21.2370 C   0  0  0  0  0  0  0  0  0  0  0  0
  -22.2780   -9.1240   20.2680 C   0  0  0  0  0  3  0  0  0  0  0  0
  -23.0130  -10.3070   20.0890 C   0  0  0  0  0  3  0  0  0  0  0  0
  -21.9030   -7.0390   21.3230 O   0  0  0  0  0  0  0  0  0  0  0  0
  -21.7250   -6.3810   22.5130 C   0  0  0  0  0  0  0  0  0  0  0  0
  -21.1220   -7.0040   23.6260 C   0  0  0  0  0  3  0  0  0  0  0  0
  -20.8940   -6.2690   24.8070 C   0  0  0  0  0  3  0  0  0  0  0  0
  -21.2600   -4.9120   24.8730 C   0  0  0  0  0  0  0  0  0  0  0  0
  -21.8560   -4.2880   23.7640 C   0  0  0  0  0  3  0  0  0  0  0  0
  -22.0850   -5.0190   22.5860 C   0  0  0  0  0  0  0  0  0  0  0  0
  -22.6400   -4.4080   21.5120 F   0  0  0  0  0  0  0  0  0  0  0  0
  -21.0350   -4.2030   26.0050 F   0  0  0  0  0  0  0  0  0  0  0  0
  -23.0630  -13.6730   21.1760 C   0  0  0  0  0  0  0  0  0  0  0  0
  -22.3860  -12.9650   22.0730 N   0  0  0  0  0  0  0  0  0  0  0  0
  -22.6040  -14.7150   20.7080 O   0  0  0  0  0  0  0  0  0  0  0  0
  -22.7720  -12.1230   22.4750 H   0  0  0  0  0  0  0  0  0  0  0  0
  -21.4680  -13.2700   22.3640 H   0  0  0  0  0  0  0  0  0  0  0  0
  -25.6500  -15.3410   20.2570 N   0  0  0  0  0  0  0  0  0  0  0  0
  -24.8940  -15.9930   20.4320 H   0  0  0  0  0  0  0  0  0  0  0  0
  -26.4660  -15.7820   19.8520 H   0  0  0  0  0  0  0  0  0  0  0  0
  2  1  1  0
  3  5  2  0
  3  6  1  0
  4  7  1  0
  4  1  2  0
  5  4  1  0
  6  2  2  0
  7  9  1  0
  8 10  1  0
  8  5  1  0
  8  9  1  0
  9 11  1  1
 12 14  1  0
 12  6  1  0
 13 24  2  0
 14 19  1  0
 15 23  1  0
 15 25  1  0
 16 22  1  0
 16 18  1  0
 17 23  1  0
 18 17  1  0
 19 18  2  0
 20 21  1  0
 20 14  2  0
 21 16  2  0
 22 15  1  0
 23 13  1  0
 25 27  2  0
 26 25  1  0
 28 26  1  0
 29 38  2  0
 29 34  1  0
 30 26  1  0
 30 34  1  0
 31 30  1  0
 32 33  1  0
 32 31  1  0
 33 29  1  0
 34 35  2  0
 35 36  1  0
 37 36  2  0
 38 37  1  0
 39 13  1  0
 39 40  1  0
 39 49  1  0
 40 43  1  0
 41 45  1  0
 41 40  1  0
 42 41  2  0
 45 44  1  0
 47 45  1  0
 47 48  1  0
 47 46  1  0
 49 52  1  1
 49 50  1  0
 51 49  1  0
 53 62  1  0
 53  9  1  0
 54 60  1  0
 54 62  1  0
 55 60  1  0
 56 57  1  0
 56 55  1  0
 58 57  1  0
 58 67  1  0
 58 59  1  0
 60 59  1  0
 61 54  2  0
 62 63  1  0
 64 65  2  0
 65 84  1  0
 66 65  1  0
 66 69  1  0
 67 68  1  0
 67 64  1  0
 68 66  2  0
 69 70  1  0
 70 71  2  0
 72 75  1  0
 72 71  1  0
 73 72  2  0
 74 73  1  0
 74 69  2  0
 75 76  1  0
 76 81  2  0
 76 77  1  0
 77 78  2  0
 78 79  1  0
 79 83  1  0
 80 79  2  0
 81 80  1  0
 82 81  1  0
 84 85  1  0
 85 88  1  0
 85 87  1  0
 86 84  2  0
 89 64  1  0
 89 90  1  0
 91 89  1  0
M  ISO  4   6 101  12 101  54 100  62 100
M  END
>  <TORSDO>  (9) 
F 17

>  <SCORE>  (9) 
-14.918

>  <name>  (9) 
8

>  <ligand_id>  (9) 
8

>  <original_smiles>  (9) 
[H]c1c([H])c([H])c2c(c1[H])C([H])([H])C([H])([H])C([H])([H])C2([H])N([H])C(=O)C1([H])N(C(=O)C([H])(N([H])C(=O)C([H])(N([H])C([H])([H])[H])C([H])([H])[H])C(C([H])([H])[H])(C([H])([H])[H])C([H])([H])[H])C([H])([H])c2c([H])c(Oc3c([H])c([H])c4c(c3[H])C([H])(C([H])([H])[H])C(C([H])([H])[H])(C([H])([H])N([H])C(=O)N3C([H])([H])C([H])([H])C([H])([H])C([H])(n5nc(-c6c([H])c([H])c(Oc7c([H])c([H])c(F)c([H])c7F)c([H])c6[H])c(C(=O)N([H])[H])c5N([H])[H])C3([H])[H])C4([H])[H])c([H])c([H])c2C1([H])[H]

>  <smiles>  (9) 
[H]c1c([H])c([H])c2c(c1[H])C([H])([H])C([H])([H])C([H])([H])C2([H])N([H])C(=O)C1([H])N(C(=O)C([H])(N([H])C(=O)C([H])(N([H])C([H])([H])[H])C([H])([H])[H])C(C([H])([H])[H])(C([H])([H])[H])C([H])([H])[H])C([H])([H])c2c([H])c(Oc3c([H])c([H])c4c(c3[H])C([H])(C([H])([H])[H])C(C([H])([H])[H])(C([H])([H])N([H])C(=O)N3C([H])([H])C([H])([H])C([H])([H])C([H])(n5nc(-c6c([H])c([H])c(Oc7c([H])c([H])c(F)c([H])c7F)c([H])c6[H])c(C(=O)N([H])[H])c5N([H])[H])C3([H])[H])C4([H])[H])c([H])c([H])c2C1([H])[H]

$$$$
9:0:0
     RDKit          3D

 92100  0  0  1  0  0  0  0  0999 V2000
  -29.2820  -21.2990   20.1630 N   0  0  1  0  0  4  0  0  0  0  0  0
  -29.5240  -21.1950   19.1880 H   0  0  0  0  0  0  0  0  0  0  0  0
  -30.6660  -21.5520   20.6220 C   0  0  0  0  0  2  0  0  0  0  0  0
  -33.1310  -21.1330   17.0500 C   0  0  0  0  0  3  0  0  0  0  0  0
  -33.1470  -20.1290   18.0410 C   0  0  0  0  0  3  0  0  0  0  0  0
  -32.3940  -22.3140   17.2650 C   0  0  0  0  0  3  0  0  0  0  0  0
  -32.3990  -20.2940   19.2250 C   0  0  0  0  0  3  0  0  0  0  0  0
  -31.6270  -22.4660   18.4420 C   0  0  0  0  0  3  0  0  0  0  0  0
  -31.6000  -21.4450   19.4180 C   0  0  0  0  0  0  0  0  0  0  0  0
  -28.8480  -19.6860   20.3340 C   0  0  0  0  0  3  0  0  0  0  0  0
  -29.8710  -18.1990   20.1700 C   0  0  0  0  0  3  0  0  0  0  0  0
  -30.3770  -15.2960   20.1560 C   0  0  0  0  0  0  0  0  0  0  0  0
  -30.3550  -12.8770   19.2230 C   0  0  0  0  0  2  0  0  0  0  0  0
  -29.4020  -12.6990   18.0120 C   0  0  0  0  0  2  0  0  0  0  0  0
  -27.9650  -12.4230   18.4890 C   0  0  0  0  0  2  0  0  0  0  0  0
  -27.5420  -13.3540   19.6550 C   0  0  0  0  0  3  0  0  0  0  0  0
  -28.6230  -13.4610   20.7500 C   0  0  0  0  0  2  0  0  0  0  0  0
  -29.8250  -13.9880   20.0940 N   0  0  0  0  0  0  0  0  0  0  0  0
  -31.5880  -15.3140   19.9060 O   0  0  0  0  0  0  0  0  0  0  0  0
  -29.5960  -16.5490   20.2940 N   0  0  0  0  0  0  0  0  0  0  0  0
  -28.6250  -16.3310   20.4660 H   0  0  0  0  0  0  0  0  0  0  0  0
  -25.1930  -13.8860   20.4860 C   0  0  0  0  0  0  0  0  0  0  0  0
  -24.1500  -13.0990   20.8740 C   0  0  0  0  0  0  0  0  0  0  0  0
  -24.6260  -11.7520   20.8150 C   0  0  0  0  0  0  0  0  0  0  0  0
  -26.2350  -13.0200   20.1990 N   0  0  0  0  0  0  0  0  0  0  0  0
  -25.9060  -11.7280   20.4650 N   0  0  0  0  0  0  0  0  0  0  0  0
  -23.9130  -10.4820   21.0120 C   0  0  0  0  0  0  0  0  0  0  0  0
  -24.3620   -9.5160   21.9390 C   0  0  0  0  0  3  0  0  0  0  0  0
  -23.6470   -8.3150   22.1240 C   0  0  0  0  0  3  0  0  0  0  0  0
  -22.4680   -8.0690   21.3840 C   0  0  0  0  0  0  0  0  0  0  0  0
  -22.0390   -9.0220   20.4430 C   0  0  0  0  0  3  0  0  0  0  0  0
  -22.7540  -10.2160   20.2560 C   0  0  0  0  0  3  0  0  0  0  0  0
  -21.7240   -6.9180   21.4750 O   0  0  0  0  0  0  0  0  0  0  0  0
  -21.6830   -6.1780   22.6280 C   0  0  0  0  0  0  0  0  0  0  0  0
  -21.2350   -6.7240   23.8510 C   0  0  0  0  0  3  0  0  0  0  0  0
  -21.1430   -5.9100   24.9960 C   0  0  0  0  0  3  0  0  0  0  0  0
  -21.4920   -4.5470   24.9240 C   0  0  0  0  0  0  0  0  0  0  0  0
  -21.9350   -3.9990   23.7060 C   0  0  0  0  0  3  0  0  0  0  0  0
  -22.0270   -4.8120   22.5620 C   0  0  0  0  0  0  0  0  0  0  0  0
  -22.4340   -4.2720   21.3890 F   0  0  0  0  0  0  0  0  0  0  0  0
  -21.3960   -3.7620   26.0220 F   0  0  0  0  0  0  0  0  0  0  0  0
  -22.7570  -13.5570   21.1830 C   0  0  0  0  0  0  0  0  0  0  0  0
  -22.0630  -12.8470   22.0610 N   0  0  0  0  0  0  0  0  0  0  0  0
  -22.2980  -14.5820   20.6800 O   0  0  0  0  0  0  0  0  0  0  0  0
  -22.4580  -12.0260   22.4950 H   0  0  0  0  0  0  0  0  0  0  0  0
  -21.1210  -13.1240   22.2980 H   0  0  0  0  0  0  0  0  0  0  0  0
  -25.3330  -15.2630   20.3130 N   0  0  0  0  0  0  0  0  0  0  0  0
  -24.5410  -15.8880   20.4200 H   0  0  0  0  0  0  0  0  0  0  0  0
  -26.1140  -15.6960   19.8440 H   0  0  0  0  0  0  0  0  0  0  0  0
  -28.4010  -22.7150   19.9000 C   0  0  0  0  0  2  0  0  0  0  0  0
  -28.4530  -24.3720   20.6150 C   0  0  0  0  0  2  0  0  0  0  0  0
  -28.2920  -25.9600   20.1660 O   0  0  0  0  0  0  0  0  0  0  0  0
  -24.6140  -31.8770   23.1970 C   0  0  0  0  0  0  0  0  0  0  0  0
  -27.2100  -26.9790   20.2480 C   0  0  0  0  0  0  0  0  0  0  0  0
  -23.4320  -30.4630   21.5650 C   0  0  0  0  0  3  0  0  0  0  0  0
  -24.8890  -28.8320   20.1880 C   0  0  0  0  0  0  0  0  0  0  0  0
  -25.9980  -30.6770   21.4310 C   0  0  0  0  0  2  0  0  0  0  0  0
  -26.0760  -29.2580   20.7970 C   0  0  0  0  0  0  0  0  0  0  0  0
  -27.2310  -28.3580   20.7920 C   0  0  0  0  0  3  0  0  0  0  0  0
  -25.9830  -26.6920   19.6100 C   0  0  0  0  0  3  0  0  0  0  0  0
  -24.8660  -27.5670   19.5750 C   0  0  0  0  0  3  0  0  0  0  0  0
  -23.6720  -29.7540   20.2050 C   0  0  0  0  0  2  0  0  0  0  0  0
  -24.7040  -31.0320   22.1180 N   0  0  0  0  0  0  0  0  0  0  0  0
  -23.5210  -32.1660   23.7110 O   0  0  0  0  0  0  0  0  0  0  0  0
  -22.7290  -29.4780   22.5390 C   0  0  0  0  0  0  0  0  0  0  0  0
  -21.3980  -29.3210   22.4160 N   0  0  0  0  0  0  0  0  0  0  0  0
  -23.3910  -28.8540   23.3740 O   0  0  0  0  0  0  0  0  0  0  0  0
  -20.9160  -29.8740   21.7220 H   0  0  0  0  0  0  0  0  0  0  0  0
  -18.0080  -28.1380   22.9450 C   0  0  0  0  0  0  0  0  0  0  0  0
  -20.5720  -28.3890   23.1920 C   0  0  0  0  0  3  0  0  0  0  0  0
  -20.6580  -26.9550   22.6170 C   0  0  0  0  0  2  0  0  0  0  0  0
  -19.5470  -26.6400   21.6090 C   0  0  0  0  0  2  0  0  0  0  0  0
  -18.1720  -26.7910   22.2630 C   0  0  0  0  0  2  0  0  0  0  0  0
  -19.1340  -28.8950   23.3680 C   0  0  0  0  0  0  0  0  0  0  0  0
  -18.9260  -30.1520   23.9720 C   0  0  0  0  0  3  0  0  0  0  0  0
  -17.6240  -30.6600   24.1480 C   0  0  0  0  0  3  0  0  0  0  0  0
  -16.5120  -29.9010   23.7420 C   0  0  0  0  0  3  0  0  0  0  0  0
  -16.7050  -28.6420   23.1450 C   0  0  0  0  0  3  0  0  0  0  0  0
  -25.8770  -32.5250   23.8340 C   0  0  0  0  0  3  0  0  0  0  0  0
  -25.5560  -33.9270   24.1530 N   0  0  0  0  0  0  0  0  0  0  0  0
  -25.8980  -34.9840   23.4040 C   0  0  0  0  0  0  0  0  0  0  0  0
  -26.5780  -34.8800   22.3790 O   0  0  0  0  0  0  0  0  0  0  0  0
  -24.9460  -34.0820   24.9420 H   0  0  0  0  0  0  0  0  0  0  0  0
  -24.1820  -36.7890   23.0330 C   0  0  0  0  0  1  0  0  0  0  0  0
  -25.4110  -36.3770   23.8560 C   0  0  0  0  0  3  0  0  0  0  0  0
  -27.5360  -37.2610   24.7130 C   0  0  0  0  0  1  0  0  0  0  0  0
  -26.4500  -37.4270   23.7530 N   0  0  0  0  0  0  0  0  0  0  0  0
  -26.0450  -38.3510   23.8850 H   0  0  0  0  0  0  0  0  0  0  0  0
  -26.3690  -31.7750   25.1320 C   0  0  1  0  0  0  0  0  0  0  0  0
  -25.2610  -31.5530   26.1870 C   0  0  0  0  0  1  0  0  0  0  0  0
  -26.9540  -30.3880   24.7820 C   0  0  0  0  0  1  0  0  0  0  0  0
  -27.5160  -32.5730   25.7960 C   0  0  0  0  0  1  0  0  0  0  0  0
  1 10  1  0
  1  3  1  0
  1  2  1  6
  4  6  2  0
  4  5  1  0
  5  7  2  0
  6  8  1  0
  7  9  1  0
  8  9  2  0
  9  3  1  0
 11 20  1  0
 11 10  2  0
 12 20  1  0
 13 18  1  0
 14 15  1  0
 14 13  1  0
 16 15  1  0
 16 25  1  0
 16 17  1  0
 18 12  1  0
 18 17  1  0
 19 12  2  0
 20 21  1  0
 22 23  2  0
 23 42  1  0
 24 23  1  0
 24 27  1  0
 25 26  1  0
 25 22  1  0
 26 24  2  0
 27 28  1  0
 28 29  2  0
 30 33  1  0
 30 29  1  0
 31 30  2  0
 32 31  1  0
 32 27  2  0
 33 34  1  0
 34 35  1  0
 35 36  2  0
 37 36  1  0
 37 41  1  0
 38 37  2  0
 39 34  2  0
 39 38  1  0
 40 39  1  0
 42 43  1  0
 43 46  1  0
 43 45  1  0
 44 42  2  0
 47 48  1  0
 47 22  1  0
 49 47  1  0
 50  1  1  0
 50 51  1  0
 52 54  1  0
 52 51  1  0
 53 64  2  0
 54 59  1  0
 55 63  1  0
 55 65  1  0
 56 62  1  0
 56 58  1  0
 57 63  1  0
 58 57  1  0
 59 58  2  0
 60 54  2  0
 61 60  1  0
 61 56  2  0
 62 55  1  0
 63 53  1  0
 65 67  2  0
 66 65  1  0
 68 66  1  0
 69 78  2  0
 69 74  1  0
 70 66  1  0
 70 74  1  0
 71 70  1  0
 72 73  1  0
 72 71  1  0
 73 69  1  0
 74 75  2  0
 75 76  1  0
 77 76  2  0
 78 77  1  0
 79 53  1  0
 79 80  1  0
 79 89  1  0
 80 83  1  0
 81 85  1  0
 81 80  1  0
 82 81  2  0
 85 84  1  0
 87 85  1  0
 87 88  1  0
 87 86  1  0
 89 92  1  1
 89 90  1  0
 91 89  1  0
M  ISO  4  12 100  20 100  51 101  52 101
M  END
>  <TORSDO>  (10) 
F 22

>  <SCORE>  (10) 
-15.920

>  <name>  (10) 
9

>  <ligand_id>  (10) 
9

>  <original_smiles>  (10) 
[H]c1c([H])c([H])c(C([H])([H])[N+]([H])(C([H])([H])C([H])([H])Oc2c([H])c([H])c3c(c2[H])C([H])([H])N(C(=O)C([H])(N([H])C(=O)C([H])(N([H])C([H])([H])[H])C([H])([H])[H])C(C([H])([H])[H])(C([H])([H])[H])C([H])([H])[H])C([H])(C(=O)N([H])C2([H])c4c([H])c([H])c([H])c([H])c4C([H])([H])C([H])([H])C2([H])[H])C3([H])[H])C([H])([H])C([H])([H])N([H])C(=O)N2C([H])([H])C([H])([H])C([H])([H])C([H])(n3nc(-c4c([H])c([H])c(Oc5c([H])c([H])c(F)c([H])c5F)c([H])c4[H])c(C(=O)N([H])[H])c3N([H])[H])C2([H])[H])c([H])c1[H]

>  <smiles>  (10) 
[H]c1c([H])c([H])c(C([H])([H])[N+]([H])(C([H])([H])C([H])([H])Oc2c([H])c([H])c3c(c2[H])C([H])([H])N(C(=O)C([H])(N([H])C(=O)C([H])(N([H])C([H])([H])[H])C([H])([H])[H])C(C([H])([H])[H])(C([H])([H])[H])C([H])([H])[H])C([H])(C(=O)N([H])C2([H])c4c([H])c([H])c([H])c([H])c4C([H])([H])C([H])([H])C2([H])[H])C3([H])[H])C([H])([H])C([H])([H])N([H])C(=O)N2C([H])([H])C([H])([H])C([H])([H])C([H])(n3nc(-c4c([H])c([H])c(Oc5c([H])c([H])c(F)c([H])c5F)c([H])c4[H])c(C(=O)N([H])[H])c3N([H])[H])C2([H])[H])c([H])c1[H]

$$$$
10:0:0
     RDKit          3D

 89 96  0  0  1  0  0  0  0  0999 V2000
  -30.3630  -24.0120   19.5360 C   0  0  0  0  0  1  0  0  0  0  0  0
  -29.1790  -23.2660   20.0280 N   0  0  1  0  0  4  0  0  0  0  0  0
  -28.8390  -22.7990   19.2000 H   0  0  0  0  0  0  0  0  0  0  0  0
  -29.5280  -22.1270   20.9460 C   0  0  0  0  0  2  0  0  0  0  0  0
  -28.8830  -20.7590   20.5440 C   0  0  0  0  0  2  0  0  0  0  0  0
  -29.7300  -19.4790   20.8570 C   0  0  0  0  0  2  0  0  0  0  0  0
  -28.9780  -18.1210   20.6390 C   0  0  0  0  0  2  0  0  0  0  0  0
  -29.8450  -15.7120   20.8150 C   0  0  0  0  0  3  0  0  0  0  0  0
  -29.8220  -16.9170   20.1660 C   0  0  0  0  0  0  0  0  0  0  0  0
  -30.5770  -17.2080   18.8720 C   0  0  0  0  0  1  0  0  0  0  0  0
  -30.6400  -14.5420   20.3760 C   0  0  0  0  0  0  0  0  0  0  0  0
  -30.3590  -12.3430   19.2900 C   0  0  0  0  0  2  0  0  0  0  0  0
  -29.4200  -12.5320   18.0810 C   0  0  0  0  0  2  0  0  0  0  0  0
  -27.9440  -12.3980   18.5100 C   0  0  0  0  0  2  0  0  0  0  0  0
  -27.6050  -13.2420   19.7670 C   0  0  0  0  0  3  0  0  0  0  0  0
  -28.6610  -13.0350   20.8720 C   0  0  0  0  0  2  0  0  0  0  0  0
  -29.9820  -13.3460   20.3040 N   0  0  0  0  0  0  0  0  0  0  0  0
  -31.7990  -14.6530   19.9660 O   0  0  0  0  0  0  0  0  0  0  0  0
  -25.2140  -13.8500   20.4910 C   0  0  0  0  0  0  0  0  0  0  0  0
  -24.1470  -13.0790   20.8700 C   0  0  0  0  0  0  0  0  0  0  0  0
  -24.6080  -11.7270   20.8440 C   0  0  0  0  0  0  0  0  0  0  0  0
  -26.2550  -12.9670   20.2550 N   0  0  0  0  0  0  0  0  0  0  0  0
  -25.8970  -11.6870   20.5300 N   0  0  0  0  0  0  0  0  0  0  0  0
  -23.8820  -10.4650   21.0460 C   0  0  0  0  0  0  0  0  0  0  0  0
  -24.3320   -9.4910   21.9660 C   0  0  0  0  0  3  0  0  0  0  0  0
  -23.6040   -8.2960   22.1540 C   0  0  0  0  0  3  0  0  0  0  0  0
  -22.4140   -8.0650   21.4240 C   0  0  0  0  0  0  0  0  0  0  0  0
  -21.9830   -9.0270   20.4940 C   0  0  0  0  0  3  0  0  0  0  0  0
  -22.7100  -10.2150   20.3050 C   0  0  0  0  0  3  0  0  0  0  0  0
  -21.6580   -6.9210   21.5210 O   0  0  0  0  0  0  0  0  0  0  0  0
  -21.6480   -6.1620   22.6620 C   0  0  0  0  0  0  0  0  0  0  0  0
  -21.2820   -6.7030   23.9150 C   0  0  0  0  0  3  0  0  0  0  0  0
  -21.2180   -5.8710   25.0500 C   0  0  0  0  0  3  0  0  0  0  0  0
  -21.5080   -4.4970   24.9340 C   0  0  0  0  0  0  0  0  0  0  0  0
  -21.8660   -3.9550   23.6870 C   0  0  0  0  0  3  0  0  0  0  0  0
  -21.9320   -4.7850   22.5540 C   0  0  0  0  0  0  0  0  0  0  0  0
  -22.2570   -4.2540   21.3510 F   0  0  0  0  0  0  0  0  0  0  0  0
  -21.4400   -3.6940   26.0230 F   0  0  0  0  0  0  0  0  0  0  0  0
  -22.7520  -13.5580   21.1460 C   0  0  0  0  0  0  0  0  0  0  0  0
  -22.0290  -12.8700   22.0230 N   0  0  0  0  0  0  0  0  0  0  0  0
  -22.3090  -14.5770   20.6180 O   0  0  0  0  0  0  0  0  0  0  0  0
  -22.3980  -12.0480   22.4760 H   0  0  0  0  0  0  0  0  0  0  0  0
  -21.0930  -13.1740   22.2480 H   0  0  0  0  0  0  0  0  0  0  0  0
  -25.3810  -15.2200   20.3090 N   0  0  0  0  0  0  0  0  0  0  0  0
  -24.6210  -15.8820   20.4300 H   0  0  0  0  0  0  0  0  0  0  0  0
  -26.2430  -15.6550   20.0020 H   0  0  0  0  0  0  0  0  0  0  0  0
  -28.0330  -24.1450   20.4420 C   0  0  0  0  0  2  0  0  0  0  0  0
  -28.3760  -25.5290   21.0860 C   0  0  0  0  0  2  0  0  0  0  0  0
  -28.3910  -26.6490   20.1670 O   0  0  0  0  0  0  0  0  0  0  0  0
  -24.6190  -31.8700   23.2320 C   0  0  0  0  0  0  0  0  0  0  0  0
  -27.2410  -27.4160   20.1560 C   0  0  0  0  0  0  0  0  0  0  0  0
  -23.4030  -30.4700   21.5960 C   0  0  0  0  0  3  0  0  0  0  0  0
  -24.8510  -28.9330   20.1620 C   0  0  0  0  0  0  0  0  0  0  0  0
  -25.9270  -30.8300   21.3810 C   0  0  0  0  0  2  0  0  0  0  0  0
  -26.0120  -29.4570   20.7430 C   0  0  0  0  0  0  0  0  0  0  0  0
  -27.2110  -28.7070   20.7370 C   0  0  0  0  0  3  0  0  0  0  0  0
  -26.0660  -26.9120   19.5570 C   0  0  0  0  0  3  0  0  0  0  0  0
  -24.8740  -27.6600   19.5640 C   0  0  0  0  0  3  0  0  0  0  0  0
  -23.6050  -29.7880   20.2150 C   0  0  0  0  0  2  0  0  0  0  0  0
  -24.6680  -31.0720   22.1270 N   0  0  0  0  0  0  0  0  0  0  0  0
  -23.5420  -32.1400   23.7830 O   0  0  0  0  0  0  0  0  0  0  0  0
  -22.7570  -29.4490   22.5600 C   0  0  0  0  0  0  0  0  0  0  0  0
  -21.4320  -29.2660   22.4430 N   0  0  0  0  0  0  0  0  0  0  0  0
  -23.4470  -28.8230   23.3700 O   0  0  0  0  0  0  0  0  0  0  0  0
  -20.9350  -29.8220   21.7600 H   0  0  0  0  0  0  0  0  0  0  0  0
  -18.0630  -28.0660   22.9540 C   0  0  0  0  0  0  0  0  0  0  0  0
  -20.6210  -28.3290   23.2190 C   0  0  0  0  0  3  0  0  0  0  0  0
  -20.7240  -26.8960   22.6450 C   0  0  0  0  0  2  0  0  0  0  0  0
  -19.6230  -26.5700   21.6340 C   0  0  0  0  0  2  0  0  0  0  0  0
  -18.2410  -26.7150   22.2790 C   0  0  0  0  0  2  0  0  0  0  0  0
  -19.1820  -28.8310   23.3800 C   0  0  0  0  0  0  0  0  0  0  0  0
  -18.9610  -30.0950   23.9690 C   0  0  0  0  0  3  0  0  0  0  0  0
  -17.6560  -30.5940   24.1350 C   0  0  0  0  0  3  0  0  0  0  0  0
  -16.5530  -29.8260   23.7260 C   0  0  0  0  0  3  0  0  0  0  0  0
  -16.7570  -28.5630   23.1410 C   0  0  0  0  0  3  0  0  0  0  0  0
  -25.9110  -32.5010   23.8430 C   0  0  0  0  0  3  0  0  0  0  0  0
  -25.6030  -33.8960   24.1860 N   0  0  0  0  0  0  0  0  0  0  0  0
  -25.9250  -34.9530   23.4270 C   0  0  0  0  0  0  0  0  0  0  0  0
  -26.5840  -34.8550   22.3880 O   0  0  0  0  0  0  0  0  0  0  0  0
  -25.0180  -34.0470   24.9950 H   0  0  0  0  0  0  0  0  0  0  0  0
  -24.1900  -36.7410   23.1000 C   0  0  0  0  0  1  0  0  0  0  0  0
  -25.4410  -36.3380   23.8960 C   0  0  0  0  0  3  0  0  0  0  0  0
  -27.5860  -37.2230   24.7000 C   0  0  0  0  0  1  0  0  0  0  0  0
  -26.4700  -37.3930   23.7720 N   0  0  0  0  0  0  0  0  0  0  0  0
  -26.0650  -38.3120   23.9330 H   0  0  0  0  0  0  0  0  0  0  0  0
  -26.4480  -31.7210   25.1070 C   0  0  1  0  0  0  0  0  0  0  0  0
  -25.3700  -31.4750   26.1880 C   0  0  0  0  0  1  0  0  0  0  0  0
  -27.0260  -30.3480   24.6950 C   0  0  0  0  0  1  0  0  0  0  0  0
  -27.6070  -32.5120   25.7560 C   0  0  0  0  0  1  0  0  0  0  0  0
  1  2  1  0
  2 47  1  0
  2  4  1  0
  2  3  1  6
  5  6  1  0
  5  4  1  0
  7  6  1  0
  9  7  1  0
  9  8  2  0
 10  9  1  0
 11  8  1  0
 12 17  1  0
 13 14  1  0
 13 12  1  0
 15 14  1  0
 15 22  1  0
 15 16  1  0
 17 11  1  0
 17 16  1  0
 18 11  2  0
 19 20  2  0
 20 39  1  0
 21 20  1  0
 21 24  1  0
 22 19  1  0
 22 23  1  0
 23 21  2  0
 24 25  1  0
 25 26  2  0
 27 30  1  0
 27 26  1  0
 28 27  2  0
 29 28  1  0
 29 24  2  0
 30 31  1  0
 31 32  1  0
 32 33  2  0
 34 33  1  0
 34 38  1  0
 35 34  2  0
 36 31  2  0
 36 35  1  0
 37 36  1  0
 39 40  1  0
 40 43  1  0
 40 42  1  0
 41 39  2  0
 44 45  1  0
 44 19  1  0
 46 44  1  0
 47 48  1  0
 49 48  1  0
 50 61  2  0
 51 49  1  0
 51 56  1  0
 52 60  1  0
 52 62  1  0
 53 59  1  0
 53 55  1  0
 54 60  1  0
 55 54  1  0
 56 55  2  0
 57 58  1  0
 57 51  2  0
 58 53  2  0
 59 52  1  0
 60 50  1  0
 62 64  2  0
 63 62  1  0
 65 63  1  0
 66 75  2  0
 66 71  1  0
 67 63  1  0
 67 71  1  0
 68 67  1  0
 69 70  1  0
 69 68  1  0
 70 66  1  0
 71 72  2  0
 72 73  1  0
 74 73  2  0
 75 74  1  0
 76 50  1  0
 76 77  1  0
 76 86  1  0
 77 80  1  0
 78 82  1  0
 78 77  1  0
 79 78  2  0
 82 81  1  0
 84 82  1  0
 84 85  1  0
 84 83  1  0
 86 89  1  1
 86 87  1  0
 88 86  1  0
M  ISO  4   8 100  11 100  48 101  49 101
M  END
>  <TORSDO>  (11) 
F 23

>  <SCORE>  (11) 
-12.696

>  <name>  (11) 
10

>  <ligand_id>  (11) 
10

>  <original_smiles>  (11) 
[H]C(C(=O)N1C([H])([H])C([H])([H])C([H])([H])C([H])(n2nc(-c3c([H])c([H])c(Oc4c([H])c([H])c(F)c([H])c4F)c([H])c3[H])c(C(=O)N([H])[H])c2N([H])[H])C1([H])[H])=C(C([H])([H])[H])C([H])([H])C([H])([H])C([H])([H])C([H])([H])[N+]([H])(C([H])([H])[H])C([H])([H])C([H])([H])Oc1c([H])c([H])c2c(c1[H])C([H])([H])N(C(=O)C([H])(N([H])C(=O)C([H])(N([H])C([H])([H])[H])C([H])([H])[H])C(C([H])([H])[H])(C([H])([H])[H])C([H])([H])[H])C([H])(C(=O)N([H])C1([H])c3c([H])c([H])c([H])c([H])c3C([H])([H])C([H])([H])C1([H])[H])C2([H])[H]

>  <smiles>  (11) 
[H]C(C(=O)N1C([H])([H])C([H])([H])C([H])([H])C([H])(n2nc(-c3c([H])c([H])c(Oc4c([H])c([H])c(F)c([H])c4F)c([H])c3[H])c(C(=O)N([H])[H])c2N([H])[H])C1([H])[H])=C(C([H])([H])[H])C([H])([H])C([H])([H])C([H])([H])C([H])([H])[N+]([H])(C([H])([H])[H])C([H])([H])C([H])([H])Oc1c([H])c([H])c2c(c1[H])C([H])([H])N(C(=O)C([H])(N([H])C(=O)C([H])(N([H])C([H])([H])[H])C([H])([H])[H])C(C([H])([H])[H])(C([H])([H])[H])C([H])([H])[H])C([H])(C(=O)N([H])C1([H])c3c([H])c([H])c([H])c([H])c3C([H])([H])C([H])([H])C1([H])[H])C2([H])[H]

$$$$
11:0:0
     RDKit          3D

 98105  0  0  1  0  0  0  0  0999 V2000
  -22.7400  -31.3520   22.7090 C   0  0  0  0  0  0  0  0  0  0  0  0
  -21.5260  -31.8960   22.8990 N   0  0  0  0  0  4  0  0  0  0  0  0
  -23.2980  -32.1560   21.3630 N   0  0  0  0  0  0  0  0  0  0  0  0
  -22.9270  -30.2230   23.9270 N   0  0  0  0  0  0  0  0  0  0  0  0
  -21.1510  -32.5900   22.2710 H   0  0  0  0  0  0  0  0  0  0  0  0
  -21.0610  -31.8270   23.7880 H   0  0  0  0  0  0  0  0  0  0  0  0
  -22.7560  -32.9730   21.1160 H   0  0  0  0  0  0  0  0  0  0  0  0
  -22.1840  -30.2680   24.6060 H   0  0  0  0  0  0  0  0  0  0  0  0
  -24.5870  -31.9500   20.1230 C   0  0  0  0  0  2  0  0  0  0  0  0
  -26.1750  -30.9330   19.6380 C   0  0  0  0  0  2  0  0  0  0  0  0
  -26.9800  -29.4370   19.1350 O   0  0  0  0  0  0  0  0  0  0  0  0
  -25.0230  -31.7180   23.2750 C   0  0  0  0  0  0  0  0  0  0  0  0
  -27.3440  -28.1620   19.6830 C   0  0  0  0  0  3  0  0  0  0  0  0
  -23.5620  -29.7620   21.4540 C   0  0  0  0  0  3  0  0  0  0  0  0
  -24.9430  -28.4410   20.3310 C   0  0  0  0  0  3  0  0  0  0  0  0
  -26.0790  -29.9790   22.1300 C   0  0  0  0  0  2  0  0  0  0  0  0
  -26.0070  -28.8250   21.2350 C   0  0  0  0  0  3  0  0  0  0  0  0
  -27.2800  -28.3500   21.0160 C   0  0  0  0  0  2  0  0  0  0  0  0
  -26.4830  -27.1280   19.2180 C   0  0  0  0  0  2  0  0  0  0  0  0
  -25.1350  -27.4040   19.4310 C   0  0  0  0  0  2  0  0  0  0  0  0
  -23.7930  -29.2470   20.0950 C   0  0  0  0  0  2  0  0  0  0  0  0
  -24.8610  -30.5560   22.3430 N   0  0  0  0  0  0  0  0  0  0  0  0
  -24.0850  -32.3770   23.7900 O   0  0  0  0  0  0  0  0  0  0  0  0
  -22.5720  -28.7280   21.9390 C   0  0  0  0  0  0  0  0  0  0  0  0
  -21.2670  -29.0030   22.1340 N   0  0  0  0  0  0  0  0  0  0  0  0
  -23.0850  -27.7580   22.3680 O   0  0  0  0  0  0  0  0  0  0  0  0
  -20.8870  -29.8950   21.8480 H   0  0  0  0  0  0  0  0  0  0  0  0
  -17.9480  -28.1370   22.8110 C   0  0  0  0  0  0  0  0  0  0  0  0
  -20.4870  -28.2260   23.0780 C   0  0  0  0  0  3  0  0  0  0  0  0
  -20.4360  -26.7420   22.6510 C   0  0  0  0  0  2  0  0  0  0  0  0
  -19.4470  -26.5410   21.5220 C   0  0  0  0  0  2  0  0  0  0  0  0
  -18.0520  -26.8060   22.0790 C   0  0  0  0  0  2  0  0  0  0  0  0
  -19.0970  -28.8260   23.2700 C   0  0  0  0  0  0  0  0  0  0  0  0
  -18.9390  -30.0750   23.9100 C   0  0  0  0  0  3  0  0  0  0  0  0
  -17.6600  -30.6380   24.0810 C   0  0  0  0  0  3  0  0  0  0  0  0
  -16.5230  -29.9360   23.6430 C   0  0  0  0  0  3  0  0  0  0  0  0
  -16.6690  -28.6860   23.0200 C   0  0  0  0  0  3  0  0  0  0  0  0
  -26.2770  -32.4040   23.8490 C   0  0  0  0  0  3  0  0  0  0  0  0
  -25.9320  -33.8260   24.2170 N   0  0  0  0  0  0  0  0  0  0  0  0
  -26.0170  -34.9180   23.4540 C   0  0  0  0  0  0  0  0  0  0  0  0
  -26.5690  -34.8920   22.3550 O   0  0  0  0  0  0  0  0  0  0  0  0
  -25.4170  -33.9200   25.0790 H   0  0  0  0  0  0  0  0  0  0  0  0
  -24.1750  -36.6620   23.2570 C   0  0  0  0  0  1  0  0  0  0  0  0
  -25.4540  -36.2520   24.0090 C   0  0  0  0  0  3  0  0  0  0  0  0
  -27.5650  -37.1800   24.8490 C   0  0  0  0  0  1  0  0  0  0  0  0
  -26.4300  -37.3610   23.9480 N   0  0  0  0  0  0  0  0  0  0  0  0
  -25.9850  -38.2450   24.1770 H   0  0  0  0  0  0  0  0  0  0  0  0
  -26.6880  -31.6760   25.1820 C   0  0  1  0  0  0  0  0  0  0  0  0
  -25.5480  -31.4850   26.2300 C   0  0  0  0  0  1  0  0  0  0  0  0
  -27.4280  -30.3420   24.9130 C   0  0  0  0  0  1  0  0  0  0  0  0
  -27.7550  -32.5450   25.8740 C   0  0  0  0  0  1  0  0  0  0  0  0
  -24.0430  -28.9230   24.4620 C   0  0  0  0  0  2  0  0  0  0  0  0
  -24.4070  -27.0490   24.3430 C   0  0  0  0  0  3  0  0  0  0  0  0
  -25.6290  -25.8440   23.6130 C   0  0  0  0  0  3  0  0  0  0  0  0
  -25.7200  -24.0250   23.2070 C   0  0  0  0  0  2  0  0  0  0  0  0
  -26.9950  -22.6720   23.0200 C   0  0  0  0  0  2  0  0  0  0  0  0
  -27.1750  -21.0440   22.1230 C   0  0  0  0  0  2  0  0  0  0  0  0
  -27.7660  -19.0630   23.6440 C   0  0  0  0  0  1  0  0  0  0  0  0
  -28.1560  -19.6580   22.3510 N   0  0  1  0  0  4  0  0  0  0  0  0
  -29.0550  -20.0750   22.5410 H   0  0  0  0  0  0  0  0  0  0  0  0
  -28.6020  -18.3740   21.3020 C   0  0  0  0  0  3  0  0  0  0  0  0
  -29.2690  -16.6590   21.5950 C   0  0  0  0  0  3  0  0  0  0  0  0
  -30.1560  -15.3120   20.7540 C   0  0  0  0  0  0  0  0  0  0  0  0
  -30.4230  -12.9070   19.6390 C   0  0  0  0  0  2  0  0  0  0  0  0
  -29.5550  -12.6580   18.3660 C   0  0  0  0  0  2  0  0  0  0  0  0
  -28.0990  -12.3250   18.7380 C   0  0  0  0  0  2  0  0  0  0  0  0
  -27.5990  -13.2570   19.8660 C   0  0  0  0  0  3  0  0  0  0  0  0
  -28.5670  -13.3170   21.0580 C   0  0  0  0  0  2  0  0  0  0  0  0
  -29.7810  -13.9440   20.5570 N   0  0  0  0  0  0  0  0  0  0  0  0
  -31.3140  -15.4750   20.3090 O   0  0  0  0  0  0  0  0  0  0  0  0
  -25.2270  -13.8190   20.5690 C   0  0  0  0  0  0  0  0  0  0  0  0
  -24.1630  -13.0400   20.9220 C   0  0  0  0  0  0  0  0  0  0  0  0
  -24.6280  -11.6890   20.8730 C   0  0  0  0  0  0  0  0  0  0  0  0
  -26.2610  -12.9390   20.3140 N   0  0  0  0  0  0  0  0  0  0  0  0
  -25.9180  -11.6520   20.5650 N   0  0  0  0  0  0  0  0  0  0  0  0
  -23.9010  -10.4260   21.0420 C   0  0  0  0  0  0  0  0  0  0  0  0
  -24.3600   -9.4190   21.9180 C   0  0  0  0  0  3  0  0  0  0  0  0
  -23.6290   -8.2210   22.0740 C   0  0  0  0  0  3  0  0  0  0  0  0
  -22.4270   -8.0250   21.3540 C   0  0  0  0  0  0  0  0  0  0  0  0
  -21.9890   -9.0220   20.4640 C   0  0  0  0  0  3  0  0  0  0  0  0
  -22.7200  -10.2100   20.3050 C   0  0  0  0  0  3  0  0  0  0  0  0
  -21.6630   -6.8860   21.4240 O   0  0  0  0  0  0  0  0  0  0  0  0
  -21.6840   -6.0730   22.5290 C   0  0  0  0  0  0  0  0  0  0  0  0
  -21.4010   -6.5640   23.8220 C   0  0  0  0  0  3  0  0  0  0  0  0
  -21.3650   -5.6790   24.9180 C   0  0  0  0  0  3  0  0  0  0  0  0
  -21.6040   -4.3060   24.7240 C   0  0  0  0  0  0  0  0  0  0  0  0
  -21.8820   -3.8140   23.4360 C   0  0  0  0  0  3  0  0  0  0  0  0
  -21.9190   -4.6960   22.3410 C   0  0  0  0  0  0  0  0  0  0  0  0
  -22.1660   -4.2150   21.0990 F   0  0  0  0  0  0  0  0  0  0  0  0
  -21.5620   -3.4540   25.7750 F   0  0  0  0  0  0  0  0  0  0  0  0
  -22.7690  -13.5180   21.1920 C   0  0  0  0  0  0  0  0  0  0  0  0
  -22.0380  -12.8150   22.0490 N   0  0  0  0  0  0  0  0  0  0  0  0
  -22.3380  -14.5500   20.6790 O   0  0  0  0  0  0  0  0  0  0  0  0
  -22.4030  -11.9810   22.4850 H   0  0  0  0  0  0  0  0  0  0  0  0
  -21.0990  -13.1130   22.2720 H   0  0  0  0  0  0  0  0  0  0  0  0
  -25.4000  -15.1930   20.4190 N   0  0  0  0  0  0  0  0  0  0  0  0
  -24.6270  -15.8410   20.5160 H   0  0  0  0  0  0  0  0  0  0  0  0
  -26.2390  -15.6260   20.0550 H   0  0  0  0  0  0  0  0  0  0  0  0
  1  2  2  0
  1  4  1  0
  2  6  1  0
  3  1  1  0
  4 52  1  0
  4  8  1  0
  5  2  1  0
  7  3  1  0
  9  3  1  0
 10  9  1  0
 11 10  1  0
 12 23  2  0
 13 11  1  0
 13 18  1  0
 14 24  1  0
 14 22  1  0
 15 20  1  0
 15 17  1  0
 16 22  1  0
 17 18  1  0
 17 16  1  0
 19 20  1  0
 19 13  1  0
 21 15  1  0
 21 14  1  0
 22 12  1  0
 24 25  1  0
 24 26  2  0
 27 25  1  0
 28 37  2  0
 28 33  1  0
 29 25  1  0
 29 33  1  0
 30 29  1  0
 31 32  1  0
 31 30  1  0
 32 28  1  0
 33 34  2  0
 34 35  1  0
 36 35  2  0
 37 36  1  0
 38 12  1  0
 38 39  1  0
 38 48  1  0
 39 42  1  0
 40 44  1  0
 40 39  1  0
 41 40  2  0
 44 43  1  0
 46 44  1  0
 46 47  1  0
 46 45  1  0
 48 51  1  1
 48 49  1  0
 50 48  1  0
 53 52  1  0
 54 53  2  0
 55 54  1  0
 56 55  1  0
 57 59  1  0
 57 56  1  0
 59 60  1  1
 59 58  1  0
 61 62  2  0
 61 59  1  0
 63 62  1  0
 64 69  1  0
 65 66  1  0
 65 64  1  0
 67 66  1  0
 67 74  1  0
 67 68  1  0
 69 63  1  0
 69 68  1  0
 70 63  2  0
 71 72  2  0
 72 91  1  0
 73 72  1  0
 73 76  1  0
 74 75  1  0
 74 71  1  0
 75 73  2  0
 76 77  1  0
 77 78  2  0
 79 82  1  0
 79 78  1  0
 80 79  2  0
 81 80  1  0
 81 76  2  0
 82 83  1  0
 83 84  1  0
 84 85  2  0
 86 85  1  0
 86 90  1  0
 87 86  2  0
 88 83  2  0
 88 87  1  0
 89 88  1  0
 91 92  1  0
 92 95  1  0
 92 94  1  0
 93 91  2  0
 96 97  1  0
 96 71  1  0
 98 96  1  0
M  ISO  4  10 101  11 101  62 100  63 100
M  END
>  <TORSDO>  (12) 
F 27

>  <SCORE>  (12) 
19.970

>  <name>  (12) 
11

>  <ligand_id>  (12) 
11

>  <original_smiles>  (12) 
[H]c1c([H])c([H])c2c(c1[H])C([H])([H])C([H])([H])C([H])([H])C2([H])N([H])C(=O)C1([H])N(C(=O)C([H])(N([H])C(=O)C([H])(N([H])C([H])([H])[H])C([H])([H])[H])C(C([H])([H])[H])(C([H])([H])[H])C([H])([H])[H])C([H])([H])c2c([H])c(OC([H])([H])C([H])([H])N([H])C(N([H])[H])=[N+]([H])C([H])([H])C([H])([H])C([H])([H])C([H])([H])C([H])([H])C([H])([H])[N+]([H])(C([H])([H])[H])C([H])([H])C([H])([H])C(=O)N3C([H])([H])C([H])([H])C([H])([H])C([H])(n4nc(-c5c([H])c([H])c(Oc6c([H])c([H])c(F)c([H])c6F)c([H])c5[H])c(C(=O)N([H])[H])c4N([H])[H])C3([H])[H])c([H])c([H])c2C1([H])[H]

>  <smiles>  (12) 
[H]c1c([H])c([H])c2c(c1[H])C([H])([H])C([H])([H])C([H])([H])C2([H])N([H])C(=O)C1([H])N(C(=O)C([H])(N([H])C(=O)C([H])(N([H])C([H])([H])[H])C([H])([H])[H])C(C([H])([H])[H])(C([H])([H])[H])C([H])([H])[H])C([H])([H])c2c([H])c(OC([H])([H])C([H])([H])N([H])C(N([H])[H])=[N+]([H])C([H])([H])C([H])([H])C([H])([H])C([H])([H])C([H])([H])C([H])([H])[N+]([H])(C([H])([H])[H])C([H])([H])C([H])([H])C(=O)N3C([H])([H])C([H])([H])C([H])([H])C([H])(n4nc(-c5c([H])c([H])c(Oc6c([H])c([H])c(F)c([H])c6F)c([H])c5[H])c(C(=O)N([H])[H])c4N([H])[H])C3([H])[H])c([H])c([H])c2C1([H])[H]

$$$$
12:0:0
     RDKit          3D

 84 88  0  0  1  0  0  0  0  0999 V2000
  -28.3930  -23.3790   19.8880 C   0  0  0  0  0 15  0  0  0  0  0  0
  -30.0310  -21.6830   21.4170 C   0  0  0  0  0  1  0  0  0  0  0  0
  -27.6180  -21.0420   21.2730 C   0  0  0  0  0  1  0  0  0  0  0  0
  -28.8670  -21.3980   20.4560 C   0  0  0  0  0  2  0  0  0  0  0  0
  -29.4560  -19.4750   19.8290 C   0  0  0  0  0  1  0  0  0  0  0  0
  -30.2070  -16.1150   20.0280 C   0  0  0  0  0  0  0  0  0  0  0  0
  -30.3640  -13.4810   19.2300 C   0  0  0  0  0  2  0  0  0  0  0  0
  -29.4800  -12.9230   18.0630 C   0  0  0  0  0  2  0  0  0  0  0  0
  -28.0950  -12.4960   18.5650 C   0  0  0  0  0  2  0  0  0  0  0  0
  -27.5700  -13.5120   19.5980 C   0  0  0  0  0  3  0  0  0  0  0  0
  -28.6050  -13.9520   20.6720 C   0  0  0  0  0  2  0  0  0  0  0  0
  -29.7120  -14.6880   19.9790 N   0  0  0  0  0  0  0  0  0  0  0  0
  -31.4310  -15.9810   19.7820 O   0  0  0  0  0  0  0  0  0  0  0  0
  -29.4850  -17.5910   20.1660 N   0  0  0  0  0  0  0  0  0  0  0  0
  -28.5490  -17.3600   20.4680 H   0  0  0  0  0  0  0  0  0  0  0  0
  -25.2340  -14.0180   20.4290 C   0  0  0  0  0  0  0  0  0  0  0  0
  -24.1850  -13.2370   20.8160 C   0  0  0  0  0  0  0  0  0  0  0  0
  -24.6540  -11.8870   20.7660 C   0  0  0  0  0  0  0  0  0  0  0  0
  -26.2730  -13.1520   20.1550 N   0  0  0  0  0  0  0  0  0  0  0  0
  -25.9410  -11.8590   20.4230 N   0  0  0  0  0  0  0  0  0  0  0  0
  -23.9260  -10.6250   20.9680 C   0  0  0  0  0  0  0  0  0  0  0  0
  -24.3690   -9.6540   21.8950 C   0  0  0  0  0  3  0  0  0  0  0  0
  -23.6340   -8.4640   22.0920 C   0  0  0  0  0  3  0  0  0  0  0  0
  -22.4440   -8.2350   21.3610 C   0  0  0  0  0  0  0  0  0  0  0  0
  -22.0190   -9.1950   20.4250 C   0  0  0  0  0  3  0  0  0  0  0  0
  -22.7530  -10.3760   20.2260 C   0  0  0  0  0  3  0  0  0  0  0  0
  -21.6810   -7.0960   21.4650 O   0  0  0  0  0  0  0  0  0  0  0  0
  -21.6450   -6.3560   22.6190 C   0  0  0  0  0  0  0  0  0  0  0  0
  -21.2390   -6.9140   23.8500 C   0  0  0  0  0  3  0  0  0  0  0  0
  -21.1520   -6.1010   24.9970 C   0  0  0  0  0  3  0  0  0  0  0  0
  -21.4600   -4.7300   24.9150 C   0  0  0  0  0  0  0  0  0  0  0  0
  -21.8580   -4.1710   23.6880 C   0  0  0  0  0  3  0  0  0  0  0  0
  -21.9490   -4.9810   22.5430 C   0  0  0  0  0  0  0  0  0  0  0  0
  -22.3130   -4.4320   21.3580 F   0  0  0  0  0  0  0  0  0  0  0  0
  -21.3680   -3.9470   26.0160 F   0  0  0  0  0  0  0  0  0  0  0  0
  -22.7950  -13.7160   21.1110 C   0  0  0  0  0  0  0  0  0  0  0  0
  -22.0850  -13.0310   21.9980 N   0  0  0  0  0  0  0  0  0  0  0  0
  -22.3500  -14.7400   20.5910 O   0  0  0  0  0  0  0  0  0  0  0  0
  -22.4620  -12.2080   22.4430 H   0  0  0  0  0  0  0  0  0  0  0  0
  -21.1530  -13.3370   22.2370 H   0  0  0  0  0  0  0  0  0  0  0  0
  -25.3910  -15.3880   20.2500 N   0  0  0  0  0  0  0  0  0  0  0  0
  -24.6260  -16.0420   20.3740 H   0  0  0  0  0  0  0  0  0  0  0  0
  -26.2260  -15.8190   19.8760 H   0  0  0  0  0  0  0  0  0  0  0  0
  -28.2260  -25.2270   20.3080 O   0  0  0  0  0  1  0  0  0  0  0  0
  -24.7120  -31.8280   23.1410 C   0  0  0  0  0  0  0  0  0  0  0  0
  -27.2760  -26.5470   20.1900 C   0  0  0  0  0  0  0  0  0  0  0  0
  -23.5420  -30.4050   21.5170 C   0  0  0  0  0  3  0  0  0  0  0  0
  -25.0060  -28.7140   20.1230 C   0  0  0  0  0  0  0  0  0  0  0  0
  -26.1300  -30.4980   21.4210 C   0  0  0  0  0  2  0  0  0  0  0  0
  -26.2030  -29.0370   20.7690 C   0  0  0  0  0  0  0  0  0  0  0  0
  -27.3030  -27.9880   20.7700 C   0  0  0  0  0  3  0  0  0  0  0  0
  -26.0430  -26.5040   19.4680 C   0  0  0  0  0  3  0  0  0  0  0  0
  -24.9800  -27.4770   19.4470 C   0  0  0  0  0  3  0  0  0  0  0  0
  -23.7980  -29.6820   20.1590 C   0  0  0  0  0  2  0  0  0  0  0  0
  -24.8210  -30.9510   22.0760 N   0  0  0  0  0  0  0  0  0  0  0  0
  -23.6130  -32.1310   23.6400 O   0  0  0  0  0  0  0  0  0  0  0  0
  -22.8120  -29.4500   22.5020 C   0  0  0  0  0  0  0  0  0  0  0  0
  -21.4760  -29.3040   22.3900 N   0  0  0  0  0  0  0  0  0  0  0  0
  -23.4660  -28.8330   23.3460 O   0  0  0  0  0  0  0  0  0  0  0  0
  -20.9930  -29.8530   21.6920 H   0  0  0  0  0  0  0  0  0  0  0  0
  -18.0920  -28.0800   22.9390 C   0  0  0  0  0  0  0  0  0  0  0  0
  -20.6540  -28.3700   23.1740 C   0  0  0  0  0  3  0  0  0  0  0  0
  -20.7580  -26.9340   22.6090 C   0  0  0  0  0  2  0  0  0  0  0  0
  -19.6510  -26.6010   21.6030 C   0  0  0  0  0  2  0  0  0  0  0  0
  -18.2740  -26.7340   22.2580 C   0  0  0  0  0  2  0  0  0  0  0  0
  -19.2090  -28.8560   23.3540 C   0  0  0  0  0  0  0  0  0  0  0  0
  -18.9800  -30.1110   23.9600 C   0  0  0  0  0  3  0  0  0  0  0  0
  -17.6700  -30.5930   24.1470 C   0  0  0  0  0  3  0  0  0  0  0  0
  -16.5700  -29.8170   23.7420 C   0  0  0  0  0  3  0  0  0  0  0  0
  -16.7820  -28.5600   23.1460 C   0  0  0  0  0  3  0  0  0  0  0  0
  -25.9590  -32.5060   23.7860 C   0  0  0  0  0  3  0  0  0  0  0  0
  -25.6110  -33.9030   24.1290 N   0  0  0  0  0  0  0  0  0  0  0  0
  -25.9300  -34.9840   23.4050 C   0  0  0  0  0  0  0  0  0  0  0  0
  -26.5950  -34.9120   22.3700 O   0  0  0  0  0  0  0  0  0  0  0  0
  -25.0140  -34.0310   24.9330 H   0  0  0  0  0  0  0  0  0  0  0  0
  -24.1730  -36.7730   23.1230 C   0  0  0  0  0  1  0  0  0  0  0  0
  -25.4350  -36.3620   23.8990 C   0  0  0  0  0  3  0  0  0  0  0  0
  -27.5710  -37.2690   24.7100 C   0  0  0  0  0  1  0  0  0  0  0  0
  -26.4520  -37.4330   23.7870 N   0  0  0  0  0  0  0  0  0  0  0  0
  -26.0360  -38.3460   23.9520 H   0  0  0  0  0  0  0  0  0  0  0  0
  -26.4680  -31.7590   25.0820 C   0  0  1  0  0  0  0  0  0  0  0  0
  -25.3620  -31.5250   26.1400 C   0  0  0  0  0  1  0  0  0  0  0  0
  -27.0660  -30.3780   24.7330 C   0  0  0  0  0  1  0  0  0  0  0  0
  -27.6060  -32.5710   25.7450 C   0  0  0  0  0  1  0  0  0  0  0  0
  4  3  1  0
  4  2  1  0
  5 14  1  0
  6 14  1  0
  7 12  1  0
  8  9  1  0
  8  7  1  0
 10  9  1  0
 10 19  1  0
 10 11  1  0
 12  6  1  0
 12 11  1  0
 13  6  2  0
 14 15  1  0
 16 17  2  0
 17 36  1  0
 18 17  1  0
 18 21  1  0
 19 20  1  0
 19 16  1  0
 20 18  2  0
 21 22  1  0
 22 23  2  0
 24 27  1  0
 24 23  1  0
 25 24  2  0
 26 25  1  0
 26 21  2  0
 27 28  1  0
 28 29  1  0
 29 30  2  0
 31 30  1  0
 31 35  1  0
 32 31  2  0
 33 28  2  0
 33 32  1  0
 34 33  1  0
 36 37  1  0
 37 40  1  0
 37 39  1  0
 38 36  2  0
 41 42  1  0
 41 16  1  0
 43 41  1  0
 45 56  2  0
 46 44  1  0
 46 51  1  0
 47 55  1  0
 47 57  1  0
 48 54  1  0
 48 50  1  0
 49 55  1  0
 50 51  2  0
 50 49  1  0
 52 46  2  0
 53 52  1  0
 53 48  2  0
 54 47  1  0
 55 45  1  0
 57 59  2  0
 58 57  1  0
 60 58  1  0
 61 70  2  0
 61 66  1  0
 62 58  1  0
 62 66  1  0
 63 62  1  0
 64 65  1  0
 64 63  1  0
 65 61  1  0
 66 67  2  0
 67 68  1  0
 69 68  2  0
 70 69  1  0
 71 45  1  0
 71 72  1  0
 71 81  1  0
 72 75  1  0
 73 77  1  0
 73 72  1  0
 74 73  2  0
 77 76  1  0
 79 77  1  0
 79 80  1  0
 79 78  1  0
 81 84  1  1
 81 82  1  0
 83 81  1  0
M  ISO  4   1 101   6 100  14 100  44 101
M  END
>  <TORSDO>  (13) 
F 18

>  <SCORE>  (13) 
-15.543

>  <name>  (13) 
12

>  <ligand_id>  (13) 
12

>  <original_smiles>  (13) 
[H]c1c([H])c([H])c2c(c1[H])C([H])([H])C([H])([H])C([H])([H])C2([H])N([H])C(=O)C1([H])N(C(=O)C([H])(N([H])C(=O)C([H])(N([H])C([H])([H])[H])C([H])([H])[H])C(C([H])([H])[H])(C([H])([H])[H])C([H])([H])[H])C([H])([H])c2c([H])c(OC([H])([H])C(C([H])([H])[H])(C([H])([H])[H])C([H])([H])N([H])C(=O)N3C([H])([H])C([H])([H])C([H])([H])C([H])(n4nc(-c5c([H])c([H])c(Oc6c([H])c([H])c(F)c([H])c6F)c([H])c5[H])c(C(=O)N([H])[H])c4N([H])[H])C3([H])[H])c([H])c([H])c2C1([H])[H]

>  <smiles>  (13) 
[H]c1c([H])c([H])c2c(c1[H])C([H])([H])C([H])([H])C([H])([H])C2([H])N([H])C(=O)C1([H])N(C(=O)C([H])(N([H])C(=O)C([H])(N([H])C([H])([H])[H])C([H])([H])[H])C(C([H])([H])[H])(C([H])([H])[H])C([H])([H])[H])C([H])([H])c2c([H])c(OC([H])([H])C(C([H])([H])[H])(C([H])([H])[H])C([H])([H])N([H])C(=O)N3C([H])([H])C([H])([H])C([H])([H])C([H])(n4nc(-c5c([H])c([H])c(Oc6c([H])c([H])c(F)c([H])c6F)c([H])c5[H])c(C(=O)N([H])[H])c4N([H])[H])C3([H])[H])c([H])c([H])c2C1([H])[H]

$$$$
13:0:0
     RDKit          3D

 96104  0  0  1  0  0  0  0  0999 V2000
  -29.2000  -20.1740   22.5410 C   0  0  0  0  0  3  0  0  0  0  0  0
  -29.8780  -18.8610   23.0730 C   0  0  0  0  0  2  0  0  0  0  0  0
  -30.5860  -18.0260   21.9590 C   0  0  0  0  0  2  0  0  0  0  0  0
  -30.6510  -16.4740   22.1980 C   0  0  0  0  0  2  0  0  0  0  0  0
  -30.6300  -14.5690   20.5870 C   0  0  0  0  0  0  0  0  0  0  0  0
  -30.4270  -12.3650   19.4120 C   0  0  0  0  0  2  0  0  0  0  0  0
  -29.4750  -12.4480   18.2030 C   0  0  0  0  0  2  0  0  0  0  0  0
  -28.0150  -12.1690   18.6200 C   0  0  0  0  0  2  0  0  0  0  0  0
  -27.6110  -13.0830   19.7900 C   0  0  0  0  0  3  0  0  0  0  0  0
  -28.6550  -13.0380   20.9470 C   0  0  0  0  0  2  0  0  0  0  0  0
  -29.9750  -13.3760   20.3990 N   0  0  0  0  0  0  0  0  0  0  0  0
  -31.7820  -14.7200   20.1630 O   0  0  0  0  0  0  0  0  0  0  0  0
  -29.9480  -15.5990   21.2130 N   0  0  0  0  0  0  0  0  0  0  0  0
  -25.2470  -13.7750   20.5300 C   0  0  0  0  0  0  0  0  0  0  0  0
  -24.1770  -13.0220   20.9080 C   0  0  0  0  0  0  0  0  0  0  0  0
  -24.6240  -11.6660   20.8680 C   0  0  0  0  0  0  0  0  0  0  0  0
  -26.2700  -12.8630   20.2940 N   0  0  0  0  0  0  0  0  0  0  0  0
  -25.9080  -11.5970   20.5700 N   0  0  0  0  0  0  0  0  0  0  0  0
  -23.8880  -10.4220   21.0480 C   0  0  0  0  0  0  0  0  0  0  0  0
  -24.3510   -9.4180   21.9260 C   0  0  0  0  0  3  0  0  0  0  0  0
  -23.6260   -8.2200   22.0790 C   0  0  0  0  0  3  0  0  0  0  0  0
  -22.4230   -8.0260   21.3570 C   0  0  0  0  0  0  0  0  0  0  0  0
  -21.9830   -9.0200   20.4650 C   0  0  0  0  0  3  0  0  0  0  0  0
  -22.7100  -10.2080   20.3110 C   0  0  0  0  0  3  0  0  0  0  0  0
  -21.6620   -6.8840   21.4220 O   0  0  0  0  0  0  0  0  0  0  0  0
  -21.6840   -6.0750   22.5270 C   0  0  0  0  0  0  0  0  0  0  0  0
  -21.4010   -6.5670   23.8220 C   0  0  0  0  0  3  0  0  0  0  0  0
  -21.3630   -5.6780   24.9160 C   0  0  0  0  0  3  0  0  0  0  0  0
  -21.6040   -4.3060   24.7190 C   0  0  0  0  0  0  0  0  0  0  0  0
  -21.8850   -3.8170   23.4330 C   0  0  0  0  0  3  0  0  0  0  0  0
  -21.9220   -4.7000   22.3390 C   0  0  0  0  0  0  0  0  0  0  0  0
  -22.1690   -4.2230   21.0960 F   0  0  0  0  0  0  0  0  0  0  0  0
  -21.5590   -3.4510   25.7690 F   0  0  0  0  0  0  0  0  0  0  0  0
  -22.7860  -13.5160   21.1860 C   0  0  0  0  0  0  0  0  0  0  0  0
  -22.0470  -12.8180   22.0400 N   0  0  0  0  0  0  0  0  0  0  0  0
  -22.3650  -14.5560   20.6820 O   0  0  0  0  0  0  0  0  0  0  0  0
  -22.4080  -11.9760   22.4650 H   0  0  0  0  0  0  0  0  0  0  0  0
  -21.1160  -13.1210   22.2850 H   0  0  0  0  0  0  0  0  0  0  0  0
  -25.4090  -15.1410   20.3410 N   0  0  0  0  0  0  0  0  0  0  0  0
  -24.6360  -15.7630   20.5370 H   0  0  0  0  0  0  0  0  0  0  0  0
  -26.2960  -15.6250   20.4060 H   0  0  0  0  0  0  0  0  0  0  0  0
  -28.8440  -16.2380   20.4460 C   0  0  0  0  0  2  0  0  0  0  0  0
  -25.2340  -18.2260   21.7580 C   0  0  0  0  0  3  0  0  0  0  0  0
  -25.8750  -18.6030   20.5600 C   0  0  0  0  0  3  0  0  0  0  0  0
  -25.8730  -17.3370   22.6330 C   0  0  0  0  0  3  0  0  0  0  0  0
  -27.0880  -18.0020   20.1970 C   0  0  0  0  0  3  0  0  0  0  0  0
  -27.1460  -16.7890   22.3120 C   0  0  0  0  0  3  0  0  0  0  0  0
  -27.7390  -17.0940   21.0580 C   0  0  0  0  0  0  0  0  0  0  0  0
  -29.3310  -21.4510   23.4120 C   0  0  0  0  0  3  0  0  0  0  0  0
  -28.3000  -22.6010   23.1310 C   0  0  0  0  0  2  0  0  0  0  0  0
  -28.3600  -23.2190   21.7720 N   0  0  0  0  0  4  0  0  0  0  0  0
  -27.5960  -22.8400   21.2290 H   0  0  0  0  0  0  0  0  0  0  0  0
  -29.2110  -22.9330   21.3160 H   0  0  0  0  0  0  0  0  0  0  0  0
  -28.2260  -24.7120   21.7050 C   0  0  0  0  0  2  0  0  0  0  0  0
  -28.3480  -25.2560   20.2550 C   0  0  0  0  0  2  0  0  0  0  0  0
  -28.3980  -26.6950   20.1660 O   0  0  0  0  0  0  0  0  0  0  0  0
  -24.6100  -31.8660   23.2220 C   0  0  0  0  0  0  0  0  0  0  0  0
  -27.2210  -27.4190   20.1270 C   0  0  0  0  0  0  0  0  0  0  0  0
  -23.3970  -30.4740   21.5770 C   0  0  0  0  0  3  0  0  0  0  0  0
  -24.8380  -28.9520   20.1290 C   0  0  0  0  0  0  0  0  0  0  0  0
  -25.9190  -30.8320   21.3770 C   0  0  0  0  0  2  0  0  0  0  0  0
  -26.0000  -29.4680   20.7100 C   0  0  0  0  0  0  0  0  0  0  0  0
  -27.1970  -28.7150   20.6990 C   0  0  0  0  0  3  0  0  0  0  0  0
  -26.0420  -26.9330   19.5150 C   0  0  0  0  0  3  0  0  0  0  0  0
  -24.8550  -27.6890   19.5170 C   0  0  0  0  0  3  0  0  0  0  0  0
  -23.6010  -29.8120   20.1870 C   0  0  0  0  0  2  0  0  0  0  0  0
  -24.6590  -31.0720   22.1190 N   0  0  0  0  0  0  0  0  0  0  0  0
  -23.5280  -32.1480   23.7600 O   0  0  0  0  0  0  0  0  0  0  0  0
  -22.7490  -29.4370   22.5270 C   0  0  0  0  0  0  0  0  0  0  0  0
  -21.4210  -29.2720   22.4050 N   0  0  0  0  0  0  0  0  0  0  0  0
  -23.4290  -28.7990   23.3350 O   0  0  0  0  0  0  0  0  0  0  0  0
  -20.9390  -29.8780   21.7460 H   0  0  0  0  0  0  0  0  0  0  0  0
  -18.0180  -28.1470   22.8560 C   0  0  0  0  0  0  0  0  0  0  0  0
  -20.5760  -28.3360   23.1460 C   0  0  0  0  0  3  0  0  0  0  0  0
  -20.6480  -26.9000   22.5560 C   0  0  0  0  0  2  0  0  0  0  0  0
  -19.5450  -26.6370   21.5210 C   0  0  0  0  0  2  0  0  0  0  0  0
  -18.1640  -26.7850   22.1830 C   0  0  0  0  0  2  0  0  0  0  0  0
  -19.1510  -28.8710   23.2960 C   0  0  0  0  0  0  0  0  0  0  0  0
  -18.9680  -30.1420   23.8980 C   0  0  0  0  0  3  0  0  0  0  0  0
  -17.6830  -30.6890   24.0650 C   0  0  0  0  0  3  0  0  0  0  0  0
  -16.5590  -29.9530   23.6510 C   0  0  0  0  0  3  0  0  0  0  0  0
  -16.7250  -28.6910   23.0460 C   0  0  0  0  0  3  0  0  0  0  0  0
  -25.9020  -32.4820   23.8460 C   0  0  0  0  0  3  0  0  0  0  0  0
  -26.4510  -31.6550   25.0730 C   0  0  1  0  0  0  0  0  0  0  0  0
  -25.3750  -31.3620   26.1440 C   0  0  0  0  0  1  0  0  0  0  0  0
  -27.0290  -30.2950   24.6080 C   0  0  0  0  0  1  0  0  0  0  0  0
  -27.6060  -32.4310   25.7500 C   0  0  0  0  0  1  0  0  0  0  0  0
  -25.5910  -33.8630   24.2370 N   0  0  0  0  0  0  0  0  0  0  0  0
  -25.9070  -34.9440   23.5120 C   0  0  0  0  0  0  0  0  0  0  0  0
  -26.5600  -34.8860   22.4690 O   0  0  0  0  0  0  0  0  0  0  0  0
  -25.0050  -33.9850   25.0490 H   0  0  0  0  0  0  0  0  0  0  0  0
  -24.1510  -36.7280   23.2630 C   0  0  0  0  0  1  0  0  0  0  0  0
  -25.4150  -36.3070   24.0310 C   0  0  0  0  0  3  0  0  0  0  0  0
  -27.5590  -37.1770   24.8440 C   0  0  0  0  0  1  0  0  0  0  0  0
  -26.4330  -37.3730   23.9370 N   0  0  0  0  0  0  0  0  0  0  0  0
  -26.0200  -38.2790   24.1420 H   0  0  0  0  0  0  0  0  0  0  0  0
  1  2  1  0
  1 49  2  0
  3  4  1  0
  3  2  1  0
  5 13  1  0
  6 11  1  0
  7  8  1  0
  7  6  1  0
  9  8  1  0
  9 17  1  0
  9 10  1  0
 11  5  1  0
 11 10  1  0
 12  5  2  0
 13  4  1  0
 14 15  2  0
 15 34  1  0
 16 15  1  0
 16 19  1  0
 17 14  1  0
 17 18  1  0
 18 16  2  0
 19 20  1  0
 20 21  2  0
 22 25  1  0
 22 21  1  0
 23 22  2  0
 24 23  1  0
 24 19  2  0
 25 26  1  0
 26 27  1  0
 27 28  2  0
 29 28  1  0
 29 33  1  0
 30 29  2  0
 31 26  2  0
 31 30  1  0
 32 31  1  0
 34 35  1  0
 35 38  1  0
 35 37  1  0
 36 34  2  0
 39 41  1  0
 39 14  1  0
 39 40  1  0
 42 48  1  0
 42 13  1  0
 43 45  1  0
 44 43  2  0
 46 44  1  0
 46 48  2  0
 47 45  2  0
 48 47  1  0
 50 49  1  0
 51 50  1  0
 52 51  1  0
 53 51  1  0
 54 51  1  0
 55 54  1  0
 56 55  1  0
 57 68  2  0
 58 56  1  0
 58 63  1  0
 59 67  1  0
 59 69  1  0
 60 66  1  0
 60 62  1  0
 61 67  1  0
 62 61  1  0
 63 62  2  0
 64 65  1  0
 64 58  2  0
 65 60  2  0
 66 59  1  0
 67 57  1  0
 69 71  2  0
 70 69  1  0
 72 70  1  0
 73 82  2  0
 73 78  1  0
 74 70  1  0
 74 78  1  0
 75 74  1  0
 76 77  1  0
 76 75  1  0
 77 73  1  0
 78 79  2  0
 79 80  1  0
 81 80  2  0
 82 81  1  0
 83 57  1  0
 83 88  1  0
 83 84  1  0
 84 87  1  1
 84 85  1  0
 86 84  1  0
 88 91  1  0
 89 93  1  0
 89 88  1  0
 90 89  2  0
 93 92  1  0
 95 93  1  0
 95 96  1  0
 95 94  1  0
M  ISO  4   5 100  13 100  55 101  56 101
M  END
>  <TORSDO>  (14) 
F 26

>  <SCORE>  (14) 
8.936

>  <name>  (14) 
13

>  <ligand_id>  (14) 
13

>  <original_smiles>  (14) 
[H]c1c([H])c([H])c(C([H])([H])N(C(=O)N2C([H])([H])C([H])([H])C([H])([H])C([H])(n3nc(-c4c([H])c([H])c(Oc5c([H])c([H])c(F)c([H])c5F)c([H])c4[H])c(C(=O)N([H])[H])c3N([H])[H])C2([H])[H])C([H])([H])C([H])([H])C([H])([H])C([H])([H])C([H])([H])C([H])([H])[N+]([H])([H])C([H])([H])C([H])([H])Oc2c([H])c([H])c3c(c2[H])C([H])([H])N(C(=O)C([H])(N([H])C(=O)C([H])(N([H])C([H])([H])[H])C([H])([H])[H])C(C([H])([H])[H])(C([H])([H])[H])C([H])([H])[H])C([H])(C(=O)N([H])C2([H])c4c([H])c([H])c([H])c([H])c4C([H])([H])C([H])([H])C2([H])[H])C3([H])[H])c([H])c1[H]

>  <smiles>  (14) 
[H]c1c([H])c([H])c(C([H])([H])N(C(=O)N2C([H])([H])C([H])([H])C([H])([H])C([H])(n3nc(-c4c([H])c([H])c(Oc5c([H])c([H])c(F)c([H])c5F)c([H])c4[H])c(C(=O)N([H])[H])c3N([H])[H])C2([H])[H])C([H])([H])C([H])([H])C([H])([H])C([H])([H])C([H])([H])C([H])([H])[N+]([H])([H])C([H])([H])C([H])([H])Oc2c([H])c([H])c3c(c2[H])C([H])([H])N(C(=O)C([H])(N([H])C(=O)C([H])(N([H])C([H])([H])[H])C([H])([H])[H])C(C([H])([H])[H])(C([H])([H])[H])C([H])([H])[H])C([H])(C(=O)N([H])C2([H])c4c([H])c([H])c([H])c([H])c4C([H])([H])C([H])([H])C2([H])[H])C3([H])[H])c([H])c1[H]

$$$$
14:0:0
     RDKit          3D

 91 99  0  0  1  0  0  0  0  0999 V2000
  -28.8060  -22.3330   20.0930 N   0  0  0  0  0  4  0  0  0  0  0  0
  -27.8190  -22.1460   20.0140 H   0  0  0  0  0  0  0  0  0  0  0  0
  -29.1800  -22.2910   19.1590 H   0  0  0  0  0  0  0  0  0  0  0  0
  -29.3980  -21.1580   20.8760 C   0  0  0  0  0  2  0  0  0  0  0  0
  -30.6170  -18.6380   18.1760 C   0  0  0  0  0  3  0  0  0  0  0  0
  -30.2290  -19.8150   18.8440 C   0  0  0  0  0  3  0  0  0  0  0  0
  -30.5050  -17.3740   18.7870 C   0  0  0  0  0  3  0  0  0  0  0  0
  -29.5680  -18.4530   20.7540 C   0  0  0  0  0  3  0  0  0  0  0  0
  -29.6920  -19.7730   20.1490 C   0  0  0  0  0  0  0  0  0  0  0  0
  -29.9920  -17.2250   20.0970 C   0  0  0  0  0  0  0  0  0  0  0  0
  -30.5920  -14.7170   20.3550 C   0  0  0  0  0  0  0  0  0  0  0  0
  -30.3570  -12.4470   19.3620 C   0  0  0  0  0  2  0  0  0  0  0  0
  -29.4210  -12.5500   18.1380 C   0  0  0  0  0  2  0  0  0  0  0  0
  -27.9490  -12.3960   18.5690 C   0  0  0  0  0  2  0  0  0  0  0  0
  -27.5890  -13.2780   19.7950 C   0  0  0  0  0  3  0  0  0  0  0  0
  -28.6500  -13.1710   20.9130 C   0  0  0  0  0  2  0  0  0  0  0  0
  -29.9530  -13.4990   20.3230 N   0  0  0  0  0  0  0  0  0  0  0  0
  -31.7660  -14.8030   19.9820 O   0  0  0  0  0  0  0  0  0  0  0  0
  -29.8580  -15.8560   20.6520 N   0  0  0  0  0  0  0  0  0  0  0  0
  -29.0050  -15.6830   21.1630 H   0  0  0  0  0  0  0  0  0  0  0  0
  -25.2050  -13.8800   20.5260 C   0  0  0  0  0  0  0  0  0  0  0  0
  -24.1370  -13.1120   20.9020 C   0  0  0  0  0  0  0  0  0  0  0  0
  -24.5940  -11.7590   20.8720 C   0  0  0  0  0  0  0  0  0  0  0  0
  -26.2450  -12.9960   20.2890 N   0  0  0  0  0  0  0  0  0  0  0  0
  -25.8840  -11.7150   20.5590 N   0  0  0  0  0  0  0  0  0  0  0  0
  -23.8630  -10.5000   21.0680 C   0  0  0  0  0  0  0  0  0  0  0  0
  -24.3070   -9.5210   21.9840 C   0  0  0  0  0  3  0  0  0  0  0  0
  -23.5750   -8.3280   22.1670 C   0  0  0  0  0  3  0  0  0  0  0  0
  -22.3850   -8.1050   21.4360 C   0  0  0  0  0  0  0  0  0  0  0  0
  -21.9600   -9.0720   20.5080 C   0  0  0  0  0  3  0  0  0  0  0  0
  -22.6920  -10.2570   20.3230 C   0  0  0  0  0  3  0  0  0  0  0  0
  -21.6230   -6.9650   21.5290 O   0  0  0  0  0  0  0  0  0  0  0  0
  -21.6070   -6.2020   22.6700 C   0  0  0  0  0  0  0  0  0  0  0  0
  -21.2440   -6.7420   23.9240 C   0  0  0  0  0  3  0  0  0  0  0  0
  -21.1740   -5.9070   25.0560 C   0  0  0  0  0  3  0  0  0  0  0  0
  -21.4550   -4.5330   24.9370 C   0  0  0  0  0  0  0  0  0  0  0  0
  -21.8110   -3.9920   23.6880 C   0  0  0  0  0  3  0  0  0  0  0  0
  -21.8830   -4.8250   22.5580 C   0  0  0  0  0  0  0  0  0  0  0  0
  -22.2060   -4.2950   21.3530 F   0  0  0  0  0  0  0  0  0  0  0  0
  -21.3810   -3.7290   26.0230 F   0  0  0  0  0  0  0  0  0  0  0  0
  -22.7430  -13.5960   21.1780 C   0  0  0  0  0  0  0  0  0  0  0  0
  -22.0150  -12.9070   22.0500 N   0  0  0  0  0  0  0  0  0  0  0  0
  -22.3070  -14.6210   20.6540 O   0  0  0  0  0  0  0  0  0  0  0  0
  -22.3800  -12.0790   22.4960 H   0  0  0  0  0  0  0  0  0  0  0  0
  -21.0790  -13.2130   22.2740 H   0  0  0  0  0  0  0  0  0  0  0  0
  -25.3740  -15.2510   20.3460 N   0  0  0  0  0  0  0  0  0  0  0  0
  -24.6090  -15.9070   20.4560 H   0  0  0  0  0  0  0  0  0  0  0  0
  -26.2200  -15.6830   19.9990 H   0  0  0  0  0  0  0  0  0  0  0  0
  -29.0010  -23.7770   20.6010 C   0  0  0  0  0  3  0  0  0  0  0  0
  -28.0720  -24.9320   19.9680 C   0  0  0  0  0  3  0  0  0  0  0  0
  -28.2800  -26.3930   20.2570 O   0  0  0  0  0  0  0  0  0  0  0  0
  -24.6130  -31.8780   23.2450 C   0  0  0  0  0  0  0  0  0  0  0  0
  -27.1830  -27.2830   20.1760 C   0  0  0  0  0  0  0  0  0  0  0  0
  -23.3940  -30.4830   21.6140 C   0  0  0  0  0  3  0  0  0  0  0  0
  -24.8310  -28.9310   20.1740 C   0  0  0  0  0  0  0  0  0  0  0  0
  -25.9360  -30.7850   21.4180 C   0  0  0  0  0  2  0  0  0  0  0  0
  -26.0070  -29.4040   20.7710 C   0  0  0  0  0  0  0  0  0  0  0  0
  -27.1840  -28.5910   20.7650 C   0  0  0  0  0  3  0  0  0  0  0  0
  -25.9890  -26.8870   19.5290 C   0  0  0  0  0  3  0  0  0  0  0  0
  -24.8270  -27.6790   19.5420 C   0  0  0  0  0  3  0  0  0  0  0  0
  -23.5980  -29.8100   20.2320 C   0  0  0  0  0  2  0  0  0  0  0  0
  -24.6670  -31.0670   22.1470 N   0  0  0  0  0  0  0  0  0  0  0  0
  -23.5330  -32.1590   23.7850 O   0  0  0  0  0  0  0  0  0  0  0  0
  -22.7350  -29.4680   22.5780 C   0  0  0  0  0  0  0  0  0  0  0  0
  -21.4080  -29.2920   22.4600 N   0  0  0  0  0  0  0  0  0  0  0  0
  -23.4170  -28.8410   23.3930 O   0  0  0  0  0  0  0  0  0  0  0  0
  -20.9160  -29.8500   21.7760 H   0  0  0  0  0  0  0  0  0  0  0  0
  -18.0330  -28.0900   22.9710 C   0  0  0  0  0  0  0  0  0  0  0  0
  -20.5920  -28.3560   23.2350 C   0  0  0  0  0  3  0  0  0  0  0  0
  -20.6950  -26.9220   22.6680 C   0  0  0  0  0  2  0  0  0  0  0  0
  -19.5920  -26.5910   21.6580 C   0  0  0  0  0  2  0  0  0  0  0  0
  -18.2110  -26.7370   22.3020 C   0  0  0  0  0  2  0  0  0  0  0  0
  -19.1510  -28.8580   23.3950 C   0  0  0  0  0  0  0  0  0  0  0  0
  -18.9300  -30.1230   23.9810 C   0  0  0  0  0  3  0  0  0  0  0  0
  -17.6230  -30.6210   24.1470 C   0  0  0  0  0  3  0  0  0  0  0  0
  -16.5210  -29.8520   23.7380 C   0  0  0  0  0  3  0  0  0  0  0  0
  -16.7260  -28.5880   23.1560 C   0  0  0  0  0  3  0  0  0  0  0  0
  -25.9000  -32.5080   23.8590 C   0  0  0  0  0  3  0  0  0  0  0  0
  -26.4260  -31.7330   25.1290 C   0  0  1  0  0  0  0  0  0  0  0  0
  -25.3420  -31.4970   26.2060 C   0  0  0  0  0  1  0  0  0  0  0  0
  -27.0020  -30.3550   24.7310 C   0  0  0  0  0  1  0  0  0  0  0  0
  -27.5850  -32.5230   25.7810 C   0  0  0  0  0  1  0  0  0  0  0  0
  -25.5930  -33.9060   24.1960 N   0  0  0  0  0  0  0  0  0  0  0  0
  -25.9130  -34.9610   23.4360 C   0  0  0  0  0  0  0  0  0  0  0  0
  -26.5680  -34.8610   22.3940 O   0  0  0  0  0  0  0  0  0  0  0  0
  -25.0100  -34.0580   25.0060 H   0  0  0  0  0  0  0  0  0  0  0  0
  -24.1740  -36.7520   23.1200 C   0  0  0  0  0  1  0  0  0  0  0  0
  -25.4320  -36.3480   23.9050 C   0  0  0  0  0  3  0  0  0  0  0  0
  -27.5840  -37.2360   24.6900 C   0  0  0  0  0  1  0  0  0  0  0  0
  -26.4610  -37.4040   23.7720 N   0  0  0  0  0  0  0  0  0  0  0  0
  -26.0560  -38.3220   23.9300 H   0  0  0  0  0  0  0  0  0  0  0  0
  1 49  1  0
  1  4  1  0
  2  1  1  0
  3  1  1  0
  5  7  2  0
  5  6  1  0
  6  9  2  0
  7 10  1  0
  9  8  1  0
  9  4  1  0
 10 19  1  0
 10  8  2  0
 11 19  1  0
 12 17  1  0
 13 14  1  0
 13 12  1  0
 15 14  1  0
 15 24  1  0
 15 16  1  0
 17 11  1  0
 17 16  1  0
 18 11  2  0
 19 20  1  0
 21 22  2  0
 22 41  1  0
 23 22  1  0
 23 26  1  0
 24 21  1  0
 24 25  1  0
 25 23  2  0
 26 27  1  0
 27 28  2  0
 29 32  1  0
 29 28  1  0
 30 29  2  0
 31 30  1  0
 31 26  2  0
 32 33  1  0
 33 34  1  0
 34 35  2  0
 36 35  1  0
 36 40  1  0
 37 36  2  0
 38 33  2  0
 38 37  1  0
 39 38  1  0
 41 42  1  0
 42 45  1  0
 42 44  1  0
 43 41  2  0
 46 47  1  0
 46 21  1  0
 48 46  1  0
 50 51  1  0
 50 49  2  0
 52 63  2  0
 53 51  1  0
 53 58  1  0
 54 62  1  0
 54 64  1  0
 55 61  1  0
 55 57  1  0
 56 62  1  0
 57 56  1  0
 58 57  2  0
 59 60  1  0
 59 53  2  0
 60 55  2  0
 61 54  1  0
 62 52  1  0
 64 66  2  0
 65 64  1  0
 67 65  1  0
 68 77  2  0
 68 73  1  0
 69 65  1  0
 69 73  1  0
 70 69  1  0
 71 72  1  0
 71 70  1  0
 72 68  1  0
 73 74  2  0
 74 75  1  0
 76 75  2  0
 77 76  1  0
 78 52  1  0
 78 83  1  0
 78 79  1  0
 79 82  1  1
 79 80  1  0
 81 79  1  0
 83 86  1  0
 84 88  1  0
 84 83  1  0
 85 84  2  0
 88 87  1  0
 90 88  1  0
 90 91  1  0
 90 89  1  0
M  ISO  4  11 100  19 100  50 101  51 101
M  END
>  <TORSDO>  (15) 
F 20

>  <SCORE>  (15) 
-13.766

>  <name>  (15) 
14

>  <ligand_id>  (15) 
14

>  <original_smiles>  (15) 
[H]c1c([H])c([H])c2c(c1[H])C([H])([H])C([H])([H])C([H])([H])C2([H])N([H])C(=O)C1([H])N(C(=O)C([H])(N([H])C(=O)C([H])(N([H])C([H])([H])[H])C([H])([H])[H])C(C([H])([H])[H])(C([H])([H])[H])C([H])([H])[H])C([H])([H])c2c([H])c(OC([H])([H])C([H])([H])[N+]([H])([H])C([H])([H])c3c([H])c([H])c([H])c(N([H])C(=O)N4C([H])([H])C([H])([H])C([H])([H])C([H])(n5nc(-c6c([H])c([H])c(Oc7c([H])c([H])c(F)c([H])c7F)c([H])c6[H])c(C(=O)N([H])[H])c5N([H])[H])C4([H])[H])c3[H])c([H])c([H])c2C1([H])[H]

>  <smiles>  (15) 
[H]c1c([H])c([H])c2c(c1[H])C([H])([H])C([H])([H])C([H])([H])C2([H])N([H])C(=O)C1([H])N(C(=O)C([H])(N([H])C(=O)C([H])(N([H])C([H])([H])[H])C([H])([H])[H])C(C([H])([H])[H])(C([H])([H])[H])C([H])([H])[H])C([H])([H])c2c([H])c(OC([H])([H])C([H])([H])[N+]([H])([H])C([H])([H])c3c([H])c([H])c([H])c(N([H])C(=O)N4C([H])([H])C([H])([H])C([H])([H])C([H])(n5nc(-c6c([H])c([H])c(Oc7c([H])c([H])c(F)c([H])c7F)c([H])c6[H])c(C(=O)N([H])[H])c5N([H])[H])C4([H])[H])c3[H])c([H])c([H])c2C1([H])[H]

$$$$
15:0:0
     RDKit          3D

 98107  0  0  1  0  0  0  0  0999 V2000
  -29.3720  -17.5210   21.4490 C   0  0  0  0  0  2  0  0  0  0  0  0
  -31.7840  -17.5410   21.0770 C   0  0  0  0  0  2  0  0  0  0  0  0
  -29.3190  -19.0790   21.4470 C   0  0  0  0  0  2  0  0  0  0  0  0
  -31.8570  -19.0710   20.9910 C   0  0  0  0  0  2  0  0  0  0  0  0
  -30.4490  -17.1170   20.4500 C   0  0  0  0  0  3  0  0  0  0  0  0
  -30.6470  -19.7980   21.5100 N   0  0  1  0  0  4  0  0  0  0  0  0
  -30.8300  -19.9660   22.4880 H   0  0  0  0  0  0  0  0  0  0  0  0
  -30.9140  -14.6580   20.3530 C   0  0  0  0  0  0  0  0  0  0  0  0
  -30.5210  -12.4900   19.3060 C   0  0  0  0  0  2  0  0  0  0  0  0
  -29.5820  -12.6570   18.0930 C   0  0  0  0  0  2  0  0  0  0  0  0
  -28.1230  -12.5240   18.5440 C   0  0  0  0  0  2  0  0  0  0  0  0
  -27.7760  -13.4080   19.7740 C   0  0  0  0  0  3  0  0  0  0  0  0
  -28.8440  -13.2930   20.8840 C   0  0  0  0  0  2  0  0  0  0  0  0
  -30.1520  -13.5350   20.2650 N   0  0  0  0  0  0  0  0  0  0  0  0
  -32.1430  -14.6010   20.3840 O   0  0  0  0  0  0  0  0  0  0  0  0
  -30.3840  -15.7800   19.7850 N   0  0  0  0  0  0  0  0  0  0  0  0
  -25.3620  -13.9950   20.4290 C   0  0  0  0  0  0  0  0  0  0  0  0
  -24.2900  -13.2160   20.7760 C   0  0  0  0  0  0  0  0  0  0  0  0
  -24.7710  -11.8710   20.8010 C   0  0  0  0  0  0  0  0  0  0  0  0
  -26.4250  -13.1220   20.2540 N   0  0  0  0  0  0  0  0  0  0  0  0
  -26.0720  -11.8450   20.5480 N   0  0  0  0  0  0  0  0  0  0  0  0
  -24.0540  -10.6040   20.9890 C   0  0  0  0  0  0  0  0  0  0  0  0
  -24.4670   -9.6620   21.9550 C   0  0  0  0  0  3  0  0  0  0  0  0
  -23.7520   -8.4580   22.1300 C   0  0  0  0  0  3  0  0  0  0  0  0
  -22.6130   -8.1850   21.3350 C   0  0  0  0  0  0  0  0  0  0  0  0
  -22.2220   -9.1170   20.3580 C   0  0  0  0  0  3  0  0  0  0  0  0
  -22.9340  -10.3150   20.1840 C   0  0  0  0  0  3  0  0  0  0  0  0
  -21.8740   -7.0290   21.4190 O   0  0  0  0  0  0  0  0  0  0  0  0
  -21.7830   -6.3200   22.5910 C   0  0  0  0  0  0  0  0  0  0  0  0
  -21.3200   -6.9120   23.7870 C   0  0  0  0  0  3  0  0  0  0  0  0
  -21.1690   -6.1270   24.9480 C   0  0  0  0  0  3  0  0  0  0  0  0
  -21.4810   -4.7550   24.9150 C   0  0  0  0  0  0  0  0  0  0  0  0
  -21.9430   -4.1640   23.7240 C   0  0  0  0  0  3  0  0  0  0  0  0
  -22.0900   -4.9450   22.5660 C   0  0  0  0  0  0  0  0  0  0  0  0
  -22.5160   -4.3700   21.4150 F   0  0  0  0  0  0  0  0  0  0  0  0
  -21.3300   -3.9980   26.0270 F   0  0  0  0  0  0  0  0  0  0  0  0
  -22.8750  -13.6800   20.9850 C   0  0  0  0  0  0  0  0  0  0  0  0
  -22.1260  -13.0040   21.8500 N   0  0  0  0  0  0  0  0  0  0  0  0
  -22.4380  -14.6760   20.4120 O   0  0  0  0  0  0  0  0  0  0  0  0
  -22.4760  -12.1950   22.3410 H   0  0  0  0  0  0  0  0  0  0  0  0
  -21.1810  -13.3150   22.0290 H   0  0  0  0  0  0  0  0  0  0  0  0
  -25.5280  -15.3600   20.2200 N   0  0  0  0  0  0  0  0  0  0  0  0
  -24.7610  -16.0200   20.3080 H   0  0  0  0  0  0  0  0  0  0  0  0
  -26.4010  -15.7950   19.9540 H   0  0  0  0  0  0  0  0  0  0  0  0
  -30.8470  -16.0030   18.3760 C   0  0  0  0  0  2  0  0  0  0  0  0
  -31.3220  -19.3480   16.5300 C   0  0  0  0  0  3  0  0  0  0  0  0
  -30.0800  -19.9750   16.7400 C   0  0  0  0  0  3  0  0  0  0  0  0
  -31.5460  -18.0500   17.0320 C   0  0  0  0  0  3  0  0  0  0  0  0
  -29.2800  -17.9900   17.9160 C   0  0  0  0  0  3  0  0  0  0  0  0
  -29.0530  -19.2960   17.4270 C   0  0  0  0  0  0  0  0  0  0  0  0
  -30.5320  -17.3680   17.7420 C   0  0  0  0  0  0  0  0  0  0  0  0
  -27.7220  -19.9790   17.6680 C   0  0  0  0  0  1  0  0  0  0  0  0
  -30.5880  -21.1210   20.8280 C   0  0  0  0  0  2  0  0  0  0  0  0
  -29.5860  -22.1440   21.3970 C   0  0  0  0  0  2  0  0  0  0  0  0
  -29.3010  -23.2190   20.3290 C   0  0  0  0  0  2  0  0  0  0  0  0
  -28.8910  -24.5950   20.8680 C   0  0  0  0  0  2  0  0  0  0  0  0
  -28.9220  -25.6380   19.7420 C   0  0  0  0  0  2  0  0  0  0  0  0
  -28.7160  -26.9320   20.2830 O   0  0  0  0  0  0  0  0  0  0  0  0
  -24.6960  -31.9420   23.2310 C   0  0  0  0  0  0  0  0  0  0  0  0
  -27.4750  -27.5270   20.2620 C   0  0  0  0  0  0  0  0  0  0  0  0
  -23.5340  -30.4810   21.6060 C   0  0  0  0  0  3  0  0  0  0  0  0
  -25.0310  -28.9490   20.2300 C   0  0  0  0  0  0  0  0  0  0  0  0
  -26.0480  -30.9020   21.4170 C   0  0  0  0  0  2  0  0  0  0  0  0
  -26.1680  -29.5220   20.8100 C   0  0  0  0  0  0  0  0  0  0  0  0
  -27.3880  -28.8180   20.8210 C   0  0  0  0  0  3  0  0  0  0  0  0
  -26.3100  -26.9460   19.7040 C   0  0  0  0  0  3  0  0  0  0  0  0
  -25.0960  -27.6580   19.6770 C   0  0  0  0  0  3  0  0  0  0  0  0
  -23.7680  -29.7770   20.2440 C   0  0  0  0  0  2  0  0  0  0  0  0
  -24.7770  -31.1240   22.1430 N   0  0  0  0  0  0  0  0  0  0  0  0
  -23.6050  -32.1990   23.7580 O   0  0  0  0  0  0  0  0  0  0  0  0
  -22.9000  -29.4630   22.5800 C   0  0  0  0  0  0  0  0  0  0  0  0
  -21.5790  -29.2600   22.4540 N   0  0  0  0  0  0  0  0  0  0  0  0
  -23.5930  -28.8570   23.4030 O   0  0  0  0  0  0  0  0  0  0  0  0
  -21.0820  -29.7980   21.7580 H   0  0  0  0  0  0  0  0  0  0  0  0
  -18.2160  -28.0540   22.9780 C   0  0  0  0  0  0  0  0  0  0  0  0
  -20.7740  -28.3250   23.2380 C   0  0  0  0  0  3  0  0  0  0  0  0
  -20.8810  -26.8900   22.6710 C   0  0  0  0  0  2  0  0  0  0  0  0
  -19.7750  -26.5550   21.6640 C   0  0  0  0  0  2  0  0  0  0  0  0
  -18.3960  -26.6990   22.3130 C   0  0  0  0  0  2  0  0  0  0  0  0
  -19.3320  -28.8240   23.3970 C   0  0  0  0  0  0  0  0  0  0  0  0
  -19.1110  -30.0930   23.9760 C   0  0  0  0  0  3  0  0  0  0  0  0
  -17.8040  -30.5890   24.1410 C   0  0  0  0  0  3  0  0  0  0  0  0
  -16.7020  -29.8150   23.7390 C   0  0  0  0  0  3  0  0  0  0  0  0
  -16.9090  -28.5490   23.1630 C   0  0  0  0  0  3  0  0  0  0  0  0
  -25.9650  -32.6100   23.8490 C   0  0  0  0  0  3  0  0  0  0  0  0
  -25.6150  -33.9970   24.1790 N   0  0  0  0  0  0  0  0  0  0  0  0
  -25.9230  -35.0580   23.4210 C   0  0  0  0  0  0  0  0  0  0  0  0
  -26.6030  -34.9750   22.3940 O   0  0  0  0  0  0  0  0  0  0  0  0
  -25.0080  -34.1340   24.9740 H   0  0  0  0  0  0  0  0  0  0  0  0
  -24.1470  -36.7990   23.0470 C   0  0  0  0  0  1  0  0  0  0  0  0
  -25.3900  -36.4310   23.8740 C   0  0  0  0  0  3  0  0  0  0  0  0
  -27.4930  -37.3690   24.7240 C   0  0  0  0  0  1  0  0  0  0  0  0
  -26.3920  -37.5130   23.7760 N   0  0  0  0  0  0  0  0  0  0  0  0
  -25.9580  -38.4210   23.9290 H   0  0  0  0  0  0  0  0  0  0  0  0
  -26.5100  -31.8530   25.1220 C   0  0  1  0  0  0  0  0  0  0  0  0
  -25.4230  -31.5590   26.1830 C   0  0  0  0  0  1  0  0  0  0  0  0
  -27.1540  -30.5050   24.7190 C   0  0  0  0  0  1  0  0  0  0  0  0
  -27.6210  -32.6920   25.7940 C   0  0  0  0  0  1  0  0  0  0  0  0
  3  1  1  0
  3  6  1  0
  4  2  1  0
  4  6  1  0
  5 16  1  0
  5  2  1  0
  5  1  1  0
  6  7  1  1
  8 15  2  0
  9 14  1  0
 10 11  1  0
 10  9  1  0
 12 11  1  0
 12 20  1  0
 12 13  1  0
 14  8  1  0
 14 13  1  0
 16  8  1  0
 17 18  2  0
 18 19  1  0
 18 37  1  0
 19 22  1  0
 20 17  1  0
 20 21  1  0
 21 19  2  0
 22 23  1  0
 23 24  2  0
 25 28  1  0
 25 24  1  0
 26 25  2  0
 27 26  1  0
 27 22  2  0
 28 29  1  0
 29 30  1  0
 30 31  2  0
 32 31  1  0
 32 36  1  0
 33 32  2  0
 34 29  2  0
 34 33  1  0
 35 34  1  0
 37 38  1  0
 38 41  1  0
 38 40  1  0
 39 37  2  0
 42 43  1  0
 42 17  1  0
 44 42  1  0
 45 16  1  0
 46 47  2  0
 46 48  1  0
 47 50  1  0
 48 51  2  0
 50 52  1  0
 50 49  2  0
 51 49  1  0
 51 45  1  0
 53 54  1  0
 53  6  1  0
 55 56  1  0
 55 54  1  0
 57 58  1  0
 57 56  1  0
 59 70  2  0
 60 58  1  0
 60 65  1  0
 61 69  1  0
 61 71  1  0
 62 68  1  0
 62 64  1  0
 63 69  1  0
 64 65  2  0
 64 63  1  0
 66 60  2  0
 67 66  1  0
 67 62  2  0
 68 61  1  0
 69 59  1  0
 71 73  2  0
 72 71  1  0
 74 72  1  0
 75 84  2  0
 75 80  1  0
 76 72  1  0
 76 80  1  0
 77 76  1  0
 78 79  1  0
 78 77  1  0
 79 75  1  0
 80 81  2  0
 81 82  1  0
 83 82  2  0
 84 83  1  0
 85 59  1  0
 85 86  1  0
 85 95  1  0
 86 89  1  0
 87 91  1  0
 87 86  1  0
 88 87  2  0
 91 90  1  0
 93 91  1  0
 93 94  1  0
 93 92  1  0
 95 98  1  1
 95 96  1  0
 97 95  1  0
M  ISO  4   8 100  16 100  57 101  58 101
M  END
>  <TORSDO>  (16) 
F 23

>  <SCORE>  (16) 
-12.233

>  <name>  (16) 
15

>  <ligand_id>  (16) 
15

>  <original_smiles>  (16) 
[H]c1c([H])c(C([H])([H])[H])c([H])c(C([H])([H])N(C(=O)N2C([H])([H])C([H])([H])C([H])([H])C([H])(n3nc(-c4c([H])c([H])c(Oc5c([H])c([H])c(F)c([H])c5F)c([H])c4[H])c(C(=O)N([H])[H])c3N([H])[H])C2([H])[H])C2([H])C([H])([H])C([H])([H])[N+]([H])(C([H])([H])C([H])([H])C([H])([H])C([H])([H])C([H])([H])Oc3c([H])c([H])c4c(c3[H])C([H])([H])N(C(=O)C([H])(N([H])C(=O)C([H])(N([H])C([H])([H])[H])C([H])([H])[H])C(C([H])([H])[H])(C([H])([H])[H])C([H])([H])[H])C([H])(C(=O)N([H])C3([H])c5c([H])c([H])c([H])c([H])c5C([H])([H])C([H])([H])C3([H])[H])C4([H])[H])C([H])([H])C2([H])[H])c1[H]

>  <smiles>  (16) 
[H]c1c([H])c(C([H])([H])[H])c([H])c(C([H])([H])N(C(=O)N2C([H])([H])C([H])([H])C([H])([H])C([H])(n3nc(-c4c([H])c([H])c(Oc5c([H])c([H])c(F)c([H])c5F)c([H])c4[H])c(C(=O)N([H])[H])c3N([H])[H])C2([H])[H])C2([H])C([H])([H])C([H])([H])[N+]([H])(C([H])([H])C([H])([H])C([H])([H])C([H])([H])C([H])([H])Oc3c([H])c([H])c4c(c3[H])C([H])([H])N(C(=O)C([H])(N([H])C(=O)C([H])(N([H])C([H])([H])[H])C([H])([H])[H])C(C([H])([H])[H])(C([H])([H])[H])C([H])([H])[H])C([H])(C(=O)N([H])C3([H])c5c([H])c([H])c([H])c([H])c5C([H])([H])C([H])([H])C3([H])[H])C4([H])[H])C([H])([H])C2([H])[H])c1[H]

$$$$
16:0:0
     RDKit          3D

 95102  0  0  1  0  0  0  0  0999 V2000
  -27.9650  -19.6030   20.0150 C   0  0  0  0  0  3  0  0  0  0  0  0
  -26.5510  -19.2980   20.3290 N   0  0  0  0  0  4  0  0  0  0  0  0
  -26.4290  -19.3230   21.3270 H   0  0  0  0  0  0  0  0  0  0  0  0
  -26.2530  -18.3940   20.0120 H   0  0  0  0  0  0  0  0  0  0  0  0
  -25.9070  -19.9730   19.9430 H   0  0  0  0  0  0  0  0  0  0  0  0
  -28.3410  -21.0190   20.6280 C   0  0  0  0  0  0  0  0  0  0  0  0
  -28.4130  -22.2250   19.9350 N   0  0  0  0  0  0  0  0  0  0  0  0
  -28.7220  -20.9860   21.8000 O   0  0  0  0  0  0  0  0  0  0  0  0
  -29.2310  -22.6380   20.3740 H   0  0  0  0  0  0  0  0  0  0  0  0
  -27.4530  -23.4150   19.7120 C   0  0  0  0  0  2  0  0  0  0  0  0
  -28.0240  -24.7220   18.8810 C   0  0  0  0  0  2  0  0  0  0  0  0
  -28.1050  -26.2530   19.1040 O   0  0  0  0  0  0  0  0  0  0  0  0
  -24.5620  -31.4090   22.8090 C   0  0  0  0  0  0  0  0  0  0  0  0
  -27.0580  -27.2040   19.0850 C   0  0  0  0  0  0  0  0  0  0  0  0
  -23.3270  -30.1520   21.0920 C   0  0  0  0  0  3  0  0  0  0  0  0
  -24.7150  -28.8820   19.3730 C   0  0  0  0  0  0  0  0  0  0  0  0
  -25.8400  -30.5770   20.7880 C   0  0  0  0  0  2  0  0  0  0  0  0
  -25.9330  -29.2980   19.9470 C   0  0  0  0  0  0  0  0  0  0  0  0
  -27.1140  -28.4690   19.7720 C   0  0  0  0  0  3  0  0  0  0  0  0
  -25.8100  -26.8650   18.5070 C   0  0  0  0  0  3  0  0  0  0  0  0
  -24.6890  -27.6960   18.6220 C   0  0  0  0  0  3  0  0  0  0  0  0
  -23.4600  -29.7090   19.6170 C   0  0  0  0  0  2  0  0  0  0  0  0
  -24.5970  -30.7360   21.6200 N   0  0  0  0  0  0  0  0  0  0  0  0
  -23.5120  -31.5560   23.4490 O   0  0  0  0  0  0  0  0  0  0  0  0
  -22.7880  -28.9780   21.9650 C   0  0  0  0  0  0  0  0  0  0  0  0
  -21.4810  -28.7080   21.8980 N   0  0  0  0  0  0  0  0  0  0  0  0
  -23.5600  -28.3160   22.6470 O   0  0  0  0  0  0  0  0  0  0  0  0
  -20.9220  -29.2830   21.2720 H   0  0  0  0  0  0  0  0  0  0  0  0
  -18.2290  -27.1600   22.3640 C   0  0  0  0  0  0  0  0  0  0  0  0
  -20.7750  -27.6060   22.5760 C   0  0  0  0  0  3  0  0  0  0  0  0
  -20.9720  -26.2730   21.7910 C   0  0  0  0  0  2  0  0  0  0  0  0
  -19.8560  -25.9890   20.7970 C   0  0  0  0  0  2  0  0  0  0  0  0
  -18.5010  -25.9210   21.4910 C   0  0  0  0  0  2  0  0  0  0  0  0
  -19.2940  -27.9620   22.8270 C   0  0  0  0  0  0  0  0  0  0  0  0
  -19.0270  -29.1620   23.5290 C   0  0  0  0  0  3  0  0  0  0  0  0
  -17.7000  -29.5540   23.7620 C   0  0  0  0  0  3  0  0  0  0  0  0
  -16.6280  -28.7250   23.3260 C   0  0  0  0  0  3  0  0  0  0  0  0
  -16.9050  -27.5370   22.6410 C   0  0  0  0  0  3  0  0  0  0  0  0
  -25.8430  -32.0480   23.4130 C   0  0  0  0  0  3  0  0  0  0  0  0
  -26.4960  -31.1790   24.5610 C   0  0  1  0  0  0  0  0  0  0  0  0
  -25.4970  -30.7770   25.6730 C   0  0  0  0  0  1  0  0  0  0  0  0
  -27.1090  -29.8800   23.9920 C   0  0  0  0  0  1  0  0  0  0  0  0
  -27.6630  -31.9570   25.2330 C   0  0  0  0  0  1  0  0  0  0  0  0
  -25.4890  -33.3810   23.9390 N   0  0  0  0  0  0  0  0  0  0  0  0
  -25.7570  -34.5410   23.3260 C   0  0  0  0  0  0  0  0  0  0  0  0
  -26.3910  -34.6120   22.2720 O   0  0  0  0  0  0  0  0  0  0  0  0
  -24.9150  -33.4010   24.7690 H   0  0  0  0  0  0  0  0  0  0  0  0
  -23.9380  -36.2890   23.2770 C   0  0  0  0  0  1  0  0  0  0  0  0
  -25.2260  -35.8370   23.9810 C   0  0  0  0  0  3  0  0  0  0  0  0
  -27.3550  -36.7050   24.8560 C   0  0  0  0  0  1  0  0  0  0  0  0
  -26.2100  -36.9430   23.9800 N   0  0  0  0  0  0  0  0  0  0  0  0
  -25.7700  -37.8130   24.2700 H   0  0  0  0  0  0  0  0  0  0  0  0
  -28.8660  -18.3580   20.5820 C   0  0  0  0  0  2  0  0  0  0  0  0
  -29.0030  -16.8380   20.0290 C   0  0  0  0  0  2  0  0  0  0  0  0
  -30.4990  -16.2940   19.9810 C   0  0  0  0  0  3  0  0  0  0  0  0
  -31.0830  -14.7910   19.7300 C   0  0  0  0  0  0  0  0  0  0  0  0
  -30.8350  -12.4180   18.9930 C   0  0  0  0  0  2  0  0  0  0  0  0
  -29.8690  -12.4200   17.7910 C   0  0  0  0  0  2  0  0  0  0  0  0
  -28.4150  -12.3330   18.2870 C   0  0  0  0  0  2  0  0  0  0  0  0
  -28.1030  -13.3580   19.4130 C   0  0  0  0  0  3  0  0  0  0  0  0
  -29.1810  -13.3210   20.5080 C   0  0  0  0  0  2  0  0  0  0  0  0
  -30.4560  -13.5770   19.8550 N   0  0  0  0  0  0  0  0  0  0  0  0
  -32.2580  -14.7630   19.3290 O   0  0  0  0  0  0  0  0  0  0  0  0
  -25.8280  -14.0820   20.3560 C   0  0  0  0  0  0  0  0  0  0  0  0
  -24.7410  -13.3860   20.7610 C   0  0  0  0  0  0  0  0  0  0  0  0
  -25.0940  -12.0030   20.6280 C   0  0  0  0  0  0  0  0  0  0  0  0
  -26.7810  -13.1500   19.9800 N   0  0  0  0  0  0  0  0  0  0  0  0
  -26.3520  -11.8880   20.2270 N   0  0  0  0  0  0  0  0  0  0  0  0
  -24.2880  -10.7950   20.8010 C   0  0  0  0  0  0  0  0  0  0  0  0
  -24.6760   -9.7730   21.6990 C   0  0  0  0  0  3  0  0  0  0  0  0
  -23.8750   -8.6260   21.8590 C   0  0  0  0  0  3  0  0  0  0  0  0
  -22.6720   -8.4870   21.1240 C   0  0  0  0  0  0  0  0  0  0  0  0
  -22.3110   -9.4920   20.2110 C   0  0  0  0  0  3  0  0  0  0  0  0
  -23.1120  -10.6340   20.0480 C   0  0  0  0  0  3  0  0  0  0  0  0
  -21.8430   -7.3950   21.2000 O   0  0  0  0  0  0  0  0  0  0  0  0
  -21.7260   -6.6570   22.3510 C   0  0  0  0  0  0  0  0  0  0  0  0
  -21.2950   -7.2350   23.5650 C   0  0  0  0  0  3  0  0  0  0  0  0
  -21.1220   -6.4280   24.7080 C   0  0  0  0  0  3  0  0  0  0  0  0
  -21.3680   -5.0430   24.6370 C   0  0  0  0  0  0  0  0  0  0  0  0
  -21.7910   -4.4650   23.4260 C   0  0  0  0  0  3  0  0  0  0  0  0
  -21.9670   -5.2710   22.2870 C   0  0  0  0  0  0  0  0  0  0  0  0
  -22.3520   -4.7060   21.1170 F   0  0  0  0  0  0  0  0  0  0  0  0
  -21.1960   -4.2650   25.7300 F   0  0  0  0  0  0  0  0  0  0  0  0
  -23.4050  -13.9430   21.1450 C   0  0  0  0  0  0  0  0  0  0  0  0
  -22.6920  -13.2660   22.0240 N   0  0  0  0  0  0  0  0  0  0  0  0
  -23.0220  -15.0300   20.6980 O   0  0  0  0  0  0  0  0  0  0  0  0
  -23.0370  -12.3910   22.3980 H   0  0  0  0  0  0  0  0  0  0  0  0
  -21.7900  -13.6070   22.3270 H   0  0  0  0  0  0  0  0  0  0  0  0
  -26.0550  -15.4490   20.2200 N   0  0  0  0  0  0  0  0  0  0  0  0
  -25.1920  -15.9910   20.2070 H   0  0  0  0  0  0  0  0  0  0  0  0
  -26.7420  -15.7590   19.5520 H   0  0  0  0  0  0  0  0  0  0  0  0
  -31.1450  -17.1510   18.9770 N   0  0  0  0  0  4  0  0  0  0  0  0
  -31.1460  -18.1110   19.2840 H   0  0  0  0  0  0  0  0  0  0  0  0
  -30.6480  -17.0600   18.1040 H   0  0  0  0  0  0  0  0  0  0  0  0
  -32.0910  -16.8210   18.8580 H   0  0  0  0  0  0  0  0  0  0  0  0
  1  2  1  0
  1 53  1  0
  1  6  1  0
  2  3  1  0
  4  2  1  0
  5  2  1  0
  6  8  2  0
  7  9  1  0
  7  6  1  0
 10  7  1  0
 11 12  1  0
 11 10  1  0
 13 24  2  0
 14 12  1  0
 14 19  1  0
 15 23  1  0
 15 25  1  0
 16 22  1  0
 16 18  1  0
 17 23  1  0
 18 17  1  0
 19 18  2  0
 20 21  1  0
 20 14  2  0
 21 16  2  0
 22 15  1  0
 23 13  1  0
 25 27  2  0
 26 25  1  0
 28 26  1  0
 29 38  2  0
 29 34  1  0
 30 26  1  0
 30 34  1  0
 31 30  1  0
 32 33  1  0
 32 31  1  0
 33 29  1  0
 34 35  2  0
 35 36  1  0
 37 36  2  0
 38 37  1  0
 39 13  1  0
 39 44  1  0
 39 40  1  0
 40 43  1  1
 40 41  1  0
 42 40  1  0
 44 47  1  0
 45 44  1  0
 45 49  1  0
 46 45  2  0
 49 48  1  0
 51 49  1  0
 51 52  1  0
 51 50  1  0
 54 53  1  0
 55 54  1  0
 56 62  1  0
 56 55  1  0
 57 62  1  0
 58 59  1  0
 58 57  1  0
 60 59  1  0
 60 67  1  0
 60 61  1  0
 62 61  1  0
 63 56  2  0
 64 65  2  0
 65 84  1  0
 66 65  1  0
 66 69  1  0
 67 68  1  0
 67 64  1  0
 68 66  2  0
 69 70  1  0
 70 71  2  0
 72 75  1  0
 72 71  1  0
 73 72  2  0
 74 73  1  0
 74 69  2  0
 75 76  1  0
 76 77  1  0
 77 78  2  0
 79 78  1  0
 79 83  1  0
 80 79  2  0
 81 76  2  0
 81 80  1  0
 82 81  1  0
 84 85  1  0
 85 88  1  0
 85 87  1  0
 86 84  2  0
 89 64  1  0
 90 89  1  0
 91 89  1  0
 92 93  1  0
 92 55  1  0
 94 92  1  0
 95 92  1  0
M  ISO  4  11 101  12 101  55 100  56 100
M  END
>  <TORSDO>  (17) 
F 24

>  <SCORE>  (17) 
-10.352

>  <name>  (17) 
16

>  <ligand_id>  (17) 
16

>  <original_smiles>  (17) 
[H]c1c([H])c([H])c2c(c1[H])C([H])([H])C([H])([H])C([H])([H])C2([H])N([H])C(=O)C1([H])N(C(=O)C([H])(N([H])C(=O)C([H])(N([H])C([H])([H])[H])C([H])([H])[H])C(C([H])([H])[H])(C([H])([H])[H])C([H])([H])[H])C([H])([H])c2c([H])c(OC([H])([H])C([H])([H])N([H])C(=O)C([H])(C([H])([H])C([H])([H])C([H])(C(=O)N3C([H])([H])C([H])([H])C([H])([H])C([H])(n4nc(-c5c([H])c([H])c(Oc6c([H])c([H])c(F)c([H])c6F)c([H])c5[H])c(C(=O)N([H])[H])c4N([H])[H])C3([H])[H])[N+]([H])([H])[H])[N+]([H])([H])[H])c([H])c([H])c2C1([H])[H]

>  <smiles>  (17) 
[H]c1c([H])c([H])c2c(c1[H])C([H])([H])C([H])([H])C([H])([H])C2([H])N([H])C(=O)C1([H])N(C(=O)C([H])(N([H])C(=O)C([H])(N([H])C([H])([H])[H])C([H])([H])[H])C(C([H])([H])[H])(C([H])([H])[H])C([H])([H])[H])C([H])([H])c2c([H])c(OC([H])([H])C([H])([H])N([H])C(=O)C([H])(C([H])([H])C([H])([H])C([H])(C(=O)N3C([H])([H])C([H])([H])C([H])([H])C([H])(n4nc(-c5c([H])c([H])c(Oc6c([H])c([H])c(F)c([H])c6F)c([H])c5[H])c(C(=O)N([H])[H])c4N([H])[H])C3([H])[H])[N+]([H])([H])[H])[N+]([H])([H])[H])c([H])c([H])c2C1([H])[H]

$$$$
17:0:0
     RDKit          3D

 95103  0  0  1  0  0  0  0  0999 V2000
  -27.9350  -23.1810   22.2090 C   0  0  0  0  0  2  0  0  0  0  0  0
  -28.6920  -25.3380   21.0670 C   0  0  0  0  0  3  0  0  0  0  0  0
  -27.2380  -23.8090   19.8480 C   0  0  0  0  0  3  0  0  0  0  0  0
  -28.6020  -26.2670   20.0090 C   0  0  0  0  0  3  0  0  0  0  0  0
  -27.1780  -24.7230   18.7790 C   0  0  0  0  0  3  0  0  0  0  0  0
  -27.9800  -24.1190   21.0080 C   0  0  0  0  0  0  0  0  0  0  0  0
  -27.8090  -25.9810   18.8770 C   0  0  0  0  0  0  0  0  0  0  0  0
  -27.5130  -26.9710   17.9670 O   0  0  0  0  0  0  0  0  0  0  0  0
  -25.4220  -30.5750   23.6930 C   0  0  0  0  0  0  0  0  0  0  0  0
  -26.5990  -27.8600   18.4760 C   0  0  0  0  0  0  0  0  0  0  0  0
  -23.7240  -30.2630   21.9250 C   0  0  0  0  0  3  0  0  0  0  0  0
  -24.6000  -29.4410   19.6770 C   0  0  0  0  0  0  0  0  0  0  0  0
  -26.2110  -30.3840   21.3400 C   0  0  0  0  0  2  0  0  0  0  0  0
  -25.9160  -29.4840   20.1620 C   0  0  0  0  0  0  0  0  0  0  0  0
  -26.9210  -28.6890   19.5700 C   0  0  0  0  0  3  0  0  0  0  0  0
  -25.2810  -27.8560   17.9730 C   0  0  0  0  0  3  0  0  0  0  0  0
  -24.2760  -28.6270   18.5810 C   0  0  0  0  0  3  0  0  0  0  0  0
  -23.5770  -30.3010   20.3810 C   0  0  0  0  0  2  0  0  0  0  0  0
  -25.1490  -30.3870   22.3720 N   0  0  0  0  0  0  0  0  0  0  0  0
  -24.5150  -30.6850   24.5290 O   0  0  0  0  0  0  0  0  0  0  0  0
  -23.0250  -28.9900   22.4570 C   0  0  0  0  0  0  0  0  0  0  0  0
  -21.6920  -28.9360   22.3140 N   0  0  0  0  0  0  0  0  0  0  0  0
  -23.6800  -28.0730   22.9590 O   0  0  0  0  0  0  0  0  0  0  0  0
  -21.2280  -29.7320   21.8990 H   0  0  0  0  0  0  0  0  0  0  0  0
  -18.3170  -27.6630   22.1220 C   0  0  0  0  0  0  0  0  0  0  0  0
  -20.8280  -27.8240   22.7110 C   0  0  0  0  0  3  0  0  0  0  0  0
  -21.0210  -26.6070   21.7760 C   0  0  0  0  0  2  0  0  0  0  0  0
  -20.0310  -26.5830   20.6070 C   0  0  0  0  0  2  0  0  0  0  0  0
  -18.5900  -26.5520   21.1220 C   0  0  0  0  0  2  0  0  0  0  0  0
  -19.3690  -28.2710   22.8550 C   0  0  0  0  0  0  0  0  0  0  0  0
  -19.0640  -29.3250   23.7440 C   0  0  0  0  0  3  0  0  0  0  0  0
  -17.7370  -29.7680   23.9080 C   0  0  0  0  0  3  0  0  0  0  0  0
  -16.6980  -29.1520   23.1900 C   0  0  0  0  0  3  0  0  0  0  0  0
  -16.9880  -28.1000   22.3030 C   0  0  0  0  0  3  0  0  0  0  0  0
  -26.8900  -30.6860   24.2130 C   0  0  0  0  0  3  0  0  0  0  0  0
  -26.9390  -31.8070   25.1600 N   0  0  0  0  0  0  0  0  0  0  0  0
  -27.5480  -32.9760   24.9200 C   0  0  0  0  0  0  0  0  0  0  0  0
  -28.1970  -33.1970   23.8940 O   0  0  0  0  0  0  0  0  0  0  0  0
  -26.3800  -31.7190   25.9960 H   0  0  0  0  0  0  0  0  0  0  0  0
  -26.3900  -35.1260   25.5240 C   0  0  0  0  0  1  0  0  0  0  0  0
  -27.4150  -34.0780   25.9890 C   0  0  0  0  0  3  0  0  0  0  0  0
  -29.6430  -33.8680   26.9940 C   0  0  0  0  0  1  0  0  0  0  0  0
  -28.6950  -34.7440   26.3100 N   0  0  0  0  0  0  0  0  0  0  0  0
  -28.5400  -35.5590   26.8950 H   0  0  0  0  0  0  0  0  0  0  0  0
  -27.4100  -29.3590   24.8900 C   0  0  1  0  0  0  0  0  0  0  0  0
  -26.4560  -28.7960   25.9690 C   0  0  0  0  0  1  0  0  0  0  0  0
  -27.6280  -28.2550   23.8290 C   0  0  0  0  0  1  0  0  0  0  0  0
  -28.7850  -29.6140   25.5530 C   0  0  0  0  0  1  0  0  0  0  0  0
  -30.4680  -23.1030   22.5490 C   0  0  0  0  0  1  0  0  0  0  0  0
  -29.1760  -22.2810   22.3950 C   0  0  0  0  0  3  0  0  0  0  0  0
  -29.2900  -21.2790   21.3080 N   0  0  0  0  0  4  0  0  0  0  0  0
  -28.3610  -21.0630   20.9840 H   0  0  0  0  0  0  0  0  0  0  0  0
  -29.7900  -21.6960   20.5380 H   0  0  0  0  0  0  0  0  0  0  0  0
  -29.9290  -20.0070   21.7060 C   0  0  0  0  0  2  0  0  0  0  0  0
  -30.0510  -19.0120   20.5340 C   0  0  0  0  0  2  0  0  0  0  0  0
  -30.2160  -17.5650   21.0330 C   0  0  0  0  0  2  0  0  0  0  0  0
  -30.8300  -16.6060   19.9920 C   0  0  0  0  0  2  0  0  0  0  0  0
  -31.1890  -14.2190   19.6220 C   0  0  0  0  0  0  0  0  0  0  0  0
  -30.7770  -11.8880   18.9320 C   0  0  0  0  0  2  0  0  0  0  0  0
  -29.7680  -11.8030   17.7730 C   0  0  0  0  0  2  0  0  0  0  0  0
  -28.3260  -11.7590   18.3100 C   0  0  0  0  0  2  0  0  0  0  0  0
  -28.0460  -12.8850   19.3360 C   0  0  0  0  0  3  0  0  0  0  0  0
  -29.1530  -12.9450   20.4110 C   0  0  0  0  0  2  0  0  0  0  0  0
  -30.4630  -13.0750   19.7390 N   0  0  0  0  0  0  0  0  0  0  0  0
  -32.0980  -14.3610   18.7950 O   0  0  0  0  0  0  0  0  0  0  0  0
  -31.3060  -15.0730   21.8670 C   0  0  0  0  0  1  0  0  0  0  0  0
  -30.8590  -15.2150   20.4760 N   0  0  0  0  0  0  0  0  0  0  0  0
  -25.8280  -13.7150   20.3520 C   0  0  0  0  0  0  0  0  0  0  0  0
  -24.7100  -13.0470   20.7750 C   0  0  0  0  0  0  0  0  0  0  0  0
  -24.9830  -11.6590   20.5800 C   0  0  0  0  0  0  0  0  0  0  0  0
  -26.7210  -12.7390   19.9360 N   0  0  0  0  0  0  0  0  0  0  0  0
  -26.2200  -11.4910   20.1280 N   0  0  0  0  0  0  0  0  0  0  0  0
  -24.1190  -10.4820   20.7460 C   0  0  0  0  0  0  0  0  0  0  0  0
  -24.3830   -9.5090   21.7360 C   0  0  0  0  0  3  0  0  0  0  0  0
  -23.5320   -8.3940   21.8880 C   0  0  0  0  0  3  0  0  0  0  0  0
  -22.3970   -8.2470   21.0540 C   0  0  0  0  0  0  0  0  0  0  0  0
  -22.1510   -9.2070   20.0570 C   0  0  0  0  0  3  0  0  0  0  0  0
  -23.0040  -10.3140   19.9020 C   0  0  0  0  0  3  0  0  0  0  0  0
  -21.5270   -7.1850   21.1160 O   0  0  0  0  0  0  0  0  0  0  0  0
  -21.1220   -6.6540   22.3140 C   0  0  0  0  0  0  0  0  0  0  0  0
  -20.5080   -7.4430   23.3110 C   0  0  0  0  0  3  0  0  0  0  0  0
  -20.0470   -6.8420   24.5000 C   0  0  0  0  0  3  0  0  0  0  0  0
  -20.1860   -5.4550   24.6880 C   0  0  0  0  0  0  0  0  0  0  0  0
  -20.7910   -4.6660   23.6930 C   0  0  0  0  0  3  0  0  0  0  0  0
  -21.2560   -5.2640   22.5100 C   0  0  0  0  0  0  0  0  0  0  0  0
  -21.8190   -4.4960   21.5440 F   0  0  0  0  0  0  0  0  0  0  0  0
  -19.7350   -4.8760   25.8260 F   0  0  0  0  0  0  0  0  0  0  0  0
  -23.4220  -13.6620   21.2420 C   0  0  0  0  0  0  0  0  0  0  0  0
  -22.7360  -13.0150   22.1790 N   0  0  0  0  0  0  0  0  0  0  0  0
  -23.0390  -14.7490   20.8100 O   0  0  0  0  0  0  0  0  0  0  0  0
  -23.0610  -12.1350   22.5510 H   0  0  0  0  0  0  0  0  0  0  0  0
  -21.8740  -13.4060   22.5330 H   0  0  0  0  0  0  0  0  0  0  0  0
  -26.1530  -15.0650   20.2690 N   0  0  0  0  0  0  0  0  0  0  0  0
  -25.4900  -15.7920   20.5130 H   0  0  0  0  0  0  0  0  0  0  0  0
  -27.0250  -15.4240   19.8980 H   0  0  0  0  0  0  0  0  0  0  0  0
  1 50  1  0
  3  6  2  0
  4  2  2  0
  5  7  2  0
  5  3  1  0
  6  2  1  0
  6  1  1  0
  7  4  1  0
  8 10  1  0
  8  7  1  0
  9 20  2  0
 10 15  1  0
 11 19  1  0
 11 21  1  0
 12 14  1  0
 12 18  1  0
 13 19  1  0
 14 13  1  0
 15 14  2  0
 16 10  2  0
 16 17  1  0
 17 12  2  0
 18 11  1  0
 19  9  1  0
 21 23  2  0
 22 21  1  0
 24 22  1  0
 25 34  2  0
 25 30  1  0
 26 22  1  0
 26 30  1  0
 27 26  1  0
 28 29  1  0
 28 27  1  0
 29 25  1  0
 30 31  2  0
 31 32  1  0
 33 32  2  0
 34 33  1  0
 35  9  1  0
 35 45  1  0
 35 36  1  0
 36 39  1  0
 37 36  1  0
 37 41  1  0
 38 37  2  0
 41 40  1  0
 41 43  1  0
 43 44  1  0
 43 42  1  0
 45 48  1  1
 45 46  1  0
 47 45  1  0
 50 49  1  0
 51 54  1  0
 51 50  1  0
 52 51  1  0
 53 51  1  0
 55 56  1  0
 55 54  1  0
 57 67  1  0
 57 56  1  0
 58 64  1  0
 58 67  1  0
 59 64  1  0
 60 61  1  0
 60 59  1  0
 62 61  1  0
 62 71  1  0
 62 63  1  0
 64 63  1  0
 65 58  2  0
 67 66  1  0
 68 69  2  0
 69 88  1  0
 70 73  1  0
 70 69  1  0
 71 72  1  0
 71 68  1  0
 72 70  2  0
 73 74  1  0
 74 75  2  0
 76 79  1  0
 76 75  1  0
 77 76  2  0
 78 77  1  0
 78 73  2  0
 79 80  1  0
 80 85  2  0
 80 81  1  0
 81 82  2  0
 82 83  1  0
 83 87  1  0
 84 83  2  0
 85 84  1  0
 86 85  1  0
 88 89  1  0
 89 92  1  0
 89 91  1  0
 90 88  2  0
 93 68  1  0
 93 94  1  0
 95 93  1  0
M  ISO  4   7 101   8 101  58 100  67 100
M  END
>  <TORSDO>  (18) 
F 23

>  <SCORE>  (18) 
-9.091

>  <name>  (18) 
17

>  <ligand_id>  (18) 
17

>  <original_smiles>  (18) 
[H]c1c([H])c([H])c2c(c1[H])C([H])([H])C([H])([H])C([H])([H])C2([H])N([H])C(=O)C1([H])N(C(=O)C([H])(N([H])C(=O)C([H])(N([H])C([H])([H])[H])C([H])([H])[H])C(C([H])([H])[H])(C([H])([H])[H])C([H])([H])[H])C([H])([H])c2c([H])c(Oc3c([H])c([H])c(C([H])([H])C([H])(C([H])([H])[H])[N+]([H])([H])C([H])([H])C([H])([H])C([H])([H])C([H])([H])N(C(=O)N4C([H])([H])C([H])([H])C([H])([H])C([H])(n5nc(-c6c([H])c([H])c(Oc7c([H])c([H])c(F)c([H])c7F)c([H])c6[H])c(C(=O)N([H])[H])c5N([H])[H])C4([H])[H])C([H])([H])[H])c([H])c3[H])c([H])c([H])c2C1([H])[H]

>  <smiles>  (18) 
[H]c1c([H])c([H])c2c(c1[H])C([H])([H])C([H])([H])C([H])([H])C2([H])N([H])C(=O)C1([H])N(C(=O)C([H])(N([H])C(=O)C([H])(N([H])C([H])([H])[H])C([H])([H])[H])C(C([H])([H])[H])(C([H])([H])[H])C([H])([H])[H])C([H])([H])c2c([H])c(Oc3c([H])c([H])c(C([H])([H])C([H])(C([H])([H])[H])[N+]([H])([H])C([H])([H])C([H])([H])C([H])([H])C([H])([H])N(C(=O)N4C([H])([H])C([H])([H])C([H])([H])C([H])(n5nc(-c6c([H])c([H])c(Oc7c([H])c([H])c(F)c([H])c7F)c([H])c6[H])c(C(=O)N([H])[H])c5N([H])[H])C4([H])[H])C([H])([H])[H])c([H])c3[H])c([H])c([H])c2C1([H])[H]

$$$$
18:0:0
     RDKit          3D

 92 99  0  0  1  0  0  0  0  0999 V2000
  -29.5870  -20.7640   19.1570 N   0  0  0  0  0  4  0  0  0  0  0  0
  -30.5640  -20.8450   18.9310 H   0  0  0  0  0  0  0  0  0  0  0  0
  -29.0740  -20.7900   18.2900 H   0  0  0  0  0  0  0  0  0  0  0  0
  -29.4110  -19.4200   19.7890 C   0  0  0  0  0  3  0  0  0  0  0  0
  -27.9160  -19.1650   20.0820 C   0  0  0  0  0  3  0  0  0  0  0  0
  -27.5060  -18.4580   21.0060 O   0  0  0  0  0  0  0  0  0  0  0  0
  -29.9690  -18.2510   18.9220 C   0  0  0  0  0  2  0  0  0  0  0  0
  -31.4710  -17.8990   19.0870 C   0  0  0  0  0  2  0  0  0  0  0  0
  -31.6410  -16.3890   19.3860 C   0  0  0  0  0  2  0  0  0  0  0  0
  -33.4580  -14.7920   20.0290 C   0  0  0  0  0  0  0  0  0  0  0  0
  -33.3690  -12.4020   20.6550 C   0  0  0  0  0  2  0  0  0  0  0  0
  -32.7630  -11.5520   19.5210 C   0  0  0  0  0  2  0  0  0  0  0  0
  -31.2270  -11.4980   19.6560 C   0  0  0  0  0  2  0  0  0  0  0  0
  -30.6080  -12.9080   19.8250 C   0  0  0  0  0  3  0  0  0  0  0  0
  -31.3480  -13.6920   20.9320 C   0  0  0  0  0  2  0  0  0  0  0  0
  -32.7780  -13.7490   20.5850 N   0  0  0  0  0  0  0  0  0  0  0  0
  -34.6220  -14.6890   19.6340 O   0  0  0  0  0  0  0  0  0  0  0  0
  -32.8920  -16.0130   20.0630 N   0  0  0  0  0  0  0  0  0  0  0  0
  -33.5930  -16.7400   20.0640 H   0  0  0  0  0  0  0  0  0  0  0  0
  -28.2110  -13.8290   19.9560 C   0  0  0  0  0  0  0  0  0  0  0  0
  -27.0190  -13.2310   20.2610 C   0  0  0  0  0  0  0  0  0  0  0  0
  -27.3270  -11.8740   20.5810 C   0  0  0  0  0  0  0  0  0  0  0  0
  -29.1750  -12.8410   20.0870 N   0  0  0  0  0  0  0  0  0  0  0  0
  -28.6370  -11.6730   20.5230 N   0  0  0  0  0  0  0  0  0  0  0  0
  -26.4480  -10.7370   20.8820 C   0  0  0  0  0  0  0  0  0  0  0  0
  -26.2790  -10.2610   22.2010 C   0  0  0  0  0  3  0  0  0  0  0  0
  -25.4150   -9.1780   22.4660 C   0  0  0  0  0  3  0  0  0  0  0  0
  -24.7080   -8.5600   21.4070 C   0  0  0  0  0  0  0  0  0  0  0  0
  -24.8970   -9.0230   20.0920 C   0  0  0  0  0  3  0  0  0  0  0  0
  -25.7610  -10.0990   19.8300 C   0  0  0  0  0  3  0  0  0  0  0  0
  -23.8650   -7.4870   21.5650 O   0  0  0  0  0  0  0  0  0  0  0  0
  -22.9060   -7.4640   22.5470 C   0  0  0  0  0  0  0  0  0  0  0  0
  -21.8490   -8.3980   22.5770 C   0  0  0  0  0  3  0  0  0  0  0  0
  -20.8460   -8.2950   23.5610 C   0  0  0  0  0  3  0  0  0  0  0  0
  -20.8930   -7.2570   24.5110 C   0  0  0  0  0  0  0  0  0  0  0  0
  -21.9440   -6.3230   24.4820 C   0  0  0  0  0  3  0  0  0  0  0  0
  -22.9470   -6.4260   23.5000 C   0  0  0  0  0  0  0  0  0  0  0  0
  -23.9440   -5.5100   23.4630 F   0  0  0  0  0  0  0  0  0  0  0  0
  -19.9270   -7.1530   25.4510 F   0  0  0  0  0  0  0  0  0  0  0  0
  -25.6560  -13.8570   20.1740 C   0  0  0  0  0  0  0  0  0  0  0  0
  -24.7320  -13.4470   21.0350 N   0  0  0  0  0  0  0  0  0  0  0  0
  -25.4180  -14.7530   19.3650 O   0  0  0  0  0  0  0  0  0  0  0  0
  -24.9250  -12.7260   21.7140 H   0  0  0  0  0  0  0  0  0  0  0  0
  -23.8080  -13.8560   21.0110 H   0  0  0  0  0  0  0  0  0  0  0  0
  -28.5560  -15.1230   19.5690 N   0  0  0  0  0  0  0  0  0  0  0  0
  -27.8750  -15.8710   19.5080 H   0  0  0  0  0  0  0  0  0  0  0  0
  -29.4910  -15.4130   19.3210 H   0  0  0  0  0  0  0  0  0  0  0  0
  -29.2220  -21.9530   19.9860 C   0  0  0  0  0  2  0  0  0  0  0  0
  -29.5990  -23.3060   19.3340 C   0  0  0  0  0  2  0  0  0  0  0  0
  -29.1670  -24.5330   20.1790 C   0  0  0  0  0  2  0  0  0  0  0  0
  -29.6140  -25.8850   19.5720 C   0  0  0  0  0  2  0  0  0  0  0  0
  -29.2360  -27.0130   20.3720 O   0  0  0  0  0  0  0  0  0  0  0  0
  -24.6010  -31.4970   23.3410 C   0  0  0  0  0  0  0  0  0  0  0  0
  -27.9640  -27.5490   20.2890 C   0  0  0  0  0  0  0  0  0  0  0  0
  -23.6860  -30.0550   21.5510 C   0  0  0  0  0  3  0  0  0  0  0  0
  -25.4080  -28.7670   20.1790 C   0  0  0  0  0  0  0  0  0  0  0  0
  -26.1600  -30.7120   21.5600 C   0  0  0  0  0  2  0  0  0  0  0  0
  -26.4510  -29.3930   20.8710 C   0  0  0  0  0  0  0  0  0  0  0  0
  -27.7280  -28.7930   20.9190 C   0  0  0  0  0  3  0  0  0  0  0  0
  -26.8970  -26.9290   19.5960 C   0  0  0  0  0  3  0  0  0  0  0  0
  -25.6250  -27.5330   19.5430 C   0  0  0  0  0  3  0  0  0  0  0  0
  -24.0750  -29.4810   20.1620 C   0  0  0  0  0  2  0  0  0  0  0  0
  -24.8280  -30.7690   22.2110 N   0  0  0  0  0  0  0  0  0  0  0  0
  -23.4610  -31.6130   23.8110 O   0  0  0  0  0  0  0  0  0  0  0  0
  -23.0940  -28.9160   22.4120 C   0  0  0  0  0  0  0  0  0  0  0  0
  -21.8500  -28.5160   22.1050 N   0  0  0  0  0  0  0  0  0  0  0  0
  -23.7580  -28.3960   23.3140 O   0  0  0  0  0  0  0  0  0  0  0  0
  -21.3700  -28.9960   21.3570 H   0  0  0  0  0  0  0  0  0  0  0  0
  -18.6840  -26.7760   22.1470 C   0  0  0  0  0  0  0  0  0  0  0  0
  -21.1060  -27.4400   22.7600 C   0  0  0  0  0  3  0  0  0  0  0  0
  -21.5200  -26.0590   22.2000 C   0  0  0  0  0  2  0  0  0  0  0  0
  -20.6290  -25.5860   21.0460 C   0  0  0  0  0  2  0  0  0  0  0  0
  -19.1680  -25.4890   21.4980 C   0  0  0  0  0  2  0  0  0  0  0  0
  -19.5950  -27.6980   22.7250 C   0  0  0  0  0  0  0  0  0  0  0  0
  -19.0960  -28.8940   23.2820 C   0  0  0  0  0  3  0  0  0  0  0  0
  -17.7170  -29.1730   23.2730 C   0  0  0  0  0  3  0  0  0  0  0  0
  -16.8170  -28.2490   22.7130 C   0  0  0  0  0  3  0  0  0  0  0  0
  -17.3000  -27.0520   22.1540 C   0  0  0  0  0  3  0  0  0  0  0  0
  -25.7580  -32.2380   24.0820 C   0  0  0  0  0  3  0  0  0  0  0  0
  -26.1100  -31.5990   25.4820 C   0  0  1  0  0  0  0  0  0  0  0  0
  -24.8720  -31.3130   26.3620 C   0  0  0  0  0  1  0  0  0  0  0  0
  -26.8780  -30.2690   25.2980 C   0  0  0  0  0  1  0  0  0  0  0  0
  -27.0460  -32.5460   26.2700 C   0  0  0  0  0  1  0  0  0  0  0  0
  -25.3560  -33.6410   24.2380 N   0  0  0  0  0  0  0  0  0  0  0  0
  -25.7730  -34.6420   23.4520 C   0  0  0  0  0  0  0  0  0  0  0  0
  -26.6060  -34.4870   22.5540 O   0  0  0  0  0  0  0  0  0  0  0  0
  -24.6390  -33.8350   24.9220 H   0  0  0  0  0  0  0  0  0  0  0  0
  -24.0980  -36.3330   22.6410 C   0  0  0  0  0  1  0  0  0  0  0  0
  -25.1710  -36.0380   23.7020 C   0  0  0  0  0  3  0  0  0  0  0  0
  -27.0800  -37.0660   24.8530 C   0  0  0  0  0  1  0  0  0  0  0  0
  -26.1760  -37.1230   23.7070 N   0  0  0  0  0  0  0  0  0  0  0  0
  -25.7230  -38.0320   23.7060 H   0  0  0  0  0  0  0  0  0  0  0  0
  1  4  1  0
  1 48  1  0
  2  1  1  0
  3  1  1  0
  4  7  1  0
  4  5  1  0
  5  6  2  0
  7  8  1  0
  8  9  1  0
  9 18  1  0
 10 18  1  0
 10 16  1  0
 12 13  1  0
 12 11  1  0
 14 13  1  0
 14 23  1  0
 14 15  1  0
 16 11  1  0
 16 15  1  0
 17 10  2  0
 18 19  1  0
 20 23  1  0
 20 21  2  0
 21 22  1  0
 22 25  1  0
 23 24  1  0
 24 22  2  0
 25 26  1  0
 26 27  2  0
 28 31  1  0
 28 27  1  0
 29 28  2  0
 30 29  1  0
 30 25  2  0
 31 32  1  0
 32 33  2  0
 32 37  1  0
 33 34  1  0
 34 35  2  0
 35 39  1  0
 36 35  1  0
 37 36  2  0
 38 37  1  0
 40 21  1  0
 40 41  1  0
 41 43  1  0
 42 40  2  0
 44 41  1  0
 45 20  1  0
 46 45  1  0
 47 45  1  0
 49 48  1  0
 49 50  1  0
 51 50  1  0
 51 52  1  0
 53 64  2  0
 54 52  1  0
 54 59  1  0
 55 63  1  0
 55 65  1  0
 56 58  1  0
 57 63  1  0
 58 59  2  0
 58 57  1  0
 60 54  2  0
 61 60  1  0
 61 56  2  0
 62 56  1  0
 62 55  1  0
 63 53  1  0
 65 67  2  0
 66 65  1  0
 68 66  1  0
 69 78  2  0
 69 74  1  0
 70 66  1  0
 71 70  1  0
 72 73  1  0
 72 71  1  0
 73 69  1  0
 74 70  1  0
 74 75  2  0
 76 75  1  0
 77 76  2  0
 78 77  1  0
 79 53  1  0
 79 84  1  0
 79 80  1  0
 80 83  1  1
 80 81  1  0
 82 80  1  0
 84 87  1  0
 85 89  1  0
 85 84  1  0
 86 85  2  0
 89 88  1  0
 89 91  1  0
 91 90  1  0
 92 91  1  0
M  ISO  4  10 100  18 100  51 101  52 101
M  END
>  <TORSDO>  (19) 
F 25

>  <SCORE>  (19) 
-6.379

>  <name>  (19) 
18

>  <ligand_id>  (19) 
18

>  <original_smiles>  (19) 
[H]C(=O)C([H])(C([H])([H])C([H])([H])C([H])([H])N([H])C(=O)N1C([H])([H])C([H])([H])C([H])([H])C([H])(n2nc(-c3c([H])c([H])c(Oc4c([H])c([H])c(F)c([H])c4F)c([H])c3[H])c(C(=O)N([H])[H])c2N([H])[H])C1([H])[H])[N+]([H])([H])C([H])([H])C([H])([H])C([H])([H])C([H])([H])Oc1c([H])c([H])c2c(c1[H])C([H])([H])N(C(=O)C([H])(N([H])C(=O)C([H])(N([H])C([H])([H])[H])C([H])([H])[H])C(C([H])([H])[H])(C([H])([H])[H])C([H])([H])[H])C([H])(C(=O)N([H])C1([H])c3c([H])c([H])c([H])c([H])c3C([H])([H])C([H])([H])C1([H])[H])C2([H])[H]

>  <smiles>  (19) 
[H]C(=O)C([H])(C([H])([H])C([H])([H])C([H])([H])N([H])C(=O)N1C([H])([H])C([H])([H])C([H])([H])C([H])(n2nc(-c3c([H])c([H])c(Oc4c([H])c([H])c(F)c([H])c4F)c([H])c3[H])c(C(=O)N([H])[H])c2N([H])[H])C1([H])[H])[N+]([H])([H])C([H])([H])C([H])([H])C([H])([H])C([H])([H])Oc1c([H])c([H])c2c(c1[H])C([H])([H])N(C(=O)C([H])(N([H])C(=O)C([H])(N([H])C([H])([H])[H])C([H])([H])[H])C(C([H])([H])[H])(C([H])([H])[H])C([H])([H])[H])C([H])(C(=O)N([H])C1([H])c3c([H])c([H])c([H])c([H])c3C([H])([H])C([H])([H])C1([H])[H])C2([H])[H]

$$$$
19:0:0
     RDKit          3D

 92100  0  0  1  0  0  0  0  0999 V2000
  -29.6880  -20.4410   19.1500 N   0  0  0  0  0  0  0  0  0  0  0  0
  -26.8480  -18.8480   16.1460 C   0  0  0  0  0  2  0  0  0  0  0  0
  -28.3490  -18.9400   15.8140 C   0  0  0  0  0  2  0  0  0  0  0  0
  -26.4190  -19.9840   17.0890 C   0  0  0  0  0  2  0  0  0  0  0  0
  -29.2030  -18.9340   17.0990 C   0  0  0  0  0  2  0  0  0  0  0  0
  -27.2960  -20.0340   18.3510 C   0  0  0  0  0  2  0  0  0  0  0  0
  -28.8040  -20.1280   17.9920 C   0  0  0  0  0  3  0  0  0  0  0  0
  -29.0790  -21.7590   19.8140 N   0  0  0  0  0  0  0  0  0  0  0  0
  -28.2040  -21.5330   20.2890 H   0  0  0  0  0  0  0  0  0  0  0  0
  -28.9880  -23.2360   19.1690 C   0  0  0  0  0  2  0  0  0  0  0  0
  -28.0110  -24.5130   19.6980 C   0  0  0  0  0  2  0  0  0  0  0  0
  -28.2440  -26.0550   19.6420 O   0  0  0  0  0  0  0  0  0  0  0  0
  -24.6590  -31.5530   23.0550 C   0  0  0  0  0  0  0  0  0  0  0  0
  -27.1850  -27.0270   19.7180 C   0  0  0  0  0  0  0  0  0  0  0  0
  -23.4440  -30.2910   21.3170 C   0  0  0  0  0  3  0  0  0  0  0  0
  -24.8820  -28.7950   19.7980 C   0  0  0  0  0  0  0  0  0  0  0  0
  -26.0030  -30.5330   21.1820 C   0  0  0  0  0  2  0  0  0  0  0  0
  -26.0620  -29.1900   20.4340 C   0  0  0  0  0  0  0  0  0  0  0  0
  -27.2210  -28.3260   20.3710 C   0  0  0  0  0  3  0  0  0  0  0  0
  -25.9780  -26.7290   19.0580 C   0  0  0  0  0  3  0  0  0  0  0  0
  -24.8510  -27.5800   19.0920 C   0  0  0  0  0  3  0  0  0  0  0  0
  -23.6650  -29.7020   19.8970 C   0  0  0  0  0  2  0  0  0  0  0  0
  -24.7210  -30.8110   21.9070 N   0  0  0  0  0  0  0  0  0  0  0  0
  -23.5760  -31.8210   23.5960 O   0  0  0  0  0  0  0  0  0  0  0  0
  -22.7490  -29.2310   22.2070 C   0  0  0  0  0  0  0  0  0  0  0  0
  -21.4130  -29.1220   22.1000 N   0  0  0  0  0  0  0  0  0  0  0  0
  -23.4120  -28.5110   22.9590 O   0  0  0  0  0  0  0  0  0  0  0  0
  -20.9360  -29.7560   21.4720 H   0  0  0  0  0  0  0  0  0  0  0  0
  -17.9950  -28.0500   22.6310 C   0  0  0  0  0  0  0  0  0  0  0  0
  -20.5720  -28.1530   22.8060 C   0  0  0  0  0  3  0  0  0  0  0  0
  -20.5680  -26.7840   22.0840 C   0  0  0  0  0  2  0  0  0  0  0  0
  -19.4110  -26.6270   21.0920 C   0  0  0  0  0  2  0  0  0  0  0  0
  -18.0680  -26.7740   21.8110 C   0  0  0  0  0  2  0  0  0  0  0  0
  -19.1680  -28.7060   23.0870 C   0  0  0  0  0  0  0  0  0  0  0  0
  -19.0430  -29.9050   23.8200 C   0  0  0  0  0  3  0  0  0  0  0  0
  -17.7740  -30.4470   24.1000 C   0  0  0  0  0  3  0  0  0  0  0  0
  -16.6140  -29.7870   23.6570 C   0  0  0  0  0  3  0  0  0  0  0  0
  -16.7240  -28.5900   22.9280 C   0  0  0  0  0  3  0  0  0  0  0  0
  -25.9460  -32.1210   23.7300 C   0  0  0  0  0  3  0  0  0  0  0  0
  -25.6790  -33.5220   24.0930 N   0  0  0  0  0  0  0  0  0  0  0  0
  -26.0960  -34.5870   23.3920 C   0  0  0  0  0  0  0  0  0  0  0  0
  -26.8110  -34.4900   22.3930 O   0  0  0  0  0  0  0  0  0  0  0  0
  -25.0550  -33.6750   24.8700 H   0  0  0  0  0  0  0  0  0  0  0  0
  -24.4680  -36.4710   23.0230 C   0  0  0  0  0  1  0  0  0  0  0  0
  -25.6490  -35.9810   23.8770 C   0  0  0  0  0  3  0  0  0  0  0  0
  -27.7780  -36.7410   24.8400 C   0  0  0  0  0  1  0  0  0  0  0  0
  -26.7310  -36.9900   23.8540 N   0  0  0  0  0  0  0  0  0  0  0  0
  -26.3580  -37.9200   24.0200 H   0  0  0  0  0  0  0  0  0  0  0  0
  -26.3950  -31.3040   25.0050 C   0  0  1  0  0  0  0  0  0  0  0  0
  -25.2660  -31.1070   26.0440 C   0  0  0  0  0  1  0  0  0  0  0  0
  -26.9200  -29.9050   24.6090 C   0  0  0  0  0  1  0  0  0  0  0  0
  -27.5650  -32.0340   25.7090 C   0  0  0  0  0  1  0  0  0  0  0  0
  -30.0510  -19.0990   19.9940 C   0  0  0  0  0  3  0  0  0  0  0  0
  -30.7120  -17.6470   19.3990 C   0  0  0  0  0  3  0  0  0  0  0  0
  -31.5160  -15.0090   19.8270 C   0  0  0  0  0  0  0  0  0  0  0  0
  -31.1980  -12.6270   18.9820 C   0  0  0  0  0  2  0  0  0  0  0  0
  -30.2240  -12.5990   17.7760 C   0  0  0  0  0  2  0  0  0  0  0  0
  -28.7650  -12.4890   18.2540 C   0  0  0  0  0  2  0  0  0  0  0  0
  -28.4650  -13.4860   19.4040 C   0  0  0  0  0  3  0  0  0  0  0  0
  -29.5500  -13.4690   20.4980 C   0  0  0  0  0  2  0  0  0  0  0  0
  -30.8320  -13.7880   19.8560 N   0  0  0  0  0  0  0  0  0  0  0  0
  -32.6480  -14.9890   19.3270 O   0  0  0  0  0  0  0  0  0  0  0  0
  -30.5730  -16.4710   21.5810 C   0  0  0  0  0  1  0  0  0  0  0  0
  -30.8880  -16.2620   20.1670 N   0  0  0  0  0  0  0  0  0  0  0  0
  -26.2200  -14.2800   20.3300 C   0  0  0  0  0  0  0  0  0  0  0  0
  -25.0930  -13.6100   20.7160 C   0  0  0  0  0  0  0  0  0  0  0  0
  -25.3900  -12.2190   20.5690 C   0  0  0  0  0  0  0  0  0  0  0  0
  -27.1320  -13.3060   19.9630 N   0  0  0  0  0  0  0  0  0  0  0  0
  -26.6490  -12.0540   20.1730 N   0  0  0  0  0  0  0  0  0  0  0  0
  -24.5300  -11.0380   20.7360 C   0  0  0  0  0  0  0  0  0  0  0  0
  -24.8890   -9.9730   21.5930 C   0  0  0  0  0  3  0  0  0  0  0  0
  -24.0350   -8.8610   21.7500 C   0  0  0  0  0  3  0  0  0  0  0  0
  -22.8080   -8.8040   21.0490 C   0  0  0  0  0  0  0  0  0  0  0  0
  -22.4660   -9.8570   20.1820 C   0  0  0  0  0  3  0  0  0  0  0  0
  -23.3180  -10.9620   20.0230 C   0  0  0  0  0  3  0  0  0  0  0  0
  -21.9370   -7.7430   21.1070 O   0  0  0  0  0  0  0  0  0  0  0  0
  -21.8160   -6.9760   22.2360 C   0  0  0  0  0  0  0  0  0  0  0  0
  -21.4540   -7.5350   23.4800 C   0  0  0  0  0  3  0  0  0  0  0  0
  -21.2700   -6.7030   24.6010 C   0  0  0  0  0  3  0  0  0  0  0  0
  -21.4360   -5.3090   24.4790 C   0  0  0  0  0  0  0  0  0  0  0  0
  -21.7890   -4.7480   23.2390 C   0  0  0  0  0  3  0  0  0  0  0  0
  -21.9730   -5.5800   22.1190 C   0  0  0  0  0  0  0  0  0  0  0  0
  -22.2920   -5.0300   20.9220 F   0  0  0  0  0  0  0  0  0  0  0  0
  -21.2500   -4.5080   25.5530 F   0  0  0  0  0  0  0  0  0  0  0  0
  -23.7810  -14.2300   21.1050 C   0  0  0  0  0  0  0  0  0  0  0  0
  -23.0370  -13.5810   21.9940 N   0  0  0  0  0  0  0  0  0  0  0  0
  -23.4280  -15.3210   20.6560 O   0  0  0  0  0  0  0  0  0  0  0  0
  -23.3360  -12.7050   22.3920 H   0  0  0  0  0  0  0  0  0  0  0  0
  -22.1570  -13.9780   22.2890 H   0  0  0  0  0  0  0  0  0  0  0  0
  -26.5390  -15.6330   20.2430 N   0  0  0  0  0  0  0  0  0  0  0  0
  -25.8630  -16.3570   20.4600 H   0  0  0  0  0  0  0  0  0  0  0  0
  -27.4340  -16.0020   19.9500 H   0  0  0  0  0  0  0  0  0  0  0  0
  1  8  1  0
  1 53  1  0
  2  4  1  0
  3  2  1  0
  3  5  1  0
  4  6  1  0
  5  7  1  0
  7  6  1  0
  7  1  1  0
  8  9  1  0
 10 11  1  0
 10  8  1  0
 12 11  1  0
 12 14  1  0
 13 24  2  0
 14 19  1  0
 15 23  1  0
 15 25  1  0
 16 22  1  0
 16 18  1  0
 17 23  1  0
 18 17  1  0
 19 18  2  0
 20 21  1  0
 20 14  2  0
 21 16  2  0
 22 15  1  0
 23 13  1  0
 25 27  2  0
 26 25  1  0
 28 26  1  0
 29 38  2  0
 29 34  1  0
 30 26  1  0
 30 34  1  0
 31 30  1  0
 32 33  1  0
 32 31  1  0
 33 29  1  0
 34 35  2  0
 35 36  1  0
 37 36  2  0
 38 37  1  0
 39 13  1  0
 39 40  1  0
 39 49  1  0
 40 43  1  0
 41 45  1  0
 41 40  1  0
 42 41  2  0
 45 44  1  0
 47 45  1  0
 47 48  1  0
 47 46  1  0
 49 52  1  1
 49 50  1  0
 51 49  1  0
 54 53  2  0
 54 64  1  0
 55 61  1  0
 55 64  1  0
 56 61  1  0
 57 58  1  0
 57 56  1  0
 59 58  1  0
 59 68  1  0
 59 60  1  0
 61 60  1  0
 62 55  2  0
 64 63  1  0
 65 66  2  0
 66 85  1  0
 67 66  1  0
 67 70  1  0
 68 69  1  0
 68 65  1  0
 69 67  2  0
 70 71  1  0
 71 72  2  0
 73 76  1  0
 73 72  1  0
 74 73  2  0
 75 74  1  0
 75 70  2  0
 76 77  1  0
 77 78  1  0
 78 79  2  0
 80 79  1  0
 80 84  1  0
 81 80  2  0
 82 77  2  0
 82 81  1  0
 83 82  1  0
 85 86  1  0
 86 89  1  0
 86 88  1  0
 87 85  2  0
 90 65  1  0
 90 91  1  0
 92 90  1  0
M  ISO  4  11 101  12 101  55 100  64 100
M  END
>  <TORSDO>  (20) 
F 22

>  <SCORE>  (20) 
-11.981

>  <name>  (20) 
19

>  <ligand_id>  (20) 
19

>  <original_smiles>  (20) 
[H]c1c([H])c([H])c2c(c1[H])C([H])([H])C([H])([H])C([H])([H])C2([H])N([H])C(=O)C1([H])N(C(=O)C([H])(N([H])C(=O)C([H])(N([H])C([H])([H])[H])C([H])([H])[H])C(C([H])([H])[H])(C([H])([H])[H])C([H])([H])[H])C([H])([H])c2c([H])c(OC([H])([H])C([H])([H])N([H])N(C([H])([H])C([H])([H])N(C(=O)N3C([H])([H])C([H])([H])C([H])([H])C([H])(n4nc(-c5c([H])c([H])c(Oc6c([H])c([H])c(F)c([H])c6F)c([H])c5[H])c(C(=O)N([H])[H])c4N([H])[H])C3([H])[H])C([H])([H])[H])C3([H])C([H])([H])C([H])([H])C([H])([H])C([H])([H])C3([H])[H])c([H])c([H])c2C1([H])[H]

>  <smiles>  (20) 
[H]c1c([H])c([H])c2c(c1[H])C([H])([H])C([H])([H])C([H])([H])C2([H])N([H])C(=O)C1([H])N(C(=O)C([H])(N([H])C(=O)C([H])(N([H])C([H])([H])[H])C([H])([H])[H])C(C([H])([H])[H])(C([H])([H])[H])C([H])([H])[H])C([H])([H])c2c([H])c(OC([H])([H])C([H])([H])N([H])N(C([H])([H])C([H])([H])N(C(=O)N3C([H])([H])C([H])([H])C([H])([H])C([H])(n4nc(-c5c([H])c([H])c(Oc6c([H])c([H])c(F)c([H])c6F)c([H])c5[H])c(C(=O)N([H])[H])c4N([H])[H])C3([H])[H])C([H])([H])[H])C3([H])C([H])([H])C([H])([H])C([H])([H])C([H])([H])C3([H])[H])c([H])c([H])c2C1([H])[H]

$$$$
20:0:0
     RDKit          3D

 92 99  0  0  1  0  0  0  0  0999 V2000
  -29.6330  -22.1220   22.3290 C   0  0  0  0  0  2  0  0  0  0  0  0
  -28.7020  -23.1670   21.8180 N   0  0  0  0  0  4  0  0  0  0  0  0
  -28.2020  -23.5170   22.6240 H   0  0  0  0  0  0  0  0  0  0  0  0
  -28.0160  -22.7090   21.2400 H   0  0  0  0  0  0  0  0  0  0  0  0
  -29.2560  -24.3540   21.0910 C   0  0  0  0  0  2  0  0  0  0  0  0
  -28.1020  -25.2970   20.6480 C   0  0  0  0  0  2  0  0  0  0  0  0
  -28.4300  -26.6120   20.1240 O   0  0  0  0  0  0  0  0  0  0  0  0
  -24.7100  -31.7890   23.2860 C   0  0  0  0  0  0  0  0  0  0  0  0
  -27.3160  -27.4350   20.0500 C   0  0  0  0  0  0  0  0  0  0  0  0
  -23.4930  -30.4520   21.5990 C   0  0  0  0  0  3  0  0  0  0  0  0
  -24.9370  -28.9770   20.1020 C   0  0  0  0  0  0  0  0  0  0  0  0
  -26.0210  -30.8120   21.4030 C   0  0  0  0  0  2  0  0  0  0  0  0
  -26.1030  -29.4660   20.7090 C   0  0  0  0  0  0  0  0  0  0  0  0
  -27.2980  -28.7050   20.6770 C   0  0  0  0  0  3  0  0  0  0  0  0
  -26.1420  -26.9870   19.4030 C   0  0  0  0  0  3  0  0  0  0  0  0
  -24.9550  -27.7400   19.4400 C   0  0  0  0  0  3  0  0  0  0  0  0
  -23.6950  -29.8330   20.1920 C   0  0  0  0  0  2  0  0  0  0  0  0
  -24.7600  -31.0290   22.1540 N   0  0  0  0  0  0  0  0  0  0  0  0
  -23.6320  -32.0400   23.8430 O   0  0  0  0  0  0  0  0  0  0  0  0
  -22.8460  -29.3940   22.5230 C   0  0  0  0  0  0  0  0  0  0  0  0
  -21.5180  -29.2250   22.4010 N   0  0  0  0  0  0  0  0  0  0  0  0
  -23.5330  -28.7320   23.3050 O   0  0  0  0  0  0  0  0  0  0  0  0
  -21.0240  -29.8150   21.7470 H   0  0  0  0  0  0  0  0  0  0  0  0
  -18.1440  -28.0170   22.8660 C   0  0  0  0  0  0  0  0  0  0  0  0
  -20.7030  -28.2610   23.1400 C   0  0  0  0  0  3  0  0  0  0  0  0
  -20.8020  -26.8490   22.5120 C   0  0  0  0  0  2  0  0  0  0  0  0
  -19.6950  -26.5660   21.4920 C   0  0  0  0  0  2  0  0  0  0  0  0
  -18.3160  -26.6910   22.1430 C   0  0  0  0  0  2  0  0  0  0  0  0
  -19.2660  -28.7600   23.3220 C   0  0  0  0  0  0  0  0  0  0  0  0
  -19.0520  -30.0010   23.9580 C   0  0  0  0  0  3  0  0  0  0  0  0
  -17.7480  -30.5010   24.1440 C   0  0  0  0  0  3  0  0  0  0  0  0
  -16.6420  -29.7530   23.7060 C   0  0  0  0  0  3  0  0  0  0  0  0
  -16.8400  -28.5120   23.0740 C   0  0  0  0  0  3  0  0  0  0  0  0
  -26.0000  -32.3930   23.9230 C   0  0  0  0  0  3  0  0  0  0  0  0
  -26.5390  -31.5560   25.1480 C   0  0  1  0  0  0  0  0  0  0  0  0
  -25.4660  -31.2700   26.2230 C   0  0  0  0  0  1  0  0  0  0  0  0
  -27.1120  -30.2000   24.6750 C   0  0  0  0  0  1  0  0  0  0  0  0
  -27.7070  -32.3130   25.8240 C   0  0  0  0  0  1  0  0  0  0  0  0
  -25.6920  -33.7710   24.3280 N   0  0  0  0  0  0  0  0  0  0  0  0
  -26.0270  -34.8620   23.6280 C   0  0  0  0  0  0  0  0  0  0  0  0
  -26.7040  -34.8150   22.5980 O   0  0  0  0  0  0  0  0  0  0  0  0
  -25.0920  -33.8810   25.1330 H   0  0  0  0  0  0  0  0  0  0  0  0
  -24.2960  -36.6660   23.3650 C   0  0  0  0  0  1  0  0  0  0  0  0
  -25.5360  -36.2230   24.1570 C   0  0  0  0  0  3  0  0  0  0  0  0
  -27.6680  -37.0650   25.0380 C   0  0  0  0  0  1  0  0  0  0  0  0
  -26.5680  -37.2810   24.1010 N   0  0  0  0  0  0  0  0  0  0  0  0
  -26.1590  -38.1920   24.2950 H   0  0  0  0  0  0  0  0  0  0  0  0
  -29.5790  -20.8120   21.4980 C   0  0  0  0  0  2  0  0  0  0  0  0
  -30.2430  -19.5470   22.1350 C   0  0  0  0  0  2  0  0  0  0  0  0
  -30.3140  -18.3820   21.1120 C   0  0  0  0  0  3  0  0  0  0  0  0
  -30.8380  -16.9550   21.5570 C   0  0  0  0  0  3  0  0  0  0  0  0
  -31.5460  -14.6870   20.8370 C   0  0  0  0  0  0  0  0  0  0  0  0
  -31.1940  -12.3930   19.9770 C   0  0  0  0  0  2  0  0  0  0  0  0
  -30.3880  -12.3360   18.6620 C   0  0  0  0  0  2  0  0  0  0  0  0
  -28.8720  -12.4290   18.9160 C   0  0  0  0  0  2  0  0  0  0  0  0
  -28.4520  -13.4590   20.0030 C   0  0  0  0  0  3  0  0  0  0  0  0
  -29.3840  -13.4190   21.2310 C   0  0  0  0  0  2  0  0  0  0  0  0
  -30.7580  -13.5740   20.7420 N   0  0  0  0  0  0  0  0  0  0  0  0
  -32.7740  -14.5880   20.8180 O   0  0  0  0  0  0  0  0  0  0  0  0
  -30.9920  -15.8970   20.4890 N   0  0  0  0  0  0  0  0  0  0  0  0
  -26.0380  -14.2320   20.4160 C   0  0  0  0  0  0  0  0  0  0  0  0
  -24.8880  -13.5430   20.6980 C   0  0  0  0  0  0  0  0  0  0  0  0
  -25.2690  -12.1700   20.8050 C   0  0  0  0  0  0  0  0  0  0  0  0
  -27.0470  -13.2860   20.3650 N   0  0  0  0  0  0  0  0  0  0  0  0
  -26.5830  -12.0460   20.6700 N   0  0  0  0  0  0  0  0  0  0  0  0
  -24.4550  -10.9570   20.9720 C   0  0  0  0  0  0  0  0  0  0  0  0
  -24.7770   -9.9790   21.9390 C   0  0  0  0  0  3  0  0  0  0  0  0
  -23.9660   -8.8340   22.0960 C   0  0  0  0  0  3  0  0  0  0  0  0
  -22.8210   -8.6570   21.2830 C   0  0  0  0  0  0  0  0  0  0  0  0
  -22.5190   -9.6220   20.3070 C   0  0  0  0  0  3  0  0  0  0  0  0
  -23.3290  -10.7580   20.1480 C   0  0  0  0  0  3  0  0  0  0  0  0
  -21.9880   -7.5670   21.3500 O   0  0  0  0  0  0  0  0  0  0  0  0
  -21.8640   -6.8240   22.4980 C   0  0  0  0  0  0  0  0  0  0  0  0
  -21.4630   -7.4050   23.7200 C   0  0  0  0  0  3  0  0  0  0  0  0
  -21.2760   -6.5960   24.8580 C   0  0  0  0  0  3  0  0  0  0  0  0
  -21.4840   -5.2050   24.7760 C   0  0  0  0  0  0  0  0  0  0  0  0
  -21.8750   -4.6240   23.5580 C   0  0  0  0  0  3  0  0  0  0  0  0
  -22.0630   -5.4310   22.4210 C   0  0  0  0  0  0  0  0  0  0  0  0
  -22.4200   -4.8620   21.2460 F   0  0  0  0  0  0  0  0  0  0  0  0
  -21.3000   -4.4260   25.8670 F   0  0  0  0  0  0  0  0  0  0  0  0
  -23.4990  -14.1070   20.7670 C   0  0  0  0  0  0  0  0  0  0  0  0
  -22.6410  -13.5170   21.5930 N   0  0  0  0  0  0  0  0  0  0  0  0
  -23.1830  -15.1100   20.1290 O   0  0  0  0  0  0  0  0  0  0  0  0
  -22.9110  -12.7080   22.1340 H   0  0  0  0  0  0  0  0  0  0  0  0
  -21.7040  -13.8810   21.6880 H   0  0  0  0  0  0  0  0  0  0  0  0
  -26.3090  -15.5770   20.1760 N   0  0  0  0  0  0  0  0  0  0  0  0
  -25.5820  -16.2820   20.1520 H   0  0  0  0  0  0  0  0  0  0  0  0
  -27.2240  -15.9400   19.9380 H   0  0  0  0  0  0  0  0  0  0  0  0
  -32.7540  -17.1480   19.1490 C   0  0  0  0  0  1  0  0  0  0  0  0
  -31.3460  -16.4940   19.1550 C   0  0  0  0  0  3  0  0  0  0  0  0
  -31.4050  -16.2600   16.6000 C   0  0  0  0  0  1  0  0  0  0  0  0
  -31.2220  -15.5500   17.9490 C   0  0  0  0  0  2  0  0  0  0  0  0
  2  1  1  0
  2  3  1  0
  4  2  1  0
  5  2  1  0
  6  5  1  0
  7  6  1  0
  8 19  2  0
  9  7  1  0
  9 14  1  0
 10 18  1  0
 10 20  1  0
 11 17  1  0
 11 13  1  0
 12 18  1  0
 13 12  1  0
 14 13  2  0
 15 16  1  0
 15  9  2  0
 16 11  2  0
 17 10  1  0
 18  8  1  0
 20 22  2  0
 21 20  1  0
 23 21  1  0
 24 33  2  0
 24 29  1  0
 25 21  1  0
 25 29  1  0
 26 25  1  0
 27 28  1  0
 27 26  1  0
 28 24  1  0
 29 30  2  0
 30 31  1  0
 32 31  2  0
 33 32  1  0
 34  8  1  0
 34 39  1  0
 34 35  1  0
 35 38  1  1
 35 36  1  0
 37 35  1  0
 39 42  1  0
 40 44  1  0
 40 39  1  0
 41 40  2  0
 44 43  1  0
 46 44  1  0
 46 47  1  0
 46 45  1  0
 48 49  1  0
 48  1  1  0
 50 51  2  0
 50 49  1  0
 53 58  1  0
 54 55  1  0
 54 53  1  0
 56 55  1  0
 56 64  1  0
 56 57  1  0
 58 52  1  0
 58 57  1  0
 59 52  2  0
 60 52  1  0
 60 51  1  0
 61 62  2  0
 62 81  1  0
 62 63  1  0
 63 66  1  0
 64 61  1  0
 64 65  1  0
 65 63  2  0
 66 67  1  0
 67 68  2  0
 69 72  1  0
 69 68  1  0
 70 69  2  0
 71 70  1  0
 71 66  2  0
 72 73  1  0
 73 74  1  0
 74 75  2  0
 76 75  1  0
 76 80  1  0
 77 76  2  0
 78 73  2  0
 78 77  1  0
 79 78  1  0
 81 82  1  0
 82 85  1  0
 82 84  1  0
 83 81  2  0
 86 61  1  0
 87 86  1  0
 88 86  1  0
 90 89  1  0
 90 60  1  0
 91 92  1  0
 92 90  1  0
M  ISO  4   6 101   7 101  52 100  60 100
M  END
>  <TORSDO>  (21) 
F 25

>  <SCORE>  (21) 
-10.485

>  <name>  (21) 
20

>  <ligand_id>  (21) 
20

>  <original_smiles>  (21) 
[H]c1c([H])c([H])c2c(c1[H])C([H])([H])C([H])([H])C([H])([H])C2([H])N([H])C(=O)C1([H])N(C(=O)C([H])(N([H])C(=O)C([H])(N([H])C([H])([H])[H])C([H])([H])[H])C(C([H])([H])[H])(C([H])([H])[H])C([H])([H])[H])C([H])([H])c2c([H])c(OC([H])([H])C([H])([H])[N+]([H])([H])C([H])([H])C([H])([H])C([H])([H])C([H])([H])C([H])([H])N(C(=O)N3C([H])([H])C([H])([H])C([H])([H])C([H])(n4nc(-c5c([H])c([H])c(Oc6c([H])c([H])c(F)c([H])c6F)c([H])c5[H])c(C(=O)N([H])[H])c4N([H])[H])C3([H])[H])C([H])(C([H])([H])[H])C([H])([H])C([H])([H])[H])c([H])c([H])c2C1([H])[H]

>  <smiles>  (21) 
[H]c1c([H])c([H])c2c(c1[H])C([H])([H])C([H])([H])C([H])([H])C2([H])N([H])C(=O)C1([H])N(C(=O)C([H])(N([H])C(=O)C([H])(N([H])C([H])([H])[H])C([H])([H])[H])C(C([H])([H])[H])(C([H])([H])[H])C([H])([H])[H])C([H])([H])c2c([H])c(OC([H])([H])C([H])([H])[N+]([H])([H])C([H])([H])C([H])([H])C([H])([H])C([H])([H])C([H])([H])N(C(=O)N3C([H])([H])C([H])([H])C([H])([H])C([H])(n4nc(-c5c([H])c([H])c(Oc6c([H])c([H])c(F)c([H])c6F)c([H])c5[H])c(C(=O)N([H])[H])c4N([H])[H])C3([H])[H])C([H])(C([H])([H])[H])C([H])([H])C([H])([H])[H])c([H])c([H])c2C1([H])[H]

$$$$
21:0:0
     RDKit          3D

 84 88  0  0  1  0  0  0  0  0999 V2000
  -28.9170  -21.4610   19.5990 C   0  0  0  0  0 15  0  0  0  0  0  0
  -29.4910  -19.5500   21.5430 C   0  0  0  0  0  1  0  0  0  0  0  0
  -31.2320  -19.8790   19.7960 C   0  0  0  0  0  1  0  0  0  0  0  0
  -29.7450  -19.5740   20.0290 C   0  0  0  0  0  3  0  0  0  0  0  0
  -30.4530  -16.2160   19.6660 C   0  0  0  0  0  0  0  0  0  0  0  0
  -30.6050  -13.5860   18.8560 C   0  0  0  0  0  2  0  0  0  0  0  0
  -29.6800  -12.9640   17.7570 C   0  0  0  0  0  2  0  0  0  0  0  0
  -28.3270  -12.5320   18.3350 C   0  0  0  0  0  2  0  0  0  0  0  0
  -27.8220  -13.5740   19.3520 C   0  0  0  0  0  3  0  0  0  0  0  0
  -28.9000  -14.0630   20.3590 C   0  0  0  0  0  2  0  0  0  0  0  0
  -29.9460  -14.7990   19.5780 N   0  0  0  0  0  0  0  0  0  0  0  0
  -31.6940  -16.0660   19.5620 O   0  0  0  0  0  0  0  0  0  0  0  0
  -29.7180  -17.6950   19.6770 N   0  0  0  0  0  0  0  0  0  0  0  0
  -28.7460  -17.4630   19.5220 H   0  0  0  0  0  0  0  0  0  0  0  0
  -25.5350  -14.0830   20.3070 C   0  0  0  0  0  0  0  0  0  0  0  0
  -24.4990  -13.3010   20.7260 C   0  0  0  0  0  0  0  0  0  0  0  0
  -24.9560  -11.9500   20.6310 C   0  0  0  0  0  0  0  0  0  0  0  0
  -26.5550  -13.2150   19.9720 N   0  0  0  0  0  0  0  0  0  0  0  0
  -26.2260  -11.9200   20.2300 N   0  0  0  0  0  0  0  0  0  0  0  0
  -24.2290  -10.6900   20.8400 C   0  0  0  0  0  0  0  0  0  0  0  0
  -24.6520   -9.7380   21.7940 C   0  0  0  0  0  3  0  0  0  0  0  0
  -23.9180   -8.5490   21.9940 C   0  0  0  0  0  3  0  0  0  0  0  0
  -22.7460   -8.3020   21.2420 C   0  0  0  0  0  0  0  0  0  0  0  0
  -22.3390   -9.2410   20.2790 C   0  0  0  0  0  3  0  0  0  0  0  0
  -23.0740  -10.4220   20.0760 C   0  0  0  0  0  3  0  0  0  0  0  0
  -21.9850   -7.1630   21.3520 O   0  0  0  0  0  0  0  0  0  0  0  0
  -21.8690   -6.4840   22.5390 C   0  0  0  0  0  0  0  0  0  0  0  0
  -21.3100   -7.0860   23.6880 C   0  0  0  0  0  3  0  0  0  0  0  0
  -21.1440   -6.3310   24.8660 C   0  0  0  0  0  3  0  0  0  0  0  0
  -21.5280   -4.9770   24.8970 C   0  0  0  0  0  0  0  0  0  0  0  0
  -22.0830   -4.3760   23.7530 C   0  0  0  0  0  3  0  0  0  0  0  0
  -22.2490   -5.1270   22.5760 C   0  0  0  0  0  0  0  0  0  0  0  0
  -22.7630   -4.5370   21.4700 F   0  0  0  0  0  0  0  0  0  0  0  0
  -21.3630   -4.2500   26.0270 F   0  0  0  0  0  0  0  0  0  0  0  0
  -23.1260  -13.7830   21.0910 C   0  0  0  0  0  0  0  0  0  0  0  0
  -22.4560  -13.0910   22.0050 N   0  0  0  0  0  0  0  0  0  0  0  0
  -22.6610  -14.8120   20.6010 O   0  0  0  0  0  0  0  0  0  0  0  0
  -22.8480  -12.2600   22.4210 H   0  0  0  0  0  0  0  0  0  0  0  0
  -21.5380  -13.4000   22.2940 H   0  0  0  0  0  0  0  0  0  0  0  0
  -25.6860  -15.4570   20.1480 N   0  0  0  0  0  0  0  0  0  0  0  0
  -24.9250  -16.1030   20.3260 H   0  0  0  0  0  0  0  0  0  0  0  0
  -26.5080  -15.9070   19.7650 H   0  0  0  0  0  0  0  0  0  0  0  0
  -28.4070  -23.3990   20.2720 C   0  0  0  0  0 15  0  0  0  0  0  0
  -28.3200  -25.2880   20.0760 O   0  0  0  0  0  1  0  0  0  0  0  0
  -24.5610  -31.7740   23.0230 C   0  0  0  0  0  0  0  0  0  0  0  0
  -27.3040  -26.5620   20.1160 C   0  0  0  0  0  0  0  0  0  0  0  0
  -23.4570  -30.3210   21.3820 C   0  0  0  0  0  3  0  0  0  0  0  0
  -24.9810  -28.6720   20.0170 C   0  0  0  0  0  0  0  0  0  0  0  0
  -26.0430  -30.4870   21.3190 C   0  0  0  0  0  2  0  0  0  0  0  0
  -26.1640  -29.0270   20.6730 C   0  0  0  0  0  0  0  0  0  0  0  0
  -27.2990  -28.0110   20.6750 C   0  0  0  0  0  3  0  0  0  0  0  0
  -26.0670  -26.4800   19.4040 C   0  0  0  0  0  3  0  0  0  0  0  0
  -24.9860  -27.4290   19.3560 C   0  0  0  0  0  3  0  0  0  0  0  0
  -23.7520  -29.6120   20.0270 C   0  0  0  0  0  2  0  0  0  0  0  0
  -24.7120  -30.9020   21.9600 N   0  0  0  0  0  0  0  0  0  0  0  0
  -23.4460  -32.0450   23.5060 O   0  0  0  0  0  0  0  0  0  0  0  0
  -22.7400  -29.3430   22.3550 C   0  0  0  0  0  0  0  0  0  0  0  0
  -21.4090  -29.1730   22.2360 N   0  0  0  0  0  0  0  0  0  0  0  0
  -23.4030  -28.7270   23.1940 O   0  0  0  0  0  0  0  0  0  0  0  0
  -20.9200  -29.7200   21.5400 H   0  0  0  0  0  0  0  0  0  0  0  0
  -18.0380  -27.9110   22.7850 C   0  0  0  0  0  0  0  0  0  0  0  0
  -20.6000  -28.2160   23.0050 C   0  0  0  0  0  3  0  0  0  0  0  0
  -20.7100  -26.7930   22.4070 C   0  0  0  0  0  2  0  0  0  0  0  0
  -19.5970  -26.4720   21.4050 C   0  0  0  0  0  2  0  0  0  0  0  0
  -18.2240  -26.5800   22.0740 C   0  0  0  0  0  2  0  0  0  0  0  0
  -19.1520  -28.6870   23.2070 C   0  0  0  0  0  0  0  0  0  0  0  0
  -18.9190  -29.9260   23.8400 C   0  0  0  0  0  3  0  0  0  0  0  0
  -17.6090  -30.3950   24.0480 C   0  0  0  0  0  3  0  0  0  0  0  0
  -16.5100  -29.6180   23.6370 C   0  0  0  0  0  3  0  0  0  0  0  0
  -16.7260  -28.3780   23.0120 C   0  0  0  0  0  3  0  0  0  0  0  0
  -25.7780  -32.4880   23.6860 C   0  0  0  0  0  3  0  0  0  0  0  0
  -25.3960  -33.8840   23.9940 N   0  0  0  0  0  0  0  0  0  0  0  0
  -25.7140  -34.9580   23.2580 C   0  0  0  0  0  0  0  0  0  0  0  0
  -26.4120  -34.8800   22.2450 O   0  0  0  0  0  0  0  0  0  0  0  0
  -24.7720  -34.0120   24.7780 H   0  0  0  0  0  0  0  0  0  0  0  0
  -23.9490  -36.7210   22.8780 C   0  0  0  0  0  1  0  0  0  0  0  0
  -25.1810  -36.3350   23.7140 C   0  0  0  0  0  3  0  0  0  0  0  0
  -27.2580  -37.2920   24.6150 C   0  0  0  0  0  1  0  0  0  0  0  0
  -26.1870  -37.4180   23.6300 N   0  0  0  0  0  0  0  0  0  0  0  0
  -25.7500  -38.3270   23.7510 H   0  0  0  0  0  0  0  0  0  0  0  0
  -26.2630  -31.7730   25.0100 C   0  0  1  0  0  0  0  0  0  0  0  0
  -25.1320  -31.5180   26.0340 C   0  0  0  0  0  1  0  0  0  0  0  0
  -26.9210  -30.4110   24.6990 C   0  0  0  0  0  1  0  0  0  0  0  0
  -27.3470  -32.6330   25.7030 C   0  0  0  0  0  1  0  0  0  0  0  0
  3  4  1  0
  4  2  1  0
  5 13  1  0
  6 11  1  0
  7  8  1  0
  7  6  1  0
  9  8  1  0
  9 18  1  0
  9 10  1  0
 11  5  1  0
 11 10  1  0
 12  5  2  0
 13  4  1  0
 14 13  1  0
 15 16  2  0
 16 35  1  0
 17 16  1  0
 17 20  1  0
 18 19  1  0
 18 15  1  0
 19 17  2  0
 20 21  1  0
 21 22  2  0
 23 26  1  0
 23 22  1  0
 24 23  2  0
 25 24  1  0
 25 20  2  0
 26 27  1  0
 27 32  2  0
 27 28  1  0
 28 29  2  0
 29 30  1  0
 30 34  1  0
 31 30  2  0
 32 31  1  0
 33 32  1  0
 35 36  1  0
 36 39  1  0
 36 38  1  0
 37 35  2  0
 40 15  1  0
 40 41  1  0
 42 40  1  0
 44 46  1  0
 45 56  2  0
 46 51  1  0
 47 55  1  0
 47 57  1  0
 48 54  1  0
 48 50  1  0
 49 55  1  0
 50 51  2  0
 50 49  1  0
 52 46  2  0
 53 52  1  0
 53 48  2  0
 54 47  1  0
 55 45  1  0
 57 59  2  0
 58 57  1  0
 60 58  1  0
 61 70  2  0
 61 66  1  0
 62 58  1  0
 62 66  1  0
 63 62  1  0
 64 65  1  0
 64 63  1  0
 65 61  1  0
 66 67  2  0
 67 68  1  0
 69 68  2  0
 70 69  1  0
 71 45  1  0
 71 72  1  0
 71 81  1  0
 72 75  1  0
 73 77  1  0
 73 72  1  0
 74 73  2  0
 77 76  1  0
 79 77  1  0
 79 80  1  0
 79 78  1  0
 81 84  1  1
 81 82  1  0
 83 81  1  0
M  ISO  4   5 100  13 100  43 101  44 101
M  END
>  <TORSDO>  (22) 
F 18

>  <SCORE>  (22) 
-15.259

>  <name>  (22) 
21

>  <ligand_id>  (22) 
21

>  <original_smiles>  (22) 
[H]c1c([H])c([H])c2c(c1[H])C([H])([H])C([H])([H])C([H])([H])C2([H])N([H])C(=O)C1([H])N(C(=O)C([H])(N([H])C(=O)C([H])(N([H])C([H])([H])[H])C([H])([H])[H])C(C([H])([H])[H])(C([H])([H])[H])C([H])([H])[H])C([H])([H])c2c([H])c(OC([H])([H])C([H])([H])C(N([H])C(=O)N3C([H])([H])C([H])([H])C([H])([H])C([H])(n4nc(-c5c([H])c([H])c(Oc6c([H])c([H])c(F)c([H])c6F)c([H])c5[H])c(C(=O)N([H])[H])c4N([H])[H])C3([H])[H])(C([H])([H])[H])C([H])([H])[H])c([H])c([H])c2C1([H])[H]

>  <smiles>  (22) 
[H]c1c([H])c([H])c2c(c1[H])C([H])([H])C([H])([H])C([H])([H])C2([H])N([H])C(=O)C1([H])N(C(=O)C([H])(N([H])C(=O)C([H])(N([H])C([H])([H])[H])C([H])([H])[H])C(C([H])([H])[H])(C([H])([H])[H])C([H])([H])[H])C([H])([H])c2c([H])c(OC([H])([H])C([H])([H])C(N([H])C(=O)N3C([H])([H])C([H])([H])C([H])([H])C([H])(n4nc(-c5c([H])c([H])c(Oc6c([H])c([H])c(F)c([H])c6F)c([H])c5[H])c(C(=O)N([H])[H])c4N([H])[H])C3([H])[H])(C([H])([H])[H])C([H])([H])[H])c([H])c([H])c2C1([H])[H]

$$$$
22:0:0
     RDKit          3D

 94102  0  0  1  0  0  0  0  0999 V2000
  -28.6000  -19.7510   21.2930 C   0  0  0  0  0  3  0  0  0  0  0  0
  -28.2340  -21.0200   21.7760 C   0  0  0  0  0  3  0  0  0  0  0  0
  -30.0720  -20.8040   19.6640 C   0  0  0  0  0  3  0  0  0  0  0  0
  -29.5350  -19.6110   20.2460 C   0  0  0  0  0  0  0  0  0  0  0  0
  -28.7970  -22.1860   21.2280 C   0  0  0  0  0  0  0  0  0  0  0  0
  -29.7080  -22.1040   20.1470 C   0  0  0  0  0  0  0  0  0  0  0  0
  -28.4620  -23.4180   21.7900 N   0  0  0  0  0  0  0  0  0  0  0  0
  -27.9560  -23.4310   22.6680 H   0  0  0  0  0  0  0  0  0  0  0  0
  -29.1340  -24.1670   21.7040 H   0  0  0  0  0  0  0  0  0  0  0  0
  -30.3030  -23.2970   19.6580 N   0  0  0  0  0  0  0  0  0  0  0  0
  -30.8230  -23.7550   20.4000 H   0  0  0  0  0  0  0  0  0  0  0  0
  -29.5000  -24.3020   18.9180 C   0  0  0  0  0  2  0  0  0  0  0  0
  -28.9550  -25.5040   19.7760 C   0  0  0  0  0  2  0  0  0  0  0  0
  -28.7570  -26.7550   19.0640 O   0  0  0  0  0  0  0  0  0  0  0  0
  -24.6510  -31.2720   22.8430 C   0  0  0  0  0  0  0  0  0  0  0  0
  -27.5390  -27.4000   19.2230 C   0  0  0  0  0  0  0  0  0  0  0  0
  -23.5060  -29.9770   21.0730 C   0  0  0  0  0  3  0  0  0  0  0  0
  -25.0320  -28.7210   19.4530 C   0  0  0  0  0  0  0  0  0  0  0  0
  -25.9930  -30.5460   20.8670 C   0  0  0  0  0  2  0  0  0  0  0  0
  -26.1660  -29.2630   20.0720 C   0  0  0  0  0  0  0  0  0  0  0  0
  -27.4220  -28.6150   19.9480 C   0  0  0  0  0  3  0  0  0  0  0  0
  -26.3840  -26.8780   18.6040 C   0  0  0  0  0  3  0  0  0  0  0  0
  -25.1390  -27.5290   18.7140 C   0  0  0  0  0  3  0  0  0  0  0  0
  -23.7260  -29.4710   19.6210 C   0  0  0  0  0  2  0  0  0  0  0  0
  -24.7350  -30.6090   21.6530 N   0  0  0  0  0  0  0  0  0  0  0  0
  -23.5690  -31.3940   23.4330 O   0  0  0  0  0  0  0  0  0  0  0  0
  -22.9580  -28.8070   21.9240 C   0  0  0  0  0  0  0  0  0  0  0  0
  -21.6500  -28.5250   21.7880 N   0  0  0  0  0  0  0  0  0  0  0  0
  -23.7060  -28.1600   22.6610 O   0  0  0  0  0  0  0  0  0  0  0  0
  -21.0990  -29.1090   21.1750 H   0  0  0  0  0  0  0  0  0  0  0  0
  -18.4070  -26.9770   22.1650 C   0  0  0  0  0  0  0  0  0  0  0  0
  -20.9330  -27.4400   22.4580 C   0  0  0  0  0  3  0  0  0  0  0  0
  -21.1590  -26.0910   21.7360 C   0  0  0  0  0  2  0  0  0  0  0  0
  -20.0800  -25.7760   20.6950 C   0  0  0  0  0  2  0  0  0  0  0  0
  -18.6980  -25.7270   21.3510 C   0  0  0  0  0  2  0  0  0  0  0  0
  -19.4560  -27.7890   22.6710 C   0  0  0  0  0  0  0  0  0  0  0  0
  -19.1290  -28.9580   23.3910 C   0  0  0  0  0  3  0  0  0  0  0  0
  -17.7860  -29.3170   23.6100 C   0  0  0  0  0  3  0  0  0  0  0  0
  -16.7530  -28.5000   23.1220 C   0  0  0  0  0  3  0  0  0  0  0  0
  -17.0640  -27.3310   22.4050 C   0  0  0  0  0  3  0  0  0  0  0  0
  -25.9020  -31.9270   23.5060 C   0  0  0  0  0  3  0  0  0  0  0  0
  -25.5120  -33.2690   23.9620 N   0  0  0  0  0  0  0  0  0  0  0  0
  -25.7890  -34.4040   23.3070 C   0  0  0  0  0  0  0  0  0  0  0  0
  -26.4690  -34.4340   22.2770 O   0  0  0  0  0  0  0  0  0  0  0  0
  -24.9150  -33.3170   24.7740 H   0  0  0  0  0  0  0  0  0  0  0  0
  -23.9700  -36.1290   23.0920 C   0  0  0  0  0  1  0  0  0  0  0  0
  -25.2190  -35.7130   23.8860 C   0  0  0  0  0  3  0  0  0  0  0  0
  -27.2850  -36.6260   24.8490 C   0  0  0  0  0  1  0  0  0  0  0  0
  -26.1940  -36.8250   23.8990 N   0  0  0  0  0  0  0  0  0  0  0  0
  -25.7360  -37.7050   24.1230 H   0  0  0  0  0  0  0  0  0  0  0  0
  -26.4850  -31.0830   24.7060 C   0  0  1  0  0  0  0  0  0  0  0  0
  -25.4250  -30.6940   25.7640 C   0  0  0  0  0  1  0  0  0  0  0  0
  -27.1390  -29.7800   24.1900 C   0  0  0  0  0  1  0  0  0  0  0  0
  -27.5990  -31.8860   25.4200 C   0  0  0  0  0  1  0  0  0  0  0  0
  -29.8460  -18.1750   19.7430 C   0  0  0  0  0  2  0  0  0  0  0  0
  -30.4270  -17.1570   20.7920 C   0  0  0  0  0  2  0  0  0  0  0  0
  -30.8700  -14.6960   20.1290 C   0  0  0  0  0  0  0  0  0  0  0  0
  -30.6250  -12.4350   19.1380 C   0  0  0  0  0  2  0  0  0  0  0  0
  -29.6420  -12.5120   17.9500 C   0  0  0  0  0  2  0  0  0  0  0  0
  -28.1770  -12.3910   18.4210 C   0  0  0  0  0  2  0  0  0  0  0  0
  -27.8570  -13.3090   19.6330 C   0  0  0  0  0  3  0  0  0  0  0  0
  -28.9440  -13.1790   20.7240 C   0  0  0  0  0  2  0  0  0  0  0  0
  -30.2410  -13.4840   20.0970 N   0  0  0  0  0  0  0  0  0  0  0  0
  -32.0010  -14.8740   19.6740 O   0  0  0  0  0  0  0  0  0  0  0  0
  -30.0990  -15.7240   20.5600 N   0  0  0  0  0  0  0  0  0  0  0  0
  -29.1710  -15.4450   20.8420 H   0  0  0  0  0  0  0  0  0  0  0  0
  -25.5170  -13.9650   20.4850 C   0  0  0  0  0  0  0  0  0  0  0  0
  -24.4390  -13.2150   20.8680 C   0  0  0  0  0  0  0  0  0  0  0  0
  -24.8480  -11.8510   20.7560 C   0  0  0  0  0  0  0  0  0  0  0  0
  -26.5180  -13.0590   20.1650 N   0  0  0  0  0  0  0  0  0  0  0  0
  -26.1220  -11.7800   20.3870 N   0  0  0  0  0  0  0  0  0  0  0  0
  -24.0860  -10.6080   20.9230 C   0  0  0  0  0  0  0  0  0  0  0  0
  -24.5170   -9.5900   21.8030 C   0  0  0  0  0  3  0  0  0  0  0  0
  -23.7540   -8.4130   21.9590 C   0  0  0  0  0  3  0  0  0  0  0  0
  -22.5490   -8.2450   21.2390 C   0  0  0  0  0  0  0  0  0  0  0  0
  -22.1390   -9.2500   20.3470 C   0  0  0  0  0  3  0  0  0  0  0  0
  -22.9000  -10.4200   20.1860 C   0  0  0  0  0  3  0  0  0  0  0  0
  -21.7570   -7.1240   21.3100 O   0  0  0  0  0  0  0  0  0  0  0  0
  -21.7150   -6.3430   22.4360 C   0  0  0  0  0  0  0  0  0  0  0  0
  -21.3130   -6.8590   23.6880 C   0  0  0  0  0  3  0  0  0  0  0  0
  -21.2160   -6.0040   24.8040 C   0  0  0  0  0  3  0  0  0  0  0  0
  -21.5120   -4.6350   24.6700 C   0  0  0  0  0  0  0  0  0  0  0  0
  -21.9070   -4.1170   23.4240 C   0  0  0  0  0  3  0  0  0  0  0  0
  -22.0050   -4.9690   22.3100 C   0  0  0  0  0  0  0  0  0  0  0  0
  -22.3660   -4.4610   21.1070 F   0  0  0  0  0  0  0  0  0  0  0  0
  -21.4100   -3.8110   25.7400 F   0  0  0  0  0  0  0  0  0  0  0  0
  -23.0740  -13.7290   21.2280 C   0  0  0  0  0  0  0  0  0  0  0  0
  -22.3560  -13.0220   22.0940 N   0  0  0  0  0  0  0  0  0  0  0  0
  -22.6540  -14.7910   20.7720 O   0  0  0  0  0  0  0  0  0  0  0  0
  -22.7040  -12.1610   22.4890 H   0  0  0  0  0  0  0  0  0  0  0  0
  -21.4410  -13.3510   22.3700 H   0  0  0  0  0  0  0  0  0  0  0  0
  -25.7180  -15.3370   20.3660 N   0  0  0  0  0  0  0  0  0  0  0  0
  -24.9720  -15.9960   20.5550 H   0  0  0  0  0  0  0  0  0  0  0  0
  -26.5690  -15.7830   20.0490 H   0  0  0  0  0  0  0  0  0  0  0  0
  1  2  1  0
  3  6  2  0
  3  4  1  0
  4  1  2  0
  5  2  2  0
  5  7  1  0
  6  5  1  0
  7  8  1  0
  9  7  1  0
 10  6  1  0
 10 11  1  0
 12 10  1  0
 12 13  1  0
 14 16  1  0
 14 13  1  0
 15 26  2  0
 16 21  1  0
 17 25  1  0
 17 27  1  0
 18 24  1  0
 18 20  1  0
 19 25  1  0
 20 19  1  0
 21 20  2  0
 22 23  1  0
 22 16  2  0
 23 18  2  0
 24 17  1  0
 25 15  1  0
 27 29  2  0
 28 27  1  0
 30 28  1  0
 31 40  2  0
 31 36  1  0
 32 28  1  0
 32 36  1  0
 33 32  1  0
 34 35  1  0
 34 33  1  0
 35 31  1  0
 36 37  2  0
 37 38  1  0
 39 38  2  0
 40 39  1  0
 41 15  1  0
 41 42  1  0
 41 51  1  0
 42 45  1  0
 43 47  1  0
 43 42  1  0
 44 43  2  0
 47 46  1  0
 47 49  1  0
 49 50  1  0
 49 48  1  0
 51 54  1  1
 51 52  1  0
 53 51  1  0
 55  4  1  0
 55 56  1  0
 57 65  1  0
 58 63  1  0
 59 60  1  0
 59 58  1  0
 61 60  1  0
 61 70  1  0
 61 62  1  0
 63 57  1  0
 63 62  1  0
 64 57  2  0
 65 56  1  0
 65 66  1  0
 67 68  2  0
 68 87  1  0
 69 68  1  0
 69 72  1  0
 70 71  1  0
 70 67  1  0
 71 69  2  0
 72 73  1  0
 73 74  2  0
 75 78  1  0
 75 74  1  0
 76 75  2  0
 77 76  1  0
 77 72  2  0
 78 79  1  0
 79 80  1  0
 80 81  2  0
 82 81  1  0
 82 86  1  0
 83 82  2  0
 84 79  2  0
 84 83  1  0
 85 84  1  0
 87 88  1  0
 88 91  1  0
 88 90  1  0
 89 87  2  0
 92 67  1  0
 92 93  1  0
 94 92  1  0
M  ISO  4  13 101  14 101  57 100  65 100
M  END
>  <TORSDO>  (23) 
F 22

>  <SCORE>  (23) 
-10.365

>  <name>  (23) 
22

>  <ligand_id>  (23) 
22

>  <original_smiles>  (23) 
[H]c1c([H])c([H])c2c(c1[H])C([H])([H])C([H])([H])C([H])([H])C2([H])N([H])C(=O)C1([H])N(C(=O)C([H])(N([H])C(=O)C([H])(N([H])C([H])([H])[H])C([H])([H])[H])C(C([H])([H])[H])(C([H])([H])[H])C([H])([H])[H])C([H])([H])c2c([H])c(OC([H])([H])C([H])([H])N([H])c3c([H])c(C([H])([H])C([H])([H])N([H])C(=O)N4C([H])([H])C([H])([H])C([H])([H])C([H])(n5nc(-c6c([H])c([H])c(Oc7c([H])c([H])c(F)c([H])c7F)c([H])c6[H])c(C(=O)N([H])[H])c5N([H])[H])C4([H])[H])c([H])c([H])c3N([H])[H])c([H])c([H])c2C1([H])[H]

>  <smiles>  (23) 
[H]c1c([H])c([H])c2c(c1[H])C([H])([H])C([H])([H])C([H])([H])C2([H])N([H])C(=O)C1([H])N(C(=O)C([H])(N([H])C(=O)C([H])(N([H])C([H])([H])[H])C([H])([H])[H])C(C([H])([H])[H])(C([H])([H])[H])C([H])([H])[H])C([H])([H])c2c([H])c(OC([H])([H])C([H])([H])N([H])c3c([H])c(C([H])([H])C([H])([H])N([H])C(=O)N4C([H])([H])C([H])([H])C([H])([H])C([H])(n5nc(-c6c([H])c([H])c(Oc7c([H])c([H])c(F)c([H])c7F)c([H])c6[H])c(C(=O)N([H])[H])c5N([H])[H])C4([H])[H])c([H])c([H])c3N([H])[H])c([H])c([H])c2C1([H])[H]

$$$$
23:0:0
     RDKit          3D

 93101  0  0  1  0  0  0  0  0999 V2000
  -29.5070  -20.6610   19.4510 C   0  0  0  0  0  2  0  0  0  0  0  0
  -28.6240  -21.1540   21.7630 C   0  0  0  0  0  2  0  0  0  0  0  0
  -28.7280  -21.9720   19.1440 C   0  0  0  0  0  2  0  0  0  0  0  0
  -28.7450  -22.6830   21.5280 C   0  0  0  0  0  2  0  0  0  0  0  0
  -29.6590  -20.3390   20.9610 C   0  0  0  0  0  3  0  0  0  0  0  0
  -29.0030  -23.0760   20.1080 N   0  0  2  0  0  4  0  0  0  0  0  0
  -29.9990  -23.2420   20.0430 H   0  0  0  0  0  0  0  0  0  0  0  0
  -29.5900  -18.8800   21.2830 N   0  0  0  0  0  4  0  0  0  0  0  0
  -28.6770  -18.5130   21.0650 H   0  0  0  0  0  0  0  0  0  0  0  0
  -29.7030  -18.7940   22.2810 H   0  0  0  0  0  0  0  0  0  0  0  0
  -30.6160  -17.9940   20.6690 C   0  0  0  0  0  2  0  0  0  0  0  0
  -30.9340  -16.7480   21.5440 C   0  0  0  0  0  2  0  0  0  0  0  0
  -30.9230  -14.5830   20.2620 C   0  0  0  0  0  0  0  0  0  0  0  0
  -30.5570  -12.4960   18.9890 C   0  0  0  0  0  2  0  0  0  0  0  0
  -29.5770  -12.7440   17.8260 C   0  0  0  0  0  2  0  0  0  0  0  0
  -28.1170  -12.5990   18.2970 C   0  0  0  0  0  2  0  0  0  0  0  0
  -27.8270  -13.3950   19.5970 C   0  0  0  0  0  3  0  0  0  0  0  0
  -28.9090  -13.1140   20.6630 C   0  0  0  0  0  2  0  0  0  0  0  0
  -30.2210  -13.4320   20.0720 N   0  0  0  0  0  0  0  0  0  0  0  0
  -31.9920  -14.8240   19.6960 O   0  0  0  0  0  0  0  0  0  0  0  0
  -30.3460  -15.4840   21.0760 N   0  0  0  0  0  0  0  0  0  0  0  0
  -29.4650  -15.2060   21.4850 H   0  0  0  0  0  0  0  0  0  0  0  0
  -25.4430  -14.0030   20.3580 C   0  0  0  0  0  0  0  0  0  0  0  0
  -24.3840  -13.2290   20.7520 C   0  0  0  0  0  0  0  0  0  0  0  0
  -24.8460  -11.8780   20.7100 C   0  0  0  0  0  0  0  0  0  0  0  0
  -26.4830  -13.1220   20.1040 N   0  0  0  0  0  0  0  0  0  0  0  0
  -26.1280  -11.8390   20.3720 N   0  0  0  0  0  0  0  0  0  0  0  0
  -24.1250  -10.6160   20.9160 C   0  0  0  0  0  0  0  0  0  0  0  0
  -24.5620   -9.6630   21.8630 C   0  0  0  0  0  3  0  0  0  0  0  0
  -23.8430   -8.4640   22.0560 C   0  0  0  0  0  3  0  0  0  0  0  0
  -22.6730   -8.2090   21.3020 C   0  0  0  0  0  0  0  0  0  0  0  0
  -22.2550   -9.1510   20.3450 C   0  0  0  0  0  3  0  0  0  0  0  0
  -22.9750  -10.3410   20.1500 C   0  0  0  0  0  3  0  0  0  0  0  0
  -21.9250   -7.0610   21.4040 O   0  0  0  0  0  0  0  0  0  0  0  0
  -21.8550   -6.3480   22.5740 C   0  0  0  0  0  0  0  0  0  0  0  0
  -21.3810   -6.9270   23.7710 C   0  0  0  0  0  3  0  0  0  0  0  0
  -21.2620   -6.1390   24.9340 C   0  0  0  0  0  3  0  0  0  0  0  0
  -21.6050   -4.7740   24.9000 C   0  0  0  0  0  0  0  0  0  0  0  0
  -22.0710   -4.1950   23.7060 C   0  0  0  0  0  3  0  0  0  0  0  0
  -22.1930   -4.9800   22.5450 C   0  0  0  0  0  0  0  0  0  0  0  0
  -22.6230   -4.4130   21.3930 F   0  0  0  0  0  0  0  0  0  0  0  0
  -21.4820   -4.0150   26.0130 F   0  0  0  0  0  0  0  0  0  0  0  0
  -22.9940  -13.7060   21.0570 C   0  0  0  0  0  0  0  0  0  0  0  0
  -22.2860  -13.0080   21.9390 N   0  0  0  0  0  0  0  0  0  0  0  0
  -22.5430  -14.7310   20.5480 O   0  0  0  0  0  0  0  0  0  0  0  0
  -22.6640  -12.1780   22.3730 H   0  0  0  0  0  0  0  0  0  0  0  0
  -21.3540  -13.3080   22.1850 H   0  0  0  0  0  0  0  0  0  0  0  0
  -25.6030  -15.3730   20.1740 N   0  0  0  0  0  0  0  0  0  0  0  0
  -24.8330  -16.0230   20.2840 H   0  0  0  0  0  0  0  0  0  0  0  0
  -26.4350  -15.8040   19.7920 H   0  0  0  0  0  0  0  0  0  0  0  0
  -28.3530  -24.3640   19.6950 C   0  0  0  0  0  2  0  0  0  0  0  0
  -28.6160  -25.5690   20.6400 C   0  0  0  0  0  2  0  0  0  0  0  0
  -28.5410  -26.8490   19.9900 O   0  0  0  0  0  0  0  0  0  0  0  0
  -24.6230  -31.8710   23.1970 C   0  0  0  0  0  0  0  0  0  0  0  0
  -27.3430  -27.5260   20.0490 C   0  0  0  0  0  0  0  0  0  0  0  0
  -23.4410  -30.4810   21.5260 C   0  0  0  0  0  3  0  0  0  0  0  0
  -24.9210  -28.9850   20.0840 C   0  0  0  0  0  0  0  0  0  0  0  0
  -25.9600  -30.8820   21.3390 C   0  0  0  0  0  2  0  0  0  0  0  0
  -26.0680  -29.5220   20.6810 C   0  0  0  0  0  0  0  0  0  0  0  0
  -27.2830  -28.8010   20.6560 C   0  0  0  0  0  3  0  0  0  0  0  0
  -26.1790  -26.9980   19.4500 C   0  0  0  0  0  3  0  0  0  0  0  0
  -24.9710  -27.7220   19.4670 C   0  0  0  0  0  3  0  0  0  0  0  0
  -23.6630  -29.8250   20.1380 C   0  0  0  0  0  2  0  0  0  0  0  0
  -24.6930  -31.0920   22.0810 N   0  0  0  0  0  0  0  0  0  0  0  0
  -23.5370  -32.1180   23.7390 O   0  0  0  0  0  0  0  0  0  0  0  0
  -22.8030  -29.4350   22.4670 C   0  0  0  0  0  0  0  0  0  0  0  0
  -21.4800  -29.2370   22.3330 N   0  0  0  0  0  0  0  0  0  0  0  0
  -23.4930  -28.8040   23.2720 O   0  0  0  0  0  0  0  0  0  0  0  0
  -20.9850  -29.8010   21.6560 H   0  0  0  0  0  0  0  0  0  0  0  0
  -18.1210  -27.9960   22.8030 C   0  0  0  0  0  0  0  0  0  0  0  0
  -20.6750  -28.2750   23.0830 C   0  0  0  0  0  3  0  0  0  0  0  0
  -20.7940  -26.8580   22.4770 C   0  0  0  0  0  2  0  0  0  0  0  0
  -19.6960  -26.5450   21.4560 C   0  0  0  0  0  2  0  0  0  0  0  0
  -18.3120  -26.6610   22.1010 C   0  0  0  0  0  2  0  0  0  0  0  0
  -19.2310  -28.7590   23.2510 C   0  0  0  0  0  0  0  0  0  0  0  0
  -18.9990  -30.0090   23.8670 C   0  0  0  0  0  3  0  0  0  0  0  0
  -17.6880  -30.4930   24.0400 C   0  0  0  0  0  3  0  0  0  0  0  0
  -16.5920  -29.7260   23.6110 C   0  0  0  0  0  3  0  0  0  0  0  0
  -16.8100  -28.4780   22.9970 C   0  0  0  0  0  3  0  0  0  0  0  0
  -25.8990  -32.5090   23.8320 C   0  0  0  0  0  3  0  0  0  0  0  0
  -25.5770  -33.9010   24.1670 N   0  0  0  0  0  0  0  0  0  0  0  0
  -25.9070  -34.9600   23.4150 C   0  0  0  0  0  0  0  0  0  0  0  0
  -26.5870  -34.8670   22.3890 O   0  0  0  0  0  0  0  0  0  0  0  0
  -24.9750  -34.0480   24.9640 H   0  0  0  0  0  0  0  0  0  0  0  0
  -24.1720  -36.7430   23.0500 C   0  0  0  0  0  1  0  0  0  0  0  0
  -25.4050  -36.3420   23.8750 C   0  0  0  0  0  3  0  0  0  0  0  0
  -27.5190  -37.2380   24.7440 C   0  0  0  0  0  1  0  0  0  0  0  0
  -26.4320  -37.4030   23.7820 N   0  0  0  0  0  0  0  0  0  0  0  0
  -26.0170  -38.3190   23.9250 H   0  0  0  0  0  0  0  0  0  0  0  0
  -26.4140  -31.7320   25.1050 C   0  0  1  0  0  0  0  0  0  0  0  0
  -25.3160  -31.4740   26.1630 C   0  0  0  0  0  1  0  0  0  0  0  0
  -27.0120  -30.3640   24.7030 C   0  0  0  0  0  1  0  0  0  0  0  0
  -27.5540  -32.5300   25.7800 C   0  0  0  0  0  1  0  0  0  0  0  0
  1  5  1  0
  3  1  1  0
  3  6  1  0
  4  2  1  0
  5  8  1  0
  5  2  1  0
  6  4  1  0
  6  7  1  1
  8 10  1  0
  9  8  1  0
 11  8  1  0
 11 12  1  0
 13 21  1  0
 14 19  1  0
 15 16  1  0
 15 14  1  0
 17 16  1  0
 17 26  1  0
 17 18  1  0
 19 13  1  0
 19 18  1  0
 20 13  2  0
 21 22  1  0
 21 12  1  0
 23 24  2  0
 24 43  1  0
 25 24  1  0
 25 28  1  0
 26 23  1  0
 26 27  1  0
 27 25  2  0
 28 29  1  0
 29 30  2  0
 31 34  1  0
 31 30  1  0
 32 31  2  0
 33 32  1  0
 33 28  2  0
 34 35  1  0
 35 36  1  0
 36 37  2  0
 38 37  1  0
 38 42  1  0
 39 38  2  0
 40 35  2  0
 40 39  1  0
 41 40  1  0
 43 44  1  0
 44 47  1  0
 44 46  1  0
 45 43  2  0
 48 49  1  0
 48 23  1  0
 50 48  1  0
 51  6  1  0
 51 52  1  0
 53 55  1  0
 53 52  1  0
 54 65  2  0
 55 60  1  0
 56 64  1  0
 56 66  1  0
 57 63  1  0
 57 59  1  0
 58 64  1  0
 59 58  1  0
 60 59  2  0
 61 62  1  0
 61 55  2  0
 62 57  2  0
 63 56  1  0
 64 54  1  0
 66 68  2  0
 67 66  1  0
 69 67  1  0
 70 79  2  0
 70 75  1  0
 71 67  1  0
 71 75  1  0
 72 71  1  0
 73 74  1  0
 73 72  1  0
 74 70  1  0
 75 76  2  0
 76 77  1  0
 78 77  2  0
 79 78  1  0
 80 54  1  0
 80 81  1  0
 80 90  1  0
 81 84  1  0
 82 86  1  0
 82 81  1  0
 83 82  2  0
 86 85  1  0
 88 86  1  0
 88 89  1  0
 88 87  1  0
 90 93  1  1
 90 91  1  0
 92 90  1  0
M  ISO  4  13 100  21 100  52 101  53 101
M  END
>  <TORSDO>  (24) 
F 21

>  <SCORE>  (24) 
-13.275

>  <name>  (24) 
23

>  <ligand_id>  (24) 
23

>  <original_smiles>  (24) 
[H]c1c([H])c([H])c2c(c1[H])C([H])([H])C([H])([H])C([H])([H])C2([H])N([H])C(=O)C1([H])N(C(=O)C([H])(N([H])C(=O)C([H])(N([H])C([H])([H])[H])C([H])([H])[H])C(C([H])([H])[H])(C([H])([H])[H])C([H])([H])[H])C([H])([H])c2c([H])c(OC([H])([H])C([H])([H])[N+]3([H])C([H])([H])C([H])([H])C([H])([N+]([H])([H])C([H])([H])C([H])([H])N([H])C(=O)N4C([H])([H])C([H])([H])C([H])([H])C([H])(n5nc(-c6c([H])c([H])c(Oc7c([H])c([H])c(F)c([H])c7F)c([H])c6[H])c(C(=O)N([H])[H])c5N([H])[H])C4([H])[H])C([H])([H])C3([H])[H])c([H])c([H])c2C1([H])[H]

>  <smiles>  (24) 
[H]c1c([H])c([H])c2c(c1[H])C([H])([H])C([H])([H])C([H])([H])C2([H])N([H])C(=O)C1([H])N(C(=O)C([H])(N([H])C(=O)C([H])(N([H])C([H])([H])[H])C([H])([H])[H])C(C([H])([H])[H])(C([H])([H])[H])C([H])([H])[H])C([H])([H])c2c([H])c(OC([H])([H])C([H])([H])[N+]3([H])C([H])([H])C([H])([H])C([H])([N+]([H])([H])C([H])([H])C([H])([H])N([H])C(=O)N4C([H])([H])C([H])([H])C([H])([H])C([H])(n5nc(-c6c([H])c([H])c(Oc7c([H])c([H])c(F)c([H])c7F)c([H])c6[H])c(C(=O)N([H])[H])c5N([H])[H])C4([H])[H])C([H])([H])C3([H])[H])c([H])c([H])c2C1([H])[H]

$$$$
24:0:0
     RDKit          3D

 90 97  0  0  1  0  0  0  0  0999 V2000
  -29.2920  -21.1500   19.8990 C   0  0  0  0  0  0  0  0  0  0  0  0
  -28.9810  -21.0370   18.3960 C   0  0  0  0  0  0  0  0  0  0  0  0
  -29.8600  -21.5380   17.5360 N   0  0  0  0  0  0  0  0  0  0  0  0
  -27.9370  -20.5130   18.0110 O   0  0  0  0  0  0  0  0  0  0  0  0
  -30.7230  -21.9470   17.8680 H   0  0  0  0  0  0  0  0  0  0  0  0
  -29.6970  -21.4710   16.5410 H   0  0  0  0  0  0  0  0  0  0  0  0
  -29.8170  -18.3120   20.0880 C   0  0  0  0  0  0  0  0  0  0  0  0
  -29.2430  -19.6080   20.5100 N   0  0  0  0  0  4  0  0  0  0  0  0
  -30.5770  -18.3690   19.1210 O   0  0  0  0  0  0  0  0  0  0  0  0
  -28.6230  -19.5220   21.3040 H   0  0  0  0  0  0  0  0  0  0  0  0
  -29.5950  -16.7130   20.7190 C   0  0  0  0  0  2  0  0  0  0  0  0
  -30.4360  -15.2340   20.3290 C   0  0  0  0  0  0  0  0  0  0  0  0
  -30.4330  -12.8060   19.4170 C   0  0  0  0  0  2  0  0  0  0  0  0
  -29.5160  -12.6760   18.1720 C   0  0  0  0  0  2  0  0  0  0  0  0
  -28.0550  -12.4220   18.5850 C   0  0  0  0  0  2  0  0  0  0  0  0
  -27.6120  -13.3490   19.7430 C   0  0  0  0  0  3  0  0  0  0  0  0
  -28.6540  -13.4280   20.8800 C   0  0  0  0  0  2  0  0  0  0  0  0
  -29.9090  -13.9160   20.2900 N   0  0  0  0  0  0  0  0  0  0  0  0
  -31.6360  -15.2690   20.0140 O   0  0  0  0  0  0  0  0  0  0  0  0
  -25.2250  -13.9030   20.4550 C   0  0  0  0  0  0  0  0  0  0  0  0
  -24.1620  -13.1220   20.8160 C   0  0  0  0  0  0  0  0  0  0  0  0
  -24.6370  -11.7740   20.8040 C   0  0  0  0  0  0  0  0  0  0  0  0
  -26.2770  -13.0310   20.2310 N   0  0  0  0  0  0  0  0  0  0  0  0
  -25.9330  -11.7460   20.5080 N   0  0  0  0  0  0  0  0  0  0  0  0
  -23.9140  -10.5100   20.9970 C   0  0  0  0  0  0  0  0  0  0  0  0
  -24.3310   -9.5550   21.9500 C   0  0  0  0  0  3  0  0  0  0  0  0
  -23.6060   -8.3580   22.1290 C   0  0  0  0  0  3  0  0  0  0  0  0
  -22.4490   -8.1060   21.3560 C   0  0  0  0  0  0  0  0  0  0  0  0
  -22.0500   -9.0490   20.3910 C   0  0  0  0  0  3  0  0  0  0  0  0
  -22.7760  -10.2370   20.2100 C   0  0  0  0  0  3  0  0  0  0  0  0
  -21.6980   -6.9590   21.4430 O   0  0  0  0  0  0  0  0  0  0  0  0
  -21.6250   -6.2310   22.6030 C   0  0  0  0  0  0  0  0  0  0  0  0
  -21.1630   -6.7990   23.8110 C   0  0  0  0  0  3  0  0  0  0  0  0
  -21.0400   -5.9990   24.9640 C   0  0  0  0  0  3  0  0  0  0  0  0
  -21.3670   -4.6320   24.9110 C   0  0  0  0  0  0  0  0  0  0  0  0
  -21.8230   -4.0620   23.7090 C   0  0  0  0  0  3  0  0  0  0  0  0
  -21.9470   -4.8600   22.5570 C   0  0  0  0  0  0  0  0  0  0  0  0
  -22.3660   -4.3010   21.3960 F   0  0  0  0  0  0  0  0  0  0  0  0
  -21.2410   -3.8600   26.0160 F   0  0  0  0  0  0  0  0  0  0  0  0
  -22.7590  -13.5940   21.0620 C   0  0  0  0  0  0  0  0  0  0  0  0
  -22.0220  -12.9000   21.9210 N   0  0  0  0  0  0  0  0  0  0  0  0
  -22.3250  -14.6140   20.5290 O   0  0  0  0  0  0  0  0  0  0  0  0
  -22.3890  -12.0750   22.3760 H   0  0  0  0  0  0  0  0  0  0  0  0
  -21.0790  -13.1960   22.1290 H   0  0  0  0  0  0  0  0  0  0  0  0
  -25.3840  -15.2730   20.2720 N   0  0  0  0  0  0  0  0  0  0  0  0
  -24.6160  -15.9270   20.3780 H   0  0  0  0  0  0  0  0  0  0  0  0
  -26.2370  -15.7110   19.9470 H   0  0  0  0  0  0  0  0  0  0  0  0
  -28.6620  -22.7310   20.5090 C   0  0  0  0  0  2  0  0  0  0  0  0
  -27.9440  -24.3190   20.0370 C   0  0  0  0  0  2  0  0  0  0  0  0
  -28.1870  -25.9080   20.3270 O   0  0  0  0  0  0  0  0  0  0  0  0
  -24.6200  -31.8560   23.2280 C   0  0  0  0  0  0  0  0  0  0  0  0
  -27.1770  -26.9930   20.2310 C   0  0  0  0  0  0  0  0  0  0  0  0
  -23.4250  -30.4490   21.5970 C   0  0  0  0  0  3  0  0  0  0  0  0
  -24.8740  -28.8470   20.1750 C   0  0  0  0  0  0  0  0  0  0  0  0
  -25.9870  -30.6690   21.4470 C   0  0  0  0  0  2  0  0  0  0  0  0
  -26.0580  -29.2610   20.7970 C   0  0  0  0  0  0  0  0  0  0  0  0
  -27.2050  -28.3530   20.8040 C   0  0  0  0  0  3  0  0  0  0  0  0
  -25.9660  -26.7260   19.5520 C   0  0  0  0  0  3  0  0  0  0  0  0
  -24.8520  -27.6000   19.5320 C   0  0  0  0  0  3  0  0  0  0  0  0
  -23.6510  -29.7610   20.2230 C   0  0  0  0  0  2  0  0  0  0  0  0
  -24.6990  -31.0180   22.1440 N   0  0  0  0  0  0  0  0  0  0  0  0
  -23.5310  -32.1480   23.7480 O   0  0  0  0  0  0  0  0  0  0  0  0
  -22.7340  -29.4560   22.5670 C   0  0  0  0  0  0  0  0  0  0  0  0
  -21.4040  -29.2910   22.4440 N   0  0  0  0  0  0  0  0  0  0  0  0
  -23.4000  -28.8360   23.4000 O   0  0  0  0  0  0  0  0  0  0  0  0
  -20.9210  -29.8420   21.7490 H   0  0  0  0  0  0  0  0  0  0  0  0
  -18.0200  -28.0880   22.9610 C   0  0  0  0  0  0  0  0  0  0  0  0
  -20.5800  -28.3580   23.2210 C   0  0  0  0  0  3  0  0  0  0  0  0
  -20.6810  -26.9220   22.6540 C   0  0  0  0  0  2  0  0  0  0  0  0
  -19.5790  -26.5940   21.6430 C   0  0  0  0  0  2  0  0  0  0  0  0
  -18.1980  -26.7380   22.2880 C   0  0  0  0  0  2  0  0  0  0  0  0
  -19.1380  -28.8560   23.3840 C   0  0  0  0  0  0  0  0  0  0  0  0
  -18.9150  -30.1180   23.9750 C   0  0  0  0  0  3  0  0  0  0  0  0
  -17.6070  -30.6130   24.1460 C   0  0  0  0  0  3  0  0  0  0  0  0
  -16.5050  -29.8430   23.7360 C   0  0  0  0  0  3  0  0  0  0  0  0
  -16.7120  -28.5820   23.1500 C   0  0  0  0  0  3  0  0  0  0  0  0
  -25.8920  -32.4990   23.8560 C   0  0  0  0  0  3  0  0  0  0  0  0
  -25.5770  -33.9010   24.1790 N   0  0  0  0  0  0  0  0  0  0  0  0
  -25.9130  -34.9570   23.4260 C   0  0  0  0  0  0  0  0  0  0  0  0
  -26.5820  -34.8520   22.3950 O   0  0  0  0  0  0  0  0  0  0  0  0
  -24.9800  -34.0560   24.9790 H   0  0  0  0  0  0  0  0  0  0  0  0
  -24.1900  -36.7600   23.0750 C   0  0  0  0  0  1  0  0  0  0  0  0
  -25.4300  -36.3490   23.8850 C   0  0  0  0  0  3  0  0  0  0  0  0
  -27.5680  -37.2300   24.7140 C   0  0  0  0  0  1  0  0  0  0  0  0
  -26.4660  -37.3990   23.7700 N   0  0  0  0  0  0  0  0  0  0  0  0
  -26.0640  -38.3200   23.9190 H   0  0  0  0  0  0  0  0  0  0  0  0
  -26.3940  -31.7440   25.1480 C   0  0  1  0  0  0  0  0  0  0  0  0
  -25.2920  -31.5250   26.2110 C   0  0  0  0  0  1  0  0  0  0  0  0
  -26.9750  -30.3570   24.7870 C   0  0  0  0  0  1  0  0  0  0  0  0
  -27.5460  -32.5410   25.8070 C   0  0  0  0  0  1  0  0  0  0  0  0
  1 48  1  0
  1  8  2  0
  2  1  1  0
  3  5  1  0
  3  2  1  0
  4  2  2  0
  6  3  1  0
  7  8  1  0
  7 11  1  0
  8 10  1  0
  9  7  2  0
 12 11  1  0
 13 18  1  0
 14 15  1  0
 14 13  1  0
 16 15  1  0
 16 23  1  0
 16 17  1  0
 18 12  1  0
 18 17  1  0
 19 12  2  0
 20 21  2  0
 21 40  1  0
 22 21  1  0
 22 25  1  0
 23 20  1  0
 23 24  1  0
 24 22  2  0
 25 26  1  0
 26 27  2  0
 28 31  1  0
 28 27  1  0
 29 28  2  0
 30 29  1  0
 30 25  2  0
 31 32  1  0
 32 33  1  0
 33 34  2  0
 35 34  1  0
 35 39  1  0
 36 35  2  0
 37 32  2  0
 37 36  1  0
 38 37  1  0
 40 41  1  0
 41 44  1  0
 41 43  1  0
 42 40  2  0
 45 46  1  0
 45 20  1  0
 47 45  1  0
 49 50  1  0
 49 48  1  0
 51 62  2  0
 52 50  1  0
 52 57  1  0
 53 61  1  0
 53 63  1  0
 54 60  1  0
 54 56  1  0
 55 61  1  0
 56 57  2  0
 56 55  1  0
 58 52  2  0
 59 58  1  0
 59 54  2  0
 60 53  1  0
 61 51  1  0
 63 65  2  0
 64 63  1  0
 66 64  1  0
 67 76  2  0
 67 72  1  0
 68 64  1  0
 68 72  1  0
 69 68  1  0
 70 71  1  0
 70 69  1  0
 71 67  1  0
 72 73  2  0
 73 74  1  0
 75 74  2  0
 76 75  1  0
 77 51  1  0
 77 78  1  0
 77 87  1  0
 78 81  1  0
 79 83  1  0
 79 78  1  0
 80 79  2  0
 83 82  1  0
 85 83  1  0
 85 86  1  0
 85 84  1  0
 87 90  1  1
 87 88  1  0
 89 87  1  0
M  ISO  4  11 100  12 100  49 101  50 101
M  END
>  <TORSDO>  (25) 
F 21

>  <SCORE>  (25) 
-15.148

>  <name>  (25) 
24

>  <ligand_id>  (25) 
24

>  <original_smiles>  (25) 
[H]c1c([H])c([H])c2c(c1[H])C([H])([H])C([H])([H])C([H])([H])C2([H])N([H])C(=O)C1([H])N(C(=O)C([H])(N([H])C(=O)C([H])(N([H])C([H])([H])[H])C([H])([H])[H])C(C([H])([H])[H])(C([H])([H])[H])C([H])([H])[H])C([H])([H])c2c([H])c(OC([H])([H])C([H])([H])C([H])(C(=O)N([H])[H])N([H])C(=O)C([H])([H])C(=O)N3C([H])([H])C([H])([H])C([H])([H])C([H])(n4nc(-c5c([H])c([H])c(Oc6c([H])c([H])c(F)c([H])c6F)c([H])c5[H])c(C(=O)N([H])[H])c4N([H])[H])C3([H])[H])c([H])c([H])c2C1([H])[H]

>  <smiles>  (25) 
[H]c1c([H])c([H])c2c(c1[H])C([H])([H])C([H])([H])C([H])([H])C2([H])N([H])C(=O)C1([H])N(C(=O)C([H])(N([H])C(=O)C([H])(N([H])C([H])([H])[H])C([H])([H])[H])C(C([H])([H])[H])(C([H])([H])[H])C([H])([H])[H])C([H])([H])c2c([H])c(OC([H])([H])C([H])([H])C([H])(C(=O)N([H])[H])N([H])C(=O)C([H])([H])C(=O)N3C([H])([H])C([H])([H])C([H])([H])C([H])(n4nc(-c5c([H])c([H])c(Oc6c([H])c([H])c(F)c([H])c6F)c([H])c5[H])c(C(=O)N([H])[H])c4N([H])[H])C3([H])[H])c([H])c([H])c2C1([H])[H]

$$$$
25:0:0
     RDKit          3D

 92100  0  0  1  0  0  0  0  0999 V2000
  -28.7150  -20.4630   20.4220 C   0  0  0  0  0  0  0  0  0  0  0  0
  -30.6980  -19.5130   18.9190 C   0  0  0  0  0  2  0  0  0  0  0  0
  -29.9330  -22.1650   18.8280 C   0  0  0  0  0  2  0  0  0  0  0  0
  -29.5560  -18.9040   19.7650 C   0  0  0  0  0  3  0  0  0  0  0  0
  -30.2430  -20.7870   18.0820 C   0  0  0  0  0  3  0  0  0  0  0  0
  -29.0290  -22.2450   20.1220 C   0  0  2  0  0  0  0  0  0  0  0  0
  -29.9600  -22.5500   21.3160 C   0  0  0  0  0  1  0  0  0  0  0  0
  -27.7780  -20.2590   21.1940 O   0  0  0  0  0  0  0  0  0  0  0  0
  -30.3780  -15.7920   19.9540 C   0  0  0  0  0  0  0  0  0  0  0  0
  -30.4500  -13.2700   19.0880 C   0  0  0  0  0  2  0  0  0  0  0  0
  -29.5020  -12.8970   17.9120 C   0  0  0  0  0  2  0  0  0  0  0  0
  -28.1010  -12.5350   18.4280 C   0  0  0  0  0  2  0  0  0  0  0  0
  -27.6410  -13.5100   19.5360 C   0  0  0  0  0  3  0  0  0  0  0  0
  -28.7240  -13.7940   20.6030 C   0  0  0  0  0  2  0  0  0  0  0  0
  -29.8640  -14.4270   19.9010 N   0  0  0  0  0  0  0  0  0  0  0  0
  -31.6020  -15.7530   19.7230 O   0  0  0  0  0  0  0  0  0  0  0  0
  -29.5800  -17.1280   19.9990 N   0  0  0  0  0  0  0  0  0  0  0  0
  -28.6290  -16.8570   20.2030 H   0  0  0  0  0  0  0  0  0  0  0  0
  -25.3170  -14.0090   20.4320 C   0  0  0  0  0  0  0  0  0  0  0  0
  -24.2820  -13.2130   20.8320 C   0  0  0  0  0  0  0  0  0  0  0  0
  -24.7600  -11.8680   20.7440 C   0  0  0  0  0  0  0  0  0  0  0  0
  -26.3540  -13.1520   20.1130 N   0  0  0  0  0  0  0  0  0  0  0  0
  -26.0370  -11.8550   20.3700 N   0  0  0  0  0  0  0  0  0  0  0  0
  -24.0500  -10.5960   20.9370 C   0  0  0  0  0  0  0  0  0  0  0  0
  -24.4900   -9.6360   21.8750 C   0  0  0  0  0  3  0  0  0  0  0  0
  -23.7740   -8.4340   22.0580 C   0  0  0  0  0  3  0  0  0  0  0  0
  -22.6050   -8.1810   21.3010 C   0  0  0  0  0  0  0  0  0  0  0  0
  -22.1850   -9.1290   20.3510 C   0  0  0  0  0  3  0  0  0  0  0  0
  -22.9020  -10.3230   20.1660 C   0  0  0  0  0  3  0  0  0  0  0  0
  -21.8620   -7.0280   21.3920 O   0  0  0  0  0  0  0  0  0  0  0  0
  -21.7580   -6.3300   22.5680 C   0  0  0  0  0  0  0  0  0  0  0  0
  -21.1950   -6.9040   23.7290 C   0  0  0  0  0  3  0  0  0  0  0  0
  -21.0440   -6.1280   24.8950 C   0  0  0  0  0  3  0  0  0  0  0  0
  -21.4470   -4.7790   24.9010 C   0  0  0  0  0  0  0  0  0  0  0  0
  -22.0030   -4.2040   23.7450 C   0  0  0  0  0  3  0  0  0  0  0  0
  -22.1550   -4.9770   22.5810 C   0  0  0  0  0  0  0  0  0  0  0  0
  -22.6720   -4.4140   21.4620 F   0  0  0  0  0  0  0  0  0  0  0  0
  -21.2950   -4.0310   26.0190 F   0  0  0  0  0  0  0  0  0  0  0  0
  -22.8960  -13.6750   21.1720 C   0  0  0  0  0  0  0  0  0  0  0  0
  -22.2150  -12.9620   22.0620 N   0  0  0  0  0  0  0  0  0  0  0  0
  -22.4290  -14.7030   20.6820 O   0  0  0  0  0  0  0  0  0  0  0  0
  -22.6080  -12.1320   22.4770 H   0  0  0  0  0  0  0  0  0  0  0  0
  -21.2860  -13.2540   22.3320 H   0  0  0  0  0  0  0  0  0  0  0  0
  -25.4570  -15.3860   20.2760 N   0  0  0  0  0  0  0  0  0  0  0  0
  -24.6830  -16.0220   20.4300 H   0  0  0  0  0  0  0  0  0  0  0  0
  -26.2610  -15.8350   19.8630 H   0  0  0  0  0  0  0  0  0  0  0  0
  -31.2060  -21.0310   16.9900 N   0  0  0  0  0  4  0  0  0  0  0  0
  -32.1110  -21.2900   17.3410 H   0  0  0  0  0  0  0  0  0  0  0  0
  -30.8810  -21.7690   16.3890 H   0  0  0  0  0  0  0  0  0  0  0  0
  -31.3150  -20.2110   16.4200 H   0  0  0  0  0  0  0  0  0  0  0  0
  -28.0100  -23.9080   20.1260 C   0  0  0  0  0  2  0  0  0  0  0  0
  -28.1840  -25.6610   20.2110 O   0  0  0  0  0  0  0  0  0  0  0  0
  -24.6540  -31.9010   23.2180 C   0  0  0  0  0  0  0  0  0  0  0  0
  -27.1960  -26.8600   20.1830 C   0  0  0  0  0  0  0  0  0  0  0  0
  -23.4640  -30.5060   21.5800 C   0  0  0  0  0  3  0  0  0  0  0  0
  -24.9140  -28.8750   20.1510 C   0  0  0  0  0  0  0  0  0  0  0  0
  -26.0420  -30.6660   21.4450 C   0  0  0  0  0  2  0  0  0  0  0  0
  -26.1100  -29.2380   20.7790 C   0  0  0  0  0  0  0  0  0  0  0  0
  -27.2360  -28.2590   20.7620 C   0  0  0  0  0  3  0  0  0  0  0  0
  -25.9590  -26.7050   19.5060 C   0  0  0  0  0  3  0  0  0  0  0  0
  -24.8760  -27.6350   19.4900 C   0  0  0  0  0  3  0  0  0  0  0  0
  -23.7010  -29.8190   20.2040 C   0  0  0  0  0  2  0  0  0  0  0  0
  -24.7450  -31.0570   22.1330 N   0  0  0  0  0  0  0  0  0  0  0  0
  -23.5620  -32.1910   23.7360 O   0  0  0  0  0  0  0  0  0  0  0  0
  -22.7610  -29.5180   22.5490 C   0  0  0  0  0  0  0  0  0  0  0  0
  -21.4310  -29.3440   22.4180 N   0  0  0  0  0  0  0  0  0  0  0  0
  -23.4220  -28.9070   23.3920 O   0  0  0  0  0  0  0  0  0  0  0  0
  -20.9460  -29.8890   21.7190 H   0  0  0  0  0  0  0  0  0  0  0  0
  -18.0560  -28.1010   22.9370 C   0  0  0  0  0  0  0  0  0  0  0  0
  -20.6140  -28.3960   23.1880 C   0  0  0  0  0  3  0  0  0  0  0  0
  -20.7270  -26.9670   22.6070 C   0  0  0  0  0  2  0  0  0  0  0  0
  -19.6250  -26.6380   21.5950 C   0  0  0  0  0  2  0  0  0  0  0  0
  -18.2450  -26.7600   22.2470 C   0  0  0  0  0  2  0  0  0  0  0  0
  -19.1670  -28.8750   23.3650 C   0  0  0  0  0  0  0  0  0  0  0  0
  -18.9330  -30.1260   23.9760 C   0  0  0  0  0  3  0  0  0  0  0  0
  -17.6220  -30.6040   24.1610 C   0  0  0  0  0  3  0  0  0  0  0  0
  -16.5250  -29.8280   23.7450 C   0  0  0  0  0  3  0  0  0  0  0  0
  -16.7440  -28.5770   23.1400 C   0  0  0  0  0  3  0  0  0  0  0  0
  -25.9160  -32.5540   23.8570 C   0  0  0  0  0  3  0  0  0  0  0  0
  -26.4120  -31.8010   25.1550 C   0  0  1  0  0  0  0  0  0  0  0  0
  -25.3010  -31.5740   26.2070 C   0  0  0  0  0  1  0  0  0  0  0  0
  -27.0080  -30.4210   24.8020 C   0  0  0  0  0  1  0  0  0  0  0  0
  -27.5480  -32.6090   25.8260 C   0  0  0  0  0  1  0  0  0  0  0  0
  -25.5920  -33.9570   24.1860 N   0  0  0  0  0  0  0  0  0  0  0  0
  -25.9020  -35.0200   23.4320 C   0  0  0  0  0  0  0  0  0  0  0  0
  -26.5460  -34.9240   22.3850 O   0  0  0  0  0  0  0  0  0  0  0  0
  -25.0130  -34.1030   25.0000 H   0  0  0  0  0  0  0  0  0  0  0  0
  -24.1520  -36.8130   23.1460 C   0  0  0  0  0  1  0  0  0  0  0  0
  -25.4240  -36.4090   23.9090 C   0  0  0  0  0  3  0  0  0  0  0  0
  -27.5730  -37.3230   24.6750 C   0  0  0  0  0  1  0  0  0  0  0  0
  -26.4450  -37.4700   23.7580 N   0  0  0  0  0  0  0  0  0  0  0  0
  -26.0360  -38.3870   23.9040 H   0  0  0  0  0  0  0  0  0  0  0  0
  1  8  2  0
  2  4  1  0
  3  6  1  0
  4 17  1  0
  4  1  1  0
  5 47  1  0
  5  3  1  0
  5  2  1  0
  6 51  1  0
  6  1  1  0
  6  7  1  1
  9 17  1  0
 10 15  1  0
 11 12  1  0
 11 10  1  0
 13 12  1  0
 13 22  1  0
 13 14  1  0
 15  9  1  0
 15 14  1  0
 16  9  2  0
 17 18  1  0
 19 20  2  0
 20 39  1  0
 21 20  1  0
 21 24  1  0
 22 23  1  0
 22 19  1  0
 23 21  2  0
 24 25  1  0
 25 26  2  0
 27 30  1  0
 27 26  1  0
 28 27  2  0
 29 28  1  0
 29 24  2  0
 30 31  1  0
 31 36  2  0
 31 32  1  0
 32 33  2  0
 33 34  1  0
 34 38  1  0
 35 34  2  0
 36 35  1  0
 37 36  1  0
 39 40  1  0
 40 43  1  0
 40 42  1  0
 41 39  2  0
 44 45  1  0
 44 19  1  0
 46 44  1  0
 47 48  1  0
 49 47  1  0
 50 47  1  0
 51 52  1  0
 53 64  2  0
 54 52  1  0
 54 59  1  0
 55 63  1  0
 55 65  1  0
 56 62  1  0
 56 58  1  0
 57 63  1  0
 58 57  1  0
 59 58  2  0
 60 54  2  0
 61 60  1  0
 61 56  2  0
 62 55  1  0
 63 53  1  0
 65 67  2  0
 66 65  1  0
 68 66  1  0
 69 78  2  0
 69 74  1  0
 70 66  1  0
 70 74  1  0
 71 70  1  0
 72 73  1  0
 72 71  1  0
 73 69  1  0
 74 75  2  0
 75 76  1  0
 77 76  2  0
 78 77  1  0
 79 53  1  0
 79 84  1  0
 79 80  1  0
 80 83  1  1
 80 81  1  0
 82 80  1  0
 84 87  1  0
 85 89  1  0
 85 84  1  0
 86 85  2  0
 89 88  1  0
 91 92  1  0
 91 89  1  0
 91 90  1  0
M  ISO  4   9 100  17 100  51 101  52 101
M  END
>  <TORSDO>  (26) 
F 18

>  <SCORE>  (26) 
-15.838

>  <name>  (26) 
25

>  <ligand_id>  (26) 
25

>  <original_smiles>  (26) 
[H]c1c([H])c([H])c2c(c1[H])C([H])([H])C([H])([H])C([H])([H])C2([H])N([H])C(=O)C1([H])N(C(=O)C([H])(N([H])C(=O)C([H])(N([H])C([H])([H])[H])C([H])([H])[H])C(C([H])([H])[H])(C([H])([H])[H])C([H])([H])[H])C([H])([H])c2c([H])c(OC([H])([H])C3(C([H])([H])[H])C(=O)C([H])(N([H])C(=O)N4C([H])([H])C([H])([H])C([H])([H])C([H])(n5nc(-c6c([H])c([H])c(Oc7c([H])c([H])c(F)c([H])c7F)c([H])c6[H])c(C(=O)N([H])[H])c5N([H])[H])C4([H])[H])C([H])([H])C([H])([N+]([H])([H])[H])C3([H])[H])c([H])c([H])c2C1([H])[H]

>  <smiles>  (26) 
[H]c1c([H])c([H])c2c(c1[H])C([H])([H])C([H])([H])C([H])([H])C2([H])N([H])C(=O)C1([H])N(C(=O)C([H])(N([H])C(=O)C([H])(N([H])C([H])([H])[H])C([H])([H])[H])C(C([H])([H])[H])(C([H])([H])[H])C([H])([H])[H])C([H])([H])c2c([H])c(OC([H])([H])C3(C([H])([H])[H])C(=O)C([H])(N([H])C(=O)N4C([H])([H])C([H])([H])C([H])([H])C([H])(n5nc(-c6c([H])c([H])c(Oc7c([H])c([H])c(F)c([H])c7F)c([H])c6[H])c(C(=O)N([H])[H])c5N([H])[H])C4([H])[H])C([H])([H])C([H])([N+]([H])([H])[H])C3([H])[H])c([H])c([H])c2C1([H])[H]

$$$$
26:0:0
     RDKit          3D

 94102  0  0  1  0  0  0  0  0999 V2000
  -31.3460  -21.2860   20.2620 C   0  0  0  0  0  2  0  0  0  0  0  0
  -30.9510  -20.9850   21.7290 C   0  0  0  0  0  2  0  0  0  0  0  0
  -28.5050  -20.6170   20.9700 C   0  0  0  0  0  2  0  0  0  0  0  0
  -30.3550  -22.1000   19.3860 C   0  0  0  0  0  2  0  0  0  0  0  0
  -28.2710  -22.1520   20.7710 C   0  0  0  0  0  2  0  0  0  0  0  0
  -29.6240  -20.2210   21.9670 C   0  0  0  0  0  3  0  0  0  0  0  0
  -29.4090  -22.9350   20.1810 N   0  0  2  0  0  4  0  0  0  0  0  0
  -29.9690  -23.2550   20.9570 H   0  0  0  0  0  0  0  0  0  0  0  0
  -29.7910  -18.7430   22.1440 N   0  0  0  0  0  4  0  0  0  0  0  0
  -28.8950  -18.3630   22.4140 H   0  0  0  0  0  0  0  0  0  0  0  0
  -30.4010  -18.5930   22.9330 H   0  0  0  0  0  0  0  0  0  0  0  0
  -30.3180  -17.9500   20.9980 C   0  0  0  0  0  2  0  0  0  0  0  0
  -30.3240  -16.4090   21.2350 C   0  0  0  0  0  2  0  0  0  0  0  0
  -31.3980  -14.5740   19.8850 C   0  0  0  0  0  0  0  0  0  0  0  0
  -30.9360  -12.4530   18.7270 C   0  0  0  0  0  2  0  0  0  0  0  0
  -29.9110  -12.7150   17.6030 C   0  0  0  0  0  2  0  0  0  0  0  0
  -28.4710  -12.6240   18.1470 C   0  0  0  0  0  2  0  0  0  0  0  0
  -28.2650  -13.4470   19.4490 C   0  0  0  0  0  3  0  0  0  0  0  0
  -29.3940  -13.1680   20.4670 C   0  0  0  0  0  2  0  0  0  0  0  0
  -30.6720  -13.4320   19.7940 N   0  0  0  0  0  0  0  0  0  0  0  0
  -32.5320  -14.6860   19.4210 O   0  0  0  0  0  0  0  0  0  0  0  0
  -30.6760  -15.7020   19.9990 N   0  0  0  0  0  0  0  0  0  0  0  0
  -31.0090  -16.3660   19.3140 H   0  0  0  0  0  0  0  0  0  0  0  0
  -25.9690  -14.1290   20.3810 C   0  0  0  0  0  0  0  0  0  0  0  0
  -24.8950  -13.3910   20.8000 C   0  0  0  0  0  0  0  0  0  0  0  0
  -25.2850  -12.0220   20.6750 C   0  0  0  0  0  0  0  0  0  0  0  0
  -26.9450  -13.2120   20.0270 N   0  0  0  0  0  0  0  0  0  0  0  0
  -26.5420  -11.9370   20.2620 N   0  0  0  0  0  0  0  0  0  0  0  0
  -24.5140  -10.7870   20.8690 C   0  0  0  0  0  0  0  0  0  0  0  0
  -24.8960   -9.8210   21.8260 C   0  0  0  0  0  3  0  0  0  0  0  0
  -24.1280   -8.6500   22.0050 C   0  0  0  0  0  3  0  0  0  0  0  0
  -22.9660   -8.4380   21.2260 C   0  0  0  0  0  0  0  0  0  0  0  0
  -22.6050   -9.3930   20.2600 C   0  0  0  0  0  3  0  0  0  0  0  0
  -23.3720  -10.5540   20.0780 C   0  0  0  0  0  3  0  0  0  0  0  0
  -22.1710   -7.3210   21.3150 O   0  0  0  0  0  0  0  0  0  0  0  0
  -21.9640   -6.6770   22.5090 C   0  0  0  0  0  0  0  0  0  0  0  0
  -21.3900   -7.3320   23.6200 C   0  0  0  0  0  3  0  0  0  0  0  0
  -21.1310   -6.6150   24.8050 C   0  0  0  0  0  3  0  0  0  0  0  0
  -21.4370   -5.2430   24.8800 C   0  0  0  0  0  0  0  0  0  0  0  0
  -22.0050   -4.5870   23.7720 C   0  0  0  0  0  3  0  0  0  0  0  0
  -22.2650   -5.3020   22.5900 C   0  0  0  0  0  0  0  0  0  0  0  0
  -22.7920   -4.6600   21.5200 F   0  0  0  0  0  0  0  0  0  0  0  0
  -21.1810   -4.5510   26.0140 F   0  0  0  0  0  0  0  0  0  0  0  0
  -23.5490  -13.9210   21.2010 C   0  0  0  0  0  0  0  0  0  0  0  0
  -22.8600  -13.2300   22.1030 N   0  0  0  0  0  0  0  0  0  0  0  0
  -23.1200  -14.9820   20.7480 O   0  0  0  0  0  0  0  0  0  0  0  0
  -23.2210  -12.3710   22.4900 H   0  0  0  0  0  0  0  0  0  0  0  0
  -21.9570  -13.5640   22.4100 H   0  0  0  0  0  0  0  0  0  0  0  0
  -26.1870  -15.4990   20.2530 N   0  0  0  0  0  0  0  0  0  0  0  0
  -25.4540  -16.1750   20.4370 H   0  0  0  0  0  0  0  0  0  0  0  0
  -27.0300  -15.9110   19.8760 H   0  0  0  0  0  0  0  0  0  0  0  0
  -28.9990  -24.1900   19.4580 C   0  0  0  0  0  2  0  0  0  0  0  0
  -28.4620  -25.3270   20.3690 C   0  0  0  0  0  2  0  0  0  0  0  0
  -28.5280  -26.6270   19.7340 O   0  0  0  0  0  0  0  0  0  0  0  0
  -24.5870  -31.6040   22.9590 C   0  0  0  0  0  0  0  0  0  0  0  0
  -27.3540  -27.3490   19.7380 C   0  0  0  0  0  0  0  0  0  0  0  0
  -23.4290  -30.2360   21.2540 C   0  0  0  0  0  3  0  0  0  0  0  0
  -24.9290  -28.8000   19.7720 C   0  0  0  0  0  0  0  0  0  0  0  0
  -25.9430  -30.6710   21.0870 C   0  0  0  0  0  2  0  0  0  0  0  0
  -26.0680  -29.3300   20.3920 C   0  0  0  0  0  0  0  0  0  0  0  0
  -27.2880  -28.6120   20.3660 C   0  0  0  0  0  3  0  0  0  0  0  0
  -26.2020  -26.8360   19.1040 C   0  0  0  0  0  3  0  0  0  0  0  0
  -24.9920  -27.5540   19.1210 C   0  0  0  0  0  3  0  0  0  0  0  0
  -23.6630  -29.6240   19.8480 C   0  0  0  0  0  2  0  0  0  0  0  0
  -24.6700  -30.8510   21.8240 N   0  0  0  0  0  0  0  0  0  0  0  0
  -23.4950  -31.8210   23.5050 O   0  0  0  0  0  0  0  0  0  0  0  0
  -22.8040  -29.1590   22.1700 C   0  0  0  0  0  0  0  0  0  0  0  0
  -21.4770  -28.9830   22.0680 N   0  0  0  0  0  0  0  0  0  0  0  0
  -23.5120  -28.4860   22.9260 O   0  0  0  0  0  0  0  0  0  0  0  0
  -20.9680  -29.5810   21.4310 H   0  0  0  0  0  0  0  0  0  0  0  0
  -18.1090  -27.8080   22.6450 C   0  0  0  0  0  0  0  0  0  0  0  0
  -20.6810  -28.0010   22.8040 C   0  0  0  0  0  3  0  0  0  0  0  0
  -20.7270  -26.6200   22.1130 C   0  0  0  0  0  2  0  0  0  0  0  0
  -19.5690  -26.3970   21.1340 C   0  0  0  0  0  2  0  0  0  0  0  0
  -18.2250  -26.5140   21.8580 C   0  0  0  0  0  2  0  0  0  0  0  0
  -19.2630  -28.5160   23.0760 C   0  0  0  0  0  0  0  0  0  0  0  0
  -19.0980  -29.7310   23.7730 C   0  0  0  0  0  3  0  0  0  0  0  0
  -17.8130  -30.2380   24.0440 C   0  0  0  0  0  3  0  0  0  0  0  0
  -16.6740  -29.5270   23.6280 C   0  0  0  0  0  3  0  0  0  0  0  0
  -16.8240  -28.3150   22.9310 C   0  0  0  0  0  3  0  0  0  0  0  0
  -25.8510  -32.2450   23.6090 C   0  0  0  0  0  3  0  0  0  0  0  0
  -25.4930  -33.6110   24.0210 N   0  0  0  0  0  0  0  0  0  0  0  0
  -25.7750  -34.7160   23.3160 C   0  0  0  0  0  0  0  0  0  0  0  0
  -26.4360  -34.6970   22.2750 O   0  0  0  0  0  0  0  0  0  0  0  0
  -24.9070  -33.6960   24.8360 H   0  0  0  0  0  0  0  0  0  0  0  0
  -23.9700  -36.4510   23.0810 C   0  0  0  0  0  1  0  0  0  0  0  0
  -25.2370  -36.0540   23.8550 C   0  0  0  0  0  3  0  0  0  0  0  0
  -27.3400  -36.9840   24.7170 C   0  0  0  0  0  1  0  0  0  0  0  0
  -26.2250  -37.1530   23.7900 N   0  0  0  0  0  0  0  0  0  0  0  0
  -25.7830  -38.0470   23.9870 H   0  0  0  0  0  0  0  0  0  0  0  0
  -26.4070  -31.4230   24.8360 C   0  0  1  0  0  0  0  0  0  0  0  0
  -25.3330  -31.0820   25.8950 C   0  0  0  0  0  1  0  0  0  0  0  0
  -27.0420  -30.0960   24.3620 C   0  0  0  0  0  1  0  0  0  0  0  0
  -27.5290  -32.2240   25.5410 C   0  0  0  0  0  1  0  0  0  0  0  0
  1  2  1  0
  2  6  1  0
  3  6  1  0
  4  7  1  0
  4  1  1  0
  5  3  1  0
  6  9  1  0
  7  5  1  0
  7  8  1  1
  9 10  1  0
  9 11  1  0
 12 13  1  0
 12  9  1  0
 14 22  1  0
 15 20  1  0
 16 17  1  0
 16 15  1  0
 18 17  1  0
 18 27  1  0
 18 19  1  0
 20 14  1  0
 20 19  1  0
 21 14  2  0
 22 13  1  0
 23 22  1  0
 24 25  2  0
 25 44  1  0
 26 25  1  0
 26 29  1  0
 27 28  1  0
 27 24  1  0
 28 26  2  0
 29 30  1  0
 30 31  2  0
 32 35  1  0
 32 31  1  0
 33 32  2  0
 34 33  1  0
 34 29  2  0
 35 36  1  0
 36 41  2  0
 36 37  1  0
 37 38  2  0
 38 39  1  0
 39 43  1  0
 40 39  2  0
 41 40  1  0
 42 41  1  0
 44 45  1  0
 45 48  1  0
 45 47  1  0
 46 44  2  0
 49 24  1  0
 49 50  1  0
 51 49  1  0
 52  7  1  0
 52 53  1  0
 54 56  1  0
 54 53  1  0
 55 66  2  0
 56 61  1  0
 57 65  1  0
 57 67  1  0
 58 64  1  0
 58 60  1  0
 59 65  1  0
 60 59  1  0
 61 60  2  0
 62 63  1  0
 62 56  2  0
 63 58  2  0
 64 57  1  0
 65 55  1  0
 67 69  2  0
 68 67  1  0
 70 68  1  0
 71 80  2  0
 71 76  1  0
 72 68  1  0
 72 76  1  0
 73 72  1  0
 74 75  1  0
 74 73  1  0
 75 71  1  0
 76 77  2  0
 77 78  1  0
 79 78  2  0
 80 79  1  0
 81 55  1  0
 81 82  1  0
 81 91  1  0
 82 85  1  0
 83 87  1  0
 83 82  1  0
 84 83  2  0
 87 86  1  0
 89 87  1  0
 89 90  1  0
 89 88  1  0
 91 94  1  1
 91 92  1  0
 93 91  1  0
M  ISO  4  14 100  22 100  53 101  54 101
M  END
>  <TORSDO>  (27) 
F 21

>  <SCORE>  (27) 
-11.402

>  <name>  (27) 
26

>  <ligand_id>  (27) 
26

>  <original_smiles>  (27) 
[H]c1c([H])c([H])c2c(c1[H])C([H])([H])C([H])([H])C([H])([H])C2([H])N([H])C(=O)C1([H])N(C(=O)C([H])(N([H])C(=O)C([H])(N([H])C([H])([H])[H])C([H])([H])[H])C(C([H])([H])[H])(C([H])([H])[H])C([H])([H])[H])C([H])([H])c2c([H])c(OC([H])([H])C([H])([H])[N+]3([H])C([H])([H])C([H])([H])C([H])([H])C([H])([N+]([H])([H])C([H])([H])C([H])([H])N([H])C(=O)N4C([H])([H])C([H])([H])C([H])([H])C([H])(n5nc(-c6c([H])c([H])c(Oc7c([H])c([H])c(F)c([H])c7F)c([H])c6[H])c(C(=O)N([H])[H])c5N([H])[H])C4([H])[H])C([H])([H])C3([H])[H])c([H])c([H])c2C1([H])[H]

>  <smiles>  (27) 
[H]c1c([H])c([H])c2c(c1[H])C([H])([H])C([H])([H])C([H])([H])C2([H])N([H])C(=O)C1([H])N(C(=O)C([H])(N([H])C(=O)C([H])(N([H])C([H])([H])[H])C([H])([H])[H])C(C([H])([H])[H])(C([H])([H])[H])C([H])([H])[H])C([H])([H])c2c([H])c(OC([H])([H])C([H])([H])[N+]3([H])C([H])([H])C([H])([H])C([H])([H])C([H])([N+]([H])([H])C([H])([H])C([H])([H])N([H])C(=O)N4C([H])([H])C([H])([H])C([H])([H])C([H])(n5nc(-c6c([H])c([H])c(Oc7c([H])c([H])c(F)c([H])c7F)c([H])c6[H])c(C(=O)N([H])[H])c5N([H])[H])C4([H])[H])C([H])([H])C3([H])[H])c([H])c([H])c2C1([H])[H]

$$$$
27:0:0
     RDKit          3D

103110  0  0  1  0  0  0  0  0999 V2000
  -32.3470  -19.7910   25.3040 C   0  0  0  0  0  3  0  0  0  0  0  0
  -32.4820  -20.2790   26.6680 N   0  0  0  0  0  0  0  0  0  0  0  0
  -33.4440  -20.5540   26.8420 H   0  0  0  0  0  0  0  0  0  0  0  0
  -32.3170  -19.5230   27.3270 H   0  0  0  0  0  0  0  0  0  0  0  0
  -33.3010  -18.5890   25.0970 C   0  0  0  0  0  2  0  0  0  0  0  0
  -33.4990  -18.2840   23.6670 N   0  0  0  0  0  4  0  0  0  0  0  0
  -33.0590  -17.3960   23.4850 H   0  0  0  0  0  0  0  0  0  0  0  0
  -33.0080  -18.9770   23.1280 H   0  0  0  0  0  0  0  0  0  0  0  0
  -34.9150  -18.1950   23.2400 C   0  0  0  0  0  2  0  0  0  0  0  0
  -35.0650  -18.3270   21.7120 C   0  0  0  0  0  2  0  0  0  0  0  0
  -35.4900  -19.7440   21.2720 C   0  0  0  0  0  2  0  0  0  0  0  0
  -36.3530  -19.3670   18.9960 C   0  0  0  0  0  0  0  0  0  0  0  0
  -37.2210  -18.6420   16.7930 C   0  0  0  0  0  2  0  0  0  0  0  0
  -38.3750  -19.5410   16.2940 C   0  0  0  0  0  2  0  0  0  0  0  0
  -37.8360  -20.7640   15.5270 C   0  0  0  0  0  2  0  0  0  0  0  0
  -36.7080  -21.4840   16.3040 C   0  0  0  0  0  3  0  0  0  0  0  0
  -35.6580  -20.4480   16.7450 C   0  0  0  0  0  2  0  0  0  0  0  0
  -36.2910  -19.4440   17.6240 N   0  0  0  0  0  0  0  0  0  0  0  0
  -37.2380  -18.6830   19.5290 O   0  0  0  0  0  0  0  0  0  0  0  0
  -35.4010  -19.9400   19.8070 N   0  0  0  0  0  0  0  0  0  0  0  0
  -35.9500  -23.8970   15.8010 C   0  0  0  0  0  0  0  0  0  0  0  0
  -35.3630  -24.4600   14.6990 C   0  0  0  0  0  0  0  0  0  0  0  0
  -35.1900  -23.3970   13.7590 C   0  0  0  0  0  0  0  0  0  0  0  0
  -36.0980  -22.5490   15.5100 N   0  0  0  0  0  0  0  0  0  0  0  0
  -35.5890  -22.2470   14.2880 N   0  0  0  0  0  0  0  0  0  0  0  0
  -34.7210  -23.4170   12.3680 C   0  0  0  0  0  0  0  0  0  0  0  0
  -33.6890  -22.5610   11.9250 C   0  0  0  0  0  3  0  0  0  0  0  0
  -33.2440  -22.6110   10.5860 C   0  0  0  0  0  3  0  0  0  0  0  0
  -33.8300  -23.5240    9.6760 C   0  0  0  0  0  0  0  0  0  0  0  0
  -34.8720  -24.3580   10.1190 C   0  0  0  0  0  3  0  0  0  0  0  0
  -35.3170  -24.3040   11.4500 C   0  0  0  0  0  3  0  0  0  0  0  0
  -33.4810  -23.6240    8.3510 O   0  0  0  0  0  0  0  0  0  0  0  0
  -32.2290  -23.2790    7.9090 C   0  0  0  0  0  0  0  0  0  0  0  0
  -31.0620  -23.8640    8.4450 C   0  0  0  0  0  3  0  0  0  0  0  0
  -29.7990  -23.5320    7.9140 C   0  0  0  0  0  3  0  0  0  0  0  0
  -29.7030  -22.6270    6.8400 C   0  0  0  0  0  0  0  0  0  0  0  0
  -30.8650  -22.0480    6.3000 C   0  0  0  0  0  3  0  0  0  0  0  0
  -32.1240  -22.3770    6.8310 C   0  0  0  0  0  0  0  0  0  0  0  0
  -33.2430  -21.8330    6.2930 F   0  0  0  0  0  0  0  0  0  0  0  0
  -28.4920  -22.3130    6.3230 F   0  0  0  0  0  0  0  0  0  0  0  0
  -35.0720  -25.9170   14.4820 C   0  0  0  0  0  0  0  0  0  0  0  0
  -34.0390  -26.2270   13.7060 N   0  0  0  0  0  0  0  0  0  0  0  0
  -35.7320  -26.7920   15.0420 O   0  0  0  0  0  0  0  0  0  0  0  0
  -33.4870  -25.5100   13.2580 H   0  0  0  0  0  0  0  0  0  0  0  0
  -33.7980  -27.1960   13.5550 H   0  0  0  0  0  0  0  0  0  0  0  0
  -36.3840  -24.4190   17.0170 N   0  0  0  0  0  0  0  0  0  0  0  0
  -36.3380  -25.4090   17.2310 H   0  0  0  0  0  0  0  0  0  0  0  0
  -36.8400  -23.8780   17.7400 H   0  0  0  0  0  0  0  0  0  0  0  0
  -34.1410  -20.6290   19.4640 C   0  0  0  0  0  2  0  0  0  0  0  0
  -33.0420  -22.7710   18.6220 C   0  0  0  0  0  1  0  0  0  0  0  0
  -34.2860  -22.1720   19.2990 C   0  0  0  0  0  3  0  0  0  0  0  0
  -33.5760  -22.9570   21.6790 C   0  0  0  0  0  1  0  0  0  0  0  0
  -34.6550  -22.9470   20.5840 C   0  0  0  0  0  2  0  0  0  0  0  0
  -32.6150  -20.9540   24.3250 C   0  0  0  0  0  2  0  0  0  0  0  0
  -31.7140  -22.1870   24.5390 C   0  0  0  0  0  2  0  0  0  0  0  0
  -32.0440  -23.3130   23.5450 C   0  0  0  0  0  2  0  0  0  0  0  0
  -31.3660  -24.6580   23.8670 C   0  0  0  0  0  2  0  0  0  0  0  0
  -31.8710  -25.7170   22.9690 N   0  0  0  0  0  4  0  0  0  0  0  0
  -31.3960  -25.6540   22.0820 H   0  0  0  0  0  0  0  0  0  0  0  0
  -32.8460  -25.5190   22.8050 H   0  0  0  0  0  0  0  0  0  0  0  0
  -31.7930  -27.1010   23.4950 C   0  0  0  0  0  2  0  0  0  0  0  0
  -32.7340  -28.0390   22.7160 C   0  0  0  0  0  2  0  0  0  0  0  0
  -33.0900  -29.1710   23.5070 O   0  0  0  0  0  0  0  0  0  0  0  0
  -29.7020  -33.9680   27.4740 C   0  0  0  0  0  0  0  0  0  0  0  0
  -32.3080  -30.3030   23.4920 C   0  0  0  0  0  0  0  0  0  0  0  0
  -29.3140  -34.1420   25.0360 C   0  0  0  0  0  3  0  0  0  0  0  0
  -30.8310  -32.7110   23.5710 C   0  0  0  0  0  0  0  0  0  0  0  0
  -31.4890  -33.1500   25.9450 C   0  0  0  0  0  2  0  0  0  0  0  0
  -31.5440  -32.2900   24.6990 C   0  0  0  0  0  0  0  0  0  0  0  0
  -32.2880  -31.0930   24.6600 C   0  0  0  0  0  3  0  0  0  0  0  0
  -31.5780  -30.7370   22.3590 C   0  0  0  0  0  3  0  0  0  0  0  0
  -30.8430  -31.9370   22.3970 C   0  0  0  0  0  3  0  0  0  0  0  0
  -30.0740  -34.0120   23.6890 C   0  0  0  0  0  2  0  0  0  0  0  0
  -30.1530  -33.7310   26.2090 N   0  0  0  0  0  0  0  0  0  0  0  0
  -28.6290  -34.5530   27.6710 O   0  0  0  0  0  0  0  0  0  0  0  0
  -27.9880  -33.3550   24.9280 C   0  0  0  0  0  0  0  0  0  0  0  0
  -26.9930  -33.9530   24.2530 N   0  0  0  0  0  0  0  0  0  0  0  0
  -27.8800  -32.2280   25.4160 O   0  0  0  0  0  0  0  0  0  0  0  0
  -27.1620  -34.8800   23.8880 H   0  0  0  0  0  0  0  0  0  0  0  0
  -23.8140  -34.6150   22.6730 C   0  0  0  0  0  0  0  0  0  0  0  0
  -25.6700  -33.3900   23.9900 C   0  0  0  0  0  3  0  0  0  0  0  0
  -25.7140  -32.3970   22.8060 C   0  0  0  0  0  2  0  0  0  0  0  0
  -25.3880  -33.0480   21.4590 C   0  0  0  0  0  2  0  0  0  0  0  0
  -23.9910  -33.6770   21.4900 C   0  0  0  0  0  2  0  0  0  0  0  0
  -24.6120  -34.4900   23.8400 C   0  0  0  0  0  0  0  0  0  0  0  0
  -24.4310  -35.4090   24.8960 C   0  0  0  0  0  3  0  0  0  0  0  0
  -23.4750  -36.4370   24.7990 C   0  0  0  0  0  3  0  0  0  0  0  0
  -22.6740  -36.5450   23.6500 C   0  0  0  0  0  3  0  0  0  0  0  0
  -22.8400  -35.6320   22.5920 C   0  0  0  0  0  3  0  0  0  0  0  0
  -30.5220  -33.5350   28.7300 C   0  0  0  0  0  3  0  0  0  0  0  0
  -30.4330  -34.6240   29.7100 N   0  0  0  0  0  0  0  0  0  0  0  0
  -31.3900  -35.5390   29.9170 C   0  0  0  0  0  0  0  0  0  0  0  0
  -32.4820  -35.5090   29.3430 O   0  0  0  0  0  0  0  0  0  0  0  0
  -29.5450  -34.7420   30.1750 H   0  0  0  0  0  0  0  0  0  0  0  0
  -30.6880  -37.9400   30.1590 C   0  0  0  0  0  1  0  0  0  0  0  0
  -31.0880  -36.6670   30.9210 C   0  0  0  0  0  3  0  0  0  0  0  0
  -32.4940  -35.8860   32.7740 C   0  0  0  0  0  1  0  0  0  0  0  0
  -32.2170  -36.9630   31.8290 N   0  0  0  0  0  0  0  0  0  0  0  0
  -32.0380  -37.8110   32.3600 H   0  0  0  0  0  0  0  0  0  0  0  0
  -30.0270  -32.1740   29.3570 C   0  0  1  0  0  0  0  0  0  0  0  0
  -28.5040  -32.1320   29.6250 C   0  0  0  0  0  1  0  0  0  0  0  0
  -30.3750  -30.9880   28.4260 C   0  0  0  0  0  1  0  0  0  0  0  0
  -30.7580  -31.9160   30.6950 C   0  0  0  0  0  1  0  0  0  0  0  0
  1 54  1  0
  1  2  1  0
  2  3  1  0
  2  4  1  0
  5  1  1  0
  6  5  1  0
  7  6  1  0
  8  6  1  0
  9  6  1  0
 10  9  1  0
 11 10  1  0
 12 19  2  0
 12 20  1  0
 13 18  1  0
 14 13  1  0
 15 14  1  0
 15 16  1  0
 16 24  1  0
 16 17  1  0
 17 18  1  0
 18 12  1  0
 20 11  1  0
 21 46  1  0
 22 21  2  0
 23 25  2  0
 23 22  1  0
 24 21  1  0
 25 24  1  0
 26 23  1  0
 27 26  1  0
 28 27  2  0
 29 30  2  0
 29 28  1  0
 30 31  1  0
 31 26  2  0
 32 29  1  0
 33 32  1  0
 33 34  1  0
 35 34  2  0
 36 35  1  0
 37 38  1  0
 37 36  2  0
 38 33  2  0
 39 38  1  0
 40 36  1  0
 41 22  1  0
 41 43  2  0
 42 41  1  0
 44 42  1  0
 45 42  1  0
 46 47  1  0
 46 48  1  0
 49 20  1  0
 51 50  1  0
 51 49  1  0
 51 53  1  0
 53 52  1  0
 54 55  1  0
 56 57  1  0
 56 55  1  0
 58 61  1  0
 58 57  1  0
 59 58  1  0
 60 58  1  0
 62 61  1  0
 62 63  1  0
 64 75  2  0
 65 63  1  0
 65 70  1  0
 66 76  1  0
 66 74  1  0
 67 73  1  0
 67 69  1  0
 68 74  1  0
 69 68  1  0
 70 69  2  0
 71 72  1  0
 71 65  2  0
 72 67  2  0
 73 66  1  0
 74 64  1  0
 76 78  2  0
 77 76  1  0
 79 77  1  0
 80 85  1  0
 81 77  1  0
 82 81  1  0
 83 84  1  0
 83 82  1  0
 84 80  1  0
 85 81  1  0
 85 86  2  0
 87 86  1  0
 88 87  2  0
 89 80  2  0
 89 88  1  0
 90 64  1  0
 90100  1  0
 90 91  1  0
 91 92  1  0
 91 94  1  0
 92 96  1  0
 93 92  2  0
 96 95  1  0
 96 98  1  0
 98 99  1  0
 98 97  1  0
100101  1  1
100103  1  0
102100  1  0
M  ISO  4  12 100  20 100  62 101  63 101
M  END
>  <TORSDO>  (28) 
F 32

>  <SCORE>  (28) 
43.611

>  <name>  (28) 
27

>  <ligand_id>  (28) 
27

>  <original_smiles>  (28) 
[H]c1c([H])c([H])c2c(c1[H])C([H])([H])C([H])([H])C([H])([H])C2([H])N([H])C(=O)C1([H])N(C(=O)C([H])(N([H])C(=O)C([H])(N([H])C([H])([H])[H])C([H])([H])[H])C(C([H])([H])[H])(C([H])([H])[H])C([H])([H])[H])C([H])([H])c2c([H])c(OC([H])([H])C([H])([H])[N+]([H])([H])C([H])([H])C([H])([H])C([H])([H])C([H])([H])C([H])(N([H])[H])C([H])([H])[N+]([H])([H])C([H])([H])C([H])([H])C([H])([H])N(C(=O)N3C([H])([H])C([H])([H])C([H])([H])C([H])(n4nc(-c5c([H])c([H])c(Oc6c([H])c([H])c(F)c([H])c6F)c([H])c5[H])c(C(=O)N([H])[H])c4N([H])[H])C3([H])[H])C([H])([H])C([H])(C([H])([H])[H])C([H])([H])C([H])([H])[H])c([H])c([H])c2C1([H])[H]

>  <smiles>  (28) 
[H]c1c([H])c([H])c2c(c1[H])C([H])([H])C([H])([H])C([H])([H])C2([H])N([H])C(=O)C1([H])N(C(=O)C([H])(N([H])C(=O)C([H])(N([H])C([H])([H])[H])C([H])([H])[H])C(C([H])([H])[H])(C([H])([H])[H])C([H])([H])[H])C([H])([H])c2c([H])c(OC([H])([H])C([H])([H])[N+]([H])([H])C([H])([H])C([H])([H])C([H])([H])C([H])([H])C([H])(N([H])[H])C([H])([H])[N+]([H])([H])C([H])([H])C([H])([H])C([H])([H])N(C(=O)N3C([H])([H])C([H])([H])C([H])([H])C([H])(n4nc(-c5c([H])c([H])c(Oc6c([H])c([H])c(F)c([H])c6F)c([H])c5[H])c(C(=O)N([H])[H])c4N([H])[H])C3([H])[H])C([H])([H])C([H])(C([H])([H])[H])C([H])([H])C([H])([H])[H])c([H])c([H])c2C1([H])[H]

$$$$
28:0:0
     RDKit          3D

 90 97  0  0  1  0  0  0  0  0999 V2000
  -28.5100  -21.9010   20.2340 N   0  0  0  0  0  4  0  0  0  0  0  0
  -27.7060  -21.7930   19.6370 H   0  0  0  0  0  0  0  0  0  0  0  0
  -28.1800  -21.7680   21.1760 H   0  0  0  0  0  0  0  0  0  0  0  0
  -28.9770  -23.4090   20.1210 C   0  0  0  0  0  3  0  0  0  0  0  0
  -27.9050  -24.6920   20.1130 C   0  0  0  0  0  3  0  0  0  0  0  0
  -28.2220  -26.2110   20.2190 O   0  0  0  0  0  0  0  0  0  0  0  0
  -24.6140  -31.8900   23.2330 C   0  0  0  0  0  0  0  0  0  0  0  0
  -27.1680  -27.1860   20.1780 C   0  0  0  0  0  0  0  0  0  0  0  0
  -23.4070  -30.4890   21.6070 C   0  0  0  0  0  3  0  0  0  0  0  0
  -24.8450  -28.9220   20.1760 C   0  0  0  0  0  0  0  0  0  0  0  0
  -25.9600  -30.7610   21.4260 C   0  0  0  0  0  2  0  0  0  0  0  0
  -26.0300  -29.3710   20.7720 C   0  0  0  0  0  0  0  0  0  0  0  0
  -27.1960  -28.5200   20.7540 C   0  0  0  0  0  3  0  0  0  0  0  0
  -25.9510  -26.8390   19.5470 C   0  0  0  0  0  3  0  0  0  0  0  0
  -24.8150  -27.6670   19.5550 C   0  0  0  0  0  3  0  0  0  0  0  0
  -23.6190  -29.8160   20.2280 C   0  0  0  0  0  2  0  0  0  0  0  0
  -24.6820  -31.0660   22.1440 N   0  0  0  0  0  0  0  0  0  0  0  0
  -23.5310  -32.1730   23.7640 O   0  0  0  0  0  0  0  0  0  0  0  0
  -22.7360  -29.4790   22.5730 C   0  0  0  0  0  0  0  0  0  0  0  0
  -21.4100  -29.3050   22.4500 N   0  0  0  0  0  0  0  0  0  0  0  0
  -23.4140  -28.8560   23.3940 O   0  0  0  0  0  0  0  0  0  0  0  0
  -20.9210  -29.8570   21.7590 H   0  0  0  0  0  0  0  0  0  0  0  0
  -18.0320  -28.0950   22.9600 C   0  0  0  0  0  0  0  0  0  0  0  0
  -20.5900  -28.3710   23.2280 C   0  0  0  0  0  3  0  0  0  0  0  0
  -20.6980  -26.9340   22.6650 C   0  0  0  0  0  2  0  0  0  0  0  0
  -19.5980  -26.5980   21.6540 C   0  0  0  0  0  2  0  0  0  0  0  0
  -18.2160  -26.7420   22.2950 C   0  0  0  0  0  2  0  0  0  0  0  0
  -19.1470  -28.8670   23.3820 C   0  0  0  0  0  0  0  0  0  0  0  0
  -18.9200  -30.1310   23.9700 C   0  0  0  0  0  3  0  0  0  0  0  0
  -17.6120  -30.6250   24.1350 C   0  0  0  0  0  3  0  0  0  0  0  0
  -16.5120  -29.8520   23.7280 C   0  0  0  0  0  3  0  0  0  0  0  0
  -16.7230  -28.5910   23.1440 C   0  0  0  0  0  3  0  0  0  0  0  0
  -25.8940  -32.5280   23.8500 C   0  0  0  0  0  3  0  0  0  0  0  0
  -25.5790  -33.9250   24.1820 N   0  0  0  0  0  0  0  0  0  0  0  0
  -25.9090  -34.9820   23.4270 C   0  0  0  0  0  0  0  0  0  0  0  0
  -26.5750  -34.8830   22.3930 O   0  0  0  0  0  0  0  0  0  0  0  0
  -24.9820  -34.0750   24.9820 H   0  0  0  0  0  0  0  0  0  0  0  0
  -24.1780  -36.7770   23.0940 C   0  0  0  0  0  1  0  0  0  0  0  0
  -25.4260  -36.3690   23.8930 C   0  0  0  0  0  3  0  0  0  0  0  0
  -27.5650  -37.2530   24.7090 C   0  0  0  0  0  1  0  0  0  0  0  0
  -26.4550  -37.4250   23.7760 N   0  0  0  0  0  0  0  0  0  0  0  0
  -26.0500  -38.3430   23.9320 H   0  0  0  0  0  0  0  0  0  0  0  0
  -26.4110  -31.7610   25.1300 C   0  0  1  0  0  0  0  0  0  0  0  0
  -25.3180  -31.5280   26.1990 C   0  0  0  0  0  1  0  0  0  0  0  0
  -26.9920  -30.3810   24.7490 C   0  0  0  0  0  1  0  0  0  0  0  0
  -27.5670  -32.5540   25.7840 C   0  0  0  0  0  1  0  0  0  0  0  0
  -29.4470  -20.6770   19.9030 C   0  0  0  0  0  2  0  0  0  0  0  0
  -29.1100  -19.0990   20.3710 C   0  0  0  0  0  3  0  0  0  0  0  0
  -27.8070  -18.7170   19.8420 N   0  0  0  0  0  0  0  0  0  0  0  0
  -27.8100  -18.7730   18.8310 H   0  0  0  0  0  0  0  0  0  0  0  0
  -27.0660  -19.3430   20.1380 H   0  0  0  0  0  0  0  0  0  0  0  0
  -30.0600  -17.7810   19.9870 C   0  0  0  0  0  2  0  0  0  0  0  0
  -30.4220  -16.4350   22.1510 C   0  0  0  0  0  1  0  0  0  0  0  0
  -29.9150  -16.2770   20.7060 C   0  0  0  0  0  3  0  0  0  0  0  0
  -30.6150  -14.8990   20.1370 C   0  0  0  0  0  0  0  0  0  0  0  0
  -30.3930  -12.6020   19.1070 C   0  0  0  0  0  2  0  0  0  0  0  0
  -29.4100  -12.6690   17.9130 C   0  0  0  0  0  2  0  0  0  0  0  0
  -27.9610  -12.4840   18.3970 C   0  0  0  0  0  2  0  0  0  0  0  0
  -27.6350  -13.3600   19.6310 C   0  0  0  0  0  3  0  0  0  0  0  0
  -28.7330  -13.2620   20.7100 C   0  0  0  0  0  2  0  0  0  0  0  0
  -30.0030  -13.6540   20.0800 N   0  0  0  0  0  0  0  0  0  0  0  0
  -31.7630  -14.9860   19.6890 O   0  0  0  0  0  0  0  0  0  0  0  0
  -25.2710  -13.9400   20.4380 C   0  0  0  0  0  0  0  0  0  0  0  0
  -24.2160  -13.1600   20.8300 C   0  0  0  0  0  0  0  0  0  0  0  0
  -24.6820  -11.8110   20.7770 C   0  0  0  0  0  0  0  0  0  0  0  0
  -26.3090  -13.0650   20.1620 N   0  0  0  0  0  0  0  0  0  0  0  0
  -25.9620  -11.7800   20.4300 N   0  0  0  0  0  0  0  0  0  0  0  0
  -23.9580  -10.5470   20.9740 C   0  0  0  0  0  0  0  0  0  0  0  0
  -24.4020   -9.5750   21.8960 C   0  0  0  0  0  3  0  0  0  0  0  0
  -23.6760   -8.3780   22.0800 C   0  0  0  0  0  3  0  0  0  0  0  0
  -22.4900   -8.1460   21.3450 C   0  0  0  0  0  0  0  0  0  0  0  0
  -22.0680   -9.1050   20.4080 C   0  0  0  0  0  3  0  0  0  0  0  0
  -22.7950  -10.2940   20.2200 C   0  0  0  0  0  3  0  0  0  0  0  0
  -21.7330   -7.0030   21.4420 O   0  0  0  0  0  0  0  0  0  0  0  0
  -21.6880   -6.2660   22.5990 C   0  0  0  0  0  0  0  0  0  0  0  0
  -21.2820   -6.8360   23.8260 C   0  0  0  0  0  3  0  0  0  0  0  0
  -21.1780   -6.0270   24.9760 C   0  0  0  0  0  3  0  0  0  0  0  0
  -21.4770   -4.6530   24.9010 C   0  0  0  0  0  0  0  0  0  0  0  0
  -21.8840   -4.0860   23.6810 C   0  0  0  0  0  3  0  0  0  0  0  0
  -21.9850   -4.8900   22.5340 C   0  0  0  0  0  0  0  0  0  0  0  0
  -22.3550   -4.3320   21.3550 F   0  0  0  0  0  0  0  0  0  0  0  0
  -21.3710   -3.8790   26.0060 F   0  0  0  0  0  0  0  0  0  0  0  0
  -22.8290  -13.6350   21.1460 C   0  0  0  0  0  0  0  0  0  0  0  0
  -22.1340  -12.9310   22.0310 N   0  0  0  0  0  0  0  0  0  0  0  0
  -22.3720  -14.6620   20.6450 O   0  0  0  0  0  0  0  0  0  0  0  0
  -22.5320  -12.1120   22.4700 H   0  0  0  0  0  0  0  0  0  0  0  0
  -21.1970  -13.2110   22.2830 H   0  0  0  0  0  0  0  0  0  0  0  0
  -25.4130  -15.3140   20.2760 N   0  0  0  0  0  0  0  0  0  0  0  0
  -24.6360  -15.9480   20.4190 H   0  0  0  0  0  0  0  0  0  0  0  0
  -26.2470  -15.7880   19.9480 H   0  0  0  0  0  0  0  0  0  0  0  0
  1  3  1  0
  2  1  1  0
  4  1  1  0
  5  4  2  0
  5  6  1  0
  7 18  2  0
  8  6  1  0
  8 13  1  0
  9 17  1  0
  9 19  1  0
 10 16  1  0
 10 12  1  0
 11 17  1  0
 12 11  1  0
 13 12  2  0
 14 15  1  0
 14  8  2  0
 15 10  2  0
 16  9  1  0
 17  7  1  0
 19 21  2  0
 20 19  1  0
 22 20  1  0
 23 32  2  0
 23 28  1  0
 24 20  1  0
 24 28  1  0
 25 24  1  0
 26 27  1  0
 26 25  1  0
 27 23  1  0
 28 29  2  0
 29 30  1  0
 31 30  2  0
 32 31  1  0
 33  7  1  0
 33 34  1  0
 33 43  1  0
 34 37  1  0
 35 39  1  0
 35 34  1  0
 36 35  2  0
 39 38  1  0
 41 39  1  0
 41 42  1  0
 41 40  1  0
 43 46  1  1
 43 44  1  0
 45 43  1  0
 47  1  1  0
 48 47  1  0
 49 51  1  0
 49 48  1  0
 50 49  1  0
 52 48  1  0
 52 54  1  0
 54 53  1  0
 55 54  1  0
 56 61  1  0
 57 58  1  0
 57 56  1  0
 59 58  1  0
 59 66  1  0
 59 60  1  0
 61 55  1  0
 61 60  1  0
 62 55  2  0
 63 64  2  0
 64 83  1  0
 65 64  1  0
 65 68  1  0
 66 67  1  0
 66 63  1  0
 67 65  2  0
 68 69  1  0
 69 70  2  0
 71 74  1  0
 71 70  1  0
 72 71  2  0
 73 72  1  0
 73 68  2  0
 74 75  1  0
 75 76  1  0
 76 77  2  0
 78 77  1  0
 78 82  1  0
 79 78  2  0
 80 75  2  0
 80 79  1  0
 81 80  1  0
 83 84  1  0
 84 87  1  0
 84 86  1  0
 85 83  2  0
 88 89  1  0
 88 63  1  0
 90 88  1  0
M  ISO  4   5 101   6 101  54 100  55 100
M  END
>  <TORSDO>  (29) 
F 23

>  <SCORE>  (29) 
-12.917

>  <name>  (29) 
28

>  <ligand_id>  (29) 
28

>  <original_smiles>  (29) 
[H]c1c([H])c([H])c2c(c1[H])C([H])([H])C([H])([H])C([H])([H])C2([H])N([H])C(=O)C1([H])N(C(=O)C([H])(N([H])C(=O)C([H])(N([H])C([H])([H])[H])C([H])([H])[H])C(C([H])([H])[H])(C([H])([H])[H])C([H])([H])[H])C([H])([H])c2c([H])c(OC([H])([H])C([H])([H])[N+]([H])([H])C([H])([H])C([H])(N([H])[H])C([H])([H])C([H])(C(=O)N3C([H])([H])C([H])([H])C([H])([H])C([H])(n4nc(-c5c([H])c([H])c(Oc6c([H])c([H])c(F)c([H])c6F)c([H])c5[H])c(C(=O)N([H])[H])c4N([H])[H])C3([H])[H])C([H])([H])[H])c([H])c([H])c2C1([H])[H]

>  <smiles>  (29) 
[H]c1c([H])c([H])c2c(c1[H])C([H])([H])C([H])([H])C([H])([H])C2([H])N([H])C(=O)C1([H])N(C(=O)C([H])(N([H])C(=O)C([H])(N([H])C([H])([H])[H])C([H])([H])[H])C(C([H])([H])[H])(C([H])([H])[H])C([H])([H])[H])C([H])([H])c2c([H])c(OC([H])([H])C([H])([H])[N+]([H])([H])C([H])([H])C([H])(N([H])[H])C([H])([H])C([H])(C(=O)N3C([H])([H])C([H])([H])C([H])([H])C([H])(n4nc(-c5c([H])c([H])c(Oc6c([H])c([H])c(F)c([H])c6F)c([H])c5[H])c(C(=O)N([H])[H])c4N([H])[H])C3([H])[H])C([H])([H])[H])c([H])c([H])c2C1([H])[H]

$$$$
29:0:0
     RDKit          3D

 94102  0  0  1  0  0  0  0  0999 V2000
  -29.4300  -17.6210   18.9390 C   0  0  0  0  0  0  0  0  0  0  0  0
  -29.8090  -18.1410   21.4190 C   0  0  0  0  0  2  0  0  0  0  0  0
  -30.0510  -20.1430   18.8460 C   0  0  0  0  0  2  0  0  0  0  0  0
  -28.6730  -19.2450   21.3220 C   0  0  0  0  0  2  0  0  0  0  0  0
  -30.2640  -17.2420   20.1910 C   0  0  0  0  0  3  0  0  0  0  0  0
  -29.1370  -21.1350   19.6590 C   0  0  0  0  0  3  0  0  0  0  0  0
  -29.3920  -18.8800   18.4450 N   0  0  0  0  0  0  0  0  0  0  0  0
  -29.0990  -20.6670   21.0760 N   0  0  0  0  0  4  0  0  0  0  0  0
  -28.7510  -16.7500   18.3950 O   0  0  0  0  0  0  0  0  0  0  0  0
  -28.8020  -18.9650   17.6270 H   0  0  0  0  0  0  0  0  0  0  0  0
  -29.9740  -20.8490   21.5410 H   0  0  0  0  0  0  0  0  0  0  0  0
  -28.4150  -21.2440   21.5380 H   0  0  0  0  0  0  0  0  0  0  0  0
  -30.8870  -14.7030   20.0960 C   0  0  0  0  0  0  0  0  0  0  0  0
  -30.6420  -12.4410   19.0870 C   0  0  0  0  0  2  0  0  0  0  0  0
  -29.6590  -12.5680   17.9010 C   0  0  0  0  0  2  0  0  0  0  0  0
  -28.2050  -12.4000   18.3870 C   0  0  0  0  0  2  0  0  0  0  0  0
  -27.8930  -13.2850   19.6230 C   0  0  0  0  0  3  0  0  0  0  0  0
  -28.9870  -13.1470   20.7050 C   0  0  0  0  0  2  0  0  0  0  0  0
  -30.2740  -13.4770   20.0740 N   0  0  0  0  0  0  0  0  0  0  0  0
  -32.0120  -14.8640   19.6200 O   0  0  0  0  0  0  0  0  0  0  0  0
  -30.1150  -15.7650   20.4950 N   0  0  0  0  0  0  0  0  0  0  0  0
  -29.2040  -15.4980   20.8310 H   0  0  0  0  0  0  0  0  0  0  0  0
  -25.5540  -13.9140   20.4720 C   0  0  0  0  0  0  0  0  0  0  0  0
  -24.4890  -13.1520   20.8720 C   0  0  0  0  0  0  0  0  0  0  0  0
  -24.9190  -11.7920   20.7770 C   0  0  0  0  0  0  0  0  0  0  0  0
  -26.5650  -13.0180   20.1630 N   0  0  0  0  0  0  0  0  0  0  0  0
  -26.1910  -11.7360   20.4020 N   0  0  0  0  0  0  0  0  0  0  0  0
  -24.1750  -10.5410   20.9640 C   0  0  0  0  0  0  0  0  0  0  0  0
  -24.6100   -9.5510   21.8740 C   0  0  0  0  0  3  0  0  0  0  0  0
  -23.8680   -8.3640   22.0490 C   0  0  0  0  0  3  0  0  0  0  0  0
  -22.6760   -8.1580   21.3140 C   0  0  0  0  0  0  0  0  0  0  0  0
  -22.2610   -9.1340   20.3910 C   0  0  0  0  0  3  0  0  0  0  0  0
  -23.0050  -10.3130   20.2150 C   0  0  0  0  0  3  0  0  0  0  0  0
  -21.9030   -7.0250   21.4000 O   0  0  0  0  0  0  0  0  0  0  0  0
  -21.8310   -6.2910   22.5560 C   0  0  0  0  0  0  0  0  0  0  0  0
  -21.3490   -6.8430   23.7620 C   0  0  0  0  0  3  0  0  0  0  0  0
  -21.2250   -6.0340   24.9080 C   0  0  0  0  0  3  0  0  0  0  0  0
  -21.5730   -4.6710   24.8500 C   0  0  0  0  0  0  0  0  0  0  0  0
  -22.0480   -4.1160   23.6490 C   0  0  0  0  0  3  0  0  0  0  0  0
  -22.1730   -4.9240   22.5030 C   0  0  0  0  0  0  0  0  0  0  0  0
  -22.6110   -4.3800   21.3430 F   0  0  0  0  0  0  0  0  0  0  0  0
  -21.4460   -3.8920   25.9490 F   0  0  0  0  0  0  0  0  0  0  0  0
  -23.1190  -13.6480   21.2280 C   0  0  0  0  0  0  0  0  0  0  0  0
  -22.4220  -12.9420   22.1120 N   0  0  0  0  0  0  0  0  0  0  0  0
  -22.6790  -14.6980   20.7610 O   0  0  0  0  0  0  0  0  0  0  0  0
  -22.7900  -12.0880   22.5050 H   0  0  0  0  0  0  0  0  0  0  0  0
  -21.5080  -13.2610   22.3990 H   0  0  0  0  0  0  0  0  0  0  0  0
  -25.7430  -15.2860   20.3300 N   0  0  0  0  0  0  0  0  0  0  0  0
  -24.9810  -15.9470   20.4400 H   0  0  0  0  0  0  0  0  0  0  0  0
  -26.5750  -15.7050   19.9310 H   0  0  0  0  0  0  0  0  0  0  0  0
  -29.5660  -22.6730   19.4610 C   0  0  0  0  0  2  0  0  0  0  0  0
  -28.7600  -23.9260   20.0570 C   0  0  0  0  0  2  0  0  0  0  0  0
  -28.9720  -25.3260   19.3110 C   0  0  0  0  0  2  0  0  0  0  0  0
  -28.7260  -26.6300   19.9610 O   0  0  0  0  0  0  0  0  0  0  0  0
  -24.6420  -31.6620   23.0610 C   0  0  0  0  0  0  0  0  0  0  0  0
  -27.5330  -27.3630   19.8850 C   0  0  0  0  0  0  0  0  0  0  0  0
  -23.5310  -30.2720   21.3430 C   0  0  0  0  0  3  0  0  0  0  0  0
  -25.0780  -28.8350   19.8920 C   0  0  0  0  0  0  0  0  0  0  0  0
  -26.0530  -30.7120   21.2240 C   0  0  0  0  0  2  0  0  0  0  0  0
  -26.2070  -29.3660   20.5260 C   0  0  0  0  0  0  0  0  0  0  0  0
  -27.4310  -28.6400   20.5160 C   0  0  0  0  0  3  0  0  0  0  0  0
  -26.3770  -26.8660   19.2440 C   0  0  0  0  0  3  0  0  0  0  0  0
  -25.1620  -27.5860   19.2500 C   0  0  0  0  0  3  0  0  0  0  0  0
  -23.8030  -29.6540   19.9450 C   0  0  0  0  0  2  0  0  0  0  0  0
  -24.7580  -30.9000   21.9330 N   0  0  0  0  0  0  0  0  0  0  0  0
  -23.5390  -31.8730   23.5840 O   0  0  0  0  0  0  0  0  0  0  0  0
  -22.8970  -29.1940   22.2540 C   0  0  0  0  0  0  0  0  0  0  0  0
  -21.5780  -28.9830   22.1140 N   0  0  0  0  0  0  0  0  0  0  0  0
  -23.5940  -28.5510   23.0440 O   0  0  0  0  0  0  0  0  0  0  0  0
  -21.0760  -29.5540   21.4460 H   0  0  0  0  0  0  0  0  0  0  0  0
  -18.2340  -27.6850   22.5680 C   0  0  0  0  0  0  0  0  0  0  0  0
  -20.7880  -27.9860   22.8380 C   0  0  0  0  0  3  0  0  0  0  0  0
  -20.9180  -26.5920   22.1850 C   0  0  0  0  0  2  0  0  0  0  0  0
  -19.8160  -26.2980   21.1630 C   0  0  0  0  0  2  0  0  0  0  0  0
  -18.4360  -26.3780   21.8200 C   0  0  0  0  0  2  0  0  0  0  0  0
  -19.3380  -28.4470   23.0340 C   0  0  0  0  0  0  0  0  0  0  0  0
  -19.0960  -29.6730   23.6900 C   0  0  0  0  0  3  0  0  0  0  0  0
  -17.7820  -30.1310   23.8970 C   0  0  0  0  0  3  0  0  0  0  0  0
  -16.6920  -29.3640   23.4510 C   0  0  0  0  0  3  0  0  0  0  0  0
  -16.9200  -28.1460   22.7880 C   0  0  0  0  0  3  0  0  0  0  0  0
  -25.8860  -32.3260   23.7310 C   0  0  0  0  0  3  0  0  0  0  0  0
  -26.4050  -31.5480   25.0040 C   0  0  1  0  0  0  0  0  0  0  0  0
  -25.3000  -31.2460   26.0440 C   0  0  0  0  0  1  0  0  0  0  0  0
  -27.0510  -30.2000   24.6040 C   0  0  0  0  0  1  0  0  0  0  0  0
  -27.5090  -32.3710   25.7090 C   0  0  0  0  0  1  0  0  0  0  0  0
  -25.5160  -33.7050   24.0830 N   0  0  0  0  0  0  0  0  0  0  0  0
  -25.8170  -34.7860   23.3520 C   0  0  0  0  0  0  0  0  0  0  0  0
  -26.5070  -34.7340   22.3310 O   0  0  0  0  0  0  0  0  0  0  0  0
  -24.9090  -33.8230   24.8820 H   0  0  0  0  0  0  0  0  0  0  0  0
  -24.0290  -36.5220   23.0060 C   0  0  0  0  0  1  0  0  0  0  0  0
  -25.2670  -36.1430   23.8330 C   0  0  0  0  0  3  0  0  0  0  0  0
  -27.3410  -37.0880   24.7430 C   0  0  0  0  0  1  0  0  0  0  0  0
  -26.2570  -37.2380   23.7750 N   0  0  0  0  0  0  0  0  0  0  0  0
  -25.8070  -38.1350   23.9380 H   0  0  0  0  0  0  0  0  0  0  0  0
  1  5  1  0
  3  6  1  0
  4  2  1  0
  5 21  1  0
  5  2  1  0
  6 51  1  0
  6  8  1  0
  7  3  1  0
  7  1  1  0
  8  4  1  0
  8 12  1  0
  8 11  1  0
  9  1  2  0
 10  7  1  0
 13 21  1  0
 14 19  1  0
 15 16  1  0
 15 14  1  0
 17 16  1  0
 17 26  1  0
 17 18  1  0
 19 13  1  0
 19 18  1  0
 20 13  2  0
 21 22  1  0
 23 24  2  0
 24 43  1  0
 25 24  1  0
 25 28  1  0
 26 27  1  0
 26 23  1  0
 27 25  2  0
 28 29  1  0
 29 30  2  0
 31 34  1  0
 31 30  1  0
 32 31  2  0
 33 32  1  0
 33 28  2  0
 34 35  1  0
 35 36  1  0
 36 37  2  0
 38 37  1  0
 38 42  1  0
 39 38  2  0
 40 35  2  0
 40 39  1  0
 41 40  1  0
 43 44  1  0
 44 47  1  0
 44 46  1  0
 45 43  2  0
 48 49  1  0
 48 23  1  0
 50 48  1  0
 51 52  1  0
 53 54  1  0
 53 52  1  0
 55 66  2  0
 56 54  1  0
 56 61  1  0
 57 65  1  0
 57 67  1  0
 58 64  1  0
 58 60  1  0
 59 65  1  0
 60 59  1  0
 61 60  2  0
 62 63  1  0
 62 56  2  0
 63 58  2  0
 64 57  1  0
 65 55  1  0
 67 69  2  0
 68 67  1  0
 70 68  1  0
 71 80  2  0
 71 76  1  0
 72 68  1  0
 72 76  1  0
 73 72  1  0
 74 75  1  0
 74 73  1  0
 75 71  1  0
 76 77  2  0
 77 78  1  0
 79 78  2  0
 80 79  1  0
 81 55  1  0
 81 86  1  0
 81 82  1  0
 82 85  1  1
 82 83  1  0
 84 82  1  0
 86 89  1  0
 87 91  1  0
 87 86  1  0
 88 87  2  0
 91 90  1  0
 93 91  1  0
 93 94  1  0
 93 92  1  0
M  ISO  4  13 100  21 100  53 101  54 101
M  END
>  <TORSDO>  (30) 
F 19

>  <SCORE>  (30) 
-12.670

>  <name>  (30) 
29

>  <ligand_id>  (30) 
29

>  <original_smiles>  (30) 
[H]c1c([H])c([H])c2c(c1[H])C([H])([H])C([H])([H])C([H])([H])C2([H])N([H])C(=O)C1([H])N(C(=O)C([H])(N([H])C(=O)C([H])(N([H])C([H])([H])[H])C([H])([H])[H])C(C([H])([H])[H])(C([H])([H])[H])C([H])([H])[H])C([H])([H])c2c([H])c(OC([H])([H])C([H])([H])C([H])([H])C3([H])C([H])([H])N([H])C(=O)C([H])(N([H])C(=O)N4C([H])([H])C([H])([H])C([H])([H])C([H])(n5nc(-c6c([H])c([H])c(Oc7c([H])c([H])c(F)c([H])c7F)c([H])c6[H])c(C(=O)N([H])[H])c5N([H])[H])C4([H])[H])C([H])([H])C([H])([H])[N+]3([H])[H])c([H])c([H])c2C1([H])[H]

>  <smiles>  (30) 
[H]c1c([H])c([H])c2c(c1[H])C([H])([H])C([H])([H])C([H])([H])C2([H])N([H])C(=O)C1([H])N(C(=O)C([H])(N([H])C(=O)C([H])(N([H])C([H])([H])[H])C([H])([H])[H])C(C([H])([H])[H])(C([H])([H])[H])C([H])([H])[H])C([H])([H])c2c([H])c(OC([H])([H])C([H])([H])C([H])([H])C3([H])C([H])([H])N([H])C(=O)C([H])(N([H])C(=O)N4C([H])([H])C([H])([H])C([H])([H])C([H])(n5nc(-c6c([H])c([H])c(Oc7c([H])c([H])c(F)c([H])c7F)c([H])c6[H])c(C(=O)N([H])[H])c5N([H])[H])C4([H])[H])C([H])([H])C([H])([H])[N+]3([H])[H])c([H])c([H])c2C1([H])[H]

$$$$
30:0:0
     RDKit          3D

 93100  0  0  1  0  0  0  0  0999 V2000
  -30.2590  -21.3930   20.1810 C   0  0  0  0  0  3  0  0  0  0  0  0
  -31.9480  -22.4400   18.5030 C   0  0  0  0  0  1  0  0  0  0  0  0
  -32.8230  -21.0740   20.4390 C   0  0  0  0  0  1  0  0  0  0  0  0
  -31.6850  -21.9860   19.9540 C   0  0  0  0  0  3  0  0  0  0  0  0
  -30.1690  -20.0720   19.4150 N   0  0  0  0  0  4  0  0  0  0  0  0
  -29.8800  -20.2550   18.4690 H   0  0  0  0  0  0  0  0  0  0  0  0
  -31.1330  -19.7870   19.3490 H   0  0  0  0  0  0  0  0  0  0  0  0
  -29.4430  -18.8320   19.9290 C   0  0  0  0  0  3  0  0  0  0  0  0
  -27.3680  -19.6890   18.6080 C   0  0  0  0  0  1  0  0  0  0  0  0
  -28.2650  -18.4990   18.9820 C   0  0  0  0  0  2  0  0  0  0  0  0
  -31.3300  -17.8520   21.3430 C   0  0  0  0  0  1  0  0  0  0  0  0
  -30.3940  -17.5390   20.1570 C   0  0  0  0  0  3  0  0  0  0  0  0
  -29.7400  -16.0790   20.3910 C   0  0  0  0  0  2  0  0  0  0  0  0
  -30.5430  -14.7510   20.0270 C   0  0  0  0  0  0  0  0  0  0  0  0
  -30.3410  -12.4360   19.1300 C   0  0  0  0  0  2  0  0  0  0  0  0
  -29.3610  -12.4590   17.9350 C   0  0  0  0  0  2  0  0  0  0  0  0
  -27.9040  -12.2990   18.4160 C   0  0  0  0  0  2  0  0  0  0  0  0
  -27.5620  -13.2360   19.6020 C   0  0  0  0  0  3  0  0  0  0  0  0
  -28.6560  -13.2060   20.6920 C   0  0  0  0  0  2  0  0  0  0  0  0
  -29.9430  -13.5170   20.0560 N   0  0  0  0  0  0  0  0  0  0  0  0
  -31.6850  -14.8620   19.5720 O   0  0  0  0  0  0  0  0  0  0  0  0
  -25.2140  -13.8500   20.4450 C   0  0  0  0  0  0  0  0  0  0  0  0
  -24.1570  -13.0820   20.8540 C   0  0  0  0  0  0  0  0  0  0  0  0
  -24.6040  -11.7280   20.7870 C   0  0  0  0  0  0  0  0  0  0  0  0
  -26.2360  -12.9610   20.1500 N   0  0  0  0  0  0  0  0  0  0  0  0
  -25.8770  -11.6790   20.4180 N   0  0  0  0  0  0  0  0  0  0  0  0
  -23.8710  -10.4710   20.9950 C   0  0  0  0  0  0  0  0  0  0  0  0
  -24.3200   -9.5010   21.9200 C   0  0  0  0  0  3  0  0  0  0  0  0
  -23.5910   -8.3070   22.1150 C   0  0  0  0  0  3  0  0  0  0  0  0
  -22.4000   -8.0760   21.3870 C   0  0  0  0  0  0  0  0  0  0  0  0
  -21.9720   -9.0330   20.4500 C   0  0  0  0  0  3  0  0  0  0  0  0
  -22.7020  -10.2180   20.2520 C   0  0  0  0  0  3  0  0  0  0  0  0
  -21.6420   -6.9350   21.4930 O   0  0  0  0  0  0  0  0  0  0  0  0
  -21.6000   -6.2050   22.6530 C   0  0  0  0  0  0  0  0  0  0  0  0
  -21.1490   -6.7650   23.8700 C   0  0  0  0  0  3  0  0  0  0  0  0
  -21.0560   -5.9590   25.0230 C   0  0  0  0  0  3  0  0  0  0  0  0
  -21.4010   -4.5950   24.9590 C   0  0  0  0  0  0  0  0  0  0  0  0
  -21.8450   -4.0350   23.7480 C   0  0  0  0  0  3  0  0  0  0  0  0
  -21.9400   -4.8380   22.5980 C   0  0  0  0  0  0  0  0  0  0  0  0
  -22.3470   -4.2880   21.4280 F   0  0  0  0  0  0  0  0  0  0  0  0
  -21.3050   -3.8190   26.0640 F   0  0  0  0  0  0  0  0  0  0  0  0
  -22.7780  -13.5690   21.1970 C   0  0  0  0  0  0  0  0  0  0  0  0
  -22.0870  -12.8710   22.0910 N   0  0  0  0  0  0  0  0  0  0  0  0
  -22.3260  -14.6030   20.7090 O   0  0  0  0  0  0  0  0  0  0  0  0
  -22.4690  -12.0350   22.5080 H   0  0  0  0  0  0  0  0  0  0  0  0
  -21.1640  -13.1750   22.3630 H   0  0  0  0  0  0  0  0  0  0  0  0
  -25.3850  -15.2210   20.2770 N   0  0  0  0  0  0  0  0  0  0  0  0
  -24.6340  -15.8840   20.4350 H   0  0  0  0  0  0  0  0  0  0  0  0
  -26.2240  -15.6530   19.9120 H   0  0  0  0  0  0  0  0  0  0  0  0
  -29.1560  -22.5130   19.8480 C   0  0  0  0  0  2  0  0  0  0  0  0
  -29.3640  -24.0320   20.3270 C   0  0  0  0  0  3  0  0  0  0  0  0
  -28.2540  -25.0880   19.9150 C   0  0  0  0  0  3  0  0  0  0  0  0
  -28.4290  -26.5180   20.2500 O   0  0  0  0  0  0  0  0  0  0  0  0
  -24.6300  -31.8670   23.2500 C   0  0  0  0  0  0  0  0  0  0  0  0
  -27.3000  -27.3530   20.1860 C   0  0  0  0  0  0  0  0  0  0  0  0
  -23.4530  -30.4860   21.5770 C   0  0  0  0  0  3  0  0  0  0  0  0
  -24.9280  -28.9530   20.1600 C   0  0  0  0  0  0  0  0  0  0  0  0
  -25.9950  -30.8100   21.4390 C   0  0  0  0  0  2  0  0  0  0  0  0
  -26.0870  -29.4410   20.7770 C   0  0  0  0  0  0  0  0  0  0  0  0
  -27.2750  -28.6520   20.7800 C   0  0  0  0  0  3  0  0  0  0  0  0
  -26.1160  -26.9210   19.5440 C   0  0  0  0  0  3  0  0  0  0  0  0
  -24.9440  -27.6980   19.5350 C   0  0  0  0  0  3  0  0  0  0  0  0
  -23.6890  -29.8230   20.1950 C   0  0  0  0  0  2  0  0  0  0  0  0
  -24.7110  -31.0700   22.1460 N   0  0  0  0  0  0  0  0  0  0  0  0
  -23.5370  -32.1410   23.7690 O   0  0  0  0  0  0  0  0  0  0  0  0
  -22.7730  -29.4610   22.5140 C   0  0  0  0  0  0  0  0  0  0  0  0
  -21.4460  -29.2960   22.3700 N   0  0  0  0  0  0  0  0  0  0  0  0
  -23.4380  -28.8150   23.3300 O   0  0  0  0  0  0  0  0  0  0  0  0
  -20.9700  -29.8670   21.6860 H   0  0  0  0  0  0  0  0  0  0  0  0
  -18.0490  -28.1500   22.8390 C   0  0  0  0  0  0  0  0  0  0  0  0
  -20.6110  -28.3560   23.1190 C   0  0  0  0  0  3  0  0  0  0  0  0
  -20.6890  -26.9370   22.5100 C   0  0  0  0  0  2  0  0  0  0  0  0
  -19.5830  -26.6570   21.4880 C   0  0  0  0  0  2  0  0  0  0  0  0
  -18.2020  -26.8130   22.1320 C   0  0  0  0  0  2  0  0  0  0  0  0
  -19.1800  -28.8820   23.2880 C   0  0  0  0  0  0  0  0  0  0  0  0
  -18.9830  -30.1350   23.9060 C   0  0  0  0  0  3  0  0  0  0  0  0
  -17.6860  -30.6560   24.0810 C   0  0  0  0  0  3  0  0  0  0  0  0
  -16.5700  -29.9190   23.6480 C   0  0  0  0  0  3  0  0  0  0  0  0
  -16.7520  -28.6680   23.0330 C   0  0  0  0  0  3  0  0  0  0  0  0
  -25.9030  -32.4910   23.9020 C   0  0  0  0  0  3  0  0  0  0  0  0
  -26.3840  -31.7140   25.1890 C   0  0  1  0  0  0  0  0  0  0  0  0
  -25.2650  -31.4780   26.2290 C   0  0  0  0  0  1  0  0  0  0  0  0
  -26.9720  -30.3350   24.8090 C   0  0  0  0  0  1  0  0  0  0  0  0
  -27.5210  -32.5040   25.8810 C   0  0  0  0  0  1  0  0  0  0  0  0
  -25.5950  -33.8910   24.2290 N   0  0  0  0  0  0  0  0  0  0  0  0
  -25.9420  -34.9420   23.4730 C   0  0  0  0  0  0  0  0  0  0  0  0
  -26.6250  -34.8330   22.4510 O   0  0  0  0  0  0  0  0  0  0  0  0
  -24.9930  -34.0500   25.0220 H   0  0  0  0  0  0  0  0  0  0  0  0
  -24.2260  -36.7410   23.0960 C   0  0  0  0  0  1  0  0  0  0  0  0
  -25.4550  -36.3320   23.9230 C   0  0  0  0  0  3  0  0  0  0  0  0
  -27.5780  -37.2150   24.7880 C   0  0  0  0  0  1  0  0  0  0  0  0
  -26.4940  -37.3810   23.8220 N   0  0  0  0  0  0  0  0  0  0  0  0
  -26.0890  -38.3030   23.9560 H   0  0  0  0  0  0  0  0  0  0  0  0
  1 50  1  0
  2  4  1  0
  4  1  1  0
  4  3  1  0
  5  8  1  0
  5  1  1  0
  6  5  1  0
  7  5  1  0
  8 10  1  0
  8 12  1  0
  9 10  1  0
 12 13  1  0
 12 11  1  0
 14 20  1  0
 14 13  1  0
 15 20  1  0
 16 17  1  0
 16 15  1  0
 18 17  1  0
 18 25  1  0
 18 19  1  0
 20 19  1  0
 21 14  2  0
 22 23  2  0
 23 42  1  0
 24 23  1  0
 24 27  1  0
 25 26  1  0
 25 22  1  0
 26 24  2  0
 27 28  1  0
 28 29  2  0
 30 33  1  0
 30 29  1  0
 31 30  2  0
 32 31  1  0
 32 27  2  0
 33 34  1  0
 34 35  1  0
 35 36  2  0
 37 36  1  0
 37 41  1  0
 38 37  2  0
 39 34  2  0
 39 38  1  0
 40 39  1  0
 42 43  1  0
 43 46  1  0
 43 45  1  0
 44 42  2  0
 47 48  1  0
 47 22  1  0
 49 47  1  0
 50 51  1  0
 52 53  1  0
 52 51  2  0
 54 65  2  0
 55 53  1  0
 55 60  1  0
 56 64  1  0
 56 66  1  0
 57 63  1  0
 57 59  1  0
 58 64  1  0
 59 60  2  0
 59 58  1  0
 61 55  2  0
 62 61  1  0
 62 57  2  0
 63 56  1  0
 64 54  1  0
 66 68  2  0
 67 66  1  0
 69 67  1  0
 70 79  2  0
 70 75  1  0
 71 67  1  0
 71 75  1  0
 72 71  1  0
 73 74  1  0
 73 72  1  0
 74 70  1  0
 75 76  2  0
 76 77  1  0
 78 77  2  0
 79 78  1  0
 80 54  1  0
 80 85  1  0
 80 81  1  0
 81 84  1  1
 81 82  1  0
 83 81  1  0
 85 88  1  0
 86 90  1  0
 86 85  1  0
 87 86  2  0
 90 89  1  0
 92 90  1  0
 92 93  1  0
 92 91  1  0
M  ISO  4  13 100  14 100  52 101  53 101
M  END
>  <TORSDO>  (31) 
F 25

>  <SCORE>  (31) 
-12.377

>  <name>  (31) 
30

>  <ligand_id>  (31) 
30

>  <original_smiles>  (31) 
[H]c1c([H])c([H])c2c(c1[H])C([H])([H])C([H])([H])C([H])([H])C2([H])N([H])C(=O)C1([H])N(C(=O)C([H])(N([H])C(=O)C([H])(N([H])C([H])([H])[H])C([H])([H])[H])C(C([H])([H])[H])(C([H])([H])[H])C([H])([H])[H])C([H])([H])c2c([H])c(OC([H])([H])C([H])([H])C([H])([H])C([H])(C([H])(C([H])([H])[H])C([H])([H])[H])[N+]([H])([H])C([H])(C([H])([H])C([H])([H])[H])C([H])(C([H])([H])[H])C([H])([H])C(=O)N3C([H])([H])C([H])([H])C([H])([H])C([H])(n4nc(-c5c([H])c([H])c(Oc6c([H])c([H])c(F)c([H])c6F)c([H])c5[H])c(C(=O)N([H])[H])c4N([H])[H])C3([H])[H])c([H])c([H])c2C1([H])[H]

>  <smiles>  (31) 
[H]c1c([H])c([H])c2c(c1[H])C([H])([H])C([H])([H])C([H])([H])C2([H])N([H])C(=O)C1([H])N(C(=O)C([H])(N([H])C(=O)C([H])(N([H])C([H])([H])[H])C([H])([H])[H])C(C([H])([H])[H])(C([H])([H])[H])C([H])([H])[H])C([H])([H])c2c([H])c(OC([H])([H])C([H])([H])C([H])([H])C([H])(C([H])(C([H])([H])[H])C([H])([H])[H])[N+]([H])([H])C([H])(C([H])([H])C([H])([H])[H])C([H])(C([H])([H])[H])C([H])([H])C(=O)N3C([H])([H])C([H])([H])C([H])([H])C([H])(n4nc(-c5c([H])c([H])c(Oc6c([H])c([H])c(F)c([H])c6F)c([H])c5[H])c(C(=O)N([H])[H])c4N([H])[H])C3([H])[H])c([H])c([H])c2C1([H])[H]

$$$$
31:0:0
     RDKit          3D

 98107  0  0  1  0  0  0  0  0999 V2000
  -27.8970  -21.9500   22.2450 C   0  0  0  0  0  2  0  0  0  0  0  0
  -29.6530  -23.5560   22.7970 C   0  0  0  0  0  2  0  0  0  0  0  0
  -27.2940  -22.8660   21.1540 C   0  0  0  0  0  2  0  0  0  0  0  0
  -28.8490  -24.6090   21.9860 C   0  0  0  0  0  2  0  0  0  0  0  0
  -29.3350  -22.1770   22.4060 N   0  0  0  0  0  0  0  0  0  0  0  0
  -28.1770  -24.0140   20.7960 N   0  0  2  0  0  4  0  0  0  0  0  0
  -28.9200  -23.5970   20.2540 H   0  0  0  0  0  0  0  0  0  0  0  0
  -31.8720  -21.4410   19.7360 C   0  0  0  0  0  3  0  0  0  0  0  0
  -31.0890  -22.1590   20.6580 C   0  0  0  0  0  3  0  0  0  0  0  0
  -31.7590  -20.0420   19.6440 C   0  0  0  0  0  3  0  0  0  0  0  0
  -30.0750  -20.0770   21.4010 C   0  0  0  0  0  3  0  0  0  0  0  0
  -30.1690  -21.4850   21.4970 C   0  0  0  0  0  0  0  0  0  0  0  0
  -30.8690  -19.3460   20.4920 C   0  0  0  0  0  0  0  0  0  0  0  0
  -30.7500  -17.9500   20.4630 N   0  0  0  0  0  0  0  0  0  0  0  0
  -30.0630  -17.5210   21.0770 H   0  0  0  0  0  0  0  0  0  0  0  0
  -31.9500  -17.1590   20.2190 C   0  0  0  0  0  2  0  0  0  0  0  0
  -31.9500  -15.8710   21.0530 C   0  0  0  0  0  2  0  0  0  0  0  0
  -31.0330  -14.1380   19.5320 C   0  0  0  0  0  0  0  0  0  0  0  0
  -30.6040  -11.8490   18.7300 C   0  0  0  0  0  2  0  0  0  0  0  0
  -29.5280  -11.7620   17.6370 C   0  0  0  0  0  2  0  0  0  0  0  0
  -28.1290  -11.6490   18.2660 C   0  0  0  0  0  2  0  0  0  0  0  0
  -27.8750  -12.7400   19.3380 C   0  0  0  0  0  3  0  0  0  0  0  0
  -29.0440  -12.8170   20.3430 C   0  0  0  0  0  2  0  0  0  0  0  0
  -30.3040  -12.9970   19.5970 N   0  0  0  0  0  0  0  0  0  0  0  0
  -31.8660  -14.3650   18.6490 O   0  0  0  0  0  0  0  0  0  0  0  0
  -30.9430  -14.9020   20.6250 N   0  0  0  0  0  0  0  0  0  0  0  0
  -30.2620  -14.6180   21.3130 H   0  0  0  0  0  0  0  0  0  0  0  0
  -25.6750  -13.4630   20.4670 C   0  0  0  0  0  0  0  0  0  0  0  0
  -24.6200  -12.7410   20.9570 C   0  0  0  0  0  0  0  0  0  0  0  0
  -24.9580  -11.3670   20.7650 C   0  0  0  0  0  0  0  0  0  0  0  0
  -26.5960  -12.5300   20.0140 N   0  0  0  0  0  0  0  0  0  0  0  0
  -26.1750  -11.2600   20.2460 N   0  0  0  0  0  0  0  0  0  0  0  0
  -24.1700  -10.1490   20.9910 C   0  0  0  0  0  0  0  0  0  0  0  0
  -24.5870   -9.1580   21.9080 C   0  0  0  0  0  3  0  0  0  0  0  0
  -23.8030   -8.0040   22.1220 C   0  0  0  0  0  3  0  0  0  0  0  0
  -22.5880   -7.8330   21.4180 C   0  0  0  0  0  0  0  0  0  0  0  0
  -22.1880   -8.8100   20.4900 C   0  0  0  0  0  3  0  0  0  0  0  0
  -22.9720   -9.9550   20.2740 C   0  0  0  0  0  3  0  0  0  0  0  0
  -21.7740   -6.7320   21.5420 O   0  0  0  0  0  0  0  0  0  0  0  0
  -21.6460   -6.0620   22.7330 C   0  0  0  0  0  0  0  0  0  0  0  0
  -21.1690   -6.6990   23.9000 C   0  0  0  0  0  3  0  0  0  0  0  0
  -20.9880   -5.9560   25.0820 C   0  0  0  0  0  3  0  0  0  0  0  0
  -21.2710   -4.5780   25.1000 C   0  0  0  0  0  0  0  0  0  0  0  0
  -21.7410   -3.9400   23.9380 C   0  0  0  0  0  3  0  0  0  0  0  0
  -21.9240   -4.6800   22.7570 C   0  0  0  0  0  0  0  0  0  0  0  0
  -22.3570   -4.0570   21.6350 F   0  0  0  0  0  0  0  0  0  0  0  0
  -21.0900   -3.8620   26.2340 F   0  0  0  0  0  0  0  0  0  0  0  0
  -23.3270  -13.2940   21.4870 C   0  0  0  0  0  0  0  0  0  0  0  0
  -22.7060  -12.5990   22.4320 N   0  0  0  0  0  0  0  0  0  0  0  0
  -22.8870  -14.3760   21.0980 O   0  0  0  0  0  0  0  0  0  0  0  0
  -23.0780  -11.7220   22.7660 H   0  0  0  0  0  0  0  0  0  0  0  0
  -21.8450  -12.9490   22.8280 H   0  0  0  0  0  0  0  0  0  0  0  0
  -25.9230  -14.8270   20.3520 N   0  0  0  0  0  0  0  0  0  0  0  0
  -25.2420  -15.5270   20.6270 H   0  0  0  0  0  0  0  0  0  0  0  0
  -26.7550  -15.2250   19.9340 H   0  0  0  0  0  0  0  0  0  0  0  0
  -27.4770  -24.9950   19.9250 C   0  0  0  0  0  2  0  0  0  0  0  0
  -28.3800  -26.1080   19.3380 C   0  0  0  0  0  2  0  0  0  0  0  0
  -27.7590  -26.7770   18.2360 O   0  0  0  0  0  0  0  0  0  0  0  0
  -24.6590  -31.1880   22.8740 C   0  0  0  0  0  0  0  0  0  0  0  0
  -26.6540  -27.5130   18.5750 C   0  0  0  0  0  0  0  0  0  0  0  0
  -23.1760  -30.1900   21.1650 C   0  0  0  0  0  3  0  0  0  0  0  0
  -24.3500  -28.9840   19.2500 C   0  0  0  0  0  0  0  0  0  0  0  0
  -25.6600  -30.5590   20.6840 C   0  0  0  0  0  2  0  0  0  0  0  0
  -25.5960  -29.3570   19.7700 C   0  0  0  0  0  0  0  0  0  0  0  0
  -26.7540  -28.6220   19.4390 C   0  0  0  0  0  3  0  0  0  0  0  0
  -25.4000  -27.1620   18.0360 C   0  0  0  0  0  3  0  0  0  0  0  0
  -24.2420  -27.8820   18.3840 C   0  0  0  0  0  3  0  0  0  0  0  0
  -23.1600  -29.8230   19.6580 C   0  0  0  0  0  2  0  0  0  0  0  0
  -24.5240  -30.6470   21.6310 N   0  0  0  0  0  0  0  0  0  0  0  0
  -23.6770  -31.3490   23.6110 O   0  0  0  0  0  0  0  0  0  0  0  0
  -22.6230  -28.9910   21.9690 C   0  0  0  0  0  0  0  0  0  0  0  0
  -21.2960  -28.7950   21.9110 N   0  0  0  0  0  0  0  0  0  0  0  0
  -23.3810  -28.2490   22.6000 O   0  0  0  0  0  0  0  0  0  0  0  0
  -20.7440  -29.4510   21.3760 H   0  0  0  0  0  0  0  0  0  0  0  0
  -18.0130  -27.3380   22.2990 C   0  0  0  0  0  0  0  0  0  0  0  0
  -20.5570  -27.7110   22.5580 C   0  0  0  0  0  3  0  0  0  0  0  0
  -20.7290  -26.3830   21.7850 C   0  0  0  0  0  2  0  0  0  0  0  0
  -19.6210  -26.1370   20.7560 C   0  0  0  0  0  2  0  0  0  0  0  0
  -18.2500  -26.1080   21.4380 C   0  0  0  0  0  2  0  0  0  0  0  0
  -19.0960  -28.1000   22.8100 C   0  0  0  0  0  0  0  0  0  0  0  0
  -18.8210  -29.2560   23.5740 C   0  0  0  0  0  3  0  0  0  0  0  0
  -17.4940  -29.6480   23.8310 C   0  0  0  0  0  3  0  0  0  0  0  0
  -16.4250  -28.8810   23.3360 C   0  0  0  0  0  3  0  0  0  0  0  0
  -16.6860  -27.7270   22.5760 C   0  0  0  0  0  3  0  0  0  0  0  0
  -26.0460  -31.6540   23.4190 C   0  0  0  0  0  3  0  0  0  0  0  0
  -25.8360  -32.9120   24.1440 N   0  0  0  0  0  0  0  0  0  0  0  0
  -26.1550  -34.1250   23.6710 C   0  0  0  0  0  0  0  0  0  0  0  0
  -26.7310  -34.2930   22.5920 O   0  0  0  0  0  0  0  0  0  0  0  0
  -25.3200  -32.8570   25.0100 H   0  0  0  0  0  0  0  0  0  0  0  0
  -24.5220  -36.0170   23.9430 C   0  0  0  0  0  1  0  0  0  0  0  0
  -25.7740  -35.3450   24.5300 C   0  0  0  0  0  3  0  0  0  0  0  0
  -27.9940  -35.8610   25.4410 C   0  0  0  0  0  1  0  0  0  0  0  0
  -26.8620  -36.3400   24.6520 N   0  0  0  0  0  0  0  0  0  0  0  0
  -26.5190  -37.1970   25.0770 H   0  0  0  0  0  0  0  0  0  0  0  0
  -26.7410  -30.5810   24.3460 C   0  0  1  0  0  0  0  0  0  0  0  0
  -25.8320  -30.0580   25.4820 C   0  0  0  0  0  1  0  0  0  0  0  0
  -27.2070  -29.3630   23.5140 C   0  0  0  0  0  1  0  0  0  0  0  0
  -28.0110  -31.1890   24.9880 C   0  0  0  0  0  1  0  0  0  0  0  0
  1  5  1  0
  3  1  1  0
  4  2  1  0
  5  2  1  0
  6  3  1  0
  6  4  1  0
  6  7  1  6
  8  9  1  0
  9 12  2  0
 10  8  2  0
 10 13  1  0
 11 12  1  0
 12  5  1  0
 13 11  2  0
 14 13  1  0
 14 15  1  0
 16 14  1  0
 16 17  1  0
 18 24  1  0
 18 26  1  0
 19 24  1  0
 20 21  1  0
 20 19  1  0
 22 21  1  0
 22 31  1  0
 22 23  1  0
 24 23  1  0
 25 18  2  0
 26 17  1  0
 26 27  1  0
 28 29  2  0
 29 48  1  0
 30 29  1  0
 30 33  1  0
 31 32  1  0
 31 28  1  0
 32 30  2  0
 33 34  1  0
 34 35  2  0
 36 39  1  0
 36 35  1  0
 37 36  2  0
 38 37  1  0
 38 33  2  0
 39 40  1  0
 40 45  2  0
 40 41  1  0
 41 42  2  0
 42 43  1  0
 43 47  1  0
 44 43  2  0
 45 44  1  0
 46 45  1  0
 48 49  1  0
 49 51  1  0
 49 52  1  0
 50 48  2  0
 53 28  1  0
 53 54  1  0
 55 53  1  0
 56  6  1  0
 57 56  1  0
 58 60  1  0
 58 57  1  0
 59 70  2  0
 60 65  1  0
 61 69  1  0
 61 71  1  0
 62 68  1  0
 62 64  1  0
 63 69  1  0
 64 63  1  0
 65 64  2  0
 66 67  1  0
 66 60  2  0
 67 62  2  0
 68 61  1  0
 69 59  1  0
 71 73  2  0
 72 71  1  0
 74 72  1  0
 75 84  2  0
 75 80  1  0
 76 72  1  0
 76 80  1  0
 77 76  1  0
 78 79  1  0
 78 77  1  0
 79 75  1  0
 80 81  2  0
 81 82  1  0
 83 82  2  0
 84 83  1  0
 85 59  1  0
 85 86  1  0
 85 95  1  0
 86 89  1  0
 87 86  1  0
 87 91  1  0
 88 87  2  0
 91 90  1  0
 91 93  1  0
 93 94  1  0
 93 92  1  0
 95 98  1  1
 95 96  1  0
 97 95  1  0
M  ISO  4  18 100  26 100  57 101  58 101
M  END
>  <TORSDO>  (32) 
F 22

>  <SCORE>  (32) 
-9.869

>  <name>  (32) 
31

>  <ligand_id>  (32) 
31

>  <original_smiles>  (32) 
[H]c1c([H])c(N([H])C([H])([H])C([H])([H])N([H])C(=O)N2C([H])([H])C([H])([H])C([H])([H])C([H])(n3nc(-c4c([H])c([H])c(Oc5c([H])c([H])c(F)c([H])c5F)c([H])c4[H])c(C(=O)N([H])[H])c3N([H])[H])C2([H])[H])c([H])c(N2C([H])([H])C([H])([H])[N+]([H])(C([H])([H])C([H])([H])Oc3c([H])c([H])c4c(c3[H])C([H])([H])N(C(=O)C([H])(N([H])C(=O)C([H])(N([H])C([H])([H])[H])C([H])([H])[H])C(C([H])([H])[H])(C([H])([H])[H])C([H])([H])[H])C([H])(C(=O)N([H])C3([H])c5c([H])c([H])c([H])c([H])c5C([H])([H])C([H])([H])C3([H])[H])C4([H])[H])C([H])([H])C2([H])[H])c1[H]

>  <smiles>  (32) 
[H]c1c([H])c(N([H])C([H])([H])C([H])([H])N([H])C(=O)N2C([H])([H])C([H])([H])C([H])([H])C([H])(n3nc(-c4c([H])c([H])c(Oc5c([H])c([H])c(F)c([H])c5F)c([H])c4[H])c(C(=O)N([H])[H])c3N([H])[H])C2([H])[H])c([H])c(N2C([H])([H])C([H])([H])[N+]([H])(C([H])([H])C([H])([H])Oc3c([H])c([H])c4c(c3[H])C([H])([H])N(C(=O)C([H])(N([H])C(=O)C([H])(N([H])C([H])([H])[H])C([H])([H])[H])C(C([H])([H])[H])(C([H])([H])[H])C([H])([H])[H])C([H])(C(=O)N([H])C3([H])c5c([H])c([H])c([H])c([H])c5C([H])([H])C([H])([H])C3([H])[H])C4([H])[H])C([H])([H])C2([H])[H])c1[H]

$$$$
32:0:0
     RDKit          3D

 89 96  0  0  1  0  0  0  0  0999 V2000
  -29.3090  -21.5440   20.0580 N   0  0  0  0  0  4  0  0  0  0  0  0
  -29.8530  -21.7370   19.2340 H   0  0  0  0  0  0  0  0  0  0  0  0
  -29.9640  -21.6080   20.8230 H   0  0  0  0  0  0  0  0  0  0  0  0
  -28.2920  -22.8310   20.2110 C   0  0  0  0  0  2  0  0  0  0  0  0
  -28.5940  -24.5180   19.8120 C   0  0  0  0  0  2  0  0  0  0  0  0
  -28.2750  -26.0090   20.3620 O   0  0  0  0  0  0  0  0  0  0  0  0
  -24.6350  -31.8480   23.2010 C   0  0  0  0  0  0  0  0  0  0  0  0
  -27.2090  -27.0080   20.2040 C   0  0  0  0  0  0  0  0  0  0  0  0
  -23.4360  -30.4400   21.5730 C   0  0  0  0  0  3  0  0  0  0  0  0
  -24.8850  -28.8250   20.1550 C   0  0  0  0  0  0  0  0  0  0  0  0
  -25.9940  -30.6630   21.4190 C   0  0  0  0  0  2  0  0  0  0  0  0
  -26.0610  -29.2510   20.7780 C   0  0  0  0  0  0  0  0  0  0  0  0
  -27.2080  -28.3560   20.7890 C   0  0  0  0  0  3  0  0  0  0  0  0
  -26.0070  -26.7100   19.5250 C   0  0  0  0  0  3  0  0  0  0  0  0
  -24.8780  -27.5760   19.5080 C   0  0  0  0  0  3  0  0  0  0  0  0
  -23.6560  -29.7370   20.2050 C   0  0  0  0  0  2  0  0  0  0  0  0
  -24.7100  -31.0090   22.1190 N   0  0  0  0  0  0  0  0  0  0  0  0
  -23.5460  -32.1450   23.7210 O   0  0  0  0  0  0  0  0  0  0  0  0
  -22.7470  -29.4510   22.5490 C   0  0  0  0  0  0  0  0  0  0  0  0
  -21.4180  -29.2840   22.4240 N   0  0  0  0  0  0  0  0  0  0  0  0
  -23.4120  -28.8310   23.3840 O   0  0  0  0  0  0  0  0  0  0  0  0
  -20.9350  -29.8320   21.7250 H   0  0  0  0  0  0  0  0  0  0  0  0
  -18.0320  -28.0940   22.9450 C   0  0  0  0  0  0  0  0  0  0  0  0
  -20.5910  -28.3590   23.2090 C   0  0  0  0  0  3  0  0  0  0  0  0
  -20.6900  -26.9220   22.6470 C   0  0  0  0  0  2  0  0  0  0  0  0
  -19.5900  -26.5920   21.6350 C   0  0  0  0  0  2  0  0  0  0  0  0
  -18.2090  -26.7410   22.2770 C   0  0  0  0  0  2  0  0  0  0  0  0
  -19.1490  -28.8620   23.3650 C   0  0  0  0  0  0  0  0  0  0  0  0
  -18.9260  -30.1270   23.9510 C   0  0  0  0  0  3  0  0  0  0  0  0
  -17.6180  -30.6260   24.1130 C   0  0  0  0  0  3  0  0  0  0  0  0
  -16.5160  -29.8550   23.7040 C   0  0  0  0  0  3  0  0  0  0  0  0
  -16.7250  -28.5910   23.1280 C   0  0  0  0  0  3  0  0  0  0  0  0
  -25.9080  -32.4940   23.8260 C   0  0  0  0  0  3  0  0  0  0  0  0
  -25.5930  -33.8920   24.1670 N   0  0  0  0  0  0  0  0  0  0  0  0
  -25.9140  -34.9550   23.4160 C   0  0  0  0  0  0  0  0  0  0  0  0
  -26.5740  -34.8610   22.3790 O   0  0  0  0  0  0  0  0  0  0  0  0
  -25.0070  -34.0360   24.9780 H   0  0  0  0  0  0  0  0  0  0  0  0
  -24.1810  -36.7500   23.0810 C   0  0  0  0  0  1  0  0  0  0  0  0
  -25.4260  -36.3410   23.8850 C   0  0  0  0  0  3  0  0  0  0  0  0
  -27.5640  -37.2270   24.7110 C   0  0  0  0  0  1  0  0  0  0  0  0
  -26.4560  -37.3980   23.7730 N   0  0  0  0  0  0  0  0  0  0  0  0
  -26.0510  -38.3170   23.9270 H   0  0  0  0  0  0  0  0  0  0  0  0
  -26.4220  -31.7280   25.1070 C   0  0  1  0  0  0  0  0  0  0  0  0
  -25.3250  -31.4950   26.1740 C   0  0  0  0  0  1  0  0  0  0  0  0
  -27.0030  -30.3500   24.7200 C   0  0  0  0  0  1  0  0  0  0  0  0
  -27.5750  -32.5170   25.7690 C   0  0  0  0  0  1  0  0  0  0  0  0
  -28.9240  -19.9530   19.9200 C   0  0  0  0  0  2  0  0  0  0  0  0
  -29.9160  -18.4980   20.1970 C   0  0  0  0  0  3  0  0  0  0  0  0
  -29.8790  -18.3610   21.6500 N   0  0  0  0  0  0  0  0  0  0  0  0
  -30.6740  -17.8190   21.9750 H   0  0  0  0  0  0  0  0  0  0  0  0
  -29.0830  -17.7620   21.8670 H   0  0  0  0  0  0  0  0  0  0  0  0
  -28.1960  -16.6470   19.4190 C   0  0  0  0  0  1  0  0  0  0  0  0
  -29.6980  -16.8340   19.5970 C   0  0  0  0  0  3  0  0  0  0  0  0
  -30.4770  -15.2610   19.7900 C   0  0  0  0  0  0  0  0  0  0  0  0
  -30.3560  -12.8190   18.9540 C   0  0  0  0  0  2  0  0  0  0  0  0
  -29.3460  -12.6620   17.7930 C   0  0  0  0  0  2  0  0  0  0  0  0
  -27.9400  -12.3590   18.3550 C   0  0  0  0  0  2  0  0  0  0  0  0
  -27.5560  -13.3330   19.4810 C   0  0  0  0  0  3  0  0  0  0  0  0
  -28.6890  -13.4940   20.5320 C   0  0  0  0  0  2  0  0  0  0  0  0
  -29.9000  -13.9590   19.8340 N   0  0  0  0  0  0  0  0  0  0  0  0
  -31.6950  -15.2010   19.5630 O   0  0  0  0  0  0  0  0  0  0  0  0
  -25.2320  -13.9210   20.3880 C   0  0  0  0  0  0  0  0  0  0  0  0
  -24.1950  -13.1530   20.8210 C   0  0  0  0  0  0  0  0  0  0  0  0
  -24.6510  -11.7970   20.7530 C   0  0  0  0  0  0  0  0  0  0  0  0
  -26.2620  -13.0380   20.0840 N   0  0  0  0  0  0  0  0  0  0  0  0
  -25.9260  -11.7580   20.3870 N   0  0  0  0  0  0  0  0  0  0  0  0
  -23.9260  -10.5400   20.9600 C   0  0  0  0  0  0  0  0  0  0  0  0
  -24.3940   -9.5600   21.8630 C   0  0  0  0  0  3  0  0  0  0  0  0
  -23.6680   -8.3670   22.0630 C   0  0  0  0  0  3  0  0  0  0  0  0
  -22.4630   -8.1490   21.3530 C   0  0  0  0  0  0  0  0  0  0  0  0
  -22.0210   -9.1120   20.4290 C   0  0  0  0  0  3  0  0  0  0  0  0
  -22.7460  -10.2990   20.2270 C   0  0  0  0  0  3  0  0  0  0  0  0
  -21.6980   -7.0110   21.4630 O   0  0  0  0  0  0  0  0  0  0  0  0
  -21.6700   -6.2660   22.6160 C   0  0  0  0  0  0  0  0  0  0  0  0
  -21.2690   -6.8240   23.8490 C   0  0  0  0  0  3  0  0  0  0  0  0
  -21.1870   -6.0110   24.9970 C   0  0  0  0  0  3  0  0  0  0  0  0
  -21.4920   -4.6400   24.9160 C   0  0  0  0  0  0  0  0  0  0  0  0
  -21.8800   -4.0800   23.6860 C   0  0  0  0  0  3  0  0  0  0  0  0
  -21.9680   -4.8890   22.5390 C   0  0  0  0  0  0  0  0  0  0  0  0
  -22.3240   -4.3370   21.3550 F   0  0  0  0  0  0  0  0  0  0  0  0
  -21.4100   -3.8590   26.0190 F   0  0  0  0  0  0  0  0  0  0  0  0
  -22.8150  -13.6280   21.1820 C   0  0  0  0  0  0  0  0  0  0  0  0
  -22.1450  -12.9260   22.0810 N   0  0  0  0  0  0  0  0  0  0  0  0
  -22.3460  -14.6580   20.6980 O   0  0  0  0  0  0  0  0  0  0  0  0
  -22.5540  -12.0850   22.4590 H   0  0  0  0  0  0  0  0  0  0  0  0
  -21.2250  -13.2180   22.3820 H   0  0  0  0  0  0  0  0  0  0  0  0
  -25.3690  -15.2970   20.1900 N   0  0  0  0  0  0  0  0  0  0  0  0
  -24.5910  -15.9460   20.2720 H   0  0  0  0  0  0  0  0  0  0  0  0
  -26.1760  -15.7190   19.7500 H   0  0  0  0  0  0  0  0  0  0  0  0
  1  4  1  0
  1  3  1  0
  2  1  1  0
  5  4  1  0
  5  6  1  0
  7 18  2  0
  8  6  1  0
  8 13  1  0
  9 17  1  0
  9 19  1  0
 10 16  1  0
 10 12  1  0
 11 17  1  0
 12 13  2  0
 12 11  1  0
 14  8  2  0
 15 14  1  0
 15 10  2  0
 16  9  1  0
 17  7  1  0
 19 21  2  0
 20 19  1  0
 22 20  1  0
 23 32  2  0
 23 28  1  0
 24 20  1  0
 24 28  1  0
 25 24  1  0
 26 27  1  0
 26 25  1  0
 27 23  1  0
 28 29  2  0
 29 30  1  0
 31 30  2  0
 32 31  1  0
 33  7  1  0
 33 34  1  0
 33 43  1  0
 34 37  1  0
 35 39  1  0
 35 34  1  0
 36 35  2  0
 39 38  1  0
 41 39  1  0
 41 42  1  0
 41 40  1  0
 43 46  1  1
 43 44  1  0
 45 43  1  0
 47  1  1  0
 48 47  1  0
 48 49  1  0
 49 51  1  0
 49 50  1  0
 53 52  1  0
 53 54  1  0
 53 48  1  0
 54 60  1  0
 55 60  1  0
 56 57  1  0
 56 55  1  0
 58 57  1  0
 58 65  1  0
 58 59  1  0
 60 59  1  0
 61 54  2  0
 62 63  2  0
 63 82  1  0
 64 63  1  0
 64 67  1  0
 65 66  1  0
 65 62  1  0
 66 64  2  0
 67 68  1  0
 68 69  2  0
 70 73  1  0
 70 69  1  0
 71 70  2  0
 72 71  1  0
 72 67  2  0
 73 74  1  0
 74 75  1  0
 75 76  2  0
 77 76  1  0
 77 81  1  0
 78 77  2  0
 79 74  2  0
 79 78  1  0
 80 79  1  0
 82 83  1  0
 83 86  1  0
 83 85  1  0
 84 82  2  0
 87 88  1  0
 87 62  1  0
 89 87  1  0
M  ISO  4   5 101   6 101  53 100  54 100
M  END
>  <TORSDO>  (33) 
F 22

>  <SCORE>  (33) 
-15.571

>  <name>  (33) 
32

>  <ligand_id>  (33) 
32

>  <original_smiles>  (33) 
[H]c1c([H])c([H])c2c(c1[H])C([H])([H])C([H])([H])C([H])([H])C2([H])N([H])C(=O)C1([H])N(C(=O)C([H])(N([H])C(=O)C([H])(N([H])C([H])([H])[H])C([H])([H])[H])C(C([H])([H])[H])(C([H])([H])[H])C([H])([H])[H])C([H])([H])c2c([H])c(OC([H])([H])C([H])([H])[N+]([H])([H])C([H])([H])C([H])(N([H])[H])C([H])(C(=O)N3C([H])([H])C([H])([H])C([H])([H])C([H])(n4nc(-c5c([H])c([H])c(Oc6c([H])c([H])c(F)c([H])c6F)c([H])c5[H])c(C(=O)N([H])[H])c4N([H])[H])C3([H])[H])C([H])([H])[H])c([H])c([H])c2C1([H])[H]

>  <smiles>  (33) 
[H]c1c([H])c([H])c2c(c1[H])C([H])([H])C([H])([H])C([H])([H])C2([H])N([H])C(=O)C1([H])N(C(=O)C([H])(N([H])C(=O)C([H])(N([H])C([H])([H])[H])C([H])([H])[H])C(C([H])([H])[H])(C([H])([H])[H])C([H])([H])[H])C([H])([H])c2c([H])c(OC([H])([H])C([H])([H])[N+]([H])([H])C([H])([H])C([H])(N([H])[H])C([H])(C(=O)N3C([H])([H])C([H])([H])C([H])([H])C([H])(n4nc(-c5c([H])c([H])c(Oc6c([H])c([H])c(F)c([H])c6F)c([H])c5[H])c(C(=O)N([H])[H])c4N([H])[H])C3([H])[H])C([H])([H])[H])c([H])c([H])c2C1([H])[H]

$$$$
33:0:0
     RDKit          3D

 94101  0  0  1  0  0  0  0  0999 V2000
  -29.4020  -20.6550   20.1070 C   0  0  0  0  0  3  0  0  0  0  0  0
  -30.8530  -20.9140   20.0920 N   0  0  0  0  0  4  0  0  0  0  0  0
  -31.0560  -21.7600   19.5910 H   0  0  0  0  0  0  0  0  0  0  0  0
  -31.3440  -20.1660   19.6320 H   0  0  0  0  0  0  0  0  0  0  0  0
  -31.2130  -21.0010   21.0260 H   0  0  0  0  0  0  0  0  0  0  0  0
  -28.6350  -22.0020   20.7030 C   0  0  0  0  0  2  0  0  0  0  0  0
  -28.9320  -23.5590   20.2010 C   0  0  0  0  0  3  0  0  0  0  0  0
  -27.9990  -24.8520   20.6370 C   0  0  0  0  0  3  0  0  0  0  0  0
  -28.2780  -26.3260   20.3140 O   0  0  0  0  0  0  0  0  0  0  0  0
  -24.5770  -31.9230   23.2680 C   0  0  0  0  0  0  0  0  0  0  0  0
  -27.2040  -27.2650   20.2680 C   0  0  0  0  0  0  0  0  0  0  0  0
  -23.3930  -30.5140   21.6250 C   0  0  0  0  0  3  0  0  0  0  0  0
  -24.8610  -28.9520   20.2150 C   0  0  0  0  0  0  0  0  0  0  0  0
  -25.9410  -30.8130   21.4670 C   0  0  0  0  0  2  0  0  0  0  0  0
  -26.0290  -29.4210   20.8300 C   0  0  0  0  0  0  0  0  0  0  0  0
  -27.2030  -28.5890   20.8440 C   0  0  0  0  0  3  0  0  0  0  0  0
  -26.0170  -26.8920   19.6010 C   0  0  0  0  0  3  0  0  0  0  0  0
  -24.8620  -27.6980   19.5880 C   0  0  0  0  0  3  0  0  0  0  0  0
  -23.6250  -29.8340   20.2510 C   0  0  0  0  0  2  0  0  0  0  0  0
  -24.6560  -31.1010   22.1770 N   0  0  0  0  0  0  0  0  0  0  0  0
  -23.4860  -32.1980   23.7910 O   0  0  0  0  0  0  0  0  0  0  0  0
  -22.7230  -29.5000   22.5850 C   0  0  0  0  0  0  0  0  0  0  0  0
  -21.4010  -29.3030   22.4400 N   0  0  0  0  0  0  0  0  0  0  0  0
  -23.3950  -28.8910   23.4230 O   0  0  0  0  0  0  0  0  0  0  0  0
  -20.9150  -29.8460   21.7400 H   0  0  0  0  0  0  0  0  0  0  0  0
  -18.0320  -28.0550   22.8980 C   0  0  0  0  0  0  0  0  0  0  0  0
  -20.5810  -28.3610   23.2080 C   0  0  0  0  0  3  0  0  0  0  0  0
  -20.7160  -26.9240   22.6530 C   0  0  0  0  0  2  0  0  0  0  0  0
  -19.6360  -26.5710   21.6240 C   0  0  0  0  0  2  0  0  0  0  0  0
  -18.2410  -26.7020   22.2410 C   0  0  0  0  0  2  0  0  0  0  0  0
  -19.1300  -28.8410   23.3370 C   0  0  0  0  0  0  0  0  0  0  0  0
  -18.8790  -30.1070   23.9110 C   0  0  0  0  0  3  0  0  0  0  0  0
  -17.5620  -30.5870   24.0480 C   0  0  0  0  0  3  0  0  0  0  0  0
  -16.4780  -29.7990   23.6240 C   0  0  0  0  0  3  0  0  0  0  0  0
  -16.7140  -28.5340   23.0540 C   0  0  0  0  0  3  0  0  0  0  0  0
  -25.8480  -32.5670   23.8970 C   0  0  0  0  0  3  0  0  0  0  0  0
  -26.3400  -31.8220   25.1980 C   0  0  1  0  0  0  0  0  0  0  0  0
  -25.2290  -31.6070   26.2520 C   0  0  0  0  0  1  0  0  0  0  0  0
  -26.9280  -30.4370   24.8460 C   0  0  0  0  0  1  0  0  0  0  0  0
  -27.4800  -32.6290   25.8640 C   0  0  0  0  0  1  0  0  0  0  0  0
  -25.5340  -33.9720   24.1970 N   0  0  0  0  0  0  0  0  0  0  0  0
  -25.8830  -35.0140   23.4290 C   0  0  0  0  0  0  0  0  0  0  0  0
  -26.5700  -34.8920   22.4120 O   0  0  0  0  0  0  0  0  0  0  0  0
  -24.9300  -34.1410   24.9880 H   0  0  0  0  0  0  0  0  0  0  0  0
  -24.1760  -36.8140   23.0070 C   0  0  0  0  0  1  0  0  0  0  0  0
  -25.3920  -36.4110   23.8570 C   0  0  0  0  0  3  0  0  0  0  0  0
  -27.5060  -37.2960   24.7380 C   0  0  0  0  0  1  0  0  0  0  0  0
  -26.4340  -37.4570   23.7590 N   0  0  0  0  0  0  0  0  0  0  0  0
  -26.0290  -38.3810   23.8810 H   0  0  0  0  0  0  0  0  0  0  0  0
  -29.1500  -19.1240   20.7170 C   0  0  0  0  0  2  0  0  0  0  0  0
  -29.5930  -17.6730   19.9980 C   0  0  0  0  0  3  0  0  0  0  0  0
  -28.9440  -18.2020   17.5250 C   0  0  0  0  0  1  0  0  0  0  0  0
  -28.6880  -17.3280   18.7650 C   0  0  0  0  0  3  0  0  0  0  0  0
  -27.2410  -17.2870   19.0840 N   0  0  0  0  0  4  0  0  0  0  0  0
  -26.9080  -18.1580   19.4590 H   0  0  0  0  0  0  0  0  0  0  0  0
  -26.9860  -16.5520   19.7300 H   0  0  0  0  0  0  0  0  0  0  0  0
  -26.7170  -17.1030   18.2470 H   0  0  0  0  0  0  0  0  0  0  0  0
  -29.7570  -16.2710   20.8800 C   0  0  0  0  0  2  0  0  0  0  0  0
  -30.5220  -14.9150   20.3600 C   0  0  0  0  0  0  0  0  0  0  0  0
  -30.4070  -12.6110   19.3410 C   0  0  0  0  0  2  0  0  0  0  0  0
  -29.4590  -12.6480   18.1190 C   0  0  0  0  0  2  0  0  0  0  0  0
  -27.9950  -12.4490   18.5560 C   0  0  0  0  0  2  0  0  0  0  0  0
  -27.6170  -13.3220   19.7810 C   0  0  0  0  0  3  0  0  0  0  0  0
  -28.6790  -13.2400   20.8940 C   0  0  0  0  0  2  0  0  0  0  0  0
  -29.9580  -13.6520   20.3030 N   0  0  0  0  0  0  0  0  0  0  0  0
  -31.6770  -15.0370   19.9370 O   0  0  0  0  0  0  0  0  0  0  0  0
  -25.2410  -13.9050   20.5240 C   0  0  0  0  0  0  0  0  0  0  0  0
  -24.1720  -13.1240   20.8760 C   0  0  0  0  0  0  0  0  0  0  0  0
  -24.6380  -11.7730   20.8380 C   0  0  0  0  0  0  0  0  0  0  0  0
  -26.2800  -13.0260   20.2780 N   0  0  0  0  0  0  0  0  0  0  0  0
  -25.9280  -11.7410   20.5300 N   0  0  0  0  0  0  0  0  0  0  0  0
  -23.9170  -10.5070   21.0280 C   0  0  0  0  0  0  0  0  0  0  0  0
  -24.3440   -9.5470   21.9720 C   0  0  0  0  0  3  0  0  0  0  0  0
  -23.6240   -8.3450   22.1460 C   0  0  0  0  0  3  0  0  0  0  0  0
  -22.4630   -8.0950   21.3760 C   0  0  0  0  0  0  0  0  0  0  0  0
  -22.0540   -9.0460   20.4240 C   0  0  0  0  0  3  0  0  0  0  0  0
  -22.7740  -10.2380   20.2490 C   0  0  0  0  0  3  0  0  0  0  0  0
  -21.7140   -6.9450   21.4580 O   0  0  0  0  0  0  0  0  0  0  0  0
  -21.6410   -6.2140   22.6170 C   0  0  0  0  0  0  0  0  0  0  0  0
  -21.1610   -6.7740   23.8210 C   0  0  0  0  0  3  0  0  0  0  0  0
  -21.0370   -5.9690   24.9710 C   0  0  0  0  0  3  0  0  0  0  0  0
  -21.3830   -4.6050   24.9170 C   0  0  0  0  0  0  0  0  0  0  0  0
  -21.8560   -4.0450   23.7170 C   0  0  0  0  0  3  0  0  0  0  0  0
  -21.9810   -4.8480   22.5690 C   0  0  0  0  0  0  0  0  0  0  0  0
  -22.4180   -4.2980   21.4110 F   0  0  0  0  0  0  0  0  0  0  0  0
  -21.2590   -3.8300   26.0200 F   0  0  0  0  0  0  0  0  0  0  0  0
  -22.7750  -13.5950   21.1590 C   0  0  0  0  0  0  0  0  0  0  0  0
  -22.0470  -12.8860   22.0150 N   0  0  0  0  0  0  0  0  0  0  0  0
  -22.3450  -14.6320   20.6580 O   0  0  0  0  0  0  0  0  0  0  0  0
  -22.4130  -12.0470   22.4400 H   0  0  0  0  0  0  0  0  0  0  0  0
  -21.1130  -13.1860   22.2470 H   0  0  0  0  0  0  0  0  0  0  0  0
  -25.4290  -15.2810   20.3920 N   0  0  0  0  0  0  0  0  0  0  0  0
  -24.5080  -15.7100   20.4390 H   0  0  0  0  0  0  0  0  0  0  0  0
  -25.8980  -15.5570   21.2490 H   0  0  0  0  0  0  0  0  0  0  0  0
  1  6  1  0
  1 50  1  0
  2  1  1  0
  2  5  1  0
  3  2  1  0
  4  2  1  0
  7  8  2  0
  7  6  1  0
  9  8  1  0
 10 21  2  0
 11  9  1  0
 11 16  1  0
 12 20  1  0
 12 22  1  0
 13 19  1  0
 13 15  1  0
 14 20  1  0
 15 16  2  0
 15 14  1  0
 17 11  2  0
 18 17  1  0
 18 13  2  0
 19 12  1  0
 20 10  1  0
 22 24  2  0
 23 22  1  0
 25 23  1  0
 26 35  2  0
 26 31  1  0
 27 23  1  0
 27 31  1  0
 28 27  1  0
 29 30  1  0
 29 28  1  0
 30 26  1  0
 31 32  2  0
 32 33  1  0
 34 33  2  0
 35 34  1  0
 36 10  1  0
 36 41  1  0
 36 37  1  0
 37 40  1  1
 37 38  1  0
 39 37  1  0
 41 44  1  0
 42 46  1  0
 42 41  1  0
 43 42  2  0
 46 45  1  0
 48 46  1  0
 48 49  1  0
 48 47  1  0
 51 50  1  0
 51 58  1  0
 53 52  1  0
 53 54  1  0
 53 51  1  0
 54 55  1  0
 54 56  1  0
 57 54  1  0
 59 58  1  0
 60 65  1  0
 61 62  1  0
 61 60  1  0
 63 62  1  0
 63 70  1  0
 63 64  1  0
 65 59  1  0
 65 64  1  0
 66 59  2  0
 67 68  2  0
 68 87  1  0
 69 68  1  0
 69 72  1  0
 70 67  1  0
 70 71  1  0
 71 69  2  0
 72 73  1  0
 73 74  2  0
 75 78  1  0
 75 74  1  0
 76 75  2  0
 77 76  1  0
 77 72  2  0
 78 79  1  0
 79 80  1  0
 80 81  2  0
 82 81  1  0
 82 86  1  0
 83 82  2  0
 84 79  2  0
 84 83  1  0
 85 84  1  0
 87 88  1  0
 88 91  1  0
 88 90  1  0
 89 87  2  0
 92 93  1  0
 92 67  1  0
 92 94  1  0
M  ISO  4   8 101   9 101  58 100  59 100
M  END
>  <TORSDO>  (34) 
F 25

>  <SCORE>  (34) 
-12.415

>  <name>  (34) 
33

>  <ligand_id>  (34) 
33

>  <original_smiles>  (34) 
[H]c1c([H])c([H])c2c(c1[H])C([H])([H])C([H])([H])C([H])([H])C2([H])N([H])C(=O)C1([H])N(C(=O)C([H])(N([H])C(=O)C([H])(N([H])C([H])([H])[H])C([H])([H])[H])C(C([H])([H])[H])(C([H])([H])[H])C([H])([H])[H])C([H])([H])c2c([H])c(OC([H])([H])C([H])([H])C([H])([H])C([H])(C([H])([H])C([H])(C([H])([H])C(=O)N3C([H])([H])C([H])([H])C([H])([H])C([H])(n4nc(-c5c([H])c([H])c(Oc6c([H])c([H])c(F)c([H])c6F)c([H])c5[H])c(C(=O)N([H])[H])c4N([H])[H])C3([H])[H])C([H])(C([H])([H])[H])[N+]([H])([H])[H])[N+]([H])([H])[H])c([H])c([H])c2C1([H])[H]

>  <smiles>  (34) 
[H]c1c([H])c([H])c2c(c1[H])C([H])([H])C([H])([H])C([H])([H])C2([H])N([H])C(=O)C1([H])N(C(=O)C([H])(N([H])C(=O)C([H])(N([H])C([H])([H])[H])C([H])([H])[H])C(C([H])([H])[H])(C([H])([H])[H])C([H])([H])[H])C([H])([H])c2c([H])c(OC([H])([H])C([H])([H])C([H])([H])C([H])(C([H])([H])C([H])(C([H])([H])C(=O)N3C([H])([H])C([H])([H])C([H])([H])C([H])(n4nc(-c5c([H])c([H])c(Oc6c([H])c([H])c(F)c([H])c6F)c([H])c5[H])c(C(=O)N([H])[H])c4N([H])[H])C3([H])[H])C([H])(C([H])([H])[H])[N+]([H])([H])[H])[N+]([H])([H])[H])c([H])c([H])c2C1([H])[H]

$$$$
34:0:0
     RDKit          3D

 96104  0  0  1  0  0  0  0  0999 V2000
  -31.8600  -21.1090   21.6050 C   0  0  0  0  0  2  0  0  0  0  0  0
  -32.0910  -19.3090   19.7930 C   0  0  0  0  0  3  0  0  0  0  0  0
  -31.8670  -17.9960   19.3280 C   0  0  0  0  0  3  0  0  0  0  0  0
  -31.0900  -18.6980   21.9210 C   0  0  0  0  0  3  0  0  0  0  0  0
  -31.6590  -19.6840   21.0820 C   0  0  0  0  0  0  0  0  0  0  0  0
  -30.8840  -17.3700   21.4690 C   0  0  0  0  0  0  0  0  0  0  0  0
  -31.2190  -17.0200   20.1340 C   0  0  0  0  0  0  0  0  0  0  0  0
  -31.4190  -14.6290   19.6470 C   0  0  0  0  0  0  0  0  0  0  0  0
  -30.9540  -12.3990   18.7190 C   0  0  0  0  0  2  0  0  0  0  0  0
  -29.9440  -12.5360   17.5620 C   0  0  0  0  0  2  0  0  0  0  0  0
  -28.4950  -12.5020   18.0940 C   0  0  0  0  0  2  0  0  0  0  0  0
  -28.2530  -13.3930   19.3450 C   0  0  0  0  0  3  0  0  0  0  0  0
  -29.3990  -13.2630   20.3710 C   0  0  0  0  0  2  0  0  0  0  0  0
  -30.6710  -13.4870   19.6660 N   0  0  0  0  0  0  0  0  0  0  0  0
  -32.6070  -14.6190   19.3280 O   0  0  0  0  0  0  0  0  0  0  0  0
  -30.2340  -16.0940   18.1600 C   0  0  0  0  0  1  0  0  0  0  0  0
  -30.7420  -15.8070   19.5170 N   0  0  0  0  0  0  0  0  0  0  0  0
  -25.9340  -14.0650   20.2160 C   0  0  0  0  0  0  0  0  0  0  0  0
  -24.8700  -13.3230   20.6430 C   0  0  0  0  0  0  0  0  0  0  0  0
  -25.2890  -11.9580   20.5810 C   0  0  0  0  0  0  0  0  0  0  0  0
  -26.9390  -13.1550   19.9290 N   0  0  0  0  0  0  0  0  0  0  0  0
  -26.5590  -11.8830   20.2090 N   0  0  0  0  0  0  0  0  0  0  0  0
  -24.5340  -10.7200   20.8070 C   0  0  0  0  0  0  0  0  0  0  0  0
  -24.8730   -9.8300   21.8520 C   0  0  0  0  0  3  0  0  0  0  0  0
  -24.1180   -8.6560   22.0640 C   0  0  0  0  0  3  0  0  0  0  0  0
  -23.0120   -8.3620   21.2310 C   0  0  0  0  0  0  0  0  0  0  0  0
  -22.6930   -9.2400   20.1800 C   0  0  0  0  0  3  0  0  0  0  0  0
  -23.4470  -10.4070   19.9660 C   0  0  0  0  0  3  0  0  0  0  0  0
  -22.2360   -7.2330   21.3490 O   0  0  0  0  0  0  0  0  0  0  0  0
  -21.8320   -6.7620   22.5730 C   0  0  0  0  0  0  0  0  0  0  0  0
  -21.0570   -7.5480   23.4510 C   0  0  0  0  0  3  0  0  0  0  0  0
  -20.6030   -7.0010   24.6670 C   0  0  0  0  0  3  0  0  0  0  0  0
  -20.9110   -5.6690   25.0000 C   0  0  0  0  0  0  0  0  0  0  0  0
  -21.6800   -4.8830   24.1260 C   0  0  0  0  0  3  0  0  0  0  0  0
  -22.1350   -5.4270   22.9120 C   0  0  0  0  0  0  0  0  0  0  0  0
  -22.8560   -4.6580   22.0600 F   0  0  0  0  0  0  0  0  0  0  0  0
  -20.4670   -5.1430   26.1640 F   0  0  0  0  0  0  0  0  0  0  0  0
  -23.5130  -13.8440   21.0190 C   0  0  0  0  0  0  0  0  0  0  0  0
  -22.8490  -13.1950   21.9680 N   0  0  0  0  0  0  0  0  0  0  0  0
  -23.0600  -14.8680   20.5100 O   0  0  0  0  0  0  0  0  0  0  0  0
  -23.2340  -12.3710   22.4080 H   0  0  0  0  0  0  0  0  0  0  0  0
  -21.9460  -13.5300   22.2670 H   0  0  0  0  0  0  0  0  0  0  0  0
  -26.1260  -15.4320   20.0370 N   0  0  0  0  0  0  0  0  0  0  0  0
  -25.4140  -16.0950   20.3240 H   0  0  0  0  0  0  0  0  0  0  0  0
  -27.0640  -15.8200   20.1000 H   0  0  0  0  0  0  0  0  0  0  0  0
  -30.3020  -16.3600   22.4390 C   0  0  0  0  0  2  0  0  0  0  0  0
  -29.1790  -15.6840   21.9190 O   0  0  0  0  0  0  0  0  0  0  0  0
  -28.4350  -16.2700   21.9930 H   0  0  0  0  0  0  0  0  0  0  0  0
  -31.4820  -22.2920   20.6660 C   0  0  0  0  0  2  0  0  0  0  0  0
  -30.1120  -22.1940   19.9460 C   0  0  0  0  0  2  0  0  0  0  0  0
  -27.9960  -23.1870   19.2270 C   0  0  0  0  0  1  0  0  0  0  0  0
  -29.2940  -23.4530   19.8990 N   0  0  2  0  0  4  0  0  0  0  0  0
  -29.0550  -23.6640   20.8600 H   0  0  0  0  0  0  0  0  0  0  0  0
  -30.0070  -24.6590   19.3560 C   0  0  0  0  0  2  0  0  0  0  0  0
  -29.1220  -25.8850   18.9500 C   0  0  0  0  0  2  0  0  0  0  0  0
  -28.7130  -26.6920   20.0690 O   0  0  0  0  0  0  0  0  0  0  0  0
  -24.6660  -31.5660   23.3230 C   0  0  0  0  0  0  0  0  0  0  0  0
  -27.5080  -27.3750   20.0410 C   0  0  0  0  0  0  0  0  0  0  0  0
  -23.5300  -30.2120   21.5940 C   0  0  0  0  0  3  0  0  0  0  0  0
  -25.0520  -28.8000   20.1120 C   0  0  0  0  0  0  0  0  0  0  0  0
  -26.0450  -30.6590   21.4530 C   0  0  0  0  0  2  0  0  0  0  0  0
  -26.1850  -29.3270   20.7440 C   0  0  0  0  0  0  0  0  0  0  0  0
  -27.4080  -28.6160   20.7160 C   0  0  0  0  0  3  0  0  0  0  0  0
  -26.3460  -26.8580   19.4180 C   0  0  0  0  0  3  0  0  0  0  0  0
  -25.1270  -27.5630   19.4530 C   0  0  0  0  0  3  0  0  0  0  0  0
  -23.7800  -29.6140   20.1840 C   0  0  0  0  0  2  0  0  0  0  0  0
  -24.7650  -30.8260   22.1830 N   0  0  0  0  0  0  0  0  0  0  0  0
  -23.5690  -31.7740   23.8590 O   0  0  0  0  0  0  0  0  0  0  0  0
  -22.8990  -29.1220   22.4910 C   0  0  0  0  0  0  0  0  0  0  0  0
  -21.5890  -28.8820   22.3110 N   0  0  0  0  0  0  0  0  0  0  0  0
  -23.5880  -28.4940   23.3000 O   0  0  0  0  0  0  0  0  0  0  0  0
  -21.0940  -29.4450   21.6320 H   0  0  0  0  0  0  0  0  0  0  0  0
  -18.2620  -27.5170   22.6520 C   0  0  0  0  0  0  0  0  0  0  0  0
  -20.7960  -27.8750   23.0170 C   0  0  0  0  0  3  0  0  0  0  0  0
  -20.9810  -26.4780   22.3830 C   0  0  0  0  0  2  0  0  0  0  0  0
  -19.9260  -26.1510   21.3220 C   0  0  0  0  0  2  0  0  0  0  0  0
  -18.5200  -26.2080   21.9270 C   0  0  0  0  0  2  0  0  0  0  0  0
  -19.3310  -28.3090   23.1490 C   0  0  0  0  0  0  0  0  0  0  0  0
  -19.0380  -29.5350   23.7830 C   0  0  0  0  0  3  0  0  0  0  0  0
  -17.7070  -29.9710   23.9290 C   0  0  0  0  0  3  0  0  0  0  0  0
  -16.6520  -29.1760   23.4500 C   0  0  0  0  0  3  0  0  0  0  0  0
  -16.9300  -27.9510   22.8160 C   0  0  0  0  0  3  0  0  0  0  0  0
  -25.9210  -32.2040   23.9920 C   0  0  0  0  0  3  0  0  0  0  0  0
  -25.5870  -33.5980   24.3170 N   0  0  0  0  0  0  0  0  0  0  0  0
  -25.9440  -34.6580   23.5790 C   0  0  0  0  0  0  0  0  0  0  0  0
  -26.6600  -34.5650   22.5770 O   0  0  0  0  0  0  0  0  0  0  0  0
  -24.9590  -33.7450   25.0930 H   0  0  0  0  0  0  0  0  0  0  0  0
  -24.2300  -36.4460   23.1450 C   0  0  0  0  0  1  0  0  0  0  0  0
  -25.4250  -36.0390   24.0210 C   0  0  0  0  0  3  0  0  0  0  0  0
  -27.4970  -36.9320   24.9900 C   0  0  0  0  0  1  0  0  0  0  0  0
  -26.4580  -37.0970   23.9790 N   0  0  0  0  0  0  0  0  0  0  0  0
  -26.0380  -38.0140   24.1020 H   0  0  0  0  0  0  0  0  0  0  0  0
  -26.4020  -31.4290   25.2810 C   0  0  1  0  0  0  0  0  0  0  0  0
  -25.2700  -31.1540   26.2980 C   0  0  0  0  0  1  0  0  0  0  0  0
  -27.0330  -30.0710   24.8960 C   0  0  0  0  0  1  0  0  0  0  0  0
  -27.5040  -32.2430   26.0010 C   0  0  0  0  0  1  0  0  0  0  0  0
  2  5  1  0
  3  2  2  0
  3  7  1  0
  5  1  1  0
  5  4  2  0
  6  4  1  0
  6 46  1  0
  7  6  2  0
  8 14  1  0
  9 14  1  0
 10 11  1  0
 10  9  1  0
 12 11  1  0
 12 21  1  0
 12 13  1  0
 14 13  1  0
 15  8  2  0
 16 17  1  0
 17  8  1  0
 17  7  1  0
 18 19  2  0
 19 38  1  0
 20 19  1  0
 20 23  1  0
 21 22  1  0
 21 18  1  0
 22 20  2  0
 23 24  1  0
 24 25  2  0
 26 29  1  0
 26 25  1  0
 27 26  2  0
 28 27  1  0
 28 23  2  0
 29 30  1  0
 30 35  2  0
 30 31  1  0
 31 32  2  0
 32 33  1  0
 33 37  1  0
 34 33  2  0
 35 34  1  0
 36 35  1  0
 38 39  1  0
 39 42  1  0
 39 41  1  0
 40 38  2  0
 43 45  1  0
 43 18  1  0
 43 44  1  0
 47 48  1  0
 47 46  1  0
 49  1  1  0
 50 49  1  0
 51 52  1  0
 52 50  1  0
 52 53  1  1
 54 52  1  0
 55 54  1  0
 55 56  1  0
 57 68  2  0
 58 56  1  0
 58 63  1  0
 59 67  1  0
 59 69  1  0
 60 66  1  0
 60 62  1  0
 61 67  1  0
 62 61  1  0
 63 62  2  0
 64 65  1  0
 64 58  2  0
 65 60  2  0
 66 59  1  0
 67 57  1  0
 69 71  2  0
 70 69  1  0
 72 70  1  0
 73 82  2  0
 73 78  1  0
 74 70  1  0
 74 78  1  0
 75 74  1  0
 76 77  1  0
 76 75  1  0
 77 73  1  0
 78 79  2  0
 79 80  1  0
 81 80  2  0
 82 81  1  0
 83 57  1  0
 83 84  1  0
 83 93  1  0
 84 87  1  0
 85 89  1  0
 85 84  1  0
 86 85  2  0
 89 88  1  0
 91 89  1  0
 91 92  1  0
 91 90  1  0
 93 96  1  1
 93 94  1  0
 95 93  1  0
M  ISO  4   8 100  17 100  55 101  56 101
M  END
>  <TORSDO>  (35) 
F 24

>  <SCORE>  (35) 
-10.146

>  <name>  (35) 
34

>  <ligand_id>  (35) 
34

>  <original_smiles>  (35) 
[H]OC([H])([H])c1c([H])c(C([H])([H])C([H])([H])C([H])([H])[N+]([H])(C([H])([H])[H])C([H])([H])C([H])([H])Oc2c([H])c([H])c3c(c2[H])C([H])([H])N(C(=O)C([H])(N([H])C(=O)C([H])(N([H])C([H])([H])[H])C([H])([H])[H])C(C([H])([H])[H])(C([H])([H])[H])C([H])([H])[H])C([H])(C(=O)N([H])C2([H])c4c([H])c([H])c([H])c([H])c4C([H])([H])C([H])([H])C2([H])[H])C3([H])[H])c([H])c([H])c1N(C(=O)N1C([H])([H])C([H])([H])C([H])([H])C([H])(n2nc(-c3c([H])c([H])c(Oc4c([H])c([H])c(F)c([H])c4F)c([H])c3[H])c(C(=O)N([H])[H])c2N([H])[H])C1([H])[H])C([H])([H])[H]

>  <smiles>  (35) 
[H]OC([H])([H])c1c([H])c(C([H])([H])C([H])([H])C([H])([H])[N+]([H])(C([H])([H])[H])C([H])([H])C([H])([H])Oc2c([H])c([H])c3c(c2[H])C([H])([H])N(C(=O)C([H])(N([H])C(=O)C([H])(N([H])C([H])([H])[H])C([H])([H])[H])C(C([H])([H])[H])(C([H])([H])[H])C([H])([H])[H])C([H])(C(=O)N([H])C2([H])c4c([H])c([H])c([H])c([H])c4C([H])([H])C([H])([H])C2([H])[H])C3([H])[H])c([H])c([H])c1N(C(=O)N1C([H])([H])C([H])([H])C([H])([H])C([H])(n2nc(-c3c([H])c([H])c(Oc4c([H])c([H])c(F)c([H])c4F)c([H])c3[H])c(C(=O)N([H])[H])c2N([H])[H])C1([H])[H])C([H])([H])[H]

$$$$
35:0:0
     RDKit          3D

 95103  0  0  1  0  0  0  0  0999 V2000
  -29.3560  -22.7590   21.1580 C   0  0  0  0  0  3  0  0  0  0  0  0
  -29.0410  -24.1740   21.2370 C   0  0  0  0  0  3  0  0  0  0  0  0
  -27.8960  -24.0430   19.1770 C   0  0  0  0  0  3  0  0  0  0  0  0
  -28.9900  -21.9070   20.0640 C   0  0  0  0  0  0  0  0  0  0  0  0
  -28.1770  -22.6180   19.1060 C   0  0  0  0  0  0  0  0  0  0  0  0
  -28.3420  -24.9120   20.2270 C   0  0  0  0  0  0  0  0  0  0  0  0
  -27.6640  -21.9320   18.0040 N   0  0  0  0  0  0  0  0  0  0  0  0
  -26.9170  -22.3730   17.4770 H   0  0  0  0  0  0  0  0  0  0  0  0
  -27.5120  -20.9320   18.0830 H   0  0  0  0  0  0  0  0  0  0  0  0
  -31.2230  -20.7440   19.7160 C   0  0  0  0  0  1  0  0  0  0  0  0
  -29.7040  -20.4500   19.7600 C   0  0  0  0  0  3  0  0  0  0  0  0
  -29.4610  -19.0940   20.5140 N   0  0  0  0  0  4  0  0  0  0  0  0
  -28.5270  -19.1490   20.8860 H   0  0  0  0  0  0  0  0  0  0  0  0
  -30.0750  -19.1260   21.3110 H   0  0  0  0  0  0  0  0  0  0  0  0
  -29.6020  -17.6440   19.8790 C   0  0  0  0  0  3  0  0  0  0  0  0
  -29.7640  -18.0130   17.2540 C   0  0  0  0  0  1  0  0  0  0  0  0
  -30.4440  -17.5540   18.5630 C   0  0  0  0  0  2  0  0  0  0  0  0
  -29.8650  -16.3240   20.8700 C   0  0  0  0  0  2  0  0  0  0  0  0
  -30.5920  -14.9090   20.4520 C   0  0  0  0  0  0  0  0  0  0  0  0
  -30.4560  -12.5960   19.4580 C   0  0  0  0  0  2  0  0  0  0  0  0
  -29.5550  -12.6550   18.2020 C   0  0  0  0  0  2  0  0  0  0  0  0
  -28.0750  -12.4800   18.5900 C   0  0  0  0  0  2  0  0  0  0  0  0
  -27.6680  -13.3520   19.8070 C   0  0  0  0  0  3  0  0  0  0  0  0
  -28.6960  -13.2740   20.9520 C   0  0  0  0  0  2  0  0  0  0  0  0
  -29.9950  -13.6600   20.3940 N   0  0  0  0  0  0  0  0  0  0  0  0
  -31.7780  -14.9710   20.1120 O   0  0  0  0  0  0  0  0  0  0  0  0
  -25.2600  -13.9240   20.4600 C   0  0  0  0  0  0  0  0  0  0  0  0
  -24.1910  -13.1470   20.8140 C   0  0  0  0  0  0  0  0  0  0  0  0
  -24.6680  -11.8010   20.8220 C   0  0  0  0  0  0  0  0  0  0  0  0
  -26.3160  -13.0520   20.2670 N   0  0  0  0  0  0  0  0  0  0  0  0
  -25.9670  -11.7690   20.5470 N   0  0  0  0  0  0  0  0  0  0  0  0
  -23.9470  -10.5340   21.0140 C   0  0  0  0  0  0  0  0  0  0  0  0
  -24.3620   -9.5800   21.9700 C   0  0  0  0  0  3  0  0  0  0  0  0
  -23.6360   -8.3810   22.1470 C   0  0  0  0  0  3  0  0  0  0  0  0
  -22.4810   -8.1270   21.3690 C   0  0  0  0  0  0  0  0  0  0  0  0
  -22.0870   -9.0700   20.4030 C   0  0  0  0  0  3  0  0  0  0  0  0
  -22.8130  -10.2590   20.2240 C   0  0  0  0  0  3  0  0  0  0  0  0
  -21.7300   -6.9800   21.4520 O   0  0  0  0  0  0  0  0  0  0  0  0
  -21.6640   -6.2500   22.6110 C   0  0  0  0  0  0  0  0  0  0  0  0
  -21.2100   -6.8140   23.8240 C   0  0  0  0  0  3  0  0  0  0  0  0
  -21.0950   -6.0080   24.9740 C   0  0  0  0  0  3  0  0  0  0  0  0
  -21.4190   -4.6390   24.9120 C   0  0  0  0  0  0  0  0  0  0  0  0
  -21.8610   -4.0750   23.7030 C   0  0  0  0  0  3  0  0  0  0  0  0
  -21.9800   -4.8780   22.5550 C   0  0  0  0  0  0  0  0  0  0  0  0
  -22.3890   -4.3250   21.3880 F   0  0  0  0  0  0  0  0  0  0  0  0
  -21.2990   -3.8620   26.0150 F   0  0  0  0  0  0  0  0  0  0  0  0
  -22.7830  -13.6180   21.0320 C   0  0  0  0  0  0  0  0  0  0  0  0
  -22.0370  -12.9320   21.8910 N   0  0  0  0  0  0  0  0  0  0  0  0
  -22.3510  -14.6280   20.4790 O   0  0  0  0  0  0  0  0  0  0  0  0
  -22.3960  -12.1090   22.3530 H   0  0  0  0  0  0  0  0  0  0  0  0
  -21.0910  -13.2280   22.0840 H   0  0  0  0  0  0  0  0  0  0  0  0
  -25.4210  -15.2910   20.2610 N   0  0  0  0  0  0  0  0  0  0  0  0
  -24.6390  -15.9330   20.3000 H   0  0  0  0  0  0  0  0  0  0  0  0
  -26.2760  -15.7240   19.9350 H   0  0  0  0  0  0  0  0  0  0  0  0
  -28.3120  -26.3720   20.2210 O   0  0  0  0  0  0  0  0  0  0  0  0
  -24.5960  -31.9210   23.2530 C   0  0  0  0  0  0  0  0  0  0  0  0
  -27.1920  -27.2550   20.2160 C   0  0  0  0  0  0  0  0  0  0  0  0
  -23.3990  -30.5180   21.6150 C   0  0  0  0  0  3  0  0  0  0  0  0
  -24.8500  -28.9490   20.1920 C   0  0  0  0  0  0  0  0  0  0  0  0
  -25.9490  -30.7970   21.4550 C   0  0  0  0  0  2  0  0  0  0  0  0
  -26.0200  -29.4110   20.8040 C   0  0  0  0  0  0  0  0  0  0  0  0
  -27.1910  -28.5770   20.8040 C   0  0  0  0  0  3  0  0  0  0  0  0
  -25.9980  -26.8770   19.5720 C   0  0  0  0  0  3  0  0  0  0  0  0
  -24.8480  -27.6960   19.5600 C   0  0  0  0  0  3  0  0  0  0  0  0
  -23.6190  -29.8380   20.2360 C   0  0  0  0  0  2  0  0  0  0  0  0
  -24.6660  -31.1030   22.1600 N   0  0  0  0  0  0  0  0  0  0  0  0
  -23.5100  -32.2050   23.7810 O   0  0  0  0  0  0  0  0  0  0  0  0
  -22.7290  -29.5080   22.5780 C   0  0  0  0  0  0  0  0  0  0  0  0
  -21.4020  -29.3280   22.4480 N   0  0  0  0  0  0  0  0  0  0  0  0
  -23.4030  -28.8890   23.4050 O   0  0  0  0  0  0  0  0  0  0  0  0
  -20.9190  -29.8780   21.7530 H   0  0  0  0  0  0  0  0  0  0  0  0
  -18.0240  -28.1180   22.9410 C   0  0  0  0  0  0  0  0  0  0  0  0
  -20.5820  -28.3910   23.2180 C   0  0  0  0  0  3  0  0  0  0  0  0
  -20.6920  -26.9570   22.6460 C   0  0  0  0  0  2  0  0  0  0  0  0
  -19.5950  -26.6260   21.6300 C   0  0  0  0  0  2  0  0  0  0  0  0
  -18.2090  -26.7660   22.2680 C   0  0  0  0  0  2  0  0  0  0  0  0
  -19.1390  -28.8870   23.3710 C   0  0  0  0  0  0  0  0  0  0  0  0
  -18.9090  -30.1500   23.9600 C   0  0  0  0  0  3  0  0  0  0  0  0
  -17.6020  -30.6450   24.1190 C   0  0  0  0  0  3  0  0  0  0  0  0
  -16.5030  -29.8720   23.7050 C   0  0  0  0  0  3  0  0  0  0  0  0
  -16.7150  -28.6090   23.1230 C   0  0  0  0  0  3  0  0  0  0  0  0
  -25.8740  -32.5600   23.8810 C   0  0  0  0  0  3  0  0  0  0  0  0
  -25.5610  -33.9620   24.1970 N   0  0  0  0  0  0  0  0  0  0  0  0
  -25.9040  -35.0110   23.4350 C   0  0  0  0  0  0  0  0  0  0  0  0
  -26.5820  -34.9010   22.4110 O   0  0  0  0  0  0  0  0  0  0  0  0
  -24.9580  -34.1220   24.9890 H   0  0  0  0  0  0  0  0  0  0  0  0
  -24.1860  -36.8100   23.0590 C   0  0  0  0  0  1  0  0  0  0  0  0
  -25.4170  -36.4020   23.8830 C   0  0  0  0  0  3  0  0  0  0  0  0
  -27.5460  -37.2830   24.7340 C   0  0  0  0  0  1  0  0  0  0  0  0
  -26.4560  -37.4510   23.7770 N   0  0  0  0  0  0  0  0  0  0  0  0
  -26.0520  -38.3750   23.9150 H   0  0  0  0  0  0  0  0  0  0  0  0
  -26.3790  -31.8020   25.1700 C   0  0  1  0  0  0  0  0  0  0  0  0
  -25.2770  -31.5760   26.2320 C   0  0  0  0  0  1  0  0  0  0  0  0
  -26.9630  -30.4190   24.8060 C   0  0  0  0  0  1  0  0  0  0  0  0
  -27.5250  -32.6050   25.8300 C   0  0  0  0  0  1  0  0  0  0  0  0
  1  2  1  0
  3  6  1  0
  4  1  2  0
  5  3  2  0
  5  4  1  0
  6  2  2  0
  7  9  1  0
  7  5  1  0
  8  7  1  0
 11 10  1  0
 11  4  1  0
 11 12  1  0
 12 13  1  0
 12 14  1  0
 15 17  1  0
 15 12  1  0
 15 18  1  0
 16 17  1  0
 19 18  1  0
 20 25  1  0
 21 22  1  0
 21 20  1  0
 23 22  1  0
 23 30  1  0
 23 24  1  0
 25 19  1  0
 25 24  1  0
 26 19  2  0
 27 28  2  0
 28 29  1  0
 28 47  1  0
 29 32  1  0
 30 27  1  0
 30 31  1  0
 31 29  2  0
 32 33  1  0
 33 34  2  0
 35 38  1  0
 35 34  1  0
 36 35  2  0
 37 36  1  0
 37 32  2  0
 38 39  1  0
 39 40  1  0
 40 41  2  0
 42 41  1  0
 42 46  1  0
 43 42  2  0
 44 39  2  0
 44 43  1  0
 45 44  1  0
 47 48  1  0
 48 51  1  0
 48 50  1  0
 49 47  2  0
 52 53  1  0
 52 27  1  0
 54 52  1  0
 55  6  1  0
 56 67  2  0
 57 55  1  0
 57 62  1  0
 58 66  1  0
 58 68  1  0
 59 65  1  0
 59 61  1  0
 60 66  1  0
 61 62  2  0
 61 60  1  0
 63 57  2  0
 64 63  1  0
 64 59  2  0
 65 58  1  0
 66 56  1  0
 68 70  2  0
 69 68  1  0
 71 69  1  0
 72 81  2  0
 72 77  1  0
 73 69  1  0
 73 77  1  0
 74 73  1  0
 75 76  1  0
 75 74  1  0
 76 72  1  0
 77 78  2  0
 78 79  1  0
 80 79  2  0
 81 80  1  0
 82 56  1  0
 82 83  1  0
 82 92  1  0
 83 86  1  0
 84 88  1  0
 84 83  1  0
 85 84  2  0
 88 87  1  0
 90 88  1  0
 90 91  1  0
 90 89  1  0
 92 95  1  1
 92 93  1  0
 94 92  1  0
M  ISO  4   6 101  18 100  19 100  55 101
M  END
>  <TORSDO>  (36) 
F 22

>  <SCORE>  (36) 
-13.252

>  <name>  (36) 
35

>  <ligand_id>  (36) 
35

>  <original_smiles>  (36) 
[H]c1c([H])c([H])c2c(c1[H])C([H])([H])C([H])([H])C([H])([H])C2([H])N([H])C(=O)C1([H])N(C(=O)C([H])(N([H])C(=O)C([H])(N([H])C([H])([H])[H])C([H])([H])[H])C(C([H])([H])[H])(C([H])([H])[H])C([H])([H])[H])C([H])([H])c2c([H])c(Oc3c([H])c([H])c(C([H])(C([H])([H])[H])[N+]([H])([H])C([H])(C([H])([H])C(=O)N4C([H])([H])C([H])([H])C([H])([H])C([H])(n5nc(-c6c([H])c([H])c(Oc7c([H])c([H])c(F)c([H])c7F)c([H])c6[H])c(C(=O)N([H])[H])c5N([H])[H])C4([H])[H])C([H])([H])C([H])([H])[H])c(N([H])[H])c3[H])c([H])c([H])c2C1([H])[H]

>  <smiles>  (36) 
[H]c1c([H])c([H])c2c(c1[H])C([H])([H])C([H])([H])C([H])([H])C2([H])N([H])C(=O)C1([H])N(C(=O)C([H])(N([H])C(=O)C([H])(N([H])C([H])([H])[H])C([H])([H])[H])C(C([H])([H])[H])(C([H])([H])[H])C([H])([H])[H])C([H])([H])c2c([H])c(Oc3c([H])c([H])c(C([H])(C([H])([H])[H])[N+]([H])([H])C([H])(C([H])([H])C(=O)N4C([H])([H])C([H])([H])C([H])([H])C([H])(n5nc(-c6c([H])c([H])c(Oc7c([H])c([H])c(F)c([H])c7F)c([H])c6[H])c(C(=O)N([H])[H])c5N([H])[H])C4([H])[H])C([H])([H])C([H])([H])[H])c(N([H])[H])c3[H])c([H])c([H])c2C1([H])[H]

$$$$
36:0:0
     RDKit          3D

 94101  0  0  1  0  0  0  0  0999 V2000
  -29.4020  -21.9980   20.1160 C   0  0  0  0  0  3  0  0  0  0  0  0
  -29.0240  -20.4490   20.3540 N   0  0  0  0  0  4  0  0  0  0  0  0
  -28.1180  -20.3150   19.9370 H   0  0  0  0  0  0  0  0  0  0  0  0
  -28.8730  -20.3700   21.3470 H   0  0  0  0  0  0  0  0  0  0  0  0
  -29.8620  -19.1240   19.9880 C   0  0  0  0  0  3  0  0  0  0  0  0
  -31.3040  -19.8430   17.9070 C   0  0  0  0  0  1  0  0  0  0  0  0
  -28.8700  -19.4380   17.6130 C   0  0  0  0  0  1  0  0  0  0  0  0
  -30.1030  -19.0440   18.4430 C   0  0  0  0  0  3  0  0  0  0  0  0
  -27.9170  -17.2560   19.9920 C   0  0  0  0  0  1  0  0  0  0  0  0
  -29.2960  -17.6130   20.5520 C   0  0  0  0  0  3  0  0  0  0  0  0
  -30.5680  -15.0690   20.1370 C   0  0  0  0  0  0  0  0  0  0  0  0
  -30.3390  -12.7170   19.1980 C   0  0  0  0  0  2  0  0  0  0  0  0
  -29.3830  -12.6860   17.9830 C   0  0  0  0  0  2  0  0  0  0  0  0
  -27.9330  -12.4790   18.4470 C   0  0  0  0  0  2  0  0  0  0  0  0
  -27.5660  -13.3920   19.6430 C   0  0  0  0  0  3  0  0  0  0  0  0
  -28.6570  -13.4290   20.7400 C   0  0  0  0  0  2  0  0  0  0  0  0
  -29.9190  -13.8280   20.1070 N   0  0  0  0  0  0  0  0  0  0  0  0
  -31.7020  -15.0940   19.6460 O   0  0  0  0  0  0  0  0  0  0  0  0
  -30.8630  -16.4780   22.0460 C   0  0  0  0  0  1  0  0  0  0  0  0
  -30.0900  -16.2400   20.8170 N   0  0  0  0  0  0  0  0  0  0  0  0
  -25.2070  -13.9400   20.4640 C   0  0  0  0  0  0  0  0  0  0  0  0
  -24.1610  -13.1530   20.8610 C   0  0  0  0  0  0  0  0  0  0  0  0
  -24.6290  -11.8090   20.7910 C   0  0  0  0  0  0  0  0  0  0  0  0
  -26.2490  -13.0740   20.1860 N   0  0  0  0  0  0  0  0  0  0  0  0
  -25.9150  -11.7830   20.4500 N   0  0  0  0  0  0  0  0  0  0  0  0
  -23.9040  -10.5450   20.9720 C   0  0  0  0  0  0  0  0  0  0  0  0
  -24.3210   -9.5880   21.9200 C   0  0  0  0  0  3  0  0  0  0  0  0
  -23.5900   -8.3940   22.1010 C   0  0  0  0  0  3  0  0  0  0  0  0
  -22.4260   -8.1550   21.3340 C   0  0  0  0  0  0  0  0  0  0  0  0
  -22.0300   -9.1000   20.3730 C   0  0  0  0  0  3  0  0  0  0  0  0
  -22.7610  -10.2850   20.1890 C   0  0  0  0  0  3  0  0  0  0  0  0
  -21.6640   -7.0160   21.4210 O   0  0  0  0  0  0  0  0  0  0  0  0
  -21.5620   -6.3100   22.5920 C   0  0  0  0  0  0  0  0  0  0  0  0
  -21.0420   -6.8870   23.7720 C   0  0  0  0  0  3  0  0  0  0  0  0
  -20.8890   -6.1010   24.9300 C   0  0  0  0  0  3  0  0  0  0  0  0
  -21.2450   -4.7390   24.9120 C   0  0  0  0  0  0  0  0  0  0  0  0
  -21.7580   -4.1630   23.7360 C   0  0  0  0  0  3  0  0  0  0  0  0
  -21.9120   -4.9450   22.5790 C   0  0  0  0  0  0  0  0  0  0  0  0
  -22.3840   -4.3770   21.4430 F   0  0  0  0  0  0  0  0  0  0  0  0
  -21.0900   -3.9820   26.0230 F   0  0  0  0  0  0  0  0  0  0  0  0
  -22.7760  -13.6350   21.1740 C   0  0  0  0  0  0  0  0  0  0  0  0
  -22.0700  -12.9200   22.0430 N   0  0  0  0  0  0  0  0  0  0  0  0
  -22.3290  -14.6710   20.6860 O   0  0  0  0  0  0  0  0  0  0  0  0
  -22.4440  -12.0800   22.4560 H   0  0  0  0  0  0  0  0  0  0  0  0
  -21.1370  -13.2210   22.2890 H   0  0  0  0  0  0  0  0  0  0  0  0
  -25.3260  -15.3080   20.3000 N   0  0  0  0  0  0  0  0  0  0  0  0
  -24.5510  -15.9380   20.4840 H   0  0  0  0  0  0  0  0  0  0  0  0
  -26.1670  -15.7940   20.0200 H   0  0  0  0  0  0  0  0  0  0  0  0
  -31.6550  -23.3530   20.0930 C   0  0  0  0  0  1  0  0  0  0  0  0
  -30.7860  -22.2690   20.7580 C   0  0  0  0  0  2  0  0  0  0  0  0
  -27.3690  -22.7030   21.5610 C   0  0  0  0  0  1  0  0  0  0  0  0
  -28.2590  -23.2610   20.4200 C   0  0  0  0  0  3  0  0  0  0  0  0
  -28.4870  -24.9170   20.8290 C   0  0  0  0  0  2  0  0  0  0  0  0
  -28.3460  -26.2860   20.1080 O   0  0  0  0  0  0  0  0  0  0  0  0
  -24.5780  -31.8940   23.2180 C   0  0  0  0  0  0  0  0  0  0  0  0
  -27.2370  -27.2040   20.1980 C   0  0  0  0  0  0  0  0  0  0  0  0
  -23.4060  -30.4850   21.5660 C   0  0  0  0  0  3  0  0  0  0  0  0
  -24.8760  -28.9040   20.1710 C   0  0  0  0  0  0  0  0  0  0  0  0
  -25.9570  -30.7700   21.4170 C   0  0  0  0  0  2  0  0  0  0  0  0
  -26.0490  -29.3700   20.7820 C   0  0  0  0  0  0  0  0  0  0  0  0
  -27.2320  -28.5370   20.7750 C   0  0  0  0  0  3  0  0  0  0  0  0
  -26.0360  -26.8280   19.5620 C   0  0  0  0  0  3  0  0  0  0  0  0
  -24.8780  -27.6420   19.5520 C   0  0  0  0  0  3  0  0  0  0  0  0
  -23.6440  -29.7930   20.1980 C   0  0  0  0  0  2  0  0  0  0  0  0
  -24.6670  -31.0760   22.1230 N   0  0  0  0  0  0  0  0  0  0  0  0
  -23.4850  -32.1680   23.7380 O   0  0  0  0  0  0  0  0  0  0  0  0
  -22.7210  -29.4810   22.5290 C   0  0  0  0  0  0  0  0  0  0  0  0
  -21.3940  -29.3070   22.3940 N   0  0  0  0  0  0  0  0  0  0  0  0
  -23.3910  -28.8600   23.3590 O   0  0  0  0  0  0  0  0  0  0  0  0
  -20.9080  -29.8590   21.7030 H   0  0  0  0  0  0  0  0  0  0  0  0
  -18.0200  -28.0820   22.8870 C   0  0  0  0  0  0  0  0  0  0  0  0
  -20.5790  -28.3610   23.1580 C   0  0  0  0  0  3  0  0  0  0  0  0
  -20.6900  -26.9310   22.5800 C   0  0  0  0  0  2  0  0  0  0  0  0
  -19.5920  -26.6030   21.5630 C   0  0  0  0  0  2  0  0  0  0  0  0
  -18.2080  -26.7380   22.2030 C   0  0  0  0  0  2  0  0  0  0  0  0
  -19.1330  -28.8500   23.3230 C   0  0  0  0  0  0  0  0  0  0  0  0
  -18.9020  -30.1060   23.9240 C   0  0  0  0  0  3  0  0  0  0  0  0
  -17.5940  -30.5960   24.0920 C   0  0  0  0  0  3  0  0  0  0  0  0
  -16.4970  -29.8250   23.6700 C   0  0  0  0  0  3  0  0  0  0  0  0
  -16.7100  -28.5710   23.0730 C   0  0  0  0  0  3  0  0  0  0  0  0
  -25.8450  -32.5420   23.8600 C   0  0  0  0  0  3  0  0  0  0  0  0
  -25.5300  -33.9450   24.1740 N   0  0  0  0  0  0  0  0  0  0  0  0
  -25.8720  -34.9930   23.4120 C   0  0  0  0  0  0  0  0  0  0  0  0
  -26.5500  -34.8800   22.3870 O   0  0  0  0  0  0  0  0  0  0  0  0
  -24.9420  -34.1130   24.9760 H   0  0  0  0  0  0  0  0  0  0  0  0
  -24.1560  -36.7940   23.0230 C   0  0  0  0  0  1  0  0  0  0  0  0
  -25.3810  -36.3860   23.8550 C   0  0  0  0  0  3  0  0  0  0  0  0
  -27.5000  -37.2750   24.7240 C   0  0  0  0  0  1  0  0  0  0  0  0
  -26.4180  -37.4360   23.7560 N   0  0  0  0  0  0  0  0  0  0  0  0
  -26.0070  -38.3580   23.8880 H   0  0  0  0  0  0  0  0  0  0  0  0
  -26.3410  -31.7890   25.1550 C   0  0  1  0  0  0  0  0  0  0  0  0
  -25.2340  -31.5630   26.2100 C   0  0  0  0  0  1  0  0  0  0  0  0
  -26.9320  -30.4090   24.7900 C   0  0  0  0  0  1  0  0  0  0  0  0
  -27.4830  -32.5930   25.8260 C   0  0  0  0  0  1  0  0  0  0  0  0
  1  2  1  0
  1 52  1  0
  1 50  1  0
  2  4  1  0
  3  2  1  0
  5  8  1  0
  5  2  1  0
  5 10  1  0
  6  8  1  0
  7  8  1  0
 10  9  1  0
 10 20  1  0
 11 20  1  0
 12 17  1  0
 13 14  1  0
 13 12  1  0
 15 14  1  0
 15 24  1  0
 15 16  1  0
 17 11  1  0
 17 16  1  0
 18 11  2  0
 20 19  1  0
 21 22  2  0
 22 41  1  0
 23 22  1  0
 23 26  1  0
 24 25  1  0
 24 21  1  0
 25 23  2  0
 26 27  1  0
 27 28  2  0
 29 32  1  0
 29 28  1  0
 30 29  2  0
 31 30  1  0
 31 26  2  0
 32 33  1  0
 33 34  1  0
 34 35  2  0
 36 35  1  0
 36 40  1  0
 37 36  2  0
 38 33  2  0
 38 37  1  0
 39 38  1  0
 41 42  1  0
 42 45  1  0
 42 44  1  0
 43 41  2  0
 46 21  1  0
 46 47  1  0
 48 46  1  0
 49 50  1  0
 52 53  1  0
 52 51  1  0
 54 56  1  0
 54 53  1  0
 55 66  2  0
 56 61  1  0
 57 65  1  0
 57 67  1  0
 58 64  1  0
 58 60  1  0
 59 65  1  0
 60 59  1  0
 61 60  2  0
 62 56  2  0
 63 62  1  0
 63 58  2  0
 64 57  1  0
 65 55  1  0
 67 69  2  0
 68 67  1  0
 70 68  1  0
 71 80  2  0
 71 76  1  0
 72 68  1  0
 72 76  1  0
 73 72  1  0
 74 75  1  0
 74 73  1  0
 75 71  1  0
 76 77  2  0
 77 78  1  0
 79 78  2  0
 80 79  1  0
 81 55  1  0
 81 82  1  0
 81 91  1  0
 82 85  1  0
 83 87  1  0
 83 82  1  0
 84 83  2  0
 87 86  1  0
 89 87  1  0
 89 90  1  0
 89 88  1  0
 91 94  1  1
 91 92  1  0
 93 91  1  0
M  ISO  4  11 100  20 100  53 101  54 101
M  END
>  <TORSDO>  (37) 
F 23

>  <SCORE>  (37) 
-14.471

>  <name>  (37) 
36

>  <ligand_id>  (37) 
36

>  <original_smiles>  (37) 
[H]c1c([H])c([H])c2c(c1[H])C([H])([H])C([H])([H])C([H])([H])C2([H])N([H])C(=O)C1([H])N(C(=O)C([H])(N([H])C(=O)C([H])(N([H])C([H])([H])[H])C([H])([H])[H])C(C([H])([H])[H])(C([H])([H])[H])C([H])([H])[H])C([H])([H])c2c([H])c(OC([H])([H])C([H])(C([H])([H])[H])C([H])(C([H])([H])C([H])([H])[H])[N+]([H])([H])C([H])(C([H])(N(C(=O)N3C([H])([H])C([H])([H])C([H])([H])C([H])(n4nc(-c5c([H])c([H])c(Oc6c([H])c([H])c(F)c([H])c6F)c([H])c5[H])c(C(=O)N([H])[H])c4N([H])[H])C3([H])[H])C([H])([H])[H])C([H])([H])[H])C([H])(C([H])([H])[H])C([H])([H])[H])c([H])c([H])c2C1([H])[H]

>  <smiles>  (37) 
[H]c1c([H])c([H])c2c(c1[H])C([H])([H])C([H])([H])C([H])([H])C2([H])N([H])C(=O)C1([H])N(C(=O)C([H])(N([H])C(=O)C([H])(N([H])C([H])([H])[H])C([H])([H])[H])C(C([H])([H])[H])(C([H])([H])[H])C([H])([H])[H])C([H])([H])c2c([H])c(OC([H])([H])C([H])(C([H])([H])[H])C([H])(C([H])([H])C([H])([H])[H])[N+]([H])([H])C([H])(C([H])(N(C(=O)N3C([H])([H])C([H])([H])C([H])([H])C([H])(n4nc(-c5c([H])c([H])c(Oc6c([H])c([H])c(F)c([H])c6F)c([H])c5[H])c(C(=O)N([H])[H])c4N([H])[H])C3([H])[H])C([H])([H])[H])C([H])([H])[H])C([H])(C([H])([H])[H])C([H])([H])[H])c([H])c([H])c2C1([H])[H]

$$$$
37:0:0
     RDKit          3D

 89 96  0  0  1  0  0  0  0  0999 V2000
  -29.3460  -22.5430   20.3870 N   0  0  0  0  0  4  0  0  0  0  0  0
  -29.8050  -22.4350   21.2800 H   0  0  0  0  0  0  0  0  0  0  0  0
  -30.0650  -22.8130   19.7340 H   0  0  0  0  0  0  0  0  0  0  0  0
  -28.4910  -21.1260   18.5140 C   0  0  0  0  0  1  0  0  0  0  0  0
  -28.8400  -21.1420   20.0170 C   0  0  0  0  0  3  0  0  0  0  0  0
  -29.3830  -18.6100   20.7500 C   0  0  0  0  0  3  0  0  0  0  0  0
  -29.7600  -19.8730   20.3170 C   0  0  0  0  0  3  0  0  0  0  0  0
  -30.2720  -17.3030   20.9870 C   0  0  0  0  0  2  0  0  0  0  0  0
  -30.5930  -14.7830   20.3950 C   0  0  0  0  0  0  0  0  0  0  0  0
  -30.4000  -12.4980   19.4100 C   0  0  0  0  0  2  0  0  0  0  0  0
  -29.4600  -12.5100   18.1850 C   0  0  0  0  0  2  0  0  0  0  0  0
  -27.9880  -12.3390   18.6210 C   0  0  0  0  0  2  0  0  0  0  0  0
  -27.5910  -13.2420   19.8190 C   0  0  0  0  0  3  0  0  0  0  0  0
  -28.6590  -13.2080   20.9330 C   0  0  0  0  0  2  0  0  0  0  0  0
  -29.9460  -13.5660   20.3240 N   0  0  0  0  0  0  0  0  0  0  0  0
  -31.8150  -14.8330   20.2330 O   0  0  0  0  0  0  0  0  0  0  0  0
  -29.0910  -16.2350   19.1530 C   0  0  0  0  0  1  0  0  0  0  0  0
  -29.8410  -15.9640   20.3860 N   0  0  0  0  0  0  0  0  0  0  0  0
  -25.2070  -13.8400   20.5380 C   0  0  0  0  0  0  0  0  0  0  0  0
  -24.1390  -13.0680   20.9040 C   0  0  0  0  0  0  0  0  0  0  0  0
  -24.6070  -11.7180   20.8880 C   0  0  0  0  0  0  0  0  0  0  0  0
  -26.2520  -12.9580   20.3120 N   0  0  0  0  0  0  0  0  0  0  0  0
  -25.8980  -11.6790   20.5890 N   0  0  0  0  0  0  0  0  0  0  0  0
  -23.8850  -10.4520   21.0750 C   0  0  0  0  0  0  0  0  0  0  0  0
  -24.3300   -9.4820   22.0010 C   0  0  0  0  0  3  0  0  0  0  0  0
  -23.6080   -8.2830   22.1790 C   0  0  0  0  0  3  0  0  0  0  0  0
  -22.4310   -8.0450   21.4300 C   0  0  0  0  0  0  0  0  0  0  0  0
  -22.0080   -9.0050   20.4940 C   0  0  0  0  0  3  0  0  0  0  0  0
  -22.7290  -10.1950   20.3120 C   0  0  0  0  0  3  0  0  0  0  0  0
  -21.6810   -6.8960   21.5190 O   0  0  0  0  0  0  0  0  0  0  0  0
  -21.6540   -6.1420   22.6640 C   0  0  0  0  0  0  0  0  0  0  0  0
  -21.2550   -6.6850   23.9050 C   0  0  0  0  0  3  0  0  0  0  0  0
  -21.1780   -5.8560   25.0430 C   0  0  0  0  0  3  0  0  0  0  0  0
  -21.4860   -4.4870   24.9390 C   0  0  0  0  0  0  0  0  0  0  0  0
  -21.8770   -3.9450   23.7030 C   0  0  0  0  0  3  0  0  0  0  0  0
  -21.9590   -4.7710   22.5680 C   0  0  0  0  0  0  0  0  0  0  0  0
  -22.3170   -4.2360   21.3750 F   0  0  0  0  0  0  0  0  0  0  0  0
  -21.4010   -3.6880   26.0290 F   0  0  0  0  0  0  0  0  0  0  0  0
  -22.7380  -13.5420   21.1570 C   0  0  0  0  0  0  0  0  0  0  0  0
  -21.9960  -12.8540   22.0180 N   0  0  0  0  0  0  0  0  0  0  0  0
  -22.3040  -14.5630   20.6240 O   0  0  0  0  0  0  0  0  0  0  0  0
  -22.3530  -12.0330   22.4820 H   0  0  0  0  0  0  0  0  0  0  0  0
  -21.0590  -13.1670   22.2250 H   0  0  0  0  0  0  0  0  0  0  0  0
  -25.3760  -15.2100   20.3550 N   0  0  0  0  0  0  0  0  0  0  0  0
  -24.6220  -15.8810   20.4580 H   0  0  0  0  0  0  0  0  0  0  0  0
  -26.2440  -15.6320   20.0630 H   0  0  0  0  0  0  0  0  0  0  0  0
  -28.3680  -23.7280   20.5800 C   0  0  0  0  0  2  0  0  0  0  0  0
  -28.5870  -25.0960   19.7350 C   0  0  0  0  0  2  0  0  0  0  0  0
  -28.3940  -26.4820   20.2860 O   0  0  0  0  0  0  0  0  0  0  0  0
  -24.6080  -31.8750   23.2380 C   0  0  0  0  0  0  0  0  0  0  0  0
  -27.2430  -27.2940   20.1860 C   0  0  0  0  0  0  0  0  0  0  0  0
  -23.4070  -30.4690   21.5960 C   0  0  0  0  0  3  0  0  0  0  0  0
  -24.8630  -28.9080   20.1670 C   0  0  0  0  0  0  0  0  0  0  0  0
  -25.9460  -30.7850   21.4180 C   0  0  0  0  0  2  0  0  0  0  0  0
  -26.0270  -29.4040   20.7670 C   0  0  0  0  0  0  0  0  0  0  0  0
  -27.2110  -28.6060   20.7670 C   0  0  0  0  0  3  0  0  0  0  0  0
  -26.0590  -26.8550   19.5540 C   0  0  0  0  0  3  0  0  0  0  0  0
  -24.8840  -27.6440   19.5480 C   0  0  0  0  0  3  0  0  0  0  0  0
  -23.6210  -29.7800   20.2170 C   0  0  0  0  0  2  0  0  0  0  0  0
  -24.6720  -31.0640   22.1390 N   0  0  0  0  0  0  0  0  0  0  0  0
  -23.5240  -32.1530   23.7730 O   0  0  0  0  0  0  0  0  0  0  0  0
  -22.7420  -29.4620   22.5640 C   0  0  0  0  0  0  0  0  0  0  0  0
  -21.4160  -29.2850   22.4360 N   0  0  0  0  0  0  0  0  0  0  0  0
  -23.4200  -28.8390   23.3840 O   0  0  0  0  0  0  0  0  0  0  0  0
  -20.9290  -29.8380   21.7450 H   0  0  0  0  0  0  0  0  0  0  0  0
  -18.0410  -28.0750   22.9300 C   0  0  0  0  0  0  0  0  0  0  0  0
  -20.5970  -28.3470   23.2080 C   0  0  0  0  0  3  0  0  0  0  0  0
  -20.7070  -26.9140   22.6370 C   0  0  0  0  0  2  0  0  0  0  0  0
  -19.6100  -26.5830   21.6200 C   0  0  0  0  0  2  0  0  0  0  0  0
  -18.2240  -26.7250   22.2580 C   0  0  0  0  0  2  0  0  0  0  0  0
  -19.1530  -28.8440   23.3610 C   0  0  0  0  0  0  0  0  0  0  0  0
  -18.9280  -30.1070   23.9490 C   0  0  0  0  0  3  0  0  0  0  0  0
  -17.6200  -30.6020   24.1120 C   0  0  0  0  0  3  0  0  0  0  0  0
  -16.5200  -29.8300   23.6960 C   0  0  0  0  0  3  0  0  0  0  0  0
  -16.7320  -28.5680   23.1120 C   0  0  0  0  0  3  0  0  0  0  0  0
  -25.8900  -32.5100   23.8600 C   0  0  0  0  0  3  0  0  0  0  0  0
  -25.5810  -33.9100   24.1900 N   0  0  0  0  0  0  0  0  0  0  0  0
  -25.9120  -34.9640   23.4330 C   0  0  0  0  0  0  0  0  0  0  0  0
  -26.5770  -34.8610   22.4000 O   0  0  0  0  0  0  0  0  0  0  0  0
  -24.9910  -34.0640   24.9950 H   0  0  0  0  0  0  0  0  0  0  0  0
  -24.1810  -36.7590   23.0900 C   0  0  0  0  0  1  0  0  0  0  0  0
  -25.4260  -36.3530   23.8940 C   0  0  0  0  0  3  0  0  0  0  0  0
  -27.5660  -37.2370   24.7130 C   0  0  0  0  0  1  0  0  0  0  0  0
  -26.4580  -37.4060   23.7770 N   0  0  0  0  0  0  0  0  0  0  0  0
  -26.0520  -38.3260   23.9280 H   0  0  0  0  0  0  0  0  0  0  0  0
  -26.4040  -31.7460   25.1430 C   0  0  1  0  0  0  0  0  0  0  0  0
  -25.3110  -31.5170   26.2130 C   0  0  0  0  0  1  0  0  0  0  0  0
  -26.9840  -30.3640   24.7610 C   0  0  0  0  0  1  0  0  0  0  0  0
  -27.5550  -32.5430   25.8030 C   0  0  0  0  0  1  0  0  0  0  0  0
  1 47  1  0
  1  2  1  0
  3  1  1  0
  5  4  1  0
  5  7  1  0
  5  1  1  0
  6  8  1  0
  7  6  2  0
 10 15  1  0
 11 12  1  0
 11 10  1  0
 13 12  1  0
 13 22  1  0
 13 14  1  0
 15  9  1  0
 15 14  1  0
 16  9  2  0
 17 18  1  0
 18  9  1  0
 18  8  1  0
 19 20  2  0
 20 39  1  0
 21 20  1  0
 21 24  1  0
 22 19  1  0
 22 23  1  0
 23 21  2  0
 24 25  1  0
 25 26  2  0
 27 30  1  0
 27 26  1  0
 28 27  2  0
 29 28  1  0
 29 24  2  0
 30 31  1  0
 31 32  1  0
 32 33  2  0
 34 33  1  0
 34 38  1  0
 35 34  2  0
 36 31  2  0
 36 35  1  0
 37 36  1  0
 39 40  1  0
 40 43  1  0
 40 42  1  0
 41 39  2  0
 44 45  1  0
 44 19  1  0
 46 44  1  0
 48 49  1  0
 48 47  1  0
 50 61  2  0
 51 49  1  0
 51 56  1  0
 52 60  1  0
 52 62  1  0
 53 59  1  0
 53 55  1  0
 54 60  1  0
 55 56  2  0
 55 54  1  0
 57 51  2  0
 58 57  1  0
 58 53  2  0
 59 52  1  0
 60 50  1  0
 62 64  2  0
 63 62  1  0
 65 63  1  0
 66 75  2  0
 66 71  1  0
 67 63  1  0
 67 71  1  0
 68 67  1  0
 69 70  1  0
 69 68  1  0
 70 66  1  0
 71 72  2  0
 72 73  1  0
 74 73  2  0
 75 74  1  0
 76 50  1  0
 76 77  1  0
 76 86  1  0
 77 80  1  0
 78 82  1  0
 78 77  1  0
 79 78  2  0
 82 81  1  0
 84 82  1  0
 84 85  1  0
 84 83  1  0
 86 89  1  1
 86 87  1  0
 88 86  1  0
M  ISO  4   9 100  18 100  48 101  49 101
M  END
>  <TORSDO>  (38) 
F 21

>  <SCORE>  (38) 
-13.250

>  <name>  (38) 
37

>  <ligand_id>  (38) 
37

>  <original_smiles>  (38) 
[H]C(=C([H])C([H])(C([H])([H])[H])[N+]([H])([H])C([H])([H])C([H])([H])Oc1c([H])c([H])c2c(c1[H])C([H])([H])N(C(=O)C([H])(N([H])C(=O)C([H])(N([H])C([H])([H])[H])C([H])([H])[H])C(C([H])([H])[H])(C([H])([H])[H])C([H])([H])[H])C([H])(C(=O)N([H])C1([H])c3c([H])c([H])c([H])c([H])c3C([H])([H])C([H])([H])C1([H])[H])C2([H])[H])C([H])([H])N(C(=O)N1C([H])([H])C([H])([H])C([H])([H])C([H])(n2nc(-c3c([H])c([H])c(Oc4c([H])c([H])c(F)c([H])c4F)c([H])c3[H])c(C(=O)N([H])[H])c2N([H])[H])C1([H])[H])C([H])([H])[H]

>  <smiles>  (38) 
[H]C(=C([H])C([H])(C([H])([H])[H])[N+]([H])([H])C([H])([H])C([H])([H])Oc1c([H])c([H])c2c(c1[H])C([H])([H])N(C(=O)C([H])(N([H])C(=O)C([H])(N([H])C([H])([H])[H])C([H])([H])[H])C(C([H])([H])[H])(C([H])([H])[H])C([H])([H])[H])C([H])(C(=O)N([H])C1([H])c3c([H])c([H])c([H])c([H])c3C([H])([H])C([H])([H])C1([H])[H])C2([H])[H])C([H])([H])N(C(=O)N1C([H])([H])C([H])([H])C([H])([H])C([H])(n2nc(-c3c([H])c([H])c(Oc4c([H])c([H])c(F)c([H])c4F)c([H])c3[H])c(C(=O)N([H])[H])c2N([H])[H])C1([H])[H])C([H])([H])[H]

$$$$
38:0:0
     RDKit          3D

 97105  0  0  1  0  0  0  0  0999 V2000
  -30.1110  -21.7210   20.3460 C   0  0  0  0  0  3  0  0  0  0  0  0
  -30.9440  -19.3500   19.6280 C   0  0  0  0  0  3  0  0  0  0  0  0
  -28.8600  -19.4460   20.8190 C   0  0  0  0  0  3  0  0  0  0  0  0
  -30.9280  -17.9230   19.6840 C   0  0  0  0  0  3  0  0  0  0  0  0
  -28.8390  -18.0190   20.8670 C   0  0  0  0  0  3  0  0  0  0  0  0
  -29.9280  -20.1580   20.2150 C   0  0  0  0  0  0  0  0  0  0  0  0
  -29.8780  -17.2120   20.3240 C   0  0  0  0  0  0  0  0  0  0  0  0
  -30.5420  -14.7110   19.9800 C   0  0  0  0  0  0  0  0  0  0  0  0
  -30.2660  -12.4750   18.9250 C   0  0  0  0  0  2  0  0  0  0  0  0
  -29.2490  -12.6080   17.7680 C   0  0  0  0  0  2  0  0  0  0  0  0
  -27.8060  -12.4480   18.2850 C   0  0  0  0  0  2  0  0  0  0  0  0
  -27.5240  -13.3110   19.5430 C   0  0  0  0  0  3  0  0  0  0  0  0
  -28.6460  -13.1480   20.5940 C   0  0  0  0  0  2  0  0  0  0  0  0
  -29.9220  -13.4890   19.9420 N   0  0  0  0  0  0  0  0  0  0  0  0
  -31.6700  -14.8700   19.5010 O   0  0  0  0  0  0  0  0  0  0  0  0
  -29.7790  -15.7540   20.4410 N   0  0  0  0  0  0  0  0  0  0  0  0
  -28.9250  -15.4320   20.8710 H   0  0  0  0  0  0  0  0  0  0  0  0
  -25.1920  -13.9220   20.4350 C   0  0  0  0  0  0  0  0  0  0  0  0
  -24.1380  -13.1530   20.8480 C   0  0  0  0  0  0  0  0  0  0  0  0
  -24.5740  -11.7970   20.7420 C   0  0  0  0  0  0  0  0  0  0  0  0
  -26.2040  -13.0350   20.1050 N   0  0  0  0  0  0  0  0  0  0  0  0
  -25.8400  -11.7490   20.3470 N   0  0  0  0  0  0  0  0  0  0  0  0
  -23.8390  -10.5400   20.9360 C   0  0  0  0  0  0  0  0  0  0  0  0
  -24.2690   -9.5710   21.8700 C   0  0  0  0  0  3  0  0  0  0  0  0
  -23.5350   -8.3780   22.0530 C   0  0  0  0  0  3  0  0  0  0  0  0
  -22.3580   -8.1470   21.3010 C   0  0  0  0  0  0  0  0  0  0  0  0
  -21.9490   -9.1040   20.3560 C   0  0  0  0  0  3  0  0  0  0  0  0
  -22.6830  -10.2880   20.1720 C   0  0  0  0  0  3  0  0  0  0  0  0
  -21.5970   -7.0070   21.3930 O   0  0  0  0  0  0  0  0  0  0  0  0
  -21.4890   -6.3070   22.5680 C   0  0  0  0  0  0  0  0  0  0  0  0
  -20.9690   -6.8950   23.7410 C   0  0  0  0  0  3  0  0  0  0  0  0
  -20.8110   -6.1190   24.9070 C   0  0  0  0  0  3  0  0  0  0  0  0
  -21.1620   -4.7560   24.9000 C   0  0  0  0  0  0  0  0  0  0  0  0
  -21.6740   -4.1670   23.7300 C   0  0  0  0  0  3  0  0  0  0  0  0
  -21.8340   -4.9390   22.5670 C   0  0  0  0  0  0  0  0  0  0  0  0
  -22.3090   -4.3620   21.4370 F   0  0  0  0  0  0  0  0  0  0  0  0
  -21.0030   -4.0080   26.0170 F   0  0  0  0  0  0  0  0  0  0  0  0
  -22.7690  -13.6410   21.2280 C   0  0  0  0  0  0  0  0  0  0  0  0
  -22.0840  -12.9200   22.1060 N   0  0  0  0  0  0  0  0  0  0  0  0
  -22.3210  -14.6960   20.7820 O   0  0  0  0  0  0  0  0  0  0  0  0
  -22.4610  -12.0650   22.4880 H   0  0  0  0  0  0  0  0  0  0  0  0
  -21.1670  -13.2260   22.4040 H   0  0  0  0  0  0  0  0  0  0  0  0
  -25.3680  -15.2960   20.2930 N   0  0  0  0  0  0  0  0  0  0  0  0
  -24.6160  -15.9540   20.4660 H   0  0  0  0  0  0  0  0  0  0  0  0
  -26.1910  -15.7330   19.8990 H   0  0  0  0  0  0  0  0  0  0  0  0
  -28.9430  -22.6280   20.0950 N   0  0  0  0  0  0  0  0  0  0  0  0
  -28.5500  -22.3860   19.1890 H   0  0  0  0  0  0  0  0  0  0  0  0
  -29.2070  -24.1130   20.1360 C   0  0  0  0  0  3  0  0  0  0  0  0
  -28.0140  -25.0880   19.7510 C   0  0  0  0  0  3  0  0  0  0  0  0
  -28.1960  -26.5420   19.9620 O   0  0  0  0  0  0  0  0  0  0  0  0
  -24.4450  -31.8230   23.1370 C   0  0  0  0  0  0  0  0  0  0  0  0
  -27.0570  -27.3640   19.9460 C   0  0  0  0  0  0  0  0  0  0  0  0
  -23.2260  -30.4390   21.4960 C   0  0  0  0  0  3  0  0  0  0  0  0
  -24.6670  -28.9340   20.0150 C   0  0  0  0  0  0  0  0  0  0  0  0
  -25.7560  -30.7950   21.2670 C   0  0  0  0  0  2  0  0  0  0  0  0
  -25.8400  -29.4310   20.5950 C   0  0  0  0  0  0  0  0  0  0  0  0
  -27.0380  -28.6580   20.5500 C   0  0  0  0  0  3  0  0  0  0  0  0
  -25.8560  -26.9180   19.3440 C   0  0  0  0  0  3  0  0  0  0  0  0
  -24.6760  -27.6830   19.3820 C   0  0  0  0  0  3  0  0  0  0  0  0
  -23.4200  -29.7890   20.1010 C   0  0  0  0  0  2  0  0  0  0  0  0
  -24.4950  -31.0350   22.0240 N   0  0  0  0  0  0  0  0  0  0  0  0
  -23.3690  -32.0760   23.6970 O   0  0  0  0  0  0  0  0  0  0  0  0
  -22.5960  -29.3960   22.4510 C   0  0  0  0  0  0  0  0  0  0  0  0
  -21.2740  -29.1870   22.3280 N   0  0  0  0  0  0  0  0  0  0  0  0
  -23.2950  -28.7790   23.2590 O   0  0  0  0  0  0  0  0  0  0  0  0
  -20.7680  -29.7380   21.6500 H   0  0  0  0  0  0  0  0  0  0  0  0
  -17.9330  -27.8920   22.8210 C   0  0  0  0  0  0  0  0  0  0  0  0
  -20.4810  -28.2220   23.0950 C   0  0  0  0  0  3  0  0  0  0  0  0
  -20.6240  -26.7970   22.5150 C   0  0  0  0  0  2  0  0  0  0  0  0
  -19.5330  -26.4460   21.4990 C   0  0  0  0  0  2  0  0  0  0  0  0
  -18.1470  -26.5500   22.1420 C   0  0  0  0  0  2  0  0  0  0  0  0
  -19.0290  -28.6840   23.2550 C   0  0  0  0  0  0  0  0  0  0  0  0
  -18.7740  -29.9380   23.8510 C   0  0  0  0  0  3  0  0  0  0  0  0
  -17.4550  -30.4020   24.0180 C   0  0  0  0  0  3  0  0  0  0  0  0
  -16.3730  -29.6070   23.6010 C   0  0  0  0  0  3  0  0  0  0  0  0
  -16.6120  -28.3550   23.0090 C   0  0  0  0  0  3  0  0  0  0  0  0
  -25.7330  -32.4600   23.7450 C   0  0  0  0  0  3  0  0  0  0  0  0
  -25.4170  -33.8530   24.0910 N   0  0  0  0  0  0  0  0  0  0  0  0
  -25.7120  -34.9120   23.3250 C   0  0  0  0  0  0  0  0  0  0  0  0
  -26.3480  -34.8210   22.2720 O   0  0  0  0  0  0  0  0  0  0  0  0
  -24.8480  -33.9980   24.9110 H   0  0  0  0  0  0  0  0  0  0  0  0
  -23.9460  -36.6820   23.0440 C   0  0  0  0  0  1  0  0  0  0  0  0
  -25.2250  -36.2940   23.8040 C   0  0  0  0  0  3  0  0  0  0  0  0
  -27.3720  -37.2140   24.5570 C   0  0  0  0  0  1  0  0  0  0  0  0
  -26.2360  -37.3610   23.6510 N   0  0  0  0  0  0  0  0  0  0  0  0
  -25.8220  -38.2760   23.8090 H   0  0  0  0  0  0  0  0  0  0  0  0
  -26.2720  -31.6830   25.0080 C   0  0  1  0  0  0  0  0  0  0  0  0
  -25.1940  -31.4230   26.0870 C   0  0  0  0  0  1  0  0  0  0  0  0
  -26.8660  -30.3160   24.5970 C   0  0  0  0  0  1  0  0  0  0  0  0
  -27.4230  -32.4830   25.6630 C   0  0  0  0  0  1  0  0  0  0  0  0
  -30.7450  -22.0220   21.7310 C   0  0  0  0  0  2  0  0  0  0  0  0
  -31.9600  -21.2090   21.9690 N   0  0  0  0  0  4  0  0  0  0  0  0
  -32.6110  -21.4320   21.2330 H   0  0  0  0  0  0  0  0  0  0  0  0
  -31.7140  -20.2360   21.8730 H   0  0  0  0  0  0  0  0  0  0  0  0
  -33.9770  -20.6830   23.3080 C   0  0  0  0  0  1  0  0  0  0  0  0
  -31.7510  -21.0320   24.4580 C   0  0  0  0  0  1  0  0  0  0  0  0
  -32.6380  -21.4370   23.2660 C   0  0  0  0  0  3  0  0  0  0  0  0
  1 91  1  0
  2  4  2  0
  2  6  1  0
  3  5  1  0
  4  7  1  0
  6  1  1  0
  6  3  2  0
  7 16  1  0
  7  5  2  0
  8 16  1  0
  9 14  1  0
 10 11  1  0
 10  9  1  0
 12 11  1  0
 12 21  1  0
 12 13  1  0
 14  8  1  0
 14 13  1  0
 15  8  2  0
 16 17  1  0
 18 19  2  0
 19 38  1  0
 20 19  1  0
 20 23  1  0
 21 22  1  0
 21 18  1  0
 22 20  2  0
 23 24  1  0
 24 25  2  0
 26 29  1  0
 26 25  1  0
 27 26  2  0
 28 27  1  0
 28 23  2  0
 29 30  1  0
 30 31  1  0
 31 32  2  0
 33 32  1  0
 33 37  1  0
 34 33  2  0
 35 30  2  0
 35 34  1  0
 36 35  1  0
 38 39  1  0
 39 42  1  0
 39 41  1  0
 40 38  2  0
 43 18  1  0
 43 44  1  0
 45 43  1  0
 46 48  1  0
 46  1  1  0
 47 46  1  0
 49 50  1  0
 49 48  2  0
 51 62  2  0
 52 50  1  0
 52 57  1  0
 53 61  1  0
 53 63  1  0
 54 60  1  0
 54 56  1  0
 55 61  1  0
 56 55  1  0
 57 56  2  0
 58 59  1  0
 58 52  2  0
 59 54  2  0
 60 53  1  0
 61 51  1  0
 63 65  2  0
 64 63  1  0
 66 64  1  0
 67 76  2  0
 67 72  1  0
 68 64  1  0
 68 72  1  0
 69 68  1  0
 70 71  1  0
 70 69  1  0
 71 67  1  0
 72 73  2  0
 73 74  1  0
 75 74  2  0
 76 75  1  0
 77 51  1  0
 77 78  1  0
 77 87  1  0
 78 81  1  0
 79 83  1  0
 79 78  1  0
 80 79  2  0
 83 82  1  0
 85 83  1  0
 85 86  1  0
 85 84  1  0
 87 90  1  1
 87 88  1  0
 89 87  1  0
 91 92  1  0
 92 97  1  0
 93 92  1  0
 94 92  1  0
 97 95  1  0
 97 96  1  0
M  ISO  4   8 100  16 100  49 101  50 101
M  END
>  <TORSDO>  (39) 
F 23

>  <SCORE>  (39) 
-12.238

>  <name>  (39) 
38

>  <ligand_id>  (39) 
38

>  <original_smiles>  (39) 
[H]c1c([H])c([H])c2c(c1[H])C([H])([H])C([H])([H])C([H])([H])C2([H])N([H])C(=O)C1([H])N(C(=O)C([H])(N([H])C(=O)C([H])(N([H])C([H])([H])[H])C([H])([H])[H])C(C([H])([H])[H])(C([H])([H])[H])C([H])([H])[H])C([H])([H])c2c([H])c(OC([H])([H])C([H])([H])N([H])C([H])(c3c([H])c([H])c(N([H])C(=O)N4C([H])([H])C([H])([H])C([H])([H])C([H])(n5nc(-c6c([H])c([H])c(Oc7c([H])c([H])c(F)c([H])c7F)c([H])c6[H])c(C(=O)N([H])[H])c5N([H])[H])C4([H])[H])c([H])c3[H])C([H])([H])[N+]([H])([H])C([H])(C([H])([H])[H])C([H])([H])[H])c([H])c([H])c2C1([H])[H]

>  <smiles>  (39) 
[H]c1c([H])c([H])c2c(c1[H])C([H])([H])C([H])([H])C([H])([H])C2([H])N([H])C(=O)C1([H])N(C(=O)C([H])(N([H])C(=O)C([H])(N([H])C([H])([H])[H])C([H])([H])[H])C(C([H])([H])[H])(C([H])([H])[H])C([H])([H])[H])C([H])([H])c2c([H])c(OC([H])([H])C([H])([H])N([H])C([H])(c3c([H])c([H])c(N([H])C(=O)N4C([H])([H])C([H])([H])C([H])([H])C([H])(n5nc(-c6c([H])c([H])c(Oc7c([H])c([H])c(F)c([H])c7F)c([H])c6[H])c(C(=O)N([H])[H])c5N([H])[H])C4([H])[H])c([H])c3[H])C([H])([H])[N+]([H])([H])C([H])(C([H])([H])[H])C([H])([H])[H])c([H])c([H])c2C1([H])[H]

$$$$
39:0:0
     RDKit          3D

 89 97  0  0  1  0  0  0  0  0999 V2000
  -28.6900  -21.6990   20.3550 N   0  0  0  0  0  0  0  0  0  0  0  0
  -27.7170  -21.5210   20.5950 H   0  0  0  0  0  0  0  0  0  0  0  0
  -31.7870  -19.5420   19.7720 C   0  0  0  0  0  3  0  0  0  0  0  0
  -31.4050  -18.1910   19.9640 C   0  0  0  0  0  3  0  0  0  0  0  0
  -30.8990  -20.6340   19.9110 C   0  0  0  0  0  3  0  0  0  0  0  0
  -29.1840  -19.0090   20.4510 C   0  0  0  0  0  3  0  0  0  0  0  0
  -30.0860  -17.8110   20.3120 C   0  0  0  0  0  0  0  0  0  0  0  0
  -29.5420  -20.4610   20.2570 C   0  0  0  0  0  0  0  0  0  0  0  0
  -30.5090  -15.0620   20.3110 C   0  0  0  0  0  0  0  0  0  0  0  0
  -30.3690  -12.6880   19.3960 C   0  0  0  0  0  2  0  0  0  0  0  0
  -29.4540  -12.6560   18.1490 C   0  0  0  0  0  2  0  0  0  0  0  0
  -27.9810  -12.4570   18.5570 C   0  0  0  0  0  2  0  0  0  0  0  0
  -27.5680  -13.3480   19.7600 C   0  0  0  0  0  3  0  0  0  0  0  0
  -28.6260  -13.3750   20.8840 C   0  0  0  0  0  2  0  0  0  0  0  0
  -29.8950  -13.8020   20.2750 N   0  0  0  0  0  0  0  0  0  0  0  0
  -31.7110  -15.0720   20.0260 O   0  0  0  0  0  0  0  0  0  0  0  0
  -29.7690  -16.2880   20.4770 N   0  0  0  0  0  0  0  0  0  0  0  0
  -28.8050  -16.1050   20.7150 H   0  0  0  0  0  0  0  0  0  0  0  0
  -25.1870  -13.8970   20.5120 C   0  0  0  0  0  0  0  0  0  0  0  0
  -24.1280  -13.1160   20.8840 C   0  0  0  0  0  0  0  0  0  0  0  0
  -24.5970  -11.7670   20.8400 C   0  0  0  0  0  0  0  0  0  0  0  0
  -26.2320  -13.0270   20.2590 N   0  0  0  0  0  0  0  0  0  0  0  0
  -25.8880  -11.7380   20.5190 N   0  0  0  0  0  0  0  0  0  0  0  0
  -23.8730  -10.5020   21.0260 C   0  0  0  0  0  0  0  0  0  0  0  0
  -24.2950   -9.5390   21.9680 C   0  0  0  0  0  3  0  0  0  0  0  0
  -23.5710   -8.3390   22.1410 C   0  0  0  0  0  3  0  0  0  0  0  0
  -22.4070   -8.0950   21.3730 C   0  0  0  0  0  0  0  0  0  0  0  0
  -22.0030   -9.0470   20.4230 C   0  0  0  0  0  3  0  0  0  0  0  0
  -22.7260  -10.2390   20.2480 C   0  0  0  0  0  3  0  0  0  0  0  0
  -21.6570   -6.9460   21.4530 O   0  0  0  0  0  0  0  0  0  0  0  0
  -21.5770   -6.2180   22.6130 C   0  0  0  0  0  0  0  0  0  0  0  0
  -21.0940   -6.7790   23.8160 C   0  0  0  0  0  3  0  0  0  0  0  0
  -20.9630   -5.9760   24.9650 C   0  0  0  0  0  3  0  0  0  0  0  0
  -21.3070   -4.6120   24.9150 C   0  0  0  0  0  0  0  0  0  0  0  0
  -21.7840   -4.0490   23.7180 C   0  0  0  0  0  3  0  0  0  0  0  0
  -21.9180   -4.8500   22.5690 C   0  0  0  0  0  0  0  0  0  0  0  0
  -22.3540   -4.2970   21.4120 F   0  0  0  0  0  0  0  0  0  0  0  0
  -21.1770   -3.8390   26.0170 F   0  0  0  0  0  0  0  0  0  0  0  0
  -22.7310  -13.5910   21.1620 C   0  0  0  0  0  0  0  0  0  0  0  0
  -22.0040  -12.8910   22.0240 N   0  0  0  0  0  0  0  0  0  0  0  0
  -22.2900  -14.6160   20.6450 O   0  0  0  0  0  0  0  0  0  0  0  0
  -22.3710  -12.0630   22.4720 H   0  0  0  0  0  0  0  0  0  0  0  0
  -21.0640  -13.1910   22.2410 H   0  0  0  0  0  0  0  0  0  0  0  0
  -25.3450  -15.2680   20.3370 N   0  0  0  0  0  0  0  0  0  0  0  0
  -24.5710  -15.9160   20.4280 H   0  0  0  0  0  0  0  0  0  0  0  0
  -26.1710  -15.6870   19.9310 H   0  0  0  0  0  0  0  0  0  0  0  0
  -29.0630  -23.2460   20.2970 C   0  0  0  0  0  3  0  0  0  0  0  0
  -27.9600  -24.5630   20.1750 C   0  0  0  0  0  3  0  0  0  0  0  0
  -28.2290  -26.1250   20.2570 O   0  0  0  0  0  0  0  0  0  0  0  0
  -24.6480  -31.9050   23.2450 C   0  0  0  0  0  0  0  0  0  0  0  0
  -27.1830  -27.1370   20.2060 C   0  0  0  0  0  0  0  0  0  0  0  0
  -23.4370  -30.5180   21.6090 C   0  0  0  0  0  3  0  0  0  0  0  0
  -24.8710  -28.9280   20.1780 C   0  0  0  0  0  0  0  0  0  0  0  0
  -25.9930  -30.7570   21.4360 C   0  0  0  0  0  2  0  0  0  0  0  0
  -26.0560  -29.3580   20.7870 C   0  0  0  0  0  0  0  0  0  0  0  0
  -27.2110  -28.4790   20.7820 C   0  0  0  0  0  3  0  0  0  0  0  0
  -25.9680  -26.8210   19.5590 C   0  0  0  0  0  3  0  0  0  0  0  0
  -24.8400  -27.6740   19.5490 C   0  0  0  0  0  3  0  0  0  0  0  0
  -23.6530  -29.8390   20.2290 C   0  0  0  0  0  2  0  0  0  0  0  0
  -24.7140  -31.0830   22.1520 N   0  0  0  0  0  0  0  0  0  0  0  0
  -23.5650  -32.1940   23.7780 O   0  0  0  0  0  0  0  0  0  0  0  0
  -22.7520  -29.5140   22.5730 C   0  0  0  0  0  0  0  0  0  0  0  0
  -21.4220  -29.3500   22.4520 N   0  0  0  0  0  0  0  0  0  0  0  0
  -23.4220  -28.8850   23.3960 O   0  0  0  0  0  0  0  0  0  0  0  0
  -20.9370  -29.9160   21.7700 H   0  0  0  0  0  0  0  0  0  0  0  0
  -18.0370  -28.1550   22.9580 C   0  0  0  0  0  0  0  0  0  0  0  0
  -20.5970  -28.4150   23.2220 C   0  0  0  0  0  3  0  0  0  0  0  0
  -20.6940  -26.9800   22.6500 C   0  0  0  0  0  2  0  0  0  0  0  0
  -19.5920  -26.6570   21.6360 C   0  0  0  0  0  2  0  0  0  0  0  0
  -18.2120  -26.8050   22.2820 C   0  0  0  0  0  2  0  0  0  0  0  0
  -19.1570  -28.9180   23.3850 C   0  0  0  0  0  0  0  0  0  0  0  0
  -18.9380  -30.1800   23.9790 C   0  0  0  0  0  3  0  0  0  0  0  0
  -17.6330  -30.6800   24.1470 C   0  0  0  0  0  3  0  0  0  0  0  0
  -16.5280  -29.9150   23.7360 C   0  0  0  0  0  3  0  0  0  0  0  0
  -16.7300  -28.6540   23.1480 C   0  0  0  0  0  3  0  0  0  0  0  0
  -25.9300  -32.5370   23.8680 C   0  0  0  0  0  3  0  0  0  0  0  0
  -26.4440  -31.7630   25.1450 C   0  0  1  0  0  0  0  0  0  0  0  0
  -25.3490  -31.5250   26.2130 C   0  0  0  0  0  1  0  0  0  0  0  0
  -27.0210  -30.3830   24.7520 C   0  0  0  0  0  1  0  0  0  0  0  0
  -27.6030  -32.5460   25.8050 C   0  0  0  0  0  1  0  0  0  0  0  0
  -25.6230  -33.9370   24.2100 N   0  0  0  0  0  0  0  0  0  0  0  0
  -25.9310  -34.9950   23.4500 C   0  0  0  0  0  0  0  0  0  0  0  0
  -26.5680  -34.8970   22.3980 O   0  0  0  0  0  0  0  0  0  0  0  0
  -25.0510  -34.0840   25.0300 H   0  0  0  0  0  0  0  0  0  0  0  0
  -24.1800  -36.7830   23.1740 C   0  0  0  0  0  1  0  0  0  0  0  0
  -25.4580  -36.3840   23.9290 C   0  0  0  0  0  3  0  0  0  0  0  0
  -27.6250  -37.2780   24.6650 C   0  0  0  0  0  1  0  0  0  0  0  0
  -26.4800  -37.4430   23.7720 N   0  0  0  0  0  0  0  0  0  0  0  0
  -26.0770  -38.3600   23.9410 H   0  0  0  0  0  0  0  0  0  0  0  0
  1  2  1  0
  3  5  2  0
  3  4  1  0
  4  7  2  0
  5  8  1  0
  7  6  1  0
  7 17  1  0
  8  1  1  0
  8  6  2  0
  9 17  1  0
 10 15  1  0
 11 12  1  0
 11 10  1  0
 13 12  1  0
 13 22  1  0
 13 14  1  0
 15  9  1  0
 15 14  1  0
 16  9  2  0
 17 18  1  0
 19 20  2  0
 20 39  1  0
 21 20  1  0
 21 24  1  0
 22 19  1  0
 22 23  1  0
 23 21  2  0
 24 25  1  0
 25 26  2  0
 27 30  1  0
 27 26  1  0
 28 27  2  0
 29 28  1  0
 29 24  2  0
 30 31  1  0
 31 32  1  0
 32 33  2  0
 34 33  1  0
 34 38  1  0
 35 34  2  0
 36 31  2  0
 36 35  1  0
 37 36  1  0
 39 40  1  0
 40 43  1  0
 40 42  1  0
 41 39  2  0
 44 45  1  0
 44 19  1  0
 46 44  1  0
 47  1  1  0
 48 49  1  0
 48 47  2  0
 50 61  2  0
 51 49  1  0
 51 56  1  0
 52 60  1  0
 52 62  1  0
 53 59  1  0
 53 55  1  0
 54 60  1  0
 55 54  1  0
 56 55  2  0
 57 51  2  0
 58 57  1  0
 58 53  2  0
 59 52  1  0
 60 50  1  0
 62 64  2  0
 63 62  1  0
 65 63  1  0
 66 75  2  0
 66 71  1  0
 67 63  1  0
 67 71  1  0
 68 67  1  0
 69 70  1  0
 69 68  1  0
 70 66  1  0
 71 72  2  0
 72 73  1  0
 74 73  2  0
 75 74  1  0
 76 50  1  0
 76 81  1  0
 76 77  1  0
 77 80  1  1
 77 78  1  0
 79 77  1  0
 81 84  1  0
 82 86  1  0
 82 81  1  0
 83 82  2  0
 86 85  1  0
 88 86  1  0
 88 89  1  0
 88 87  1  0
M  ISO  4   9 100  17 100  48 101  49 101
M  END
>  <TORSDO>  (40) 
F 19

>  <SCORE>  (40) 
-14.953

>  <name>  (40) 
39

>  <ligand_id>  (40) 
39

>  <original_smiles>  (40) 
[H]c1c([H])c(N([H])C(=O)N2C([H])([H])C([H])([H])C([H])([H])C([H])(n3nc(-c4c([H])c([H])c(Oc5c([H])c([H])c(F)c([H])c5F)c([H])c4[H])c(C(=O)N([H])[H])c3N([H])[H])C2([H])[H])c([H])c(N([H])C([H])([H])C([H])([H])Oc2c([H])c([H])c3c(c2[H])C([H])([H])N(C(=O)C([H])(N([H])C(=O)C([H])(N([H])C([H])([H])[H])C([H])([H])[H])C(C([H])([H])[H])(C([H])([H])[H])C([H])([H])[H])C([H])(C(=O)N([H])C2([H])c4c([H])c([H])c([H])c([H])c4C([H])([H])C([H])([H])C2([H])[H])C3([H])[H])c1[H]

>  <smiles>  (40) 
[H]c1c([H])c(N([H])C(=O)N2C([H])([H])C([H])([H])C([H])([H])C([H])(n3nc(-c4c([H])c([H])c(Oc5c([H])c([H])c(F)c([H])c5F)c([H])c4[H])c(C(=O)N([H])[H])c3N([H])[H])C2([H])[H])c([H])c(N([H])C([H])([H])C([H])([H])Oc2c([H])c([H])c3c(c2[H])C([H])([H])N(C(=O)C([H])(N([H])C(=O)C([H])(N([H])C([H])([H])[H])C([H])([H])[H])C(C([H])([H])[H])(C([H])([H])[H])C([H])([H])[H])C([H])(C(=O)N([H])C2([H])c4c([H])c([H])c([H])c([H])c4C([H])([H])C([H])([H])C2([H])[H])C3([H])[H])c1[H]

$$$$
40:0:0
     RDKit          3D

 91 99  0  0  1  0  0  0  0  0999 V2000
  -29.0690  -22.4660   20.4690 N   0  0  0  0  0  4  0  0  0  0  0  0
  -30.0500  -22.5520   20.6850 H   0  0  0  0  0  0  0  0  0  0  0  0
  -28.5970  -22.3590   21.3540 H   0  0  0  0  0  0  0  0  0  0  0  0
  -28.8770  -21.1390   19.7210 C   0  0  0  0  0  2  0  0  0  0  0  0
  -32.1830  -19.0990   19.8700 C   0  0  0  0  0  3  0  0  0  0  0  0
  -31.2510  -20.1500   19.7950 C   0  0  0  0  0  3  0  0  0  0  0  0
  -31.7810  -17.7640   20.0750 C   0  0  0  0  0  3  0  0  0  0  0  0
  -29.4810  -18.5220   20.1430 C   0  0  0  0  0  3  0  0  0  0  0  0
  -29.8710  -19.9110   19.9410 C   0  0  0  0  0  0  0  0  0  0  0  0
  -30.4170  -17.4010   20.2070 C   0  0  0  0  0  0  0  0  0  0  0  0
  -30.6780  -14.7980   20.0870 C   0  0  0  0  0  0  0  0  0  0  0  0
  -30.4020  -12.5750   18.9370 C   0  0  0  0  0  2  0  0  0  0  0  0
  -29.3910  -12.6950   17.7720 C   0  0  0  0  0  2  0  0  0  0  0  0
  -27.9430  -12.4970   18.2690 C   0  0  0  0  0  2  0  0  0  0  0  0
  -27.6500  -13.3080   19.5590 C   0  0  0  0  0  3  0  0  0  0  0  0
  -28.7720  -13.0880   20.5940 C   0  0  0  0  0  2  0  0  0  0  0  0
  -30.0210  -13.5730   19.9770 N   0  0  0  0  0  0  0  0  0  0  0  0
  -31.8110  -14.8550   19.5990 O   0  0  0  0  0  0  0  0  0  0  0  0
  -29.0470  -15.9330   21.6080 C   0  0  0  0  0  1  0  0  0  0  0  0
  -30.0290  -15.9840   20.5180 N   0  0  0  0  0  0  0  0  0  0  0  0
  -25.2990  -13.8760   20.4160 C   0  0  0  0  0  0  0  0  0  0  0  0
  -24.2600  -13.0890   20.8300 C   0  0  0  0  0  0  0  0  0  0  0  0
  -24.7280  -11.7410   20.7480 C   0  0  0  0  0  0  0  0  0  0  0  0
  -26.3330  -13.0060   20.1090 N   0  0  0  0  0  0  0  0  0  0  0  0
  -25.9990  -11.7160   20.3690 N   0  0  0  0  0  0  0  0  0  0  0  0
  -24.0200  -10.4710   20.9510 C   0  0  0  0  0  0  0  0  0  0  0  0
  -24.4760   -9.5110   21.8790 C   0  0  0  0  0  3  0  0  0  0  0  0
  -23.7670   -8.3050   22.0700 C   0  0  0  0  0  3  0  0  0  0  0  0
  -22.5890   -8.0510   21.3310 C   0  0  0  0  0  0  0  0  0  0  0  0
  -22.1500   -9.0000   20.3920 C   0  0  0  0  0  3  0  0  0  0  0  0
  -22.8600  -10.1970   20.1990 C   0  0  0  0  0  3  0  0  0  0  0  0
  -21.8490   -6.8980   21.4320 O   0  0  0  0  0  0  0  0  0  0  0  0
  -21.7800   -6.1880   22.6030 C   0  0  0  0  0  0  0  0  0  0  0  0
  -21.3080   -6.7690   23.8000 C   0  0  0  0  0  3  0  0  0  0  0  0
  -21.1870   -5.9840   24.9630 C   0  0  0  0  0  3  0  0  0  0  0  0
  -21.5290   -4.6180   24.9310 C   0  0  0  0  0  0  0  0  0  0  0  0
  -21.9920   -4.0370   23.7380 C   0  0  0  0  0  3  0  0  0  0  0  0
  -22.1160   -4.8190   22.5760 C   0  0  0  0  0  0  0  0  0  0  0  0
  -22.5440   -4.2500   21.4250 F   0  0  0  0  0  0  0  0  0  0  0  0
  -21.4040   -3.8600   26.0460 F   0  0  0  0  0  0  0  0  0  0  0  0
  -22.8770  -13.5520   21.1850 C   0  0  0  0  0  0  0  0  0  0  0  0
  -22.2030  -12.8370   22.0790 N   0  0  0  0  0  0  0  0  0  0  0  0
  -22.4060  -14.5830   20.7070 O   0  0  0  0  0  0  0  0  0  0  0  0
  -22.5970  -12.0010   22.4830 H   0  0  0  0  0  0  0  0  0  0  0  0
  -21.2770  -13.1280   22.3620 H   0  0  0  0  0  0  0  0  0  0  0  0
  -25.4430  -15.2490   20.2520 N   0  0  0  0  0  0  0  0  0  0  0  0
  -24.6790  -15.8970   20.4160 H   0  0  0  0  0  0  0  0  0  0  0  0
  -26.2690  -15.6980   19.8790 H   0  0  0  0  0  0  0  0  0  0  0  0
  -28.6170  -23.7910   19.8110 C   0  0  0  0  0  2  0  0  0  0  0  0
  -28.3750  -25.0890   20.7460 C   0  0  0  0  0  2  0  0  0  0  0  0
  -28.4350  -26.4950   20.2270 O   0  0  0  0  0  0  0  0  0  0  0  0
  -24.6040  -31.8830   23.2440 C   0  0  0  0  0  0  0  0  0  0  0  0
  -27.2950  -27.3210   20.2410 C   0  0  0  0  0  0  0  0  0  0  0  0
  -23.4330  -30.4730   21.5890 C   0  0  0  0  0  3  0  0  0  0  0  0
  -24.9140  -28.9190   20.1930 C   0  0  0  0  0  0  0  0  0  0  0  0
  -25.9730  -30.8080   21.4360 C   0  0  0  0  0  2  0  0  0  0  0  0
  -26.0740  -29.4240   20.7970 C   0  0  0  0  0  0  0  0  0  0  0  0
  -27.2690  -28.6400   20.8030 C   0  0  0  0  0  3  0  0  0  0  0  0
  -26.1120  -26.8640   19.6270 C   0  0  0  0  0  3  0  0  0  0  0  0
  -24.9370  -27.6460   19.5990 C   0  0  0  0  0  3  0  0  0  0  0  0
  -23.6730  -29.7890   20.2160 C   0  0  0  0  0  2  0  0  0  0  0  0
  -24.6880  -31.0740   22.1460 N   0  0  0  0  0  0  0  0  0  0  0  0
  -23.5110  -32.1530   23.7640 O   0  0  0  0  0  0  0  0  0  0  0  0
  -22.7620  -29.4570   22.5450 C   0  0  0  0  0  0  0  0  0  0  0  0
  -21.4360  -29.2810   22.4090 N   0  0  0  0  0  0  0  0  0  0  0  0
  -23.4360  -28.8290   23.3650 O   0  0  0  0  0  0  0  0  0  0  0  0
  -20.9530  -29.8370   21.7170 H   0  0  0  0  0  0  0  0  0  0  0  0
  -18.0540  -28.0970   22.9030 C   0  0  0  0  0  0  0  0  0  0  0  0
  -20.6140  -28.3390   23.1700 C   0  0  0  0  0  3  0  0  0  0  0  0
  -20.7080  -26.9130   22.5770 C   0  0  0  0  0  2  0  0  0  0  0  0
  -19.6000  -26.6070   21.5630 C   0  0  0  0  0  2  0  0  0  0  0  0
  -18.2220  -26.7530   22.2130 C   0  0  0  0  0  2  0  0  0  0  0  0
  -19.1770  -28.8490   23.3380 C   0  0  0  0  0  0  0  0  0  0  0  0
  -18.9680  -30.1060   23.9430 C   0  0  0  0  0  3  0  0  0  0  0  0
  -17.6660  -30.6130   24.1180 C   0  0  0  0  0  3  0  0  0  0  0  0
  -16.5570  -29.8580   23.6990 C   0  0  0  0  0  3  0  0  0  0  0  0
  -16.7510  -28.6030   23.0960 C   0  0  0  0  0  3  0  0  0  0  0  0
  -25.8720  -32.5270   23.8840 C   0  0  0  0  0  3  0  0  0  0  0  0
  -26.3710  -31.7660   25.1730 C   0  0  1  0  0  0  0  0  0  0  0  0
  -25.2620  -31.5280   26.2250 C   0  0  0  0  0  1  0  0  0  0  0  0
  -26.9680  -30.3890   24.8000 C   0  0  0  0  0  1  0  0  0  0  0  0
  -27.5060  -32.5710   25.8490 C   0  0  0  0  0  1  0  0  0  0  0  0
  -25.5490  -33.9250   24.2030 N   0  0  0  0  0  0  0  0  0  0  0  0
  -25.8830  -34.9770   23.4420 C   0  0  0  0  0  0  0  0  0  0  0  0
  -26.5630  -34.8720   22.4180 O   0  0  0  0  0  0  0  0  0  0  0  0
  -24.9440  -34.0800   24.9960 H   0  0  0  0  0  0  0  0  0  0  0  0
  -24.1480  -36.7590   23.0630 C   0  0  0  0  0  1  0  0  0  0  0  0
  -25.3830  -36.3660   23.8880 C   0  0  0  0  0  3  0  0  0  0  0  0
  -27.5040  -37.2690   24.7360 C   0  0  0  0  0  1  0  0  0  0  0  0
  -26.4110  -37.4240   23.7790 N   0  0  0  0  0  0  0  0  0  0  0  0
  -25.9980  -38.3420   23.9160 H   0  0  0  0  0  0  0  0  0  0  0  0
  1  2  1  0
  1  3  1  0
  4  9  1  0
  4  1  1  0
  5  7  1  0
  6  5  2  0
  6  9  1  0
  7 10  2  0
  8 10  1  0
  9  8  2  0
 10 20  1  0
 11 20  1  0
 12 17  1  0
 13 14  1  0
 13 12  1  0
 15 14  1  0
 15 24  1  0
 15 16  1  0
 17 11  1  0
 17 16  1  0
 18 11  2  0
 20 19  1  0
 21 22  2  0
 22 41  1  0
 23 22  1  0
 23 26  1  0
 24 25  1  0
 24 21  1  0
 25 23  2  0
 26 27  1  0
 27 28  2  0
 29 32  1  0
 29 28  1  0
 30 29  2  0
 31 30  1  0
 31 26  2  0
 32 33  1  0
 33 34  1  0
 34 35  2  0
 36 35  1  0
 36 40  1  0
 37 36  2  0
 38 33  2  0
 38 37  1  0
 39 38  1  0
 41 42  1  0
 42 45  1  0
 42 44  1  0
 43 41  2  0
 46 21  1  0
 46 47  1  0
 48 46  1  0
 49  1  1  0
 49 50  1  0
 51 53  1  0
 51 50  1  0
 52 63  2  0
 53 58  1  0
 54 62  1  0
 54 64  1  0
 55 61  1  0
 55 57  1  0
 56 62  1  0
 57 58  2  0
 57 56  1  0
 59 53  2  0
 60 59  1  0
 60 55  2  0
 61 54  1  0
 62 52  1  0
 64 66  2  0
 65 64  1  0
 67 65  1  0
 68 77  2  0
 68 73  1  0
 69 65  1  0
 69 73  1  0
 70 69  1  0
 71 72  1  0
 71 70  1  0
 72 68  1  0
 73 74  2  0
 74 75  1  0
 76 75  2  0
 77 76  1  0
 78 52  1  0
 78 83  1  0
 78 79  1  0
 79 82  1  1
 79 80  1  0
 81 79  1  0
 83 86  1  0
 84 88  1  0
 84 83  1  0
 85 84  2  0
 88 87  1  0
 90 88  1  0
 90 91  1  0
 90 89  1  0
M  ISO  4  11 100  20 100  50 101  51 101
M  END
>  <TORSDO>  (41) 
F 20

>  <SCORE>  (41) 
-13.220

>  <name>  (41) 
40

>  <ligand_id>  (41) 
40

>  <original_smiles>  (41) 
[H]c1c([H])c([H])c2c(c1[H])C([H])([H])C([H])([H])C([H])([H])C2([H])N([H])C(=O)C1([H])N(C(=O)C([H])(N([H])C(=O)C([H])(N([H])C([H])([H])[H])C([H])([H])[H])C(C([H])([H])[H])(C([H])([H])[H])C([H])([H])[H])C([H])([H])c2c([H])c(OC([H])([H])C([H])([H])[N+]([H])([H])C([H])([H])c3c([H])c([H])c([H])c(N(C(=O)N4C([H])([H])C([H])([H])C([H])([H])C([H])(n5nc(-c6c([H])c([H])c(Oc7c([H])c([H])c(F)c([H])c7F)c([H])c6[H])c(C(=O)N([H])[H])c5N([H])[H])C4([H])[H])C([H])([H])[H])c3[H])c([H])c([H])c2C1([H])[H]

>  <smiles>  (41) 
[H]c1c([H])c([H])c2c(c1[H])C([H])([H])C([H])([H])C([H])([H])C2([H])N([H])C(=O)C1([H])N(C(=O)C([H])(N([H])C(=O)C([H])(N([H])C([H])([H])[H])C([H])([H])[H])C(C([H])([H])[H])(C([H])([H])[H])C([H])([H])[H])C([H])([H])c2c([H])c(OC([H])([H])C([H])([H])[N+]([H])([H])C([H])([H])c3c([H])c([H])c([H])c(N(C(=O)N4C([H])([H])C([H])([H])C([H])([H])C([H])(n5nc(-c6c([H])c([H])c(Oc7c([H])c([H])c(F)c([H])c7F)c([H])c6[H])c(C(=O)N([H])[H])c5N([H])[H])C4([H])[H])C([H])([H])[H])c3[H])c([H])c([H])c2C1([H])[H]

$$$$
41:0:0
     RDKit          3D

 96103  0  0  1  0  0  0  0  0999 V2000
  -29.4490  -21.4800   20.1480 C   0  0  0  0  0  3  0  0  0  0  0  0
  -29.0800  -19.8580   20.1740 N   0  0  0  0  0  4  0  0  0  0  0  0
  -28.4540  -19.7910   20.9590 H   0  0  0  0  0  0  0  0  0  0  0  0
  -28.4880  -19.7120   19.3740 H   0  0  0  0  0  0  0  0  0  0  0  0
  -31.2320  -18.6270   19.2960 C   0  0  0  0  0  1  0  0  0  0  0  0
  -30.0530  -18.5050   20.2750 C   0  0  0  0  0  3  0  0  0  0  0  0
  -29.5650  -16.7860   20.2800 C   0  0  0  0  0  2  0  0  0  0  0  0
  -30.4300  -15.2740   20.1520 C   0  0  0  0  0  0  0  0  0  0  0  0
  -30.3940  -12.8490   19.2530 C   0  0  0  0  0  2  0  0  0  0  0  0
  -29.4360  -12.7250   18.0380 C   0  0  0  0  0  2  0  0  0  0  0  0
  -27.9920  -12.4620   18.5020 C   0  0  0  0  0  2  0  0  0  0  0  0
  -27.5840  -13.3810   19.6790 C   0  0  0  0  0  3  0  0  0  0  0  0
  -28.6650  -13.4690   20.7770 C   0  0  0  0  0  2  0  0  0  0  0  0
  -29.8960  -13.9590   20.1390 N   0  0  0  0  0  0  0  0  0  0  0  0
  -31.6390  -15.2870   19.8870 O   0  0  0  0  0  0  0  0  0  0  0  0
  -25.2250  -13.9170   20.4950 C   0  0  0  0  0  0  0  0  0  0  0  0
  -24.1780  -13.1290   20.8840 C   0  0  0  0  0  0  0  0  0  0  0  0
  -24.6560  -11.7830   20.8330 C   0  0  0  0  0  0  0  0  0  0  0  0
  -26.2690  -13.0530   20.2180 N   0  0  0  0  0  0  0  0  0  0  0  0
  -25.9420  -11.7630   20.4910 N   0  0  0  0  0  0  0  0  0  0  0  0
  -23.9430  -10.5130   21.0310 C   0  0  0  0  0  0  0  0  0  0  0  0
  -24.3910   -9.5470   21.9590 C   0  0  0  0  0  3  0  0  0  0  0  0
  -23.6750   -8.3450   22.1470 C   0  0  0  0  0  3  0  0  0  0  0  0
  -22.4950   -8.0990   21.4060 C   0  0  0  0  0  0  0  0  0  0  0  0
  -22.0650   -9.0520   20.4670 C   0  0  0  0  0  3  0  0  0  0  0  0
  -22.7830  -10.2470   20.2770 C   0  0  0  0  0  3  0  0  0  0  0  0
  -21.7490   -6.9480   21.5020 O   0  0  0  0  0  0  0  0  0  0  0  0
  -21.7130   -6.2090   22.6580 C   0  0  0  0  0  0  0  0  0  0  0  0
  -21.2780   -6.7630   23.8820 C   0  0  0  0  0  3  0  0  0  0  0  0
  -21.1860   -5.9500   25.0290 C   0  0  0  0  0  3  0  0  0  0  0  0
  -21.5230   -4.5860   24.9550 C   0  0  0  0  0  0  0  0  0  0  0  0
  -21.9540   -4.0320   23.7370 C   0  0  0  0  0  3  0  0  0  0  0  0
  -22.0460   -4.8410   22.5920 C   0  0  0  0  0  0  0  0  0  0  0  0
  -22.4390   -4.2980   21.4140 F   0  0  0  0  0  0  0  0  0  0  0  0
  -21.4310   -3.8030   26.0560 F   0  0  0  0  0  0  0  0  0  0  0  0
  -22.7830  -13.5920   21.1870 C   0  0  0  0  0  0  0  0  0  0  0  0
  -22.0810  -12.8810   22.0610 N   0  0  0  0  0  0  0  0  0  0  0  0
  -22.3270  -14.6190   20.6840 O   0  0  0  0  0  0  0  0  0  0  0  0
  -22.4700  -12.0540   22.4870 H   0  0  0  0  0  0  0  0  0  0  0  0
  -21.1460  -13.1700   22.3100 H   0  0  0  0  0  0  0  0  0  0  0  0
  -25.3720  -15.2920   20.3280 N   0  0  0  0  0  0  0  0  0  0  0  0
  -24.6040  -15.9400   20.4630 H   0  0  0  0  0  0  0  0  0  0  0  0
  -26.2100  -15.7390   19.9800 H   0  0  0  0  0  0  0  0  0  0  0  0
  -28.2680  -22.8000   20.1800 C   0  0  0  0  0  3  0  0  0  0  0  0
  -27.2100  -22.1580   20.9490 N   0  0  0  0  0  0  0  0  0  0  0  0
  -26.3380  -22.6530   20.7820 H   0  0  0  0  0  0  0  0  0  0  0  0
  -27.3880  -22.3020   21.9370 H   0  0  0  0  0  0  0  0  0  0  0  0
  -28.2750  -24.5050   20.7440 C   0  0  0  0  0  2  0  0  0  0  0  0
  -28.3050  -26.0340   20.1950 O   0  0  0  0  0  0  0  0  0  0  0  0
  -24.6540  -31.9120   23.2110 C   0  0  0  0  0  0  0  0  0  0  0  0
  -27.2490  -27.0640   20.2480 C   0  0  0  0  0  0  0  0  0  0  0  0
  -23.4700  -30.4930   21.5850 C   0  0  0  0  0  3  0  0  0  0  0  0
  -24.9270  -28.8840   20.1900 C   0  0  0  0  0  0  0  0  0  0  0  0
  -26.0320  -30.7340   21.4330 C   0  0  0  0  0  2  0  0  0  0  0  0
  -26.1120  -29.3180   20.7980 C   0  0  0  0  0  0  0  0  0  0  0  0
  -27.2730  -28.4310   20.7990 C   0  0  0  0  0  3  0  0  0  0  0  0
  -26.0290  -26.7570   19.6110 C   0  0  0  0  0  3  0  0  0  0  0  0
  -24.9060  -27.6210   19.5790 C   0  0  0  0  0  3  0  0  0  0  0  0
  -23.7030  -29.7950   20.2180 C   0  0  0  0  0  2  0  0  0  0  0  0
  -24.7400  -31.0730   22.1300 N   0  0  0  0  0  0  0  0  0  0  0  0
  -23.5630  -32.1990   23.7280 O   0  0  0  0  0  0  0  0  0  0  0  0
  -22.7840  -29.5000   22.5570 C   0  0  0  0  0  0  0  0  0  0  0  0
  -21.4550  -29.3280   22.4330 N   0  0  0  0  0  0  0  0  0  0  0  0
  -23.4540  -28.8830   23.3900 O   0  0  0  0  0  0  0  0  0  0  0  0
  -20.9680  -29.8780   21.7390 H   0  0  0  0  0  0  0  0  0  0  0  0
  -18.0760  -28.1240   22.9560 C   0  0  0  0  0  0  0  0  0  0  0  0
  -20.6350  -28.3940   23.2100 C   0  0  0  0  0  3  0  0  0  0  0  0
  -20.7370  -26.9590   22.6420 C   0  0  0  0  0  2  0  0  0  0  0  0
  -19.6330  -26.6300   21.6320 C   0  0  0  0  0  2  0  0  0  0  0  0
  -18.2530  -26.7740   22.2810 C   0  0  0  0  0  2  0  0  0  0  0  0
  -19.1940  -28.8920   23.3760 C   0  0  0  0  0  0  0  0  0  0  0  0
  -18.9720  -30.1540   23.9690 C   0  0  0  0  0  3  0  0  0  0  0  0
  -17.6650  -30.6480   24.1420 C   0  0  0  0  0  3  0  0  0  0  0  0
  -16.5620  -29.8780   23.7350 C   0  0  0  0  0  3  0  0  0  0  0  0
  -16.7680  -28.6160   23.1490 C   0  0  0  0  0  3  0  0  0  0  0  0
  -25.9230  -32.5660   23.8390 C   0  0  0  0  0  3  0  0  0  0  0  0
  -26.4310  -31.8130   25.1310 C   0  0  1  0  0  0  0  0  0  0  0  0
  -25.3280  -31.5830   26.1920 C   0  0  0  0  0  1  0  0  0  0  0  0
  -27.0240  -30.4320   24.7670 C   0  0  0  0  0  1  0  0  0  0  0  0
  -27.5740  -32.6200   25.7930 C   0  0  0  0  0  1  0  0  0  0  0  0
  -25.5970  -33.9660   24.1620 N   0  0  0  0  0  0  0  0  0  0  0  0
  -25.9270  -35.0220   23.4070 C   0  0  0  0  0  0  0  0  0  0  0  0
  -26.5980  -34.9210   22.3770 O   0  0  0  0  0  0  0  0  0  0  0  0
  -25.0010  -34.1180   24.9620 H   0  0  0  0  0  0  0  0  0  0  0  0
  -24.1930  -36.8130   23.0500 C   0  0  0  0  0  1  0  0  0  0  0  0
  -25.4350  -36.4110   23.8640 C   0  0  0  0  0  3  0  0  0  0  0  0
  -27.5620  -37.3070   24.7030 C   0  0  0  0  0  1  0  0  0  0  0  0
  -26.4640  -37.4680   23.7530 N   0  0  0  0  0  0  0  0  0  0  0  0
  -26.0540  -38.3870   23.8950 H   0  0  0  0  0  0  0  0  0  0  0  0
  -30.2470  -21.7930   18.8470 C   0  0  0  0  0  2  0  0  0  0  0  0
  -30.9950  -23.1450   18.8010 C   0  0  0  0  0  2  0  0  0  0  0  0
  -31.5320  -23.4710   17.3880 C   0  0  0  0  0  2  0  0  0  0  0  0
  -32.0550  -24.8440   17.2950 N   0  0  0  0  0  4  0  0  0  0  0  0
  -31.3390  -25.5150   17.5120 H   0  0  0  0  0  0  0  0  0  0  0  0
  -32.3750  -25.0290   16.3590 H   0  0  0  0  0  0  0  0  0  0  0  0
  -32.8280  -24.9750   17.9210 H   0  0  0  0  0  0  0  0  0  0  0  0
  1 90  1  0
  1  2  1  0
  1 44  1  0
  2  6  1  0
  2  3  1  0
  4  2  1  0
  6  5  1  0
  6  7  1  0
  8  7  1  0
  9 14  1  0
 10 11  1  0
 10  9  1  0
 12 11  1  0
 12 19  1  0
 12 13  1  0
 14  8  1  0
 14 13  1  0
 15  8  2  0
 16 17  2  0
 17 36  1  0
 18 17  1  0
 18 21  1  0
 19 20  1  0
 19 16  1  0
 20 18  2  0
 21 22  1  0
 22 23  2  0
 24 27  1  0
 24 23  1  0
 25 24  2  0
 26 25  1  0
 26 21  2  0
 27 28  1  0
 28 29  1  0
 29 30  2  0
 31 30  1  0
 31 35  1  0
 32 31  2  0
 33 28  2  0
 33 32  1  0
 34 33  1  0
 36 37  1  0
 37 40  1  0
 37 39  1  0
 38 36  2  0
 41 42  1  0
 41 16  1  0
 43 41  1  0
 44 48  1  0
 44 45  1  0
 45 47  1  0
 46 45  1  0
 49 51  1  0
 49 48  1  0
 50 61  2  0
 51 56  1  0
 52 60  1  0
 52 62  1  0
 53 59  1  0
 53 55  1  0
 54 60  1  0
 55 56  2  0
 55 54  1  0
 57 51  2  0
 58 57  1  0
 58 53  2  0
 59 52  1  0
 60 50  1  0
 62 64  2  0
 63 62  1  0
 65 63  1  0
 66 75  2  0
 66 71  1  0
 67 63  1  0
 67 71  1  0
 68 67  1  0
 69 70  1  0
 69 68  1  0
 70 66  1  0
 71 72  2  0
 72 73  1  0
 74 73  2  0
 75 74  1  0
 76 50  1  0
 76 81  1  0
 76 77  1  0
 77 80  1  1
 77 78  1  0
 79 77  1  0
 81 84  1  0
 82 86  1  0
 82 81  1  0
 83 82  2  0
 86 85  1  0
 88 86  1  0
 88 89  1  0
 88 87  1  0
 91 90  1  0
 92 91  1  0
 93 92  1  0
 93 94  1  0
 93 96  1  0
 95 93  1  0
M  ISO  4   7 100   8 100  48 101  49 101
M  END
>  <TORSDO>  (42) 
F 26

>  <SCORE>  (42) 
-13.887

>  <name>  (42) 
41

>  <ligand_id>  (42) 
41

>  <original_smiles>  (42) 
[H]c1c([H])c([H])c2c(c1[H])C([H])([H])C([H])([H])C([H])([H])C2([H])N([H])C(=O)C1([H])N(C(=O)C([H])(N([H])C(=O)C([H])(N([H])C([H])([H])[H])C([H])([H])[H])C(C([H])([H])[H])(C([H])([H])[H])C([H])([H])[H])C([H])([H])c2c([H])c(OC([H])([H])C([H])(N([H])[H])C([H])(C([H])([H])C([H])([H])C([H])([H])[N+]([H])([H])[H])[N+]([H])([H])C([H])(C([H])([H])[H])C([H])([H])C(=O)N3C([H])([H])C([H])([H])C([H])([H])C([H])(n4nc(-c5c([H])c([H])c(Oc6c([H])c([H])c(F)c([H])c6F)c([H])c5[H])c(C(=O)N([H])[H])c4N([H])[H])C3([H])[H])c([H])c([H])c2C1([H])[H]

>  <smiles>  (42) 
[H]c1c([H])c([H])c2c(c1[H])C([H])([H])C([H])([H])C([H])([H])C2([H])N([H])C(=O)C1([H])N(C(=O)C([H])(N([H])C(=O)C([H])(N([H])C([H])([H])[H])C([H])([H])[H])C(C([H])([H])[H])(C([H])([H])[H])C([H])([H])[H])C([H])([H])c2c([H])c(OC([H])([H])C([H])(N([H])[H])C([H])(C([H])([H])C([H])([H])C([H])([H])[N+]([H])([H])[H])[N+]([H])([H])C([H])(C([H])([H])[H])C([H])([H])C(=O)N3C([H])([H])C([H])([H])C([H])([H])C([H])(n4nc(-c5c([H])c([H])c(Oc6c([H])c([H])c(F)c([H])c6F)c([H])c5[H])c(C(=O)N([H])[H])c4N([H])[H])C3([H])[H])c([H])c([H])c2C1([H])[H]

$$$$
42:0:0
     RDKit          3D

 93101  0  0  1  0  0  0  0  0999 V2000
  -30.3380  -21.7490   20.0090 C   0  0  0  0  0  2  0  0  0  0  0  0
  -30.8880  -19.5740   21.3250 C   0  0  0  0  0  3  0  0  0  0  0  0
  -30.9280  -18.1610   21.4700 C   0  0  0  0  0  3  0  0  0  0  0  0
  -29.5810  -19.3160   19.3390 C   0  0  0  0  0  3  0  0  0  0  0  0
  -30.2100  -20.1980   20.2550 C   0  0  0  0  0  0  0  0  0  0  0  0
  -29.6020  -17.8880   19.4830 C   0  0  0  0  0  0  0  0  0  0  0  0
  -30.2800  -17.2500   20.5790 C   0  0  0  0  0  0  0  0  0  0  0  0
  -30.8010  -14.7890   20.0820 C   0  0  0  0  0  0  0  0  0  0  0  0
  -30.4390  -12.6620   18.8070 C   0  0  0  0  0  2  0  0  0  0  0  0
  -29.3960  -12.8420   17.6810 C   0  0  0  0  0  2  0  0  0  0  0  0
  -27.9600  -12.6380   18.2050 C   0  0  0  0  0  2  0  0  0  0  0  0
  -27.7000  -13.4160   19.5180 C   0  0  0  0  0  3  0  0  0  0  0  0
  -28.8380  -13.1740   20.5240 C   0  0  0  0  0  2  0  0  0  0  0  0
  -30.1100  -13.6020   19.9060 N   0  0  0  0  0  0  0  0  0  0  0  0
  -31.8460  -14.9890   19.4550 O   0  0  0  0  0  0  0  0  0  0  0  0
  -30.0430  -15.4400   22.3020 C   0  0  0  0  0  1  0  0  0  0  0  0
  -30.2690  -15.7940   20.8820 N   0  0  0  0  0  0  0  0  0  0  0  0
  -25.3640  -13.9600   20.4470 C   0  0  0  0  0  0  0  0  0  0  0  0
  -24.3380  -13.1640   20.8720 C   0  0  0  0  0  0  0  0  0  0  0  0
  -24.8130  -11.8210   20.7640 C   0  0  0  0  0  0  0  0  0  0  0  0
  -26.3950  -13.1030   20.0980 N   0  0  0  0  0  0  0  0  0  0  0  0
  -26.0750  -11.8080   20.3520 N   0  0  0  0  0  0  0  0  0  0  0  0
  -24.1200  -10.5450   20.9750 C   0  0  0  0  0  0  0  0  0  0  0  0
  -24.5570   -9.6190   21.9460 C   0  0  0  0  0  3  0  0  0  0  0  0
  -23.8610   -8.4060   22.1420 C   0  0  0  0  0  3  0  0  0  0  0  0
  -22.7140   -8.1130   21.3670 C   0  0  0  0  0  0  0  0  0  0  0  0
  -22.2960   -9.0300   20.3860 C   0  0  0  0  0  3  0  0  0  0  0  0
  -22.9930  -10.2330   20.1890 C   0  0  0  0  0  3  0  0  0  0  0  0
  -21.9890   -6.9510   21.4680 O   0  0  0  0  0  0  0  0  0  0  0  0
  -21.8300   -6.3070   22.6690 C   0  0  0  0  0  0  0  0  0  0  0  0
  -21.2340   -6.9410   23.7810 C   0  0  0  0  0  3  0  0  0  0  0  0
  -21.0260   -6.2210   24.9750 C   0  0  0  0  0  3  0  0  0  0  0  0
  -21.4040   -4.8660   25.0530 C   0  0  0  0  0  0  0  0  0  0  0  0
  -21.9910   -4.2320   23.9440 C   0  0  0  0  0  3  0  0  0  0  0  0
  -22.2010   -4.9510   22.7550 C   0  0  0  0  0  0  0  0  0  0  0  0
  -22.7480   -4.3290   21.6810 F   0  0  0  0  0  0  0  0  0  0  0  0
  -21.1970   -4.1690   26.1960 F   0  0  0  0  0  0  0  0  0  0  0  0
  -22.9590  -13.6160   21.2640 C   0  0  0  0  0  0  0  0  0  0  0  0
  -22.3240  -12.9130   22.1940 N   0  0  0  0  0  0  0  0  0  0  0  0
  -22.4560  -14.6260   20.7750 O   0  0  0  0  0  0  0  0  0  0  0  0
  -22.7450  -12.0980   22.6130 H   0  0  0  0  0  0  0  0  0  0  0  0
  -21.4020  -13.1980   22.4940 H   0  0  0  0  0  0  0  0  0  0  0  0
  -25.4920  -15.3370   20.3130 N   0  0  0  0  0  0  0  0  0  0  0  0
  -24.7240  -15.9700   20.5050 H   0  0  0  0  0  0  0  0  0  0  0  0
  -26.3260  -15.8090   19.9890 H   0  0  0  0  0  0  0  0  0  0  0  0
  -27.3370  -17.3460   18.4910 C   0  0  0  0  0  1  0  0  0  0  0  0
  -28.8470  -17.0980   18.4240 C   0  0  0  0  0  2  0  0  0  0  0  0
  -29.1740  -22.6680   20.2920 N   0  0  0  0  0  4  0  0  0  0  0  0
  -28.8000  -22.4200   21.1930 H   0  0  0  0  0  0  0  0  0  0  0  0
  -28.4650  -22.4490   19.6100 H   0  0  0  0  0  0  0  0  0  0  0  0
  -29.4680  -24.1670   20.2700 C   0  0  0  0  0  3  0  0  0  0  0  0
  -28.2360  -25.1490   20.0570 C   0  0  0  0  0  3  0  0  0  0  0  0
  -28.4250  -26.6140   20.2110 O   0  0  0  0  0  0  0  0  0  0  0  0
  -24.6430  -31.9610   23.2570 C   0  0  0  0  0  0  0  0  0  0  0  0
  -27.2860  -27.4400   20.1760 C   0  0  0  0  0  0  0  0  0  0  0  0
  -23.4450  -30.5580   21.6180 C   0  0  0  0  0  3  0  0  0  0  0  0
  -24.9020  -29.0250   20.1840 C   0  0  0  0  0  0  0  0  0  0  0  0
  -25.9800  -30.9000   21.4240 C   0  0  0  0  0  2  0  0  0  0  0  0
  -26.0690  -29.5220   20.7780 C   0  0  0  0  0  0  0  0  0  0  0  0
  -27.2640  -28.7430   20.7640 C   0  0  0  0  0  3  0  0  0  0  0  0
  -26.0890  -26.9910   19.5690 C   0  0  0  0  0  3  0  0  0  0  0  0
  -24.9140  -27.7640   19.5700 C   0  0  0  0  0  3  0  0  0  0  0  0
  -23.6610  -29.8930   20.2350 C   0  0  0  0  0  2  0  0  0  0  0  0
  -24.7090  -31.1550   22.1590 N   0  0  0  0  0  0  0  0  0  0  0  0
  -23.5580  -32.2260   23.7980 O   0  0  0  0  0  0  0  0  0  0  0  0
  -22.7950  -29.5330   22.5770 C   0  0  0  0  0  0  0  0  0  0  0  0
  -21.4770  -29.3210   22.4330 N   0  0  0  0  0  0  0  0  0  0  0  0
  -23.4770  -28.9290   23.4100 O   0  0  0  0  0  0  0  0  0  0  0  0
  -20.9810  -29.8650   21.7400 H   0  0  0  0  0  0  0  0  0  0  0  0
  -18.1260  -28.0330   22.8920 C   0  0  0  0  0  0  0  0  0  0  0  0
  -20.6710  -28.3680   23.2000 C   0  0  0  0  0  3  0  0  0  0  0  0
  -20.8220  -26.9310   22.6450 C   0  0  0  0  0  2  0  0  0  0  0  0
  -19.7470  -26.5660   21.6190 C   0  0  0  0  0  2  0  0  0  0  0  0
  -18.3510  -26.6800   22.2360 C   0  0  0  0  0  2  0  0  0  0  0  0
  -19.2170  -28.8310   23.3310 C   0  0  0  0  0  0  0  0  0  0  0  0
  -18.9520  -30.0950   23.9030 C   0  0  0  0  0  3  0  0  0  0  0  0
  -17.6320  -30.5630   24.0390 C   0  0  0  0  0  3  0  0  0  0  0  0
  -16.5560  -29.7630   23.6120 C   0  0  0  0  0  3  0  0  0  0  0  0
  -16.8040  -28.5000   23.0450 C   0  0  0  0  0  3  0  0  0  0  0  0
  -25.9230  -32.6050   23.8780 C   0  0  0  0  0  3  0  0  0  0  0  0
  -25.6050  -34.0020   24.2060 N   0  0  0  0  0  0  0  0  0  0  0  0
  -25.9130  -35.0540   23.4360 C   0  0  0  0  0  0  0  0  0  0  0  0
  -26.5680  -34.9540   22.3960 O   0  0  0  0  0  0  0  0  0  0  0  0
  -25.0330  -34.1560   25.0230 H   0  0  0  0  0  0  0  0  0  0  0  0
  -24.1630  -36.8310   23.1000 C   0  0  0  0  0  1  0  0  0  0  0  0
  -25.4190  -36.4400   23.8960 C   0  0  0  0  0  3  0  0  0  0  0  0
  -27.5530  -37.3540   24.6970 C   0  0  0  0  0  1  0  0  0  0  0  0
  -26.4390  -37.5020   23.7650 N   0  0  0  0  0  0  0  0  0  0  0  0
  -26.0240  -38.4200   23.9080 H   0  0  0  0  0  0  0  0  0  0  0  0
  -26.4470  -31.8400   25.1550 C   0  0  1  0  0  0  0  0  0  0  0  0
  -25.3580  -31.5940   26.2250 C   0  0  0  0  0  1  0  0  0  0  0  0
  -27.0400  -30.4670   24.7630 C   0  0  0  0  0  1  0  0  0  0  0  0
  -27.5880  -32.6470   25.8200 C   0  0  0  0  0  1  0  0  0  0  0  0
  1  5  1  0
  1 48  1  0
  2  3  1  0
  4  6  2  0
  4  5  1  0
  5  2  2  0
  6  7  1  0
  7 17  1  0
  7  3  2  0
  8 17  1  0
  9 14  1  0
 10 11  1  0
 10  9  1  0
 12 11  1  0
 12 21  1  0
 12 13  1  0
 14  8  1  0
 14 13  1  0
 15  8  2  0
 17 16  1  0
 18 19  2  0
 19 38  1  0
 20 19  1  0
 20 23  1  0
 21 22  1  0
 21 18  1  0
 22 20  2  0
 23 24  1  0
 24 25  2  0
 26 29  1  0
 26 25  1  0
 27 26  2  0
 28 27  1  0
 28 23  2  0
 29 30  1  0
 30 35  2  0
 30 31  1  0
 31 32  2  0
 32 33  1  0
 33 37  1  0
 34 33  2  0
 35 34  1  0
 36 35  1  0
 38 39  1  0
 39 42  1  0
 39 41  1  0
 40 38  2  0
 43 18  1  0
 43 44  1  0
 45 43  1  0
 47 46  1  0
 47  6  1  0
 48 49  1  0
 50 48  1  0
 51 48  1  0
 52 53  1  0
 52 51  2  0
 54 65  2  0
 55 53  1  0
 55 60  1  0
 56 64  1  0
 56 66  1  0
 57 63  1  0
 57 59  1  0
 58 64  1  0
 59 58  1  0
 60 59  2  0
 61 62  1  0
 61 55  2  0
 62 57  2  0
 63 56  1  0
 64 54  1  0
 66 68  2  0
 67 66  1  0
 69 67  1  0
 70 79  2  0
 70 75  1  0
 71 67  1  0
 71 75  1  0
 72 71  1  0
 73 74  1  0
 73 72  1  0
 74 70  1  0
 75 76  2  0
 76 77  1  0
 78 77  2  0
 79 78  1  0
 80 54  1  0
 80 81  1  0
 80 90  1  0
 81 84  1  0
 82 86  1  0
 82 81  1  0
 83 82  2  0
 86 85  1  0
 88 86  1  0
 88 89  1  0
 88 87  1  0
 90 93  1  1
 90 91  1  0
 92 90  1  0
M  ISO  4   8 100  17 100  52 101  53 101
M  END
>  <TORSDO>  (43) 
F 21

>  <SCORE>  (43) 
-11.979

>  <name>  (43) 
42

>  <ligand_id>  (43) 
42

>  <original_smiles>  (43) 
[H]c1c([H])c([H])c2c(c1[H])C([H])([H])C([H])([H])C([H])([H])C2([H])N([H])C(=O)C1([H])N(C(=O)C([H])(N([H])C(=O)C([H])(N([H])C([H])([H])[H])C([H])([H])[H])C(C([H])([H])[H])(C([H])([H])[H])C([H])([H])[H])C([H])([H])c2c([H])c(OC([H])([H])C([H])([H])[N+]([H])([H])C([H])([H])c3c([H])c([H])c(N(C(=O)N4C([H])([H])C([H])([H])C([H])([H])C([H])(n5nc(-c6c([H])c([H])c(Oc7c([H])c([H])c(F)c([H])c7F)c([H])c6[H])c(C(=O)N([H])[H])c5N([H])[H])C4([H])[H])C([H])([H])[H])c(C([H])([H])C([H])([H])[H])c3[H])c([H])c([H])c2C1([H])[H]

>  <smiles>  (43) 
[H]c1c([H])c([H])c2c(c1[H])C([H])([H])C([H])([H])C([H])([H])C2([H])N([H])C(=O)C1([H])N(C(=O)C([H])(N([H])C(=O)C([H])(N([H])C([H])([H])[H])C([H])([H])[H])C(C([H])([H])[H])(C([H])([H])[H])C([H])([H])[H])C([H])([H])c2c([H])c(OC([H])([H])C([H])([H])[N+]([H])([H])C([H])([H])c3c([H])c([H])c(N(C(=O)N4C([H])([H])C([H])([H])C([H])([H])C([H])(n5nc(-c6c([H])c([H])c(Oc7c([H])c([H])c(F)c([H])c7F)c([H])c6[H])c(C(=O)N([H])[H])c5N([H])[H])C4([H])[H])C([H])([H])[H])c(C([H])([H])C([H])([H])[H])c3[H])c([H])c([H])c2C1([H])[H]

$$$$
43:0:0
     RDKit          3D

 87 94  0  0  1  0  0  0  0  0999 V2000
  -29.1830  -21.2880   19.8540 N   0  0  0  0  0  4  0  0  0  0  0  0
  -28.2470  -21.1620   20.2100 H   0  0  0  0  0  0  0  0  0  0  0  0
  -30.0310  -21.3580   20.3930 H   0  0  0  0  0  0  0  0  0  0  0  0
  -29.8420  -19.7700   21.8650 C   0  0  0  0  0  1  0  0  0  0  0  0
  -29.3210  -19.7180   20.4190 C   0  0  0  0  0  3  0  0  0  0  0  0
  -30.0410  -18.2530   19.6650 C   0  0  0  0  0  2  0  0  0  0  0  0
  -30.6400  -15.3750   19.8080 C   0  0  0  0  0  0  0  0  0  0  0  0
  -30.5720  -12.9350   18.9340 C   0  0  0  0  0  2  0  0  0  0  0  0
  -29.5640  -12.7430   17.7720 C   0  0  0  0  0  2  0  0  0  0  0  0
  -28.1460  -12.4790   18.3110 C   0  0  0  0  0  2  0  0  0  0  0  0
  -27.7800  -13.4270   19.4820 C   0  0  0  0  0  3  0  0  0  0  0  0
  -28.9100  -13.5480   20.5270 C   0  0  0  0  0  2  0  0  0  0  0  0
  -30.0900  -14.0620   19.8150 N   0  0  0  0  0  0  0  0  0  0  0  0
  -31.8260  -15.4010   19.4500 O   0  0  0  0  0  0  0  0  0  0  0  0
  -29.8720  -16.6250   19.9960 N   0  0  0  0  0  0  0  0  0  0  0  0
  -28.9330  -16.4150   20.3030 H   0  0  0  0  0  0  0  0  0  0  0  0
  -25.4840  -13.9670   20.4570 C   0  0  0  0  0  0  0  0  0  0  0  0
  -24.4470  -13.1800   20.8750 C   0  0  0  0  0  0  0  0  0  0  0  0
  -24.8930  -11.8290   20.7380 C   0  0  0  0  0  0  0  0  0  0  0  0
  -26.4920  -13.0970   20.0830 N   0  0  0  0  0  0  0  0  0  0  0  0
  -26.1550  -11.8020   20.3180 N   0  0  0  0  0  0  0  0  0  0  0  0
  -24.1670  -10.5650   20.9240 C   0  0  0  0  0  0  0  0  0  0  0  0
  -24.5920   -9.6010   21.8660 C   0  0  0  0  0  3  0  0  0  0  0  0
  -23.8630   -8.4040   22.0430 C   0  0  0  0  0  3  0  0  0  0  0  0
  -22.6980   -8.1630   21.2780 C   0  0  0  0  0  0  0  0  0  0  0  0
  -22.2920   -9.1160   20.3270 C   0  0  0  0  0  3  0  0  0  0  0  0
  -23.0210  -10.3030   20.1480 C   0  0  0  0  0  3  0  0  0  0  0  0
  -21.9430   -7.0180   21.3640 O   0  0  0  0  0  0  0  0  0  0  0  0
  -21.8060   -6.3330   22.5440 C   0  0  0  0  0  0  0  0  0  0  0  0
  -21.2170   -6.9240   23.6840 C   0  0  0  0  0  3  0  0  0  0  0  0
  -21.0300   -6.1640   24.8560 C   0  0  0  0  0  3  0  0  0  0  0  0
  -21.4230   -4.8120   24.8870 C   0  0  0  0  0  0  0  0  0  0  0  0
  -22.0040   -4.2200   23.7520 C   0  0  0  0  0  3  0  0  0  0  0  0
  -22.1920   -4.9770   22.5840 C   0  0  0  0  0  0  0  0  0  0  0  0
  -22.7330   -4.3960   21.4860 F   0  0  0  0  0  0  0  0  0  0  0  0
  -21.2360   -4.0790   26.0100 F   0  0  0  0  0  0  0  0  0  0  0  0
  -23.0820  -13.6550   21.2780 C   0  0  0  0  0  0  0  0  0  0  0  0
  -22.4130  -12.9270   22.1640 N   0  0  0  0  0  0  0  0  0  0  0  0
  -22.6190  -14.7080   20.8410 O   0  0  0  0  0  0  0  0  0  0  0  0
  -22.7990  -12.0750   22.5450 H   0  0  0  0  0  0  0  0  0  0  0  0
  -21.5000  -13.2300   22.4720 H   0  0  0  0  0  0  0  0  0  0  0  0
  -25.6420  -15.3440   20.3300 N   0  0  0  0  0  0  0  0  0  0  0  0
  -24.8810  -15.9860   20.5220 H   0  0  0  0  0  0  0  0  0  0  0  0
  -26.4330  -15.7940   19.8860 H   0  0  0  0  0  0  0  0  0  0  0  0
  -28.9740  -22.8390   20.4590 C   0  0  0  0  0  3  0  0  0  0  0  0
  -28.2260  -24.3380   19.7910 C   0  0  0  0  0  3  0  0  0  0  0  0
  -28.3190  -25.9540   20.1540 O   0  0  0  0  0  0  0  0  0  0  0  0
  -24.7470  -31.8760   23.1660 C   0  0  0  0  0  0  0  0  0  0  0  0
  -27.2960  -27.0380   20.0730 C   0  0  0  0  0  0  0  0  0  0  0  0
  -23.5400  -30.4840   21.5340 C   0  0  0  0  0  3  0  0  0  0  0  0
  -24.9810  -28.9010   20.0740 C   0  0  0  0  0  0  0  0  0  0  0  0
  -26.1040  -30.7120   21.3570 C   0  0  0  0  0  2  0  0  0  0  0  0
  -26.1720  -29.3070   20.6880 C   0  0  0  0  0  0  0  0  0  0  0  0
  -27.3190  -28.3960   20.6670 C   0  0  0  0  0  3  0  0  0  0  0  0
  -26.0770  -26.7900   19.4000 C   0  0  0  0  0  3  0  0  0  0  0  0
  -24.9580  -27.6650   19.4080 C   0  0  0  0  0  3  0  0  0  0  0  0
  -23.7560  -29.8130   20.1470 C   0  0  0  0  0  2  0  0  0  0  0  0
  -24.8190  -31.0510   22.0710 N   0  0  0  0  0  0  0  0  0  0  0  0
  -23.6630  -32.1540   23.7050 O   0  0  0  0  0  0  0  0  0  0  0  0
  -22.8680  -29.4750   22.5010 C   0  0  0  0  0  0  0  0  0  0  0  0
  -21.5370  -29.3000   22.3940 N   0  0  0  0  0  0  0  0  0  0  0  0
  -23.5500  -28.8510   23.3170 O   0  0  0  0  0  0  0  0  0  0  0  0
  -21.0370  -29.8610   21.7180 H   0  0  0  0  0  0  0  0  0  0  0  0
  -18.1740  -28.0490   22.9350 C   0  0  0  0  0  0  0  0  0  0  0  0
  -20.7340  -28.3500   23.1720 C   0  0  0  0  0  3  0  0  0  0  0  0
  -20.8470  -26.9200   22.5910 C   0  0  0  0  0  2  0  0  0  0  0  0
  -19.7390  -26.5860   21.5870 C   0  0  0  0  0  2  0  0  0  0  0  0
  -18.3630  -26.7070   22.2470 C   0  0  0  0  0  2  0  0  0  0  0  0
  -19.2880  -28.8270   23.3550 C   0  0  0  0  0  0  0  0  0  0  0  0
  -19.0540  -30.0810   23.9620 C   0  0  0  0  0  3  0  0  0  0  0  0
  -17.7430  -30.5580   24.1480 C   0  0  0  0  0  3  0  0  0  0  0  0
  -16.6460  -29.7790   23.7420 C   0  0  0  0  0  3  0  0  0  0  0  0
  -16.8630  -28.5260   23.1420 C   0  0  0  0  0  3  0  0  0  0  0  0
  -26.0230  -32.5240   23.7870 C   0  0  0  0  0  3  0  0  0  0  0  0
  -26.5690  -31.7390   25.0440 C   0  0  1  0  0  0  0  0  0  0  0  0
  -25.4930  -31.4620   26.1200 C   0  0  0  0  0  1  0  0  0  0  0  0
  -27.1710  -30.3770   24.6280 C   0  0  0  0  0  1  0  0  0  0  0  0
  -27.7150  -32.5400   25.7050 C   0  0  0  0  0  1  0  0  0  0  0  0
  -25.6910  -33.9100   24.1620 N   0  0  0  0  0  0  0  0  0  0  0  0
  -25.9960  -34.9960   23.4390 C   0  0  0  0  0  0  0  0  0  0  0  0
  -26.6500  -34.9370   22.3950 O   0  0  0  0  0  0  0  0  0  0  0  0
  -25.1080  -34.0280   24.9780 H   0  0  0  0  0  0  0  0  0  0  0  0
  -24.2580  -36.7980   23.1640 C   0  0  0  0  0  1  0  0  0  0  0  0
  -25.5030  -36.3640   23.9540 C   0  0  0  0  0  3  0  0  0  0  0  0
  -27.6250  -37.2400   24.8290 C   0  0  0  0  0  1  0  0  0  0  0  0
  -26.5290  -37.4290   23.8830 N   0  0  0  0  0  0  0  0  0  0  0  0
  -26.1130  -38.3410   24.0560 H   0  0  0  0  0  0  0  0  0  0  0  0
  1  2  1  0
  1  3  1  0
  1  5  1  0
  1 45  1  0
  5  4  1  0
  6 15  1  0
  6  5  1  0
  7 13  1  0
  7 15  1  0
  8 13  1  0
  9 10  1  0
  9  8  1  0
 11 10  1  0
 11 20  1  0
 11 12  1  0
 13 12  1  0
 14  7  2  0
 15 16  1  0
 17 18  2  0
 18 37  1  0
 19 18  1  0
 19 22  1  0
 20 21  1  0
 20 17  1  0
 21 19  2  0
 22 23  1  0
 23 24  2  0
 25 28  1  0
 25 24  1  0
 26 25  2  0
 27 26  1  0
 27 22  2  0
 28 29  1  0
 29 34  2  0
 29 30  1  0
 30 31  2  0
 31 32  1  0
 32 36  1  0
 33 32  2  0
 34 33  1  0
 35 34  1  0
 37 38  1  0
 38 41  1  0
 38 40  1  0
 39 37  2  0
 42 17  1  0
 42 43  1  0
 44 42  1  0
 46 47  1  0
 46 45  2  0
 48 59  2  0
 49 47  1  0
 49 54  1  0
 50 58  1  0
 50 60  1  0
 51 57  1  0
 51 53  1  0
 52 58  1  0
 53 52  1  0
 54 53  2  0
 55 56  1  0
 55 49  2  0
 56 51  2  0
 57 50  1  0
 58 48  1  0
 60 62  2  0
 61 60  1  0
 63 61  1  0
 64 73  2  0
 64 69  1  0
 65 61  1  0
 65 69  1  0
 66 65  1  0
 67 68  1  0
 67 66  1  0
 68 64  1  0
 69 70  2  0
 70 71  1  0
 72 71  2  0
 73 72  1  0
 74 48  1  0
 74 79  1  0
 74 75  1  0
 75 78  1  1
 75 76  1  0
 77 75  1  0
 79 82  1  0
 80 84  1  0
 80 79  1  0
 81 80  2  0
 84 83  1  0
 86 84  1  0
 86 87  1  0
 86 85  1  0
M  ISO  4   7 100  15 100  46 101  47 101
M  END
>  <TORSDO>  (44) 
F 20

>  <SCORE>  (44) 
-15.303

>  <name>  (44) 
43

>  <ligand_id>  (44) 
43

>  <original_smiles>  (44) 
[H]c1c([H])c([H])c2c(c1[H])C([H])([H])C([H])([H])C([H])([H])C2([H])N([H])C(=O)C1([H])N(C(=O)C([H])(N([H])C(=O)C([H])(N([H])C([H])([H])[H])C([H])([H])[H])C(C([H])([H])[H])(C([H])([H])[H])C([H])([H])[H])C([H])([H])c2c([H])c(OC([H])([H])C([H])([H])[N+]([H])([H])C([H])(C([H])([H])[H])C([H])([H])N([H])C(=O)N3C([H])([H])C([H])([H])C([H])([H])C([H])(n4nc(-c5c([H])c([H])c(Oc6c([H])c([H])c(F)c([H])c6F)c([H])c5[H])c(C(=O)N([H])[H])c4N([H])[H])C3([H])[H])c([H])c([H])c2C1([H])[H]

>  <smiles>  (44) 
[H]c1c([H])c([H])c2c(c1[H])C([H])([H])C([H])([H])C([H])([H])C2([H])N([H])C(=O)C1([H])N(C(=O)C([H])(N([H])C(=O)C([H])(N([H])C([H])([H])[H])C([H])([H])[H])C(C([H])([H])[H])(C([H])([H])[H])C([H])([H])[H])C([H])([H])c2c([H])c(OC([H])([H])C([H])([H])[N+]([H])([H])C([H])(C([H])([H])[H])C([H])([H])N([H])C(=O)N3C([H])([H])C([H])([H])C([H])([H])C([H])(n4nc(-c5c([H])c([H])c(Oc6c([H])c([H])c(F)c([H])c6F)c([H])c5[H])c(C(=O)N([H])[H])c4N([H])[H])C3([H])[H])c([H])c([H])c2C1([H])[H]

$$$$
44:0:0
     RDKit          3D

 96104  0  0  1  0  0  0  0  0999 V2000
  -32.0660  -22.2300   16.7250 C   0  0  0  0  0  2  0  0  0  0  0  0
  -30.8080  -21.7140   16.0200 C   0  0  0  0  0  2  0  0  0  0  0  0
  -31.7720  -23.1050   17.9540 C   0  0  0  0  0  2  0  0  0  0  0  0
  -29.9570  -20.8000   16.9120 C   0  0  0  0  0  2  0  0  0  0  0  0
  -31.3380  -22.3150   19.2170 C   0  0  0  0  0  2  0  0  0  0  0  0
  -29.1500  -21.6010   17.9670 C   0  0  0  0  0  2  0  0  0  0  0  0
  -29.8340  -21.8910   19.3440 C   0  0  1  0  0  0  0  0  0  0  0  0
  -29.7510  -20.6450   20.2910 C   0  0  0  0  0  0  0  0  0  0  0  0
  -29.5610  -19.4050   19.7880 N   0  0  0  0  0  0  0  0  0  0  0  0
  -29.8230  -20.8340   21.5090 O   0  0  0  0  0  0  0  0  0  0  0  0
  -29.4970  -19.3310   18.7820 H   0  0  0  0  0  0  0  0  0  0  0  0
  -29.2660  -18.1850   20.5580 C   0  0  0  0  0  2  0  0  0  0  0  0
  -30.1960  -17.0020   20.2070 C   0  0  0  0  0  2  0  0  0  0  0  0
  -29.9170  -15.7170   21.0380 C   0  0  0  0  0  2  0  0  0  0  0  0
  -30.6800  -14.4750   20.5160 C   0  0  0  0  0  0  0  0  0  0  0  0
  -30.4410  -12.3160   19.3490 C   0  0  0  0  0  2  0  0  0  0  0  0
  -29.5100  -12.5090   18.1330 C   0  0  0  0  0  2  0  0  0  0  0  0
  -28.0290  -12.3660   18.5430 C   0  0  0  0  0  2  0  0  0  0  0  0
  -27.6710  -13.2160   19.7910 C   0  0  0  0  0  3  0  0  0  0  0  0
  -28.7050  -12.9830   20.9170 C   0  0  0  0  0  2  0  0  0  0  0  0
  -30.0350  -13.2860   20.3770 N   0  0  0  0  0  0  0  0  0  0  0  0
  -31.8310  -14.6430   20.1010 O   0  0  0  0  0  0  0  0  0  0  0  0
  -25.2600  -13.8490   20.4310 C   0  0  0  0  0  0  0  0  0  0  0  0
  -24.1830  -13.0870   20.7880 C   0  0  0  0  0  0  0  0  0  0  0  0
  -24.6440  -11.7340   20.7960 C   0  0  0  0  0  0  0  0  0  0  0  0
  -26.3070  -12.9620   20.2420 N   0  0  0  0  0  0  0  0  0  0  0  0
  -25.9390  -11.6870   20.5230 N   0  0  0  0  0  0  0  0  0  0  0  0
  -23.9130  -10.4750   20.9900 C   0  0  0  0  0  0  0  0  0  0  0  0
  -24.3280   -9.5240   21.9480 C   0  0  0  0  0  3  0  0  0  0  0  0
  -23.6030   -8.3260   22.1320 C   0  0  0  0  0  3  0  0  0  0  0  0
  -22.4480   -8.0720   21.3540 C   0  0  0  0  0  0  0  0  0  0  0  0
  -22.0490   -9.0110   20.3870 C   0  0  0  0  0  3  0  0  0  0  0  0
  -22.7750  -10.2000   20.2040 C   0  0  0  0  0  3  0  0  0  0  0  0
  -21.6970   -6.9270   21.4460 O   0  0  0  0  0  0  0  0  0  0  0  0
  -21.6330   -6.1990   22.6060 C   0  0  0  0  0  0  0  0  0  0  0  0
  -21.1900   -6.7660   23.8200 C   0  0  0  0  0  3  0  0  0  0  0  0
  -21.0750   -5.9630   24.9710 C   0  0  0  0  0  3  0  0  0  0  0  0
  -21.3900   -4.5920   24.9090 C   0  0  0  0  0  0  0  0  0  0  0  0
  -21.8310   -4.0250   23.7010 C   0  0  0  0  0  3  0  0  0  0  0  0
  -21.9470   -4.8250   22.5510 C   0  0  0  0  0  0  0  0  0  0  0  0
  -22.3480   -4.2670   21.3820 F   0  0  0  0  0  0  0  0  0  0  0  0
  -21.2720   -3.8190   26.0140 F   0  0  0  0  0  0  0  0  0  0  0  0
  -22.7780  -13.5650   21.0140 C   0  0  0  0  0  0  0  0  0  0  0  0
  -22.0300  -12.8850   21.8750 N   0  0  0  0  0  0  0  0  0  0  0  0
  -22.3500  -14.5800   20.4610 O   0  0  0  0  0  0  0  0  0  0  0  0
  -22.3820  -12.0610   22.3410 H   0  0  0  0  0  0  0  0  0  0  0  0
  -21.0890  -13.1890   22.0760 H   0  0  0  0  0  0  0  0  0  0  0  0
  -25.4320  -15.2160   20.2250 N   0  0  0  0  0  0  0  0  0  0  0  0
  -24.6690  -15.8770   20.3330 H   0  0  0  0  0  0  0  0  0  0  0  0
  -26.2850  -15.6410   19.8860 H   0  0  0  0  0  0  0  0  0  0  0  0
  -29.0600  -22.9400   20.0830 N   0  0  0  0  0  4  0  0  0  0  0  0
  -29.3850  -22.8170   21.0350 H   0  0  0  0  0  0  0  0  0  0  0  0
  -28.0950  -22.6480   20.0950 H   0  0  0  0  0  0  0  0  0  0  0  0
  -29.1580  -24.3790   19.6660 C   0  0  0  0  0  2  0  0  0  0  0  0
  -28.3720  -25.3330   20.6010 C   0  0  0  0  0  2  0  0  0  0  0  0
  -28.4440  -26.7060   20.1580 O   0  0  0  0  0  0  0  0  0  0  0  0
  -24.6130  -31.8760   23.2320 C   0  0  0  0  0  0  0  0  0  0  0  0
  -27.2670  -27.4260   20.1670 C   0  0  0  0  0  0  0  0  0  0  0  0
  -23.4100  -30.4640   21.5960 C   0  0  0  0  0  3  0  0  0  0  0  0
  -24.8670  -28.9260   20.1800 C   0  0  0  0  0  0  0  0  0  0  0  0
  -25.9380  -30.8310   21.3970 C   0  0  0  0  0  2  0  0  0  0  0  0
  -26.0290  -29.4620   20.7480 C   0  0  0  0  0  0  0  0  0  0  0  0
  -27.2350  -28.7240   20.7270 C   0  0  0  0  0  3  0  0  0  0  0  0
  -26.0830  -26.9010   19.5990 C   0  0  0  0  0  3  0  0  0  0  0  0
  -24.8860  -27.6410   19.6100 C   0  0  0  0  0  3  0  0  0  0  0  0
  -23.6210  -29.7820   20.2190 C   0  0  0  0  0  2  0  0  0  0  0  0
  -24.6720  -31.0690   22.1340 N   0  0  0  0  0  0  0  0  0  0  0  0
  -23.5310  -32.1500   23.7700 O   0  0  0  0  0  0  0  0  0  0  0  0
  -22.7610  -29.4440   22.5600 C   0  0  0  0  0  0  0  0  0  0  0  0
  -21.4360  -29.2620   22.4390 N   0  0  0  0  0  0  0  0  0  0  0  0
  -23.4470  -28.8210   23.3750 O   0  0  0  0  0  0  0  0  0  0  0  0
  -20.9430  -29.8150   21.7530 H   0  0  0  0  0  0  0  0  0  0  0  0
  -18.0620  -28.0810   22.9590 C   0  0  0  0  0  0  0  0  0  0  0  0
  -20.6240  -28.3250   23.2130 C   0  0  0  0  0  3  0  0  0  0  0  0
  -20.7150  -26.8950   22.6340 C   0  0  0  0  0  2  0  0  0  0  0  0
  -19.6050  -26.5800   21.6260 C   0  0  0  0  0  2  0  0  0  0  0  0
  -18.2290  -26.7310   22.2810 C   0  0  0  0  0  2  0  0  0  0  0  0
  -19.1880  -28.8370   23.3830 C   0  0  0  0  0  0  0  0  0  0  0  0
  -18.9790  -30.1010   23.9760 C   0  0  0  0  0  3  0  0  0  0  0  0
  -17.6790  -30.6090   24.1500 C   0  0  0  0  0  3  0  0  0  0  0  0
  -16.5670  -29.8480   23.7440 C   0  0  0  0  0  3  0  0  0  0  0  0
  -16.7600  -28.5870   23.1550 C   0  0  0  0  0  3  0  0  0  0  0  0
  -25.9000  -32.5120   23.8470 C   0  0  0  0  0  3  0  0  0  0  0  0
  -25.5830  -33.9080   24.1770 N   0  0  0  0  0  0  0  0  0  0  0  0
  -25.9100  -34.9620   23.4170 C   0  0  0  0  0  0  0  0  0  0  0  0
  -26.5760  -34.8610   22.3840 O   0  0  0  0  0  0  0  0  0  0  0  0
  -24.9840  -34.0590   24.9740 H   0  0  0  0  0  0  0  0  0  0  0  0
  -24.1730  -36.7480   23.0660 C   0  0  0  0  0  1  0  0  0  0  0  0
  -25.4160  -36.3480   23.8760 C   0  0  0  0  0  3  0  0  0  0  0  0
  -27.5460  -37.2410   24.7060 C   0  0  0  0  0  1  0  0  0  0  0  0
  -26.4430  -37.4060   23.7630 N   0  0  0  0  0  0  0  0  0  0  0  0
  -26.0320  -38.3220   23.9140 H   0  0  0  0  0  0  0  0  0  0  0  0
  -26.4240  -31.7440   25.1220 C   0  0  1  0  0  0  0  0  0  0  0  0
  -25.3330  -31.5060   26.1920 C   0  0  0  0  0  1  0  0  0  0  0  0
  -27.0100  -30.3670   24.7320 C   0  0  0  0  0  1  0  0  0  0  0  0
  -27.5710  -32.5440   25.7830 C   0  0  0  0  0  1  0  0  0  0  0  0
  1  3  1  0
  2  1  1  0
  2  4  1  0
  3  5  1  0
  4  6  1  0
  5  7  1  0
  6  7  1  0
  7 51  1  1
  7  8  1  0
  8 10  2  0
  9  8  1  0
  9 12  1  0
 11  9  1  0
 13 12  1  0
 13 14  1  0
 15 14  1  0
 16 21  1  0
 17 18  1  0
 17 16  1  0
 19 18  1  0
 19 26  1  0
 19 20  1  0
 21 15  1  0
 21 20  1  0
 22 15  2  0
 23 24  2  0
 24 25  1  0
 24 43  1  0
 25 28  1  0
 26 23  1  0
 26 27  1  0
 27 25  2  0
 28 29  1  0
 29 30  2  0
 31 34  1  0
 31 30  1  0
 32 31  2  0
 33 32  1  0
 33 28  2  0
 34 35  1  0
 35 36  1  0
 36 37  2  0
 38 37  1  0
 38 42  1  0
 39 38  2  0
 40 35  2  0
 40 39  1  0
 41 40  1  0
 43 44  1  0
 44 47  1  0
 44 46  1  0
 45 43  2  0
 48 49  1  0
 48 23  1  0
 50 48  1  0
 51 53  1  0
 51 52  1  0
 54 51  1  0
 54 55  1  0
 56 58  1  0
 56 55  1  0
 57 68  2  0
 58 63  1  0
 59 67  1  0
 59 69  1  0
 60 66  1  0
 60 62  1  0
 61 67  1  0
 62 61  1  0
 63 62  2  0
 64 65  1  0
 64 58  2  0
 65 60  2  0
 66 59  1  0
 67 57  1  0
 69 71  2  0
 70 69  1  0
 72 70  1  0
 73 82  2  0
 73 78  1  0
 74 70  1  0
 74 78  1  0
 75 74  1  0
 76 77  1  0
 76 75  1  0
 77 73  1  0
 78 79  2  0
 79 80  1  0
 81 80  2  0
 82 81  1  0
 83 57  1  0
 83 84  1  0
 83 93  1  0
 84 87  1  0
 85 89  1  0
 85 84  1  0
 86 85  2  0
 89 88  1  0
 91 89  1  0
 91 92  1  0
 91 90  1  0
 93 96  1  1
 93 94  1  0
 95 93  1  0
M  ISO  4  14 100  15 100  55 101  56 101
M  END
>  <TORSDO>  (45) 
F 23

>  <SCORE>  (45) 
-12.799

>  <name>  (45) 
44

>  <ligand_id>  (45) 
44

>  <original_smiles>  (45) 
[H]c1c([H])c([H])c2c(c1[H])C([H])([H])C([H])([H])C([H])([H])C2([H])N([H])C(=O)C1([H])N(C(=O)C([H])(N([H])C(=O)C([H])(N([H])C([H])([H])[H])C([H])([H])[H])C(C([H])([H])[H])(C([H])([H])[H])C([H])([H])[H])C([H])([H])c2c([H])c(OC([H])([H])C([H])([H])[N+]([H])([H])C3(C(=O)N([H])C([H])([H])C([H])([H])C([H])([H])C(=O)N4C([H])([H])C([H])([H])C([H])([H])C([H])(n5nc(-c6c([H])c([H])c(Oc7c([H])c([H])c(F)c([H])c7F)c([H])c6[H])c(C(=O)N([H])[H])c5N([H])[H])C4([H])[H])C([H])([H])C([H])([H])C([H])([H])C([H])([H])C([H])([H])C3([H])[H])c([H])c([H])c2C1([H])[H]

>  <smiles>  (45) 
[H]c1c([H])c([H])c2c(c1[H])C([H])([H])C([H])([H])C([H])([H])C2([H])N([H])C(=O)C1([H])N(C(=O)C([H])(N([H])C(=O)C([H])(N([H])C([H])([H])[H])C([H])([H])[H])C(C([H])([H])[H])(C([H])([H])[H])C([H])([H])[H])C([H])([H])c2c([H])c(OC([H])([H])C([H])([H])[N+]([H])([H])C3(C(=O)N([H])C([H])([H])C([H])([H])C([H])([H])C(=O)N4C([H])([H])C([H])([H])C([H])([H])C([H])(n5nc(-c6c([H])c([H])c(Oc7c([H])c([H])c(F)c([H])c7F)c([H])c6[H])c(C(=O)N([H])[H])c5N([H])[H])C4([H])[H])C([H])([H])C([H])([H])C([H])([H])C([H])([H])C([H])([H])C3([H])[H])c([H])c([H])c2C1([H])[H]

$$$$
45:0:0
     RDKit          3D

 95102  0  0  1  0  0  0  0  0999 V2000
  -28.2230  -23.3860   20.4560 C   0  0  0  0  0  3  0  0  0  0  0  0
  -27.0760  -23.2600   19.5590 N   0  0  0  0  0  0  0  0  0  0  0  0
  -27.3630  -23.6010   18.6480 H   0  0  0  0  0  0  0  0  0  0  0  0
  -25.2830  -23.3010   21.2610 C   0  0  0  0  0  1  0  0  0  0  0  0
  -24.8430  -23.7850   18.8340 C   0  0  0  0  0  1  0  0  0  0  0  0
  -25.8530  -23.9350   19.9790 C   0  0  0  0  0  3  0  0  0  0  0  0
  -28.5100  -25.0320   20.8340 C   0  0  0  0  0  2  0  0  0  0  0  0
  -28.4170  -26.4170   20.1320 O   0  0  0  0  0  0  0  0  0  0  0  0
  -24.6250  -31.9760   23.2670 C   0  0  0  0  0  0  0  0  0  0  0  0
  -27.3180  -27.3430   20.2190 C   0  0  0  0  0  0  0  0  0  0  0  0
  -23.4660  -30.5790   21.5990 C   0  0  0  0  0  3  0  0  0  0  0  0
  -24.9560  -29.0380   20.1810 C   0  0  0  0  0  0  0  0  0  0  0  0
  -26.0150  -30.8940   21.4600 C   0  0  0  0  0  2  0  0  0  0  0  0
  -26.1220  -29.5050   20.8040 C   0  0  0  0  0  0  0  0  0  0  0  0
  -27.3060  -28.6750   20.8020 C   0  0  0  0  0  3  0  0  0  0  0  0
  -26.1280  -26.9750   19.5640 C   0  0  0  0  0  3  0  0  0  0  0  0
  -24.9690  -27.7850   19.5470 C   0  0  0  0  0  3  0  0  0  0  0  0
  -23.7130  -29.9150   20.2170 C   0  0  0  0  0  2  0  0  0  0  0  0
  -24.7210  -31.1720   22.1630 N   0  0  0  0  0  0  0  0  0  0  0  0
  -23.5290  -32.2330   23.7880 O   0  0  0  0  0  0  0  0  0  0  0  0
  -22.7960  -29.5490   22.5430 C   0  0  0  0  0  0  0  0  0  0  0  0
  -21.4740  -29.3520   22.3990 N   0  0  0  0  0  0  0  0  0  0  0  0
  -23.4710  -28.9270   23.3690 O   0  0  0  0  0  0  0  0  0  0  0  0
  -20.9860  -29.9020   21.7060 H   0  0  0  0  0  0  0  0  0  0  0  0
  -18.1100  -28.0890   22.8580 C   0  0  0  0  0  0  0  0  0  0  0  0
  -20.6620  -28.3920   23.1500 C   0  0  0  0  0  3  0  0  0  0  0  0
  -20.7930  -26.9690   22.5560 C   0  0  0  0  0  2  0  0  0  0  0  0
  -19.7040  -26.6410   21.5290 C   0  0  0  0  0  2  0  0  0  0  0  0
  -18.3150  -26.7530   22.1630 C   0  0  0  0  0  2  0  0  0  0  0  0
  -19.2110  -28.8640   23.3070 C   0  0  0  0  0  0  0  0  0  0  0  0
  -18.9640  -30.1130   23.9190 C   0  0  0  0  0  3  0  0  0  0  0  0
  -17.6490  -30.5860   24.0840 C   0  0  0  0  0  3  0  0  0  0  0  0
  -16.5620  -29.8090   23.6500 C   0  0  0  0  0  3  0  0  0  0  0  0
  -16.7930  -28.5620   23.0430 C   0  0  0  0  0  3  0  0  0  0  0  0
  -25.8840  -32.6270   23.9170 C   0  0  0  0  0  3  0  0  0  0  0  0
  -25.5520  -34.0250   24.2350 N   0  0  0  0  0  0  0  0  0  0  0  0
  -25.8660  -35.0780   23.4690 C   0  0  0  0  0  0  0  0  0  0  0  0
  -26.5310  -34.9750   22.4350 O   0  0  0  0  0  0  0  0  0  0  0  0
  -24.9610  -34.1760   25.0390 H   0  0  0  0  0  0  0  0  0  0  0  0
  -24.0980  -36.8380   23.1310 C   0  0  0  0  0  1  0  0  0  0  0  0
  -25.3630  -36.4650   23.9190 C   0  0  0  0  0  3  0  0  0  0  0  0
  -27.4990  -37.4020   24.6910 C   0  0  0  0  0  1  0  0  0  0  0  0
  -26.3750  -37.5340   23.7680 N   0  0  0  0  0  0  0  0  0  0  0  0
  -25.9550  -38.4500   23.9080 H   0  0  0  0  0  0  0  0  0  0  0  0
  -26.3750  -31.8680   25.2130 C   0  0  1  0  0  0  0  0  0  0  0  0
  -25.2580  -31.6280   26.2530 C   0  0  0  0  0  1  0  0  0  0  0  0
  -26.9780  -30.4910   24.8500 C   0  0  0  0  0  1  0  0  0  0  0  0
  -27.5050  -32.6760   25.8940 C   0  0  0  0  0  1  0  0  0  0  0  0
  -29.2910  -22.0960   20.1390 C   0  0  0  0  0  3  0  0  0  0  0  0
  -29.0510  -20.6210   20.7110 N   0  0  0  0  0  4  0  0  0  0  0  0
  -29.6330  -20.5870   21.5320 H   0  0  0  0  0  0  0  0  0  0  0  0
  -28.1070  -20.6240   21.0610 H   0  0  0  0  0  0  0  0  0  0  0  0
  -29.2410  -19.1970   20.0100 C   0  0  0  0  0  2  0  0  0  0  0  0
  -29.8280  -17.8270   20.8200 C   0  0  0  0  0  2  0  0  0  0  0  0
  -30.4480  -15.1500   20.2960 C   0  0  0  0  0  0  0  0  0  0  0  0
  -30.3730  -12.8160   19.2980 C   0  0  0  0  0  2  0  0  0  0  0  0
  -29.4190  -12.7640   18.0830 C   0  0  0  0  0  2  0  0  0  0  0  0
  -27.9630  -12.5250   18.5300 C   0  0  0  0  0  2  0  0  0  0  0  0
  -27.5560  -13.4220   19.7290 C   0  0  0  0  0  3  0  0  0  0  0  0
  -28.6300  -13.4300   20.8360 C   0  0  0  0  0  2  0  0  0  0  0  0
  -29.8780  -13.8820   20.2090 N   0  0  0  0  0  0  0  0  0  0  0  0
  -31.6600  -15.2460   20.0720 O   0  0  0  0  0  0  0  0  0  0  0  0
  -29.6230  -16.3010   20.4290 N   0  0  0  0  0  0  0  0  0  0  0  0
  -28.6480  -16.0430   20.4230 H   0  0  0  0  0  0  0  0  0  0  0  0
  -25.1710  -13.9440   20.5000 C   0  0  0  0  0  0  0  0  0  0  0  0
  -24.1290  -13.1440   20.8800 C   0  0  0  0  0  0  0  0  0  0  0  0
  -24.6250  -11.8040   20.8370 C   0  0  0  0  0  0  0  0  0  0  0  0
  -26.2320  -13.0910   20.2440 N   0  0  0  0  0  0  0  0  0  0  0  0
  -25.9120  -11.7990   20.5130 N   0  0  0  0  0  0  0  0  0  0  0  0
  -23.9270  -10.5250   21.0250 C   0  0  0  0  0  0  0  0  0  0  0  0
  -24.3780   -9.5670   21.9600 C   0  0  0  0  0  3  0  0  0  0  0  0
  -23.6790   -8.3540   22.1360 C   0  0  0  0  0  3  0  0  0  0  0  0
  -22.5130   -8.0900   21.3780 C   0  0  0  0  0  0  0  0  0  0  0  0
  -22.0820   -9.0350   20.4320 C   0  0  0  0  0  3  0  0  0  0  0  0
  -22.7820  -10.2400   20.2540 C   0  0  0  0  0  3  0  0  0  0  0  0
  -21.7830   -6.9290   21.4670 O   0  0  0  0  0  0  0  0  0  0  0  0
  -21.7420   -6.1900   22.6220 C   0  0  0  0  0  0  0  0  0  0  0  0
  -21.2820   -6.7350   23.8400 C   0  0  0  0  0  3  0  0  0  0  0  0
  -21.1900   -5.9200   24.9860 C   0  0  0  0  0  3  0  0  0  0  0  0
  -21.5490   -4.5620   24.9150 C   0  0  0  0  0  0  0  0  0  0  0  0
  -22.0030   -4.0150   23.7010 C   0  0  0  0  0  3  0  0  0  0  0  0
  -22.0950   -4.8270   22.5570 C   0  0  0  0  0  0  0  0  0  0  0  0
  -22.5130   -4.2900   21.3860 F   0  0  0  0  0  0  0  0  0  0  0  0
  -21.4530   -3.7770   26.0130 F   0  0  0  0  0  0  0  0  0  0  0  0
  -22.7230  -13.5870   21.1650 C   0  0  0  0  0  0  0  0  0  0  0  0
  -22.0180  -12.8710   22.0310 N   0  0  0  0  0  0  0  0  0  0  0  0
  -22.2600  -14.6060   20.6530 O   0  0  0  0  0  0  0  0  0  0  0  0
  -22.4050  -12.0470   22.4680 H   0  0  0  0  0  0  0  0  0  0  0  0
  -21.0750  -13.1490   22.2650 H   0  0  0  0  0  0  0  0  0  0  0  0
  -25.2950  -15.3190   20.3230 N   0  0  0  0  0  0  0  0  0  0  0  0
  -24.5030  -15.9420   20.4400 H   0  0  0  0  0  0  0  0  0  0  0  0
  -26.1040  -15.7810   19.9300 H   0  0  0  0  0  0  0  0  0  0  0  0
  -28.9180  -21.6530   17.5850 C   0  0  0  0  0  1  0  0  0  0  0  0
  -30.5310  -23.4460   18.3300 C   0  0  0  0  0  1  0  0  0  0  0  0
  -29.8900  -22.0960   18.6990 C   0  0  0  0  0  3  0  0  0  0  0  0
  1  7  1  0
  2  6  1  0
  2  1  1  0
  3  2  1  0
  5  6  1  0
  6  4  1  0
  8 10  1  0
  8  7  1  0
  9 20  2  0
 10 15  1  0
 11 19  1  0
 11 21  1  0
 12 18  1  0
 12 14  1  0
 13 19  1  0
 14 13  1  0
 15 14  2  0
 16 10  2  0
 17 16  1  0
 17 12  2  0
 18 11  1  0
 19  9  1  0
 21 23  2  0
 22 21  1  0
 24 22  1  0
 25 34  2  0
 25 30  1  0
 26 22  1  0
 26 30  1  0
 27 26  1  0
 28 29  1  0
 28 27  1  0
 29 25  1  0
 30 31  2  0
 31 32  1  0
 33 32  2  0
 34 33  1  0
 35  9  1  0
 35 36  1  0
 35 45  1  0
 36 39  1  0
 37 41  1  0
 37 36  1  0
 38 37  2  0
 41 40  1  0
 43 44  1  0
 43 41  1  0
 43 42  1  0
 45 48  1  1
 45 46  1  0
 47 45  1  0
 49 95  1  0
 49  1  1  0
 49 50  1  0
 50 52  1  0
 50 51  1  0
 53 50  1  0
 53 54  1  0
 55 63  1  0
 56 61  1  0
 57 58  1  0
 57 56  1  0
 59 58  1  0
 59 68  1  0
 59 60  1  0
 61 55  1  0
 61 60  1  0
 62 55  2  0
 63 54  1  0
 64 63  1  0
 65 66  2  0
 66 85  1  0
 67 66  1  0
 67 70  1  0
 68 65  1  0
 68 69  1  0
 69 67  2  0
 70 71  1  0
 71 72  2  0
 73 76  1  0
 73 72  1  0
 74 73  2  0
 75 74  1  0
 75 70  2  0
 76 77  1  0
 77 78  1  0
 78 79  2  0
 80 79  1  0
 80 84  1  0
 81 80  2  0
 82 77  2  0
 82 81  1  0
 83 82  1  0
 85 86  1  0
 86 89  1  0
 86 88  1  0
 87 85  2  0
 90 91  1  0
 90 65  1  0
 92 90  1  0
 93 95  1  0
 94 95  1  0
M  ISO  4   7 101   8 101  55 100  63 100
M  END
>  <TORSDO>  (46) 
F 24

>  <SCORE>  (46) 
-14.316

>  <name>  (46) 
45

>  <ligand_id>  (46) 
45

>  <original_smiles>  (46) 
[H]c1c([H])c([H])c2c(c1[H])C([H])([H])C([H])([H])C([H])([H])C2([H])N([H])C(=O)C1([H])N(C(=O)C([H])(N([H])C(=O)C([H])(N([H])C([H])([H])[H])C([H])([H])[H])C(C([H])([H])[H])(C([H])([H])[H])C([H])([H])[H])C([H])([H])c2c([H])c(OC([H])([H])C([H])(N([H])C([H])(C([H])([H])[H])C([H])([H])[H])C([H])(C([H])(C([H])([H])[H])C([H])([H])[H])[N+]([H])([H])C([H])([H])C([H])([H])N([H])C(=O)N3C([H])([H])C([H])([H])C([H])([H])C([H])(n4nc(-c5c([H])c([H])c(Oc6c([H])c([H])c(F)c([H])c6F)c([H])c5[H])c(C(=O)N([H])[H])c4N([H])[H])C3([H])[H])c([H])c([H])c2C1([H])[H]

>  <smiles>  (46) 
[H]c1c([H])c([H])c2c(c1[H])C([H])([H])C([H])([H])C([H])([H])C2([H])N([H])C(=O)C1([H])N(C(=O)C([H])(N([H])C(=O)C([H])(N([H])C([H])([H])[H])C([H])([H])[H])C(C([H])([H])[H])(C([H])([H])[H])C([H])([H])[H])C([H])([H])c2c([H])c(OC([H])([H])C([H])(N([H])C([H])(C([H])([H])[H])C([H])([H])[H])C([H])(C([H])(C([H])([H])[H])C([H])([H])[H])[N+]([H])([H])C([H])([H])C([H])([H])N([H])C(=O)N3C([H])([H])C([H])([H])C([H])([H])C([H])(n4nc(-c5c([H])c([H])c(Oc6c([H])c([H])c(F)c([H])c6F)c([H])c5[H])c(C(=O)N([H])[H])c4N([H])[H])C3([H])[H])c([H])c([H])c2C1([H])[H]

$$$$
46:0:0
     RDKit          3D

 83 87  0  0  1  0  0  0  0  0999 V2000
  -28.2660  -23.3290   19.9650 C   0  0  0  0  0 15  0  0  0  0  0  0
  -28.1290  -25.1790   20.3750 O   0  0  0  0  0  1  0  0  0  0  0  0
  -24.6210  -31.8080   23.1460 C   0  0  0  0  0  0  0  0  0  0  0  0
  -27.1880  -26.5040   20.2430 C   0  0  0  0  0  0  0  0  0  0  0  0
  -23.4610  -30.3810   21.5180 C   0  0  0  0  0  3  0  0  0  0  0  0
  -24.9310  -28.6810   20.1400 C   0  0  0  0  0  0  0  0  0  0  0  0
  -26.0500  -30.4660   21.4430 C   0  0  0  0  0  2  0  0  0  0  0  0
  -26.1220  -29.0010   20.8000 C   0  0  0  0  0  0  0  0  0  0  0  0
  -27.2170  -27.9460   20.8170 C   0  0  0  0  0  3  0  0  0  0  0  0
  -25.9630  -26.4620   19.5090 C   0  0  0  0  0  3  0  0  0  0  0  0
  -24.9060  -27.4420   19.4700 C   0  0  0  0  0  3  0  0  0  0  0  0
  -23.7270  -29.6530   20.1630 C   0  0  0  0  0  2  0  0  0  0  0  0
  -24.7370  -30.9250   22.0870 N   0  0  0  0  0  0  0  0  0  0  0  0
  -23.5180  -32.1170   23.6340 O   0  0  0  0  0  0  0  0  0  0  0  0
  -22.7220  -29.4320   22.5010 C   0  0  0  0  0  0  0  0  0  0  0  0
  -21.3850  -29.2980   22.3840 N   0  0  0  0  0  0  0  0  0  0  0  0
  -23.3670  -28.8090   23.3480 O   0  0  0  0  0  0  0  0  0  0  0  0
  -20.9100  -29.8490   21.6830 H   0  0  0  0  0  0  0  0  0  0  0  0
  -17.9860  -28.1120   22.9300 C   0  0  0  0  0  0  0  0  0  0  0  0
  -20.5520  -28.3700   23.1640 C   0  0  0  0  0  3  0  0  0  0  0  0
  -20.6370  -26.9350   22.5930 C   0  0  0  0  0  2  0  0  0  0  0  0
  -19.5260  -26.6200   21.5870 C   0  0  0  0  0  2  0  0  0  0  0  0
  -18.1510  -26.7670   22.2440 C   0  0  0  0  0  2  0  0  0  0  0  0
  -19.1130  -28.8720   23.3470 C   0  0  0  0  0  0  0  0  0  0  0  0
  -18.9000  -30.1280   23.9580 C   0  0  0  0  0  3  0  0  0  0  0  0
  -17.5960  -30.6250   24.1490 C   0  0  0  0  0  3  0  0  0  0  0  0
  -16.4860  -29.8640   23.7430 C   0  0  0  0  0  3  0  0  0  0  0  0
  -16.6820  -28.6090   23.1400 C   0  0  0  0  0  3  0  0  0  0  0  0
  -25.8650  -32.4850   23.7990 C   0  0  0  0  0  3  0  0  0  0  0  0
  -25.5220  -33.8870   24.1250 N   0  0  0  0  0  0  0  0  0  0  0  0
  -25.8550  -34.9600   23.3950 C   0  0  0  0  0  0  0  0  0  0  0  0
  -26.5360  -34.8760   22.3700 O   0  0  0  0  0  0  0  0  0  0  0  0
  -24.9130  -34.0240   24.9190 H   0  0  0  0  0  0  0  0  0  0  0  0
  -24.1210  -36.7630   23.0660 C   0  0  0  0  0  1  0  0  0  0  0  0
  -25.3620  -36.3460   23.8710 C   0  0  0  0  0  3  0  0  0  0  0  0
  -27.4880  -37.2420   24.7210 C   0  0  0  0  0  1  0  0  0  0  0  0
  -26.3890  -37.4080   23.7730 N   0  0  0  0  0  0  0  0  0  0  0  0
  -25.9760  -38.3240   23.9250 H   0  0  0  0  0  0  0  0  0  0  0  0
  -26.3530  -31.7470   25.1080 C   0  0  1  0  0  0  0  0  0  0  0  0
  -25.2360  -31.5290   26.1560 C   0  0  0  0  0  1  0  0  0  0  0  0
  -26.9520  -30.3630   24.7790 C   0  0  0  0  0  1  0  0  0  0  0  0
  -27.4850  -32.5620   25.7780 C   0  0  0  0  0  1  0  0  0  0  0  0
  -28.7380  -21.3420   20.5050 C   0  0  0  0  0 15  0  0  0  0  0  0
  -29.0950  -19.4660   18.4200 C   0  0  0  0  0  1  0  0  0  0  0  0
  -29.4180  -19.4360   19.9170 C   0  0  0  0  0  2  0  0  0  0  0  0
  -30.1850  -16.0840   20.1350 C   0  0  0  0  0  0  0  0  0  0  0  0
  -30.3730  -13.4450   19.3550 C   0  0  0  0  0  2  0  0  0  0  0  0
  -29.5040  -12.8800   18.1820 C   0  0  0  0  0  2  0  0  0  0  0  0
  -28.1210  -12.4410   18.6730 C   0  0  0  0  0  2  0  0  0  0  0  0
  -27.5760  -13.4540   19.6990 C   0  0  0  0  0  3  0  0  0  0  0  0
  -28.6000  -13.9130   20.7780 C   0  0  0  0  0  2  0  0  0  0  0  0
  -29.7050  -14.6520   20.0890 N   0  0  0  0  0  0  0  0  0  0  0  0
  -31.4120  -15.9610   19.8980 O   0  0  0  0  0  0  0  0  0  0  0  0
  -29.4460  -17.5530   20.2610 N   0  0  0  0  0  0  0  0  0  0  0  0
  -28.5090  -17.3150   20.5560 H   0  0  0  0  0  0  0  0  0  0  0  0
  -25.2330  -13.9340   20.5180 C   0  0  0  0  0  0  0  0  0  0  0  0
  -24.1900  -13.1410   20.9000 C   0  0  0  0  0  0  0  0  0  0  0  0
  -24.6730  -11.7960   20.8510 C   0  0  0  0  0  0  0  0  0  0  0  0
  -26.2820  -13.0780   20.2500 N   0  0  0  0  0  0  0  0  0  0  0  0
  -25.9620  -11.7810   20.5130 N   0  0  0  0  0  0  0  0  0  0  0  0
  -23.9570  -10.5270   21.0470 C   0  0  0  0  0  0  0  0  0  0  0  0
  -24.4020   -9.5590   21.9740 C   0  0  0  0  0  3  0  0  0  0  0  0
  -23.6780   -8.3610   22.1630 C   0  0  0  0  0  3  0  0  0  0  0  0
  -22.4950   -8.1210   21.4250 C   0  0  0  0  0  0  0  0  0  0  0  0
  -22.0680   -9.0770   20.4870 C   0  0  0  0  0  3  0  0  0  0  0  0
  -22.7910  -10.2670   20.2960 C   0  0  0  0  0  3  0  0  0  0  0  0
  -21.7430   -6.9750   21.5230 O   0  0  0  0  0  0  0  0  0  0  0  0
  -21.7050   -6.2350   22.6780 C   0  0  0  0  0  0  0  0  0  0  0  0
  -21.2770   -6.7880   23.9040 C   0  0  0  0  0  3  0  0  0  0  0  0
  -21.1870   -5.9740   25.0510 C   0  0  0  0  0  3  0  0  0  0  0  0
  -21.5160   -4.6070   24.9730 C   0  0  0  0  0  0  0  0  0  0  0  0
  -21.9370   -4.0530   23.7510 C   0  0  0  0  0  3  0  0  0  0  0  0
  -22.0280   -4.8640   22.6070 C   0  0  0  0  0  0  0  0  0  0  0  0
  -22.4130   -4.3200   21.4270 F   0  0  0  0  0  0  0  0  0  0  0  0
  -21.4230   -3.8230   26.0720 F   0  0  0  0  0  0  0  0  0  0  0  0
  -22.7930  -13.6050   21.1890 C   0  0  0  0  0  0  0  0  0  0  0  0
  -22.0820  -12.9010   22.0610 N   0  0  0  0  0  0  0  0  0  0  0  0
  -22.3440  -14.6300   20.6780 O   0  0  0  0  0  0  0  0  0  0  0  0
  -22.4610  -12.0730   22.4970 H   0  0  0  0  0  0  0  0  0  0  0  0
  -21.1460  -13.1960   22.3000 H   0  0  0  0  0  0  0  0  0  0  0  0
  -25.3740  -15.3080   20.3420 N   0  0  0  0  0  0  0  0  0  0  0  0
  -24.5970  -15.9500   20.4610 H   0  0  0  0  0  0  0  0  0  0  0  0
  -26.2030  -15.7520   19.9730 H   0  0  0  0  0  0  0  0  0  0  0  0
  3 14  2  0
  4  2  1  0
  4  9  1  0
  5 13  1  0
  5 15  1  0
  6 12  1  0
  6  8  1  0
  7 13  1  0
  8  9  2  0
  8  7  1  0
 10  4  2  0
 11 10  1  0
 11  6  2  0
 12  5  1  0
 13  3  1  0
 15 17  2  0
 16 15  1  0
 18 16  1  0
 19 28  2  0
 19 24  1  0
 20 16  1  0
 20 24  1  0
 21 20  1  0
 22 23  1  0
 22 21  1  0
 23 19  1  0
 24 25  2  0
 25 26  1  0
 27 26  2  0
 28 27  1  0
 29  3  1  0
 29 30  1  0
 29 39  1  0
 30 33  1  0
 31 35  1  0
 31 30  1  0
 32 31  2  0
 35 34  1  0
 37 35  1  0
 37 38  1  0
 37 36  1  0
 39 42  1  1
 39 40  1  0
 41 39  1  0
 44 45  1  0
 45 54  1  0
 46 54  1  0
 47 52  1  0
 48 49  1  0
 48 47  1  0
 50 49  1  0
 50 59  1  0
 50 51  1  0
 52 46  1  0
 52 51  1  0
 53 46  2  0
 54 55  1  0
 56 57  2  0
 57 76  1  0
 58 57  1  0
 58 61  1  0
 59 60  1  0
 59 56  1  0
 60 58  2  0
 61 62  1  0
 62 63  2  0
 64 67  1  0
 64 63  1  0
 65 64  2  0
 66 65  1  0
 66 61  2  0
 67 68  1  0
 68 69  1  0
 69 70  2  0
 71 70  1  0
 71 75  1  0
 72 71  2  0
 73 68  2  0
 73 72  1  0
 74 73  1  0
 76 77  1  0
 77 80  1  0
 77 79  1  0
 78 76  2  0
 81 82  1  0
 81 56  1  0
 83 81  1  0
M  ISO  4   1 101   2 101  46 100  54 100
M  END
>  <TORSDO>  (47) 
F 18

>  <SCORE>  (47) 
-16.192

>  <name>  (47) 
46

>  <ligand_id>  (47) 
46

>  <original_smiles>  (47) 
[H]c1c([H])c([H])c2c(c1[H])C([H])([H])C([H])([H])C([H])([H])C2([H])N([H])C(=O)C1([H])N(C(=O)C([H])(N([H])C(=O)C([H])(N([H])C([H])([H])[H])C([H])([H])[H])C(C([H])([H])[H])(C([H])([H])[H])C([H])([H])[H])C([H])([H])c2c([H])c(OC([H])([H])C([H])([H])C([H])(N([H])C(=O)N3C([H])([H])C([H])([H])C([H])([H])C([H])(n4nc(-c5c([H])c([H])c(Oc6c([H])c([H])c(F)c([H])c6F)c([H])c5[H])c(C(=O)N([H])[H])c4N([H])[H])C3([H])[H])C([H])([H])[H])c([H])c([H])c2C1([H])[H]

>  <smiles>  (47) 
[H]c1c([H])c([H])c2c(c1[H])C([H])([H])C([H])([H])C([H])([H])C2([H])N([H])C(=O)C1([H])N(C(=O)C([H])(N([H])C(=O)C([H])(N([H])C([H])([H])[H])C([H])([H])[H])C(C([H])([H])[H])(C([H])([H])[H])C([H])([H])[H])C([H])([H])c2c([H])c(OC([H])([H])C([H])([H])C([H])(N([H])C(=O)N3C([H])([H])C([H])([H])C([H])([H])C([H])(n4nc(-c5c([H])c([H])c(Oc6c([H])c([H])c(F)c([H])c6F)c([H])c5[H])c(C(=O)N([H])[H])c4N([H])[H])C3([H])[H])C([H])([H])[H])c([H])c([H])c2C1([H])[H]

$$$$
47:0:0
     RDKit          3D

 93100  0  0  1  0  0  0  0  0999 V2000
  -30.9840  -21.9880   19.8510 C   0  0  0  0  0  1  0  0  0  0  0  0
  -29.5820  -21.7870   20.4600 C   0  0  0  0  0  3  0  0  0  0  0  0
  -29.0990  -23.0390   21.0760 N   0  0  0  0  0  0  0  0  0  0  0  0
  -28.1640  -22.8790   21.4460 H   0  0  0  0  0  0  0  0  0  0  0  0
  -29.0470  -24.2310   20.2060 C   0  0  0  0  0  2  0  0  0  0  0  0
  -28.3590  -25.4290   20.9210 C   0  0  0  0  0  2  0  0  0  0  0  0
  -28.4330  -26.6680   20.1870 O   0  0  0  0  0  0  0  0  0  0  0  0
  -24.5970  -31.8690   23.2270 C   0  0  0  0  0  0  0  0  0  0  0  0
  -27.2750  -27.4180   20.1830 C   0  0  0  0  0  0  0  0  0  0  0  0
  -23.4060  -30.4600   21.5800 C   0  0  0  0  0  3  0  0  0  0  0  0
  -24.8750  -28.9200   20.1700 C   0  0  0  0  0  0  0  0  0  0  0  0
  -25.9320  -30.8270   21.3950 C   0  0  0  0  0  2  0  0  0  0  0  0
  -26.0290  -29.4530   20.7600 C   0  0  0  0  0  0  0  0  0  0  0  0
  -27.2350  -28.7110   20.7580 C   0  0  0  0  0  3  0  0  0  0  0  0
  -26.1060  -26.9020   19.5860 C   0  0  0  0  0  3  0  0  0  0  0  0
  -24.9070  -27.6420   19.5810 C   0  0  0  0  0  3  0  0  0  0  0  0
  -23.6270  -29.7730   20.2050 C   0  0  0  0  0  2  0  0  0  0  0  0
  -24.6640  -31.0660   22.1260 N   0  0  0  0  0  0  0  0  0  0  0  0
  -23.5110  -32.1380   23.7600 O   0  0  0  0  0  0  0  0  0  0  0  0
  -22.7500  -29.4410   22.5390 C   0  0  0  0  0  0  0  0  0  0  0  0
  -21.4230  -29.2710   22.4150 N   0  0  0  0  0  0  0  0  0  0  0  0
  -23.4320  -28.8070   23.3490 O   0  0  0  0  0  0  0  0  0  0  0  0
  -20.9360  -29.8330   21.7310 H   0  0  0  0  0  0  0  0  0  0  0  0
  -18.0380  -28.1140   22.9320 C   0  0  0  0  0  0  0  0  0  0  0  0
  -20.6020  -28.3350   23.1820 C   0  0  0  0  0  3  0  0  0  0  0  0
  -20.6800  -26.9090   22.5890 C   0  0  0  0  0  2  0  0  0  0  0  0
  -19.5640  -26.6130   21.5820 C   0  0  0  0  0  2  0  0  0  0  0  0
  -18.1900  -26.7700   22.2390 C   0  0  0  0  0  2  0  0  0  0  0  0
  -19.1710  -28.8560   23.3600 C   0  0  0  0  0  0  0  0  0  0  0  0
  -18.9760  -30.1160   23.9670 C   0  0  0  0  0  3  0  0  0  0  0  0
  -17.6810  -30.6340   24.1490 C   0  0  0  0  0  3  0  0  0  0  0  0
  -16.5620  -29.8890   23.7390 C   0  0  0  0  0  3  0  0  0  0  0  0
  -16.7410  -28.6300   23.1370 C   0  0  0  0  0  3  0  0  0  0  0  0
  -25.8770  -32.5050   23.8540 C   0  0  0  0  0  3  0  0  0  0  0  0
  -26.3930  -31.7350   25.1320 C   0  0  1  0  0  0  0  0  0  0  0  0
  -25.2970  -31.4890   26.1940 C   0  0  0  0  0  1  0  0  0  0  0  0
  -26.9850  -30.3610   24.7390 C   0  0  0  0  0  1  0  0  0  0  0  0
  -27.5370  -32.5340   25.7990 C   0  0  0  0  0  1  0  0  0  0  0  0
  -25.5630  -33.9030   24.1820 N   0  0  0  0  0  0  0  0  0  0  0  0
  -25.8960  -34.9550   23.4220 C   0  0  0  0  0  0  0  0  0  0  0  0
  -26.5710  -34.8520   22.3940 O   0  0  0  0  0  0  0  0  0  0  0  0
  -24.9670  -34.0550   24.9810 H   0  0  0  0  0  0  0  0  0  0  0  0
  -24.1610  -36.7380   23.0570 C   0  0  0  0  0  1  0  0  0  0  0  0
  -25.4010  -36.3410   23.8750 C   0  0  0  0  0  3  0  0  0  0  0  0
  -27.5300  -37.2330   24.7100 C   0  0  0  0  0  1  0  0  0  0  0  0
  -26.4300  -37.3990   23.7650 N   0  0  0  0  0  0  0  0  0  0  0  0
  -26.0200  -38.3170   23.9150 H   0  0  0  0  0  0  0  0  0  0  0  0
  -29.6070  -20.6420   21.5260 C   0  0  0  0  0  2  0  0  0  0  0  0
  -29.7910  -19.2740   20.9590 N   0  0  0  0  0  4  0  0  0  0  0  0
  -30.5150  -19.2590   20.2530 H   0  0  0  0  0  0  0  0  0  0  0  0
  -28.9500  -18.9600   20.5070 H   0  0  0  0  0  0  0  0  0  0  0  0
  -30.2600  -18.2330   21.9130 C   0  0  0  0  0  2  0  0  0  0  0  0
  -30.9210  -17.0220   21.1860 C   0  0  0  0  0  3  0  0  0  0  0  0
  -31.4480  -17.4870   19.8990 N   0  0  0  0  0  0  0  0  0  0  0  0
  -31.7030  -16.6470   19.3800 H   0  0  0  0  0  0  0  0  0  0  0  0
  -32.3570  -17.9150   20.0640 H   0  0  0  0  0  0  0  0  0  0  0  0
  -30.0440  -15.7210   21.0910 C   0  0  0  0  0  2  0  0  0  0  0  0
  -30.6930  -14.4740   20.4160 C   0  0  0  0  0  0  0  0  0  0  0  0
  -30.3320  -12.3290   19.2420 C   0  0  0  0  0  2  0  0  0  0  0  0
  -29.3660  -12.5560   18.0600 C   0  0  0  0  0  2  0  0  0  0  0  0
  -27.9000  -12.4320   18.5210 C   0  0  0  0  0  2  0  0  0  0  0  0
  -27.6040  -13.2590   19.8010 C   0  0  0  0  0  3  0  0  0  0  0  0
  -28.6850  -13.0270   20.8800 C   0  0  0  0  0  2  0  0  0  0  0  0
  -29.9980  -13.3110   20.2860 N   0  0  0  0  0  0  0  0  0  0  0  0
  -31.8040  -14.6130   19.8950 O   0  0  0  0  0  0  0  0  0  0  0  0
  -25.2320  -13.8780   20.5810 C   0  0  0  0  0  0  0  0  0  0  0  0
  -24.1650  -13.1110   20.9660 C   0  0  0  0  0  0  0  0  0  0  0  0
  -24.6100  -11.7560   20.9050 C   0  0  0  0  0  0  0  0  0  0  0  0
  -26.2610  -12.9890   20.3120 N   0  0  0  0  0  0  0  0  0  0  0  0
  -25.8920  -11.7070   20.5630 N   0  0  0  0  0  0  0  0  0  0  0  0
  -23.8750  -10.4980   21.0960 C   0  0  0  0  0  0  0  0  0  0  0  0
  -24.3290   -9.5070   21.9930 C   0  0  0  0  0  3  0  0  0  0  0  0
  -23.5950   -8.3150   22.1750 C   0  0  0  0  0  3  0  0  0  0  0  0
  -22.3930   -8.1050   21.4560 C   0  0  0  0  0  0  0  0  0  0  0  0
  -21.9590   -9.0860   20.5470 C   0  0  0  0  0  3  0  0  0  0  0  0
  -22.6930  -10.2700   20.3650 C   0  0  0  0  0  3  0  0  0  0  0  0
  -21.6290   -6.9680   21.5480 O   0  0  0  0  0  0  0  0  0  0  0  0
  -21.6260   -6.1910   22.6790 C   0  0  0  0  0  0  0  0  0  0  0  0
  -21.2710   -6.7170   23.9410 C   0  0  0  0  0  3  0  0  0  0  0  0
  -21.2140   -5.8690   25.0660 C   0  0  0  0  0  3  0  0  0  0  0  0
  -21.5000   -4.4970   24.9300 C   0  0  0  0  0  0  0  0  0  0  0  0
  -21.8470   -3.9710   23.6740 C   0  0  0  0  0  3  0  0  0  0  0  0
  -21.9070   -4.8160   22.5510 C   0  0  0  0  0  0  0  0  0  0  0  0
  -22.2210   -4.3000   21.3380 F   0  0  0  0  0  0  0  0  0  0  0  0
  -21.4370   -3.6800   26.0070 F   0  0  0  0  0  0  0  0  0  0  0  0
  -22.7790  -13.5990   21.2780 C   0  0  0  0  0  0  0  0  0  0  0  0
  -22.0660  -12.8980   22.1520 N   0  0  0  0  0  0  0  0  0  0  0  0
  -22.3380  -14.6350   20.7830 O   0  0  0  0  0  0  0  0  0  0  0  0
  -22.4360  -12.0570   22.5710 H   0  0  0  0  0  0  0  0  0  0  0  0
  -21.1380  -13.2040   22.4050 H   0  0  0  0  0  0  0  0  0  0  0  0
  -25.4090  -15.2490   20.4160 N   0  0  0  0  0  0  0  0  0  0  0  0
  -24.6580  -15.9160   20.5570 H   0  0  0  0  0  0  0  0  0  0  0  0
  -26.2560  -15.6750   20.0630 H   0  0  0  0  0  0  0  0  0  0  0  0
  2  1  1  0
  2  3  1  0
  2 48  1  0
  3  4  1  0
  5  6  1  0
  5  3  1  0
  7  6  1  0
  8 19  2  0
  9  7  1  0
  9 14  1  0
 10 18  1  0
 10 20  1  0
 11 17  1  0
 11 13  1  0
 12 18  1  0
 13 12  1  0
 14 13  2  0
 15  9  2  0
 16 15  1  0
 16 11  2  0
 17 10  1  0
 18  8  1  0
 20 22  2  0
 21 20  1  0
 23 21  1  0
 24 33  2  0
 24 29  1  0
 25 21  1  0
 25 29  1  0
 26 25  1  0
 27 28  1  0
 27 26  1  0
 28 24  1  0
 29 30  2  0
 30 31  1  0
 32 31  2  0
 33 32  1  0
 34  8  1  0
 34 39  1  0
 34 35  1  0
 35 38  1  1
 35 36  1  0
 37 35  1  0
 39 42  1  0
 40 44  1  0
 40 39  1  0
 41 40  2  0
 44 43  1  0
 46 44  1  0
 46 47  1  0
 46 45  1  0
 49 48  1  0
 49 52  1  0
 50 49  1  0
 51 49  1  0
 53 57  1  0
 53 52  1  0
 54 56  1  0
 54 53  1  0
 55 54  1  0
 58 57  1  0
 59 64  1  0
 60 61  1  0
 60 59  1  0
 62 61  1  0
 62 69  1  0
 62 63  1  0
 64 58  1  0
 64 63  1  0
 65 58  2  0
 66 67  2  0
 67 86  1  0
 68 67  1  0
 68 71  1  0
 69 70  1  0
 69 66  1  0
 70 68  2  0
 71 72  1  0
 72 73  2  0
 74 77  1  0
 74 73  1  0
 75 74  2  0
 76 75  1  0
 76 71  2  0
 77 78  1  0
 78 79  1  0
 79 80  2  0
 81 80  1  0
 81 85  1  0
 82 81  2  0
 83 78  2  0
 83 82  1  0
 84 83  1  0
 86 87  1  0
 87 90  1  0
 87 89  1  0
 88 86  2  0
 91 92  1  0
 91 66  1  0
 93 91  1  0
M  ISO  4   6 101   7 101  57 100  58 100
M  END
>  <TORSDO>  (48) 
F 25

>  <SCORE>  (48) 
-12.133

>  <name>  (48) 
47

>  <ligand_id>  (48) 
47

>  <original_smiles>  (48) 
[H]c1c([H])c([H])c2c(c1[H])C([H])([H])C([H])([H])C([H])([H])C2([H])N([H])C(=O)C1([H])N(C(=O)C([H])(N([H])C(=O)C([H])(N([H])C([H])([H])[H])C([H])([H])[H])C(C([H])([H])[H])(C([H])([H])[H])C([H])([H])[H])C([H])([H])c2c([H])c(OC([H])([H])C([H])([H])N([H])C([H])(C([H])([H])[H])C([H])([H])[N+]([H])([H])C([H])([H])C([H])(N([H])[H])C([H])([H])C(=O)N3C([H])([H])C([H])([H])C([H])([H])C([H])(n4nc(-c5c([H])c([H])c(Oc6c([H])c([H])c(F)c([H])c6F)c([H])c5[H])c(C(=O)N([H])[H])c4N([H])[H])C3([H])[H])c([H])c([H])c2C1([H])[H]

>  <smiles>  (48) 
[H]c1c([H])c([H])c2c(c1[H])C([H])([H])C([H])([H])C([H])([H])C2([H])N([H])C(=O)C1([H])N(C(=O)C([H])(N([H])C(=O)C([H])(N([H])C([H])([H])[H])C([H])([H])[H])C(C([H])([H])[H])(C([H])([H])[H])C([H])([H])[H])C([H])([H])c2c([H])c(OC([H])([H])C([H])([H])N([H])C([H])(C([H])([H])[H])C([H])([H])[N+]([H])([H])C([H])([H])C([H])(N([H])[H])C([H])([H])C(=O)N3C([H])([H])C([H])([H])C([H])([H])C([H])(n4nc(-c5c([H])c([H])c(Oc6c([H])c([H])c(F)c([H])c6F)c([H])c5[H])c(C(=O)N([H])[H])c4N([H])[H])C3([H])[H])c([H])c([H])c2C1([H])[H]

$$$$
48:0:0
     RDKit          3D

 89 97  0  0  1  0  0  0  0  0999 V2000
  -31.0550  -21.4590   21.0290 C   0  0  0  0  0  1  0  0  0  0  0  0
  -29.6830  -20.9460   20.7690 N   0  0  2  0  0  4  0  0  0  0  0  0
  -29.2570  -20.9780   21.6850 H   0  0  0  0  0  0  0  0  0  0  0  0
  -30.6800  -14.9410   19.9570 C   0  0  0  0  0  0  0  0  0  0  0  0
  -30.3730  -12.6610   18.9460 C   0  0  0  0  0  2  0  0  0  0  0  0
  -29.3680  -12.6830   17.7760 C   0  0  0  0  0  2  0  0  0  0  0  0
  -27.9380  -12.4780   18.3060 C   0  0  0  0  0  2  0  0  0  0  0  0
  -27.6210  -13.3690   19.5370 C   0  0  0  0  0  3  0  0  0  0  0  0
  -28.7530  -13.3470   20.5870 C   0  0  0  0  0  2  0  0  0  0  0  0
  -29.9760  -13.7480   19.8860 N   0  0  0  0  0  0  0  0  0  0  0  0
  -31.8690  -14.8860   19.6240 O   0  0  0  0  0  0  0  0  0  0  0  0
  -30.2470  -18.8230   19.1540 C   0  0  0  0  0  2  0  0  0  0  0  0
  -28.6570  -18.3580   20.9160 C   0  0  0  0  0  2  0  0  0  0  0  0
  -30.8080  -17.3360   19.2370 C   0  0  0  0  0  2  0  0  0  0  0  0
  -29.1010  -16.7990   20.9650 C   0  0  0  0  0  2  0  0  0  0  0  0
  -29.7650  -19.3840   20.5100 C   0  0  0  0  0  3  0  0  0  0  0  0
  -30.0630  -16.2280   19.9500 N   0  0  0  0  0  0  0  0  0  0  0  0
  -25.2930  -13.9170   20.4450 C   0  0  0  0  0  0  0  0  0  0  0  0
  -24.2570  -13.1250   20.8590 C   0  0  0  0  0  0  0  0  0  0  0  0
  -24.7220  -11.7780   20.7590 C   0  0  0  0  0  0  0  0  0  0  0  0
  -26.3210  -13.0510   20.1150 N   0  0  0  0  0  0  0  0  0  0  0  0
  -25.9920  -11.7580   20.3670 N   0  0  0  0  0  0  0  0  0  0  0  0
  -24.0120  -10.5070   20.9550 C   0  0  0  0  0  0  0  0  0  0  0  0
  -24.4760   -9.5350   21.8690 C   0  0  0  0  0  3  0  0  0  0  0  0
  -23.7630   -8.3310   22.0560 C   0  0  0  0  0  3  0  0  0  0  0  0
  -22.5740   -8.0900   21.3280 C   0  0  0  0  0  0  0  0  0  0  0  0
  -22.1300   -9.0490   20.4020 C   0  0  0  0  0  3  0  0  0  0  0  0
  -22.8440  -10.2450   20.2120 C   0  0  0  0  0  3  0  0  0  0  0  0
  -21.8300   -6.9380   21.4240 O   0  0  0  0  0  0  0  0  0  0  0  0
  -21.7700   -6.2160   22.5890 C   0  0  0  0  0  0  0  0  0  0  0  0
  -21.2920   -6.7790   23.7920 C   0  0  0  0  0  3  0  0  0  0  0  0
  -21.1820   -5.9810   24.9480 C   0  0  0  0  0  3  0  0  0  0  0  0
  -21.5410   -4.6220   24.9030 C   0  0  0  0  0  0  0  0  0  0  0  0
  -22.0120   -4.0570   23.7050 C   0  0  0  0  0  3  0  0  0  0  0  0
  -22.1240   -4.8520   22.5510 C   0  0  0  0  0  0  0  0  0  0  0  0
  -22.5590   -4.2980   21.3940 F   0  0  0  0  0  0  0  0  0  0  0  0
  -21.4290   -3.8530   26.0120 F   0  0  0  0  0  0  0  0  0  0  0  0
  -22.8790  -13.5880   21.2300 C   0  0  0  0  0  0  0  0  0  0  0  0
  -22.2080  -12.8660   22.1200 N   0  0  0  0  0  0  0  0  0  0  0  0
  -22.4060  -14.6250   20.7640 O   0  0  0  0  0  0  0  0  0  0  0  0
  -22.6050  -12.0280   22.5190 H   0  0  0  0  0  0  0  0  0  0  0  0
  -21.2860  -13.1590   22.4130 H   0  0  0  0  0  0  0  0  0  0  0  0
  -25.4390  -15.2920   20.2950 N   0  0  0  0  0  0  0  0  0  0  0  0
  -24.6780  -15.9370   20.4730 H   0  0  0  0  0  0  0  0  0  0  0  0
  -26.2570  -15.7420   19.9060 H   0  0  0  0  0  0  0  0  0  0  0  0
  -28.8680  -22.0290   19.9920 C   0  0  0  0  0  2  0  0  0  0  0  0
  -29.0270  -23.6340   20.4340 C   0  0  0  0  0  3  0  0  0  0  0  0
  -28.0760  -24.8780   19.9240 C   0  0  0  0  0  3  0  0  0  0  0  0
  -28.3140  -26.3570   20.2490 O   0  0  0  0  0  0  0  0  0  0  0  0
  -24.6430  -31.9200   23.2450 C   0  0  0  0  0  0  0  0  0  0  0  0
  -27.2440  -27.2990   20.1700 C   0  0  0  0  0  0  0  0  0  0  0  0
  -23.4470  -30.5290   21.5970 C   0  0  0  0  0  3  0  0  0  0  0  0
  -24.9010  -28.9880   20.1550 C   0  0  0  0  0  0  0  0  0  0  0  0
  -25.9950  -30.8300   21.4240 C   0  0  0  0  0  2  0  0  0  0  0  0
  -26.0760  -29.4500   20.7620 C   0  0  0  0  0  0  0  0  0  0  0  0
  -27.2500  -28.6200   20.7550 C   0  0  0  0  0  3  0  0  0  0  0  0
  -26.0480  -26.9280   19.5180 C   0  0  0  0  0  3  0  0  0  0  0  0
  -24.8960  -27.7390   19.5190 C   0  0  0  0  0  3  0  0  0  0  0  0
  -23.6660  -29.8690   20.2120 C   0  0  0  0  0  2  0  0  0  0  0  0
  -24.7150  -31.1120   22.1440 N   0  0  0  0  0  0  0  0  0  0  0  0
  -23.5580  -32.1910   23.7790 O   0  0  0  0  0  0  0  0  0  0  0  0
  -22.7840  -29.5040   22.5510 C   0  0  0  0  0  0  0  0  0  0  0  0
  -21.4590  -29.3190   22.4200 N   0  0  0  0  0  0  0  0  0  0  0  0
  -23.4630  -28.8810   23.3720 O   0  0  0  0  0  0  0  0  0  0  0  0
  -20.9670  -29.8750   21.7340 H   0  0  0  0  0  0  0  0  0  0  0  0
  -18.0870  -28.0950   22.9180 C   0  0  0  0  0  0  0  0  0  0  0  0
  -20.6450  -28.3720   23.1870 C   0  0  0  0  0  3  0  0  0  0  0  0
  -20.7550  -26.9440   22.6040 C   0  0  0  0  0  2  0  0  0  0  0  0
  -19.6550  -26.6200   21.5870 C   0  0  0  0  0  2  0  0  0  0  0  0
  -18.2720  -26.7520   22.2330 C   0  0  0  0  0  2  0  0  0  0  0  0
  -19.2020  -28.8620   23.3520 C   0  0  0  0  0  0  0  0  0  0  0  0
  -18.9730  -30.1190   23.9540 C   0  0  0  0  0  3  0  0  0  0  0  0
  -17.6650  -30.6090   24.1250 C   0  0  0  0  0  3  0  0  0  0  0  0
  -16.5670  -29.8400   23.7060 C   0  0  0  0  0  3  0  0  0  0  0  0
  -16.7780  -28.5840   23.1090 C   0  0  0  0  0  3  0  0  0  0  0  0
  -25.9200  -32.5580   23.8720 C   0  0  0  0  0  3  0  0  0  0  0  0
  -26.4180  -31.8040   25.1660 C   0  0  1  0  0  0  0  0  0  0  0  0
  -25.3100  -31.5840   26.2220 C   0  0  0  0  0  1  0  0  0  0  0  0
  -27.0040  -30.4200   24.8050 C   0  0  0  0  0  1  0  0  0  0  0  0
  -27.5600  -32.6070   25.8320 C   0  0  0  0  0  1  0  0  0  0  0  0
  -25.6120  -33.9620   24.1820 N   0  0  0  0  0  0  0  0  0  0  0  0
  -25.9180  -35.0030   23.3960 C   0  0  0  0  0  0  0  0  0  0  0  0
  -26.5600  -34.8820   22.3490 O   0  0  0  0  0  0  0  0  0  0  0  0
  -25.0380  -34.1290   24.9960 H   0  0  0  0  0  0  0  0  0  0  0  0
  -24.1630  -36.7770   23.0720 C   0  0  0  0  0  1  0  0  0  0  0  0
  -25.4400  -36.3990   23.8410 C   0  0  0  0  0  3  0  0  0  0  0  0
  -27.5940  -37.3250   24.5720 C   0  0  0  0  0  1  0  0  0  0  0  0
  -26.4590  -37.4560   23.6620 N   0  0  0  0  0  0  0  0  0  0  0  0
  -26.0490  -38.3770   23.7980 H   0  0  0  0  0  0  0  0  0  0  0  0
  2  1  1  0
  2  3  1  1
  5 10  1  0
  6  7  1  0
  6  5  1  0
  8  7  1  0
  8 21  1  0
  8  9  1  0
 10  4  1  0
 10  9  1  0
 11  4  2  0
 12 14  1  0
 12 16  1  0
 13 15  1  0
 14 17  1  0
 16  2  1  0
 16 13  1  0
 17  4  1  0
 17 15  1  0
 18 19  2  0
 19 38  1  0
 20 19  1  0
 20 23  1  0
 21 22  1  0
 21 18  1  0
 22 20  2  0
 23 24  1  0
 24 25  2  0
 26 29  1  0
 26 25  1  0
 27 26  2  0
 28 27  1  0
 28 23  2  0
 29 30  1  0
 30 31  1  0
 31 32  2  0
 33 32  1  0
 33 37  1  0
 34 33  2  0
 35 30  2  0
 35 34  1  0
 36 35  1  0
 38 39  1  0
 39 42  1  0
 39 41  1  0
 40 38  2  0
 43 18  1  0
 43 44  1  0
 45 43  1  0
 46 47  1  0
 46  2  1  0
 48 49  1  0
 48 47  2  0
 50 61  2  0
 51 49  1  0
 51 56  1  0
 52 60  1  0
 52 62  1  0
 53 59  1  0
 53 55  1  0
 54 60  1  0
 55 54  1  0
 56 55  2  0
 57 58  1  0
 57 51  2  0
 58 53  2  0
 59 52  1  0
 60 50  1  0
 62 64  2  0
 63 62  1  0
 65 63  1  0
 66 75  2  0
 66 71  1  0
 67 63  1  0
 67 71  1  0
 68 67  1  0
 69 70  1  0
 69 68  1  0
 70 66  1  0
 71 72  2  0
 72 73  1  0
 74 73  2  0
 75 74  1  0
 76 50  1  0
 76 81  1  0
 76 77  1  0
 77 80  1  1
 77 78  1  0
 79 77  1  0
 81 84  1  0
 82 86  1  0
 82 81  1  0
 83 82  2  0
 86 85  1  0
 88 89  1  0
 88 86  1  0
 88 87  1  0
M  ISO  4   4 100  17 100  48 101  49 101
M  END
>  <TORSDO>  (49) 
F 19

>  <SCORE>  (49) 
-13.902

>  <name>  (49) 
48

>  <ligand_id>  (49) 
48

>  <original_smiles>  (49) 
[H]c1c([H])c([H])c2c(c1[H])C([H])([H])C([H])([H])C([H])([H])C2([H])N([H])C(=O)C1([H])N(C(=O)C([H])(N([H])C(=O)C([H])(N([H])C([H])([H])[H])C([H])([H])[H])C(C([H])([H])[H])(C([H])([H])[H])C([H])([H])[H])C([H])([H])c2c([H])c(OC([H])([H])C([H])([H])C([H])([H])[N+]([H])(C([H])([H])[H])C3([H])C([H])([H])C([H])([H])N(C(=O)N4C([H])([H])C([H])([H])C([H])([H])C([H])(n5nc(-c6c([H])c([H])c(Oc7c([H])c([H])c(F)c([H])c7F)c([H])c6[H])c(C(=O)N([H])[H])c5N([H])[H])C4([H])[H])C([H])([H])C3([H])[H])c([H])c([H])c2C1([H])[H]

>  <smiles>  (49) 
[H]c1c([H])c([H])c2c(c1[H])C([H])([H])C([H])([H])C([H])([H])C2([H])N([H])C(=O)C1([H])N(C(=O)C([H])(N([H])C(=O)C([H])(N([H])C([H])([H])[H])C([H])([H])[H])C(C([H])([H])[H])(C([H])([H])[H])C([H])([H])[H])C([H])([H])c2c([H])c(OC([H])([H])C([H])([H])C([H])([H])[N+]([H])(C([H])([H])[H])C3([H])C([H])([H])C([H])([H])N(C(=O)N4C([H])([H])C([H])([H])C([H])([H])C([H])(n5nc(-c6c([H])c([H])c(Oc7c([H])c([H])c(F)c([H])c7F)c([H])c6[H])c(C(=O)N([H])[H])c5N([H])[H])C4([H])[H])C([H])([H])C3([H])[H])c([H])c([H])c2C1([H])[H]

$$$$
49:0:0
     RDKit          3D

 90 97  0  0  1  0  0  0  0  0999 V2000
  -29.1660  -21.2280   20.6220 N   0  0  0  0  0  4  0  0  0  0  0  0
  -28.5840  -21.1580   21.4420 H   0  0  0  0  0  0  0  0  0  0  0  0
  -30.1040  -21.3580   20.9780 H   0  0  0  0  0  0  0  0  0  0  0  0
  -27.7160  -19.1670   19.9910 C   0  0  0  0  0  1  0  0  0  0  0  0
  -29.1600  -19.6880   19.9520 C   0  0  0  0  0  3  0  0  0  0  0  0
  -30.2090  -18.2450   20.3010 C   0  0  0  0  0  3  0  0  0  0  0  0
  -30.7560  -15.3440   19.9140 C   0  0  0  0  0  0  0  0  0  0  0  0
  -30.6960  -12.8800   19.0870 C   0  0  0  0  0  2  0  0  0  0  0  0
  -29.7180  -12.6230   17.9150 C   0  0  0  0  0  2  0  0  0  0  0  0
  -28.2900  -12.3720   18.4340 C   0  0  0  0  0  2  0  0  0  0  0  0
  -27.8890  -13.3780   19.5420 C   0  0  0  0  0  3  0  0  0  0  0  0
  -28.9880  -13.5620   20.6090 C   0  0  0  0  0  2  0  0  0  0  0  0
  -30.1840  -14.0450   19.8970 N   0  0  0  0  0  0  0  0  0  0  0  0
  -31.9750  -15.3400   19.6840 O   0  0  0  0  0  0  0  0  0  0  0  0
  -29.9860  -16.6120   19.9930 N   0  0  0  0  0  0  0  0  0  0  0  0
  -29.0000  -16.3900   19.9880 H   0  0  0  0  0  0  0  0  0  0  0  0
  -25.5900  -13.9840   20.4610 C   0  0  0  0  0  0  0  0  0  0  0  0
  -24.5280  -13.2300   20.8750 C   0  0  0  0  0  0  0  0  0  0  0  0
  -24.9480  -11.8670   20.7670 C   0  0  0  0  0  0  0  0  0  0  0  0
  -26.5850  -13.0860   20.1220 N   0  0  0  0  0  0  0  0  0  0  0  0
  -26.2160  -11.8030   20.3740 N   0  0  0  0  0  0  0  0  0  0  0  0
  -24.1900  -10.6220   20.9590 C   0  0  0  0  0  0  0  0  0  0  0  0
  -24.6090   -9.6350   21.8780 C   0  0  0  0  0  3  0  0  0  0  0  0
  -23.8520   -8.4560   22.0610 C   0  0  0  0  0  3  0  0  0  0  0  0
  -22.6610   -8.2580   21.3260 C   0  0  0  0  0  0  0  0  0  0  0  0
  -22.2580   -9.2320   20.3970 C   0  0  0  0  0  3  0  0  0  0  0  0
  -23.0140  -10.4030   20.2120 C   0  0  0  0  0  3  0  0  0  0  0  0
  -21.8780   -7.1310   21.4180 O   0  0  0  0  0  0  0  0  0  0  0  0
  -21.7830   -6.4150   22.5830 C   0  0  0  0  0  0  0  0  0  0  0  0
  -21.3160   -6.9980   23.7820 C   0  0  0  0  0  3  0  0  0  0  0  0
  -21.1710   -6.2090   24.9390 C   0  0  0  0  0  3  0  0  0  0  0  0
  -21.4770   -4.8350   24.8980 C   0  0  0  0  0  0  0  0  0  0  0  0
  -21.9340   -4.2500   23.7040 C   0  0  0  0  0  3  0  0  0  0  0  0
  -22.0860   -5.0380   22.5500 C   0  0  0  0  0  0  0  0  0  0  0  0
  -22.5070   -4.4650   21.3960 F   0  0  0  0  0  0  0  0  0  0  0  0
  -21.3290   -4.0730   26.0080 F   0  0  0  0  0  0  0  0  0  0  0  0
  -23.1660  -13.7420   21.2400 C   0  0  0  0  0  0  0  0  0  0  0  0
  -22.4700  -13.0500   22.1340 N   0  0  0  0  0  0  0  0  0  0  0  0
  -22.7330  -14.7940   20.7720 O   0  0  0  0  0  0  0  0  0  0  0  0
  -22.8340  -12.1990   22.5370 H   0  0  0  0  0  0  0  0  0  0  0  0
  -21.5570  -13.3760   22.4190 H   0  0  0  0  0  0  0  0  0  0  0  0
  -25.7830  -15.3540   20.3110 N   0  0  0  0  0  0  0  0  0  0  0  0
  -25.0270  -16.0140   20.4600 H   0  0  0  0  0  0  0  0  0  0  0  0
  -26.5810  -15.7650   19.8480 H   0  0  0  0  0  0  0  0  0  0  0  0
  -30.5960  -18.2690   21.8040 C   0  0  0  0  0  2  0  0  0  0  0  0
  -31.4810  -19.4340   22.2480 C   0  0  0  0  0  3  0  0  0  0  0  0
  -32.2670  -19.9800   21.4640 O   0  0  0  0  0  0  0  0  0  0  0  0
  -28.7960  -22.7280   19.9700 C   0  0  0  0  0  2  0  0  0  0  0  0
  -28.2840  -24.2800   20.7440 C   0  0  0  0  0  2  0  0  0  0  0  0
  -28.4150  -25.9010   20.4250 O   0  0  0  0  0  0  0  0  0  0  0  0
  -24.6940  -31.8510   23.2460 C   0  0  0  0  0  0  0  0  0  0  0  0
  -27.3690  -26.9600   20.3930 C   0  0  0  0  0  0  0  0  0  0  0  0
  -23.5540  -30.4200   21.5970 C   0  0  0  0  0  3  0  0  0  0  0  0
  -25.0520  -28.8060   20.2440 C   0  0  0  0  0  0  0  0  0  0  0  0
  -26.1180  -30.6630   21.5070 C   0  0  0  0  0  2  0  0  0  0  0  0
  -26.2200  -29.2420   20.8850 C   0  0  0  0  0  0  0  0  0  0  0  0
  -27.3780  -28.3430   20.9250 C   0  0  0  0  0  3  0  0  0  0  0  0
  -26.1720  -26.6720   19.7050 C   0  0  0  0  0  3  0  0  0  0  0  0
  -25.0520  -27.5400   19.6340 C   0  0  0  0  0  3  0  0  0  0  0  0
  -23.8240  -29.7140   20.2400 C   0  0  0  0  0  2  0  0  0  0  0  0
  -24.8070  -31.0070   22.1700 N   0  0  0  0  0  0  0  0  0  0  0  0
  -23.5890  -32.1350   23.7390 O   0  0  0  0  0  0  0  0  0  0  0  0
  -22.8480  -29.4310   22.5610 C   0  0  0  0  0  0  0  0  0  0  0  0
  -21.5220  -29.2580   22.4160 N   0  0  0  0  0  0  0  0  0  0  0  0
  -23.5040  -28.8170   23.4070 O   0  0  0  0  0  0  0  0  0  0  0  0
  -21.0440  -29.8030   21.7120 H   0  0  0  0  0  0  0  0  0  0  0  0
  -18.1370  -28.0400   22.8780 C   0  0  0  0  0  0  0  0  0  0  0  0
  -20.6910  -28.3230   23.1820 C   0  0  0  0  0  3  0  0  0  0  0  0
  -20.8090  -26.8840   22.6220 C   0  0  0  0  0  2  0  0  0  0  0  0
  -19.7250  -26.5490   21.5930 C   0  0  0  0  0  2  0  0  0  0  0  0
  -18.3330  -26.6900   22.2120 C   0  0  0  0  0  2  0  0  0  0  0  0
  -19.2430  -28.8130   23.3200 C   0  0  0  0  0  0  0  0  0  0  0  0
  -19.0030  -30.0780   23.9020 C   0  0  0  0  0  3  0  0  0  0  0  0
  -17.6900  -30.5660   24.0490 C   0  0  0  0  0  3  0  0  0  0  0  0
  -16.5990  -29.7890   23.6240 C   0  0  0  0  0  3  0  0  0  0  0  0
  -16.8250  -28.5280   23.0420 C   0  0  0  0  0  3  0  0  0  0  0  0
  -25.9420  -32.5160   23.9000 C   0  0  0  0  0  3  0  0  0  0  0  0
  -26.4220  -31.7740   25.2070 C   0  0  1  0  0  0  0  0  0  0  0  0
  -25.2980  -31.5450   26.2420 C   0  0  0  0  0  1  0  0  0  0  0  0
  -27.0350  -30.3970   24.8670 C   0  0  0  0  0  1  0  0  0  0  0  0
  -27.5380  -32.5970   25.8930 C   0  0  0  0  0  1  0  0  0  0  0  0
  -25.6010  -33.9160   24.2100 N   0  0  0  0  0  0  0  0  0  0  0  0
  -25.9270  -34.9710   23.4520 C   0  0  0  0  0  0  0  0  0  0  0  0
  -26.6090  -34.8730   22.4320 O   0  0  0  0  0  0  0  0  0  0  0  0
  -24.9950  -34.0650   25.0030 H   0  0  0  0  0  0  0  0  0  0  0  0
  -24.1750  -36.7430   23.0790 C   0  0  0  0  0  1  0  0  0  0  0  0
  -25.4160  -36.3570   23.9000 C   0  0  0  0  0  3  0  0  0  0  0  0
  -27.5290  -37.2870   24.7390 C   0  0  0  0  0  1  0  0  0  0  0  0
  -26.4310  -37.4280   23.7870 N   0  0  0  0  0  0  0  0  0  0  0  0
  -26.0060  -38.3410   23.9270 H   0  0  0  0  0  0  0  0  0  0  0  0
  1  3  1  0
  1  2  1  0
  5  4  1  0
  5  6  1  0
  5  1  1  0
  6 45  1  0
  7 15  1  0
  8 13  1  0
  9 10  1  0
  9  8  1  0
 11 10  1  0
 11 20  1  0
 11 12  1  0
 13  7  1  0
 13 12  1  0
 14  7  2  0
 15  6  1  0
 16 15  1  0
 17 18  2  0
 18 37  1  0
 19 18  1  0
 19 22  1  0
 20 21  1  0
 20 17  1  0
 21 19  2  0
 22 23  1  0
 23 24  2  0
 25 28  1  0
 25 24  1  0
 26 25  2  0
 27 26  1  0
 27 22  2  0
 28 29  1  0
 29 30  1  0
 30 31  2  0
 32 31  1  0
 32 36  1  0
 33 32  2  0
 34 29  2  0
 34 33  1  0
 35 34  1  0
 37 38  1  0
 38 41  1  0
 38 40  1  0
 39 37  2  0
 42 43  1  0
 42 17  1  0
 44 42  1  0
 45 46  1  0
 47 46  2  0
 48  1  1  0
 48 49  1  0
 50 49  1  0
 51 62  2  0
 52 50  1  0
 52 57  1  0
 53 61  1  0
 53 63  1  0
 54 56  1  0
 55 61  1  0
 56 57  2  0
 56 55  1  0
 58 52  2  0
 59 58  1  0
 59 54  2  0
 60 54  1  0
 60 53  1  0
 61 51  1  0
 63 65  2  0
 64 63  1  0
 66 64  1  0
 67 76  2  0
 67 72  1  0
 68 64  1  0
 68 72  1  0
 69 68  1  0
 70 71  1  0
 70 69  1  0
 71 67  1  0
 72 73  2  0
 73 74  1  0
 75 74  2  0
 76 75  1  0
 77 51  1  0
 77 82  1  0
 77 78  1  0
 78 81  1  1
 78 79  1  0
 80 78  1  0
 82 85  1  0
 83 87  1  0
 83 82  1  0
 84 83  2  0
 87 86  1  0
 89 87  1  0
 89 90  1  0
 89 88  1  0
M  ISO  4   7 100  15 100  49 101  50 101
M  END
>  <TORSDO>  (50) 
F 22

>  <SCORE>  (50) 
-15.732

>  <name>  (50) 
49

>  <ligand_id>  (50) 
49

>  <original_smiles>  (50) 
[H]C(=O)C([H])([H])C([H])(N([H])C(=O)N1C([H])([H])C([H])([H])C([H])([H])C([H])(n2nc(-c3c([H])c([H])c(Oc4c([H])c([H])c(F)c([H])c4F)c([H])c3[H])c(C(=O)N([H])[H])c2N([H])[H])C1([H])[H])C([H])(C([H])([H])[H])[N+]([H])([H])C([H])([H])C([H])([H])Oc1c([H])c([H])c2c(c1[H])C([H])([H])N(C(=O)C([H])(N([H])C(=O)C([H])(N([H])C([H])([H])[H])C([H])([H])[H])C(C([H])([H])[H])(C([H])([H])[H])C([H])([H])[H])C([H])(C(=O)N([H])C1([H])c3c([H])c([H])c([H])c([H])c3C([H])([H])C([H])([H])C1([H])[H])C2([H])[H]

>  <smiles>  (50) 
[H]C(=O)C([H])([H])C([H])(N([H])C(=O)N1C([H])([H])C([H])([H])C([H])([H])C([H])(n2nc(-c3c([H])c([H])c(Oc4c([H])c([H])c(F)c([H])c4F)c([H])c3[H])c(C(=O)N([H])[H])c2N([H])[H])C1([H])[H])C([H])(C([H])([H])[H])[N+]([H])([H])C([H])([H])C([H])([H])Oc1c([H])c([H])c2c(c1[H])C([H])([H])N(C(=O)C([H])(N([H])C(=O)C([H])(N([H])C([H])([H])[H])C([H])([H])[H])C(C([H])([H])[H])(C([H])([H])[H])C([H])([H])[H])C([H])(C(=O)N([H])C1([H])c3c([H])c([H])c([H])c([H])c3C([H])([H])C([H])([H])C1([H])[H])C2([H])[H]

$$$$
50:0:0
     RDKit          3D

 95104  0  0  1  0  0  0  0  0999 V2000
  -27.1570  -18.2190   20.1030 N   0  0  0  0  0  4  0  0  0  0  0  0
  -26.3560  -18.1830   19.4910 H   0  0  0  0  0  0  0  0  0  0  0  0
  -26.7920  -18.1340   21.0420 H   0  0  0  0  0  0  0  0  0  0  0  0
  -27.8020  -19.7210   20.0040 C   0  0  0  0  0  3  0  0  0  0  0  0
  -27.0930  -21.2880   20.1100 C   0  0  0  0  0  3  0  0  0  0  0  0
  -27.9190  -22.8120   19.9790 C   0  0  0  0  0  3  0  0  0  0  0  0
  -27.3600  -24.4130   20.2990 C   0  0  0  0  0  3  0  0  0  0  0  0
  -28.0140  -25.8610   20.1000 O   0  0  0  0  0  0  0  0  0  0  0  0
  -24.6730  -31.7240   23.1190 C   0  0  0  0  0  0  0  0  0  0  0  0
  -27.1530  -27.0150   20.0030 C   0  0  0  0  0  0  0  0  0  0  0  0
  -23.4880  -30.3650   21.4480 C   0  0  0  0  0  3  0  0  0  0  0  0
  -24.9370  -28.8660   19.9540 C   0  0  0  0  0  0  0  0  0  0  0  0
  -26.0500  -30.6210   21.3110 C   0  0  0  0  0  2  0  0  0  0  0  0
  -26.1130  -29.2490   20.6120 C   0  0  0  0  0  0  0  0  0  0  0  0
  -27.2370  -28.3320   20.6300 C   0  0  0  0  0  3  0  0  0  0  0  0
  -26.0030  -26.8050   19.2280 C   0  0  0  0  0  3  0  0  0  0  0  0
  -24.9040  -27.6720   19.2320 C   0  0  0  0  0  3  0  0  0  0  0  0
  -23.7140  -29.7610   20.0390 C   0  0  0  0  0  2  0  0  0  0  0  0
  -24.7580  -30.9270   22.0110 N   0  0  0  0  0  0  0  0  0  0  0  0
  -23.5820  -31.9880   23.6460 O   0  0  0  0  0  0  0  0  0  0  0  0
  -22.8270  -29.3120   22.3730 C   0  0  0  0  0  0  0  0  0  0  0  0
  -21.5000  -29.1330   22.2510 N   0  0  0  0  0  0  0  0  0  0  0  0
  -23.5090  -28.6640   23.1720 O   0  0  0  0  0  0  0  0  0  0  0  0
  -21.0030  -29.7070   21.5820 H   0  0  0  0  0  0  0  0  0  0  0  0
  -18.1300  -27.9000   22.7410 C   0  0  0  0  0  0  0  0  0  0  0  0
  -20.6890  -28.1710   23.0010 C   0  0  0  0  0  3  0  0  0  0  0  0
  -20.7970  -26.7550   22.3880 C   0  0  0  0  0  2  0  0  0  0  0  0
  -19.6900  -26.4530   21.3710 C   0  0  0  0  0  2  0  0  0  0  0  0
  -18.3110  -26.5710   22.0260 C   0  0  0  0  0  2  0  0  0  0  0  0
  -19.2460  -28.6580   23.1850 C   0  0  0  0  0  0  0  0  0  0  0  0
  -19.0200  -29.9010   23.8150 C   0  0  0  0  0  3  0  0  0  0  0  0
  -17.7120  -30.3860   24.0040 C   0  0  0  0  0  3  0  0  0  0  0  0
  -16.6110  -29.6240   23.5760 C   0  0  0  0  0  3  0  0  0  0  0  0
  -16.8210  -28.3830   22.9490 C   0  0  0  0  0  3  0  0  0  0  0  0
  -25.9410  -32.3610   23.7590 C   0  0  0  0  0  3  0  0  0  0  0  0
  -25.6160  -33.7560   24.0980 N   0  0  0  0  0  0  0  0  0  0  0  0
  -25.9620  -34.8220   23.3650 C   0  0  0  0  0  0  0  0  0  0  0  0
  -26.6550  -34.7370   22.3490 O   0  0  0  0  0  0  0  0  0  0  0  0
  -24.9980  -33.8960   24.8830 H   0  0  0  0  0  0  0  0  0  0  0  0
  -24.2440  -36.6270   22.9960 C   0  0  0  0  0  1  0  0  0  0  0  0
  -25.4600  -36.2040   23.8340 C   0  0  0  0  0  3  0  0  0  0  0  0
  -27.5650  -37.0770   24.7500 C   0  0  0  0  0  1  0  0  0  0  0  0
  -26.4950  -37.2590   23.7720 N   0  0  0  0  0  0  0  0  0  0  0  0
  -26.0830  -38.1760   23.9200 H   0  0  0  0  0  0  0  0  0  0  0  0
  -26.4400  -31.5870   25.0420 C   0  0  1  0  0  0  0  0  0  0  0  0
  -25.3300  -31.3450   26.0920 C   0  0  0  0  0  1  0  0  0  0  0  0
  -27.0320  -30.2100   24.6650 C   0  0  0  0  0  1  0  0  0  0  0  0
  -27.5770  -32.3840   25.7210 C   0  0  0  0  0  1  0  0  0  0  0  0
  -28.0290  -16.8790   19.8210 C   0  0  0  0  0  3  0  0  0  0  0  0
  -27.9440  -11.4780   20.4010 C   0  0  0  0  0  3  0  0  0  0  0  0
  -27.5600  -12.2710   18.7560 C   0  0  0  0  0  0  0  0  0  0  0  0
  -28.0040  -12.5430   21.8820 C   0  0  0  0  0  3  0  0  0  0  0  0
  -27.5130  -14.0930   18.6360 C   0  0  0  0  0  0  0  0  0  0  0  0
  -27.9650  -14.3730   21.6830 C   0  0  0  0  0  3  0  0  0  0  0  0
  -27.7500  -15.1760   20.0720 C   0  0  0  0  0  0  0  0  0  0  0  0
  -29.4620  -17.3580   20.1920 C   0  0  0  0  0  2  0  0  0  0  0  0
  -30.6840  -16.5590   19.8290 C   0  0  0  0  0  2  0  0  0  0  0  0
  -31.7450  -14.5530   20.4360 C   0  0  0  0  0  0  0  0  0  0  0  0
  -31.6840  -12.4140   19.2250 C   0  0  0  0  0  2  0  0  0  0  0  0
  -30.9890  -12.8170   17.9520 C   0  0  0  0  0  2  0  0  0  0  0  0
  -29.5750  -12.7010   18.1960 C   0  0  0  0  0  2  0  0  0  0  0  0
  -28.9150  -13.4760   19.5040 C   0  0  2  0  0  0  0  0  0  0  0  0
  -29.9780  -12.9800   20.6470 C   0  0  0  0  0  2  0  0  0  0  0  0
  -31.2390  -13.3320   20.2530 N   0  0  0  0  0  0  0  0  0  0  0  0
  -32.8270  -14.8660   19.9780 O   0  0  0  0  0  0  0  0  0  0  0  0
  -30.8920  -15.5020   20.7930 N   0  0  0  0  0  0  0  0  0  0  0  0
  -30.8920  -15.7510   21.7700 H   0  0  0  0  0  0  0  0  0  0  0  0
  -25.1740  -14.3720   20.5220 C   0  0  0  0  0  3  0  0  0  0  0  0
  -24.2440  -13.5010   20.9890 C   0  0  0  0  0  3  0  0  0  0  0  0
  -24.6980  -12.1750   20.8730 C   0  0  0  0  0  3  0  0  0  0  0  0
  -26.1210  -13.5630   19.9730 N   0  0  0  0  0  2  0  0  0  0  0  0
  -25.2480  -12.4490   19.8030 N   0  0  0  0  0  2  0  0  0  0  0  0
  -24.1550  -10.8150   20.9430 C   0  0  0  0  0  0  0  0  0  0  0  0
  -24.6440   -9.8300   21.8350 C   0  0  0  0  0  3  0  0  0  0  0  0
  -23.9870   -8.5820   21.9400 C   0  0  0  0  0  3  0  0  0  0  0  0
  -22.8460   -8.3180   21.1430 C   0  0  0  0  0  0  0  0  0  0  0  0
  -22.4430   -9.2590   20.1830 C   0  0  0  0  0  3  0  0  0  0  0  0
  -23.1050  -10.4870   20.0690 C   0  0  0  0  0  3  0  0  0  0  0  0
  -22.0990   -7.1680   21.2040 O   0  0  0  0  0  0  0  0  0  0  0  0
  -21.9060   -6.4940   22.3800 C   0  0  0  0  0  0  0  0  0  0  0  0
  -21.3280   -7.1000   23.5180 C   0  0  0  0  0  3  0  0  0  0  0  0
  -21.0960   -6.3370   24.6800 C   0  0  0  0  0  3  0  0  0  0  0  0
  -21.4270   -4.9690   24.7030 C   0  0  0  0  0  0  0  0  0  0  0  0
  -21.9930   -4.3620   23.5670 C   0  0  0  0  0  3  0  0  0  0  0  0
  -22.2280   -5.1230   22.4090 C   0  0  0  0  0  0  0  0  0  0  0  0
  -22.7500   -4.5320   21.3090 F   0  0  0  0  0  0  0  0  0  0  0  0
  -21.2030   -4.2330   25.8150 F   0  0  0  0  0  0  0  0  0  0  0  0
  -22.8570  -13.8840   21.0980 C   0  0  0  0  0  0  0  0  0  0  0  0
  -22.1390  -13.1570   21.9250 N   0  0  0  0  0  0  0  0  0  0  0  0
  -22.4310  -14.8290   20.4370 O   0  0  0  0  0  0  0  0  0  0  0  0
  -22.5580  -12.4070   22.4540 H   0  0  0  0  0  0  0  0  0  0  0  0
  -21.1590  -13.3600   22.0510 H   0  0  0  0  0  0  0  0  0  0  0  0
  -25.2050  -15.7570   20.4960 N   0  0  0  0  0  0  0  0  0  0  0  0
  -24.6900  -16.2940   21.1840 H   0  0  0  0  0  0  0  0  0  0  0  0
  -26.1390  -16.0800   20.3030 H   0  0  0  0  0  0  0  0  0  0  0  0
  1  3  1  0
  2  1  1  0
  4  1  1  0
  4  5  2  0
  6  5  1  0
  6  7  2  0
  8  7  1  0
  9 20  2  0
 10  8  1  0
 10 15  1  0
 11 19  1  0
 11 21  1  0
 12 18  1  0
 12 14  1  0
 13 19  1  0
 14 15  2  0
 14 13  1  0
 16 17  1  0
 16 10  2  0
 17 12  2  0
 18 11  1  0
 19  9  1  0
 21 23  2  0
 22 21  1  0
 24 22  1  0
 25 34  2  0
 25 30  1  0
 26 22  1  0
 26 30  1  0
 27 26  1  0
 28 29  1  0
 28 27  1  0
 29 25  1  0
 30 31  2  0
 31 32  1  0
 33 32  2  0
 34 33  1  0
 35  9  1  0
 35 36  1  0
 35 45  1  0
 36 39  1  0
 37 41  1  0
 37 36  1  0
 38 37  2  0
 41 40  1  0
 43 41  1  0
 43 44  1  0
 43 42  1  0
 45 48  1  1
 45 46  1  0
 47 45  1  0
 49 55  1  0
 49  1  1  0
 49 56  1  0
 50 52  1  0
 51 62  1  0
 51 50  2  3
 53 51  1  0
 53 62  1  0
 53 55  2  3
 54 52  2  0
 55 54  1  0
 57 56  1  0
 57 66  1  0
 58 66  1  0
 59 64  1  0
 60 61  1  0
 60 59  1  0
 62 61  1  6
 62 63  1  0
 64 58  1  0
 64 63  1  0
 65 58  2  0
 66 67  1  0
 68 93  1  0
 68 69  1  0
 69 88  1  0
 70 73  1  0
 70 69  1  0
 71 68  1  0
 72 71  1  0
 72 70  1  0
 73 74  1  0
 74 75  2  0
 76 79  1  0
 76 75  1  0
 77 76  2  0
 78 77  1  0
 78 73  2  0
 79 80  1  0
 80 85  2  0
 80 81  1  0
 81 82  2  0
 82 83  1  0
 83 87  1  0
 84 83  2  0
 85 84  1  0
 86 85  1  0
 88 89  1  0
 89 92  1  0
 89 91  1  0
 90 88  2  0
 93 94  1  0
 95 93  1  0
M  ISO  4   7 101   8 101  58 100  66 100
M  END
>  <TORSDO>  (51) 
F 24

>  <SCORE>  (51) 
-13.947

>  <name>  (51) 
50

>  <ligand_id>  (51) 
50

>  <original_smiles>  (51) 
[H]c1c([H])c([H])c(C([H])(C([H])([H])C([H])([H])N([H])C(=O)N2C([H])([H])C([H])([H])C([H])([H])C([H])(n3nc(-c4c([H])c([H])c(Oc5c([H])c([H])c(F)c([H])c5F)c([H])c4[H])c(C(=O)N([H])[H])c3N([H])[H])C2([H])[H])[N+]([H])([H])C([H])([H])C([H])([H])C([H])([H])C([H])([H])Oc2c([H])c([H])c3c(c2[H])C([H])([H])N(C(=O)C([H])(N([H])C(=O)C([H])(N([H])C([H])([H])[H])C([H])([H])[H])C(C([H])([H])[H])(C([H])([H])[H])C([H])([H])[H])C([H])(C(=O)N([H])C2([H])c4c([H])c([H])c([H])c([H])c4C([H])([H])C([H])([H])C2([H])[H])C3([H])[H])c([H])c1[H]

>  <smiles>  (51) 
[H]c1c([H])c([H])c(C([H])(C([H])([H])C([H])([H])N([H])C(=O)N2C([H])([H])C([H])([H])C([H])([H])C([H])(n3nc(-c4c([H])c([H])c(Oc5c([H])c([H])c(F)c([H])c5F)c([H])c4[H])c(C(=O)N([H])[H])c3N([H])[H])C2([H])[H])[N+]([H])([H])C([H])([H])C([H])([H])C([H])([H])C([H])([H])Oc2c([H])c([H])c3c(c2[H])C([H])([H])N(C(=O)C([H])(N([H])C(=O)C([H])(N([H])C([H])([H])[H])C([H])([H])[H])C(C([H])([H])[H])(C([H])([H])[H])C([H])([H])[H])C([H])(C(=O)N([H])C2([H])c4c([H])c([H])c([H])c([H])c4C([H])([H])C([H])([H])C2([H])[H])C3([H])[H])c([H])c1[H]

$$$$
51:0:0
     RDKit          3D

 94101  0  0  1  0  0  0  0  0999 V2000
  -28.6620  -22.0100   20.2510 C   0  0  0  0  0  3  0  0  0  0  0  0
  -29.6750  -20.7850   20.2450 N   0  0  0  0  0  4  0  0  0  0  0  0
  -30.4340  -21.0790   19.6530 H   0  0  0  0  0  0  0  0  0  0  0  0
  -30.0570  -20.7220   21.1740 H   0  0  0  0  0  0  0  0  0  0  0  0
  -29.3480  -19.3000   19.7810 C   0  0  0  0  0  3  0  0  0  0  0  0
  -28.0100  -18.7930   20.3860 C   0  0  0  0  0  2  0  0  0  0  0  0
  -27.0080  -18.5400   19.3600 N   0  0  0  0  0  0  0  0  0  0  0  0
  -27.3430  -17.8210   18.7270 H   0  0  0  0  0  0  0  0  0  0  0  0
  -26.1930  -18.1150   19.7940 H   0  0  0  0  0  0  0  0  0  0  0  0
  -30.4300  -18.0320   19.9550 C   0  0  0  0  0  3  0  0  0  0  0  0
  -29.9370  -16.4380   20.1120 C   0  0  0  0  0  3  0  0  0  0  0  0
  -30.8290  -15.0740   19.9090 C   0  0  0  0  0  0  0  0  0  0  0  0
  -30.7450  -12.6510   19.1850 C   0  0  0  0  0  2  0  0  0  0  0  0
  -29.8000  -12.5310   17.9660 C   0  0  0  0  0  2  0  0  0  0  0  0
  -28.3340  -12.3650   18.4170 C   0  0  0  0  0  2  0  0  0  0  0  0
  -27.9380  -13.3800   19.5210 C   0  0  0  0  0  3  0  0  0  0  0  0
  -29.0000  -13.4620   20.6360 C   0  0  0  0  0  2  0  0  0  0  0  0
  -30.2840  -13.8010   20.0070 N   0  0  0  0  0  0  0  0  0  0  0  0
  -32.0030  -15.1700   19.5370 O   0  0  0  0  0  0  0  0  0  0  0  0
  -25.5980  -14.0400   20.3350 C   0  0  0  0  0  0  0  0  0  0  0  0
  -24.5190  -13.2990   20.7320 C   0  0  0  0  0  0  0  0  0  0  0  0
  -24.9360  -11.9340   20.6750 C   0  0  0  0  0  0  0  0  0  0  0  0
  -26.6020  -13.1280   20.0530 N   0  0  0  0  0  0  0  0  0  0  0  0
  -26.2140  -11.8560   20.3220 N   0  0  0  0  0  0  0  0  0  0  0  0
  -24.1730  -10.6950   20.8790 C   0  0  0  0  0  0  0  0  0  0  0  0
  -24.5720   -9.7280   21.8280 C   0  0  0  0  0  3  0  0  0  0  0  0
  -23.8120   -8.5540   22.0190 C   0  0  0  0  0  3  0  0  0  0  0  0
  -22.6360   -8.3390   21.2580 C   0  0  0  0  0  0  0  0  0  0  0  0
  -22.2560   -9.2930   20.2990 C   0  0  0  0  0  3  0  0  0  0  0  0
  -23.0180  -10.4590   20.1070 C   0  0  0  0  0  3  0  0  0  0  0  0
  -21.8490   -7.2170   21.3570 O   0  0  0  0  0  0  0  0  0  0  0  0
  -21.7320   -6.5210   22.5330 C   0  0  0  0  0  0  0  0  0  0  0  0
  -21.2750   -7.1360   23.7210 C   0  0  0  0  0  3  0  0  0  0  0  0
  -21.1030   -6.3670   24.8890 C   0  0  0  0  0  3  0  0  0  0  0  0
  -21.3770   -4.9880   24.8720 C   0  0  0  0  0  0  0  0  0  0  0  0
  -21.8280   -4.3720   23.6900 C   0  0  0  0  0  3  0  0  0  0  0  0
  -22.0010   -5.1380   22.5230 C   0  0  0  0  0  0  0  0  0  0  0  0
  -22.4150   -4.5380   21.3810 F   0  0  0  0  0  0  0  0  0  0  0  0
  -21.2050   -4.2470   25.9920 F   0  0  0  0  0  0  0  0  0  0  0  0
  -23.1470  -13.8210   21.0480 C   0  0  0  0  0  0  0  0  0  0  0  0
  -22.4270  -13.1500   21.9410 N   0  0  0  0  0  0  0  0  0  0  0  0
  -22.7240  -14.8570   20.5380 O   0  0  0  0  0  0  0  0  0  0  0  0
  -22.7810  -12.3130   22.3780 H   0  0  0  0  0  0  0  0  0  0  0  0
  -21.5070  -13.4840   22.1960 H   0  0  0  0  0  0  0  0  0  0  0  0
  -25.8010  -15.4050   20.1630 N   0  0  0  0  0  0  0  0  0  0  0  0
  -25.0480  -16.0750   20.2810 H   0  0  0  0  0  0  0  0  0  0  0  0
  -26.6270  -15.8040   19.7350 H   0  0  0  0  0  0  0  0  0  0  0  0
  -29.1850  -23.5990   20.2050 C   0  0  0  0  0  3  0  0  0  0  0  0
  -28.1520  -24.8880   19.9530 C   0  0  0  0  0  3  0  0  0  0  0  0
  -28.4290  -26.3940   20.1280 O   0  0  0  0  0  0  0  0  0  0  0  0
  -24.6690  -31.8940   23.1970 C   0  0  0  0  0  0  0  0  0  0  0  0
  -27.3480  -27.3350   20.0760 C   0  0  0  0  0  0  0  0  0  0  0  0
  -23.5010  -30.5150   21.5210 C   0  0  0  0  0  3  0  0  0  0  0  0
  -24.9840  -29.0100   20.0680 C   0  0  0  0  0  0  0  0  0  0  0  0
  -26.0470  -30.8430   21.3720 C   0  0  0  0  0  2  0  0  0  0  0  0
  -26.1500  -29.4720   20.6910 C   0  0  0  0  0  0  0  0  0  0  0  0
  -27.3350  -28.6510   20.6770 C   0  0  0  0  0  3  0  0  0  0  0  0
  -26.1530  -26.9670   19.4170 C   0  0  0  0  0  3  0  0  0  0  0  0
  -24.9960  -27.7710   19.4140 C   0  0  0  0  0  3  0  0  0  0  0  0
  -23.7390  -29.8770   20.1280 C   0  0  0  0  0  2  0  0  0  0  0  0
  -24.7590  -31.1030   22.0860 N   0  0  0  0  0  0  0  0  0  0  0  0
  -23.5760  -32.1450   23.7280 O   0  0  0  0  0  0  0  0  0  0  0  0
  -22.8400  -29.4720   22.4560 C   0  0  0  0  0  0  0  0  0  0  0  0
  -21.5160  -29.2770   22.3160 N   0  0  0  0  0  0  0  0  0  0  0  0
  -23.5200  -28.8380   23.2680 O   0  0  0  0  0  0  0  0  0  0  0  0
  -21.0240  -29.8440   21.6400 H   0  0  0  0  0  0  0  0  0  0  0  0
  -18.1550  -28.0150   22.7810 C   0  0  0  0  0  0  0  0  0  0  0  0
  -20.7090  -28.3090   23.0610 C   0  0  0  0  0  3  0  0  0  0  0  0
  -20.8340  -26.8930   22.4540 C   0  0  0  0  0  2  0  0  0  0  0  0
  -19.7380  -26.5720   21.4340 C   0  0  0  0  0  2  0  0  0  0  0  0
  -18.3530  -26.6840   22.0760 C   0  0  0  0  0  2  0  0  0  0  0  0
  -19.2600  -28.7840   23.2310 C   0  0  0  0  0  0  0  0  0  0  0  0
  -19.0190  -30.0290   23.8550 C   0  0  0  0  0  3  0  0  0  0  0  0
  -17.7050  -30.5050   24.0290 C   0  0  0  0  0  3  0  0  0  0  0  0
  -16.6140  -29.7330   23.5940 C   0  0  0  0  0  3  0  0  0  0  0  0
  -16.8400  -28.4890   22.9770 C   0  0  0  0  0  3  0  0  0  0  0  0
  -25.9330  -32.5380   23.8430 C   0  0  0  0  0  3  0  0  0  0  0  0
  -26.4270  -31.7710   25.1320 C   0  0  1  0  0  0  0  0  0  0  0  0
  -25.3140  -31.5270   26.1770 C   0  0  0  0  0  1  0  0  0  0  0  0
  -27.0300  -30.3980   24.7590 C   0  0  0  0  0  1  0  0  0  0  0  0
  -27.5590  -32.5750   25.8170 C   0  0  0  0  0  1  0  0  0  0  0  0
  -25.6080  -33.9340   24.1700 N   0  0  0  0  0  0  0  0  0  0  0  0
  -25.9320  -34.9900   23.4130 C   0  0  0  0  0  0  0  0  0  0  0  0
  -26.6050  -34.8910   22.3820 O   0  0  0  0  0  0  0  0  0  0  0  0
  -25.0130  -34.0830   24.9710 H   0  0  0  0  0  0  0  0  0  0  0  0
  -24.1850  -36.7670   23.0600 C   0  0  0  0  0  1  0  0  0  0  0  0
  -25.4330  -36.3760   23.8680 C   0  0  0  0  0  3  0  0  0  0  0  0
  -27.5600  -37.2860   24.6900 C   0  0  0  0  0  1  0  0  0  0  0  0
  -26.4540  -37.4390   23.7490 N   0  0  0  0  0  0  0  0  0  0  0  0
  -26.0390  -38.3560   23.8910 H   0  0  0  0  0  0  0  0  0  0  0  0
  -27.7090  -21.9620   21.4760 C   0  0  0  0  0  2  0  0  0  0  0  0
  -26.3620  -21.5640   21.1120 N   0  0  0  0  0  0  0  0  0  0  0  0
  -26.3870  -20.5680   20.8390 H   0  0  0  0  0  0  0  0  0  0  0  0
  -25.7880  -21.5580   21.9490 H   0  0  0  0  0  0  0  0  0  0  0  0
  1 48  1  0
  1 91  1  0
  2  1  1  0
  2  4  1  0
  3  2  1  0
  5 10  1  0
  5  2  1  0
  5  6  1  0
  7  9  1  0
  7  6  1  0
  8  7  1  0
 10 11  2  0
 12 18  1  0
 12 11  1  0
 13 18  1  0
 14 15  1  0
 14 13  1  0
 16 15  1  0
 16 23  1  0
 16 17  1  0
 18 17  1  0
 19 12  2  0
 20 21  2  0
 21 40  1  0
 22 21  1  0
 22 25  1  0
 23 24  1  0
 23 20  1  0
 24 22  2  0
 25 26  1  0
 26 27  2  0
 28 31  1  0
 28 27  1  0
 29 28  2  0
 30 29  1  0
 30 25  2  0
 31 32  1  0
 32 33  1  0
 33 34  2  0
 35 34  1  0
 35 39  1  0
 36 35  2  0
 37 32  2  0
 37 36  1  0
 38 37  1  0
 40 41  1  0
 41 44  1  0
 41 43  1  0
 42 40  2  0
 45 46  1  0
 45 20  1  0
 47 45  1  0
 49 50  1  0
 49 48  2  0
 51 62  2  0
 52 50  1  0
 52 57  1  0
 53 61  1  0
 53 63  1  0
 54 60  1  0
 54 56  1  0
 55 61  1  0
 56 55  1  0
 57 56  2  0
 58 52  2  0
 59 58  1  0
 59 54  2  0
 60 53  1  0
 61 51  1  0
 63 65  2  0
 64 63  1  0
 66 64  1  0
 67 76  2  0
 67 72  1  0
 68 64  1  0
 68 72  1  0
 69 68  1  0
 70 71  1  0
 70 69  1  0
 71 67  1  0
 72 73  2  0
 73 74  1  0
 75 74  2  0
 76 75  1  0
 77 51  1  0
 77 82  1  0
 77 78  1  0
 78 81  1  1
 78 79  1  0
 80 78  1  0
 82 85  1  0
 83 87  1  0
 83 82  1  0
 84 83  2  0
 87 86  1  0
 89 87  1  0
 89 90  1  0
 89 88  1  0
 92 91  1  0
 92 94  1  0
 93 92  1  0
M  ISO  4  11 100  12 100  49 101  50 101
M  END
>  <TORSDO>  (52) 
F 26

>  <SCORE>  (52) 
-10.966

>  <name>  (52) 
51

>  <ligand_id>  (52) 
51

>  <original_smiles>  (52) 
[H]c1c([H])c([H])c2c(c1[H])C([H])([H])C([H])([H])C([H])([H])C2([H])N([H])C(=O)C1([H])N(C(=O)C([H])(N([H])C(=O)C([H])(N([H])C([H])([H])[H])C([H])([H])[H])C(C([H])([H])[H])(C([H])([H])[H])C([H])([H])[H])C([H])([H])c2c([H])c(OC([H])([H])C([H])([H])C([H])(C([H])([H])N([H])[H])[N+]([H])([H])C([H])(C([H])([H])N([H])[H])C([H])([H])C([H])([H])C(=O)N3C([H])([H])C([H])([H])C([H])([H])C([H])(n4nc(-c5c([H])c([H])c(Oc6c([H])c([H])c(F)c([H])c6F)c([H])c5[H])c(C(=O)N([H])[H])c4N([H])[H])C3([H])[H])c([H])c([H])c2C1([H])[H]

>  <smiles>  (52) 
[H]c1c([H])c([H])c2c(c1[H])C([H])([H])C([H])([H])C([H])([H])C2([H])N([H])C(=O)C1([H])N(C(=O)C([H])(N([H])C(=O)C([H])(N([H])C([H])([H])[H])C([H])([H])[H])C(C([H])([H])[H])(C([H])([H])[H])C([H])([H])[H])C([H])([H])c2c([H])c(OC([H])([H])C([H])([H])C([H])(C([H])([H])N([H])[H])[N+]([H])([H])C([H])(C([H])([H])N([H])[H])C([H])([H])C([H])([H])C(=O)N3C([H])([H])C([H])([H])C([H])([H])C([H])(n4nc(-c5c([H])c([H])c(Oc6c([H])c([H])c(F)c([H])c6F)c([H])c5[H])c(C(=O)N([H])[H])c4N([H])[H])C3([H])[H])c([H])c([H])c2C1([H])[H]

$$$$
52:0:0
     RDKit          3D

 95103  0  0  1  0  0  0  0  0999 V2000
  -29.2040  -19.3630   19.8020 C   0  0  0  0  0  3  0  0  0  0  0  0
  -31.3890  -17.9330   20.7780 C   0  0  0  0  0  3  0  0  0  0  0  0
  -30.3390  -20.1240   20.1810 C   0  0  0  0  0  0  0  0  0  0  0  0
  -29.1470  -17.9400   19.9330 C   0  0  0  0  0  0  0  0  0  0  0  0
  -31.4550  -19.3580   20.6570 C   0  0  0  0  0  0  0  0  0  0  0  0
  -30.2420  -17.1770   20.4310 C   0  0  0  0  0  0  0  0  0  0  0  0
  -27.8590  -17.2440   19.5740 C   0  0  0  0  0  1  0  0  0  0  0  0
  -30.6930  -14.6880   20.0920 C   0  0  0  0  0  0  0  0  0  0  0  0
  -30.3200  -12.5320   18.8790 C   0  0  0  0  0  2  0  0  0  0  0  0
  -29.2860  -12.7070   17.7430 C   0  0  0  0  0  2  0  0  0  0  0  0
  -27.8470  -12.5250   18.2670 C   0  0  0  0  0  2  0  0  0  0  0  0
  -27.5910  -13.3210   19.5710 C   0  0  0  0  0  3  0  0  0  0  0  0
  -28.7280  -13.0920   20.5850 C   0  0  0  0  0  2  0  0  0  0  0  0
  -29.9960  -13.5010   19.9530 N   0  0  0  0  0  0  0  0  0  0  0  0
  -31.7690  -14.8360   19.5040 O   0  0  0  0  0  0  0  0  0  0  0  0
  -29.8370  -15.5620   22.2150 C   0  0  0  0  0  1  0  0  0  0  0  0
  -30.1260  -15.7500   20.7860 N   0  0  0  0  0  0  0  0  0  0  0  0
  -25.2480  -13.8950   20.4590 C   0  0  0  0  0  0  0  0  0  0  0  0
  -24.2140  -13.1130   20.8900 C   0  0  0  0  0  0  0  0  0  0  0  0
  -24.6780  -11.7670   20.8000 C   0  0  0  0  0  0  0  0  0  0  0  0
  -26.2800  -13.0250   20.1400 N   0  0  0  0  0  0  0  0  0  0  0  0
  -25.9440  -11.7380   20.4030 N   0  0  0  0  0  0  0  0  0  0  0  0
  -23.9690  -10.5010   21.0040 C   0  0  0  0  0  0  0  0  0  0  0  0
  -24.4330   -9.5370   21.9250 C   0  0  0  0  0  3  0  0  0  0  0  0
  -23.7170   -8.3360   22.1210 C   0  0  0  0  0  3  0  0  0  0  0  0
  -22.5260   -8.0940   21.3940 C   0  0  0  0  0  0  0  0  0  0  0  0
  -22.0850   -9.0460   20.4600 C   0  0  0  0  0  3  0  0  0  0  0  0
  -22.8000  -10.2370   20.2610 C   0  0  0  0  0  3  0  0  0  0  0  0
  -21.7810   -6.9450   21.5000 O   0  0  0  0  0  0  0  0  0  0  0  0
  -21.7220   -6.2330   22.6710 C   0  0  0  0  0  0  0  0  0  0  0  0
  -21.2690   -6.8180   23.8740 C   0  0  0  0  0  3  0  0  0  0  0  0
  -21.1530   -6.0320   25.0390 C   0  0  0  0  0  3  0  0  0  0  0  0
  -21.4820   -4.6650   25.0020 C   0  0  0  0  0  0  0  0  0  0  0  0
  -21.9300   -4.0800   23.8040 C   0  0  0  0  0  3  0  0  0  0  0  0
  -22.0460   -4.8620   22.6420 C   0  0  0  0  0  0  0  0  0  0  0  0
  -22.4560   -4.2890   21.4850 F   0  0  0  0  0  0  0  0  0  0  0  0
  -21.3660   -3.9070   26.1180 F   0  0  0  0  0  0  0  0  0  0  0  0
  -22.8400  -13.5840   21.2680 C   0  0  0  0  0  0  0  0  0  0  0  0
  -22.1810  -12.8720   22.1760 N   0  0  0  0  0  0  0  0  0  0  0  0
  -22.3620  -14.6150   20.7960 O   0  0  0  0  0  0  0  0  0  0  0  0
  -22.5830  -12.0350   22.5700 H   0  0  0  0  0  0  0  0  0  0  0  0
  -21.2620  -13.1630   22.4770 H   0  0  0  0  0  0  0  0  0  0  0  0
  -25.3750  -15.2660   20.2930 N   0  0  0  0  0  0  0  0  0  0  0  0
  -24.6090  -15.9070   20.4740 H   0  0  0  0  0  0  0  0  0  0  0  0
  -26.1830  -15.7160   19.8870 H   0  0  0  0  0  0  0  0  0  0  0  0
  -32.7720  -20.0200   21.0530 C   0  0  0  0  0  2  0  0  0  0  0  0
  -34.0620  -19.2580   18.9530 C   0  0  0  0  0  1  0  0  0  0  0  0
  -33.6510  -20.4320   19.8530 C   0  0  0  0  0  2  0  0  0  0  0  0
  -30.3920  -21.6930   19.9580 C   0  0  0  0  0  2  0  0  0  0  0  0
  -29.2800  -22.5950   20.4500 N   0  0  0  0  0  4  0  0  0  0  0  0
  -28.4520  -22.3590   19.9290 H   0  0  0  0  0  0  0  0  0  0  0  0
  -29.0950  -22.3590   21.4130 H   0  0  0  0  0  0  0  0  0  0  0  0
  -29.5150  -24.1030   20.3480 C   0  0  0  0  0  3  0  0  0  0  0  0
  -28.2310  -25.0410   20.3100 C   0  0  0  0  0  3  0  0  0  0  0  0
  -28.4050  -26.5150   20.2840 O   0  0  0  0  0  0  0  0  0  0  0  0
  -24.5890  -31.8950   23.2260 C   0  0  0  0  0  0  0  0  0  0  0  0
  -27.2590  -27.3280   20.2360 C   0  0  0  0  0  0  0  0  0  0  0  0
  -23.4010  -30.4690   21.5950 C   0  0  0  0  0  3  0  0  0  0  0  0
  -24.8700  -28.9080   20.2020 C   0  0  0  0  0  0  0  0  0  0  0  0
  -25.9360  -30.8070   21.4150 C   0  0  0  0  0  2  0  0  0  0  0  0
  -26.0310  -29.4190   20.7940 C   0  0  0  0  0  0  0  0  0  0  0  0
  -27.2290  -28.6410   20.7980 C   0  0  0  0  0  3  0  0  0  0  0  0
  -26.0660  -26.8660   19.6270 C   0  0  0  0  0  3  0  0  0  0  0  0
  -24.8890  -27.6370   19.6110 C   0  0  0  0  0  3  0  0  0  0  0  0
  -23.6270  -29.7740   20.2260 C   0  0  0  0  0  2  0  0  0  0  0  0
  -24.6620  -31.0740   22.1370 N   0  0  0  0  0  0  0  0  0  0  0  0
  -23.5020  -32.1730   23.7520 O   0  0  0  0  0  0  0  0  0  0  0  0
  -22.7400  -29.4630   22.5680 C   0  0  0  0  0  0  0  0  0  0  0  0
  -21.4140  -29.2840   22.4420 N   0  0  0  0  0  0  0  0  0  0  0  0
  -23.4180  -28.8450   23.3910 O   0  0  0  0  0  0  0  0  0  0  0  0
  -20.9270  -29.8330   21.7470 H   0  0  0  0  0  0  0  0  0  0  0  0
  -18.0340  -28.1050   22.9590 C   0  0  0  0  0  0  0  0  0  0  0  0
  -20.5950  -28.3560   23.2210 C   0  0  0  0  0  3  0  0  0  0  0  0
  -20.6900  -26.9190   22.6550 C   0  0  0  0  0  2  0  0  0  0  0  0
  -19.5840  -26.5930   21.6480 C   0  0  0  0  0  2  0  0  0  0  0  0
  -18.2040  -26.7480   22.2940 C   0  0  0  0  0  2  0  0  0  0  0  0
  -19.1570  -28.8640   23.3820 C   0  0  0  0  0  0  0  0  0  0  0  0
  -18.9460  -30.1320   23.9640 C   0  0  0  0  0  3  0  0  0  0  0  0
  -17.6430  -30.6380   24.1340 C   0  0  0  0  0  3  0  0  0  0  0  0
  -16.5350  -29.8740   23.7280 C   0  0  0  0  0  3  0  0  0  0  0  0
  -16.7300  -28.6110   23.1450 C   0  0  0  0  0  3  0  0  0  0  0  0
  -25.8650  -32.5430   23.8450 C   0  0  0  0  0  3  0  0  0  0  0  0
  -25.5390  -33.9380   24.1750 N   0  0  0  0  0  0  0  0  0  0  0  0
  -25.8590  -34.9950   23.4170 C   0  0  0  0  0  0  0  0  0  0  0  0
  -26.5300  -34.8990   22.3860 O   0  0  0  0  0  0  0  0  0  0  0  0
  -24.9440  -34.0830   24.9770 H   0  0  0  0  0  0  0  0  0  0  0  0
  -24.1120  -36.7710   23.0630 C   0  0  0  0  0  1  0  0  0  0  0  0
  -25.3560  -36.3770   23.8750 C   0  0  0  0  0  3  0  0  0  0  0  0
  -27.4820  -37.2850   24.7090 C   0  0  0  0  0  1  0  0  0  0  0  0
  -26.3770  -37.4420   23.7660 N   0  0  0  0  0  0  0  0  0  0  0  0
  -25.9620  -38.3570   23.9150 H   0  0  0  0  0  0  0  0  0  0  0  0
  -26.3920  -31.7810   25.1220 C   0  0  1  0  0  0  0  0  0  0  0  0
  -25.3040  -31.5310   26.1940 C   0  0  0  0  0  1  0  0  0  0  0  0
  -26.9910  -30.4110   24.7300 C   0  0  0  0  0  1  0  0  0  0  0  0
  -27.5330  -32.5900   25.7830 C   0  0  0  0  0  1  0  0  0  0  0  0
  1  4  2  0
  1  3  1  0
  3  5  2  0
  4  6  1  0
  5  2  1  0
  5 46  1  0
  6  2  2  0
  6 17  1  0
  7  4  1  0
  8 17  1  0
  9 14  1  0
 10 11  1  0
 10  9  1  0
 12 11  1  0
 12 21  1  0
 12 13  1  0
 14  8  1  0
 14 13  1  0
 15  8  2  0
 17 16  1  0
 18 19  2  0
 19 38  1  0
 20 19  1  0
 20 23  1  0
 21 22  1  0
 21 18  1  0
 22 20  2  0
 23 24  1  0
 24 25  2  0
 26 29  1  0
 26 25  1  0
 27 26  2  0
 28 27  1  0
 28 23  2  0
 29 30  1  0
 30 31  1  0
 31 32  2  0
 33 32  1  0
 33 37  1  0
 34 33  2  0
 35 30  2  0
 35 34  1  0
 36 35  1  0
 38 39  1  0
 39 42  1  0
 39 41  1  0
 40 38  2  0
 43 18  1  0
 43 44  1  0
 45 43  1  0
 47 48  1  0
 48 46  1  0
 49  3  1  0
 49 50  1  0
 50 52  1  0
 51 50  1  0
 53 50  1  0
 54 53  2  0
 55 54  1  0
 56 67  2  0
 57 55  1  0
 57 62  1  0
 58 66  1  0
 58 68  1  0
 59 65  1  0
 59 61  1  0
 60 66  1  0
 61 62  2  0
 61 60  1  0
 63 57  2  0
 64 63  1  0
 64 59  2  0
 65 58  1  0
 66 56  1  0
 68 70  2  0
 69 68  1  0
 71 69  1  0
 72 81  2  0
 72 77  1  0
 73 69  1  0
 73 77  1  0
 74 73  1  0
 75 76  1  0
 75 74  1  0
 76 72  1  0
 77 78  2  0
 78 79  1  0
 80 79  2  0
 81 80  1  0
 82 56  1  0
 82 83  1  0
 82 92  1  0
 83 86  1  0
 84 88  1  0
 84 83  1  0
 85 84  2  0
 88 87  1  0
 90 88  1  0
 90 91  1  0
 90 89  1  0
 92 95  1  1
 92 93  1  0
 94 92  1  0
M  ISO  4   8 100  17 100  54 101  55 101
M  END
>  <TORSDO>  (53) 
F 22

>  <SCORE>  (53) 
-12.522

>  <name>  (53) 
52

>  <ligand_id>  (53) 
52

>  <original_smiles>  (53) 
[H]c1c([H])c([H])c2c(c1[H])C([H])([H])C([H])([H])C([H])([H])C2([H])N([H])C(=O)C1([H])N(C(=O)C([H])(N([H])C(=O)C([H])(N([H])C([H])([H])[H])C([H])([H])[H])C(C([H])([H])[H])(C([H])([H])[H])C([H])([H])[H])C([H])([H])c2c([H])c(OC([H])([H])C([H])([H])[N+]([H])([H])C([H])([H])c3c([H])c(C([H])([H])[H])c(N(C(=O)N4C([H])([H])C([H])([H])C([H])([H])C([H])(n5nc(-c6c([H])c([H])c(Oc7c([H])c([H])c(F)c([H])c7F)c([H])c6[H])c(C(=O)N([H])[H])c5N([H])[H])C4([H])[H])C([H])([H])[H])c([H])c3C([H])([H])C([H])([H])C([H])([H])[H])c([H])c([H])c2C1([H])[H]

>  <smiles>  (53) 
[H]c1c([H])c([H])c2c(c1[H])C([H])([H])C([H])([H])C([H])([H])C2([H])N([H])C(=O)C1([H])N(C(=O)C([H])(N([H])C(=O)C([H])(N([H])C([H])([H])[H])C([H])([H])[H])C(C([H])([H])[H])(C([H])([H])[H])C([H])([H])[H])C([H])([H])c2c([H])c(OC([H])([H])C([H])([H])[N+]([H])([H])C([H])([H])c3c([H])c(C([H])([H])[H])c(N(C(=O)N4C([H])([H])C([H])([H])C([H])([H])C([H])(n5nc(-c6c([H])c([H])c(Oc7c([H])c([H])c(F)c([H])c7F)c([H])c6[H])c(C(=O)N([H])[H])c5N([H])[H])C4([H])[H])C([H])([H])[H])c([H])c3C([H])([H])C([H])([H])C([H])([H])[H])c([H])c([H])c2C1([H])[H]

$$$$
53:0:0
     RDKit          3D

 91 99  0  0  1  0  0  0  0  0999 V2000
  -29.6090  -21.0000   20.1090 N   0  0  0  0  0  0  0  0  0  0  0  0
  -29.1840  -20.7050   20.9860 H   0  0  0  0  0  0  0  0  0  0  0  0
  -32.0840  -18.5910   17.4690 C   0  0  0  0  0  3  0  0  0  0  0  0
  -31.7120  -19.9040   17.2010 C   0  0  0  0  0  3  0  0  0  0  0  0
  -31.5820  -17.9690   18.6150 C   0  0  0  0  0  3  0  0  0  0  0  0
  -30.8820  -20.5890   18.0970 C   0  0  0  0  0  3  0  0  0  0  0  0
  -30.7060  -18.6010   19.5370 C   0  0  0  0  0  0  0  0  0  0  0  0
  -30.3660  -20.0380   19.3110 C   0  0  0  0  0  0  0  0  0  0  0  0
  -30.2850  -17.5440   20.6510 C   0  0  0  0  0  2  0  0  0  0  0  0
  -30.5930  -14.8790   20.2870 C   0  0  0  0  0  0  0  0  0  0  0  0
  -30.3690  -12.5640   19.3350 C   0  0  0  0  0  2  0  0  0  0  0  0
  -29.4120  -12.5340   18.1240 C   0  0  0  0  0  2  0  0  0  0  0  0
  -27.9580  -12.3130   18.5880 C   0  0  0  0  0  2  0  0  0  0  0  0
  -27.5610  -13.2410   19.7600 C   0  0  0  0  0  3  0  0  0  0  0  0
  -28.6470  -13.3040   20.8620 C   0  0  0  0  0  2  0  0  0  0  0  0
  -29.9210  -13.6660   20.2180 N   0  0  0  0  0  0  0  0  0  0  0  0
  -31.8230  -14.8700   20.1930 O   0  0  0  0  0  0  0  0  0  0  0  0
  -28.7710  -16.2520   19.2940 C   0  0  0  0  0  1  0  0  0  0  0  0
  -29.8900  -16.1060   20.2290 N   0  0  0  0  0  0  0  0  0  0  0  0
  -25.1980  -13.8650   20.5250 C   0  0  0  0  0  0  0  0  0  0  0  0
  -24.1320  -13.1000   20.9000 C   0  0  0  0  0  0  0  0  0  0  0  0
  -24.5910  -11.7470   20.8730 C   0  0  0  0  0  0  0  0  0  0  0  0
  -26.2350  -12.9720   20.2860 N   0  0  0  0  0  0  0  0  0  0  0  0
  -25.8800  -11.6970   20.5640 N   0  0  0  0  0  0  0  0  0  0  0  0
  -23.8660  -10.4900   21.0640 C   0  0  0  0  0  0  0  0  0  0  0  0
  -24.3120   -9.5180   21.9850 C   0  0  0  0  0  3  0  0  0  0  0  0
  -23.5890   -8.3210   22.1640 C   0  0  0  0  0  3  0  0  0  0  0  0
  -22.4060   -8.0900   21.4220 C   0  0  0  0  0  0  0  0  0  0  0  0
  -21.9810   -9.0510   20.4880 C   0  0  0  0  0  3  0  0  0  0  0  0
  -22.7060  -10.2400   20.3070 C   0  0  0  0  0  3  0  0  0  0  0  0
  -21.6510   -6.9470   21.5150 O   0  0  0  0  0  0  0  0  0  0  0  0
  -21.6300   -6.1910   22.6580 C   0  0  0  0  0  0  0  0  0  0  0  0
  -21.2490   -6.7340   23.9040 C   0  0  0  0  0  3  0  0  0  0  0  0
  -21.1740   -5.9050   25.0410 C   0  0  0  0  0  3  0  0  0  0  0  0
  -21.4710   -4.5330   24.9320 C   0  0  0  0  0  0  0  0  0  0  0  0
  -21.8450   -3.9890   23.6920 C   0  0  0  0  0  3  0  0  0  0  0  0
  -21.9230   -4.8150   22.5570 C   0  0  0  0  0  0  0  0  0  0  0  0
  -22.2640   -4.2830   21.3590 F   0  0  0  0  0  0  0  0  0  0  0  0
  -21.3910   -3.7340   26.0220 F   0  0  0  0  0  0  0  0  0  0  0  0
  -22.7370  -13.5830   21.1680 C   0  0  0  0  0  0  0  0  0  0  0  0
  -22.0080  -12.8920   22.0360 N   0  0  0  0  0  0  0  0  0  0  0  0
  -22.3020  -14.6070   20.6430 O   0  0  0  0  0  0  0  0  0  0  0  0
  -22.3720  -12.0630   22.4840 H   0  0  0  0  0  0  0  0  0  0  0  0
  -21.0710  -13.1970   22.2600 H   0  0  0  0  0  0  0  0  0  0  0  0
  -25.3600  -15.2350   20.3420 N   0  0  0  0  0  0  0  0  0  0  0  0
  -24.5930  -15.8890   20.4630 H   0  0  0  0  0  0  0  0  0  0  0  0
  -26.2110  -15.6770   20.0230 H   0  0  0  0  0  0  0  0  0  0  0  0
  -29.3730  -22.4390   19.6120 C   0  0  0  0  0  3  0  0  0  0  0  0
  -28.7390  -23.6690   20.4630 C   0  0  0  0  0  3  0  0  0  0  0  0
  -28.4830  -25.0630   19.6500 C   0  0  0  0  0  2  0  0  0  0  0  0
  -28.3470  -26.4270   20.2750 O   0  0  0  0  0  0  0  0  0  0  0  0
  -24.6030  -31.8770   23.2400 C   0  0  0  0  0  0  0  0  0  0  0  0
  -27.2130  -27.2730   20.1820 C   0  0  0  0  0  0  0  0  0  0  0  0
  -23.3980  -30.4800   21.5990 C   0  0  0  0  0  3  0  0  0  0  0  0
  -24.8470  -28.9210   20.1690 C   0  0  0  0  0  0  0  0  0  0  0  0
  -25.9410  -30.7830   21.4180 C   0  0  0  0  0  2  0  0  0  0  0  0
  -26.0180  -29.4010   20.7690 C   0  0  0  0  0  0  0  0  0  0  0  0
  -27.1960  -28.5880   20.7640 C   0  0  0  0  0  3  0  0  0  0  0  0
  -26.0110  -26.8560   19.5630 C   0  0  0  0  0  3  0  0  0  0  0  0
  -24.8500  -27.6570   19.5570 C   0  0  0  0  0  3  0  0  0  0  0  0
  -23.6120  -29.8020   20.2190 C   0  0  0  0  0  2  0  0  0  0  0  0
  -24.6670  -31.0650   22.1430 N   0  0  0  0  0  0  0  0  0  0  0  0
  -23.5210  -32.1560   23.7750 O   0  0  0  0  0  0  0  0  0  0  0  0
  -22.7310  -29.4680   22.5620 C   0  0  0  0  0  0  0  0  0  0  0  0
  -21.4040  -29.2930   22.4340 N   0  0  0  0  0  0  0  0  0  0  0  0
  -23.4070  -28.8420   23.3830 O   0  0  0  0  0  0  0  0  0  0  0  0
  -20.9180  -29.8480   21.7450 H   0  0  0  0  0  0  0  0  0  0  0  0
  -18.0270  -28.0880   22.9220 C   0  0  0  0  0  0  0  0  0  0  0  0
  -20.5840  -28.3570   23.2050 C   0  0  0  0  0  3  0  0  0  0  0  0
  -20.6920  -26.9220   22.6360 C   0  0  0  0  0  2  0  0  0  0  0  0
  -19.5960  -26.5920   21.6170 C   0  0  0  0  0  2  0  0  0  0  0  0
  -18.2100  -26.7360   22.2540 C   0  0  0  0  0  2  0  0  0  0  0  0
  -19.1400  -28.8550   23.3550 C   0  0  0  0  0  0  0  0  0  0  0  0
  -18.9150  -30.1200   23.9410 C   0  0  0  0  0  3  0  0  0  0  0  0
  -17.6070  -30.6170   24.0990 C   0  0  0  0  0  3  0  0  0  0  0  0
  -16.5080  -29.8460   23.6820 C   0  0  0  0  0  3  0  0  0  0  0  0
  -16.7180  -28.5840   23.1000 C   0  0  0  0  0  3  0  0  0  0  0  0
  -25.8870  -32.5070   23.8630 C   0  0  0  0  0  3  0  0  0  0  0  0
  -25.5780  -33.9060   24.1970 N   0  0  0  0  0  0  0  0  0  0  0  0
  -25.9080  -34.9610   23.4410 C   0  0  0  0  0  0  0  0  0  0  0  0
  -26.5730  -34.8600   22.4060 O   0  0  0  0  0  0  0  0  0  0  0  0
  -24.9870  -34.0580   25.0010 H   0  0  0  0  0  0  0  0  0  0  0  0
  -24.1780  -36.7570   23.1040 C   0  0  0  0  0  1  0  0  0  0  0  0
  -25.4250  -36.3490   23.9050 C   0  0  0  0  0  3  0  0  0  0  0  0
  -27.5670  -37.2310   24.7200 C   0  0  0  0  0  1  0  0  0  0  0  0
  -26.4570  -37.4020   23.7870 N   0  0  0  0  0  0  0  0  0  0  0  0
  -26.0520  -38.3230   23.9400 H   0  0  0  0  0  0  0  0  0  0  0  0
  -26.4020  -31.7350   25.1400 C   0  0  1  0  0  0  0  0  0  0  0  0
  -25.3090  -31.5020   26.2090 C   0  0  0  0  0  1  0  0  0  0  0  0
  -26.9800  -30.3550   24.7500 C   0  0  0  0  0  1  0  0  0  0  0  0
  -27.5550  -32.5260   25.8010 C   0  0  0  0  0  1  0  0  0  0  0  0
  1  2  1  0
  3  5  1  0
  4  3  2  0
  4  6  1  0
  5  7  2  0
  6  8  2  0
  7  9  1  0
  8  7  1  0
  8  1  1  0
 11 16  1  0
 12 13  1  0
 12 11  1  0
 14 13  1  0
 14 23  1  0
 14 15  1  0
 16 10  1  0
 16 15  1  0
 17 10  2  0
 18 19  1  0
 19 10  1  0
 19  9  1  0
 20 21  2  0
 21 40  1  0
 22 21  1  0
 22 25  1  0
 23 20  1  0
 23 24  1  0
 24 22  2  0
 25 26  1  0
 26 27  2  0
 28 31  1  0
 28 27  1  0
 29 28  2  0
 30 29  1  0
 30 25  2  0
 31 32  1  0
 32 33  1  0
 33 34  2  0
 35 34  1  0
 35 39  1  0
 36 35  2  0
 37 32  2  0
 37 36  1  0
 38 37  1  0
 40 41  1  0
 41 44  1  0
 41 43  1  0
 42 40  2  0
 45 46  1  0
 45 20  1  0
 47 45  1  0
 48  1  1  0
 48 49  2  0
 50 51  1  0
 50 49  1  0
 52 63  2  0
 53 51  1  0
 53 58  1  0
 54 62  1  0
 54 64  1  0
 55 61  1  0
 55 57  1  0
 56 62  1  0
 57 56  1  0
 58 57  2  0
 59 53  2  0
 60 59  1  0
 60 55  2  0
 61 54  1  0
 62 52  1  0
 64 66  2  0
 65 64  1  0
 67 65  1  0
 68 77  2  0
 68 73  1  0
 69 65  1  0
 69 73  1  0
 70 69  1  0
 71 72  1  0
 71 70  1  0
 72 68  1  0
 73 74  2  0
 74 75  1  0
 76 75  2  0
 77 76  1  0
 78 52  1  0
 78 79  1  0
 78 88  1  0
 79 82  1  0
 80 84  1  0
 80 79  1  0
 81 80  2  0
 84 83  1  0
 86 84  1  0
 86 87  1  0
 86 85  1  0
 88 91  1  1
 88 89  1  0
 90 88  1  0
M  ISO  4  10 100  19 100  50 101  51 101
M  END
>  <TORSDO>  (54) 
F 21

>  <SCORE>  (54) 
-13.422

>  <name>  (54) 
53

>  <ligand_id>  (54) 
53

>  <original_smiles>  (54) 
[H]c1c([H])c([H])c(C([H])([H])N(C(=O)N2C([H])([H])C([H])([H])C([H])([H])C([H])(n3nc(-c4c([H])c([H])c(Oc5c([H])c([H])c(F)c([H])c5F)c([H])c4[H])c(C(=O)N([H])[H])c3N([H])[H])C2([H])[H])C([H])([H])[H])c(N([H])C([H])([H])C([H])([H])C([H])([H])Oc2c([H])c([H])c3c(c2[H])C([H])([H])N(C(=O)C([H])(N([H])C(=O)C([H])(N([H])C([H])([H])[H])C([H])([H])[H])C(C([H])([H])[H])(C([H])([H])[H])C([H])([H])[H])C([H])(C(=O)N([H])C2([H])c4c([H])c([H])c([H])c([H])c4C([H])([H])C([H])([H])C2([H])[H])C3([H])[H])c1[H]

>  <smiles>  (54) 
[H]c1c([H])c([H])c(C([H])([H])N(C(=O)N2C([H])([H])C([H])([H])C([H])([H])C([H])(n3nc(-c4c([H])c([H])c(Oc5c([H])c([H])c(F)c([H])c5F)c([H])c4[H])c(C(=O)N([H])[H])c3N([H])[H])C2([H])[H])C([H])([H])[H])c(N([H])C([H])([H])C([H])([H])C([H])([H])Oc2c([H])c([H])c3c(c2[H])C([H])([H])N(C(=O)C([H])(N([H])C(=O)C([H])(N([H])C([H])([H])[H])C([H])([H])[H])C(C([H])([H])[H])(C([H])([H])[H])C([H])([H])[H])C([H])(C(=O)N([H])C2([H])c4c([H])c([H])c([H])c([H])c4C([H])([H])C([H])([H])C2([H])[H])C3([H])[H])c1[H]

$$$$
54:0:0
     RDKit          3D

 95103  0  0  1  0  0  0  0  0999 V2000
  -29.9630  -25.6920   23.0190 C   0  0  0  0  0  3  0  0  0  0  0  0
  -29.5080  -26.6120   22.0600 C   0  0  0  0  0  3  0  0  0  0  0  0
  -28.8270  -24.7620   20.6310 C   0  0  0  0  0  3  0  0  0  0  0  0
  -29.8530  -24.3020   22.8030 C   0  0  0  0  0  0  0  0  0  0  0  0
  -29.2720  -23.8240   21.5930 C   0  0  0  0  0  0  0  0  0  0  0  0
  -28.9290  -26.1510   20.8640 C   0  0  0  0  0  0  0  0  0  0  0  0
  -30.3590  -23.3760   23.8990 C   0  0  0  0  0  1  0  0  0  0  0  0
  -28.1410  -21.7890   22.2160 C   0  0  0  0  0  1  0  0  0  0  0  0
  -29.0860  -22.4520   21.3180 N   0  0  0  0  0  0  0  0  0  0  0  0
  -30.2830  -21.7250   20.8760 C   0  0  0  0  0  2  0  0  0  0  0  0
  -29.9790  -20.3210   20.2870 C   0  0  0  0  0  2  0  0  0  0  0  0
  -30.6800  -19.2480   21.0270 N   0  0  0  0  0  4  0  0  0  0  0  0
  -31.6730  -19.3570   20.8920 H   0  0  0  0  0  0  0  0  0  0  0  0
  -30.4850  -19.3770   22.0080 H   0  0  0  0  0  0  0  0  0  0  0  0
  -30.2830  -17.8690   20.6610 C   0  0  0  0  0  2  0  0  0  0  0  0
  -30.9860  -16.8110   21.5390 C   0  0  0  0  0  2  0  0  0  0  0  0
  -31.0400  -14.5540   20.4460 C   0  0  0  0  0  0  0  0  0  0  0  0
  -30.7040  -12.3920   19.3030 C   0  0  0  0  0  2  0  0  0  0  0  0
  -29.7820  -12.5730   18.0830 C   0  0  0  0  0  2  0  0  0  0  0  0
  -28.3000  -12.4760   18.4960 C   0  0  0  0  0  2  0  0  0  0  0  0
  -27.9610  -13.3700   19.7170 C   0  0  0  0  0  3  0  0  0  0  0  0
  -28.9890  -13.1420   20.8500 C   0  0  0  0  0  2  0  0  0  0  0  0
  -30.3360  -13.4020   20.3060 N   0  0  0  0  0  0  0  0  0  0  0  0
  -32.0930  -14.7860   19.8450 O   0  0  0  0  0  0  0  0  0  0  0  0
  -30.4930  -15.4570   21.2720 N   0  0  0  0  0  0  0  0  0  0  0  0
  -29.6470  -15.1730   21.7450 H   0  0  0  0  0  0  0  0  0  0  0  0
  -25.5690  -14.0600   20.3810 C   0  0  0  0  0  0  0  0  0  0  0  0
  -24.4730  -13.3240   20.7480 C   0  0  0  0  0  0  0  0  0  0  0  0
  -24.8950  -11.9600   20.7450 C   0  0  0  0  0  0  0  0  0  0  0  0
  -26.5920  -13.1460   20.1790 N   0  0  0  0  0  0  0  0  0  0  0  0
  -26.1870  -11.8780   20.4520 N   0  0  0  0  0  0  0  0  0  0  0  0
  -24.1310  -10.7210   20.9470 C   0  0  0  0  0  0  0  0  0  0  0  0
  -24.5210   -9.7620   21.9070 C   0  0  0  0  0  3  0  0  0  0  0  0
  -23.7600   -8.5880   22.0950 C   0  0  0  0  0  3  0  0  0  0  0  0
  -22.5950   -8.3660   21.3220 C   0  0  0  0  0  0  0  0  0  0  0  0
  -22.2230   -9.3150   20.3520 C   0  0  0  0  0  3  0  0  0  0  0  0
  -22.9860  -10.4800   20.1630 C   0  0  0  0  0  3  0  0  0  0  0  0
  -21.8080   -7.2450   21.4180 O   0  0  0  0  0  0  0  0  0  0  0  0
  -21.7130   -6.5300   22.5850 C   0  0  0  0  0  0  0  0  0  0  0  0
  -21.2900   -7.1280   23.7930 C   0  0  0  0  0  3  0  0  0  0  0  0
  -21.1390   -6.3410   24.9520 C   0  0  0  0  0  3  0  0  0  0  0  0
  -21.4040   -4.9590   24.9070 C   0  0  0  0  0  0  0  0  0  0  0  0
  -21.8230   -4.3620   23.7050 C   0  0  0  0  0  3  0  0  0  0  0  0
  -21.9740   -5.1460   22.5470 C   0  0  0  0  0  0  0  0  0  0  0  0
  -22.3570   -4.5620   21.3860 F   0  0  0  0  0  0  0  0  0  0  0  0
  -21.2520   -4.2020   26.0180 F   0  0  0  0  0  0  0  0  0  0  0  0
  -23.0860  -13.8470   20.9930 C   0  0  0  0  0  0  0  0  0  0  0  0
  -22.3270  -13.1960   21.8660 N   0  0  0  0  0  0  0  0  0  0  0  0
  -22.6840  -14.8700   20.4420 O   0  0  0  0  0  0  0  0  0  0  0  0
  -22.6610  -12.3730   22.3440 H   0  0  0  0  0  0  0  0  0  0  0  0
  -21.3950  -13.5340   22.0670 H   0  0  0  0  0  0  0  0  0  0  0  0
  -25.7730  -15.4230   20.1830 N   0  0  0  0  0  0  0  0  0  0  0  0
  -25.0220  -16.0990   20.2740 H   0  0  0  0  0  0  0  0  0  0  0  0
  -26.6340  -15.8260   19.8350 H   0  0  0  0  0  0  0  0  0  0  0  0
  -28.5480  -27.0490   19.9000 O   0  0  0  0  0  0  0  0  0  0  0  0
  -24.5630  -31.9780   23.2150 C   0  0  0  0  0  0  0  0  0  0  0  0
  -27.3510  -27.7100   20.0320 C   0  0  0  0  0  0  0  0  0  0  0  0
  -23.4050  -30.5910   21.5250 C   0  0  0  0  0  3  0  0  0  0  0  0
  -24.9070  -29.1240   20.0790 C   0  0  0  0  0  0  0  0  0  0  0  0
  -25.9190  -31.0250   21.3540 C   0  0  0  0  0  2  0  0  0  0  0  0
  -26.0450  -29.6710   20.6870 C   0  0  0  0  0  0  0  0  0  0  0  0
  -27.2720  -28.9710   20.6620 C   0  0  0  0  0  3  0  0  0  0  0  0
  -26.1980  -27.1640   19.4330 C   0  0  0  0  0  3  0  0  0  0  0  0
  -24.9760  -27.8660   19.4540 C   0  0  0  0  0  3  0  0  0  0  0  0
  -23.6410  -29.9500   20.1310 C   0  0  0  0  0  2  0  0  0  0  0  0
  -24.6460  -31.2110   22.0900 N   0  0  0  0  0  0  0  0  0  0  0  0
  -23.4730  -32.2090   23.7530 O   0  0  0  0  0  0  0  0  0  0  0  0
  -22.7710  -29.5300   22.4530 C   0  0  0  0  0  0  0  0  0  0  0  0
  -21.4490  -29.3370   22.3240 N   0  0  0  0  0  0  0  0  0  0  0  0
  -23.4670  -28.8820   23.2400 O   0  0  0  0  0  0  0  0  0  0  0  0
  -20.9490  -29.9110   21.6580 H   0  0  0  0  0  0  0  0  0  0  0  0
  -18.0820  -28.1290   22.8310 C   0  0  0  0  0  0  0  0  0  0  0  0
  -20.6460  -28.3650   23.0630 C   0  0  0  0  0  3  0  0  0  0  0  0
  -20.7310  -26.9650   22.4130 C   0  0  0  0  0  2  0  0  0  0  0  0
  -19.6080  -26.6960   21.4070 C   0  0  0  0  0  2  0  0  0  0  0  0
  -18.2400  -26.8140   22.0850 C   0  0  0  0  0  2  0  0  0  0  0  0
  -19.2130  -28.8640   23.2760 C   0  0  0  0  0  0  0  0  0  0  0  0
  -19.0110  -30.0970   23.9330 C   0  0  0  0  0  3  0  0  0  0  0  0
  -17.7120  -30.5960   24.1480 C   0  0  0  0  0  3  0  0  0  0  0  0
  -16.5960  -29.8550   23.7190 C   0  0  0  0  0  3  0  0  0  0  0  0
  -16.7830  -28.6230   23.0680 C   0  0  0  0  0  3  0  0  0  0  0  0
  -25.8300  -32.6210   23.8610 C   0  0  0  0  0  3  0  0  0  0  0  0
  -25.5040  -34.0170   24.1800 N   0  0  0  0  0  0  0  0  0  0  0  0
  -25.8440  -35.0680   23.4220 C   0  0  0  0  0  0  0  0  0  0  0  0
  -26.5380  -34.9650   22.4070 O   0  0  0  0  0  0  0  0  0  0  0  0
  -24.8910  -34.1700   24.9670 H   0  0  0  0  0  0  0  0  0  0  0  0
  -24.1030  -36.8380   23.0240 C   0  0  0  0  0  1  0  0  0  0  0  0
  -25.3330  -36.4530   23.8620 C   0  0  0  0  0  3  0  0  0  0  0  0
  -27.4440  -37.3640   24.7250 C   0  0  0  0  0  1  0  0  0  0  0  0
  -26.3570  -37.5160   23.7600 N   0  0  0  0  0  0  0  0  0  0  0  0
  -25.9390  -38.4340   23.8950 H   0  0  0  0  0  0  0  0  0  0  0  0
  -26.3280  -31.8550   25.1490 C   0  0  1  0  0  0  0  0  0  0  0  0
  -25.2150  -31.6010   26.1920 C   0  0  0  0  0  1  0  0  0  0  0  0
  -26.9360  -30.4860   24.7640 C   0  0  0  0  0  1  0  0  0  0  0  0
  -27.4540  -32.6640   25.8360 C   0  0  0  0  0  1  0  0  0  0  0  0
  2  1  2  0
  3  6  2  0
  3  5  1  0
  4  1  1  0
  4  7  1  0
  5  4  2  0
  6  2  1  0
  9  5  1  0
  9  8  1  0
 10  9  1  0
 11 10  1  0
 11 12  1  0
 12 14  1  0
 13 12  1  0
 15 12  1  0
 15 16  1  0
 17 25  1  0
 18 23  1  0
 19 20  1  0
 19 18  1  0
 21 20  1  0
 21 30  1  0
 21 22  1  0
 23 17  1  0
 23 22  1  0
 24 17  2  0
 25 16  1  0
 25 26  1  0
 27 28  2  0
 28 47  1  0
 29 28  1  0
 29 32  1  0
 30 27  1  0
 30 31  1  0
 31 29  2  0
 32 33  1  0
 33 34  2  0
 35 38  1  0
 35 34  1  0
 36 35  2  0
 37 36  1  0
 37 32  2  0
 38 39  1  0
 39 40  1  0
 40 41  2  0
 42 41  1  0
 42 46  1  0
 43 42  2  0
 44 39  2  0
 44 43  1  0
 45 44  1  0
 47 48  1  0
 48 51  1  0
 48 50  1  0
 49 47  2  0
 52 53  1  0
 52 27  1  0
 54 52  1  0
 55 57  1  0
 55  6  1  0
 56 67  2  0
 57 62  1  0
 58 66  1  0
 58 68  1  0
 59 65  1  0
 59 61  1  0
 60 66  1  0
 61 60  1  0
 62 61  2  0
 63 64  1  0
 63 57  2  0
 64 59  2  0
 65 58  1  0
 66 56  1  0
 68 70  2  0
 69 68  1  0
 71 69  1  0
 72 81  2  0
 72 77  1  0
 73 69  1  0
 73 77  1  0
 74 73  1  0
 75 76  1  0
 75 74  1  0
 76 72  1  0
 77 78  2  0
 78 79  1  0
 80 79  2  0
 81 80  1  0
 82 56  1  0
 82 83  1  0
 82 92  1  0
 83 86  1  0
 84 88  1  0
 84 83  1  0
 85 84  2  0
 88 87  1  0
 90 88  1  0
 90 91  1  0
 90 89  1  0
 92 95  1  1
 92 93  1  0
 94 92  1  0
M  ISO  4   6 101  17 100  25 100  55 101
M  END
>  <TORSDO>  (55) 
F 22

>  <SCORE>  (55) 
-12.118

>  <name>  (55) 
54

>  <ligand_id>  (55) 
54

>  <original_smiles>  (55) 
[H]c1c([H])c([H])c2c(c1[H])C([H])([H])C([H])([H])C([H])([H])C2([H])N([H])C(=O)C1([H])N(C(=O)C([H])(N([H])C(=O)C([H])(N([H])C([H])([H])[H])C([H])([H])[H])C(C([H])([H])[H])(C([H])([H])[H])C([H])([H])[H])C([H])([H])c2c([H])c(Oc3c([H])c([H])c(C([H])([H])[H])c(N(C([H])([H])[H])C([H])([H])C([H])([H])[N+]([H])([H])C([H])([H])C([H])([H])N([H])C(=O)N4C([H])([H])C([H])([H])C([H])([H])C([H])(n5nc(-c6c([H])c([H])c(Oc7c([H])c([H])c(F)c([H])c7F)c([H])c6[H])c(C(=O)N([H])[H])c5N([H])[H])C4([H])[H])c3[H])c([H])c([H])c2C1([H])[H]

>  <smiles>  (55) 
[H]c1c([H])c([H])c2c(c1[H])C([H])([H])C([H])([H])C([H])([H])C2([H])N([H])C(=O)C1([H])N(C(=O)C([H])(N([H])C(=O)C([H])(N([H])C([H])([H])[H])C([H])([H])[H])C(C([H])([H])[H])(C([H])([H])[H])C([H])([H])[H])C([H])([H])c2c([H])c(Oc3c([H])c([H])c(C([H])([H])[H])c(N(C([H])([H])[H])C([H])([H])C([H])([H])[N+]([H])([H])C([H])([H])C([H])([H])N([H])C(=O)N4C([H])([H])C([H])([H])C([H])([H])C([H])(n5nc(-c6c([H])c([H])c(Oc7c([H])c([H])c(F)c([H])c7F)c([H])c6[H])c(C(=O)N([H])[H])c5N([H])[H])C4([H])[H])c3[H])c([H])c([H])c2C1([H])[H]

$$$$
55:0:0
     RDKit          3D

 93101  0  0  1  0  0  0  0  0999 V2000
  -29.0340  -21.7760   20.4430 N   0  0  0  0  0  4  0  0  0  0  0  0
  -28.4380  -21.4610   19.6950 H   0  0  0  0  0  0  0  0  0  0  0  0
  -29.9650  -21.8810   20.0790 H   0  0  0  0  0  0  0  0  0  0  0  0
  -29.0500  -20.7510   21.5150 C   0  0  0  0  0  2  0  0  0  0  0  0
  -28.6810  -18.3230   20.8620 C   0  0  0  0  0  3  0  0  0  0  0  0
  -29.1060  -16.9820   20.7730 C   0  0  0  0  0  3  0  0  0  0  0  0
  -31.4050  -17.7030   21.1330 C   0  0  0  0  0  3  0  0  0  0  0  0
  -29.5990  -19.3650   21.1420 C   0  0  0  0  0  0  0  0  0  0  0  0
  -30.9820  -19.0530   21.2280 C   0  0  0  0  0  0  0  0  0  0  0  0
  -30.4680  -16.6590   20.9410 C   0  0  0  0  0  0  0  0  0  0  0  0
  -32.0250  -20.1380   21.4750 C   0  0  0  0  0  1  0  0  0  0  0  0
  -31.1840  -14.5160   20.0350 C   0  0  0  0  0  0  0  0  0  0  0  0
  -30.7110  -12.4150   18.8220 C   0  0  0  0  0  2  0  0  0  0  0  0
  -29.6770  -12.6530   17.7040 C   0  0  0  0  0  2  0  0  0  0  0  0
  -28.2420  -12.5370   18.2520 C   0  0  0  0  0  2  0  0  0  0  0  0
  -28.0270  -13.3500   19.5580 C   0  0  0  0  0  3  0  0  0  0  0  0
  -29.1640  -13.0970   20.5740 C   0  0  0  0  0  2  0  0  0  0  0  0
  -30.4490  -13.3780   19.9050 N   0  0  0  0  0  0  0  0  0  0  0  0
  -32.1670  -14.7670   19.3350 O   0  0  0  0  0  0  0  0  0  0  0  0
  -30.8720  -15.3050   21.0740 N   0  0  0  0  0  0  0  0  0  0  0  0
  -31.6070  -15.2190   21.7610 H   0  0  0  0  0  0  0  0  0  0  0  0
  -25.7230  -13.9780   20.5140 C   0  0  0  0  0  0  0  0  0  0  0  0
  -24.6670  -13.2140   20.9360 C   0  0  0  0  0  0  0  0  0  0  0  0
  -25.0730  -11.8550   20.7770 C   0  0  0  0  0  0  0  0  0  0  0  0
  -26.7130  -13.0830   20.1380 N   0  0  0  0  0  0  0  0  0  0  0  0
  -26.3270  -11.7960   20.3490 N   0  0  0  0  0  0  0  0  0  0  0  0
  -24.3190  -10.6080   20.9540 C   0  0  0  0  0  0  0  0  0  0  0  0
  -24.7290   -9.6240   21.8790 C   0  0  0  0  0  3  0  0  0  0  0  0
  -23.9860   -8.4370   22.0440 C   0  0  0  0  0  3  0  0  0  0  0  0
  -22.8120   -8.2250   21.2820 C   0  0  0  0  0  0  0  0  0  0  0  0
  -22.4180   -9.1950   20.3450 C   0  0  0  0  0  3  0  0  0  0  0  0
  -23.1630  -10.3760   20.1790 C   0  0  0  0  0  3  0  0  0  0  0  0
  -22.0350   -7.0930   21.3590 O   0  0  0  0  0  0  0  0  0  0  0  0
  -21.8710   -6.4110   22.5380 C   0  0  0  0  0  0  0  0  0  0  0  0
  -21.3320   -7.0270   23.6880 C   0  0  0  0  0  3  0  0  0  0  0  0
  -21.1180   -6.2690   24.8570 C   0  0  0  0  0  3  0  0  0  0  0  0
  -21.4300   -4.8970   24.8740 C   0  0  0  0  0  0  0  0  0  0  0  0
  -21.9610   -4.2810   23.7280 C   0  0  0  0  0  3  0  0  0  0  0  0
  -22.1790   -5.0360   22.5630 C   0  0  0  0  0  0  0  0  0  0  0  0
  -22.6720   -4.4330   21.4550 F   0  0  0  0  0  0  0  0  0  0  0  0
  -21.2170   -4.1670   25.9930 F   0  0  0  0  0  0  0  0  0  0  0  0
  -23.3180  -13.7170   21.3670 C   0  0  0  0  0  0  0  0  0  0  0  0
  -22.6490  -12.9990   22.2630 N   0  0  0  0  0  0  0  0  0  0  0  0
  -22.8700  -14.7800   20.9420 O   0  0  0  0  0  0  0  0  0  0  0  0
  -23.0190  -12.1360   22.6320 H   0  0  0  0  0  0  0  0  0  0  0  0
  -21.7470  -13.3210   22.5810 H   0  0  0  0  0  0  0  0  0  0  0  0
  -25.9070  -15.3510   20.3940 N   0  0  0  0  0  0  0  0  0  0  0  0
  -25.1330  -15.9900   20.5350 H   0  0  0  0  0  0  0  0  0  0  0  0
  -26.6840  -15.7790   19.9070 H   0  0  0  0  0  0  0  0  0  0  0  0
  -28.5620  -23.0920   20.9520 C   0  0  0  0  0  2  0  0  0  0  0  0
  -28.8510  -24.3100   20.0370 C   0  0  0  0  0  2  0  0  0  0  0  0
  -28.4810  -25.6330   20.7450 C   0  0  0  0  0  2  0  0  0  0  0  0
  -28.5180  -26.7780   19.8850 O   0  0  0  0  0  0  0  0  0  0  0  0
  -24.6950  -31.8570   23.0720 C   0  0  0  0  0  0  0  0  0  0  0  0
  -27.3500  -27.5020   19.9040 C   0  0  0  0  0  0  0  0  0  0  0  0
  -23.4780  -30.4550   21.4370 C   0  0  0  0  0  3  0  0  0  0  0  0
  -24.9300  -28.9530   19.9710 C   0  0  0  0  0  0  0  0  0  0  0  0
  -25.9950  -30.8540   21.2030 C   0  0  0  0  0  2  0  0  0  0  0  0
  -26.0880  -29.4940   20.5470 C   0  0  0  0  0  0  0  0  0  0  0  0
  -27.3000  -28.7740   20.5160 C   0  0  0  0  0  3  0  0  0  0  0  0
  -26.1810  -26.9700   19.3210 C   0  0  0  0  0  3  0  0  0  0  0  0
  -24.9710  -27.6890   19.3560 C   0  0  0  0  0  3  0  0  0  0  0  0
  -23.6730  -29.7890   20.0490 C   0  0  0  0  0  2  0  0  0  0  0  0
  -24.7410  -31.0690   21.9640 N   0  0  0  0  0  0  0  0  0  0  0  0
  -23.6180  -32.1090   23.6320 O   0  0  0  0  0  0  0  0  0  0  0  0
  -22.8580  -29.4160   22.3960 C   0  0  0  0  0  0  0  0  0  0  0  0
  -21.5340  -29.2190   22.2960 N   0  0  0  0  0  0  0  0  0  0  0  0
  -23.5670  -28.7900   23.1910 O   0  0  0  0  0  0  0  0  0  0  0  0
  -21.0210  -29.7880   21.6380 H   0  0  0  0  0  0  0  0  0  0  0  0
  -18.1880  -27.9740   22.8320 C   0  0  0  0  0  0  0  0  0  0  0  0
  -20.7470  -28.2620   23.0710 C   0  0  0  0  0  3  0  0  0  0  0  0
  -20.8620  -26.8400   22.4790 C   0  0  0  0  0  2  0  0  0  0  0  0
  -19.7510  -26.5160   21.4750 C   0  0  0  0  0  2  0  0  0  0  0  0
  -18.3750  -26.6370   22.1350 C   0  0  0  0  0  2  0  0  0  0  0  0
  -19.3020  -28.7440   23.2580 C   0  0  0  0  0  0  0  0  0  0  0  0
  -19.0760  -30.0000   23.8630 C   0  0  0  0  0  3  0  0  0  0  0  0
  -17.7670  -30.4840   24.0520 C   0  0  0  0  0  3  0  0  0  0  0  0
  -16.6700  -29.7070   23.6430 C   0  0  0  0  0  3  0  0  0  0  0  0
  -16.8800  -28.4550   23.0370 C   0  0  0  0  0  3  0  0  0  0  0  0
  -25.9860  -32.4980   23.6770 C   0  0  0  0  0  3  0  0  0  0  0  0
  -25.6540  -33.8700   24.0770 N   0  0  0  0  0  0  0  0  0  0  0  0
  -25.9240  -34.9610   23.3480 C   0  0  0  0  0  0  0  0  0  0  0  0
  -26.5560  -34.9220   22.2880 O   0  0  0  0  0  0  0  0  0  0  0  0
  -25.0920  -33.9740   24.9090 H   0  0  0  0  0  0  0  0  0  0  0  0
  -24.1350  -36.7140   23.1230 C   0  0  0  0  0  1  0  0  0  0  0  0
  -25.4120  -36.3130   23.8800 C   0  0  0  0  0  3  0  0  0  0  0  0
  -27.5440  -37.2240   24.6880 C   0  0  0  0  0  1  0  0  0  0  0  0
  -26.4100  -37.4010   23.7830 N   0  0  0  0  0  0  0  0  0  0  0  0
  -25.9790  -38.3000   23.9870 H   0  0  0  0  0  0  0  0  0  0  0  0
  -26.5740  -31.6830   24.8950 C   0  0  1  0  0  0  0  0  0  0  0  0
  -25.5230  -31.3450   25.9740 C   0  0  0  0  0  1  0  0  0  0  0  0
  -27.2030  -30.3540   24.4140 C   0  0  0  0  0  1  0  0  0  0  0  0
  -27.7070  -32.4950   25.5660 C   0  0  0  0  0  1  0  0  0  0  0  0
  1 50  1  0
  1  4  1  0
  2  1  1  0
  3  1  1  0
  5  8  1  0
  6  5  2  0
  6 10  1  0
  7  9  1  0
  8  9  2  0
  8  4  1  0
  9 11  1  0
 10 20  1  0
 10  7  2  0
 12 20  1  0
 13 18  1  0
 14 15  1  0
 14 13  1  0
 16 15  1  0
 16 25  1  0
 16 17  1  0
 18 12  1  0
 18 17  1  0
 19 12  2  0
 20 21  1  0
 22 23  2  0
 23 42  1  0
 24 23  1  0
 24 27  1  0
 25 26  1  0
 25 22  1  0
 26 24  2  0
 27 28  1  0
 28 29  2  0
 30 33  1  0
 30 29  1  0
 31 30  2  0
 32 31  1  0
 32 27  2  0
 33 34  1  0
 34 39  2  0
 34 35  1  0
 35 36  2  0
 36 37  1  0
 37 41  1  0
 38 37  2  0
 39 38  1  0
 40 39  1  0
 42 43  1  0
 43 46  1  0
 43 45  1  0
 44 42  2  0
 47 22  1  0
 47 48  1  0
 49 47  1  0
 51 52  1  0
 51 50  1  0
 53 55  1  0
 53 52  1  0
 54 65  2  0
 55 60  1  0
 56 64  1  0
 56 66  1  0
 57 63  1  0
 57 59  1  0
 58 64  1  0
 59 58  1  0
 60 59  2  0
 61 62  1  0
 61 55  2  0
 62 57  2  0
 63 56  1  0
 64 54  1  0
 66 68  2  0
 67 66  1  0
 69 67  1  0
 70 79  2  0
 70 75  1  0
 71 67  1  0
 71 75  1  0
 72 71  1  0
 73 74  1  0
 73 72  1  0
 74 70  1  0
 75 76  2  0
 76 77  1  0
 78 77  2  0
 79 78  1  0
 80 54  1  0
 80 81  1  0
 80 90  1  0
 81 84  1  0
 82 86  1  0
 82 81  1  0
 83 82  2  0
 86 85  1  0
 88 86  1  0
 88 89  1  0
 88 87  1  0
 90 93  1  1
 90 91  1  0
 92 90  1  0
M  ISO  4  12 100  20 100  52 101  53 101
M  END
>  <TORSDO>  (56) 
F 21

>  <SCORE>  (56) 
-12.565

>  <name>  (56) 
55

>  <ligand_id>  (56) 
55

>  <original_smiles>  (56) 
[H]c1c([H])c([H])c2c(c1[H])C([H])([H])C([H])([H])C([H])([H])C2([H])N([H])C(=O)C1([H])N(C(=O)C([H])(N([H])C(=O)C([H])(N([H])C([H])([H])[H])C([H])([H])[H])C(C([H])([H])[H])(C([H])([H])[H])C([H])([H])[H])C([H])([H])c2c([H])c(OC([H])([H])C([H])([H])C([H])([H])[N+]([H])([H])C([H])([H])c3c([H])c([H])c(N([H])C(=O)N4C([H])([H])C([H])([H])C([H])([H])C([H])(n5nc(-c6c([H])c([H])c(Oc7c([H])c([H])c(F)c([H])c7F)c([H])c6[H])c(C(=O)N([H])[H])c5N([H])[H])C4([H])[H])c([H])c3C([H])([H])[H])c([H])c([H])c2C1([H])[H]

>  <smiles>  (56) 
[H]c1c([H])c([H])c2c(c1[H])C([H])([H])C([H])([H])C([H])([H])C2([H])N([H])C(=O)C1([H])N(C(=O)C([H])(N([H])C(=O)C([H])(N([H])C([H])([H])[H])C([H])([H])[H])C(C([H])([H])[H])(C([H])([H])[H])C([H])([H])[H])C([H])([H])c2c([H])c(OC([H])([H])C([H])([H])C([H])([H])[N+]([H])([H])C([H])([H])c3c([H])c([H])c(N([H])C(=O)N4C([H])([H])C([H])([H])C([H])([H])C([H])(n5nc(-c6c([H])c([H])c(Oc7c([H])c([H])c(F)c([H])c7F)c([H])c6[H])c(C(=O)N([H])[H])c5N([H])[H])C4([H])[H])c([H])c3C([H])([H])[H])c([H])c([H])c2C1([H])[H]

$$$$
56:0:0
     RDKit          3D

 95103  0  0  1  0  0  0  0  0999 V2000
  -28.9570  -19.4040   20.4020 C   0  0  0  0  0  3  0  0  0  0  0  0
  -31.3260  -19.6050   20.7240 C   0  0  0  0  0  3  0  0  0  0  0  0
  -29.0790  -17.9790   20.4020 C   0  0  0  0  0  3  0  0  0  0  0  0
  -31.4450  -18.1850   20.7450 C   0  0  0  0  0  3  0  0  0  0  0  0
  -30.0690  -20.2530   20.6260 C   0  0  0  0  0  0  0  0  0  0  0  0
  -30.3170  -17.3140   20.6670 C   0  0  0  0  0  0  0  0  0  0  0  0
  -31.5800  -15.5990   22.0960 C   0  0  0  0  0  1  0  0  0  0  0  0
  -30.3810  -15.7810   21.1250 C   0  0  2  0  0  0  0  0  0  0  0  0
  -30.6130  -14.6440   20.0000 C   0  0  0  0  0  0  0  0  0  0  0  0
  -30.2180  -12.5180   18.7220 C   0  0  0  0  0  2  0  0  0  0  0  0
  -29.1710  -12.7000   17.6010 C   0  0  0  0  0  2  0  0  0  0  0  0
  -27.7400  -12.5050   18.1380 C   0  0  0  0  0  2  0  0  0  0  0  0
  -27.5020  -13.2800   19.4590 C   0  0  0  0  0  3  0  0  0  0  0  0
  -28.6490  -12.9990   20.4550 C   0  0  0  0  0  2  0  0  0  0  0  0
  -29.9070  -13.4590   19.8330 N   0  0  0  0  0  0  0  0  0  0  0  0
  -31.5880  -14.8370   19.2630 O   0  0  0  0  0  0  0  0  0  0  0  0
  -25.1650  -13.8510   20.3670 C   0  0  0  0  0  0  0  0  0  0  0  0
  -24.1410  -13.0630   20.8160 C   0  0  0  0  0  0  0  0  0  0  0  0
  -24.6090  -11.7150   20.7250 C   0  0  0  0  0  0  0  0  0  0  0  0
  -26.1960  -12.9810   20.0390 N   0  0  0  0  0  0  0  0  0  0  0  0
  -25.8710  -11.6920   20.3110 N   0  0  0  0  0  0  0  0  0  0  0  0
  -23.9090  -10.4440   20.9540 C   0  0  0  0  0  0  0  0  0  0  0  0
  -24.3970   -9.4900   21.8740 C   0  0  0  0  0  3  0  0  0  0  0  0
  -23.6960   -8.2830   22.0880 C   0  0  0  0  0  3  0  0  0  0  0  0
  -22.4970   -8.0220   21.3830 C   0  0  0  0  0  0  0  0  0  0  0  0
  -22.0300   -8.9660   20.4500 C   0  0  0  0  0  3  0  0  0  0  0  0
  -22.7310  -10.1630   20.2350 C   0  0  0  0  0  3  0  0  0  0  0  0
  -21.7630   -6.8670   21.5100 O   0  0  0  0  0  0  0  0  0  0  0  0
  -21.7380   -6.1560   22.6830 C   0  0  0  0  0  0  0  0  0  0  0  0
  -21.3140   -6.7380   23.8980 C   0  0  0  0  0  3  0  0  0  0  0  0
  -21.2370   -5.9520   25.0650 C   0  0  0  0  0  3  0  0  0  0  0  0
  -21.5730   -4.5850   25.0190 C   0  0  0  0  0  0  0  0  0  0  0  0
  -21.9870   -4.0030   23.8090 C   0  0  0  0  0  3  0  0  0  0  0  0
  -22.0680   -4.7860   22.6440 C   0  0  0  0  0  0  0  0  0  0  0  0
  -22.4490   -4.2160   21.4770 F   0  0  0  0  0  0  0  0  0  0  0  0
  -21.4910   -3.8300   26.1390 F   0  0  0  0  0  0  0  0  0  0  0  0
  -22.7660  -13.5230   21.2070 C   0  0  0  0  0  0  0  0  0  0  0  0
  -22.1160  -12.8120   22.1220 N   0  0  0  0  0  0  0  0  0  0  0  0
  -22.2780  -14.5480   20.7330 O   0  0  0  0  0  0  0  0  0  0  0  0
  -22.5260  -11.9860   22.5330 H   0  0  0  0  0  0  0  0  0  0  0  0
  -21.1960  -13.1030   22.4220 H   0  0  0  0  0  0  0  0  0  0  0  0
  -25.3040  -15.2240   20.1890 N   0  0  0  0  0  0  0  0  0  0  0  0
  -24.4730  -15.8000   20.2590 H   0  0  0  0  0  0  0  0  0  0  0  0
  -25.9570  -15.5850   19.5030 H   0  0  0  0  0  0  0  0  0  0  0  0
  -29.1770  -15.5730   21.9440 N   0  0  0  0  0  4  0  0  0  0  0  0
  -29.2000  -16.1940   22.7320 H   0  0  0  0  0  0  0  0  0  0  0  0
  -29.1340  -14.6280   22.2820 H   0  0  0  0  0  0  0  0  0  0  0  0
  -28.3500  -15.7810   21.4150 H   0  0  0  0  0  0  0  0  0  0  0  0
  -29.9270  -21.7710   21.0120 C   0  0  0  0  0  2  0  0  0  0  0  0
  -29.4520  -22.8040   20.0250 N   0  0  0  0  0  4  0  0  0  0  0  0
  -28.5480  -22.5090   19.6960 H   0  0  0  0  0  0  0  0  0  0  0  0
  -30.0750  -22.7950   19.2330 H   0  0  0  0  0  0  0  0  0  0  0  0
  -29.3470  -24.2220   20.5720 C   0  0  0  0  0  3  0  0  0  0  0  0
  -28.4600  -25.2400   19.7570 C   0  0  0  0  0  3  0  0  0  0  0  0
  -28.4250  -26.6200   20.2710 O   0  0  0  0  0  0  0  0  0  0  0  0
  -24.6570  -31.9240   23.3110 C   0  0  0  0  0  0  0  0  0  0  0  0
  -27.2600  -27.3970   20.2170 C   0  0  0  0  0  0  0  0  0  0  0  0
  -23.4350  -30.5310   21.6760 C   0  0  0  0  0  3  0  0  0  0  0  0
  -24.8740  -28.9760   20.2380 C   0  0  0  0  0  0  0  0  0  0  0  0
  -25.9670  -30.8500   21.4710 C   0  0  0  0  0  2  0  0  0  0  0  0
  -26.0420  -29.4710   20.8310 C   0  0  0  0  0  0  0  0  0  0  0  0
  -27.2290  -28.6880   20.8220 C   0  0  0  0  0  3  0  0  0  0  0  0
  -26.0720  -26.9540   19.5870 C   0  0  0  0  0  3  0  0  0  0  0  0
  -24.8900  -27.7200   19.6110 C   0  0  0  0  0  3  0  0  0  0  0  0
  -23.6350  -29.8470   20.2960 C   0  0  0  0  0  2  0  0  0  0  0  0
  -24.7060  -31.1170   22.2120 N   0  0  0  0  0  0  0  0  0  0  0  0
  -23.5780  -32.2070   23.8540 O   0  0  0  0  0  0  0  0  0  0  0  0
  -22.7760  -29.5170   22.6390 C   0  0  0  0  0  0  0  0  0  0  0  0
  -21.4530  -29.3290   22.5030 N   0  0  0  0  0  0  0  0  0  0  0  0
  -23.4540  -28.9020   23.4660 O   0  0  0  0  0  0  0  0  0  0  0  0
  -20.9670  -29.8790   21.8100 H   0  0  0  0  0  0  0  0  0  0  0  0
  -18.0840  -28.1030   22.9650 C   0  0  0  0  0  0  0  0  0  0  0  0
  -20.6350  -28.3920   23.2720 C   0  0  0  0  0  3  0  0  0  0  0  0
  -20.7620  -26.9540   22.7170 C   0  0  0  0  0  2  0  0  0  0  0  0
  -19.6800  -26.6070   21.6900 C   0  0  0  0  0  2  0  0  0  0  0  0
  -18.2870  -26.7460   22.3100 C   0  0  0  0  0  2  0  0  0  0  0  0
  -19.1890  -28.8820   23.4020 C   0  0  0  0  0  0  0  0  0  0  0  0
  -18.9470  -30.1520   23.9720 C   0  0  0  0  0  3  0  0  0  0  0  0
  -17.6340  -30.6400   24.1120 C   0  0  0  0  0  3  0  0  0  0  0  0
  -16.5460  -29.8590   23.6910 C   0  0  0  0  0  3  0  0  0  0  0  0
  -16.7700  -28.5930   23.1220 C   0  0  0  0  0  3  0  0  0  0  0  0
  -25.9480  -32.5470   23.9270 C   0  0  0  0  0  3  0  0  0  0  0  0
  -25.6540  -33.9500   24.2490 N   0  0  0  0  0  0  0  0  0  0  0  0
  -25.9870  -34.9950   23.4800 C   0  0  0  0  0  0  0  0  0  0  0  0
  -26.6450  -34.8790   22.4410 O   0  0  0  0  0  0  0  0  0  0  0  0
  -25.0670  -34.1140   25.0560 H   0  0  0  0  0  0  0  0  0  0  0  0
  -24.2670  -36.7990   23.1300 C   0  0  0  0  0  1  0  0  0  0  0  0
  -25.5140  -36.3910   23.9310 C   0  0  0  0  0  3  0  0  0  0  0  0
  -27.6640  -37.2670   24.7310 C   0  0  0  0  0  1  0  0  0  0  0  0
  -26.5540  -37.4360   23.7970 N   0  0  0  0  0  0  0  0  0  0  0  0
  -26.1570  -38.3600   23.9400 H   0  0  0  0  0  0  0  0  0  0  0  0
  -26.4600  -31.7760   25.2050 C   0  0  1  0  0  0  0  0  0  0  0  0
  -25.3640  -31.5410   26.2700 C   0  0  0  0  0  1  0  0  0  0  0  0
  -27.0400  -30.3980   24.8130 C   0  0  0  0  0  1  0  0  0  0  0  0
  -27.6100  -32.5680   25.8680 C   0  0  0  0  0  1  0  0  0  0  0  0
  1  3  2  0
  1  5  1  0
  2  4  1  0
  3  6  1  0
  5  2  2  0
  5 49  1  0
  6  4  2  0
  6  8  1  0
  8 45  1  0
  8  7  1  1
  9  8  1  0
 10 15  1  0
 11 12  1  0
 11 10  1  0
 13 12  1  0
 13 20  1  0
 13 14  1  0
 15  9  1  0
 15 14  1  0
 16  9  2  0
 17 18  2  0
 18 37  1  0
 19 18  1  0
 19 22  1  0
 20 21  1  0
 20 17  1  0
 21 19  2  0
 22 23  1  0
 23 24  2  0
 25 28  1  0
 25 24  1  0
 26 25  2  0
 27 26  1  0
 27 22  2  0
 28 29  1  0
 29 30  1  0
 30 31  2  0
 32 31  1  0
 32 36  1  0
 33 32  2  0
 34 29  2  0
 34 33  1  0
 35 34  1  0
 37 38  1  0
 38 41  1  0
 38 40  1  0
 39 37  2  0
 42 43  1  0
 42 17  1  0
 44 42  1  0
 45 47  1  0
 45 46  1  0
 48 45  1  0
 50 53  1  0
 50 49  1  0
 51 50  1  0
 52 50  1  0
 54 55  1  0
 54 53  2  0
 56 67  2  0
 57 55  1  0
 57 62  1  0
 58 66  1  0
 58 68  1  0
 59 65  1  0
 59 61  1  0
 60 66  1  0
 61 60  1  0
 62 61  2  0
 63 64  1  0
 63 57  2  0
 64 59  2  0
 65 58  1  0
 66 56  1  0
 68 70  2  0
 69 68  1  0
 71 69  1  0
 72 81  2  0
 72 77  1  0
 73 69  1  0
 73 77  1  0
 74 73  1  0
 75 76  1  0
 75 74  1  0
 76 72  1  0
 77 78  2  0
 78 79  1  0
 80 79  2  0
 81 80  1  0
 82 56  1  0
 82 83  1  0
 82 92  1  0
 83 86  1  0
 84 88  1  0
 84 83  1  0
 85 84  2  0
 88 87  1  0
 90 88  1  0
 90 91  1  0
 90 89  1  0
 92 95  1  1
 92 93  1  0
 94 92  1  0
M  ISO  4   8 100   9 100  54 101  55 101
M  END
>  <TORSDO>  (57) 
F 22

>  <SCORE>  (57) 
-11.829

>  <name>  (57) 
56

>  <ligand_id>  (57) 
56

>  <original_smiles>  (57) 
[H]c1c([H])c([H])c2c(c1[H])C([H])([H])C([H])([H])C([H])([H])C2([H])N([H])C(=O)C1([H])N(C(=O)C([H])(N([H])C(=O)C([H])(N([H])C([H])([H])[H])C([H])([H])[H])C(C([H])([H])[H])(C([H])([H])[H])C([H])([H])[H])C([H])([H])c2c([H])c(OC([H])([H])C([H])([H])[N+]([H])([H])C([H])([H])c3c([H])c([H])c(C(C(=O)N4C([H])([H])C([H])([H])C([H])([H])C([H])(n5nc(-c6c([H])c([H])c(Oc7c([H])c([H])c(F)c([H])c7F)c([H])c6[H])c(C(=O)N([H])[H])c5N([H])[H])C4([H])[H])(C([H])([H])[H])[N+]([H])([H])[H])c([H])c3[H])c([H])c([H])c2C1([H])[H]

>  <smiles>  (57) 
[H]c1c([H])c([H])c2c(c1[H])C([H])([H])C([H])([H])C([H])([H])C2([H])N([H])C(=O)C1([H])N(C(=O)C([H])(N([H])C(=O)C([H])(N([H])C([H])([H])[H])C([H])([H])[H])C(C([H])([H])[H])(C([H])([H])[H])C([H])([H])[H])C([H])([H])c2c([H])c(OC([H])([H])C([H])([H])[N+]([H])([H])C([H])([H])c3c([H])c([H])c(C(C(=O)N4C([H])([H])C([H])([H])C([H])([H])C([H])(n5nc(-c6c([H])c([H])c(Oc7c([H])c([H])c(F)c([H])c7F)c([H])c6[H])c(C(=O)N([H])[H])c5N([H])[H])C4([H])[H])(C([H])([H])[H])[N+]([H])([H])[H])c([H])c3[H])c([H])c([H])c2C1([H])[H]

$$$$
58:0:0
     RDKit          3D

 96104  0  0  1  0  0  0  0  0999 V2000
  -31.7340  -25.7400   20.5000 C   0  0  0  0  0  3  0  0  0  0  0  0
  -30.4580  -25.6840   18.4240 C   0  0  0  0  0  3  0  0  0  0  0  0
  -32.5680  -24.7140   20.0090 C   0  0  0  0  0  3  0  0  0  0  0  0
  -31.2860  -24.6570   17.9370 C   0  0  0  0  0  3  0  0  0  0  0  0
  -30.6510  -26.2040   19.7220 C   0  0  0  0  0  0  0  0  0  0  0  0
  -32.3230  -24.1430   18.7430 C   0  0  0  0  0  0  0  0  0  0  0  0
  -33.0850  -23.0530   18.3100 N   0  0  0  0  0  0  0  0  0  0  0  0
  -33.9250  -22.8850   18.8580 H   0  0  0  0  0  0  0  0  0  0  0  0
  -32.3100  -21.8440   18.0260 C   0  0  0  0  0  2  0  0  0  0  0  0
  -32.4670  -20.7760   19.1350 C   0  0  0  0  0  2  0  0  0  0  0  0
  -31.7460  -18.8270   17.7780 C   0  0  0  0  0  1  0  0  0  0  0  0
  -31.5260  -19.6310   19.0120 N   0  0  1  0  0  4  0  0  0  0  0  0
  -30.6040  -20.0350   18.9360 H   0  0  0  0  0  0  0  0  0  0  0  0
  -31.5330  -18.8100   20.2590 C   0  0  0  0  0  2  0  0  0  0  0  0
  -30.5600  -17.6090   20.2520 C   0  0  0  0  0  2  0  0  0  0  0  0
  -30.6790  -16.7300   21.5190 C   0  0  0  0  0  2  0  0  0  0  0  0
  -30.7120  -14.4420   20.5740 C   0  0  0  0  0  0  0  0  0  0  0  0
  -30.3570  -12.3360   19.3500 C   0  0  0  0  0  2  0  0  0  0  0  0
  -29.4290  -12.5740   18.1420 C   0  0  0  0  0  2  0  0  0  0  0  0
  -27.9510  -12.4580   18.5590 C   0  0  0  0  0  2  0  0  0  0  0  0
  -27.6160  -13.2900   19.8250 C   0  0  0  0  0  3  0  0  0  0  0  0
  -28.6550  -13.0330   20.9400 C   0  0  0  0  0  2  0  0  0  0  0  0
  -29.9940  -13.3060   20.3940 N   0  0  0  0  0  0  0  0  0  0  0  0
  -31.8040  -14.6470   20.0360 O   0  0  0  0  0  0  0  0  0  0  0  0
  -30.1230  -15.3920   21.3080 N   0  0  0  0  0  0  0  0  0  0  0  0
  -29.2230  -15.1770   21.7140 H   0  0  0  0  0  0  0  0  0  0  0  0
  -25.2040  -13.9150   20.4740 C   0  0  0  0  0  0  0  0  0  0  0  0
  -24.1280  -13.1490   20.8350 C   0  0  0  0  0  0  0  0  0  0  0  0
  -24.5870  -11.7960   20.8350 C   0  0  0  0  0  0  0  0  0  0  0  0
  -26.2530  -13.0280   20.2830 N   0  0  0  0  0  0  0  0  0  0  0  0
  -25.8820  -11.7500   20.5550 N   0  0  0  0  0  0  0  0  0  0  0  0
  -23.8560  -10.5370   21.0330 C   0  0  0  0  0  0  0  0  0  0  0  0
  -24.2840   -9.5730   21.9740 C   0  0  0  0  0  3  0  0  0  0  0  0
  -23.5550   -8.3800   22.1570 C   0  0  0  0  0  3  0  0  0  0  0  0
  -22.3830   -8.1400   21.4010 C   0  0  0  0  0  0  0  0  0  0  0  0
  -21.9740   -9.0930   20.4490 C   0  0  0  0  0  3  0  0  0  0  0  0
  -22.7050  -10.2780   20.2650 C   0  0  0  0  0  3  0  0  0  0  0  0
  -21.6250   -6.9980   21.4930 O   0  0  0  0  0  0  0  0  0  0  0  0
  -21.5880   -6.2520   22.6420 C   0  0  0  0  0  0  0  0  0  0  0  0
  -21.1940   -6.8070   23.8800 C   0  0  0  0  0  3  0  0  0  0  0  0
  -21.1030   -5.9880   25.0230 C   0  0  0  0  0  3  0  0  0  0  0  0
  -21.3930   -4.6130   24.9310 C   0  0  0  0  0  0  0  0  0  0  0  0
  -21.7780   -4.0560   23.6980 C   0  0  0  0  0  3  0  0  0  0  0  0
  -21.8720   -4.8730   22.5570 C   0  0  0  0  0  0  0  0  0  0  0  0
  -22.2230   -4.3280   21.3670 F   0  0  0  0  0  0  0  0  0  0  0  0
  -21.2960   -3.8240   26.0270 F   0  0  0  0  0  0  0  0  0  0  0  0
  -22.7260  -13.6320   21.0770 C   0  0  0  0  0  0  0  0  0  0  0  0
  -21.9850  -12.9490   21.9430 N   0  0  0  0  0  0  0  0  0  0  0  0
  -22.2960  -14.6480   20.5330 O   0  0  0  0  0  0  0  0  0  0  0  0
  -22.3450  -12.1250   22.4000 H   0  0  0  0  0  0  0  0  0  0  0  0
  -21.0440  -13.2540   22.1510 H   0  0  0  0  0  0  0  0  0  0  0  0
  -25.3760  -15.2820   20.2780 N   0  0  0  0  0  0  0  0  0  0  0  0
  -24.6130  -15.9450   20.3600 H   0  0  0  0  0  0  0  0  0  0  0  0
  -26.2400  -15.7120   19.9710 H   0  0  0  0  0  0  0  0  0  0  0  0
  -29.6430  -27.1980   20.2730 C   0  0  0  0  0  2  0  0  0  0  0  0
  -28.3440  -26.6690   20.0490 O   0  0  0  0  0  0  0  0  0  0  0  0
  -24.5950  -31.8850   23.2310 C   0  0  0  0  0  0  0  0  0  0  0  0
  -27.2320  -27.4680   20.1380 C   0  0  0  0  0  0  0  0  0  0  0  0
  -23.3770  -30.4810   21.5970 C   0  0  0  0  0  3  0  0  0  0  0  0
  -24.8260  -28.9420   20.1730 C   0  0  0  0  0  0  0  0  0  0  0  0
  -25.8980  -30.8470   21.3820 C   0  0  0  0  0  2  0  0  0  0  0  0
  -25.9860  -29.4760   20.7510 C   0  0  0  0  0  0  0  0  0  0  0  0
  -27.1950  -28.7460   20.7380 C   0  0  0  0  0  3  0  0  0  0  0  0
  -26.0520  -26.9360   19.5780 C   0  0  0  0  0  3  0  0  0  0  0  0
  -24.8500  -27.6660   19.5880 C   0  0  0  0  0  3  0  0  0  0  0  0
  -23.5800  -29.7970   20.2190 C   0  0  0  0  0  2  0  0  0  0  0  0
  -24.6420  -31.0840   22.1280 N   0  0  0  0  0  0  0  0  0  0  0  0
  -23.5190  -32.1580   23.7780 O   0  0  0  0  0  0  0  0  0  0  0  0
  -22.7310  -29.4620   22.5620 C   0  0  0  0  0  0  0  0  0  0  0  0
  -21.4070  -29.2780   22.4390 N   0  0  0  0  0  0  0  0  0  0  0  0
  -23.4190  -28.8380   23.3760 O   0  0  0  0  0  0  0  0  0  0  0  0
  -20.9140  -29.8340   21.7550 H   0  0  0  0  0  0  0  0  0  0  0  0
  -18.0360  -28.0830   22.9440 C   0  0  0  0  0  0  0  0  0  0  0  0
  -20.5930  -28.3440   23.2150 C   0  0  0  0  0  3  0  0  0  0  0  0
  -20.6970  -26.9100   22.6470 C   0  0  0  0  0  2  0  0  0  0  0  0
  -19.5950  -26.5810   21.6340 C   0  0  0  0  0  2  0  0  0  0  0  0
  -18.2130  -26.7290   22.2770 C   0  0  0  0  0  2  0  0  0  0  0  0
  -19.1540  -28.8470   23.3710 C   0  0  0  0  0  0  0  0  0  0  0  0
  -18.9350  -30.1150   23.9540 C   0  0  0  0  0  3  0  0  0  0  0  0
  -17.6310  -30.6170   24.1150 C   0  0  0  0  0  3  0  0  0  0  0  0
  -16.5270  -29.8500   23.7060 C   0  0  0  0  0  3  0  0  0  0  0  0
  -16.7300  -28.5840   23.1270 C   0  0  0  0  0  3  0  0  0  0  0  0
  -25.8860  -32.5140   23.8410 C   0  0  0  0  0  3  0  0  0  0  0  0
  -25.5810  -33.9100   24.1800 N   0  0  0  0  0  0  0  0  0  0  0  0
  -25.9100  -34.9660   23.4240 C   0  0  0  0  0  0  0  0  0  0  0  0
  -26.5740  -34.8650   22.3890 O   0  0  0  0  0  0  0  0  0  0  0  0
  -24.9910  -34.0600   24.9860 H   0  0  0  0  0  0  0  0  0  0  0  0
  -24.1800  -36.7570   23.0810 C   0  0  0  0  0  1  0  0  0  0  0  0
  -25.4240  -36.3500   23.8880 C   0  0  0  0  0  3  0  0  0  0  0  0
  -27.5630  -37.2270   24.7130 C   0  0  0  0  0  1  0  0  0  0  0  0
  -26.4570  -37.4040   23.7770 N   0  0  0  0  0  0  0  0  0  0  0  0
  -26.0530  -38.3240   23.9340 H   0  0  0  0  0  0  0  0  0  0  0  0
  -26.4220  -31.7340   25.1030 C   0  0  1  0  0  0  0  0  0  0  0  0
  -25.3430  -31.4820   26.1830 C   0  0  0  0  0  1  0  0  0  0  0  0
  -27.0040  -30.3630   24.6890 C   0  0  0  0  0  1  0  0  0  0  0  0
  -27.5790  -32.5250   25.7580 C   0  0  0  0  0  1  0  0  0  0  0  0
  2  5  1  0
  3  1  1  0
  4  2  2  0
  4  6  1  0
  5 55  1  0
  5  1  2  0
  6  3  2  0
  7  6  1  0
  7  8  1  0
  9  7  1  0
  9 10  1  0
 11 12  1  0
 12 10  1  0
 12 14  1  0
 12 13  1  6
 15 14  1  0
 15 16  1  0
 17 25  1  0
 18 23  1  0
 19 20  1  0
 19 18  1  0
 21 20  1  0
 21 30  1  0
 21 22  1  0
 23 17  1  0
 23 22  1  0
 24 17  2  0
 25 16  1  0
 25 26  1  0
 27 28  2  0
 28 29  1  0
 28 47  1  0
 29 32  1  0
 30 27  1  0
 30 31  1  0
 31 29  2  0
 32 33  1  0
 33 34  2  0
 35 38  1  0
 35 34  1  0
 36 35  2  0
 37 36  1  0
 37 32  2  0
 38 39  1  0
 39 40  1  0
 40 41  2  0
 42 41  1  0
 42 46  1  0
 43 42  2  0
 44 39  2  0
 44 43  1  0
 45 44  1  0
 47 48  1  0
 48 51  1  0
 48 50  1  0
 49 47  2  0
 52 53  1  0
 52 27  1  0
 54 52  1  0
 56 58  1  0
 56 55  1  0
 57 68  2  0
 58 63  1  0
 59 67  1  0
 59 69  1  0
 60 66  1  0
 60 62  1  0
 61 67  1  0
 62 61  1  0
 63 62  2  0
 64 65  1  0
 64 58  2  0
 65 60  2  0
 66 59  1  0
 67 57  1  0
 69 71  2  0
 70 69  1  0
 72 70  1  0
 73 82  2  0
 73 78  1  0
 74 70  1  0
 74 78  1  0
 75 74  1  0
 76 77  1  0
 76 75  1  0
 77 73  1  0
 78 79  2  0
 79 80  1  0
 81 80  2  0
 82 81  1  0
 83 57  1  0
 83 84  1  0
 83 93  1  0
 84 87  1  0
 85 89  1  0
 85 84  1  0
 86 85  2  0
 89 88  1  0
 91 89  1  0
 91 92  1  0
 91 90  1  0
 93 96  1  1
 93 94  1  0
 95 93  1  0
M  ISO  4  17 100  25 100  55 101  56 101
M  END
>  <TORSDO>  (58) 
F 24

>  <SCORE>  (58) 
-12.382

>  <name>  (58) 
58

>  <ligand_id>  (58) 
58

>  <original_smiles>  (58) 
[H]c1c([H])c([H])c2c(c1[H])C([H])([H])C([H])([H])C([H])([H])C2([H])N([H])C(=O)C1([H])N(C(=O)C([H])(N([H])C(=O)C([H])(N([H])C([H])([H])[H])C([H])([H])[H])C(C([H])([H])[H])(C([H])([H])[H])C([H])([H])[H])C([H])([H])c2c([H])c(OC([H])([H])c3c([H])c([H])c(N([H])C([H])([H])C([H])([H])[N+]([H])(C([H])([H])[H])C([H])([H])C([H])([H])C([H])([H])N([H])C(=O)N4C([H])([H])C([H])([H])C([H])([H])C([H])(n5nc(-c6c([H])c([H])c(Oc7c([H])c([H])c(F)c([H])c7F)c([H])c6[H])c(C(=O)N([H])[H])c5N([H])[H])C4([H])[H])c([H])c3[H])c([H])c([H])c2C1([H])[H]

>  <smiles>  (58) 
[H]c1c([H])c([H])c2c(c1[H])C([H])([H])C([H])([H])C([H])([H])C2([H])N([H])C(=O)C1([H])N(C(=O)C([H])(N([H])C(=O)C([H])(N([H])C([H])([H])[H])C([H])([H])[H])C(C([H])([H])[H])(C([H])([H])[H])C([H])([H])[H])C([H])([H])c2c([H])c(OC([H])([H])c3c([H])c([H])c(N([H])C([H])([H])C([H])([H])[N+]([H])(C([H])([H])[H])C([H])([H])C([H])([H])C([H])([H])N([H])C(=O)N4C([H])([H])C([H])([H])C([H])([H])C([H])(n5nc(-c6c([H])c([H])c(Oc7c([H])c([H])c(F)c([H])c7F)c([H])c6[H])c(C(=O)N([H])[H])c5N([H])[H])C4([H])[H])c([H])c3[H])c([H])c([H])c2C1([H])[H]

$$$$
60:0:0
     RDKit          3D

 92100  0  0  1  0  0  0  0  0999 V2000
  -29.7140  -21.9080   20.4680 C   0  0  0  0  0  2  0  0  0  0  0  0
  -28.9920  -23.0370   21.1100 N   0  0  0  0  0  4  0  0  0  0  0  0
  -29.0930  -22.9710   22.1120 H   0  0  0  0  0  0  0  0  0  0  0  0
  -28.0130  -22.9120   20.9050 H   0  0  0  0  0  0  0  0  0  0  0  0
  -29.3770  -24.4120   20.6730 C   0  0  0  0  0  2  0  0  0  0  0  0
  -28.1200  -25.2680   20.4170 C   0  0  0  0  0  2  0  0  0  0  0  0
  -28.3560  -26.6700   20.1850 O   0  0  0  0  0  0  0  0  0  0  0  0
  -24.5860  -31.8810   23.2430 C   0  0  0  0  0  0  0  0  0  0  0  0
  -27.2030  -27.4350   20.1450 C   0  0  0  0  0  0  0  0  0  0  0  0
  -23.3710  -30.4890   21.6030 C   0  0  0  0  0  3  0  0  0  0  0  0
  -24.8160  -28.9600   20.1650 C   0  0  0  0  0  0  0  0  0  0  0  0
  -25.8980  -30.8410   21.3980 C   0  0  0  0  0  2  0  0  0  0  0  0
  -25.9790  -29.4740   20.7520 C   0  0  0  0  0  0  0  0  0  0  0  0
  -27.1780  -28.7210   20.7370 C   0  0  0  0  0  3  0  0  0  0  0  0
  -26.0200  -26.9500   19.5370 C   0  0  0  0  0  3  0  0  0  0  0  0
  -24.8320  -27.6990   19.5520 C   0  0  0  0  0  3  0  0  0  0  0  0
  -23.5720  -29.8170   20.2200 C   0  0  0  0  0  2  0  0  0  0  0  0
  -24.6370  -31.0850   22.1390 N   0  0  0  0  0  0  0  0  0  0  0  0
  -23.5070  -32.1550   23.7880 O   0  0  0  0  0  0  0  0  0  0  0  0
  -22.7220  -29.4630   22.5610 C   0  0  0  0  0  0  0  0  0  0  0  0
  -21.3970  -29.2790   22.4350 N   0  0  0  0  0  0  0  0  0  0  0  0
  -23.4080  -28.8360   23.3730 O   0  0  0  0  0  0  0  0  0  0  0  0
  -20.9060  -29.8350   21.7490 H   0  0  0  0  0  0  0  0  0  0  0  0
  -18.0270  -28.0760   22.9240 C   0  0  0  0  0  0  0  0  0  0  0  0
  -20.5820  -28.3400   23.2050 C   0  0  0  0  0  3  0  0  0  0  0  0
  -20.6910  -26.9080   22.6320 C   0  0  0  0  0  2  0  0  0  0  0  0
  -19.5940  -26.5800   21.6150 C   0  0  0  0  0  2  0  0  0  0  0  0
  -18.2090  -26.7250   22.2530 C   0  0  0  0  0  2  0  0  0  0  0  0
  -19.1410  -28.8410   23.3560 C   0  0  0  0  0  0  0  0  0  0  0  0
  -18.9190  -30.1060   23.9420 C   0  0  0  0  0  3  0  0  0  0  0  0
  -17.6130  -30.6060   24.0990 C   0  0  0  0  0  3  0  0  0  0  0  0
  -16.5120  -29.8370   23.6850 C   0  0  0  0  0  3  0  0  0  0  0  0
  -16.7200  -28.5750   23.1030 C   0  0  0  0  0  3  0  0  0  0  0  0
  -25.8770  -32.5080   23.8590 C   0  0  0  0  0  3  0  0  0  0  0  0
  -25.5730  -33.9060   24.1930 N   0  0  0  0  0  0  0  0  0  0  0  0
  -25.9070  -34.9580   23.4330 C   0  0  0  0  0  0  0  0  0  0  0  0
  -26.5750  -34.8540   22.3990 O   0  0  0  0  0  0  0  0  0  0  0  0
  -24.9790  -34.0610   24.9930 H   0  0  0  0  0  0  0  0  0  0  0  0
  -24.1820  -36.7530   23.0820 C   0  0  0  0  0  1  0  0  0  0  0  0
  -25.4230  -36.3450   23.8930 C   0  0  0  0  0  3  0  0  0  0  0  0
  -27.5610  -37.2210   24.7220 C   0  0  0  0  0  1  0  0  0  0  0  0
  -26.4580  -37.3960   23.7810 N   0  0  0  0  0  0  0  0  0  0  0  0
  -26.0550  -38.3160   23.9340 H   0  0  0  0  0  0  0  0  0  0  0  0
  -26.4010  -31.7300   25.1270 C   0  0  1  0  0  0  0  0  0  0  0  0
  -25.3150  -31.4880   26.2010 C   0  0  0  0  0  1  0  0  0  0  0  0
  -26.9790  -30.3540   24.7220 C   0  0  0  0  0  1  0  0  0  0  0  0
  -27.5590  -32.5180   25.7840 C   0  0  0  0  0  1  0  0  0  0  0  0
  -29.0920  -20.5260   20.8330 C   0  0  0  0  0  2  0  0  0  0  0  0
  -30.8310  -18.2530   18.2510 C   0  0  0  0  0  3  0  0  0  0  0  0
  -30.3270  -19.3950   18.8920 C   0  0  0  0  0  3  0  0  0  0  0  0
  -30.7170  -16.9930   18.8590 C   0  0  0  0  0  3  0  0  0  0  0  0
  -29.5850  -18.0110   20.7610 C   0  0  0  0  0  3  0  0  0  0  0  0
  -29.7000  -19.2910   20.1540 C   0  0  0  0  0  0  0  0  0  0  0  0
  -30.1060  -16.8510   20.1310 C   0  0  0  0  0  0  0  0  0  0  0  0
  -30.6910  -14.4700   20.4570 C   0  0  0  0  0  0  0  0  0  0  0  0
  -30.3770  -12.3000   19.3660 C   0  0  0  0  0  2  0  0  0  0  0  0
  -29.4580  -12.5290   18.1490 C   0  0  0  0  0  2  0  0  0  0  0  0
  -27.9770  -12.4110   18.5580 C   0  0  0  0  0  2  0  0  0  0  0  0
  -27.6310  -13.2420   19.8240 C   0  0  0  0  0  3  0  0  0  0  0  0
  -28.6770  -13.0260   20.9430 C   0  0  0  0  0  2  0  0  0  0  0  0
  -30.0100  -13.2970   20.3820 N   0  0  0  0  0  0  0  0  0  0  0  0
  -31.8660  -14.5810   20.0980 O   0  0  0  0  0  0  0  0  0  0  0  0
  -29.9540  -15.5620   20.7450 N   0  0  0  0  0  0  0  0  0  0  0  0
  -29.0890  -15.3990   21.2380 H   0  0  0  0  0  0  0  0  0  0  0  0
  -25.2240  -13.8450   20.5030 C   0  0  0  0  0  0  0  0  0  0  0  0
  -24.1550  -13.0710   20.8680 C   0  0  0  0  0  0  0  0  0  0  0  0
  -24.6220  -11.7210   20.8560 C   0  0  0  0  0  0  0  0  0  0  0  0
  -26.2750  -12.9650   20.2910 N   0  0  0  0  0  0  0  0  0  0  0  0
  -25.9160  -11.6830   20.5610 N   0  0  0  0  0  0  0  0  0  0  0  0
  -23.8990  -10.4570   21.0500 C   0  0  0  0  0  0  0  0  0  0  0  0
  -24.3340   -9.4910   21.9830 C   0  0  0  0  0  3  0  0  0  0  0  0
  -23.6100   -8.2940   22.1650 C   0  0  0  0  0  3  0  0  0  0  0  0
  -22.4360   -8.0540   21.4120 C   0  0  0  0  0  0  0  0  0  0  0  0
  -22.0200   -9.0080   20.4670 C   0  0  0  0  0  3  0  0  0  0  0  0
  -22.7460  -10.1970   20.2830 C   0  0  0  0  0  3  0  0  0  0  0  0
  -21.6800   -6.9090   21.5050 O   0  0  0  0  0  0  0  0  0  0  0  0
  -21.6480   -6.1580   22.6520 C   0  0  0  0  0  0  0  0  0  0  0  0
  -21.2490   -6.7070   23.8910 C   0  0  0  0  0  3  0  0  0  0  0  0
  -21.1650   -5.8820   25.0310 C   0  0  0  0  0  3  0  0  0  0  0  0
  -21.4680   -4.5110   24.9330 C   0  0  0  0  0  0  0  0  0  0  0  0
  -21.8610   -3.9620   23.6990 C   0  0  0  0  0  3  0  0  0  0  0  0
  -21.9480   -4.7830   22.5620 C   0  0  0  0  0  0  0  0  0  0  0  0
  -22.3070   -4.2460   21.3710 F   0  0  0  0  0  0  0  0  0  0  0  0
  -21.3800   -3.7170   26.0250 F   0  0  0  0  0  0  0  0  0  0  0  0
  -22.7530  -13.5460   21.1200 C   0  0  0  0  0  0  0  0  0  0  0  0
  -22.0190  -12.8540   21.9850 N   0  0  0  0  0  0  0  0  0  0  0  0
  -22.3170  -14.5650   20.5860 O   0  0  0  0  0  0  0  0  0  0  0  0
  -22.3840  -12.0300   22.4380 H   0  0  0  0  0  0  0  0  0  0  0  0
  -21.0780  -13.1530   22.1980 H   0  0  0  0  0  0  0  0  0  0  0  0
  -25.3870  -15.2140   20.3140 N   0  0  0  0  0  0  0  0  0  0  0  0
  -24.6180  -15.8670   20.4080 H   0  0  0  0  0  0  0  0  0  0  0  0
  -26.2380  -15.6490   19.9790 H   0  0  0  0  0  0  0  0  0  0  0  0
  1 48  1  0
  1  2  1  0
  2  3  1  0
  4  2  1  0
  5  2  1  0
  6  5  1  0
  7  6  1  0
  8 19  2  0
  9  7  1  0
  9 14  1  0
 10 18  1  0
 10 20  1  0
 11 17  1  0
 11 13  1  0
 12 18  1  0
 13 12  1  0
 14 13  2  0
 15 16  1  0
 15  9  2  0
 16 11  2  0
 17 10  1  0
 18  8  1  0
 20 22  2  0
 21 20  1  0
 23 21  1  0
 24 33  2  0
 24 29  1  0
 25 21  1  0
 25 29  1  0
 26 25  1  0
 27 28  1  0
 27 26  1  0
 28 24  1  0
 29 30  2  0
 30 31  1  0
 32 31  2  0
 33 32  1  0
 34  8  1  0
 34 35  1  0
 34 44  1  0
 35 38  1  0
 36 40  1  0
 36 35  1  0
 37 36  2  0
 40 39  1  0
 42 40  1  0
 42 43  1  0
 42 41  1  0
 44 47  1  1
 44 45  1  0
 46 44  1  0
 49 51  2  0
 49 50  1  0
 50 53  2  0
 51 54  1  0
 53 52  1  0
 53 48  1  0
 54 63  1  0
 54 52  2  0
 55 63  1  0
 56 61  1  0
 57 58  1  0
 57 56  1  0
 59 58  1  0
 59 68  1  0
 59 60  1  0
 61 55  1  0
 61 60  1  0
 62 55  2  0
 63 64  1  0
 65 66  2  0
 66 85  1  0
 67 66  1  0
 67 70  1  0
 68 65  1  0
 68 69  1  0
 69 67  2  0
 70 71  1  0
 71 72  2  0
 73 76  1  0
 73 72  1  0
 74 73  2  0
 75 74  1  0
 75 70  2  0
 76 77  1  0
 77 78  1  0
 78 79  2  0
 80 79  1  0
 80 84  1  0
 81 80  2  0
 82 77  2  0
 82 81  1  0
 83 82  1  0
 85 86  1  0
 86 89  1  0
 86 88  1  0
 87 85  2  0
 90 91  1  0
 90 65  1  0
 92 90  1  0
M  ISO  4   6 101   7 101  55 100  63 100
M  END
>  <TORSDO>  (59) 
F 21

>  <SCORE>  (59) 
-13.538

>  <name>  (59) 
60

>  <ligand_id>  (59) 
60

>  <original_smiles>  (59) 
[H]c1c([H])c([H])c2c(c1[H])C([H])([H])C([H])([H])C([H])([H])C2([H])N([H])C(=O)C1([H])N(C(=O)C([H])(N([H])C(=O)C([H])(N([H])C([H])([H])[H])C([H])([H])[H])C(C([H])([H])[H])(C([H])([H])[H])C([H])([H])[H])C([H])([H])c2c([H])c(OC([H])([H])C([H])([H])[N+]([H])([H])C([H])([H])C([H])([H])c3c([H])c([H])c([H])c(N([H])C(=O)N4C([H])([H])C([H])([H])C([H])([H])C([H])(n5nc(-c6c([H])c([H])c(Oc7c([H])c([H])c(F)c([H])c7F)c([H])c6[H])c(C(=O)N([H])[H])c5N([H])[H])C4([H])[H])c3[H])c([H])c([H])c2C1([H])[H]

>  <smiles>  (59) 
[H]c1c([H])c([H])c2c(c1[H])C([H])([H])C([H])([H])C([H])([H])C2([H])N([H])C(=O)C1([H])N(C(=O)C([H])(N([H])C(=O)C([H])(N([H])C([H])([H])[H])C([H])([H])[H])C(C([H])([H])[H])(C([H])([H])[H])C([H])([H])[H])C([H])([H])c2c([H])c(OC([H])([H])C([H])([H])[N+]([H])([H])C([H])([H])C([H])([H])c3c([H])c([H])c([H])c(N([H])C(=O)N4C([H])([H])C([H])([H])C([H])([H])C([H])(n5nc(-c6c([H])c([H])c(Oc7c([H])c([H])c(F)c([H])c7F)c([H])c6[H])c(C(=O)N([H])[H])c5N([H])[H])C4([H])[H])c3[H])c([H])c([H])c2C1([H])[H]

$$$$
61:0:0
     RDKit          3D

 84 88  0  0  1  0  0  0  0  0999 V2000
  -28.7090  -21.3450   20.5120 C   0  0  0  0  0 15  0  0  0  0  0  0
  -28.2540  -23.3410   19.9820 C   0  0  0  0  0 15  0  0  0  0  0  0
  -28.1070  -25.1880   20.4040 O   0  0  0  0  0  1  0  0  0  0  0  0
  -24.6110  -31.8300   23.1550 C   0  0  0  0  0  0  0  0  0  0  0  0
  -27.1700  -26.5140   20.2670 C   0  0  0  0  0  0  0  0  0  0  0  0
  -23.4510  -30.4030   21.5260 C   0  0  0  0  0  3  0  0  0  0  0  0
  -24.9200  -28.6960   20.1560 C   0  0  0  0  0  0  0  0  0  0  0  0
  -26.0400  -30.4810   21.4580 C   0  0  0  0  0  2  0  0  0  0  0  0
  -26.1100  -29.0150   20.8170 C   0  0  0  0  0  0  0  0  0  0  0  0
  -27.2020  -27.9570   20.8390 C   0  0  0  0  0  3  0  0  0  0  0  0
  -25.9470  -26.4740   19.5300 C   0  0  0  0  0  3  0  0  0  0  0  0
  -24.8930  -27.4560   19.4860 C   0  0  0  0  0  3  0  0  0  0  0  0
  -23.7180  -29.6730   20.1740 C   0  0  0  0  0  2  0  0  0  0  0  0
  -24.7270  -30.9460   22.0980 N   0  0  0  0  0  0  0  0  0  0  0  0
  -23.5070  -32.1430   23.6390 O   0  0  0  0  0  0  0  0  0  0  0  0
  -22.7060  -29.4580   22.5090 C   0  0  0  0  0  0  0  0  0  0  0  0
  -21.3700  -29.3220   22.3850 N   0  0  0  0  0  0  0  0  0  0  0  0
  -23.3470  -28.8380   23.3620 O   0  0  0  0  0  0  0  0  0  0  0  0
  -20.8990  -29.8700   21.6790 H   0  0  0  0  0  0  0  0  0  0  0  0
  -17.9680  -28.1420   22.9220 C   0  0  0  0  0  0  0  0  0  0  0  0
  -20.5330  -28.3980   23.1640 C   0  0  0  0  0  3  0  0  0  0  0  0
  -20.6190  -26.9610   22.5960 C   0  0  0  0  0  2  0  0  0  0  0  0
  -19.5100  -26.6450   21.5870 C   0  0  0  0  0  2  0  0  0  0  0  0
  -18.1330  -26.7960   22.2380 C   0  0  0  0  0  2  0  0  0  0  0  0
  -19.0940  -28.9020   23.3410 C   0  0  0  0  0  0  0  0  0  0  0  0
  -18.8810  -30.1590   23.9490 C   0  0  0  0  0  3  0  0  0  0  0  0
  -17.5780  -30.6580   24.1340 C   0  0  0  0  0  3  0  0  0  0  0  0
  -16.4680  -29.8980   23.7260 C   0  0  0  0  0  3  0  0  0  0  0  0
  -16.6640  -28.6410   23.1260 C   0  0  0  0  0  3  0  0  0  0  0  0
  -25.8550  -32.5050   23.8090 C   0  0  0  0  0  3  0  0  0  0  0  0
  -26.3290  -31.7760   25.1290 C   0  0  1  0  0  0  0  0  0  0  0  0
  -25.2020  -31.5720   26.1710 C   0  0  0  0  0  1  0  0  0  0  0  0
  -26.9250  -30.3860   24.8160 C   0  0  0  0  0  1  0  0  0  0  0  0
  -27.4580  -32.5920   25.8020 C   0  0  0  0  0  1  0  0  0  0  0  0
  -25.5170  -33.9110   24.1210 N   0  0  0  0  0  0  0  0  0  0  0  0
  -25.8620  -34.9760   23.3820 C   0  0  0  0  0  0  0  0  0  0  0  0
  -26.5470  -34.8780   22.3630 O   0  0  0  0  0  0  0  0  0  0  0  0
  -24.9070  -34.0600   24.9110 H   0  0  0  0  0  0  0  0  0  0  0  0
  -24.1410  -36.7870   23.0260 C   0  0  0  0  0  1  0  0  0  0  0  0
  -25.3750  -36.3680   23.8430 C   0  0  0  0  0  3  0  0  0  0  0  0
  -27.4990  -37.2610   24.6990 C   0  0  0  0  0  1  0  0  0  0  0  0
  -26.4090  -37.4240   23.7420 N   0  0  0  0  0  0  0  0  0  0  0  0
  -26.0000  -38.3430   23.8810 H   0  0  0  0  0  0  0  0  0  0  0  0
  -29.3850  -19.4380   19.9140 C   0  0  0  0  0  2  0  0  0  0  0  0
  -30.1540  -16.0890   20.1420 C   0  0  0  0  0  0  0  0  0  0  0  0
  -30.3400  -13.4520   19.3560 C   0  0  0  0  0  2  0  0  0  0  0  0
  -29.4750  -12.8920   18.1780 C   0  0  0  0  0  2  0  0  0  0  0  0
  -28.0890  -12.4540   18.6630 C   0  0  0  0  0  2  0  0  0  0  0  0
  -27.5430  -13.4660   19.6900 C   0  0  0  0  0  3  0  0  0  0  0  0
  -28.5620  -13.9190   20.7740 C   0  0  0  0  0  2  0  0  0  0  0  0
  -29.6710  -14.6580   20.0930 N   0  0  0  0  0  0  0  0  0  0  0  0
  -31.3800  -15.9650   19.9070 O   0  0  0  0  0  0  0  0  0  0  0  0
  -29.4180  -17.5590   20.2740 N   0  0  0  0  0  0  0  0  0  0  0  0
  -28.4820  -17.3230   20.5760 H   0  0  0  0  0  0  0  0  0  0  0  0
  -25.1990  -13.9490   20.5080 C   0  0  0  0  0  0  0  0  0  0  0  0
  -24.1510  -13.1570   20.8790 C   0  0  0  0  0  0  0  0  0  0  0  0
  -24.6290  -11.8110   20.8190 C   0  0  0  0  0  0  0  0  0  0  0  0
  -26.2450  -13.0910   20.2330 N   0  0  0  0  0  0  0  0  0  0  0  0
  -25.9180  -11.7930   20.4840 N   0  0  0  0  0  0  0  0  0  0  0  0
  -23.9060  -10.5430   21.0010 C   0  0  0  0  0  0  0  0  0  0  0  0
  -24.3430   -9.5660   21.9220 C   0  0  0  0  0  3  0  0  0  0  0  0
  -23.6140   -8.3700   22.0980 C   0  0  0  0  0  3  0  0  0  0  0  0
  -22.4330   -8.1410   21.3530 C   0  0  0  0  0  0  0  0  0  0  0  0
  -22.0130   -9.1060   20.4220 C   0  0  0  0  0  3  0  0  0  0  0  0
  -22.7420  -10.2940   20.2440 C   0  0  0  0  0  3  0  0  0  0  0  0
  -21.6750   -6.9970   21.4390 O   0  0  0  0  0  0  0  0  0  0  0  0
  -21.6300   -6.2470   22.5870 C   0  0  0  0  0  0  0  0  0  0  0  0
  -21.1920   -6.7890   23.8140 C   0  0  0  0  0  3  0  0  0  0  0  0
  -21.0950   -5.9660   24.9540 C   0  0  0  0  0  3  0  0  0  0  0  0
  -21.4270   -4.6000   24.8670 C   0  0  0  0  0  0  0  0  0  0  0  0
  -21.8570   -4.0560   23.6440 C   0  0  0  0  0  3  0  0  0  0  0  0
  -21.9560   -4.8770   22.5070 C   0  0  0  0  0  0  0  0  0  0  0  0
  -22.3500   -4.3440   21.3260 F   0  0  0  0  0  0  0  0  0  0  0  0
  -21.3270   -3.8060   25.9590 F   0  0  0  0  0  0  0  0  0  0  0  0
  -22.7560  -13.6250   21.1700 C   0  0  0  0  0  0  0  0  0  0  0  0
  -22.0390  -12.9150   22.0320 N   0  0  0  0  0  0  0  0  0  0  0  0
  -22.3130  -14.6580   20.6690 O   0  0  0  0  0  0  0  0  0  0  0  0
  -22.4130  -12.0810   22.4600 H   0  0  0  0  0  0  0  0  0  0  0  0
  -21.1030  -13.2110   22.2710 H   0  0  0  0  0  0  0  0  0  0  0  0
  -25.3460  -15.3240   20.3440 N   0  0  0  0  0  0  0  0  0  0  0  0
  -24.5730  -15.9690   20.4690 H   0  0  0  0  0  0  0  0  0  0  0  0
  -26.1790  -15.7680   19.9820 H   0  0  0  0  0  0  0  0  0  0  0  0
  -29.5700  -20.6040   17.6020 C   0  0  0  0  0  1  0  0  0  0  0  0
  -29.0390  -19.4130   18.4110 C   0  0  0  0  0  2  0  0  0  0  0  0
  4 15  2  0
  5  3  1  0
  5 10  1  0
  6 14  1  0
  6 16  1  0
  7 13  1  0
  7  9  1  0
  8 14  1  0
  9 10  2  0
  9  8  1  0
 11  5  2  0
 12 11  1  0
 12  7  2  0
 13  6  1  0
 14  4  1  0
 16 18  2  0
 17 16  1  0
 19 17  1  0
 20 29  2  0
 20 25  1  0
 21 17  1  0
 21 25  1  0
 22 21  1  0
 23 24  1  0
 23 22  1  0
 24 20  1  0
 25 26  2  0
 26 27  1  0
 28 27  2  0
 29 28  1  0
 30  4  1  0
 30 35  1  0
 30 31  1  0
 31 34  1  1
 31 32  1  0
 33 31  1  0
 35 38  1  0
 36 40  1  0
 36 35  1  0
 37 36  2  0
 40 39  1  0
 42 40  1  0
 42 43  1  0
 42 41  1  0
 44 53  1  0
 45 53  1  0
 46 51  1  0
 47 48  1  0
 47 46  1  0
 49 48  1  0
 49 58  1  0
 49 50  1  0
 51 45  1  0
 51 50  1  0
 52 45  2  0
 53 54  1  0
 55 56  2  0
 56 75  1  0
 57 56  1  0
 57 60  1  0
 58 59  1  0
 58 55  1  0
 59 57  2  0
 60 61  1  0
 61 62  2  0
 63 66  1  0
 63 62  1  0
 64 63  2  0
 65 64  1  0
 65 60  2  0
 66 67  1  0
 67 68  1  0
 68 69  2  0
 70 69  1  0
 70 74  1  0
 71 70  2  0
 72 67  2  0
 72 71  1  0
 73 72  1  0
 75 76  1  0
 76 79  1  0
 76 78  1  0
 77 75  2  0
 80 81  1  0
 80 55  1  0
 82 80  1  0
 83 84  1  0
 84 44  1  0
M  ISO  4   2 101   3 101  45 100  53 100
M  END
>  <TORSDO>  (60) 
F 19

>  <SCORE>  (60) 
-16.014

>  <name>  (60) 
61

>  <ligand_id>  (60) 
61

>  <original_smiles>  (60) 
[H]c1c([H])c([H])c2c(c1[H])C([H])([H])C([H])([H])C([H])([H])C2([H])N([H])C(=O)C1([H])N(C(=O)C([H])(N([H])C(=O)C([H])(N([H])C([H])([H])[H])C([H])([H])[H])C(C([H])([H])[H])(C([H])([H])[H])C([H])([H])[H])C([H])([H])c2c([H])c(OC([H])([H])C([H])([H])C([H])(N([H])C(=O)N3C([H])([H])C([H])([H])C([H])([H])C([H])(n4nc(-c5c([H])c([H])c(Oc6c([H])c([H])c(F)c([H])c6F)c([H])c5[H])c(C(=O)N([H])[H])c4N([H])[H])C3([H])[H])C([H])([H])C([H])([H])[H])c([H])c([H])c2C1([H])[H]

>  <smiles>  (60) 
[H]c1c([H])c([H])c2c(c1[H])C([H])([H])C([H])([H])C([H])([H])C2([H])N([H])C(=O)C1([H])N(C(=O)C([H])(N([H])C(=O)C([H])(N([H])C([H])([H])[H])C([H])([H])[H])C(C([H])([H])[H])(C([H])([H])[H])C([H])([H])[H])C([H])([H])c2c([H])c(OC([H])([H])C([H])([H])C([H])(N([H])C(=O)N3C([H])([H])C([H])([H])C([H])([H])C([H])(n4nc(-c5c([H])c([H])c(Oc6c([H])c([H])c(F)c([H])c6F)c([H])c5[H])c(C(=O)N([H])[H])c4N([H])[H])C3([H])[H])C([H])([H])C([H])([H])[H])c([H])c([H])c2C1([H])[H]

$$$$
62:0:0
     RDKit          3D

 91 99  0  0  1  0  0  0  0  0999 V2000
  -30.2940  -22.4140   19.1950 C   0  0  0  0  0  1  0  0  0  0  0  0
  -29.0270  -22.3860   19.9650 N   0  0  1  0  0  4  0  0  0  0  0  0
  -28.3230  -22.2440   19.2540 H   0  0  0  0  0  0  0  0  0  0  0  0
  -28.8510  -21.1230   20.8400 C   0  0  0  0  0  2  0  0  0  0  0  0
  -32.0500  -18.9460   21.2790 C   0  0  0  0  0  3  0  0  0  0  0  0
  -31.1640  -20.0310   21.1460 C   0  0  0  0  0  3  0  0  0  0  0  0
  -31.6200  -17.6180   21.0920 C   0  0  0  0  0  3  0  0  0  0  0  0
  -29.3900  -18.4550   20.6080 C   0  0  0  0  0  3  0  0  0  0  0  0
  -29.8100  -19.8410   20.7940 C   0  0  0  0  0  0  0  0  0  0  0  0
  -30.2810  -17.3080   20.7530 C   0  0  0  0  0  0  0  0  0  0  0  0
  -30.6040  -14.7360   20.3800 C   0  0  0  0  0  0  0  0  0  0  0  0
  -30.3540  -12.4780   19.3390 C   0  0  0  0  0  2  0  0  0  0  0  0
  -29.4030  -12.5740   18.1260 C   0  0  0  0  0  2  0  0  0  0  0  0
  -27.9380  -12.4070   18.5720 C   0  0  0  0  0  2  0  0  0  0  0  0
  -27.5850  -13.2810   19.8060 C   0  0  0  0  0  3  0  0  0  0  0  0
  -28.6580  -13.1830   20.9120 C   0  0  0  0  0  2  0  0  0  0  0  0
  -29.9480  -13.5280   20.3010 N   0  0  0  0  0  0  0  0  0  0  0  0
  -31.7800  -14.8040   20.0110 O   0  0  0  0  0  0  0  0  0  0  0  0
  -29.8650  -15.8830   20.6460 N   0  0  0  0  0  0  0  0  0  0  0  0
  -28.8800  -15.7130   20.7790 H   0  0  0  0  0  0  0  0  0  0  0  0
  -25.2050  -13.8640   20.5650 C   0  0  0  0  0  0  0  0  0  0  0  0
  -24.1440  -13.0860   20.9440 C   0  0  0  0  0  0  0  0  0  0  0  0
  -24.6090  -11.7350   20.9000 C   0  0  0  0  0  0  0  0  0  0  0  0
  -26.2470  -12.9870   20.3120 N   0  0  0  0  0  0  0  0  0  0  0  0
  -25.8960  -11.7020   20.5740 N   0  0  0  0  0  0  0  0  0  0  0  0
  -23.8850  -10.4710   21.0910 C   0  0  0  0  0  0  0  0  0  0  0  0
  -24.3410   -9.4880   21.9970 C   0  0  0  0  0  3  0  0  0  0  0  0
  -23.6170   -8.2900   22.1770 C   0  0  0  0  0  3  0  0  0  0  0  0
  -22.4230   -8.0660   21.4520 C   0  0  0  0  0  0  0  0  0  0  0  0
  -21.9860   -9.0380   20.5340 C   0  0  0  0  0  3  0  0  0  0  0  0
  -22.7110  -10.2260   20.3520 C   0  0  0  0  0  3  0  0  0  0  0  0
  -21.6680   -6.9210   21.5430 O   0  0  0  0  0  0  0  0  0  0  0  0
  -21.6650   -6.1490   22.6770 C   0  0  0  0  0  0  0  0  0  0  0  0
  -21.3090   -6.6760   23.9370 C   0  0  0  0  0  3  0  0  0  0  0  0
  -21.2530   -5.8310   25.0640 C   0  0  0  0  0  3  0  0  0  0  0  0
  -21.5430   -4.4610   24.9310 C   0  0  0  0  0  0  0  0  0  0  0  0
  -21.8940   -3.9330   23.6760 C   0  0  0  0  0  3  0  0  0  0  0  0
  -21.9520   -4.7750   22.5520 C   0  0  0  0  0  0  0  0  0  0  0  0
  -22.2690   -4.2570   21.3410 F   0  0  0  0  0  0  0  0  0  0  0  0
  -21.4830   -3.6470   26.0120 F   0  0  0  0  0  0  0  0  0  0  0  0
  -22.7500  -13.5600   21.2340 C   0  0  0  0  0  0  0  0  0  0  0  0
  -22.0330  -12.8580   22.1050 N   0  0  0  0  0  0  0  0  0  0  0  0
  -22.3060  -14.5880   20.7250 O   0  0  0  0  0  0  0  0  0  0  0  0
  -22.4050  -12.0270   22.5400 H   0  0  0  0  0  0  0  0  0  0  0  0
  -21.0970  -13.1580   22.3420 H   0  0  0  0  0  0  0  0  0  0  0  0
  -25.3640  -15.2350   20.3920 N   0  0  0  0  0  0  0  0  0  0  0  0
  -24.5930  -15.8840   20.5110 H   0  0  0  0  0  0  0  0  0  0  0  0
  -26.1950  -15.6750   20.0200 H   0  0  0  0  0  0  0  0  0  0  0  0
  -28.6800  -23.7590   20.6030 C   0  0  0  0  0  3  0  0  0  0  0  0
  -28.4590  -25.0620   19.6590 C   0  0  0  0  0  3  0  0  0  0  0  0
  -28.3610  -26.4530   20.2200 O   0  0  0  0  0  0  0  0  0  0  0  0
  -24.6210  -31.8700   23.2340 C   0  0  0  0  0  0  0  0  0  0  0  0
  -27.2200  -27.2850   20.1520 C   0  0  0  0  0  0  0  0  0  0  0  0
  -23.4090  -30.4730   21.6000 C   0  0  0  0  0  3  0  0  0  0  0  0
  -24.8510  -28.9200   20.1620 C   0  0  0  0  0  0  0  0  0  0  0  0
  -25.9480  -30.7840   21.4030 C   0  0  0  0  0  2  0  0  0  0  0  0
  -26.0250  -29.4030   20.7520 C   0  0  0  0  0  0  0  0  0  0  0  0
  -27.2060  -28.5970   20.7380 C   0  0  0  0  0  3  0  0  0  0  0  0
  -26.0150  -26.8620   19.5430 C   0  0  0  0  0  3  0  0  0  0  0  0
  -24.8510  -27.6570   19.5510 C   0  0  0  0  0  3  0  0  0  0  0  0
  -23.6160  -29.7970   20.2190 C   0  0  0  0  0  2  0  0  0  0  0  0
  -24.6790  -31.0600   22.1360 N   0  0  0  0  0  0  0  0  0  0  0  0
  -23.5400  -32.1470   23.7750 O   0  0  0  0  0  0  0  0  0  0  0  0
  -22.7520  -29.4550   22.5640 C   0  0  0  0  0  0  0  0  0  0  0  0
  -21.4250  -29.2750   22.4440 N   0  0  0  0  0  0  0  0  0  0  0  0
  -23.4350  -28.8300   23.3780 O   0  0  0  0  0  0  0  0  0  0  0  0
  -20.9320  -29.8320   21.7610 H   0  0  0  0  0  0  0  0  0  0  0  0
  -18.0540  -28.0650   22.9500 C   0  0  0  0  0  0  0  0  0  0  0  0
  -20.6120  -28.3370   23.2190 C   0  0  0  0  0  3  0  0  0  0  0  0
  -20.7190  -26.9040   22.6490 C   0  0  0  0  0  2  0  0  0  0  0  0
  -19.6180  -26.5730   21.6350 C   0  0  0  0  0  2  0  0  0  0  0  0
  -18.2360  -26.7140   22.2800 C   0  0  0  0  0  2  0  0  0  0  0  0
  -19.1690  -28.8330   23.3780 C   0  0  0  0  0  0  0  0  0  0  0  0
  -18.9450  -30.0960   23.9660 C   0  0  0  0  0  3  0  0  0  0  0  0
  -17.6380  -30.5920   24.1330 C   0  0  0  0  0  3  0  0  0  0  0  0
  -16.5370  -29.8200   23.7240 C   0  0  0  0  0  3  0  0  0  0  0  0
  -16.7450  -28.5590   23.1370 C   0  0  0  0  0  3  0  0  0  0  0  0
  -25.9060  -32.5040   23.8490 C   0  0  0  0  0  3  0  0  0  0  0  0
  -26.4330  -31.7290   25.1190 C   0  0  1  0  0  0  0  0  0  0  0  0
  -25.3500  -31.4840   26.1940 C   0  0  0  0  0  1  0  0  0  0  0  0
  -27.0150  -30.3540   24.7170 C   0  0  0  0  0  1  0  0  0  0  0  0
  -27.5890  -32.5220   25.7740 C   0  0  0  0  0  1  0  0  0  0  0  0
  -25.5940  -33.9000   24.1900 N   0  0  0  0  0  0  0  0  0  0  0  0
  -25.9150  -34.9590   23.4350 C   0  0  0  0  0  0  0  0  0  0  0  0
  -26.5740  -34.8640   22.3960 O   0  0  0  0  0  0  0  0  0  0  0  0
  -25.0080  -34.0460   24.9980 H   0  0  0  0  0  0  0  0  0  0  0  0
  -24.1750  -36.7470   23.1150 C   0  0  0  0  0  1  0  0  0  0  0  0
  -25.4290  -36.3430   23.9060 C   0  0  0  0  0  3  0  0  0  0  0  0
  -27.5730  -37.2320   24.7100 C   0  0  0  0  0  1  0  0  0  0  0  0
  -26.4560  -37.4020   23.7840 N   0  0  0  0  0  0  0  0  0  0  0  0
  -26.0490  -38.3190   23.9430 H   0  0  0  0  0  0  0  0  0  0  0  0
  1  2  1  0
  2 49  1  0
  2  4  1  0
  2  3  1  6
  6  5  1  0
  7  5  2  0
  8 10  2  0
  8  9  1  0
  9  4  1  0
  9  6  2  0
 10  7  1  0
 11 19  1  0
 12 17  1  0
 13 14  1  0
 13 12  1  0
 15 14  1  0
 15 24  1  0
 15 16  1  0
 17 11  1  0
 17 16  1  0
 18 11  2  0
 19 10  1  0
 19 20  1  0
 21 22  2  0
 22 41  1  0
 23 22  1  0
 23 26  1  0
 24 21  1  0
 24 25  1  0
 25 23  2  0
 26 27  1  0
 27 28  2  0
 29 32  1  0
 29 28  1  0
 30 29  2  0
 31 30  1  0
 31 26  2  0
 32 33  1  0
 33 34  1  0
 34 35  2  0
 36 35  1  0
 36 40  1  0
 37 36  2  0
 38 33  2  0
 38 37  1  0
 39 38  1  0
 41 42  1  0
 42 45  1  0
 42 44  1  0
 43 41  2  0
 46 47  1  0
 46 21  1  0
 48 46  1  0
 50 51  1  0
 50 49  2  0
 52 63  2  0
 53 51  1  0
 53 58  1  0
 54 62  1  0
 54 64  1  0
 55 61  1  0
 55 57  1  0
 56 62  1  0
 57 56  1  0
 58 57  2  0
 59 60  1  0
 59 53  2  0
 60 55  2  0
 61 54  1  0
 62 52  1  0
 64 66  2  0
 65 64  1  0
 67 65  1  0
 68 77  2  0
 68 73  1  0
 69 65  1  0
 69 73  1  0
 70 69  1  0
 71 72  1  0
 71 70  1  0
 72 68  1  0
 73 74  2  0
 74 75  1  0
 76 75  2  0
 77 76  1  0
 78 52  1  0
 78 83  1  0
 78 79  1  0
 79 82  1  1
 79 80  1  0
 81 79  1  0
 83 86  1  0
 84 88  1  0
 84 83  1  0
 85 84  2  0
 88 87  1  0
 90 88  1  0
 90 91  1  0
 90 89  1  0
M  ISO  4  11 100  19 100  50 101  51 101
M  END
>  <TORSDO>  (61) 
F 20

>  <SCORE>  (61) 
-13.994

>  <name>  (61) 
62

>  <ligand_id>  (61) 
62

>  <original_smiles>  (61) 
[H]c1c([H])c([H])c2c(c1[H])C([H])([H])C([H])([H])C([H])([H])C2([H])N([H])C(=O)C1([H])N(C(=O)C([H])(N([H])C(=O)C([H])(N([H])C([H])([H])[H])C([H])([H])[H])C(C([H])([H])[H])(C([H])([H])[H])C([H])([H])[H])C([H])([H])c2c([H])c(OC([H])([H])C([H])([H])[N+]([H])(C([H])([H])[H])C([H])([H])c3c([H])c([H])c([H])c(N([H])C(=O)N4C([H])([H])C([H])([H])C([H])([H])C([H])(n5nc(-c6c([H])c([H])c(Oc7c([H])c([H])c(F)c([H])c7F)c([H])c6[H])c(C(=O)N([H])[H])c5N([H])[H])C4([H])[H])c3[H])c([H])c([H])c2C1([H])[H]

>  <smiles>  (61) 
[H]c1c([H])c([H])c2c(c1[H])C([H])([H])C([H])([H])C([H])([H])C2([H])N([H])C(=O)C1([H])N(C(=O)C([H])(N([H])C(=O)C([H])(N([H])C([H])([H])[H])C([H])([H])[H])C(C([H])([H])[H])(C([H])([H])[H])C([H])([H])[H])C([H])([H])c2c([H])c(OC([H])([H])C([H])([H])[N+]([H])(C([H])([H])[H])C([H])([H])c3c([H])c([H])c([H])c(N([H])C(=O)N4C([H])([H])C([H])([H])C([H])([H])C([H])(n5nc(-c6c([H])c([H])c(Oc7c([H])c([H])c(F)c([H])c7F)c([H])c6[H])c(C(=O)N([H])[H])c5N([H])[H])C4([H])[H])c3[H])c([H])c([H])c2C1([H])[H]

$$$$
63:0:0
     RDKit          3D

 92 96  0  0  1  0  0  0  0  0999 V2000
  -27.0290  -27.7460   22.8310 C   0  0  0  0  0  3  0  0  0  0  0  0
  -24.6080  -29.2080   21.0500 C   0  0  0  0  0  3  0  0  0  0  0  0
  -27.8930  -28.5190   21.6740 C   0  0  0  0  0  3  0  0  0  0  0  0
  -25.8320  -29.7260   20.0880 C   0  0  0  0  0  2  0  0  0  0  0  0
  -25.3610  -27.7120   22.8240 C   0  0  0  0  0  1  0  0  0  0  0  0
  -27.3320  -29.1900   20.3110 C   0  0  0  0  0  3  0  0  0  0  0  0
  -27.5350  -28.2080   19.2270 O   0  0  0  0  0  0  0  0  0  0  0  0
  -23.9660  -31.8220   23.3540 C   0  0  0  0  0  0  0  0  0  0  0  0
  -26.4800  -27.3100   18.9380 C   0  0  0  0  0  3  0  0  0  0  0  0
  -22.6350  -30.1120   21.8190 C   0  0  0  0  0  3  0  0  0  0  0  0
  -23.8450  -27.6810   19.8820 C   0  0  0  0  0  3  0  0  0  0  0  0
  -25.7010  -30.2280   22.0970 C   0  0  0  0  0  2  0  0  0  0  0  0
  -25.3820  -27.8450   20.2960 C   0  0  0  0  0  3  0  0  0  0  0  0
  -26.2010  -26.8090   20.0840 C   0  0  0  0  0  2  0  0  0  0  0  0
  -25.3210  -27.2680   18.0260 C   0  0  0  0  0  3  0  0  0  0  0  0
  -23.9650  -27.3400   18.5550 C   0  0  0  0  0  3  0  0  0  0  0  0
  -22.4960  -28.7010   20.5710 C   0  0  0  0  0  2  0  0  0  0  0  0
  -24.0850  -30.7790   22.5050 N   0  0  0  0  0  0  0  0  0  0  0  0
  -22.8710  -32.2590   23.7310 O   0  0  0  0  0  0  0  0  0  0  0  0
  -21.7920  -29.5270   22.8900 C   0  0  0  0  0  0  0  0  0  0  0  0
  -20.5000  -29.3530   22.6230 N   0  0  0  0  0  0  0  0  0  0  0  0
  -22.3540  -29.0520   23.8700 O   0  0  0  0  0  0  0  0  0  0  0  0
  -20.0940  -29.7610   21.7920 H   0  0  0  0  0  0  0  0  0  0  0  0
  -17.2000  -27.9720   22.9800 C   0  0  0  0  0  0  0  0  0  0  0  0
  -19.6870  -28.4270   23.3920 C   0  0  0  0  0  3  0  0  0  0  0  0
  -19.9380  -26.9640   22.9540 C   0  0  0  0  0  2  0  0  0  0  0  0
  -18.9390  -26.4710   21.9070 C   0  0  0  0  0  2  0  0  0  0  0  0
  -17.5130  -26.5760   22.4590 C   0  0  0  0  0  2  0  0  0  0  0  0
  -18.2320  -28.8510   23.3900 C   0  0  0  0  0  0  0  0  0  0  0  0
  -17.9110  -30.1540   23.8260 C   0  0  0  0  0  3  0  0  0  0  0  0
  -16.5740  -30.5790   23.8780 C   0  0  0  0  0  3  0  0  0  0  0  0
  -15.5480  -29.6960   23.4970 C   0  0  0  0  0  3  0  0  0  0  0  0
  -15.8610  -28.3980   23.0490 C   0  0  0  0  0  3  0  0  0  0  0  0
  -25.2690  -32.4450   23.9240 C   0  0  0  0  0  3  0  0  0  0  0  0
  -25.0110  -33.8660   24.2090 N   0  0  0  0  0  0  0  0  0  0  0  0
  -25.3900  -34.9060   23.4510 C   0  0  0  0  0  0  0  0  0  0  0  0
  -26.0370  -34.7780   22.4070 O   0  0  0  0  0  0  0  0  0  0  0  0
  -24.4410  -34.0600   25.0190 H   0  0  0  0  0  0  0  0  0  0  0  0
  -23.7750  -36.8190   23.1570 C   0  0  0  0  0  1  0  0  0  0  0  0
  -24.9970  -36.3150   23.9400 C   0  0  0  0  0  3  0  0  0  0  0  0
  -27.1930  -37.0460   24.7670 C   0  0  0  0  0  1  0  0  0  0  0  0
  -26.0930  -37.3040   23.8410 N   0  0  0  0  0  0  0  0  0  0  0  0
  -25.7470  -38.2440   24.0120 H   0  0  0  0  0  0  0  0  0  0  0  0
  -25.7690  -31.6940   25.2280 C   0  0  1  0  0  0  0  0  0  0  0  0
  -24.6440  -31.5560   26.2700 C   0  0  0  0  0  1  0  0  0  0  0  0
  -26.3000  -30.2470   25.1080 C   0  0  0  0  0  1  0  0  0  0  0  0
  -26.9630  -32.4780   25.8090 C   0  0  0  0  0  1  0  0  0  0  0  0
  -25.7730  -25.6830   22.8090 C   0  0  0  0  0  1  0  0  0  0  0  0
  -26.6520  -24.2770   21.8520 N   0  0  0  0  0  4  0  0  0  0  0  0
  -25.9650  -24.0920   21.1380 H   0  0  0  0  0  0  0  0  0  0  0  0
  -27.3410  -24.8360   21.3780 H   0  0  0  0  0  0  0  0  0  0  0  0
  -27.5850  -22.6190   21.9250 C   0  0  0  0  0  1  0  0  0  0  0  0
  -28.0060  -20.7860   20.9210 C   0  0  0  0  0 15  0  0  0  0  0  0
  -29.1720  -19.0090   20.7840 C   0  0  0  0  0 15  0  0  0  0  0  0
  -30.1430  -15.7450   20.0230 C   0  0  0  0  0  0  0  0  0  0  0  0
  -30.4180  -13.1410   19.0490 C   0  0  0  0  0  2  0  0  0  0  0  0
  -29.5240  -12.5480   17.8970 C   0  0  0  0  0  2  0  0  0  0  0  0
  -28.1450  -12.1230   18.4160 C   0  0  0  0  0  2  0  0  0  0  0  0
  -27.6510  -13.1540   19.4470 C   0  0  0  0  0  3  0  0  0  0  0  0
  -28.6820  -13.5350   20.5340 C   0  0  0  0  0  2  0  0  0  0  0  0
  -29.7380  -14.3060   19.8530 N   0  0  0  0  0  0  0  0  0  0  0  0
  -31.3760  -15.6840   19.7560 O   0  0  0  0  0  0  0  0  0  0  0  0
  -29.2880  -17.1390   20.3250 N   0  0  0  0  0  2  0  0  0  0  0  0
  -28.3360  -16.8070   20.3640 H   0  0  0  0  0  0  0  0  0  0  0  0
  -25.4030  -13.7560   20.3960 C   0  0  0  0  0  0  0  0  0  0  0  0
  -24.3430  -13.0130   20.8190 C   0  0  0  0  0  0  0  0  0  0  0  0
  -24.7400  -11.6440   20.6930 C   0  0  0  0  0  0  0  0  0  0  0  0
  -26.3680  -12.8430   20.0270 N   0  0  0  0  0  0  0  0  0  0  0  0
  -25.9980  -11.5620   20.2720 N   0  0  0  0  0  0  0  0  0  0  0  0
  -23.9670  -10.4130   20.8860 C   0  0  0  0  0  0  0  0  0  0  0  0
  -24.3590   -9.4360   21.8270 C   0  0  0  0  0  3  0  0  0  0  0  0
  -23.5810   -8.2710   22.0120 C   0  0  0  0  0  3  0  0  0  0  0  0
  -22.3990   -8.0800   21.2570 C   0  0  0  0  0  0  0  0  0  0  0  0
  -22.0270   -9.0470   20.3070 C   0  0  0  0  0  3  0  0  0  0  0  0
  -22.8040  -10.2030   20.1210 C   0  0  0  0  0  3  0  0  0  0  0  0
  -21.5970   -6.9690   21.3510 O   0  0  0  0  0  0  0  0  0  0  0  0
  -21.4410   -6.2910   22.5320 C   0  0  0  0  0  0  0  0  0  0  0  0
  -20.9570   -6.9250   23.6980 C   0  0  0  0  0  3  0  0  0  0  0  0
  -20.7460   -6.1730   24.8710 C   0  0  0  0  0  3  0  0  0  0  0  0
  -21.0120   -4.7910   24.8800 C   0  0  0  0  0  0  0  0  0  0  0  0
  -21.4900   -4.1580   23.7190 C   0  0  0  0  0  3  0  0  0  0  0  0
  -21.7000   -4.9060   22.5480 C   0  0  0  0  0  0  0  0  0  0  0  0
  -22.1410   -4.2870   21.4260 F   0  0  0  0  0  0  0  0  0  0  0  0
  -20.8020   -4.0690   26.0050 F   0  0  0  0  0  0  0  0  0  0  0  0
  -23.0000  -13.5470   21.2140 C   0  0  0  0  0  0  0  0  0  0  0  0
  -22.3140  -12.8620   22.1200 N   0  0  0  0  0  0  0  0  0  0  0  0
  -22.5800  -14.6090   20.7560 O   0  0  0  0  0  0  0  0  0  0  0  0
  -22.6740  -12.0020   22.5040 H   0  0  0  0  0  0  0  0  0  0  0  0
  -21.4140  -13.2000   22.4310 H   0  0  0  0  0  0  0  0  0  0  0  0
  -25.6260  -15.1230   20.2610 N   0  0  0  0  0  0  0  0  0  0  0  0
  -24.8990  -15.8050   20.4500 H   0  0  0  0  0  0  0  0  0  0  0  0
  -26.4270  -15.5180   19.7880 H   0  0  0  0  0  0  0  0  0  0  0  0
  2  4  1  0
  2 12  1  0
  3  1  2  0
  4  6  1  0
  5  1  1  0
  6  3  1  0
  7  6  1  0
  8 19  2  0
  9 15  1  0
  9  7  1  0
  9 14  1  0
 10 18  1  0
 10 20  1  0
 11 16  1  0
 11 13  1  0
 11 17  1  0
 12 18  1  0
 13 14  1  0
 13  2  1  0
 15 16  2  0
 17 10  1  0
 18  8  1  0
 20 22  2  0
 21 20  1  0
 23 21  1  0
 24 33  2  0
 24 29  1  0
 25 21  1  0
 26 25  1  0
 27 28  1  0
 27 26  1  0
 28 24  1  0
 29 25  1  0
 29 30  2  0
 30 31  1  0
 32 31  2  0
 33 32  1  0
 34  8  1  0
 34 35  1  0
 34 44  1  0
 35 38  1  0
 36 40  1  0
 36 35  1  0
 37 36  2  0
 40 39  1  0
 42 40  1  0
 42 43  1  0
 42 41  1  0
 44 47  1  1
 44 45  1  0
 46 44  1  0
 49 52  1  0
 49 48  1  0
 50 49  1  0
 51 49  1  0
 55 63  1  0
 56 61  1  0
 57 58  1  0
 57 56  1  0
 59 58  1  0
 59 68  1  0
 59 60  1  0
 61 55  1  0
 61 60  1  0
 62 55  2  0
 63 64  1  0
 65 66  2  0
 66 85  1  0
 67 66  1  0
 67 70  1  0
 68 69  1  0
 68 65  1  0
 69 67  2  0
 70 71  1  0
 71 72  2  0
 73 76  1  0
 73 72  1  0
 74 73  2  0
 75 74  1  0
 75 70  2  0
 76 77  1  0
 77 82  2  0
 77 78  1  0
 78 79  2  0
 79 80  1  0
 80 84  1  0
 81 80  2  0
 82 81  1  0
 83 82  1  0
 85 86  1  0
 86 89  1  0
 86 88  1  0
 87 85  2  0
 90 65  1  0
 90 91  1  0
 92 90  1  0
M  ISO  4   6 101   7 101  55 100  63 100
M  END
>  <TORSDO>  (62) 
F 21

>  <SCORE>  (62) 
-12.859

>  <name>  (62) 
63

>  <ligand_id>  (62) 
63

>  <original_smiles>  (62) 
[H]c1c([H])c([H])c2c(c1[H])C([H])([H])C([H])([H])C([H])([H])C2([H])N([H])C(=O)C1([H])N(C(=O)C([H])(N([H])C(=O)C([H])(N([H])C([H])([H])[H])C([H])([H])[H])C(C([H])([H])[H])(C([H])([H])[H])C([H])([H])[H])C([H])([H])c2c([H])c(Oc3c([H])c([H])c(C([H])([H])[N+]([H])([H])C([H])([H])C([H])([H])C([H])([H])N([H])C(=O)N4C([H])([H])C([H])([H])C([H])([H])C([H])(n5nc(-c6c([H])c([H])c(Oc7c([H])c([H])c(F)c([H])c7F)c([H])c6[H])c(C(=O)N([H])[H])c5N([H])[H])C4([H])[H])c([H])c3[H])c([H])c([H])c2C1([H])[H]

>  <smiles>  (62) 
[H]c1c([H])c([H])c2c(c1[H])C([H])([H])C([H])([H])C([H])([H])C2([H])N([H])C(=O)C1([H])N(C(=O)C([H])(N([H])C(=O)C([H])(N([H])C([H])([H])[H])C([H])([H])[H])C(C([H])([H])[H])(C([H])([H])[H])C([H])([H])[H])C([H])([H])c2c([H])c(Oc3c([H])c([H])c(C([H])([H])[N+]([H])([H])C([H])([H])C([H])([H])C([H])([H])N([H])C(=O)N4C([H])([H])C([H])([H])C([H])([H])C([H])(n5nc(-c6c([H])c([H])c(Oc7c([H])c([H])c(F)c([H])c7F)c([H])c6[H])c(C(=O)N([H])[H])c5N([H])[H])C4([H])[H])c([H])c3[H])c([H])c([H])c2C1([H])[H]

$$$$
64:0:0
     RDKit          3D

 92100  0  0  1  0  0  0  0  0999 V2000
  -29.2900  -21.0340   20.3290 C   0  0  0  0  0  0  0  0  0  0  0  0
  -28.7930  -22.3030   20.0120 N   0  0  0  0  0  0  0  0  0  0  0  0
  -29.9910  -20.8530   21.3240 O   0  0  0  0  0  0  0  0  0  0  0  0
  -28.2060  -22.2920   19.1890 H   0  0  0  0  0  0  0  0  0  0  0  0
  -27.9580  -19.3420   17.1440 C   0  0  0  0  0  3  0  0  0  0  0  0
  -28.3070  -17.9970   17.2400 C   0  0  0  0  0  3  0  0  0  0  0  0
  -28.2920  -20.2200   18.1820 C   0  0  0  0  0  3  0  0  0  0  0  0
  -28.9680  -17.5400   18.3830 C   0  0  0  0  0  3  0  0  0  0  0  0
  -28.9770  -19.8300   19.3720 C   0  0  0  0  0  0  0  0  0  0  0  0
  -29.3130  -18.3750   19.4820 C   0  0  0  0  0  0  0  0  0  0  0  0
  -30.0480  -17.5210   20.6100 C   0  0  0  0  0  2  0  0  0  0  0  0
  -30.6220  -14.8850   20.4340 C   0  0  0  0  0  0  0  0  0  0  0  0
  -30.4700  -12.6090   19.3990 C   0  0  0  0  0  2  0  0  0  0  0  0
  -29.5460  -12.6830   18.1630 C   0  0  0  0  0  2  0  0  0  0  0  0
  -28.0690  -12.4980   18.5680 C   0  0  0  0  0  2  0  0  0  0  0  0
  -27.6730  -13.3670   19.7910 C   0  0  0  0  0  3  0  0  0  0  0  0
  -28.7180  -13.2690   20.9240 C   0  0  0  0  0  2  0  0  0  0  0  0
  -30.0180  -13.6480   20.3550 N   0  0  0  0  0  0  0  0  0  0  0  0
  -31.8060  -15.0100   20.1150 O   0  0  0  0  0  0  0  0  0  0  0  0
  -29.8150  -15.9920   20.6720 N   0  0  0  0  0  0  0  0  0  0  0  0
  -28.8660  -15.7400   20.9000 H   0  0  0  0  0  0  0  0  0  0  0  0
  -25.2630  -13.9370   20.4600 C   0  0  0  0  0  0  0  0  0  0  0  0
  -24.1990  -13.1560   20.8190 C   0  0  0  0  0  0  0  0  0  0  0  0
  -24.6800  -11.8090   20.8170 C   0  0  0  0  0  0  0  0  0  0  0  0
  -26.3220  -13.0690   20.2570 N   0  0  0  0  0  0  0  0  0  0  0  0
  -25.9770  -11.7840   20.5350 N   0  0  0  0  0  0  0  0  0  0  0  0
  -23.9650  -10.5410   21.0090 C   0  0  0  0  0  0  0  0  0  0  0  0
  -24.3920   -9.5890   21.9610 C   0  0  0  0  0  3  0  0  0  0  0  0
  -23.6750   -8.3850   22.1400 C   0  0  0  0  0  3  0  0  0  0  0  0
  -22.5200   -8.1250   21.3680 C   0  0  0  0  0  0  0  0  0  0  0  0
  -22.1120   -9.0660   20.4050 C   0  0  0  0  0  3  0  0  0  0  0  0
  -22.8280  -10.2600   20.2240 C   0  0  0  0  0  3  0  0  0  0  0  0
  -21.7760   -6.9730   21.4570 O   0  0  0  0  0  0  0  0  0  0  0  0
  -21.7200   -6.2400   22.6150 C   0  0  0  0  0  0  0  0  0  0  0  0
  -21.2730   -6.8000   23.8310 C   0  0  0  0  0  3  0  0  0  0  0  0
  -21.1640   -5.9930   24.9820 C   0  0  0  0  0  3  0  0  0  0  0  0
  -21.4940   -4.6250   24.9160 C   0  0  0  0  0  0  0  0  0  0  0  0
  -21.9340   -4.0640   23.7040 C   0  0  0  0  0  3  0  0  0  0  0  0
  -22.0440   -4.8690   22.5560 C   0  0  0  0  0  0  0  0  0  0  0  0
  -22.4480   -4.3190   21.3860 F   0  0  0  0  0  0  0  0  0  0  0  0
  -21.3820   -3.8480   26.0180 F   0  0  0  0  0  0  0  0  0  0  0  0
  -22.7900  -13.6190   21.0530 C   0  0  0  0  0  0  0  0  0  0  0  0
  -22.0520  -12.9270   21.9140 N   0  0  0  0  0  0  0  0  0  0  0  0
  -22.3500  -14.6290   20.5060 O   0  0  0  0  0  0  0  0  0  0  0  0
  -22.4200  -12.1090   22.3790 H   0  0  0  0  0  0  0  0  0  0  0  0
  -21.1050  -13.2170   22.1130 H   0  0  0  0  0  0  0  0  0  0  0  0
  -25.4120  -15.3080   20.2650 N   0  0  0  0  0  0  0  0  0  0  0  0
  -24.6320  -15.9490   20.3500 H   0  0  0  0  0  0  0  0  0  0  0  0
  -26.2490  -15.7520   19.9090 H   0  0  0  0  0  0  0  0  0  0  0  0
  -29.0340  -23.7210   20.5560 C   0  0  0  0  0  3  0  0  0  0  0  0
  -28.0520  -24.9400   20.0770 C   0  0  0  0  0  3  0  0  0  0  0  0
  -28.2740  -26.4150   20.3600 O   0  0  0  0  0  0  0  0  0  0  0  0
  -24.5780  -31.9740   23.2920 C   0  0  0  0  0  0  0  0  0  0  0  0
  -27.1870  -27.3320   20.2770 C   0  0  0  0  0  0  0  0  0  0  0  0
  -23.3830  -30.5720   21.6510 C   0  0  0  0  0  3  0  0  0  0  0  0
  -24.8390  -29.0080   20.2380 C   0  0  0  0  0  0  0  0  0  0  0  0
  -25.9310  -30.8650   21.4880 C   0  0  0  0  0  2  0  0  0  0  0  0
  -26.0110  -29.4780   20.8440 C   0  0  0  0  0  0  0  0  0  0  0  0
  -27.1860  -28.6540   20.8520 C   0  0  0  0  0  3  0  0  0  0  0  0
  -25.9900  -26.9420   19.6330 C   0  0  0  0  0  3  0  0  0  0  0  0
  -24.8360  -27.7490   19.6210 C   0  0  0  0  0  3  0  0  0  0  0  0
  -23.6070  -29.8920   20.2750 C   0  0  0  0  0  2  0  0  0  0  0  0
  -24.6500  -31.1560   22.2000 N   0  0  0  0  0  0  0  0  0  0  0  0
  -23.4920  -32.2580   23.8160 O   0  0  0  0  0  0  0  0  0  0  0  0
  -22.7080  -29.5630   22.6120 C   0  0  0  0  0  0  0  0  0  0  0  0
  -21.3830  -29.3800   22.4710 N   0  0  0  0  0  0  0  0  0  0  0  0
  -23.3760  -28.9470   23.4480 O   0  0  0  0  0  0  0  0  0  0  0  0
  -20.9010  -29.9290   21.7740 H   0  0  0  0  0  0  0  0  0  0  0  0
  -18.0070  -28.1650   22.9400 C   0  0  0  0  0  0  0  0  0  0  0  0
  -20.5590  -28.4450   23.2420 C   0  0  0  0  0  3  0  0  0  0  0  0
  -20.6780  -27.0080   22.6840 C   0  0  0  0  0  2  0  0  0  0  0  0
  -19.5920  -26.6670   21.6570 C   0  0  0  0  0  2  0  0  0  0  0  0
  -18.2010  -26.8100   22.2810 C   0  0  0  0  0  2  0  0  0  0  0  0
  -19.1140  -28.9390   23.3770 C   0  0  0  0  0  0  0  0  0  0  0  0
  -18.8780  -30.2060   23.9530 C   0  0  0  0  0  3  0  0  0  0  0  0
  -17.5660  -30.7000   24.0960 C   0  0  0  0  0  3  0  0  0  0  0  0
  -16.4730  -29.9230   23.6740 C   0  0  0  0  0  3  0  0  0  0  0  0
  -16.6940  -28.6560   23.1020 C   0  0  0  0  0  3  0  0  0  0  0  0
  -25.8560  -32.6100   23.9220 C   0  0  0  0  0  3  0  0  0  0  0  0
  -26.3500  -31.8560   25.2180 C   0  0  1  0  0  0  0  0  0  0  0  0
  -25.2420  -31.6440   26.2740 C   0  0  0  0  0  1  0  0  0  0  0  0
  -26.9270  -30.4670   24.8590 C   0  0  0  0  0  1  0  0  0  0  0  0
  -27.4990  -32.6520   25.8820 C   0  0  0  0  0  1  0  0  0  0  0  0
  -25.5510  -34.0160   24.2290 N   0  0  0  0  0  0  0  0  0  0  0  0
  -25.8950  -35.0570   23.4600 C   0  0  0  0  0  0  0  0  0  0  0  0
  -26.5720  -34.9350   22.4350 O   0  0  0  0  0  0  0  0  0  0  0  0
  -24.9520  -34.1850   25.0240 H   0  0  0  0  0  0  0  0  0  0  0  0
  -24.1820  -36.8570   23.0670 C   0  0  0  0  0  1  0  0  0  0  0  0
  -25.4140  -36.4540   23.8940 C   0  0  0  0  0  3  0  0  0  0  0  0
  -27.5490  -37.3370   24.7300 C   0  0  0  0  0  1  0  0  0  0  0  0
  -26.4550  -37.5000   23.7740 N   0  0  0  0  0  0  0  0  0  0  0  0
  -26.0550  -38.4250   23.9040 H   0  0  0  0  0  0  0  0  0  0  0  0
  1  3  2  0
  2  1  1  0
  2 50  1  0
  4  2  1  0
  5  6  2  0
  5  7  1  0
  6  8  1  0
  7  9  2  0
  8 10  2  0
  9 10  1  0
  9  1  1  0
 10 11  1  0
 11 20  1  0
 12 20  1  0
 13 18  1  0
 14 15  1  0
 14 13  1  0
 16 15  1  0
 16 25  1  0
 16 17  1  0
 18 12  1  0
 18 17  1  0
 19 12  2  0
 20 21  1  0
 22 23  2  0
 23 42  1  0
 24 23  1  0
 24 27  1  0
 25 22  1  0
 25 26  1  0
 26 24  2  0
 27 28  1  0
 28 29  2  0
 30 33  1  0
 30 29  1  0
 31 30  2  0
 32 31  1  0
 32 27  2  0
 33 34  1  0
 34 35  1  0
 35 36  2  0
 37 36  1  0
 37 41  1  0
 38 37  2  0
 39 34  2  0
 39 38  1  0
 40 39  1  0
 42 43  1  0
 43 46  1  0
 43 45  1  0
 44 42  2  0
 47 48  1  0
 47 22  1  0
 49 47  1  0
 51 52  1  0
 51 50  2  0
 53 64  2  0
 54 52  1  0
 54 59  1  0
 55 63  1  0
 55 65  1  0
 56 62  1  0
 56 58  1  0
 57 63  1  0
 58 59  2  0
 58 57  1  0
 60 54  2  0
 61 60  1  0
 61 56  2  0
 62 55  1  0
 63 53  1  0
 65 67  2  0
 66 65  1  0
 68 66  1  0
 69 78  2  0
 69 74  1  0
 70 66  1  0
 70 74  1  0
 71 70  1  0
 72 73  1  0
 72 71  1  0
 73 69  1  0
 74 75  2  0
 75 76  1  0
 77 76  2  0
 78 77  1  0
 79 53  1  0
 79 84  1  0
 79 80  1  0
 80 83  1  1
 80 81  1  0
 82 80  1  0
 84 87  1  0
 85 89  1  0
 85 84  1  0
 86 85  2  0
 89 88  1  0
 91 89  1  0
 91 92  1  0
 91 90  1  0
M  ISO  4  12 100  20 100  51 101  52 101
M  END
>  <TORSDO>  (63) 
F 20

>  <SCORE>  (63) 
-13.762

>  <name>  (63) 
64

>  <ligand_id>  (63) 
64

>  <original_smiles>  (63) 
[H]c1c([H])c([H])c(C([H])([H])N([H])C(=O)N2C([H])([H])C([H])([H])C([H])([H])C([H])(n3nc(-c4c([H])c([H])c(Oc5c([H])c([H])c(F)c([H])c5F)c([H])c4[H])c(C(=O)N([H])[H])c3N([H])[H])C2([H])[H])c(C(=O)N([H])C([H])([H])C([H])([H])Oc2c([H])c([H])c3c(c2[H])C([H])([H])N(C(=O)C([H])(N([H])C(=O)C([H])(N([H])C([H])([H])[H])C([H])([H])[H])C(C([H])([H])[H])(C([H])([H])[H])C([H])([H])[H])C([H])(C(=O)N([H])C2([H])c4c([H])c([H])c([H])c([H])c4C([H])([H])C([H])([H])C2([H])[H])C3([H])[H])c1[H]

>  <smiles>  (63) 
[H]c1c([H])c([H])c(C([H])([H])N([H])C(=O)N2C([H])([H])C([H])([H])C([H])([H])C([H])(n3nc(-c4c([H])c([H])c(Oc5c([H])c([H])c(F)c([H])c5F)c([H])c4[H])c(C(=O)N([H])[H])c3N([H])[H])C2([H])[H])c(C(=O)N([H])C([H])([H])C([H])([H])Oc2c([H])c([H])c3c(c2[H])C([H])([H])N(C(=O)C([H])(N([H])C(=O)C([H])(N([H])C([H])([H])[H])C([H])([H])[H])C(C([H])([H])[H])(C([H])([H])[H])C([H])([H])[H])C([H])(C(=O)N([H])C2([H])c4c([H])c([H])c([H])c([H])c4C([H])([H])C([H])([H])C2([H])[H])C3([H])[H])c1[H]

$$$$
65:0:0
     RDKit          3D

 89 97  0  0  1  0  0  0  0  0999 V2000
  -28.4230  -21.9800   20.2360 N   0  0  0  0  0  0  0  0  0  0  0  0
  -27.4070  -22.0210   20.2670 H   0  0  0  0  0  0  0  0  0  0  0  0
  -28.2210  -18.1270   20.4770 C   0  0  0  0  0  3  0  0  0  0  0  0
  -30.5180  -18.5690   20.1860 C   0  0  0  0  0  3  0  0  0  0  0  0
  -27.9360  -19.5390   20.4420 C   0  0  0  0  0  3  0  0  0  0  0  0
  -30.2270  -20.0090   20.1650 C   0  0  0  0  0  3  0  0  0  0  0  0
  -29.5170  -17.5420   20.3430 C   0  0  0  0  0  0  0  0  0  0  0  0
  -28.9060  -20.5760   20.2850 C   0  0  0  0  0  0  0  0  0  0  0  0
  -30.4840  -14.9520   20.0880 C   0  0  0  0  0  0  0  0  0  0  0  0
  -30.3570  -12.6400   19.0650 C   0  0  0  0  0  2  0  0  0  0  0  0
  -29.3590  -12.6630   17.8820 C   0  0  0  0  0  2  0  0  0  0  0  0
  -27.9130  -12.4460   18.3730 C   0  0  0  0  0  2  0  0  0  0  0  0
  -27.5710  -13.3200   19.6080 C   0  0  0  0  0  3  0  0  0  0  0  0
  -28.6790  -13.2460   20.6810 C   0  0  0  0  0  2  0  0  0  0  0  0
  -29.9320  -13.6750   20.0430 N   0  0  0  0  0  0  0  0  0  0  0  0
  -31.6500  -15.1040   19.7070 O   0  0  0  0  0  0  0  0  0  0  0  0
  -29.6180  -16.0180   20.4090 N   0  0  0  0  0  0  0  0  0  0  0  0
  -28.7440  -15.6130   20.7050 H   0  0  0  0  0  0  0  0  0  0  0  0
  -25.2200  -13.8850   20.4550 C   0  0  0  0  0  0  0  0  0  0  0  0
  -24.1730  -13.1010   20.8570 C   0  0  0  0  0  0  0  0  0  0  0  0
  -24.6360  -11.7520   20.7750 C   0  0  0  0  0  0  0  0  0  0  0  0
  -26.2520  -13.0130   20.1510 N   0  0  0  0  0  0  0  0  0  0  0  0
  -25.9120  -11.7240   20.4080 N   0  0  0  0  0  0  0  0  0  0  0  0
  -23.9180  -10.4850   20.9680 C   0  0  0  0  0  0  0  0  0  0  0  0
  -24.3600   -9.5210   21.9010 C   0  0  0  0  0  3  0  0  0  0  0  0
  -23.6420   -8.3190   22.0830 C   0  0  0  0  0  3  0  0  0  0  0  0
  -22.4700   -8.0730   21.3320 C   0  0  0  0  0  0  0  0  0  0  0  0
  -22.0460   -9.0260   20.3880 C   0  0  0  0  0  3  0  0  0  0  0  0
  -22.7650  -10.2190   20.2050 C   0  0  0  0  0  3  0  0  0  0  0  0
  -21.7230   -6.9230   21.4220 O   0  0  0  0  0  0  0  0  0  0  0  0
  -21.6360   -6.2120   22.5920 C   0  0  0  0  0  0  0  0  0  0  0  0
  -21.1400   -6.7890   23.7810 C   0  0  0  0  0  3  0  0  0  0  0  0
  -21.0040   -6.0020   24.9420 C   0  0  0  0  0  3  0  0  0  0  0  0
  -21.3530   -4.6390   24.9160 C   0  0  0  0  0  0  0  0  0  0  0  0
  -21.8430   -4.0610   23.7310 C   0  0  0  0  0  3  0  0  0  0  0  0
  -21.9810   -4.8440   22.5720 C   0  0  0  0  0  0  0  0  0  0  0  0
  -22.4330   -4.2770   21.4270 F   0  0  0  0  0  0  0  0  0  0  0  0
  -21.2160   -3.8810   26.0280 F   0  0  0  0  0  0  0  0  0  0  0  0
  -22.7880  -13.5710   21.1980 C   0  0  0  0  0  0  0  0  0  0  0  0
  -22.1010  -12.8590   22.0840 N   0  0  0  0  0  0  0  0  0  0  0  0
  -22.3260  -14.6020   20.7120 O   0  0  0  0  0  0  0  0  0  0  0  0
  -22.4890  -12.0250   22.4980 H   0  0  0  0  0  0  0  0  0  0  0  0
  -21.1730  -13.1550   22.3540 H   0  0  0  0  0  0  0  0  0  0  0  0
  -25.3710  -15.2590   20.2940 N   0  0  0  0  0  0  0  0  0  0  0  0
  -24.5900  -15.8940   20.4230 H   0  0  0  0  0  0  0  0  0  0  0  0
  -26.1580  -15.6910   19.8280 H   0  0  0  0  0  0  0  0  0  0  0  0
  -29.0040  -23.4170   20.3020 C   0  0  0  0  0  3  0  0  0  0  0  0
  -27.9840  -24.7350   20.0800 C   0  0  0  0  0  3  0  0  0  0  0  0
  -28.2720  -26.2470   20.2500 O   0  0  0  0  0  0  0  0  0  0  0  0
  -24.6400  -31.8950   23.2610 C   0  0  0  0  0  0  0  0  0  0  0  0
  -27.2080  -27.2180   20.1940 C   0  0  0  0  0  0  0  0  0  0  0  0
  -23.4350  -30.5170   21.6090 C   0  0  0  0  0  3  0  0  0  0  0  0
  -24.8790  -28.9540   20.1750 C   0  0  0  0  0  0  0  0  0  0  0  0
  -25.9890  -30.7820   21.4470 C   0  0  0  0  0  2  0  0  0  0  0  0
  -26.0590  -29.3960   20.7850 C   0  0  0  0  0  0  0  0  0  0  0  0
  -27.2250  -28.5450   20.7760 C   0  0  0  0  0  3  0  0  0  0  0  0
  -25.9990  -26.8710   19.5490 C   0  0  0  0  0  3  0  0  0  0  0  0
  -24.8600  -27.7030   19.5420 C   0  0  0  0  0  3  0  0  0  0  0  0
  -23.6530  -29.8510   20.2260 C   0  0  0  0  0  2  0  0  0  0  0  0
  -24.7080  -31.0850   22.1610 N   0  0  0  0  0  0  0  0  0  0  0  0
  -23.5540  -32.1800   23.7900 O   0  0  0  0  0  0  0  0  0  0  0  0
  -22.7520  -29.5050   22.5630 C   0  0  0  0  0  0  0  0  0  0  0  0
  -21.4240  -29.3390   22.4300 N   0  0  0  0  0  0  0  0  0  0  0  0
  -23.4200  -28.8700   23.3840 O   0  0  0  0  0  0  0  0  0  0  0  0
  -20.9430  -29.9020   21.7440 H   0  0  0  0  0  0  0  0  0  0  0  0
  -18.0350  -28.1590   22.9260 C   0  0  0  0  0  0  0  0  0  0  0  0
  -20.5960  -28.4000   23.1930 C   0  0  0  0  0  3  0  0  0  0  0  0
  -20.6870  -26.9730   22.6050 C   0  0  0  0  0  2  0  0  0  0  0  0
  -19.5810  -26.6680   21.5890 C   0  0  0  0  0  2  0  0  0  0  0  0
  -18.2010  -26.8160   22.2360 C   0  0  0  0  0  2  0  0  0  0  0  0
  -19.1600  -28.9100   23.3610 C   0  0  0  0  0  0  0  0  0  0  0  0
  -18.9490  -30.1680   23.9680 C   0  0  0  0  0  3  0  0  0  0  0  0
  -17.6470  -30.6750   24.1430 C   0  0  0  0  0  3  0  0  0  0  0  0
  -16.5370  -29.9210   23.7210 C   0  0  0  0  0  3  0  0  0  0  0  0
  -16.7330  -28.6650   23.1200 C   0  0  0  0  0  3  0  0  0  0  0  0
  -25.9200  -32.5200   23.8940 C   0  0  0  0  0  3  0  0  0  0  0  0
  -26.4170  -31.7460   25.1780 C   0  0  1  0  0  0  0  0  0  0  0  0
  -25.3120  -31.5190   26.2350 C   0  0  0  0  0  1  0  0  0  0  0  0
  -26.9930  -30.3620   24.7960 C   0  0  0  0  0  1  0  0  0  0  0  0
  -27.5680  -32.5310   25.8480 C   0  0  0  0  0  1  0  0  0  0  0  0
  -25.6180  -33.9210   24.2260 N   0  0  0  0  0  0  0  0  0  0  0  0
  -25.9290  -34.9720   23.4570 C   0  0  0  0  0  0  0  0  0  0  0  0
  -26.5690  -34.8650   22.4070 O   0  0  0  0  0  0  0  0  0  0  0  0
  -25.0460  -34.0780   25.0430 H   0  0  0  0  0  0  0  0  0  0  0  0
  -24.1790  -36.7580   23.1700 C   0  0  0  0  0  1  0  0  0  0  0  0
  -25.4580  -36.3640   23.9250 C   0  0  0  0  0  3  0  0  0  0  0  0
  -27.6240  -37.2700   24.6500 C   0  0  0  0  0  1  0  0  0  0  0  0
  -26.4810  -37.4200   23.7530 N   0  0  0  0  0  0  0  0  0  0  0  0
  -26.0770  -38.3400   23.9050 H   0  0  0  0  0  0  0  0  0  0  0  0
  1  2  1  0
  1  8  1  0
  1 47  1  0
  4  7  1  0
  5  3  1  0
  6  4  2  0
  6  8  1  0
  7 17  1  0
  7  3  2  0
  8  5  2  0
  9 17  1  0
 10 15  1  0
 11 12  1  0
 11 10  1  0
 13 12  1  0
 13 22  1  0
 13 14  1  0
 15  9  1  0
 15 14  1  0
 16  9  2  0
 17 18  1  0
 19 20  2  0
 20 39  1  0
 21 20  1  0
 21 24  1  0
 22 23  1  0
 22 19  1  0
 23 21  2  0
 24 25  1  0
 25 26  2  0
 27 30  1  0
 27 26  1  0
 28 27  2  0
 29 28  1  0
 29 24  2  0
 30 31  1  0
 31 32  1  0
 32 33  2  0
 34 33  1  0
 34 38  1  0
 35 34  2  0
 36 31  2  0
 36 35  1  0
 37 36  1  0
 39 40  1  0
 40 43  1  0
 40 42  1  0
 41 39  2  0
 44 45  1  0
 44 19  1  0
 46 44  1  0
 48 49  1  0
 48 47  2  0
 50 61  2  0
 51 49  1  0
 51 56  1  0
 52 60  1  0
 52 62  1  0
 53 59  1  0
 53 55  1  0
 54 60  1  0
 55 54  1  0
 56 55  2  0
 57 51  2  0
 58 57  1  0
 58 53  2  0
 59 52  1  0
 60 50  1  0
 62 64  2  0
 63 62  1  0
 65 63  1  0
 66 75  2  0
 66 71  1  0
 67 63  1  0
 67 71  1  0
 68 67  1  0
 69 70  1  0
 69 68  1  0
 70 66  1  0
 71 72  2  0
 72 73  1  0
 74 73  2  0
 75 74  1  0
 76 50  1  0
 76 81  1  0
 76 77  1  0
 77 80  1  1
 77 78  1  0
 79 77  1  0
 81 84  1  0
 82 86  1  0
 82 81  1  0
 83 82  2  0
 86 85  1  0
 88 89  1  0
 88 86  1  0
 88 87  1  0
M  ISO  4   9 100  17 100  48 101  49 101
M  END
>  <TORSDO>  (64) 
F 19

>  <SCORE>  (64) 
-14.107

>  <name>  (64) 
65

>  <ligand_id>  (64) 
65

>  <original_smiles>  (64) 
[H]c1c([H])c([H])c2c(c1[H])C([H])([H])C([H])([H])C([H])([H])C2([H])N([H])C(=O)C1([H])N(C(=O)C([H])(N([H])C(=O)C([H])(N([H])C([H])([H])[H])C([H])([H])[H])C(C([H])([H])[H])(C([H])([H])[H])C([H])([H])[H])C([H])([H])c2c([H])c(OC([H])([H])C([H])([H])N([H])c3c([H])c([H])c(N([H])C(=O)N4C([H])([H])C([H])([H])C([H])([H])C([H])(n5nc(-c6c([H])c([H])c(Oc7c([H])c([H])c(F)c([H])c7F)c([H])c6[H])c(C(=O)N([H])[H])c5N([H])[H])C4([H])[H])c([H])c3[H])c([H])c([H])c2C1([H])[H]

>  <smiles>  (64) 
[H]c1c([H])c([H])c2c(c1[H])C([H])([H])C([H])([H])C([H])([H])C2([H])N([H])C(=O)C1([H])N(C(=O)C([H])(N([H])C(=O)C([H])(N([H])C([H])([H])[H])C([H])([H])[H])C(C([H])([H])[H])(C([H])([H])[H])C([H])([H])[H])C([H])([H])c2c([H])c(OC([H])([H])C([H])([H])N([H])c3c([H])c([H])c(N([H])C(=O)N4C([H])([H])C([H])([H])C([H])([H])C([H])(n5nc(-c6c([H])c([H])c(Oc7c([H])c([H])c(F)c([H])c7F)c([H])c6[H])c(C(=O)N([H])[H])c5N([H])[H])C4([H])[H])c([H])c3[H])c([H])c([H])c2C1([H])[H]

$$$$
66:0:0
     RDKit          3D

 96104  0  0  1  0  0  0  0  0999 V2000
  -30.6910  -26.2930   14.3860 C   0  0  0  0  0  3  0  0  0  0  0  0
  -30.2870  -26.9110   15.5860 C   0  0  0  0  0  3  0  0  0  0  0  0
  -31.1760  -24.9690   14.4010 C   0  0  0  0  0  3  0  0  0  0  0  0
  -30.9220  -24.9110   16.8250 C   0  0  0  0  0  3  0  0  0  0  0  0
  -30.3890  -26.2180   16.8120 C   0  0  0  0  0  0  0  0  0  0  0  0
  -31.2820  -24.2680   15.6210 C   0  0  0  0  0  0  0  0  0  0  0  0
  -29.9140  -26.8680   18.1070 C   0  0  0  0  0  2  0  0  0  0  0  0
  -28.8700  -26.0160   18.8560 C   0  0  0  0  0  2  0  0  0  0  0  0
  -28.4650  -26.6830   20.0530 O   0  0  0  0  0  0  0  0  0  0  0  0
  -24.6270  -31.7900   23.1410 C   0  0  0  0  0  0  0  0  0  0  0  0
  -27.2720  -27.3710   20.0440 C   0  0  0  0  0  0  0  0  0  0  0  0
  -23.4220  -30.3970   21.4910 C   0  0  0  0  0  3  0  0  0  0  0  0
  -24.8720  -28.8550   20.0730 C   0  0  0  0  0  0  0  0  0  0  0  0
  -25.9470  -30.7480   21.3060 C   0  0  0  0  0  2  0  0  0  0  0  0
  -26.0250  -29.3790   20.6690 C   0  0  0  0  0  0  0  0  0  0  0  0
  -27.2260  -28.6360   20.6630 C   0  0  0  0  0  3  0  0  0  0  0  0
  -26.0940  -26.8390   19.4750 C   0  0  0  0  0  3  0  0  0  0  0  0
  -24.8950  -27.5790   19.4830 C   0  0  0  0  0  3  0  0  0  0  0  0
  -23.6300  -29.7160   20.1110 C   0  0  0  0  0  2  0  0  0  0  0  0
  -24.6840  -30.9930   22.0380 N   0  0  0  0  0  0  0  0  0  0  0  0
  -23.5450  -32.0680   23.6770 O   0  0  0  0  0  0  0  0  0  0  0  0
  -22.7620  -29.3780   22.4460 C   0  0  0  0  0  0  0  0  0  0  0  0
  -21.4330  -29.2240   22.3290 N   0  0  0  0  0  0  0  0  0  0  0  0
  -23.4410  -28.7280   23.2470 O   0  0  0  0  0  0  0  0  0  0  0  0
  -20.9490  -29.7970   21.6510 H   0  0  0  0  0  0  0  0  0  0  0  0
  -18.0350  -28.1110   22.8510 C   0  0  0  0  0  0  0  0  0  0  0  0
  -20.6020  -28.2970   23.0960 C   0  0  0  0  0  3  0  0  0  0  0  0
  -20.6610  -26.8740   22.4970 C   0  0  0  0  0  2  0  0  0  0  0  0
  -19.5380  -26.5950   21.4920 C   0  0  0  0  0  2  0  0  0  0  0  0
  -18.1680  -26.7670   22.1540 C   0  0  0  0  0  2  0  0  0  0  0  0
  -19.1800  -28.8370   23.2790 C   0  0  0  0  0  0  0  0  0  0  0  0
  -19.0020  -30.0970   23.8870 C   0  0  0  0  0  3  0  0  0  0  0  0
  -17.7130  -30.6300   24.0780 C   0  0  0  0  0  3  0  0  0  0  0  0
  -16.5840  -29.9000   23.6650 C   0  0  0  0  0  3  0  0  0  0  0  0
  -16.7460  -28.6440   23.0580 C   0  0  0  0  0  3  0  0  0  0  0  0
  -25.9150  -32.4110   23.7680 C   0  0  0  0  0  3  0  0  0  0  0  0
  -26.4460  -31.6110   25.0190 C   0  0  1  0  0  0  0  0  0  0  0  0
  -25.3640  -31.3430   26.0910 C   0  0  0  0  0  1  0  0  0  0  0  0
  -27.0280  -30.2440   24.5880 C   0  0  0  0  0  1  0  0  0  0  0  0
  -27.6020  -32.3900   25.6890 C   0  0  0  0  0  1  0  0  0  0  0  0
  -25.6060  -33.8000   24.1320 N   0  0  0  0  0  0  0  0  0  0  0  0
  -25.9250  -34.8680   23.3910 C   0  0  0  0  0  0  0  0  0  0  0  0
  -26.5870  -34.7890   22.3510 O   0  0  0  0  0  0  0  0  0  0  0  0
  -25.0130  -33.9330   24.9390 H   0  0  0  0  0  0  0  0  0  0  0  0
  -24.1790  -36.6540   23.0940 C   0  0  0  0  0  1  0  0  0  0  0  0
  -25.4370  -36.2450   23.8780 C   0  0  0  0  0  3  0  0  0  0  0  0
  -27.5790  -37.1260   24.6890 C   0  0  0  0  0  1  0  0  0  0  0  0
  -26.4590  -37.3070   23.7690 N   0  0  0  0  0  0  0  0  0  0  0  0
  -26.0490  -38.2210   23.9450 H   0  0  0  0  0  0  0  0  0  0  0  0
  -31.7960  -22.8370   15.6530 C   0  0  0  0  0  2  0  0  0  0  0  0
  -30.7470  -21.8860   16.0870 N   0  0  0  0  0  4  0  0  0  0  0  0
  -30.0660  -21.7890   15.3480 H   0  0  0  0  0  0  0  0  0  0  0  0
  -30.2810  -22.3030   16.8750 H   0  0  0  0  0  0  0  0  0  0  0  0
  -31.2820  -20.5630   16.4870 C   0  0  0  0  0  2  0  0  0  0  0  0
  -30.3030  -19.7050   17.3290 C   0  0  0  0  0  2  0  0  0  0  0  0
  -31.0560  -18.5980   18.1090 C   0  0  0  0  0  2  0  0  0  0  0  0
  -30.1840  -17.5510   18.8460 C   0  0  0  0  0  2  0  0  0  0  0  0
  -31.0070  -16.7510   19.8870 C   0  0  0  0  0  2  0  0  0  0  0  0
  -30.8860  -14.2710   20.0650 C   0  0  0  0  0  0  0  0  0  0  0  0
  -30.3630  -12.1410   18.9380 C   0  0  0  0  0  2  0  0  0  0  0  0
  -29.3830  -12.3810   17.7730 C   0  0  0  0  0  2  0  0  0  0  0  0
  -27.9240  -12.3100   18.2710 C   0  0  0  0  0  2  0  0  0  0  0  0
  -27.6860  -13.1430   19.5590 C   0  0  0  0  0  3  0  0  0  0  0  0
  -28.7900  -12.8670   20.6030 C   0  0  0  0  0  2  0  0  0  0  0  0
  -30.0820  -13.1650   19.9650 N   0  0  0  0  0  0  0  0  0  0  0  0
  -32.0230  -14.2430   19.5870 O   0  0  0  0  0  0  0  0  0  0  0  0
  -29.4760  -15.7490   21.5190 C   0  0  0  0  0  1  0  0  0  0  0  0
  -30.3450  -15.4980   20.3620 N   0  0  0  0  0  0  0  0  0  0  0  0
  -25.3560  -13.8410   20.3950 C   0  0  0  0  0  0  0  0  0  0  0  0
  -24.2760  -13.1100   20.8140 C   0  0  0  0  0  0  0  0  0  0  0  0
  -24.6790  -11.7410   20.7560 C   0  0  0  0  0  0  0  0  0  0  0  0
  -26.3500  -12.9190   20.1080 N   0  0  0  0  0  0  0  0  0  0  0  0
  -25.9500  -11.6510   20.3860 N   0  0  0  0  0  0  0  0  0  0  0  0
  -23.9110  -10.5080   20.9800 C   0  0  0  0  0  0  0  0  0  0  0  0
  -24.3590   -9.5120   21.8750 C   0  0  0  0  0  3  0  0  0  0  0  0
  -23.5980   -8.3430   22.0850 C   0  0  0  0  0  3  0  0  0  0  0  0
  -22.3720   -8.1640   21.3990 C   0  0  0  0  0  0  0  0  0  0  0  0
  -21.9410   -9.1470   20.4910 C   0  0  0  0  0  3  0  0  0  0  0  0
  -22.7040  -10.3080   20.2780 C   0  0  0  0  0  3  0  0  0  0  0  0
  -21.5770   -7.0490   21.5210 O   0  0  0  0  0  0  0  0  0  0  0  0
  -21.5750   -6.2840   22.6600 C   0  0  0  0  0  0  0  0  0  0  0  0
  -21.2830   -6.8370   23.9260 C   0  0  0  0  0  3  0  0  0  0  0  0
  -21.2220   -6.0040   25.0620 C   0  0  0  0  0  3  0  0  0  0  0  0
  -21.4460   -4.6210   24.9340 C   0  0  0  0  0  0  0  0  0  0  0  0
  -21.7330   -4.0670   23.6730 C   0  0  0  0  0  3  0  0  0  0  0  0
  -21.7930   -4.8960   22.5410 C   0  0  0  0  0  0  0  0  0  0  0  0
  -22.0500   -4.3550   21.3250 F   0  0  0  0  0  0  0  0  0  0  0  0
  -21.3790   -3.8190   26.0240 F   0  0  0  0  0  0  0  0  0  0  0  0
  -22.9150  -13.6440   21.1490 C   0  0  0  0  0  0  0  0  0  0  0  0
  -22.1990  -12.9810   22.0510 N   0  0  0  0  0  0  0  0  0  0  0  0
  -22.4940  -14.6850   20.6450 O   0  0  0  0  0  0  0  0  0  0  0  0
  -22.5520  -12.1440   22.4880 H   0  0  0  0  0  0  0  0  0  0  0  0
  -21.2830  -13.3180   22.3080 H   0  0  0  0  0  0  0  0  0  0  0  0
  -25.5690  -15.2050   20.2140 N   0  0  0  0  0  0  0  0  0  0  0  0
  -24.8420  -15.8940   20.3630 H   0  0  0  0  0  0  0  0  0  0  0  0
  -26.4270  -15.6070   19.8540 H   0  0  0  0  0  0  0  0  0  0  0  0
  1  3  2  0
  1  2  1  0
  2  5  2  0
  3  6  1  0
  5  4  1  0
  5  7  1  0
  6 50  1  0
  6  4  2  0
  7  8  1  0
  8  9  1  0
 10 21  2  0
 11  9  1  0
 11 16  1  0
 12 20  1  0
 12 22  1  0
 13 19  1  0
 13 15  1  0
 14 20  1  0
 15 14  1  0
 16 15  2  0
 17 18  1  0
 17 11  2  0
 18 13  2  0
 19 12  1  0
 20 10  1  0
 22 24  2  0
 23 22  1  0
 25 23  1  0
 26 35  2  0
 26 31  1  0
 27 23  1  0
 27 31  1  0
 28 27  1  0
 29 30  1  0
 29 28  1  0
 30 26  1  0
 31 32  2  0
 32 33  1  0
 34 33  2  0
 35 34  1  0
 36 10  1  0
 36 41  1  0
 36 37  1  0
 37 40  1  1
 37 38  1  0
 39 37  1  0
 41 44  1  0
 42 46  1  0
 42 41  1  0
 43 42  2  0
 46 45  1  0
 48 46  1  0
 48 49  1  0
 48 47  1  0
 50 51  1  0
 51 54  1  0
 51 53  1  0
 52 51  1  0
 54 55  1  0
 55 56  1  0
 56 57  1  0
 57 58  1  0
 58 68  1  0
 59 68  1  0
 60 65  1  0
 61 62  1  0
 61 60  1  0
 63 62  1  0
 63 72  1  0
 63 64  1  0
 65 59  1  0
 65 64  1  0
 66 59  2  0
 68 67  1  0
 69 70  2  0
 70 89  1  0
 71 70  1  0
 71 74  1  0
 72 73  1  0
 72 69  1  0
 73 71  2  0
 74 75  1  0
 75 76  2  0
 77 80  1  0
 77 76  1  0
 78 77  2  0
 79 78  1  0
 79 74  2  0
 80 81  1  0
 81 82  1  0
 82 83  2  0
 84 83  1  0
 84 88  1  0
 85 84  2  0
 86 81  2  0
 86 85  1  0
 87 86  1  0
 89 90  1  0
 90 93  1  0
 90 92  1  0
 91 89  2  0
 94 95  1  0
 94 69  1  0
 96 94  1  0
M  ISO  4   8 101   9 101  59 100  68 100
M  END
>  <TORSDO>  (65) 
F 25

>  <SCORE>  (65) 
-11.633

>  <name>  (65) 
66

>  <ligand_id>  (65) 
66

>  <original_smiles>  (65) 
[H]c1c([H])c([H])c2c(c1[H])C([H])([H])C([H])([H])C([H])([H])C2([H])N([H])C(=O)C1([H])N(C(=O)C([H])(N([H])C(=O)C([H])(N([H])C([H])([H])[H])C([H])([H])[H])C(C([H])([H])[H])(C([H])([H])[H])C([H])([H])[H])C([H])([H])c2c([H])c(OC([H])([H])C([H])([H])c3c([H])c([H])c([H])c(C([H])([H])[N+]([H])([H])C([H])([H])C([H])([H])C([H])([H])C([H])([H])C([H])([H])N(C(=O)N4C([H])([H])C([H])([H])C([H])([H])C([H])(n5nc(-c6c([H])c([H])c(Oc7c([H])c([H])c(F)c([H])c7F)c([H])c6[H])c(C(=O)N([H])[H])c5N([H])[H])C4([H])[H])C([H])([H])[H])c3[H])c([H])c([H])c2C1([H])[H]

>  <smiles>  (65) 
[H]c1c([H])c([H])c2c(c1[H])C([H])([H])C([H])([H])C([H])([H])C2([H])N([H])C(=O)C1([H])N(C(=O)C([H])(N([H])C(=O)C([H])(N([H])C([H])([H])[H])C([H])([H])[H])C(C([H])([H])[H])(C([H])([H])[H])C([H])([H])[H])C([H])([H])c2c([H])c(OC([H])([H])C([H])([H])c3c([H])c([H])c([H])c(C([H])([H])[N+]([H])([H])C([H])([H])C([H])([H])C([H])([H])C([H])([H])C([H])([H])N(C(=O)N4C([H])([H])C([H])([H])C([H])([H])C([H])(n5nc(-c6c([H])c([H])c(Oc7c([H])c([H])c(F)c([H])c7F)c([H])c6[H])c(C(=O)N([H])[H])c5N([H])[H])C4([H])[H])C([H])([H])[H])c3[H])c([H])c([H])c2C1([H])[H]

$$$$
67:0:0
     RDKit          3D

 92 99  0  0  1  0  0  0  0  0999 V2000
  -28.1640  -21.8040   20.7790 C   0  0  0  0  0  2  0  0  0  0  0  0
  -28.3060  -22.9970   19.8950 N   0  0  0  0  0  4  0  0  0  0  0  0
  -29.2120  -22.9500   19.4510 H   0  0  0  0  0  0  0  0  0  0  0  0
  -27.6110  -22.9430   19.1640 H   0  0  0  0  0  0  0  0  0  0  0  0
  -28.1670  -24.3240   20.5750 C   0  0  0  0  0  2  0  0  0  0  0  0
  -28.6850  -25.5150   19.7180 C   0  0  0  0  0  2  0  0  0  0  0  0
  -28.5530  -26.8110   20.3360 O   0  0  0  0  0  0  0  0  0  0  0  0
  -24.6640  -31.9690   23.3290 C   0  0  0  0  0  0  0  0  0  0  0  0
  -27.3610  -27.5170   20.2890 C   0  0  0  0  0  0  0  0  0  0  0  0
  -23.4900  -30.5650   21.6660 C   0  0  0  0  0  3  0  0  0  0  0  0
  -24.9680  -29.0390   20.2570 C   0  0  0  0  0  0  0  0  0  0  0  0
  -26.0200  -30.9260   21.5100 C   0  0  0  0  0  2  0  0  0  0  0  0
  -26.1130  -29.5570   20.8650 C   0  0  0  0  0  0  0  0  0  0  0  0
  -27.3140  -28.8060   20.8740 C   0  0  0  0  0  3  0  0  0  0  0  0
  -26.1860  -27.0090   19.6880 C   0  0  0  0  0  3  0  0  0  0  0  0
  -25.0000  -27.7650   19.6610 C   0  0  0  0  0  3  0  0  0  0  0  0
  -23.7230  -29.8950   20.2870 C   0  0  0  0  0  2  0  0  0  0  0  0
  -24.7430  -31.1690   22.2260 N   0  0  0  0  0  0  0  0  0  0  0  0
  -23.5740  -32.2340   23.8530 O   0  0  0  0  0  0  0  0  0  0  0  0
  -22.8230  -29.5410   22.6150 C   0  0  0  0  0  0  0  0  0  0  0  0
  -21.5000  -29.3550   22.4660 N   0  0  0  0  0  0  0  0  0  0  0  0
  -23.4930  -28.9190   23.4430 O   0  0  0  0  0  0  0  0  0  0  0  0
  -21.0190  -29.9050   21.7680 H   0  0  0  0  0  0  0  0  0  0  0  0
  -18.1190  -28.1500   22.9090 C   0  0  0  0  0  0  0  0  0  0  0  0
  -20.6710  -28.4130   23.2220 C   0  0  0  0  0  3  0  0  0  0  0  0
  -20.7890  -26.9840   22.6440 C   0  0  0  0  0  2  0  0  0  0  0  0
  -19.7060  -26.6600   21.6110 C   0  0  0  0  0  2  0  0  0  0  0  0
  -18.3110  -26.8020   22.2320 C   0  0  0  0  0  2  0  0  0  0  0  0
  -19.2300  -28.9140   23.3570 C   0  0  0  0  0  0  0  0  0  0  0  0
  -18.9990  -30.1770   23.9470 C   0  0  0  0  0  3  0  0  0  0  0  0
  -17.6910  -30.6770   24.0880 C   0  0  0  0  0  3  0  0  0  0  0  0
  -16.5940  -29.9100   23.6580 C   0  0  0  0  0  3  0  0  0  0  0  0
  -16.8080  -28.6470   23.0760 C   0  0  0  0  0  3  0  0  0  0  0  0
  -25.9390  -32.6060   23.9670 C   0  0  0  0  0  3  0  0  0  0  0  0
  -26.4380  -31.8360   25.2500 C   0  0  1  0  0  0  0  0  0  0  0  0
  -25.3320  -31.5810   26.2990 C   0  0  0  0  0  1  0  0  0  0  0  0
  -27.0480  -30.4680   24.8610 C   0  0  0  0  0  1  0  0  0  0  0  0
  -27.5660  -32.6410   25.9360 C   0  0  0  0  0  1  0  0  0  0  0  0
  -25.6160  -34.0030   24.2940 N   0  0  0  0  0  0  0  0  0  0  0  0
  -25.9560  -35.0590   23.5420 C   0  0  0  0  0  0  0  0  0  0  0  0
  -26.6430  -34.9600   22.5210 O   0  0  0  0  0  0  0  0  0  0  0  0
  -25.0140  -34.1510   25.0900 H   0  0  0  0  0  0  0  0  0  0  0  0
  -24.2380  -36.8510   23.1440 C   0  0  0  0  0  1  0  0  0  0  0  0
  -25.4550  -36.4460   23.9900 C   0  0  0  0  0  3  0  0  0  0  0  0
  -27.5700  -37.3280   24.8750 C   0  0  0  0  0  1  0  0  0  0  0  0
  -26.4920  -37.4980   23.9050 N   0  0  0  0  0  0  0  0  0  0  0  0
  -26.0820  -38.4190   24.0420 H   0  0  0  0  0  0  0  0  0  0  0  0
  -27.8210  -20.4640   20.0490 C   0  0  0  0  0  2  0  0  0  0  0  0
  -28.9950  -19.4820   19.7340 C   0  0  0  0  0  2  0  0  0  0  0  0
  -28.6570  -17.9660   19.9470 C   0  0  0  0  0  2  0  0  0  0  0  0
  -31.1730  -17.5990   19.3680 C   0  0  0  0  0  1  0  0  0  0  0  0
  -29.7630  -16.9480   19.4810 C   0  0  0  0  0  3  0  0  0  0  0  0
  -30.3640  -14.5290   19.6010 C   0  0  0  0  0  0  0  0  0  0  0  0
  -29.9650  -12.3430   18.5120 C   0  0  0  0  0  2  0  0  0  0  0  0
  -28.8920  -12.4770   17.4120 C   0  0  0  0  0  2  0  0  0  0  0  0
  -27.4740  -12.3220   17.9980 C   0  0  0  0  0  2  0  0  0  0  0  0
  -27.2610  -13.1790   19.2710 C   0  0  0  0  0  3  0  0  0  0  0  0
  -28.4300  -12.9820   20.2520 C   0  0  0  0  0  2  0  0  0  0  0  0
  -29.6800  -13.3450   19.5600 N   0  0  0  0  0  0  0  0  0  0  0  0
  -31.3700  -14.6870   18.9040 O   0  0  0  0  0  0  0  0  0  0  0  0
  -29.7650  -15.6160   20.1870 N   0  0  0  0  0  0  0  0  0  0  0  0
  -24.9610  -13.7480   20.2670 C   0  0  0  0  0  0  0  0  0  0  0  0
  -23.9600  -12.9580   20.7670 C   0  0  0  0  0  0  0  0  0  0  0  0
  -24.4410  -11.6150   20.6860 C   0  0  0  0  0  0  0  0  0  0  0  0
  -25.9820  -12.8830   19.9090 N   0  0  0  0  0  0  0  0  0  0  0  0
  -25.6820  -11.5970   20.2220 N   0  0  0  0  0  0  0  0  0  0  0  0
  -23.7670  -10.3400   20.9650 C   0  0  0  0  0  0  0  0  0  0  0  0
  -24.2910   -9.4200   21.9010 C   0  0  0  0  0  3  0  0  0  0  0  0
  -23.6180   -8.2080   22.1660 C   0  0  0  0  0  3  0  0  0  0  0  0
  -22.4090   -7.9060   21.4940 C   0  0  0  0  0  0  0  0  0  0  0  0
  -21.9030   -8.8140   20.5470 C   0  0  0  0  0  3  0  0  0  0  0  0
  -22.5770  -10.0180   20.2810 C   0  0  0  0  0  3  0  0  0  0  0  0
  -21.7010   -6.7420   21.6690 O   0  0  0  0  0  0  0  0  0  0  0  0
  -21.7090   -6.0670   22.8640 C   0  0  0  0  0  0  0  0  0  0  0  0
  -21.2990   -6.6810   24.0670 C   0  0  0  0  0  3  0  0  0  0  0  0
  -21.2550   -5.9310   25.2590 C   0  0  0  0  0  3  0  0  0  0  0  0
  -21.6120   -4.5700   25.2490 C   0  0  0  0  0  0  0  0  0  0  0  0
  -22.0140   -3.9560   24.0510 C   0  0  0  0  0  3  0  0  0  0  0  0
  -22.0610   -4.7030   22.8600 C   0  0  0  0  0  0  0  0  0  0  0  0
  -22.4300   -4.1020   21.7040 F   0  0  0  0  0  0  0  0  0  0  0  0
  -21.5620   -3.8470   26.3930 F   0  0  0  0  0  0  0  0  0  0  0  0
  -22.5960  -13.4100   21.2070 C   0  0  0  0  0  0  0  0  0  0  0  0
  -22.0030  -12.7200   22.1770 N   0  0  0  0  0  0  0  0  0  0  0  0
  -22.0670  -14.4090   20.7240 O   0  0  0  0  0  0  0  0  0  0  0  0
  -22.4420  -11.9090   22.5880 H   0  0  0  0  0  0  0  0  0  0  0  0
  -21.0980  -13.0080   22.5190 H   0  0  0  0  0  0  0  0  0  0  0  0
  -25.0800  -15.1190   20.0690 N   0  0  0  0  0  0  0  0  0  0  0  0
  -24.3330  -15.7700   20.2860 H   0  0  0  0  0  0  0  0  0  0  0  0
  -25.8820  -15.5630   19.6420 H   0  0  0  0  0  0  0  0  0  0  0  0
  -29.5000  -15.6020   21.6470 C   0  0  0  0  0  2  0  0  0  0  0  0
  -30.2680  -16.6600   22.4290 C   0  0  0  0  0  3  0  0  0  0  0  0
  -31.4970  -16.6040   22.5130 O   0  0  0  0  0  0  0  0  0  0  0  0
  2  5  1  0
  2  1  1  0
  3  2  1  0
  4  2  1  0
  6  7  1  0
  6  5  1  0
  8 19  2  0
  9  7  1  0
  9 14  1  0
 10 18  1  0
 10 20  1  0
 11 17  1  0
 11 13  1  0
 12 18  1  0
 13 14  2  0
 13 12  1  0
 15  9  2  0
 16 15  1  0
 16 11  2  0
 17 10  1  0
 18  8  1  0
 20 22  2  0
 21 20  1  0
 23 21  1  0
 24 33  2  0
 24 29  1  0
 25 21  1  0
 25 29  1  0
 26 25  1  0
 27 28  1  0
 27 26  1  0
 28 24  1  0
 29 30  2  0
 30 31  1  0
 32 31  2  0
 33 32  1  0
 34  8  1  0
 34 39  1  0
 34 35  1  0
 35 38  1  1
 35 36  1  0
 37 35  1  0
 39 42  1  0
 40 44  1  0
 40 39  1  0
 41 40  2  0
 44 43  1  0
 46 44  1  0
 46 47  1  0
 46 45  1  0
 48  1  1  0
 49 50  1  0
 49 48  1  0
 52 51  1  0
 52 50  1  0
 52 61  1  0
 53 61  1  0
 54 59  1  0
 55 56  1  0
 55 54  1  0
 57 56  1  0
 57 65  1  0
 57 58  1  0
 59 53  1  0
 59 58  1  0
 60 53  2  0
 61 90  1  0
 62 63  2  0
 63 82  1  0
 64 63  1  0
 64 67  1  0
 65 66  1  0
 65 62  1  0
 66 64  2  0
 67 68  1  0
 68 69  2  0
 70 73  1  0
 70 69  1  0
 71 70  2  0
 72 71  1  0
 72 67  2  0
 73 74  1  0
 74 75  1  0
 75 76  2  0
 77 76  1  0
 77 81  1  0
 78 77  2  0
 79 74  2  0
 79 78  1  0
 80 79  1  0
 82 83  1  0
 83 86  1  0
 83 85  1  0
 84 82  2  0
 87 62  1  0
 87 88  1  0
 89 87  1  0
 90 91  1  0
 91 92  2  0
M  ISO  4   6 101   7 101  53 100  61 100
M  END
>  <TORSDO>  (66) 
F 25

>  <SCORE>  (66) 
-10.503

>  <name>  (66) 
67

>  <ligand_id>  (66) 
67

>  <original_smiles>  (66) 
[H]C(=O)C([H])([H])N(C(=O)N1C([H])([H])C([H])([H])C([H])([H])C([H])(n2nc(-c3c([H])c([H])c(Oc4c([H])c([H])c(F)c([H])c4F)c([H])c3[H])c(C(=O)N([H])[H])c2N([H])[H])C1([H])[H])C([H])(C([H])([H])[H])C([H])([H])C([H])([H])C([H])([H])C([H])([H])[N+]([H])([H])C([H])([H])C([H])([H])Oc1c([H])c([H])c2c(c1[H])C([H])([H])N(C(=O)C([H])(N([H])C(=O)C([H])(N([H])C([H])([H])[H])C([H])([H])[H])C(C([H])([H])[H])(C([H])([H])[H])C([H])([H])[H])C([H])(C(=O)N([H])C1([H])c3c([H])c([H])c([H])c([H])c3C([H])([H])C([H])([H])C1([H])[H])C2([H])[H]

>  <smiles>  (66) 
[H]C(=O)C([H])([H])N(C(=O)N1C([H])([H])C([H])([H])C([H])([H])C([H])(n2nc(-c3c([H])c([H])c(Oc4c([H])c([H])c(F)c([H])c4F)c([H])c3[H])c(C(=O)N([H])[H])c2N([H])[H])C1([H])[H])C([H])(C([H])([H])[H])C([H])([H])C([H])([H])C([H])([H])C([H])([H])[N+]([H])([H])C([H])([H])C([H])([H])Oc1c([H])c([H])c2c(c1[H])C([H])([H])N(C(=O)C([H])(N([H])C(=O)C([H])(N([H])C([H])([H])[H])C([H])([H])[H])C(C([H])([H])[H])(C([H])([H])[H])C([H])([H])[H])C([H])(C(=O)N([H])C1([H])c3c([H])c([H])c([H])c([H])c3C([H])([H])C([H])([H])C1([H])[H])C2([H])[H]

$$$$
68:0:0
     RDKit          3D

 82 86  0  0  1  0  0  0  0  0999 V2000
  -28.1370  -24.6640   20.2800 O   0  0  0  0  0  1  0  0  0  0  0  0
  -24.7340  -31.8030   23.1520 C   0  0  0  0  0  0  0  0  0  0  0  0
  -27.2260  -26.1590   20.2530 C   0  0  0  0  0  0  0  0  0  0  0  0
  -23.5690  -30.3790   21.5310 C   0  0  0  0  0  3  0  0  0  0  0  0
  -25.0170  -28.5910   20.1720 C   0  0  0  0  0  0  0  0  0  0  0  0
  -26.1690  -30.3340   21.4840 C   0  0  0  0  0  2  0  0  0  0  0  0
  -26.2240  -28.8290   20.8370 C   0  0  0  0  0  0  0  0  0  0  0  0
  -27.2770  -27.6660   20.8260 C   0  0  0  0  0  3  0  0  0  0  0  0
  -25.9790  -26.2970   19.5260 C   0  0  0  0  0  3  0  0  0  0  0  0
  -24.9720  -27.3550   19.4890 C   0  0  0  0  0  3  0  0  0  0  0  0
  -23.8390  -29.6200   20.1890 C   0  0  0  0  0  2  0  0  0  0  0  0
  -24.8570  -30.8880   22.1070 N   0  0  0  0  0  0  0  0  0  0  0  0
  -23.6280  -32.1340   23.6250 O   0  0  0  0  0  0  0  0  0  0  0  0
  -22.7900  -29.4690   22.5260 C   0  0  0  0  0  0  0  0  0  0  0  0
  -21.4500  -29.3540   22.4040 N   0  0  0  0  0  0  0  0  0  0  0  0
  -23.4170  -28.8550   23.3910 O   0  0  0  0  0  0  0  0  0  0  0  0
  -20.9850  -29.8980   21.6910 H   0  0  0  0  0  0  0  0  0  0  0  0
  -18.0430  -28.1630   22.9450 C   0  0  0  0  0  0  0  0  0  0  0  0
  -20.6080  -28.4320   23.1860 C   0  0  0  0  0  3  0  0  0  0  0  0
  -20.6980  -26.9930   22.6240 C   0  0  0  0  0  2  0  0  0  0  0  0
  -19.5930  -26.6710   21.6130 C   0  0  0  0  0  2  0  0  0  0  0  0
  -18.2140  -26.8160   22.2620 C   0  0  0  0  0  2  0  0  0  0  0  0
  -19.1660  -28.9300   23.3620 C   0  0  0  0  0  0  0  0  0  0  0  0
  -18.9450  -30.1830   23.9710 C   0  0  0  0  0  3  0  0  0  0  0  0
  -17.6390  -30.6750   24.1590 C   0  0  0  0  0  3  0  0  0  0  0  0
  -16.5340  -29.9080   23.7510 C   0  0  0  0  0  3  0  0  0  0  0  0
  -16.7360  -28.6540   23.1500 C   0  0  0  0  0  3  0  0  0  0  0  0
  -25.9690  -32.4900   23.8170 C   0  0  0  0  0  3  0  0  0  0  0  0
  -25.6220  -33.8950   24.1490 N   0  0  0  0  0  0  0  0  0  0  0  0
  -25.9300  -34.9760   23.4180 C   0  0  0  0  0  0  0  0  0  0  0  0
  -26.5750  -34.8970   22.3700 O   0  0  0  0  0  0  0  0  0  0  0  0
  -25.0380  -34.0270   24.9630 H   0  0  0  0  0  0  0  0  0  0  0  0
  -24.1650  -36.7690   23.1870 C   0  0  0  0  0  1  0  0  0  0  0  0
  -25.4550  -36.3610   23.9170 C   0  0  0  0  0  3  0  0  0  0  0  0
  -27.6170  -37.2890   24.6380 C   0  0  0  0  0  1  0  0  0  0  0  0
  -26.4650  -37.4330   23.7520 N   0  0  0  0  0  0  0  0  0  0  0  0
  -26.0520  -38.3460   23.9150 H   0  0  0  0  0  0  0  0  0  0  0  0
  -26.4440  -31.7560   25.1340 C   0  0  1  0  0  0  0  0  0  0  0  0
  -25.3190  -31.5450   26.1760 C   0  0  0  0  0  1  0  0  0  0  0  0
  -27.0410  -30.3700   24.8160 C   0  0  0  0  0  1  0  0  0  0  0  0
  -27.5740  -32.5690   25.8090 C   0  0  0  0  0  1  0  0  0  0  0  0
  -28.1770  -22.5590   20.1660 C   0  0  0  0  0 15  0  0  0  0  0  0
  -30.1260  -20.6340   21.3760 C   0  0  0  0  0  1  0  0  0  0  0  0
  -29.1990  -20.4320   20.1740 C   0  0  0  0  0  1  0  0  0  0  0  0
  -29.9420  -16.6970   20.0440 C   0  0  0  0  0  0  0  0  0  0  0  0
  -30.3010  -13.9350   19.2580 C   0  0  0  0  0  2  0  0  0  0  0  0
  -29.5130  -13.0880   18.1740 C   0  0  0  0  0  2  0  0  0  0  0  0
  -28.2060  -12.5100   18.7180 C   0  0  0  0  0  2  0  0  0  0  0  0
  -27.5770  -13.5390   19.6670 C   0  0  0  0  0  3  0  0  0  0  0  0
  -28.5580  -14.2410   20.6770 C   0  0  0  0  0  2  0  0  0  0  0  0
  -29.5240  -15.1680   19.9320 N   0  0  0  0  0  0  0  0  0  0  0  0
  -31.1900  -16.4790   19.9460 O   0  0  0  0  0  0  0  0  0  0  0  0
  -29.2060  -18.3230   20.0940 N   0  0  0  0  0  2  0  0  0  0  0  0
  -28.2220  -18.0840   20.0790 H   0  0  0  0  0  0  0  0  0  0  0  0
  -25.2470  -13.9380   20.5380 C   0  0  0  0  0  0  0  0  0  0  0  0
  -24.2200  -13.1270   20.9200 C   0  0  0  0  0  0  0  0  0  0  0  0
  -24.7160  -11.7890   20.8410 C   0  0  0  0  0  0  0  0  0  0  0  0
  -26.3080  -13.1070   20.2470 N   0  0  0  0  0  0  0  0  0  0  0  0
  -26.0040  -11.7970   20.4800 N   0  0  0  0  0  0  0  0  0  0  0  0
  -24.0070  -10.5110   21.0280 C   0  0  0  0  0  0  0  0  0  0  0  0
  -24.4480   -9.5440   21.9600 C   0  0  0  0  0  3  0  0  0  0  0  0
  -23.7280   -8.3430   22.1460 C   0  0  0  0  0  3  0  0  0  0  0  0
  -22.5510   -8.0970   21.4000 C   0  0  0  0  0  0  0  0  0  0  0  0
  -22.1250   -9.0510   20.4590 C   0  0  0  0  0  3  0  0  0  0  0  0
  -22.8460  -10.2440   20.2730 C   0  0  0  0  0  3  0  0  0  0  0  0
  -21.8040   -6.9470   21.4930 O   0  0  0  0  0  0  0  0  0  0  0  0
  -21.7380   -6.2200   22.6560 C   0  0  0  0  0  0  0  0  0  0  0  0
  -21.2500   -6.7810   23.8570 C   0  0  0  0  0  3  0  0  0  0  0  0
  -21.1340   -5.9820   25.0120 C   0  0  0  0  0  3  0  0  0  0  0  0
  -21.4950   -4.6220   24.9670 C   0  0  0  0  0  0  0  0  0  0  0  0
  -21.9760   -4.0600   23.7710 C   0  0  0  0  0  3  0  0  0  0  0  0
  -22.0930   -4.8570   22.6180 C   0  0  0  0  0  0  0  0  0  0  0  0
  -22.5350   -4.3050   21.4630 F   0  0  0  0  0  0  0  0  0  0  0  0
  -21.3780   -3.8520   26.0750 F   0  0  0  0  0  0  0  0  0  0  0  0
  -22.8250  -13.5770   21.2360 C   0  0  0  0  0  0  0  0  0  0  0  0
  -22.1350  -12.8630   22.1170 N   0  0  0  0  0  0  0  0  0  0  0  0
  -22.3590  -14.6020   20.7400 O   0  0  0  0  0  0  0  0  0  0  0  0
  -22.5290  -12.0350   22.5410 H   0  0  0  0  0  0  0  0  0  0  0  0
  -21.2000  -13.1480   22.3730 H   0  0  0  0  0  0  0  0  0  0  0  0
  -25.3640  -15.3150   20.3750 N   0  0  0  0  0  0  0  0  0  0  0  0
  -24.5810  -15.9440   20.5150 H   0  0  0  0  0  0  0  0  0  0  0  0
  -26.1870  -15.7810   20.0160 H   0  0  0  0  0  0  0  0  0  0  0  0
  2 13  2  0
  3  1  1  0
  3  8  1  0
  4 12  1  0
  4 14  1  0
  5 11  1  0
  5  7  1  0
  6 12  1  0
  7  6  1  0
  8  7  2  0
  9  3  2  0
 10  9  1  0
 10  5  2  0
 11  4  1  0
 12  2  1  0
 14 16  2  0
 15 14  1  0
 17 15  1  0
 18 27  2  0
 18 23  1  0
 19 15  1  0
 19 23  1  0
 20 19  1  0
 21 22  1  0
 21 20  1  0
 22 18  1  0
 23 24  2  0
 24 25  1  0
 26 25  2  0
 27 26  1  0
 28  2  1  0
 28 29  1  0
 28 38  1  0
 29 32  1  0
 30 34  1  0
 30 29  1  0
 31 30  2  0
 34 33  1  0
 36 37  1  0
 36 34  1  0
 36 35  1  0
 38 41  1  1
 38 39  1  0
 40 38  1  0
 44 43  1  0
 45 53  1  0
 46 51  1  0
 47 48  1  0
 47 46  1  0
 49 48  1  0
 49 58  1  0
 49 50  1  0
 51 45  1  0
 51 50  1  0
 52 45  2  0
 54 53  1  0
 55 56  2  0
 56 75  1  0
 57 56  1  0
 57 60  1  0
 58 59  1  0
 58 55  1  0
 59 57  2  0
 60 61  1  0
 61 62  2  0
 63 66  1  0
 63 62  1  0
 64 63  2  0
 65 64  1  0
 65 60  2  0
 66 67  1  0
 67 68  1  0
 68 69  2  0
 70 69  1  0
 70 74  1  0
 71 70  2  0
 72 67  2  0
 72 71  1  0
 73 72  1  0
 75 76  1  0
 76 79  1  0
 76 78  1  0
 77 75  2  0
 80 81  1  0
 80 55  1  0
 82 80  1  0
M  ISO  4   1 101  42 101  45 100  53 100
M  END
>  <TORSDO>  (67) 
F 17

>  <SCORE>  (67) 
-16.272

>  <name>  (67) 
68

>  <ligand_id>  (67) 
68

>  <original_smiles>  (67) 
[H]c1c([H])c([H])c2c(c1[H])C([H])([H])C([H])([H])C([H])([H])C2([H])N([H])C(=O)C1([H])N(C(=O)C([H])(N([H])C(=O)C([H])(N([H])C([H])([H])[H])C([H])([H])[H])C(C([H])([H])[H])(C([H])([H])[H])C([H])([H])[H])C([H])([H])c2c([H])c(OC([H])([H])C([H])(N([H])C(=O)N3C([H])([H])C([H])([H])C([H])([H])C([H])(n4nc(-c5c([H])c([H])c(Oc6c([H])c([H])c(F)c([H])c6F)c([H])c5[H])c(C(=O)N([H])[H])c4N([H])[H])C3([H])[H])C([H])([H])[H])c([H])c([H])c2C1([H])[H]

>  <smiles>  (67) 
[H]c1c([H])c([H])c2c(c1[H])C([H])([H])C([H])([H])C([H])([H])C2([H])N([H])C(=O)C1([H])N(C(=O)C([H])(N([H])C(=O)C([H])(N([H])C([H])([H])[H])C([H])([H])[H])C(C([H])([H])[H])(C([H])([H])[H])C([H])([H])[H])C([H])([H])c2c([H])c(OC([H])([H])C([H])(N([H])C(=O)N3C([H])([H])C([H])([H])C([H])([H])C([H])(n4nc(-c5c([H])c([H])c(Oc6c([H])c([H])c(F)c([H])c6F)c([H])c5[H])c(C(=O)N([H])[H])c4N([H])[H])C3([H])[H])C([H])([H])[H])c([H])c([H])c2C1([H])[H]

$$$$
69:0:0
     RDKit          3D

 95102  0  0  1  0  0  0  0  0999 V2000
  -28.7020  -21.1720   19.9780 C   0  0  0  0  0  3  0  0  0  0  0  0
  -29.3640  -19.8060   20.6390 N   0  0  0  0  0  4  0  0  0  0  0  0
  -30.2830  -20.0760   20.9480 H   0  0  0  0  0  0  0  0  0  0  0  0
  -28.8420  -19.6600   21.4880 H   0  0  0  0  0  0  0  0  0  0  0  0
  -29.5650  -18.3000   19.9820 C   0  0  0  0  0  2  0  0  0  0  0  0
  -29.7020  -16.7160   20.7730 C   0  0  0  0  0  2  0  0  0  0  0  0
  -30.4460  -15.2100   20.3410 C   0  0  0  0  0  0  0  0  0  0  0  0
  -30.4220  -12.7810   19.4490 C   0  0  0  0  0  2  0  0  0  0  0  0
  -29.5170  -12.6500   18.1970 C   0  0  0  0  0  2  0  0  0  0  0  0
  -28.0530  -12.4020   18.6010 C   0  0  0  0  0  2  0  0  0  0  0  0
  -27.6030  -13.3400   19.7500 C   0  0  0  0  0  3  0  0  0  0  0  0
  -28.6360  -13.4260   20.8940 C   0  0  0  0  0  2  0  0  0  0  0  0
  -29.8990  -13.9010   20.3100 N   0  0  0  0  0  0  0  0  0  0  0  0
  -31.6360  -15.2300   20.0000 O   0  0  0  0  0  0  0  0  0  0  0  0
  -25.2120  -13.8980   20.4470 C   0  0  0  0  0  0  0  0  0  0  0  0
  -24.1470  -13.1200   20.8070 C   0  0  0  0  0  0  0  0  0  0  0  0
  -24.6220  -11.7720   20.8040 C   0  0  0  0  0  0  0  0  0  0  0  0
  -26.2640  -13.0260   20.2340 N   0  0  0  0  0  0  0  0  0  0  0  0
  -25.9190  -11.7420   20.5160 N   0  0  0  0  0  0  0  0  0  0  0  0
  -23.8980  -10.5080   20.9980 C   0  0  0  0  0  0  0  0  0  0  0  0
  -24.3160   -9.5550   21.9510 C   0  0  0  0  0  3  0  0  0  0  0  0
  -23.5900   -8.3570   22.1340 C   0  0  0  0  0  3  0  0  0  0  0  0
  -22.4300   -8.1060   21.3620 C   0  0  0  0  0  0  0  0  0  0  0  0
  -22.0300   -9.0500   20.3990 C   0  0  0  0  0  3  0  0  0  0  0  0
  -22.7580  -10.2370   20.2140 C   0  0  0  0  0  3  0  0  0  0  0  0
  -21.6770   -6.9600   21.4530 O   0  0  0  0  0  0  0  0  0  0  0  0
  -21.6100   -6.2310   22.6130 C   0  0  0  0  0  0  0  0  0  0  0  0
  -21.1630   -6.7990   23.8260 C   0  0  0  0  0  3  0  0  0  0  0  0
  -21.0450   -5.9970   24.9780 C   0  0  0  0  0  3  0  0  0  0  0  0
  -21.3640   -4.6270   24.9190 C   0  0  0  0  0  0  0  0  0  0  0  0
  -21.8060   -4.0580   23.7110 C   0  0  0  0  0  3  0  0  0  0  0  0
  -21.9250   -4.8580   22.5600 C   0  0  0  0  0  0  0  0  0  0  0  0
  -22.3300   -4.3010   21.3940 F   0  0  0  0  0  0  0  0  0  0  0  0
  -21.2440   -3.8540   26.0230 F   0  0  0  0  0  0  0  0  0  0  0  0
  -22.7420  -13.5930   21.0430 C   0  0  0  0  0  0  0  0  0  0  0  0
  -21.9990  -12.9050   21.9020 N   0  0  0  0  0  0  0  0  0  0  0  0
  -22.3120  -14.6090   20.4990 O   0  0  0  0  0  0  0  0  0  0  0  0
  -22.3600  -12.0840   22.3650 H   0  0  0  0  0  0  0  0  0  0  0  0
  -21.0550  -13.2060   22.1020 H   0  0  0  0  0  0  0  0  0  0  0  0
  -25.3710  -15.2670   20.2560 N   0  0  0  0  0  0  0  0  0  0  0  0
  -24.5970  -15.9180   20.3410 H   0  0  0  0  0  0  0  0  0  0  0  0
  -26.2200  -15.7060   19.9250 H   0  0  0  0  0  0  0  0  0  0  0  0
  -28.8670  -21.1370   18.4440 C   0  0  0  0  0  2  0  0  0  0  0  0
  -30.3090  -21.3120   17.9370 C   0  0  0  0  0  2  0  0  0  0  0  0
  -30.3730  -21.3580   16.4010 C   0  0  0  0  0  2  0  0  0  0  0  0
  -31.8140  -21.3910   15.8620 C   0  0  0  0  0  2  0  0  0  0  0  0
  -31.8410  -21.5250   14.3880 N   0  0  0  0  0  4  0  0  0  0  0  0
  -31.4490  -22.4260   14.1630 H   0  0  0  0  0  0  0  0  0  0  0  0
  -31.2460  -20.8260   13.9720 H   0  0  0  0  0  0  0  0  0  0  0  0
  -33.1870  -22.1310   12.3960 C   0  0  0  0  0  1  0  0  0  0  0  0
  -33.6760  -19.9930   13.6640 C   0  0  0  0  0  1  0  0  0  0  0  0
  -33.1870  -21.4490   13.7740 C   0  0  0  0  0  3  0  0  0  0  0  0
  -28.8520  -22.8660   20.5110 C   0  0  0  0  0  3  0  0  0  0  0  0
  -27.9900  -24.3490   20.0310 C   0  0  0  0  0  3  0  0  0  0  0  0
  -28.1920  -25.9380   20.3240 O   0  0  0  0  0  0  0  0  0  0  0  0
  -24.6240  -31.8570   23.2340 C   0  0  0  0  0  0  0  0  0  0  0  0
  -27.1740  -27.0080   20.2300 C   0  0  0  0  0  0  0  0  0  0  0  0
  -23.4260  -30.4560   21.6010 C   0  0  0  0  0  3  0  0  0  0  0  0
  -24.8690  -28.8540   20.1790 C   0  0  0  0  0  0  0  0  0  0  0  0
  -25.9870  -30.6790   21.4480 C   0  0  0  0  0  2  0  0  0  0  0  0
  -26.0550  -29.2710   20.7960 C   0  0  0  0  0  0  0  0  0  0  0  0
  -27.2030  -28.3670   20.8000 C   0  0  0  0  0  3  0  0  0  0  0  0
  -25.9620  -26.7300   19.5610 C   0  0  0  0  0  3  0  0  0  0  0  0
  -24.8450  -27.6030   19.5420 C   0  0  0  0  0  3  0  0  0  0  0  0
  -23.6490  -29.7690   20.2260 C   0  0  0  0  0  2  0  0  0  0  0  0
  -24.7000  -31.0230   22.1480 N   0  0  0  0  0  0  0  0  0  0  0  0
  -23.5360  -32.1500   23.7560 O   0  0  0  0  0  0  0  0  0  0  0  0
  -22.7340  -29.4640   22.5710 C   0  0  0  0  0  0  0  0  0  0  0  0
  -21.4030  -29.3000   22.4470 N   0  0  0  0  0  0  0  0  0  0  0  0
  -23.4000  -28.8420   23.4020 O   0  0  0  0  0  0  0  0  0  0  0  0
  -20.9200  -29.8540   21.7530 H   0  0  0  0  0  0  0  0  0  0  0  0
  -18.0200  -28.0970   22.9570 C   0  0  0  0  0  0  0  0  0  0  0  0
  -20.5790  -28.3680   23.2230 C   0  0  0  0  0  3  0  0  0  0  0  0
  -20.6830  -26.9310   22.6580 C   0  0  0  0  0  2  0  0  0  0  0  0
  -19.5820  -26.6010   21.6450 C   0  0  0  0  0  2  0  0  0  0  0  0
  -18.1990  -26.7460   22.2870 C   0  0  0  0  0  2  0  0  0  0  0  0
  -19.1370  -28.8650   23.3820 C   0  0  0  0  0  0  0  0  0  0  0  0
  -18.9120  -30.1280   23.9730 C   0  0  0  0  0  3  0  0  0  0  0  0
  -17.6050  -30.6220   24.1410 C   0  0  0  0  0  3  0  0  0  0  0  0
  -16.5030  -29.8520   23.7290 C   0  0  0  0  0  3  0  0  0  0  0  0
  -16.7120  -28.5920   23.1440 C   0  0  0  0  0  3  0  0  0  0  0  0
  -25.8980  -32.4980   23.8620 C   0  0  0  0  0  3  0  0  0  0  0  0
  -25.5860  -33.9000   24.1880 N   0  0  0  0  0  0  0  0  0  0  0  0
  -25.9200  -34.9570   23.4340 C   0  0  0  0  0  0  0  0  0  0  0  0
  -26.5870  -34.8530   22.4030 O   0  0  0  0  0  0  0  0  0  0  0  0
  -24.9920  -34.0540   24.9890 H   0  0  0  0  0  0  0  0  0  0  0  0
  -24.1970  -36.7620   23.0940 C   0  0  0  0  0  1  0  0  0  0  0  0
  -25.4410  -36.3480   23.8980 C   0  0  0  0  0  3  0  0  0  0  0  0
  -27.5820  -37.2280   24.7190 C   0  0  0  0  0  1  0  0  0  0  0  0
  -26.4770  -37.3990   23.7790 N   0  0  0  0  0  0  0  0  0  0  0  0
  -26.0740  -38.3200   23.9270 H   0  0  0  0  0  0  0  0  0  0  0  0
  -26.4010  -31.7400   25.1530 C   0  0  1  0  0  0  0  0  0  0  0  0
  -25.3010  -31.5220   26.2180 C   0  0  0  0  0  1  0  0  0  0  0  0
  -26.9790  -30.3530   24.7900 C   0  0  0  0  0  1  0  0  0  0  0  0
  -27.5510  -32.5360   25.8120 C   0  0  0  0  0  1  0  0  0  0  0  0
  1 43  1  0
  1 53  1  0
  1  2  1  0
  2  3  1  0
  2  4  1  0
  5  2  1  0
  5  6  1  0
  7  6  1  0
  8 13  1  0
  9 10  1  0
  9  8  1  0
 11 10  1  0
 11 18  1  0
 11 12  1  0
 13  7  1  0
 13 12  1  0
 14  7  2  0
 15 16  2  0
 16 35  1  0
 17 16  1  0
 17 20  1  0
 18 15  1  0
 18 19  1  0
 19 17  2  0
 20 21  1  0
 21 22  2  0
 23 26  1  0
 23 22  1  0
 24 23  2  0
 25 24  1  0
 25 20  2  0
 26 27  1  0
 27 28  1  0
 28 29  2  0
 30 29  1  0
 30 34  1  0
 31 30  2  0
 32 27  2  0
 32 31  1  0
 33 32  1  0
 35 36  1  0
 36 39  1  0
 36 38  1  0
 37 35  2  0
 40 41  1  0
 40 15  1  0
 42 40  1  0
 44 43  1  0
 45 44  1  0
 46 45  1  0
 47 46  1  0
 48 47  1  0
 49 47  1  0
 50 52  1  0
 51 52  1  0
 52 47  1  0
 54 55  1  0
 54 53  2  0
 56 67  2  0
 57 55  1  0
 57 62  1  0
 58 66  1  0
 58 68  1  0
 59 65  1  0
 59 61  1  0
 60 66  1  0
 61 62  2  0
 61 60  1  0
 63 57  2  0
 64 63  1  0
 64 59  2  0
 65 58  1  0
 66 56  1  0
 68 70  2  0
 69 68  1  0
 71 69  1  0
 72 81  2  0
 72 77  1  0
 73 69  1  0
 73 77  1  0
 74 73  1  0
 75 76  1  0
 75 74  1  0
 76 72  1  0
 77 78  2  0
 78 79  1  0
 80 79  2  0
 81 80  1  0
 82 56  1  0
 82 83  1  0
 82 92  1  0
 83 86  1  0
 84 88  1  0
 84 83  1  0
 85 84  2  0
 88 87  1  0
 90 88  1  0
 90 91  1  0
 90 89  1  0
 92 95  1  1
 92 93  1  0
 94 92  1  0
M  ISO  4   6 100   7 100  54 101  55 101
M  END
>  <TORSDO>  (68) 
F 27

>  <SCORE>  (68) 
-12.940

>  <name>  (68) 
69

>  <ligand_id>  (68) 
69

>  <original_smiles>  (68) 
[H]c1c([H])c([H])c2c(c1[H])C([H])([H])C([H])([H])C([H])([H])C2([H])N([H])C(=O)C1([H])N(C(=O)C([H])(N([H])C(=O)C([H])(N([H])C([H])([H])[H])C([H])([H])[H])C(C([H])([H])[H])(C([H])([H])[H])C([H])([H])[H])C([H])([H])c2c([H])c(OC([H])([H])C([H])([H])C([H])(C([H])([H])C([H])([H])C([H])([H])C([H])([H])[N+]([H])([H])C([H])(C([H])([H])[H])C([H])([H])[H])[N+]([H])([H])C([H])([H])C([H])([H])C(=O)N3C([H])([H])C([H])([H])C([H])([H])C([H])(n4nc(-c5c([H])c([H])c(Oc6c([H])c([H])c(F)c([H])c6F)c([H])c5[H])c(C(=O)N([H])[H])c4N([H])[H])C3([H])[H])c([H])c([H])c2C1([H])[H]

>  <smiles>  (68) 
[H]c1c([H])c([H])c2c(c1[H])C([H])([H])C([H])([H])C([H])([H])C2([H])N([H])C(=O)C1([H])N(C(=O)C([H])(N([H])C(=O)C([H])(N([H])C([H])([H])[H])C([H])([H])[H])C(C([H])([H])[H])(C([H])([H])[H])C([H])([H])[H])C([H])([H])c2c([H])c(OC([H])([H])C([H])([H])C([H])(C([H])([H])C([H])([H])C([H])([H])C([H])([H])[N+]([H])([H])C([H])(C([H])([H])[H])C([H])([H])[H])[N+]([H])([H])C([H])([H])C([H])([H])C(=O)N3C([H])([H])C([H])([H])C([H])([H])C([H])(n4nc(-c5c([H])c([H])c(Oc6c([H])c([H])c(F)c([H])c6F)c([H])c5[H])c(C(=O)N([H])[H])c4N([H])[H])C3([H])[H])c([H])c([H])c2C1([H])[H]

$$$$
70:0:0
     RDKit          3D

103111  0  0  1  0  0  0  0  0999 V2000
  -28.4110  -24.0470   17.8230 C   0  0  0  0  0  3  0  0  0  0  0  0
  -30.3680  -22.5750   17.1730 C   0  0  0  0  0  1  0  0  0  0  0  0
  -28.9680  -22.5900   17.8080 C   0  0  0  0  0  3  0  0  0  0  0  0
  -29.0150  -21.9610   19.1580 N   0  0  0  0  0  4  0  0  0  0  0  0
  -29.7520  -21.2740   19.1670 H   0  0  0  0  0  0  0  0  0  0  0  0
  -29.2650  -22.6980   19.8040 H   0  0  0  0  0  0  0  0  0  0  0  0
  -27.7700  -21.3080   19.6330 C   0  0  0  0  0  2  0  0  0  0  0  0
  -27.9930  -20.3230   20.8140 C   0  0  0  0  0  2  0  0  0  0  0  0
  -28.3100  -18.2930   19.3170 C   0  0  0  0  0  3  0  0  0  0  0  0
  -29.7330  -18.4960   21.2750 C   0  0  0  0  0  3  0  0  0  0  0  0
  -28.9480  -17.0890   18.9860 C   0  0  0  0  0  3  0  0  0  0  0  0
  -30.3910  -17.2910   20.9300 C   0  0  0  0  0  3  0  0  0  0  0  0
  -28.7110  -19.0240   20.4520 C   0  0  0  0  0  0  0  0  0  0  0  0
  -30.0180  -16.5880   19.7560 C   0  0  0  0  0  0  0  0  0  0  0  0
  -31.3220  -14.4830   19.9710 C   0  0  0  0  0  0  0  0  0  0  0  0
  -30.8810  -12.2880   19.0150 C   0  0  0  0  0  2  0  0  0  0  0  0
  -29.9150  -12.4770   17.8290 C   0  0  0  0  0  2  0  0  0  0  0  0
  -28.4500  -12.4680   18.2990 C   0  0  0  0  0  2  0  0  0  0  0  0
  -28.1790  -13.3550   19.5450 C   0  0  0  0  0  3  0  0  0  0  0  0
  -29.2700  -13.1770   20.6260 C   0  0  0  0  0  2  0  0  0  0  0  0
  -30.5790  -13.3460   19.9850 N   0  0  0  0  0  0  0  0  0  0  0  0
  -32.5530  -14.4710   19.9790 O   0  0  0  0  0  0  0  0  0  0  0  0
  -31.3160  -15.7040   17.8940 C   0  0  0  0  0  1  0  0  0  0  0  0
  -30.7380  -15.4660   19.2350 N   0  0  0  0  0  0  0  0  0  0  0  0
  -25.8440  -14.0740   20.3500 C   0  0  0  0  0  0  0  0  0  0  0  0
  -24.7370  -13.3510   20.7120 C   0  0  0  0  0  0  0  0  0  0  0  0
  -25.1180  -11.9770   20.6320 C   0  0  0  0  0  0  0  0  0  0  0  0
  -26.8310  -13.1410   20.0710 N   0  0  0  0  0  0  0  0  0  0  0  0
  -26.3980  -11.8730   20.3020 N   0  0  0  0  0  0  0  0  0  0  0  0
  -24.3180  -10.7530   20.7980 C   0  0  0  0  0  0  0  0  0  0  0  0
  -24.6830   -9.7570   21.7300 C   0  0  0  0  0  3  0  0  0  0  0  0
  -23.8920   -8.6000   21.8890 C   0  0  0  0  0  3  0  0  0  0  0  0
  -22.7210   -8.4280   21.1140 C   0  0  0  0  0  0  0  0  0  0  0  0
  -22.3700   -9.4120   20.1700 C   0  0  0  0  0  3  0  0  0  0  0  0
  -23.1640  -10.5630   20.0100 C   0  0  0  0  0  3  0  0  0  0  0  0
  -21.9140   -7.3180   21.1770 O   0  0  0  0  0  0  0  0  0  0  0  0
  -21.7700   -6.5950   22.3350 C   0  0  0  0  0  0  0  0  0  0  0  0
  -21.3150   -7.1900   23.5300 C   0  0  0  0  0  3  0  0  0  0  0  0
  -21.1120   -6.4010   24.6790 C   0  0  0  0  0  3  0  0  0  0  0  0
  -21.3560   -5.0150   24.6320 C   0  0  0  0  0  0  0  0  0  0  0  0
  -21.8000   -4.4180   23.4400 C   0  0  0  0  0  3  0  0  0  0  0  0
  -22.0050   -5.2070   22.2930 C   0  0  0  0  0  0  0  0  0  0  0  0
  -22.4130   -4.6200   21.1430 F   0  0  0  0  0  0  0  0  0  0  0  0
  -21.1490   -4.2520   25.7320 F   0  0  0  0  0  0  0  0  0  0  0  0
  -23.3760  -13.9030   21.0240 C   0  0  0  0  0  0  0  0  0  0  0  0
  -22.6300  -13.2280   21.8920 N   0  0  0  0  0  0  0  0  0  0  0  0
  -22.9800  -14.9560   20.5290 O   0  0  0  0  0  0  0  0  0  0  0  0
  -22.9620  -12.3670   22.3020 H   0  0  0  0  0  0  0  0  0  0  0  0
  -21.7150  -13.5710   22.1450 H   0  0  0  0  0  0  0  0  0  0  0  0
  -26.0790  -15.4370   20.2110 N   0  0  0  0  0  0  0  0  0  0  0  0
  -25.3430  -16.1190   20.3500 H   0  0  0  0  0  0  0  0  0  0  0  0
  -26.9600  -15.8560   19.9290 H   0  0  0  0  0  0  0  0  0  0  0  0
  -28.4830  -24.6300   19.1670 N   0  0  0  0  0  0  0  0  0  0  0  0
  -27.5780  -24.5760   19.6250 H   0  0  0  0  0  0  0  0  0  0  0  0
  -28.9960  -25.9840   19.1940 C   0  0  0  0  0  2  0  0  0  0  0  0
  -28.6430  -26.6720   20.3530 O   0  0  0  0  0  0  0  0  0  0  0  0
  -24.7130  -31.7900   23.3500 C   0  0  0  0  0  0  0  0  0  0  0  0
  -27.4500  -27.3630   20.3380 C   0  0  0  0  0  0  0  0  0  0  0  0
  -23.5540  -30.3890   21.6740 C   0  0  0  0  0  3  0  0  0  0  0  0
  -25.0520  -28.8570   20.2920 C   0  0  0  0  0  0  0  0  0  0  0  0
  -26.0860  -30.7480   21.5550 C   0  0  0  0  0  2  0  0  0  0  0  0
  -26.1880  -29.3770   20.9210 C   0  0  0  0  0  0  0  0  0  0  0  0
  -27.3850  -28.6300   20.9600 C   0  0  0  0  0  3  0  0  0  0  0  0
  -26.2850  -26.8500   19.7220 C   0  0  0  0  0  3  0  0  0  0  0  0
  -25.0940  -27.5900   19.6920 C   0  0  0  0  0  3  0  0  0  0  0  0
  -23.7970  -29.7000   20.3050 C   0  0  0  0  0  2  0  0  0  0  0  0
  -24.8000  -30.9890   22.2500 N   0  0  0  0  0  0  0  0  0  0  0  0
  -23.6140  -32.0650   23.8520 O   0  0  0  0  0  0  0  0  0  0  0  0
  -22.8730  -29.3690   22.6120 C   0  0  0  0  0  0  0  0  0  0  0  0
  -21.5580  -29.1690   22.4220 N   0  0  0  0  0  0  0  0  0  0  0  0
  -23.5260  -28.7530   23.4590 O   0  0  0  0  0  0  0  0  0  0  0  0
  -21.0930  -29.7160   21.7110 H   0  0  0  0  0  0  0  0  0  0  0  0
  -18.1800  -27.9380   22.7400 C   0  0  0  0  0  0  0  0  0  0  0  0
  -20.7140  -28.2290   23.1550 C   0  0  0  0  0  3  0  0  0  0  0  0
  -20.8680  -26.7930   22.6010 C   0  0  0  0  0  2  0  0  0  0  0  0
  -19.8290  -26.4440   21.5300 C   0  0  0  0  0  2  0  0  0  0  0  0
  -18.4100  -26.5810   22.0940 C   0  0  0  0  0  2  0  0  0  0  0  0
  -19.2630  -28.7180   23.2220 C   0  0  0  0  0  0  0  0  0  0  0  0
  -18.9990  -29.9880   23.7780 C   0  0  0  0  0  3  0  0  0  0  0  0
  -17.6820  -30.4790   23.8570 C   0  0  0  0  0  3  0  0  0  0  0  0
  -16.6110  -29.6930   23.3980 C   0  0  0  0  0  3  0  0  0  0  0  0
  -16.8600  -28.4240   22.8460 C   0  0  0  0  0  3  0  0  0  0  0  0
  -25.9790  -32.4160   24.0100 C   0  0  0  0  0  3  0  0  0  0  0  0
  -26.4220  -31.6760   25.3290 C   0  0  1  0  0  0  0  0  0  0  0  0
  -25.2760  -31.4860   26.3480 C   0  0  0  0  0  1  0  0  0  0  0  0
  -26.9990  -30.2800   25.0010 C   0  0  0  0  0  1  0  0  0  0  0  0
  -27.5530  -32.4740   26.0200 C   0  0  0  0  0  1  0  0  0  0  0  0
  -25.6810  -33.8270   24.2800 N   0  0  0  0  0  0  0  0  0  0  0  0
  -26.0600  -34.8470   23.4990 C   0  0  0  0  0  0  0  0  0  0  0  0
  -26.7640  -34.7000   22.4970 O   0  0  0  0  0  0  0  0  0  0  0  0
  -25.0610  -34.0210   25.0520 H   0  0  0  0  0  0  0  0  0  0  0  0
  -24.3650  -36.6420   23.0290 C   0  0  0  0  0  1  0  0  0  0  0  0
  -25.5760  -36.2540   23.8940 C   0  0  0  0  0  3  0  0  0  0  0  0
  -27.6930  -37.1380   24.7630 C   0  0  0  0  0  1  0  0  0  0  0  0
  -26.6220  -37.2940   23.7820 N   0  0  0  0  0  0  0  0  0  0  0  0
  -26.2220  -38.2210   23.8960 H   0  0  0  0  0  0  0  0  0  0  0  0
  -27.0230  -24.2390   17.1420 C   0  0  0  0  0  2  0  0  0  0  0  0
  -27.0500  -25.3300   16.1380 N   0  0  0  0  0  4  0  0  0  0  0  0
  -27.5700  -24.9940   15.3400 H   0  0  0  0  0  0  0  0  0  0  0  0
  -27.5470  -26.1300   16.4980 H   0  0  0  0  0  0  0  0  0  0  0  0
  -25.9100  -26.6050   14.3540 C   0  0  0  0  0  1  0  0  0  0  0  0
  -24.9300  -26.5450   16.6890 C   0  0  0  0  0  1  0  0  0  0  0  0
  -25.7310  -25.7670   15.6280 C   0  0  0  0  0  3  0  0  0  0  0  0
  1 97  1  0
  1 53  1  0
  3  2  1  0
  3  1  1  0
  3  4  1  0
  4  5  1  0
  4  7  1  0
  4  6  1  0
  7  8  1  0
  9 13  1  0
 11  9  2  0
 11 14  1  0
 12 10  1  0
 13  8  1  0
 13 10  2  0
 14 12  2  0
 15 22  2  0
 15 21  1  0
 16 21  1  0
 17 18  1  0
 17 16  1  0
 19 18  1  0
 19 28  1  0
 19 20  1  0
 21 20  1  0
 23 24  1  0
 24 14  1  0
 24 15  1  0
 25 26  2  0
 26 45  1  0
 27 26  1  0
 27 30  1  0
 28 29  1  0
 28 25  1  0
 29 27  2  0
 30 31  1  0
 31 32  2  0
 33 36  1  0
 33 32  1  0
 34 33  2  0
 35 34  1  0
 35 30  2  0
 36 37  1  0
 37 38  1  0
 38 39  2  0
 40 39  1  0
 40 44  1  0
 41 40  2  0
 42 37  2  0
 42 41  1  0
 43 42  1  0
 45 46  1  0
 46 49  1  0
 46 48  1  0
 47 45  2  0
 50 25  1  0
 50 51  1  0
 52 50  1  0
 53 55  1  0
 53 54  1  0
 55 56  1  0
 57 68  2  0
 58 56  1  0
 58 63  1  0
 59 67  1  0
 59 69  1  0
 60 66  1  0
 60 62  1  0
 61 67  1  0
 62 63  2  0
 62 61  1  0
 64 58  2  0
 65 64  1  0
 65 60  2  0
 66 59  1  0
 67 57  1  0
 69 71  2  0
 70 69  1  0
 72 70  1  0
 73 82  2  0
 73 78  1  0
 74 70  1  0
 74 78  1  0
 75 74  1  0
 76 77  1  0
 76 75  1  0
 77 73  1  0
 78 79  2  0
 79 80  1  0
 81 80  2  0
 82 81  1  0
 83 57  1  0
 83 88  1  0
 83 84  1  0
 84 87  1  1
 84 85  1  0
 86 84  1  0
 88 91  1  0
 89 93  1  0
 89 88  1  0
 90 89  2  0
 93 92  1  0
 95 93  1  0
 95 96  1  0
 95 94  1  0
 98100  1  0
 98 97  1  0
 99 98  1  0
101103  1  0
103 98  1  0
103102  1  0
M  ISO  4  15 100  24 100  55 101  56 101
M  END
>  <TORSDO>  (69) 
F 26

>  <SCORE>  (69) 
-11.176

>  <name>  (69) 
70

>  <ligand_id>  (69) 
70

>  <original_smiles>  (69) 
[H]c1c([H])c([H])c2c(c1[H])C([H])([H])C([H])([H])C([H])([H])C2([H])N([H])C(=O)C1([H])N(C(=O)C([H])(N([H])C(=O)C([H])(N([H])C([H])([H])[H])C([H])([H])[H])C(C([H])([H])[H])(C([H])([H])[H])C([H])([H])[H])C([H])([H])c2c([H])c(OC([H])([H])N([H])C([H])(C([H])([H])[N+]([H])([H])C([H])(C([H])([H])[H])C([H])([H])[H])C([H])(C([H])([H])[H])[N+]([H])([H])C([H])([H])C([H])([H])c3c([H])c([H])c(N(C(=O)N4C([H])([H])C([H])([H])C([H])([H])C([H])(n5nc(-c6c([H])c([H])c(Oc7c([H])c([H])c(F)c([H])c7F)c([H])c6[H])c(C(=O)N([H])[H])c5N([H])[H])C4([H])[H])C([H])([H])[H])c([H])c3[H])c([H])c([H])c2C1([H])[H]

>  <smiles>  (69) 
[H]c1c([H])c([H])c2c(c1[H])C([H])([H])C([H])([H])C([H])([H])C2([H])N([H])C(=O)C1([H])N(C(=O)C([H])(N([H])C(=O)C([H])(N([H])C([H])([H])[H])C([H])([H])[H])C(C([H])([H])[H])(C([H])([H])[H])C([H])([H])[H])C([H])([H])c2c([H])c(OC([H])([H])N([H])C([H])(C([H])([H])[N+]([H])([H])C([H])(C([H])([H])[H])C([H])([H])[H])C([H])(C([H])([H])[H])[N+]([H])([H])C([H])([H])C([H])([H])c3c([H])c([H])c(N(C(=O)N4C([H])([H])C([H])([H])C([H])([H])C([H])(n5nc(-c6c([H])c([H])c(Oc7c([H])c([H])c(F)c([H])c7F)c([H])c6[H])c(C(=O)N([H])[H])c5N([H])[H])C4([H])[H])C([H])([H])[H])c([H])c3[H])c([H])c([H])c2C1([H])[H]

$$$$
71:0:0
     RDKit          3D

 96103  0  0  1  0  0  0  0  0999 V2000
  -28.9550  -21.9300   20.6500 C   0  0  0  0  0  3  0  0  0  0  0  0
  -28.8370  -23.3300   19.8930 N   0  0  0  0  0  4  0  0  0  0  0  0
  -29.7820  -23.6160   19.6960 H   0  0  0  0  0  0  0  0  0  0  0  0
  -28.4300  -23.1280   18.9950 H   0  0  0  0  0  0  0  0  0  0  0  0
  -27.9650  -24.7220   20.5880 C   0  0  0  0  0  2  0  0  0  0  0  0
  -28.2770  -26.1650   20.1650 O   0  0  0  0  0  0  0  0  0  0  0  0
  -24.6250  -31.8820   23.1840 C   0  0  0  0  0  0  0  0  0  0  0  0
  -27.2220  -27.1550   20.1650 C   0  0  0  0  0  0  0  0  0  0  0  0
  -23.4340  -30.4760   21.5500 C   0  0  0  0  0  3  0  0  0  0  0  0
  -24.8870  -28.8960   20.1330 C   0  0  0  0  0  0  0  0  0  0  0  0
  -25.9860  -30.7370   21.3950 C   0  0  0  0  0  2  0  0  0  0  0  0
  -26.0640  -29.3410   20.7500 C   0  0  0  0  0  0  0  0  0  0  0  0
  -27.2310  -28.4870   20.7520 C   0  0  0  0  0  3  0  0  0  0  0  0
  -26.0220  -26.8200   19.5040 C   0  0  0  0  0  3  0  0  0  0  0  0
  -24.8800  -27.6490   19.4950 C   0  0  0  0  0  3  0  0  0  0  0  0
  -23.6580  -29.7910   20.1760 C   0  0  0  0  0  2  0  0  0  0  0  0
  -24.7010  -31.0540   22.0960 N   0  0  0  0  0  0  0  0  0  0  0  0
  -23.5380  -32.1660   23.7100 O   0  0  0  0  0  0  0  0  0  0  0  0
  -22.7540  -29.4720   22.5150 C   0  0  0  0  0  0  0  0  0  0  0  0
  -21.4270  -29.3000   22.3860 N   0  0  0  0  0  0  0  0  0  0  0  0
  -23.4240  -28.8510   23.3450 O   0  0  0  0  0  0  0  0  0  0  0  0
  -20.9420  -29.8450   21.6880 H   0  0  0  0  0  0  0  0  0  0  0  0
  -18.0500  -28.0780   22.8740 C   0  0  0  0  0  0  0  0  0  0  0  0
  -20.6050  -28.3640   23.1600 C   0  0  0  0  0  3  0  0  0  0  0  0
  -20.7230  -26.9270   22.6010 C   0  0  0  0  0  2  0  0  0  0  0  0
  -19.6320  -26.5840   21.5830 C   0  0  0  0  0  2  0  0  0  0  0  0
  -18.2430  -26.7250   22.2120 C   0  0  0  0  0  2  0  0  0  0  0  0
  -19.1580  -28.8550   23.3040 C   0  0  0  0  0  0  0  0  0  0  0  0
  -18.9240  -30.1200   23.8840 C   0  0  0  0  0  3  0  0  0  0  0  0
  -17.6130  -30.6120   24.0350 C   0  0  0  0  0  3  0  0  0  0  0  0
  -16.5180  -29.8320   23.6210 C   0  0  0  0  0  3  0  0  0  0  0  0
  -16.7370  -28.5680   23.0470 C   0  0  0  0  0  3  0  0  0  0  0  0
  -25.9010  -32.5230   23.8080 C   0  0  0  0  0  3  0  0  0  0  0  0
  -26.4170  -31.7530   25.0880 C   0  0  1  0  0  0  0  0  0  0  0  0
  -25.3220  -31.5120   26.1530 C   0  0  0  0  0  1  0  0  0  0  0  0
  -27.0040  -30.3750   24.7030 C   0  0  0  0  0  1  0  0  0  0  0  0
  -27.5670  -32.5490   25.7500 C   0  0  0  0  0  1  0  0  0  0  0  0
  -25.5840  -33.9190   24.1470 N   0  0  0  0  0  0  0  0  0  0  0  0
  -25.9090  -34.9810   23.3980 C   0  0  0  0  0  0  0  0  0  0  0  0
  -26.5770  -34.8860   22.3650 O   0  0  0  0  0  0  0  0  0  0  0  0
  -24.9910  -34.0650   24.9510 H   0  0  0  0  0  0  0  0  0  0  0  0
  -24.1730  -36.7700   23.0600 C   0  0  0  0  0  1  0  0  0  0  0  0
  -25.4180  -36.3640   23.8660 C   0  0  0  0  0  3  0  0  0  0  0  0
  -27.5500  -37.2510   24.6990 C   0  0  0  0  0  1  0  0  0  0  0  0
  -26.4460  -37.4240   23.7600 N   0  0  0  0  0  0  0  0  0  0  0  0
  -26.0370  -38.3410   23.9190 H   0  0  0  0  0  0  0  0  0  0  0  0
  -28.7940  -20.3660   19.9750 C   0  0  0  0  0  2  0  0  0  0  0  0
  -30.9120  -19.1320   19.1350 C   0  0  0  0  0  3  0  0  0  0  0  0
  -29.8240  -19.0580   19.9280 C   0  0  0  0  0  0  0  0  0  0  0  0
  -31.3430  -20.3050   18.2680 C   0  0  0  0  0  2  0  0  0  0  0  0
  -33.1320  -22.0640   17.8600 C   0  0  0  0  0  1  0  0  0  0  0  0
  -32.6480  -20.9370   18.7760 C   0  0  0  0  0  2  0  0  0  0  0  0
  -29.6890  -17.6340   20.7500 C   0  0  0  0  0  2  0  0  0  0  0  0
  -30.4770  -14.9800   20.2020 C   0  0  0  0  0  0  0  0  0  0  0  0
  -30.3700  -12.6260   19.2550 C   0  0  0  0  0  2  0  0  0  0  0  0
  -29.4030  -12.5890   18.0510 C   0  0  0  0  0  2  0  0  0  0  0  0
  -27.9490  -12.3770   18.5160 C   0  0  0  0  0  2  0  0  0  0  0  0
  -27.5720  -13.2800   19.7180 C   0  0  0  0  0  3  0  0  0  0  0  0
  -28.6600  -13.2840   20.8110 C   0  0  0  0  0  2  0  0  0  0  0  0
  -29.9000  -13.7140   20.1490 N   0  0  0  0  0  0  0  0  0  0  0  0
  -31.6950  -15.0660   20.0200 O   0  0  0  0  0  0  0  0  0  0  0  0
  -29.6430  -16.1330   20.2240 N   0  0  0  0  0  0  0  0  0  0  0  0
  -28.6860  -15.8380   20.0910 H   0  0  0  0  0  0  0  0  0  0  0  0
  -25.2030  -13.8580   20.4990 C   0  0  0  0  0  0  0  0  0  0  0  0
  -24.1470  -13.0840   20.8870 C   0  0  0  0  0  0  0  0  0  0  0  0
  -24.6130  -11.7340   20.8480 C   0  0  0  0  0  0  0  0  0  0  0  0
  -26.2440  -12.9830   20.2450 N   0  0  0  0  0  0  0  0  0  0  0  0
  -25.8990  -11.6990   20.5160 N   0  0  0  0  0  0  0  0  0  0  0  0
  -23.8920  -10.4680   21.0430 C   0  0  0  0  0  0  0  0  0  0  0  0
  -24.3470   -9.4930   21.9600 C   0  0  0  0  0  3  0  0  0  0  0  0
  -23.6250   -8.2950   22.1460 C   0  0  0  0  0  3  0  0  0  0  0  0
  -22.4350   -8.0620   21.4140 C   0  0  0  0  0  0  0  0  0  0  0  0
  -22.0020   -9.0230   20.4830 C   0  0  0  0  0  3  0  0  0  0  0  0
  -22.7260  -10.2140   20.2940 C   0  0  0  0  0  3  0  0  0  0  0  0
  -21.6860   -6.9140   21.5070 O   0  0  0  0  0  0  0  0  0  0  0  0
  -21.6610   -6.1570   22.6510 C   0  0  0  0  0  0  0  0  0  0  0  0
  -21.2720   -6.7020   23.8940 C   0  0  0  0  0  3  0  0  0  0  0  0
  -21.1990   -5.8760   25.0320 C   0  0  0  0  0  3  0  0  0  0  0  0
  -21.5060   -4.5060   24.9290 C   0  0  0  0  0  0  0  0  0  0  0  0
  -21.8910   -3.9600   23.6920 C   0  0  0  0  0  3  0  0  0  0  0  0
  -21.9650   -4.7830   22.5550 C   0  0  0  0  0  0  0  0  0  0  0  0
  -22.3160   -4.2500   21.3600 F   0  0  0  0  0  0  0  0  0  0  0  0
  -21.4270   -3.7110   26.0220 F   0  0  0  0  0  0  0  0  0  0  0  0
  -22.7520  -13.5550   21.1790 C   0  0  0  0  0  0  0  0  0  0  0  0
  -22.0420  -12.8510   22.0530 N   0  0  0  0  0  0  0  0  0  0  0  0
  -22.3010  -14.5810   20.6700 O   0  0  0  0  0  0  0  0  0  0  0  0
  -22.4220  -12.0200   22.4800 H   0  0  0  0  0  0  0  0  0  0  0  0
  -21.1080  -13.1470   22.3010 H   0  0  0  0  0  0  0  0  0  0  0  0
  -25.3680  -15.2310   20.3130 N   0  0  0  0  0  0  0  0  0  0  0  0
  -24.6130  -15.8990   20.4200 H   0  0  0  0  0  0  0  0  0  0  0  0
  -26.1980  -15.6460   19.9190 H   0  0  0  0  0  0  0  0  0  0  0  0
  -30.0460  -21.9740   21.7520 C   0  0  0  0  0  2  0  0  0  0  0  0
  -29.4330  -22.0710   23.0790 N   0  0  0  0  0  0  0  0  0  0  0  0
  -28.9400  -22.9590   23.1670 H   0  0  0  0  0  0  0  0  0  0  0  0
  -30.9420  -20.5470   24.3240 C   0  0  0  0  0  1  0  0  0  0  0  0
  -30.3820  -21.9720   24.1830 C   0  0  0  0  0  2  0  0  0  0  0  0
  1 47  1  0
  1 92  1  0
  2  5  1  0
  2  1  1  0
  3  2  1  0
  4  2  1  0
  6  5  1  0
  7 18  2  0
  8  6  1  0
  8 13  1  0
  9 17  1  0
  9 19  1  0
 10 16  1  0
 10 12  1  0
 11 17  1  0
 12 13  2  0
 12 11  1  0
 14  8  2  0
 15 14  1  0
 15 10  2  0
 16  9  1  0
 17  7  1  0
 19 21  2  0
 20 19  1  0
 22 20  1  0
 23 32  2  0
 23 28  1  0
 24 20  1  0
 24 28  1  0
 25 24  1  0
 26 27  1  0
 26 25  1  0
 27 23  1  0
 28 29  2  0
 29 30  1  0
 31 30  2  0
 32 31  1  0
 33  7  1  0
 33 38  1  0
 33 34  1  0
 34 37  1  1
 34 35  1  0
 36 34  1  0
 38 41  1  0
 39 43  1  0
 39 38  1  0
 40 39  2  0
 43 42  1  0
 45 43  1  0
 45 46  1  0
 45 44  1  0
 48 49  2  0
 49 47  1  0
 49 53  1  0
 50 52  1  0
 50 48  1  0
 51 52  1  0
 54 62  1  0
 55 60  1  0
 56 57  1  0
 56 55  1  0
 58 57  1  0
 58 67  1  0
 58 59  1  0
 60 54  1  0
 60 59  1  0
 61 54  2  0
 62 53  1  0
 63 62  1  0
 64 65  2  0
 65 84  1  0
 66 65  1  0
 66 69  1  0
 67 64  1  0
 67 68  1  0
 68 66  2  0
 69 70  1  0
 70 71  2  0
 72 75  1  0
 72 71  1  0
 73 72  2  0
 74 73  1  0
 74 69  2  0
 75 76  1  0
 76 77  1  0
 77 78  2  0
 79 78  1  0
 79 83  1  0
 80 79  2  0
 81 76  2  0
 81 80  1  0
 82 81  1  0
 84 85  1  0
 85 88  1  0
 85 87  1  0
 86 84  2  0
 89 90  1  0
 89 64  1  0
 91 89  1  0
 92 93  1  0
 93 94  1  0
 93 96  1  0
 96 95  1  0
M  ISO  4   5 101   6 101  54 100  62 100
M  END
>  <TORSDO>  (70) 
F 26

>  <SCORE>  (70) 
-13.617

>  <name>  (70) 
71

>  <ligand_id>  (70) 
71

>  <original_smiles>  (70) 
[H]C(=C(C([H])([H])N([H])C(=O)N1C([H])([H])C([H])([H])C([H])([H])C([H])(n2nc(-c3c([H])c([H])c(Oc4c([H])c([H])c(F)c([H])c4F)c([H])c3[H])c(C(=O)N([H])[H])c2N([H])[H])C1([H])[H])C([H])([H])C([H])(C([H])([H])N([H])C([H])([H])C([H])([H])[H])[N+]([H])([H])C([H])([H])Oc1c([H])c([H])c2c(c1[H])C([H])([H])N(C(=O)C([H])(N([H])C(=O)C([H])(N([H])C([H])([H])[H])C([H])([H])[H])C(C([H])([H])[H])(C([H])([H])[H])C([H])([H])[H])C([H])(C(=O)N([H])C1([H])c3c([H])c([H])c([H])c([H])c3C([H])([H])C([H])([H])C1([H])[H])C2([H])[H])C([H])([H])C([H])([H])C([H])([H])[H]

>  <smiles>  (70) 
[H]C(=C(C([H])([H])N([H])C(=O)N1C([H])([H])C([H])([H])C([H])([H])C([H])(n2nc(-c3c([H])c([H])c(Oc4c([H])c([H])c(F)c([H])c4F)c([H])c3[H])c(C(=O)N([H])[H])c2N([H])[H])C1([H])[H])C([H])([H])C([H])(C([H])([H])N([H])C([H])([H])C([H])([H])[H])[N+]([H])([H])C([H])([H])Oc1c([H])c([H])c2c(c1[H])C([H])([H])N(C(=O)C([H])(N([H])C(=O)C([H])(N([H])C([H])([H])[H])C([H])([H])[H])C(C([H])([H])[H])(C([H])([H])[H])C([H])([H])[H])C([H])(C(=O)N([H])C1([H])c3c([H])c([H])c([H])c([H])c3C([H])([H])C([H])([H])C1([H])[H])C2([H])[H])C([H])([H])C([H])([H])C([H])([H])[H]

$$$$
72:0:0
     RDKit          3D

 87 91  0  0  1  0  0  0  0  0999 V2000
  -29.2280  -21.5210   19.2690 C   0  0  0  0  0  2  0  0  0  0  0  0
  -27.9810  -21.3120   19.0930 N   0  0  0  0  0  0  0  0  0  0  0  0
  -25.8680  -20.2510   18.7680 C   0  0  0  0  0  1  0  0  0  0  0  0
  -28.0480  -19.0620   18.0350 C   0  0  0  0  0  1  0  0  0  0  0  0
  -27.3690  -19.9950   19.0780 C   0  0  0  0  0  3  0  0  0  0  0  0
  -30.8950  -19.5710   17.9210 C   0  0  0  0  0  1  0  0  0  0  0  0
  -30.3390  -19.7400   19.3710 C   0  0  0  0  0  2  0  0  0  0  0  0
  -31.0380  -16.4250   20.0070 C   0  0  0  0  0  0  0  0  0  0  0  0
  -31.2870  -13.7390   19.4650 C   0  0  0  0  0  2  0  0  0  0  0  0
  -30.5000  -13.0200   18.3240 C   0  0  0  0  0  2  0  0  0  0  0  0
  -29.0910  -12.6280   18.7710 C   0  0  0  0  0  2  0  0  0  0  0  0
  -28.4800  -13.7230   19.6640 C   0  0  0  0  0  3  0  0  0  0  0  0
  -29.4270  -14.3010   20.7510 C   0  0  0  0  0  2  0  0  0  0  0  0
  -30.5560  -14.9890   20.0460 N   0  0  0  0  0  0  0  0  0  0  0  0
  -32.2820  -16.2860   19.9340 O   0  0  0  0  0  0  0  0  0  0  0  0
  -30.2960  -17.8940   19.8800 N   0  0  0  0  0  0  0  0  0  0  0  0
  -29.3300  -17.7060   20.0950 H   0  0  0  0  0  0  0  0  0  0  0  0
  -26.1050  -14.2780   20.3340 C   0  0  0  0  0  0  0  0  0  0  0  0
  -25.0180  -13.5230   20.6770 C   0  0  0  0  0  0  0  0  0  0  0  0
  -25.4690  -12.1690   20.6870 C   0  0  0  0  0  0  0  0  0  0  0  0
  -27.1450  -13.3940   20.1520 N   0  0  0  0  0  0  0  0  0  0  0  0
  -26.7760  -12.1140   20.4260 N   0  0  0  0  0  0  0  0  0  0  0  0
  -24.7090  -10.9230   20.8760 C   0  0  0  0  0  0  0  0  0  0  0  0
  -25.0490   -9.9930   21.8790 C   0  0  0  0  0  3  0  0  0  0  0  0
  -24.2850   -8.8180   22.0520 C   0  0  0  0  0  3  0  0  0  0  0  0
  -23.1640   -8.5690   21.2230 C   0  0  0  0  0  0  0  0  0  0  0  0
  -22.8390   -9.4920   20.2140 C   0  0  0  0  0  3  0  0  0  0  0  0
  -23.6050  -10.6570   20.0410 C   0  0  0  0  0  3  0  0  0  0  0  0
  -22.3840   -7.4420   21.3000 O   0  0  0  0  0  0  0  0  0  0  0  0
  -22.1290   -6.8230   22.5010 C   0  0  0  0  0  0  0  0  0  0  0  0
  -21.4850   -7.4920   23.5620 C   0  0  0  0  0  3  0  0  0  0  0  0
  -21.1790   -6.7990   24.7520 C   0  0  0  0  0  3  0  0  0  0  0  0
  -21.5090   -5.4350   24.8770 C   0  0  0  0  0  0  0  0  0  0  0  0
  -22.1390   -4.7640   23.8160 C   0  0  0  0  0  3  0  0  0  0  0  0
  -22.4480   -5.4560   22.6310 C   0  0  0  0  0  0  0  0  0  0  0  0
  -23.0400   -4.7980   21.6050 F   0  0  0  0  0  0  0  0  0  0  0  0
  -21.2120   -4.7670   26.0150 F   0  0  0  0  0  0  0  0  0  0  0  0
  -23.6200  -14.0390   20.8650 C   0  0  0  0  0  0  0  0  0  0  0  0
  -22.8400  -13.4170   21.7480 N   0  0  0  0  0  0  0  0  0  0  0  0
  -23.2180  -15.0290   20.2620 O   0  0  0  0  0  0  0  0  0  0  0  0
  -23.1710  -12.6200   22.2700 H   0  0  0  0  0  0  0  0  0  0  0  0
  -21.8960  -13.7460   21.8860 H   0  0  0  0  0  0  0  0  0  0  0  0
  -26.2780  -15.6440   20.1340 N   0  0  0  0  0  0  0  0  0  0  0  0
  -25.4930  -16.2820   20.1920 H   0  0  0  0  0  0  0  0  0  0  0  0
  -27.1270  -16.0870   19.8140 H   0  0  0  0  0  0  0  0  0  0  0  0
  -29.3790  -23.6050   19.2060 C   0  0  0  0  0 15  0  0  0  0  0  0
  -28.8460  -25.2850   19.9510 O   0  0  0  0  0  1  0  0  0  0  0  0
  -24.8980  -31.5930   22.9750 C   0  0  0  0  0  0  0  0  0  0  0  0
  -27.8500  -26.5810   19.8550 C   0  0  0  0  0  0  0  0  0  0  0  0
  -23.8680  -30.1870   21.2520 C   0  0  0  0  0  3  0  0  0  0  0  0
  -25.4660  -28.6360   19.8220 C   0  0  0  0  0  0  0  0  0  0  0  0
  -26.4470  -30.4070   21.2530 C   0  0  0  0  0  2  0  0  0  0  0  0
  -26.6210  -28.9810   20.5340 C   0  0  0  0  0  0  0  0  0  0  0  0
  -27.7730  -27.9840   20.5260 C   0  0  0  0  0  3  0  0  0  0  0  0
  -26.6460  -26.5240   19.0870 C   0  0  0  0  0  3  0  0  0  0  0  0
  -25.5320  -27.4450   19.0740 C   0  0  0  0  0  3  0  0  0  0  0  0
  -24.2060  -29.5390   19.8720 C   0  0  0  0  0  2  0  0  0  0  0  0
  -25.0950  -30.7680   21.8810 N   0  0  0  0  0  0  0  0  0  0  0  0
  -23.7670  -31.8180   23.4470 O   0  0  0  0  0  0  0  0  0  0  0  0
  -23.1560  -29.1530   22.1650 C   0  0  0  0  0  0  0  0  0  0  0  0
  -21.8240  -28.9910   22.0330 N   0  0  0  0  0  0  0  0  0  0  0  0
  -23.8180  -28.4940   22.9700 O   0  0  0  0  0  0  0  0  0  0  0  0
  -21.3350  -29.5710   21.3610 H   0  0  0  0  0  0  0  0  0  0  0  0
  -18.4430  -27.7530   22.5860 C   0  0  0  0  0  0  0  0  0  0  0  0
  -21.0150  -27.9910   22.7510 C   0  0  0  0  0  3  0  0  0  0  0  0
  -21.0770  -26.6210   22.0310 C   0  0  0  0  0  2  0  0  0  0  0  0
  -19.9290  -26.4080   21.0400 C   0  0  0  0  0  2  0  0  0  0  0  0
  -18.5790  -26.4870   21.7570 C   0  0  0  0  0  2  0  0  0  0  0  0
  -19.5830  -28.4710   23.0370 C   0  0  0  0  0  0  0  0  0  0  0  0
  -19.3940  -29.6580   23.7790 C   0  0  0  0  0  3  0  0  0  0  0  0
  -18.0970  -30.1250   24.0680 C   0  0  0  0  0  3  0  0  0  0  0  0
  -16.9750  -29.4050   23.6260 C   0  0  0  0  0  3  0  0  0  0  0  0
  -17.1490  -28.2210   22.8890 C   0  0  0  0  0  3  0  0  0  0  0  0
  -26.0810  -32.3100   23.6970 C   0  0  0  0  0  3  0  0  0  0  0  0
  -26.5460  -31.5540   25.0070 C   0  0  1  0  0  0  0  0  0  0  0  0
  -25.3960  -31.2540   26.0000 C   0  0  0  0  0  1  0  0  0  0  0  0
  -27.2140  -30.2070   24.6680 C   0  0  0  0  0  1  0  0  0  0  0  0
  -27.6210  -32.3890   25.7420 C   0  0  0  0  0  1  0  0  0  0  0  0
  -25.6630  -33.6850   24.0530 N   0  0  0  0  0  0  0  0  0  0  0  0
  -25.9930  -34.7980   23.3810 C   0  0  0  0  0  0  0  0  0  0  0  0
  -26.7410  -34.7760   22.4000 O   0  0  0  0  0  0  0  0  0  0  0  0
  -25.0170  -33.7680   24.8240 H   0  0  0  0  0  0  0  0  0  0  0  0
  -24.2040  -36.5240   22.9970 C   0  0  0  0  0  1  0  0  0  0  0  0
  -25.4130  -36.1440   23.8670 C   0  0  0  0  0  3  0  0  0  0  0  0
  -27.4380  -37.1050   24.8770 C   0  0  0  0  0  1  0  0  0  0  0  0
  -26.4000  -37.2500   23.8610 N   0  0  0  0  0  0  0  0  0  0  0  0
  -25.9390  -38.1450   24.0150 H   0  0  0  0  0  0  0  0  0  0  0  0
  2  1  2  0
  3  5  1  0
  4  5  1  0
  5  2  1  0
  6  7  1  0
  7 16  1  0
  8 14  1  0
  9 14  1  0
 10 11  1  0
 10  9  1  0
 12 11  1  0
 12 21  1  0
 12 13  1  0
 14 13  1  0
 15  8  2  0
 16  8  1  0
 16 17  1  0
 18 19  2  0
 19 20  1  0
 19 38  1  0
 20 23  1  0
 21 18  1  0
 21 22  1  0
 22 20  2  0
 23 24  1  0
 24 25  2  0
 26 29  1  0
 26 25  1  0
 27 26  2  0
 28 27  1  0
 28 23  2  0
 29 30  1  0
 30 35  2  0
 30 31  1  0
 31 32  2  0
 32 33  1  0
 33 37  1  0
 34 33  2  0
 35 34  1  0
 36 35  1  0
 38 39  1  0
 39 42  1  0
 39 41  1  0
 40 38  2  0
 43 44  1  0
 43 18  1  0
 45 43  1  0
 48 59  2  0
 49 47  1  0
 49 54  1  0
 50 58  1  0
 50 60  1  0
 51 57  1  0
 51 53  1  0
 52 58  1  0
 53 52  1  0
 54 53  2  0
 55 49  2  0
 56 55  1  0
 56 51  2  0
 57 50  1  0
 58 48  1  0
 60 62  2  0
 61 60  1  0
 63 61  1  0
 64 73  2  0
 64 69  1  0
 65 61  1  0
 65 69  1  0
 66 65  1  0
 67 68  1  0
 67 66  1  0
 68 64  1  0
 69 70  2  0
 70 71  1  0
 72 71  2  0
 73 72  1  0
 74 48  1  0
 74 79  1  0
 74 75  1  0
 75 78  1  1
 75 76  1  0
 77 75  1  0
 79 82  1  0
 80 84  1  0
 80 79  1  0
 81 80  2  0
 84 83  1  0
 86 84  1  0
 86 87  1  0
 86 85  1  0
M  ISO  4   8 100  16 100  46 101  47 101
M  END
>  <TORSDO>  (71) 
F 19

>  <SCORE>  (71) 
-13.654

>  <name>  (71) 
72

>  <ligand_id>  (71) 
72

>  <original_smiles>  (71) 
[H]c1c([H])c([H])c2c(c1[H])C([H])([H])C([H])([H])C([H])([H])C2([H])N([H])C(=O)C1([H])N(C(=O)C([H])(N([H])C(=O)C([H])(N([H])C([H])([H])[H])C([H])([H])[H])C(C([H])([H])[H])(C([H])([H])[H])C([H])([H])[H])C([H])([H])c2c([H])c(OC([H])([H])C(=NC([H])(C([H])([H])[H])C([H])([H])[H])C([H])(N([H])C(=O)N3C([H])([H])C([H])([H])C([H])([H])C([H])(n4nc(-c5c([H])c([H])c(Oc6c([H])c([H])c(F)c([H])c6F)c([H])c5[H])c(C(=O)N([H])[H])c4N([H])[H])C3([H])[H])C([H])([H])[H])c([H])c([H])c2C1([H])[H]

>  <smiles>  (71) 
[H]c1c([H])c([H])c2c(c1[H])C([H])([H])C([H])([H])C([H])([H])C2([H])N([H])C(=O)C1([H])N(C(=O)C([H])(N([H])C(=O)C([H])(N([H])C([H])([H])[H])C([H])([H])[H])C(C([H])([H])[H])(C([H])([H])[H])C([H])([H])[H])C([H])([H])c2c([H])c(OC([H])([H])C(=NC([H])(C([H])([H])[H])C([H])([H])[H])C([H])(N([H])C(=O)N3C([H])([H])C([H])([H])C([H])([H])C([H])(n4nc(-c5c([H])c([H])c(Oc6c([H])c([H])c(F)c([H])c6F)c([H])c5[H])c(C(=O)N([H])[H])c4N([H])[H])C3([H])[H])C([H])([H])[H])c([H])c([H])c2C1([H])[H]

$$$$
73:0:0
     RDKit          3D

 94102  0  0  1  0  0  0  0  0999 V2000
  -27.6600  -24.3730   20.4600 C   0  0  0  0  0  2  0  0  0  0  0  0
  -29.7720  -24.9340   19.3000 C   0  0  0  0  0  2  0  0  0  0  0  0
  -27.5750  -23.0070   19.7530 C   0  0  0  0  0  2  0  0  0  0  0  0
  -29.8130  -23.5290   18.6470 C   0  0  0  0  0  2  0  0  0  0  0  0
  -28.3270  -25.4080   19.5280 C   0  0  0  0  0  3  0  0  0  0  0  0
  -28.9490  -22.4160   19.3290 C   0  0  2  0  0  0  0  0  0  0  0  0
  -28.6920  -21.3120   18.2680 C   0  0  0  0  0  1  0  0  0  0  0  0
  -29.6520  -21.7970   20.5740 C   0  0  0  0  0  0  0  0  0  0  0  0
  -29.5340  -20.4720   20.7720 N   0  0  0  0  0  0  0  0  0  0  0  0
  -30.2600  -22.5120   21.3720 O   0  0  0  0  0  0  0  0  0  0  0  0
  -29.0340  -19.9490   20.0650 H   0  0  0  0  0  0  0  0  0  0  0  0
  -29.9110  -19.7650   21.9930 C   0  0  0  0  0  2  0  0  0  0  0  0
  -29.9320  -18.2290   21.8290 C   0  0  0  0  0  2  0  0  0  0  0  0
  -31.1180  -17.7090   20.9910 C   0  0  0  0  0  2  0  0  0  0  0  0
  -31.6430  -16.3230   21.4250 C   0  0  0  0  0  2  0  0  0  0  0  0
  -31.1860  -14.3160   20.0240 C   0  0  0  0  0  0  0  0  0  0  0  0
  -30.7180  -12.1560   18.9250 C   0  0  0  0  0  2  0  0  0  0  0  0
  -29.7500  -12.3200   17.7380 C   0  0  0  0  0  2  0  0  0  0  0  0
  -28.2900  -12.2490   18.2180 C   0  0  0  0  0  2  0  0  0  0  0  0
  -28.0160  -13.1800   19.4280 C   0  0  0  0  0  3  0  0  0  0  0  0
  -29.0890  -12.9960   20.5250 C   0  0  0  0  0  2  0  0  0  0  0  0
  -30.4160  -13.2000   19.9170 N   0  0  0  0  0  0  0  0  0  0  0  0
  -32.1940  -14.5030   19.3370 O   0  0  0  0  0  0  0  0  0  0  0  0
  -30.8230  -15.1940   20.9720 N   0  0  0  0  0  0  0  0  0  0  0  0
  -29.9900  -14.9780   21.5010 H   0  0  0  0  0  0  0  0  0  0  0  0
  -25.6770  -13.9190   20.2110 C   0  0  0  0  0  0  0  0  0  0  0  0
  -24.5830  -13.2070   20.6260 C   0  0  0  0  0  0  0  0  0  0  0  0
  -24.9720  -11.8330   20.5930 C   0  0  0  0  0  0  0  0  0  0  0  0
  -26.6660  -12.9830   19.9550 N   0  0  0  0  0  0  0  0  0  0  0  0
  -26.2460  -11.7220   20.2390 N   0  0  0  0  0  0  0  0  0  0  0  0
  -24.1880  -10.6120   20.8210 C   0  0  0  0  0  0  0  0  0  0  0  0
  -24.5830   -9.6480   21.7750 C   0  0  0  0  0  3  0  0  0  0  0  0
  -23.8040   -8.4910   21.9900 C   0  0  0  0  0  3  0  0  0  0  0  0
  -22.6140   -8.2900   21.2500 C   0  0  0  0  0  0  0  0  0  0  0  0
  -22.2370   -9.2420   20.2870 C   0  0  0  0  0  3  0  0  0  0  0  0
  -23.0170  -10.3900   20.0700 C   0  0  0  0  0  3  0  0  0  0  0  0
  -21.8070   -7.1850   21.3730 O   0  0  0  0  0  0  0  0  0  0  0  0
  -21.7060   -6.4950   22.5550 C   0  0  0  0  0  0  0  0  0  0  0  0
  -21.3030   -7.1240   23.7530 C   0  0  0  0  0  3  0  0  0  0  0  0
  -21.1450   -6.3630   24.9290 C   0  0  0  0  0  3  0  0  0  0  0  0
  -21.3810   -4.9750   24.9080 C   0  0  0  0  0  0  0  0  0  0  0  0
  -21.7780   -4.3470   23.7150 C   0  0  0  0  0  3  0  0  0  0  0  0
  -21.9370   -5.1040   22.5410 C   0  0  0  0  0  0  0  0  0  0  0  0
  -22.2990   -4.4900   21.3880 F   0  0  0  0  0  0  0  0  0  0  0  0
  -21.2230   -4.2430   26.0350 F   0  0  0  0  0  0  0  0  0  0  0  0
  -23.2230  -13.7590   20.9440 C   0  0  0  0  0  0  0  0  0  0  0  0
  -22.4990  -13.1180   21.8550 N   0  0  0  0  0  0  0  0  0  0  0  0
  -22.8150  -14.7940   20.4190 O   0  0  0  0  0  0  0  0  0  0  0  0
  -22.8430  -12.2810   22.3010 H   0  0  0  0  0  0  0  0  0  0  0  0
  -21.5890  -13.4720   22.1120 H   0  0  0  0  0  0  0  0  0  0  0  0
  -25.9080  -15.2780   20.0130 N   0  0  0  0  0  0  0  0  0  0  0  0
  -25.1850  -15.9760   20.1460 H   0  0  0  0  0  0  0  0  0  0  0  0
  -26.7760  -15.6660   19.6680 H   0  0  0  0  0  0  0  0  0  0  0  0
  -28.3250  -26.7460   20.0540 O   0  0  0  0  0  0  0  0  0  0  0  0
  -24.6200  -31.9270   23.2310 C   0  0  0  0  0  0  0  0  0  0  0  0
  -27.1500  -27.4810   20.0430 C   0  0  0  0  0  0  0  0  0  0  0  0
  -23.3640  -30.5490   21.6080 C   0  0  0  0  0  3  0  0  0  0  0  0
  -24.7680  -29.0190   20.1310 C   0  0  0  0  0  0  0  0  0  0  0  0
  -25.8890  -30.8840   21.3570 C   0  0  0  0  0  2  0  0  0  0  0  0
  -25.9440  -29.5180   20.7010 C   0  0  0  0  0  0  0  0  0  0  0  0
  -27.1340  -28.7540   20.6610 C   0  0  0  0  0  3  0  0  0  0  0  0
  -25.9530  -27.0130   19.4470 C   0  0  0  0  0  3  0  0  0  0  0  0
  -24.7670  -27.7640   19.5030 C   0  0  0  0  0  3  0  0  0  0  0  0
  -23.5330  -29.8840   20.2170 C   0  0  0  0  0  2  0  0  0  0  0  0
  -24.6440  -31.1340   22.1230 N   0  0  0  0  0  0  0  0  0  0  0  0
  -23.5540  -32.2050   23.7970 O   0  0  0  0  0  0  0  0  0  0  0  0
  -22.7270  -29.5230   22.5740 C   0  0  0  0  0  0  0  0  0  0  0  0
  -21.4010  -29.3390   22.4640 N   0  0  0  0  0  0  0  0  0  0  0  0
  -23.4230  -28.8950   23.3770 O   0  0  0  0  0  0  0  0  0  0  0  0
  -20.9020  -29.8980   21.7870 H   0  0  0  0  0  0  0  0  0  0  0  0
  -18.0420  -28.1110   22.9700 C   0  0  0  0  0  0  0  0  0  0  0  0
  -20.5960  -28.4010   23.2430 C   0  0  0  0  0  3  0  0  0  0  0  0
  -20.7150  -26.9650   22.6820 C   0  0  0  0  0  2  0  0  0  0  0  0
  -19.6190  -26.6200   21.6700 C   0  0  0  0  0  2  0  0  0  0  0  0
  -18.2350  -26.7560   22.3110 C   0  0  0  0  0  2  0  0  0  0  0  0
  -19.1510  -28.8900   23.3940 C   0  0  0  0  0  0  0  0  0  0  0  0
  -18.9180  -30.1580   23.9690 C   0  0  0  0  0  3  0  0  0  0  0  0
  -17.6080  -30.6480   24.1260 C   0  0  0  0  0  3  0  0  0  0  0  0
  -16.5130  -29.8670   23.7210 C   0  0  0  0  0  3  0  0  0  0  0  0
  -16.7310  -28.6000   23.1480 C   0  0  0  0  0  3  0  0  0  0  0  0
  -25.9270  -32.5410   23.8230 C   0  0  0  0  0  3  0  0  0  0  0  0
  -25.6400  -33.9400   24.1650 N   0  0  0  0  0  0  0  0  0  0  0  0
  -25.9680  -34.9920   23.4040 C   0  0  0  0  0  0  0  0  0  0  0  0
  -26.6180  -34.8860   22.3600 O   0  0  0  0  0  0  0  0  0  0  0  0
  -25.0610  -34.0980   24.9780 H   0  0  0  0  0  0  0  0  0  0  0  0
  -24.2520  -36.8030   23.0880 C   0  0  0  0  0  1  0  0  0  0  0  0
  -25.5040  -36.3830   23.8750 C   0  0  0  0  0  3  0  0  0  0  0  0
  -27.6630  -37.2390   24.6720 C   0  0  0  0  0  1  0  0  0  0  0  0
  -26.5460  -37.4260   23.7490 N   0  0  0  0  0  0  0  0  0  0  0  0
  -26.1520  -38.3490   23.9120 H   0  0  0  0  0  0  0  0  0  0  0  0
  -26.4680  -31.7570   25.0810 C   0  0  1  0  0  0  0  0  0  0  0  0
  -25.3990  -31.5220   26.1740 C   0  0  0  0  0  1  0  0  0  0  0  0
  -27.0280  -30.3780   24.6660 C   0  0  0  0  0  1  0  0  0  0  0  0
  -27.6410  -32.5380   25.7190 C   0  0  0  0  0  1  0  0  0  0  0  0
  2  5  1  0
  3  1  1  0
  4  2  1  0
  4  6  1  0
  5 54  1  0
  5  1  1  0
  6  7  1  6
  6  3  1  0
  6  8  1  0
  8  9  1  0
  8 10  2  0
  9 12  1  0
 11  9  1  0
 13 12  1  0
 14 15  1  0
 14 13  1  0
 16 24  1  0
 17 22  1  0
 18 19  1  0
 18 17  1  0
 20 19  1  0
 20 29  1  0
 20 21  1  0
 22 16  1  0
 22 21  1  0
 23 16  2  0
 24 15  1  0
 24 25  1  0
 26 27  2  0
 27 46  1  0
 28 27  1  0
 28 31  1  0
 29 26  1  0
 29 30  1  0
 30 28  2  0
 31 32  1  0
 32 33  2  0
 34 37  1  0
 34 33  1  0
 35 34  2  0
 36 35  1  0
 36 31  2  0
 37 38  1  0
 38 39  1  0
 39 40  2  0
 41 40  1  0
 41 45  1  0
 42 41  2  0
 43 38  2  0
 43 42  1  0
 44 43  1  0
 46 47  1  0
 47 50  1  0
 47 49  1  0
 48 46  2  0
 51 52  1  0
 51 26  1  0
 53 51  1  0
 55 66  2  0
 56 54  1  0
 56 61  1  0
 57 65  1  0
 57 67  1  0
 58 64  1  0
 58 60  1  0
 59 65  1  0
 60 59  1  0
 61 60  2  0
 62 63  1  0
 62 56  2  0
 63 58  2  0
 64 57  1  0
 65 55  1  0
 67 69  2  0
 68 67  1  0
 70 68  1  0
 71 80  2  0
 71 76  1  0
 72 68  1  0
 72 76  1  0
 73 72  1  0
 74 75  1  0
 74 73  1  0
 75 71  1  0
 76 77  2  0
 77 78  1  0
 79 78  2  0
 80 79  1  0
 81 55  1  0
 81 82  1  0
 81 91  1  0
 82 85  1  0
 83 87  1  0
 83 82  1  0
 84 83  2  0
 87 86  1  0
 89 87  1  0
 89 90  1  0
 89 88  1  0
 91 94  1  1
 91 92  1  0
 93 91  1  0
M  ISO  4   5 101  16 100  24 100  54 101
M  END
>  <TORSDO>  (72) 
F 21

>  <SCORE>  (72) 
-12.387

>  <name>  (72) 
73

>  <ligand_id>  (72) 
73

>  <original_smiles>  (72) 
[H]c1c([H])c([H])c2c(c1[H])C([H])([H])C([H])([H])C([H])([H])C2([H])N([H])C(=O)C1([H])N(C(=O)C([H])(N([H])C(=O)C([H])(N([H])C([H])([H])[H])C([H])([H])[H])C(C([H])([H])[H])(C([H])([H])[H])C([H])([H])[H])C([H])([H])c2c([H])c(OC3([H])C([H])([H])C([H])([H])C(C(=O)N([H])C([H])([H])C([H])([H])C([H])([H])C([H])([H])N([H])C(=O)N4C([H])([H])C([H])([H])C([H])([H])C([H])(n5nc(-c6c([H])c([H])c(Oc7c([H])c([H])c(F)c([H])c7F)c([H])c6[H])c(C(=O)N([H])[H])c5N([H])[H])C4([H])[H])(C([H])([H])[H])C([H])([H])C3([H])[H])c([H])c([H])c2C1([H])[H]

>  <smiles>  (72) 
[H]c1c([H])c([H])c2c(c1[H])C([H])([H])C([H])([H])C([H])([H])C2([H])N([H])C(=O)C1([H])N(C(=O)C([H])(N([H])C(=O)C([H])(N([H])C([H])([H])[H])C([H])([H])[H])C(C([H])([H])[H])(C([H])([H])[H])C([H])([H])[H])C([H])([H])c2c([H])c(OC3([H])C([H])([H])C([H])([H])C(C(=O)N([H])C([H])([H])C([H])([H])C([H])([H])C([H])([H])N([H])C(=O)N4C([H])([H])C([H])([H])C([H])([H])C([H])(n5nc(-c6c([H])c([H])c(Oc7c([H])c([H])c(F)c([H])c7F)c([H])c6[H])c(C(=O)N([H])[H])c5N([H])[H])C4([H])[H])(C([H])([H])[H])C([H])([H])C3([H])[H])c([H])c([H])c2C1([H])[H]

$$$$
74:0:0
     RDKit          3D

 96104  0  0  1  0  0  0  0  0999 V2000
  -29.2320  -21.9950   23.7180 C   0  0  0  0  0  3  0  0  0  0  0  0
  -29.8410  -20.7370   23.5950 C   0  0  0  0  0  3  0  0  0  0  0  0
  -30.3190  -21.2160   21.2700 C   0  0  0  0  0  3  0  0  0  0  0  0
  -29.1300  -22.8770   22.6220 C   0  0  0  0  0  0  0  0  0  0  0  0
  -30.3790  -20.3080   22.3660 C   0  0  0  0  0  0  0  0  0  0  0  0
  -29.7220  -22.5070   21.3700 C   0  0  0  0  0  0  0  0  0  0  0  0
  -31.9020  -18.6510   23.3460 C   0  0  0  0  0  1  0  0  0  0  0  0
  -30.9550  -19.0120   22.2900 N   0  0  0  0  0  0  0  0  0  0  0  0
  -30.9580  -18.2280   21.0530 C   0  0  0  0  0  2  0  0  0  0  0  0
  -30.4560  -16.7630   21.2500 C   0  0  0  0  0  2  0  0  0  0  0  0
  -31.5520  -14.7290   20.4020 C   0  0  0  0  0  0  0  0  0  0  0  0
  -31.2770  -12.4360   19.5710 C   0  0  0  0  0  2  0  0  0  0  0  0
  -30.4130  -12.4960   18.2940 C   0  0  0  0  0  2  0  0  0  0  0  0
  -28.9140  -12.4380   18.6470 C   0  0  0  0  0  2  0  0  0  0  0  0
  -28.5180  -13.4250   19.7790 C   0  0  0  0  0  3  0  0  0  0  0  0
  -29.5090  -13.3640   20.9620 C   0  0  0  0  0  2  0  0  0  0  0  0
  -30.8620  -13.5570   20.4230 N   0  0  0  0  0  0  0  0  0  0  0  0
  -32.7600  -14.7820   20.1530 O   0  0  0  0  0  0  0  0  0  0  0  0
  -30.7880  -15.8240   20.1500 N   0  0  0  0  0  0  0  0  0  0  0  0
  -26.1420  -14.1730   20.4190 C   0  0  0  0  0  0  0  0  0  0  0  0
  -25.0120  -13.4620   20.7230 C   0  0  0  0  0  0  0  0  0  0  0  0
  -25.3860  -12.0850   20.6700 C   0  0  0  0  0  0  0  0  0  0  0  0
  -27.1360  -13.2290   20.2040 N   0  0  0  0  0  0  0  0  0  0  0  0
  -26.6820  -11.9680   20.4130 N   0  0  0  0  0  0  0  0  0  0  0  0
  -24.5750  -10.8680   20.7930 C   0  0  0  0  0  0  0  0  0  0  0  0
  -24.8930   -9.8600   21.7310 C   0  0  0  0  0  3  0  0  0  0  0  0
  -24.0870   -8.7070   21.8440 C   0  0  0  0  0  3  0  0  0  0  0  0
  -22.9480   -8.5550   21.0190 C   0  0  0  0  0  0  0  0  0  0  0  0
  -22.6490   -9.5500   20.0720 C   0  0  0  0  0  3  0  0  0  0  0  0
  -23.4550  -10.6940   19.9560 C   0  0  0  0  0  3  0  0  0  0  0  0
  -22.1210   -7.4580   21.0420 O   0  0  0  0  0  0  0  0  0  0  0  0
  -21.8300   -6.8000   22.2100 C   0  0  0  0  0  0  0  0  0  0  0  0
  -21.2370   -7.4600   23.3090 C   0  0  0  0  0  3  0  0  0  0  0  0
  -20.8920   -6.7310   24.4650 C   0  0  0  0  0  3  0  0  0  0  0  0
  -21.1270   -5.3440   24.5210 C   0  0  0  0  0  0  0  0  0  0  0  0
  -21.7140   -4.6850   23.4260 C   0  0  0  0  0  3  0  0  0  0  0  0
  -22.0600   -5.4110   22.2730 C   0  0  0  0  0  0  0  0  0  0  0  0
  -22.6040   -4.7670   21.2120 F   0  0  0  0  0  0  0  0  0  0  0  0
  -20.7890   -4.6430   25.6270 F   0  0  0  0  0  0  0  0  0  0  0  0
  -23.6390  -14.0220   20.9560 C   0  0  0  0  0  0  0  0  0  0  0  0
  -22.8480  -13.3700   21.8020 N   0  0  0  0  0  0  0  0  0  0  0  0
  -23.2760  -15.0710   20.4250 O   0  0  0  0  0  0  0  0  0  0  0  0
  -23.1540  -12.5220   22.2530 H   0  0  0  0  0  0  0  0  0  0  0  0
  -21.9230  -13.7270   22.0000 H   0  0  0  0  0  0  0  0  0  0  0  0
  -26.4030  -15.5330   20.2880 N   0  0  0  0  0  0  0  0  0  0  0  0
  -25.6810  -16.2370   20.3940 H   0  0  0  0  0  0  0  0  0  0  0  0
  -27.3020  -15.9210   20.0320 H   0  0  0  0  0  0  0  0  0  0  0  0
  -29.5670  -16.8700   18.2030 C   0  0  0  0  0  1  0  0  0  0  0  0
  -30.9120  -16.4190   18.8000 C   0  0  0  0  0  2  0  0  0  0  0  0
  -28.3410  -24.1070   22.9200 C   0  0  0  0  0  3  0  0  0  0  0  0
  -27.5120  -24.6270   22.1700 O   0  0  0  0  0  0  0  0  0  0  0  0
  -29.7560  -23.2980   20.1950 N   0  0  0  0  0  0  0  0  0  0  0  0
  -30.0780  -22.8180   19.3570 H   0  0  0  0  0  0  0  0  0  0  0  0
  -30.0100  -24.7490   20.1770 C   0  0  0  0  0  2  0  0  0  0  0  0
  -28.8590  -25.5330   19.5000 C   0  0  0  0  0  2  0  0  0  0  0  0
  -28.9150  -26.9530   19.7410 O   0  0  0  0  0  0  0  0  0  0  0  0
  -24.7740  -31.4710   23.3620 C   0  0  0  0  0  0  0  0  0  0  0  0
  -27.7100  -27.6370   19.7640 C   0  0  0  0  0  0  0  0  0  0  0  0
  -23.6750  -30.2490   21.5160 C   0  0  0  0  0  3  0  0  0  0  0  0
  -25.2360  -29.0140   19.9220 C   0  0  0  0  0  0  0  0  0  0  0  0
  -26.1810  -30.7660   21.4290 C   0  0  0  0  0  2  0  0  0  0  0  0
  -26.3530  -29.5050   20.6080 C   0  0  0  0  0  0  0  0  0  0  0  0
  -27.5930  -28.8240   20.5260 C   0  0  0  0  0  3  0  0  0  0  0  0
  -26.5720  -27.1810   19.0540 C   0  0  0  0  0  3  0  0  0  0  0  0
  -25.3400  -27.8520   19.1420 C   0  0  0  0  0  3  0  0  0  0  0  0
  -23.9440  -29.7860   20.0590 C   0  0  0  0  0  2  0  0  0  0  0  0
  -24.8940  -30.8370   22.1630 N   0  0  0  0  0  0  0  0  0  0  0  0
  -23.6700  -31.6060   23.9090 O   0  0  0  0  0  0  0  0  0  0  0  0
  -23.0710  -29.0680   22.3090 C   0  0  0  0  0  0  0  0  0  0  0  0
  -21.7530  -28.8560   22.1570 N   0  0  0  0  0  0  0  0  0  0  0  0
  -23.7830  -28.3520   23.0190 O   0  0  0  0  0  0  0  0  0  0  0  0
  -21.2370  -29.4910   21.5630 H   0  0  0  0  0  0  0  0  0  0  0  0
  -18.4280  -27.4760   22.4720 C   0  0  0  0  0  0  0  0  0  0  0  0
  -20.9770  -27.7820   22.7760 C   0  0  0  0  0  3  0  0  0  0  0  0
  -21.1270  -26.4610   21.9880 C   0  0  0  0  0  2  0  0  0  0  0  0
  -20.0310  -26.2570   20.9380 C   0  0  0  0  0  2  0  0  0  0  0  0
  -18.6480  -26.2510   21.5980 C   0  0  0  0  0  2  0  0  0  0  0  0
  -19.5220  -28.2030   23.0120 C   0  0  0  0  0  0  0  0  0  0  0  0
  -19.2630  -29.3530   23.7870 C   0  0  0  0  0  3  0  0  0  0  0  0
  -17.9420  -29.7760   24.0300 C   0  0  0  0  0  3  0  0  0  0  0  0
  -16.8630  -29.0440   23.5060 C   0  0  0  0  0  3  0  0  0  0  0  0
  -17.1070  -27.8950   22.7320 C   0  0  0  0  0  3  0  0  0  0  0  0
  -26.0110  -32.0790   24.0930 C   0  0  0  0  0  3  0  0  0  0  0  0
  -25.6710  -33.4590   24.4640 N   0  0  0  0  0  0  0  0  0  0  0  0
  -26.0640  -34.5470   23.7870 C   0  0  0  0  0  0  0  0  0  0  0  0
  -26.8210  -34.4930   22.8130 O   0  0  0  0  0  0  0  0  0  0  0  0
  -25.0090  -33.5750   25.2160 H   0  0  0  0  0  0  0  0  0  0  0  0
  -24.3690  -36.3580   23.3690 C   0  0  0  0  0  1  0  0  0  0  0  0
  -25.5330  -35.9110   24.2660 C   0  0  0  0  0  3  0  0  0  0  0  0
  -27.5870  -36.7460   25.3230 C   0  0  0  0  0  1  0  0  0  0  0  0
  -26.5680  -36.9670   24.2990 N   0  0  0  0  0  0  0  0  0  0  0  0
  -26.1490  -37.8790   24.4610 H   0  0  0  0  0  0  0  0  0  0  0  0
  -26.4520  -31.2520   25.3620 C   0  0  1  0  0  0  0  0  0  0  0  0
  -25.2950  -30.9500   26.3410 C   0  0  0  0  0  1  0  0  0  0  0  0
  -27.0810  -29.9020   24.9420 C   0  0  0  0  0  1  0  0  0  0  0  0
  -27.5440  -32.0260   26.1390 C   0  0  0  0  0  1  0  0  0  0  0  0
  2  1  1  0
  3  6  2  0
  3  5  1  0
  4 50  1  0
  4  1  2  0
  5  2  2  0
  6  4  1  0
  8  5  1  0
  8  7  1  0
  9 10  1  0
  9  8  1  0
 11 17  1  0
 12 17  1  0
 13 14  1  0
 13 12  1  0
 15 14  1  0
 15 23  1  0
 15 16  1  0
 17 16  1  0
 18 11  2  0
 19 11  1  0
 19 10  1  0
 20 21  2  0
 21 40  1  0
 22 21  1  0
 22 25  1  0
 23 24  1  0
 23 20  1  0
 24 22  2  0
 25 26  1  0
 26 27  2  0
 28 31  1  0
 28 27  1  0
 29 28  2  0
 30 29  1  0
 30 25  2  0
 31 32  1  0
 32 37  2  0
 32 33  1  0
 33 34  2  0
 34 35  1  0
 35 39  1  0
 36 35  2  0
 37 36  1  0
 38 37  1  0
 40 41  1  0
 41 44  1  0
 41 43  1  0
 42 40  2  0
 45 46  1  0
 45 20  1  0
 47 45  1  0
 48 49  1  0
 49 19  1  0
 51 50  2  0
 52  6  1  0
 53 52  1  0
 54 52  1  0
 55 56  1  0
 55 54  1  0
 56 58  1  0
 57 68  2  0
 58 63  1  0
 59 67  1  0
 59 69  1  0
 60 66  1  0
 60 62  1  0
 61 67  1  0
 62 61  1  0
 63 62  2  0
 64 65  1  0
 64 58  2  0
 65 60  2  0
 66 59  1  0
 67 57  1  0
 69 71  2  0
 70 69  1  0
 72 70  1  0
 73 82  2  0
 73 78  1  0
 74 70  1  0
 74 78  1  0
 75 74  1  0
 76 77  1  0
 76 75  1  0
 77 73  1  0
 78 79  2  0
 79 80  1  0
 81 80  2  0
 82 81  1  0
 83 57  1  0
 83 84  1  0
 83 93  1  0
 84 87  1  0
 85 89  1  0
 85 84  1  0
 86 85  2  0
 89 88  1  0
 89 91  1  0
 91 92  1  0
 91 90  1  0
 93 96  1  1
 93 94  1  0
 95 93  1  0
M  ISO  4  11 100  19 100  55 101  56 101
M  END
>  <TORSDO>  (73) 
F 24

>  <SCORE>  (73) 
-8.167

>  <name>  (73) 
74

>  <ligand_id>  (73) 
74

>  <original_smiles>  (73) 
[H]C(=O)c1c([H])c([H])c(N(C([H])([H])[H])C([H])([H])C([H])([H])N(C(=O)N2C([H])([H])C([H])([H])C([H])([H])C([H])(n3nc(-c4c([H])c([H])c(Oc5c([H])c([H])c(F)c([H])c5F)c([H])c4[H])c(C(=O)N([H])[H])c3N([H])[H])C2([H])[H])C([H])([H])C([H])([H])[H])c([H])c1N([H])C([H])([H])C([H])([H])Oc1c([H])c([H])c2c(c1[H])C([H])([H])N(C(=O)C([H])(N([H])C(=O)C([H])(N([H])C([H])([H])[H])C([H])([H])[H])C(C([H])([H])[H])(C([H])([H])[H])C([H])([H])[H])C([H])(C(=O)N([H])C1([H])c3c([H])c([H])c([H])c([H])c3C([H])([H])C([H])([H])C1([H])[H])C2([H])[H]

>  <smiles>  (73) 
[H]C(=O)c1c([H])c([H])c(N(C([H])([H])[H])C([H])([H])C([H])([H])N(C(=O)N2C([H])([H])C([H])([H])C([H])([H])C([H])(n3nc(-c4c([H])c([H])c(Oc5c([H])c([H])c(F)c([H])c5F)c([H])c4[H])c(C(=O)N([H])[H])c3N([H])[H])C2([H])[H])C([H])([H])C([H])([H])[H])c([H])c1N([H])C([H])([H])C([H])([H])Oc1c([H])c([H])c2c(c1[H])C([H])([H])N(C(=O)C([H])(N([H])C(=O)C([H])(N([H])C([H])([H])[H])C([H])([H])[H])C(C([H])([H])[H])(C([H])([H])[H])C([H])([H])[H])C([H])(C(=O)N([H])C1([H])c3c([H])c([H])c([H])c([H])c3C([H])([H])C([H])([H])C1([H])[H])C2([H])[H]

$$$$
75:0:0
     RDKit          3D

 96104  0  0  1  0  0  0  0  0999 V2000
  -28.9100  -19.7870   20.0790 N   0  0  1  0  0  4  0  0  0  0  0  0
  -29.5740  -19.8050   19.3200 H   0  0  0  0  0  0  0  0  0  0  0  0
  -27.5570  -19.8890   19.4310 C   0  0  0  0  0  2  0  0  0  0  0  0
  -27.5860  -20.2800   17.9380 C   0  0  0  0  0  2  0  0  0  0  0  0
  -23.9950  -21.2990   17.0050 C   0  0  0  0  0  3  0  0  0  0  0  0
  -24.0450  -22.6960   17.1840 C   0  0  0  0  0  3  0  0  0  0  0  0
  -25.1490  -20.5160   17.2050 C   0  0  0  0  0  3  0  0  0  0  0  0
  -26.4160  -22.5320   17.7350 C   0  0  0  0  0  3  0  0  0  0  0  0
  -25.2590  -23.3190   17.5360 C   0  0  0  0  0  0  0  0  0  0  0  0
  -26.3640  -21.1250   17.5890 C   0  0  0  0  0  0  0  0  0  0  0  0
  -25.3100  -24.8260   17.6980 C   0  0  0  0  0  1  0  0  0  0  0  0
  -29.2320  -21.0630   20.8990 C   0  0  0  0  0  3  0  0  0  0  0  0
  -28.8860  -22.5150   20.2500 C   0  0  0  0  0  3  0  0  0  0  0  0
  -29.1630  -23.9180   20.9810 C   0  0  0  0  0  2  0  0  0  0  0  0
  -28.3300  -25.1430   20.3810 C   0  0  0  0  0  2  0  0  0  0  0  0
  -28.4780  -26.5520   20.8410 O   0  0  0  0  0  0  0  0  0  0  0  0
  -24.6030  -32.0400   23.5080 C   0  0  0  0  0  0  0  0  0  0  0  0
  -27.3710  -27.4100   20.6910 C   0  0  0  0  0  0  0  0  0  0  0  0
  -23.4840  -30.6010   21.8430 C   0  0  0  0  0  3  0  0  0  0  0  0
  -25.0070  -29.0230   20.5280 C   0  0  0  0  0  0  0  0  0  0  0  0
  -26.0300  -30.9140   21.7860 C   0  0  0  0  0  2  0  0  0  0  0  0
  -26.1430  -29.5220   21.1770 C   0  0  0  0  0  0  0  0  0  0  0  0
  -27.3260  -28.7230   21.2610 C   0  0  0  0  0  3  0  0  0  0  0  0
  -26.2140  -26.9780   19.9970 C   0  0  0  0  0  3  0  0  0  0  0  0
  -25.0420  -27.7540   19.9350 C   0  0  0  0  0  3  0  0  0  0  0  0
  -23.7680  -29.8920   20.4950 C   0  0  0  0  0  2  0  0  0  0  0  0
  -24.7200  -31.2040   22.4330 N   0  0  0  0  0  0  0  0  0  0  0  0
  -23.4960  -32.3300   23.9810 O   0  0  0  0  0  0  0  0  0  0  0  0
  -22.7790  -29.6070   22.7980 C   0  0  0  0  0  0  0  0  0  0  0  0
  -21.4600  -29.4200   22.6120 N   0  0  0  0  0  0  0  0  0  0  0  0
  -23.4190  -29.0060   23.6660 O   0  0  0  0  0  0  0  0  0  0  0  0
  -20.9950  -29.9950   21.9230 H   0  0  0  0  0  0  0  0  0  0  0  0
  -18.0740  -28.1930   22.9430 C   0  0  0  0  0  0  0  0  0  0  0  0
  -20.6100  -28.4830   23.3450 C   0  0  0  0  0  3  0  0  0  0  0  0
  -20.7550  -27.0430   22.8000 C   0  0  0  0  0  2  0  0  0  0  0  0
  -19.7080  -26.6850   21.7430 C   0  0  0  0  0  2  0  0  0  0  0  0
  -18.2990  -26.8280   22.3170 C   0  0  0  0  0  2  0  0  0  0  0  0
  -19.1620  -28.9760   23.4120 C   0  0  0  0  0  0  0  0  0  0  0  0
  -18.9060  -30.2600   23.9410 C   0  0  0  0  0  3  0  0  0  0  0  0
  -17.5940  -30.7620   24.0050 C   0  0  0  0  0  3  0  0  0  0  0  0
  -16.5200  -29.9760   23.5570 C   0  0  0  0  0  3  0  0  0  0  0  0
  -16.7580  -28.6920   23.0320 C   0  0  0  0  0  3  0  0  0  0  0  0
  -25.8580  -32.6860   24.1700 C   0  0  0  0  0  3  0  0  0  0  0  0
  -26.2770  -31.9820   25.5190 C   0  0  1  0  0  0  0  0  0  0  0  0
  -25.1070  -31.7890   26.5100 C   0  0  0  0  0  1  0  0  0  0  0  0
  -26.8940  -30.5910   25.2430 C   0  0  0  0  0  1  0  0  0  0  0  0
  -27.3710  -32.8140   26.2290 C   0  0  0  0  0  1  0  0  0  0  0  0
  -25.5550  -34.1050   24.4010 N   0  0  0  0  0  0  0  0  0  0  0  0
  -25.9280  -35.1060   23.5910 C   0  0  0  0  0  0  0  0  0  0  0  0
  -26.6430  -34.9330   22.5980 O   0  0  0  0  0  0  0  0  0  0  0  0
  -24.9350  -34.3110   25.1690 H   0  0  0  0  0  0  0  0  0  0  0  0
  -24.2350  -36.8810   23.0580 C   0  0  0  0  0  1  0  0  0  0  0  0
  -25.4420  -36.5250   23.9380 C   0  0  0  0  0  3  0  0  0  0  0  0
  -27.5560  -37.4450   24.7850 C   0  0  0  0  0  1  0  0  0  0  0  0
  -26.4920  -37.5590   23.7900 N   0  0  0  0  0  0  0  0  0  0  0  0
  -26.0900  -38.4900   23.8700 H   0  0  0  0  0  0  0  0  0  0  0  0
  -29.0630  -18.3990   20.7550 C   0  0  0  0  0  3  0  0  0  0  0  0
  -30.0310  -17.2690   20.1370 C   0  0  0  0  0  3  0  0  0  0  0  0
  -30.7540  -14.7710   20.5070 C   0  0  0  0  0  0  0  0  0  0  0  0
  -30.5920  -12.4930   19.5250 C   0  0  0  0  0  2  0  0  0  0  0  0
  -29.6900  -12.6010   18.2760 C   0  0  0  0  0  2  0  0  0  0  0  0
  -28.2090  -12.4570   18.6620 C   0  0  0  0  0  2  0  0  0  0  0  0
  -27.8120  -13.3350   19.8780 C   0  0  0  0  0  3  0  0  0  0  0  0
  -28.8380  -13.2000   21.0290 C   0  0  0  0  0  2  0  0  0  0  0  0
  -30.1610  -13.5360   20.4790 N   0  0  0  0  0  0  0  0  0  0  0  0
  -31.9250  -14.9180   20.1460 O   0  0  0  0  0  0  0  0  0  0  0  0
  -29.9220  -15.8550   20.6950 N   0  0  0  0  0  0  0  0  0  0  0  0
  -29.0050  -15.6090   21.0410 H   0  0  0  0  0  0  0  0  0  0  0  0
  -25.4170  -13.9600   20.5490 C   0  0  0  0  0  0  0  0  0  0  0  0
  -24.3330  -13.2000   20.8910 C   0  0  0  0  0  0  0  0  0  0  0  0
  -24.7770  -11.8430   20.8660 C   0  0  0  0  0  0  0  0  0  0  0  0
  -26.4510  -13.0670   20.3220 N   0  0  0  0  0  0  0  0  0  0  0  0
  -26.0740  -11.7900   20.5790 N   0  0  0  0  0  0  0  0  0  0  0  0
  -24.0310  -10.5920   21.0350 C   0  0  0  0  0  0  0  0  0  0  0  0
  -24.4390   -9.6120   21.9640 C   0  0  0  0  0  3  0  0  0  0  0  0
  -23.6970   -8.4220   22.1240 C   0  0  0  0  0  3  0  0  0  0  0  0
  -22.5310   -8.2040   21.3520 C   0  0  0  0  0  0  0  0  0  0  0  0
  -22.1460   -9.1690   20.4040 C   0  0  0  0  0  3  0  0  0  0  0  0
  -22.8900  -10.3510   20.2450 C   0  0  0  0  0  3  0  0  0  0  0  0
  -21.7650   -7.0660   21.4180 O   0  0  0  0  0  0  0  0  0  0  0  0
  -21.6940   -6.3120   22.5620 C   0  0  0  0  0  0  0  0  0  0  0  0
  -21.2650   -6.8590   23.7900 C   0  0  0  0  0  3  0  0  0  0  0  0
  -21.1420   -6.0300   24.9240 C   0  0  0  0  0  3  0  0  0  0  0  0
  -21.4360   -4.6570   24.8290 C   0  0  0  0  0  0  0  0  0  0  0  0
  -21.8570   -4.1100   23.6050 C   0  0  0  0  0  3  0  0  0  0  0  0
  -21.9820   -4.9350   22.4730 C   0  0  0  0  0  0  0  0  0  0  0  0
  -22.3680   -4.3990   21.2910 F   0  0  0  0  0  0  0  0  0  0  0  0
  -21.3080   -3.8590   25.9160 F   0  0  0  0  0  0  0  0  0  0  0  0
  -22.9380  -13.6940   21.1270 C   0  0  0  0  0  0  0  0  0  0  0  0
  -22.1860  -13.0210   21.9870 N   0  0  0  0  0  0  0  0  0  0  0  0
  -22.5260  -14.7180   20.5840 O   0  0  0  0  0  0  0  0  0  0  0  0
  -22.5380  -12.1910   22.4410 H   0  0  0  0  0  0  0  0  0  0  0  0
  -21.2470  -13.3390   22.1900 H   0  0  0  0  0  0  0  0  0  0  0  0
  -25.6090  -15.3300   20.3900 N   0  0  0  0  0  0  0  0  0  0  0  0
  -24.8420  -15.9820   20.5010 H   0  0  0  0  0  0  0  0  0  0  0  0
  -26.4530  -15.7530   20.0400 H   0  0  0  0  0  0  0  0  0  0  0  0
  1 57  1  0
  1 12  1  0
  1  2  1  6
  3  1  1  0
  4  3  1  0
  5  6  2  0
  5  7  1  0
  6  9  1  0
  7 10  2  0
  9 11  1  0
  9  8  2  0
 10  8  1  0
 10  4  1  0
 13 12  2  0
 13 14  1  0
 15 16  1  0
 15 14  1  0
 17 28  2  0
 18 16  1  0
 18 23  1  0
 19 27  1  0
 19 29  1  0
 20 22  1  0
 21 27  1  0
 22 23  2  0
 22 21  1  0
 24 18  2  0
 25 24  1  0
 25 20  2  0
 26 20  1  0
 26 19  1  0
 27 17  1  0
 29 31  2  0
 30 29  1  0
 32 30  1  0
 33 42  2  0
 33 38  1  0
 34 30  1  0
 34 38  1  0
 35 34  1  0
 36 37  1  0
 36 35  1  0
 37 33  1  0
 38 39  2  0
 39 40  1  0
 41 40  2  0
 42 41  1  0
 43 17  1  0
 43 48  1  0
 43 44  1  0
 44 47  1  1
 44 45  1  0
 46 44  1  0
 48 51  1  0
 49 53  1  0
 49 48  1  0
 50 49  2  0
 53 52  1  0
 55 56  1  0
 55 53  1  0
 55 54  1  0
 58 67  1  0
 58 57  2  0
 59 67  1  0
 60 65  1  0
 61 62  1  0
 61 60  1  0
 63 62  1  0
 63 72  1  0
 63 64  1  0
 65 59  1  0
 65 64  1  0
 66 59  2  0
 67 68  1  0
 69 70  2  0
 70 89  1  0
 71 70  1  0
 71 74  1  0
 72 69  1  0
 72 73  1  0
 73 71  2  0
 74 75  1  0
 75 76  2  0
 77 80  1  0
 77 76  1  0
 78 77  2  0
 79 78  1  0
 79 74  2  0
 80 81  1  0
 81 82  1  0
 82 83  2  0
 84 83  1  0
 84 88  1  0
 85 84  2  0
 86 81  2  0
 86 85  1  0
 87 86  1  0
 89 90  1  0
 90 93  1  0
 90 92  1  0
 91 89  2  0
 94 95  1  0
 94 69  1  0
 96 94  1  0
M  ISO  4  15 101  16 101  59 100  67 100
M  END
>  <TORSDO>  (74) 
F 25

>  <SCORE>  (74) 
-11.724

>  <name>  (74) 
75

>  <ligand_id>  (74) 
75

>  <original_smiles>  (74) 
[H]c1c([H])c([H])c2c(c1[H])C([H])([H])C([H])([H])C([H])([H])C2([H])N([H])C(=O)C1([H])N(C(=O)C([H])(N([H])C(=O)C([H])(N([H])C([H])([H])[H])C([H])([H])[H])C(C([H])([H])[H])(C([H])([H])[H])C([H])([H])[H])C([H])([H])c2c([H])c(OC([H])([H])C([H])([H])C([H])([H])C([H])([H])[N+]([H])(C([H])([H])C([H])([H])c3c([H])c([H])c([H])c(C([H])([H])[H])c3[H])C([H])([H])C([H])([H])N([H])C(=O)N3C([H])([H])C([H])([H])C([H])([H])C([H])(n4nc(-c5c([H])c([H])c(Oc6c([H])c([H])c(F)c([H])c6F)c([H])c5[H])c(C(=O)N([H])[H])c4N([H])[H])C3([H])[H])c([H])c([H])c2C1([H])[H]

>  <smiles>  (74) 
[H]c1c([H])c([H])c2c(c1[H])C([H])([H])C([H])([H])C([H])([H])C2([H])N([H])C(=O)C1([H])N(C(=O)C([H])(N([H])C(=O)C([H])(N([H])C([H])([H])[H])C([H])([H])[H])C(C([H])([H])[H])(C([H])([H])[H])C([H])([H])[H])C([H])([H])c2c([H])c(OC([H])([H])C([H])([H])C([H])([H])C([H])([H])[N+]([H])(C([H])([H])C([H])([H])c3c([H])c([H])c([H])c(C([H])([H])[H])c3[H])C([H])([H])C([H])([H])N([H])C(=O)N3C([H])([H])C([H])([H])C([H])([H])C([H])(n4nc(-c5c([H])c([H])c(Oc6c([H])c([H])c(F)c([H])c6F)c([H])c5[H])c(C(=O)N([H])[H])c4N([H])[H])C3([H])[H])c([H])c([H])c2C1([H])[H]

$$$$
76:0:0
     RDKit          3D

 91 99  0  0  1  0  0  0  0  0999 V2000
  -29.4680  -20.8880   20.0730 N   0  0  0  0  0  0  0  0  0  0  0  0
  -29.2990  -20.8480   19.0670 H   0  0  0  0  0  0  0  0  0  0  0  0
  -30.6300  -18.3550   22.6660 C   0  0  0  0  0  3  0  0  0  0  0  0
  -30.7340  -17.1560   21.9200 C   0  0  0  0  0  3  0  0  0  0  0  0
  -30.2300  -19.5630   22.0480 C   0  0  0  0  0  3  0  0  0  0  0  0
  -30.4180  -17.1240   20.5410 C   0  0  0  0  0  0  0  0  0  0  0  0
  -29.8600  -19.6230   20.6800 C   0  0  0  0  0  0  0  0  0  0  0  0
  -29.9410  -18.3640   19.9480 C   0  0  0  0  0  0  0  0  0  0  0  0
  -29.5410  -18.3360   18.6500 F   0  0  0  0  0  0  0  0  0  0  0  0
  -31.2210  -14.7070   20.0040 C   0  0  0  0  0  0  0  0  0  0  0  0
  -30.9000  -12.4550   18.9710 C   0  0  0  0  0  2  0  0  0  0  0  0
  -29.9290  -12.6050   17.7770 C   0  0  0  0  0  2  0  0  0  0  0  0
  -28.4620  -12.5470   18.2400 C   0  0  0  0  0  2  0  0  0  0  0  0
  -28.1800  -13.4370   19.4730 C   0  0  0  0  0  3  0  0  0  0  0  0
  -29.2500  -13.2530   20.5650 C   0  0  0  0  0  2  0  0  0  0  0  0
  -30.5450  -13.5190   19.9340 N   0  0  0  0  0  0  0  0  0  0  0  0
  -32.4320  -14.7540   19.7680 O   0  0  0  0  0  0  0  0  0  0  0  0
  -30.4580  -15.8430   19.8110 N   0  0  0  0  0  0  0  0  0  0  0  0
  -30.0270  -15.8590   18.8890 H   0  0  0  0  0  0  0  0  0  0  0  0
  -25.8620  -14.1770   20.2780 C   0  0  0  0  0  0  0  0  0  0  0  0
  -24.7510  -13.4700   20.6580 C   0  0  0  0  0  0  0  0  0  0  0  0
  -25.1240  -12.0930   20.5950 C   0  0  0  0  0  0  0  0  0  0  0  0
  -26.8350  -13.2300   19.9990 N   0  0  0  0  0  0  0  0  0  0  0  0
  -26.4020  -11.9710   20.2550 N   0  0  0  0  0  0  0  0  0  0  0  0
  -24.3160  -10.8790   20.7900 C   0  0  0  0  0  0  0  0  0  0  0  0
  -24.6720   -9.9020   21.7440 C   0  0  0  0  0  3  0  0  0  0  0  0
  -23.8740   -8.7520   21.9210 C   0  0  0  0  0  3  0  0  0  0  0  0
  -22.7050   -8.5750   21.1490 C   0  0  0  0  0  0  0  0  0  0  0  0
  -22.3690   -9.5360   20.1830 C   0  0  0  0  0  3  0  0  0  0  0  0
  -23.1660  -10.6790   20.0010 C   0  0  0  0  0  3  0  0  0  0  0  0
  -21.8830   -7.4790   21.2330 O   0  0  0  0  0  0  0  0  0  0  0  0
  -21.7150   -6.7910   22.4060 C   0  0  0  0  0  0  0  0  0  0  0  0
  -21.2400   -7.4260   23.5760 C   0  0  0  0  0  3  0  0  0  0  0  0
  -21.0200   -6.6710   24.7450 C   0  0  0  0  0  3  0  0  0  0  0  0
  -21.2590   -5.2850   24.7430 C   0  0  0  0  0  0  0  0  0  0  0  0
  -21.7290   -4.6520   23.5800 C   0  0  0  0  0  3  0  0  0  0  0  0
  -21.9550   -5.4030   22.4140 C   0  0  0  0  0  0  0  0  0  0  0  0
  -22.3870   -4.7880   21.2880 F   0  0  0  0  0  0  0  0  0  0  0  0
  -21.0390   -4.5550   25.8630 F   0  0  0  0  0  0  0  0  0  0  0  0
  -23.3990  -14.0380   20.9640 C   0  0  0  0  0  0  0  0  0  0  0  0
  -22.6440  -13.3920   21.8480 N   0  0  0  0  0  0  0  0  0  0  0  0
  -23.0220  -15.0920   20.4580 O   0  0  0  0  0  0  0  0  0  0  0  0
  -22.9560  -12.5420   22.2900 H   0  0  0  0  0  0  0  0  0  0  0  0
  -21.7340  -13.7660   22.0850 H   0  0  0  0  0  0  0  0  0  0  0  0
  -26.1050  -15.5370   20.1240 N   0  0  0  0  0  0  0  0  0  0  0  0
  -25.3840  -16.2200   20.3250 H   0  0  0  0  0  0  0  0  0  0  0  0
  -26.9620  -15.9540   19.7910 H   0  0  0  0  0  0  0  0  0  0  0  0
  -28.9080  -22.1010   20.8040 C   0  0  0  0  0  2  0  0  0  0  0  0
  -29.1610  -23.5930   20.2050 C   0  0  0  0  0  3  0  0  0  0  0  0
  -28.2510  -24.8270   20.7400 C   0  0  0  0  0  3  0  0  0  0  0  0
  -28.5520  -26.2840   20.4630 O   0  0  0  0  0  0  0  0  0  0  0  0
  -24.6670  -31.7670   23.2380 C   0  0  0  0  0  0  0  0  0  0  0  0
  -27.4600  -27.1790   20.3590 C   0  0  0  0  0  0  0  0  0  0  0  0
  -23.5580  -30.3370   21.5570 C   0  0  0  0  0  3  0  0  0  0  0  0
  -25.0940  -28.7940   20.2110 C   0  0  0  0  0  0  0  0  0  0  0  0
  -26.1020  -30.6820   21.4920 C   0  0  0  0  0  2  0  0  0  0  0  0
  -26.2300  -29.2960   20.8580 C   0  0  0  0  0  0  0  0  0  0  0  0
  -27.4160  -28.4950   20.9290 C   0  0  0  0  0  3  0  0  0  0  0  0
  -26.3100  -26.7560   19.6580 C   0  0  0  0  0  3  0  0  0  0  0  0
  -25.1370  -27.5350   19.5960 C   0  0  0  0  0  3  0  0  0  0  0  0
  -23.8440  -29.6530   20.1940 C   0  0  0  0  0  2  0  0  0  0  0  0
  -24.7910  -30.9500   22.1520 N   0  0  0  0  0  0  0  0  0  0  0  0
  -23.5590  -32.0310   23.7290 O   0  0  0  0  0  0  0  0  0  0  0  0
  -22.8740  -29.3200   22.5030 C   0  0  0  0  0  0  0  0  0  0  0  0
  -21.5560  -29.1230   22.3350 N   0  0  0  0  0  0  0  0  0  0  0  0
  -23.5330  -28.7090   23.3480 O   0  0  0  0  0  0  0  0  0  0  0  0
  -21.0830  -29.6690   21.6300 H   0  0  0  0  0  0  0  0  0  0  0  0
  -18.1860  -27.8690   22.7290 C   0  0  0  0  0  0  0  0  0  0  0  0
  -20.7280  -28.1750   23.0870 C   0  0  0  0  0  3  0  0  0  0  0  0
  -20.8770  -26.7440   22.5220 C   0  0  0  0  0  2  0  0  0  0  0  0
  -19.8150  -26.4000   21.4710 C   0  0  0  0  0  2  0  0  0  0  0  0
  -18.4120  -26.5210   22.0650 C   0  0  0  0  0  2  0  0  0  0  0  0
  -19.2750  -28.6550   23.1960 C   0  0  0  0  0  0  0  0  0  0  0  0
  -19.0130  -29.9150   23.7730 C   0  0  0  0  0  3  0  0  0  0  0  0
  -17.6960  -30.3960   23.8920 C   0  0  0  0  0  3  0  0  0  0  0  0
  -16.6200  -29.6090   23.4410 C   0  0  0  0  0  3  0  0  0  0  0  0
  -16.8660  -28.3490   22.8660 C   0  0  0  0  0  3  0  0  0  0  0  0
  -25.9140  -32.4310   23.9020 C   0  0  0  0  0  3  0  0  0  0  0  0
  -26.4020  -31.6760   25.1970 C   0  0  1  0  0  0  0  0  0  0  0  0
  -25.2760  -31.4090   26.2220 C   0  0  0  0  0  1  0  0  0  0  0  0
  -27.0420  -30.3150   24.8420 C   0  0  0  0  0  1  0  0  0  0  0  0
  -27.4970  -32.5070   25.9070 C   0  0  0  0  0  1  0  0  0  0  0  0
  -25.5630  -33.8230   24.2210 N   0  0  0  0  0  0  0  0  0  0  0  0
  -25.8850  -34.8850   23.4710 C   0  0  0  0  0  0  0  0  0  0  0  0
  -26.5890  -34.7990   22.4590 O   0  0  0  0  0  0  0  0  0  0  0  0
  -24.9450  -33.9600   25.0080 H   0  0  0  0  0  0  0  0  0  0  0  0
  -24.1170  -36.6300   23.0850 C   0  0  0  0  0  1  0  0  0  0  0  0
  -25.3550  -36.2610   23.9180 C   0  0  0  0  0  3  0  0  0  0  0  0
  -27.4480  -37.2100   24.7840 C   0  0  0  0  0  1  0  0  0  0  0  0
  -26.3610  -37.3440   23.8200 N   0  0  0  0  0  0  0  0  0  0  0  0
  -25.9230  -38.2490   23.9590 H   0  0  0  0  0  0  0  0  0  0  0  0
  1  7  1  0
  1 48  1  0
  2  1  1  0
  4  3  2  0
  5  3  1  0
  6  4  1  0
  7  5  2  0
  8  6  2  0
  8  7  1  0
  9  8  1  0
 11 16  1  0
 12 13  1  0
 12 11  1  0
 14 13  1  0
 14 23  1  0
 14 15  1  0
 16 10  1  0
 16 15  1  0
 17 10  2  0
 18 10  1  0
 18  6  1  0
 19 18  1  0
 20 21  2  0
 21 40  1  0
 22 21  1  0
 22 25  1  0
 23 24  1  0
 23 20  1  0
 24 22  2  0
 25 26  1  0
 26 27  2  0
 28 31  1  0
 28 27  1  0
 29 28  2  0
 30 29  1  0
 30 25  2  0
 31 32  1  0
 32 37  2  0
 32 33  1  0
 33 34  2  0
 35 34  1  0
 35 39  1  0
 36 35  2  0
 37 36  1  0
 38 37  1  0
 40 41  1  0
 41 44  1  0
 41 43  1  0
 42 40  2  0
 45 20  1  0
 45 46  1  0
 47 45  1  0
 49 50  2  0
 49 48  1  0
 51 50  1  0
 52 63  2  0
 53 51  1  0
 53 58  1  0
 54 62  1  0
 54 64  1  0
 55 57  1  0
 56 62  1  0
 57 58  2  0
 57 56  1  0
 59 53  2  0
 60 59  1  0
 60 55  2  0
 61 55  1  0
 61 54  1  0
 62 52  1  0
 64 66  2  0
 65 64  1  0
 67 65  1  0
 68 77  2  0
 68 73  1  0
 69 65  1  0
 69 73  1  0
 70 69  1  0
 71 72  1  0
 71 70  1  0
 72 68  1  0
 73 74  2  0
 74 75  1  0
 76 75  2  0
 77 76  1  0
 78 52  1  0
 78 83  1  0
 78 79  1  0
 79 82  1  1
 79 80  1  0
 81 79  1  0
 83 86  1  0
 84 88  1  0
 84 83  1  0
 85 84  2  0
 88 87  1  0
 90 88  1  0
 90 91  1  0
 90 89  1  0
M  ISO  4  10 100  18 100  50 101  51 101
M  END
>  <TORSDO>  (75) 
F 20

>  <SCORE>  (75) 
-12.811

>  <name>  (75) 
76

>  <ligand_id>  (75) 
76

>  <original_smiles>  (75) 
[H]c1c([H])c(N([H])C(=O)N2C([H])([H])C([H])([H])C([H])([H])C([H])(n3nc(-c4c([H])c([H])c(Oc5c([H])c([H])c(F)c([H])c5F)c([H])c4[H])c(C(=O)N([H])[H])c3N([H])[H])C2([H])[H])c(F)c(N([H])C([H])([H])C([H])([H])C([H])([H])Oc2c([H])c([H])c3c(c2[H])C([H])([H])N(C(=O)C([H])(N([H])C(=O)C([H])(N([H])C([H])([H])[H])C([H])([H])[H])C(C([H])([H])[H])(C([H])([H])[H])C([H])([H])[H])C([H])(C(=O)N([H])C2([H])c4c([H])c([H])c([H])c([H])c4C([H])([H])C([H])([H])C2([H])[H])C3([H])[H])c1[H]

>  <smiles>  (75) 
[H]c1c([H])c(N([H])C(=O)N2C([H])([H])C([H])([H])C([H])([H])C([H])(n3nc(-c4c([H])c([H])c(Oc5c([H])c([H])c(F)c([H])c5F)c([H])c4[H])c(C(=O)N([H])[H])c3N([H])[H])C2([H])[H])c(F)c(N([H])C([H])([H])C([H])([H])C([H])([H])Oc2c([H])c([H])c3c(c2[H])C([H])([H])N(C(=O)C([H])(N([H])C(=O)C([H])(N([H])C([H])([H])[H])C([H])([H])[H])C(C([H])([H])[H])(C([H])([H])[H])C([H])([H])[H])C([H])(C(=O)N([H])C2([H])c4c([H])c([H])c([H])c([H])c4C([H])([H])C([H])([H])C2([H])[H])C3([H])[H])c1[H]

$$$$
77:0:0
     RDKit          3D

 91 98  0  0  1  0  0  0  0  0999 V2000
  -29.2960  -22.7350   20.4180 N   0  0  0  0  0  0  0  0  0  0  0  0
  -29.8100  -22.8330   22.8840 C   0  0  0  0  0  1  0  0  0  0  0  0
  -31.0470  -24.3350   21.2460 C   0  0  0  0  0  1  0  0  0  0  0  0
  -30.3340  -22.9890   21.4400 C   0  0  0  0  0  3  0  0  0  0  0  0
  -28.2180  -23.8070   20.3920 C   0  0  0  0  0  2  0  0  0  0  0  0
  -28.4500  -25.1720   19.5700 C   0  0  0  0  0  2  0  0  0  0  0  0
  -28.3150  -26.5170   20.1850 O   0  0  0  0  0  0  0  0  0  0  0  0
  -24.5770  -31.8710   23.2220 C   0  0  0  0  0  0  0  0  0  0  0  0
  -27.1610  -27.3170   20.1210 C   0  0  0  0  0  0  0  0  0  0  0  0
  -23.3530  -30.4770   21.5890 C   0  0  0  0  0  3  0  0  0  0  0  0
  -24.7890  -28.9270   20.1380 C   0  0  0  0  0  0  0  0  0  0  0  0
  -25.8880  -30.7940   21.3800 C   0  0  0  0  0  2  0  0  0  0  0  0
  -25.9600  -29.4160   20.7270 C   0  0  0  0  0  0  0  0  0  0  0  0
  -27.1440  -28.6210   20.7090 C   0  0  0  0  0  3  0  0  0  0  0  0
  -25.9640  -26.8720   19.5180 C   0  0  0  0  0  3  0  0  0  0  0  0
  -24.7940  -27.6620   19.5210 C   0  0  0  0  0  3  0  0  0  0  0  0
  -23.5530  -29.8040   20.2030 C   0  0  0  0  0  2  0  0  0  0  0  0
  -24.6260  -31.0640   22.1220 N   0  0  0  0  0  0  0  0  0  0  0  0
  -23.4990  -32.1510   23.7690 O   0  0  0  0  0  0  0  0  0  0  0  0
  -22.7010  -29.4600   22.5550 C   0  0  0  0  0  0  0  0  0  0  0  0
  -21.3730  -29.2880   22.4420 N   0  0  0  0  0  0  0  0  0  0  0  0
  -23.3860  -28.8320   23.3660 O   0  0  0  0  0  0  0  0  0  0  0  0
  -20.8810  -29.8530   21.7640 H   0  0  0  0  0  0  0  0  0  0  0  0
  -17.9970  -28.0870   22.9620 C   0  0  0  0  0  0  0  0  0  0  0  0
  -20.5560  -28.3510   23.2150 C   0  0  0  0  0  3  0  0  0  0  0  0
  -20.6560  -26.9190   22.6390 C   0  0  0  0  0  2  0  0  0  0  0  0
  -19.5480  -26.5940   21.6320 C   0  0  0  0  0  2  0  0  0  0  0  0
  -18.1700  -26.7390   22.2830 C   0  0  0  0  0  2  0  0  0  0  0  0
  -19.1180  -28.8510   23.3840 C   0  0  0  0  0  0  0  0  0  0  0  0
  -18.9030  -30.1120   23.9800 C   0  0  0  0  0  3  0  0  0  0  0  0
  -17.6000  -30.6160   24.1500 C   0  0  0  0  0  3  0  0  0  0  0  0
  -16.4930  -29.8500   23.7430 C   0  0  0  0  0  3  0  0  0  0  0  0
  -16.6920  -28.5870   23.1560 C   0  0  0  0  0  3  0  0  0  0  0  0
  -25.8680  -32.5000   23.8350 C   0  0  0  0  0  3  0  0  0  0  0  0
  -25.5630  -33.8980   24.1740 N   0  0  0  0  0  0  0  0  0  0  0  0
  -25.8940  -34.9560   23.4200 C   0  0  0  0  0  0  0  0  0  0  0  0
  -26.5560  -34.8560   22.3850 O   0  0  0  0  0  0  0  0  0  0  0  0
  -24.9740  -34.0480   24.9800 H   0  0  0  0  0  0  0  0  0  0  0  0
  -24.1760  -36.7620   23.0820 C   0  0  0  0  0  1  0  0  0  0  0  0
  -25.4140  -36.3420   23.8890 C   0  0  0  0  0  3  0  0  0  0  0  0
  -27.5550  -37.2080   24.7280 C   0  0  0  0  0  1  0  0  0  0  0  0
  -26.4550  -37.3880   23.7850 N   0  0  0  0  0  0  0  0  0  0  0  0
  -26.0560  -38.3110   23.9390 H   0  0  0  0  0  0  0  0  0  0  0  0
  -26.3970  -31.7210   25.1030 C   0  0  1  0  0  0  0  0  0  0  0  0
  -25.3150  -31.4800   26.1820 C   0  0  0  0  0  1  0  0  0  0  0  0
  -26.9710  -30.3450   24.6990 C   0  0  0  0  0  1  0  0  0  0  0  0
  -27.5570  -32.5110   25.7550 C   0  0  0  0  0  1  0  0  0  0  0  0
  -28.8270  -21.2900   20.4650 C   0  0  0  0  0  2  0  0  0  0  0  0
  -30.6310  -20.1980   18.9920 C   0  0  0  0  0  1  0  0  0  0  0  0
  -29.9000  -20.0830   20.3440 C   0  0  0  0  0  3  0  0  0  0  0  0
  -29.3710  -18.6640   20.5770 N   0  0  0  0  0  4  0  0  0  0  0  0
  -28.9990  -18.6450   21.5140 H   0  0  0  0  0  0  0  0  0  0  0  0
  -28.5920  -18.5180   19.9550 H   0  0  0  0  0  0  0  0  0  0  0  0
  -30.3200  -17.4660   20.4300 C   0  0  0  0  0  3  0  0  0  0  0  0
  -29.8080  -16.0200   20.9080 C   0  0  0  0  0  3  0  0  0  0  0  0
  -30.6160  -14.7160   20.4660 C   0  0  0  0  0  0  0  0  0  0  0  0
  -30.4270  -12.4770   19.3800 C   0  0  0  0  0  2  0  0  0  0  0  0
  -29.5010  -12.6180   18.1500 C   0  0  0  0  0  2  0  0  0  0  0  0
  -28.0240  -12.4420   18.5570 C   0  0  0  0  0  2  0  0  0  0  0  0
  -27.6470  -13.2950   19.7960 C   0  0  0  0  0  3  0  0  0  0  0  0
  -28.6910  -13.1550   20.9250 C   0  0  0  0  0  2  0  0  0  0  0  0
  -30.0070  -13.4900   20.3700 N   0  0  0  0  0  0  0  0  0  0  0  0
  -31.7810  -14.8530   20.0800 O   0  0  0  0  0  0  0  0  0  0  0  0
  -25.2430  -13.8860   20.4790 C   0  0  0  0  0  0  0  0  0  0  0  0
  -24.1770  -13.1110   20.8410 C   0  0  0  0  0  0  0  0  0  0  0  0
  -24.6480  -11.7620   20.8320 C   0  0  0  0  0  0  0  0  0  0  0  0
  -26.2960  -13.0110   20.2660 N   0  0  0  0  0  0  0  0  0  0  0  0
  -25.9430  -11.7280   20.5410 N   0  0  0  0  0  0  0  0  0  0  0  0
  -23.9290  -10.4970   21.0220 C   0  0  0  0  0  0  0  0  0  0  0  0
  -24.3510   -9.5410   21.9730 C   0  0  0  0  0  3  0  0  0  0  0  0
  -23.6280   -8.3410   22.1500 C   0  0  0  0  0  3  0  0  0  0  0  0
  -22.4700   -8.0900   21.3770 C   0  0  0  0  0  0  0  0  0  0  0  0
  -22.0690   -9.0350   20.4160 C   0  0  0  0  0  3  0  0  0  0  0  0
  -22.7910  -10.2250   20.2360 C   0  0  0  0  0  3  0  0  0  0  0  0
  -21.7210   -6.9410   21.4620 O   0  0  0  0  0  0  0  0  0  0  0  0
  -21.6550   -6.2090   22.6200 C   0  0  0  0  0  0  0  0  0  0  0  0
  -21.2010   -6.7720   23.8320 C   0  0  0  0  0  3  0  0  0  0  0  0
  -21.0830   -5.9670   24.9820 C   0  0  0  0  0  3  0  0  0  0  0  0
  -21.4110   -4.5980   24.9210 C   0  0  0  0  0  0  0  0  0  0  0  0
  -21.8590   -4.0350   23.7130 C   0  0  0  0  0  3  0  0  0  0  0  0
  -21.9780   -4.8380   22.5660 C   0  0  0  0  0  0  0  0  0  0  0  0
  -22.3910   -4.2850   21.3990 F   0  0  0  0  0  0  0  0  0  0  0  0
  -21.2900   -3.8220   26.0230 F   0  0  0  0  0  0  0  0  0  0  0  0
  -22.7730  -13.5810   21.0860 C   0  0  0  0  0  0  0  0  0  0  0  0
  -22.0370  -12.8870   21.9470 N   0  0  0  0  0  0  0  0  0  0  0  0
  -22.3370  -14.6000   20.5510 O   0  0  0  0  0  0  0  0  0  0  0  0
  -22.4030  -12.0620   22.3970 H   0  0  0  0  0  0  0  0  0  0  0  0
  -21.0950  -13.1850   22.1580 H   0  0  0  0  0  0  0  0  0  0  0  0
  -25.4020  -15.2570   20.2910 N   0  0  0  0  0  0  0  0  0  0  0  0
  -24.6260  -15.9040   20.3770 H   0  0  0  0  0  0  0  0  0  0  0  0
  -26.2460  -15.6950   19.9480 H   0  0  0  0  0  0  0  0  0  0  0  0
  1 48  1  0
  1  4  1  0
  3  4  1  0
  4  2  1  0
  5  1  1  0
  6  7  1  0
  6  5  1  0
  8 19  2  0
  9  7  1  0
  9 14  1  0
 10 18  1  0
 10 20  1  0
 11 17  1  0
 11 13  1  0
 12 18  1  0
 13 12  1  0
 14 13  2  0
 15 16  1  0
 15  9  2  0
 16 11  2  0
 17 10  1  0
 18  8  1  0
 20 22  2  0
 21 20  1  0
 23 21  1  0
 24 33  2  0
 24 29  1  0
 25 21  1  0
 25 29  1  0
 26 25  1  0
 27 28  1  0
 27 26  1  0
 28 24  1  0
 29 30  2  0
 30 31  1  0
 32 31  2  0
 33 32  1  0
 34  8  1  0
 34 35  1  0
 34 44  1  0
 35 38  1  0
 36 40  1  0
 36 35  1  0
 37 36  2  0
 40 39  1  0
 42 40  1  0
 42 43  1  0
 42 41  1  0
 44 47  1  1
 44 45  1  0
 46 44  1  0
 50 49  1  0
 50 48  1  0
 50 51  1  0
 51 52  1  0
 53 51  1  0
 54 51  1  0
 54 55  2  0
 56 55  1  0
 57 62  1  0
 58 59  1  0
 58 57  1  0
 60 59  1  0
 60 67  1  0
 60 61  1  0
 62 56  1  0
 62 61  1  0
 63 56  2  0
 64 65  2  0
 65 84  1  0
 66 65  1  0
 66 69  1  0
 67 64  1  0
 67 68  1  0
 68 66  2  0
 69 70  1  0
 70 71  2  0
 72 75  1  0
 72 71  1  0
 73 72  2  0
 74 73  1  0
 74 69  2  0
 75 76  1  0
 76 77  1  0
 77 78  2  0
 79 78  1  0
 79 83  1  0
 80 79  2  0
 81 76  2  0
 81 80  1  0
 82 81  1  0
 84 85  1  0
 85 88  1  0
 85 87  1  0
 86 84  2  0
 89 90  1  0
 89 64  1  0
 91 89  1  0
M  ISO  4   6 101   7 101  55 100  56 100
M  END
>  <TORSDO>  (76) 
F 24

>  <SCORE>  (76) 
-12.552

>  <name>  (76) 
77

>  <ligand_id>  (76) 
77

>  <original_smiles>  (76) 
[H]c1c([H])c([H])c2c(c1[H])C([H])([H])C([H])([H])C([H])([H])C2([H])N([H])C(=O)C1([H])N(C(=O)C([H])(N([H])C(=O)C([H])(N([H])C([H])([H])[H])C([H])([H])[H])C(C([H])([H])[H])(C([H])([H])[H])C([H])([H])[H])C([H])([H])c2c([H])c(OC([H])([H])C([H])([H])N(C([H])([H])C([H])(C([H])([H])[H])[N+]([H])([H])C([H])([H])C([H])([H])C(=O)N3C([H])([H])C([H])([H])C([H])([H])C([H])(n4nc(-c5c([H])c([H])c(Oc6c([H])c([H])c(F)c([H])c6F)c([H])c5[H])c(C(=O)N([H])[H])c4N([H])[H])C3([H])[H])C([H])(C([H])([H])[H])C([H])([H])[H])c([H])c([H])c2C1([H])[H]

>  <smiles>  (76) 
[H]c1c([H])c([H])c2c(c1[H])C([H])([H])C([H])([H])C([H])([H])C2([H])N([H])C(=O)C1([H])N(C(=O)C([H])(N([H])C(=O)C([H])(N([H])C([H])([H])[H])C([H])([H])[H])C(C([H])([H])[H])(C([H])([H])[H])C([H])([H])[H])C([H])([H])c2c([H])c(OC([H])([H])C([H])([H])N(C([H])([H])C([H])(C([H])([H])[H])[N+]([H])([H])C([H])([H])C([H])([H])C(=O)N3C([H])([H])C([H])([H])C([H])([H])C([H])(n4nc(-c5c([H])c([H])c(Oc6c([H])c([H])c(F)c([H])c6F)c([H])c5[H])c(C(=O)N([H])[H])c4N([H])[H])C3([H])[H])C([H])(C([H])([H])[H])C([H])([H])[H])c([H])c([H])c2C1([H])[H]

$$$$
78:0:0
     RDKit          3D

 93100  0  0  1  0  0  0  0  0999 V2000
  -28.0990  -24.5020   20.1850 C   0  0  0  0  0  3  0  0  0  0  0  0
  -29.0100  -23.3000   20.1670 N   0  0  0  0  0  4  0  0  0  0  0  0
  -29.4050  -23.2390   19.2400 H   0  0  0  0  0  0  0  0  0  0  0  0
  -29.7800  -23.4680   20.7970 H   0  0  0  0  0  0  0  0  0  0  0  0
  -28.4590  -21.9400   20.4600 C   0  0  0  0  0  2  0  0  0  0  0  0
  -29.4660  -20.7920   20.1430 C   0  0  0  0  0  2  0  0  0  0  0  0
  -29.1610  -19.4100   20.7980 C   0  0  0  0  0  2  0  0  0  0  0  0
  -30.1810  -18.2900   20.4280 C   0  0  0  0  0  2  0  0  0  0  0  0
  -30.4220  -17.1970   21.5130 C   0  0  0  0  0  2  0  0  0  0  0  0
  -30.7180  -14.8700   20.5650 C   0  0  0  0  0  0  0  0  0  0  0  0
  -30.4930  -12.7310   19.3530 C   0  0  0  0  0  2  0  0  0  0  0  0
  -29.5540  -12.9200   18.1430 C   0  0  0  0  0  2  0  0  0  0  0  0
  -28.0800  -12.7460   18.5560 C   0  0  0  0  0  2  0  0  0  0  0  0
  -27.7120  -13.5580   19.8270 C   0  0  0  0  0  3  0  0  0  0  0  0
  -28.7560  -13.3320   20.9400 C   0  0  0  0  0  2  0  0  0  0  0  0
  -30.0760  -13.6820   20.3930 N   0  0  0  0  0  0  0  0  0  0  0  0
  -31.8480  -15.0940   20.1220 O   0  0  0  0  0  0  0  0  0  0  0  0
  -29.9870  -15.8380   21.1490 N   0  0  0  0  0  0  0  0  0  0  0  0
  -29.0560  -15.5730   21.4370 H   0  0  0  0  0  0  0  0  0  0  0  0
  -25.2900  -14.1150   20.4970 C   0  0  0  0  0  0  0  0  0  0  0  0
  -24.2330  -13.3170   20.8500 C   0  0  0  0  0  0  0  0  0  0  0  0
  -24.7270  -11.9770   20.8290 C   0  0  0  0  0  0  0  0  0  0  0  0
  -26.3580  -13.2560   20.2830 N   0  0  0  0  0  0  0  0  0  0  0  0
  -26.0220  -11.9660   20.5400 N   0  0  0  0  0  0  0  0  0  0  0  0
  -24.0280  -10.6980   21.0080 C   0  0  0  0  0  0  0  0  0  0  0  0
  -24.4570   -9.7490   21.9620 C   0  0  0  0  0  3  0  0  0  0  0  0
  -23.7570   -8.5340   22.1280 C   0  0  0  0  0  3  0  0  0  0  0  0
  -22.6150   -8.2610   21.3390 C   0  0  0  0  0  0  0  0  0  0  0  0
  -22.2060   -9.1980   20.3750 C   0  0  0  0  0  3  0  0  0  0  0  0
  -22.9060  -10.4040   20.2070 C   0  0  0  0  0  3  0  0  0  0  0  0
  -21.8880   -7.0970   21.4140 O   0  0  0  0  0  0  0  0  0  0  0  0
  -21.8090   -6.3700   22.5750 C   0  0  0  0  0  0  0  0  0  0  0  0
  -21.3070   -6.9280   23.7710 C   0  0  0  0  0  3  0  0  0  0  0  0
  -21.1790   -6.1270   24.9230 C   0  0  0  0  0  3  0  0  0  0  0  0
  -21.5430   -4.7690   24.8790 C   0  0  0  0  0  0  0  0  0  0  0  0
  -22.0380   -4.2090   23.6880 C   0  0  0  0  0  3  0  0  0  0  0  0
  -22.1680   -5.0080   22.5390 C   0  0  0  0  0  0  0  0  0  0  0  0
  -22.6260   -4.4590   21.3880 F   0  0  0  0  0  0  0  0  0  0  0  0
  -21.4130   -3.9960   25.9840 F   0  0  0  0  0  0  0  0  0  0  0  0
  -22.8220  -13.7620   21.0980 C   0  0  0  0  0  0  0  0  0  0  0  0
  -22.0980  -13.0500   21.9550 N   0  0  0  0  0  0  0  0  0  0  0  0
  -22.3680  -14.7760   20.5690 O   0  0  0  0  0  0  0  0  0  0  0  0
  -22.4780  -12.2320   22.4060 H   0  0  0  0  0  0  0  0  0  0  0  0
  -21.1490  -13.3280   22.1640 H   0  0  0  0  0  0  0  0  0  0  0  0
  -25.4310  -15.4880   20.3200 N   0  0  0  0  0  0  0  0  0  0  0  0
  -24.6540  -16.1320   20.4190 H   0  0  0  0  0  0  0  0  0  0  0  0
  -26.2800  -15.9390   20.0030 H   0  0  0  0  0  0  0  0  0  0  0  0
  -28.6130  -25.5780   19.1550 C   0  0  0  0  0  2  0  0  0  0  0  0
  -28.5010  -26.9780   19.5010 O   0  0  0  0  0  0  0  0  0  0  0  0
  -24.6590  -31.7970   23.0560 C   0  0  0  0  0  0  0  0  0  0  0  0
  -27.2890  -27.6460   19.5530 C   0  0  0  0  0  0  0  0  0  0  0  0
  -23.4240  -30.4800   21.3660 C   0  0  0  0  0  3  0  0  0  0  0  0
  -24.8550  -29.0910   19.7710 C   0  0  0  0  0  0  0  0  0  0  0  0
  -25.9320  -30.9200   21.0960 C   0  0  0  0  0  2  0  0  0  0  0  0
  -26.0230  -29.6020   20.3480 C   0  0  0  0  0  0  0  0  0  0  0  0
  -27.2370  -28.8850   20.2360 C   0  0  0  0  0  3  0  0  0  0  0  0
  -26.0970  -27.1470   18.9760 C   0  0  0  0  0  3  0  0  0  0  0  0
  -24.8870  -27.8630   19.0850 C   0  0  0  0  0  3  0  0  0  0  0  0
  -23.5910  -29.9060   19.9340 C   0  0  0  0  0  2  0  0  0  0  0  0
  -24.6930  -31.0790   21.8970 N   0  0  0  0  0  0  0  0  0  0  0  0
  -23.5950  -31.9980   23.6560 O   0  0  0  0  0  0  0  0  0  0  0  0
  -22.8420  -29.3770   22.2760 C   0  0  0  0  0  0  0  0  0  0  0  0
  -21.5240  -29.1400   22.1650 N   0  0  0  0  0  0  0  0  0  0  0  0
  -23.5710  -28.7360   23.0380 O   0  0  0  0  0  0  0  0  0  0  0  0
  -20.9930  -29.7160   21.5250 H   0  0  0  0  0  0  0  0  0  0  0  0
  -18.2190  -27.7510   22.6420 C   0  0  0  0  0  0  0  0  0  0  0  0
  -20.7670  -28.1180   22.8890 C   0  0  0  0  0  3  0  0  0  0  0  0
  -20.9270  -26.7300   22.2270 C   0  0  0  0  0  2  0  0  0  0  0  0
  -19.8230  -26.4150   21.2120 C   0  0  0  0  0  2  0  0  0  0  0  0
  -18.4470  -26.4550   21.8840 C   0  0  0  0  0  2  0  0  0  0  0  0
  -19.3070  -28.5410   23.1000 C   0  0  0  0  0  0  0  0  0  0  0  0
  -19.0400  -29.7560   23.7670 C   0  0  0  0  0  3  0  0  0  0  0  0
  -17.7170  -30.1830   23.9820 C   0  0  0  0  0  3  0  0  0  0  0  0
  -16.6430  -29.3900   23.5430 C   0  0  0  0  0  3  0  0  0  0  0  0
  -16.8950  -28.1740   22.8800 C   0  0  0  0  0  3  0  0  0  0  0  0
  -25.9540  -32.4210   23.6680 C   0  0  0  0  0  3  0  0  0  0  0  0
  -26.5620  -31.5610   24.8450 C   0  0  1  0  0  0  0  0  0  0  0  0
  -25.5370  -31.1950   25.9420 C   0  0  0  0  0  1  0  0  0  0  0  0
  -27.1720  -30.2460   24.3050 C   0  0  0  0  0  1  0  0  0  0  0  0
  -27.7180  -32.3420   25.5130 C   0  0  0  0  0  1  0  0  0  0  0  0
  -25.6160  -33.7710   24.1350 N   0  0  0  0  0  0  0  0  0  0  0  0
  -25.8990  -34.8990   23.4680 C   0  0  0  0  0  0  0  0  0  0  0  0
  -26.5420  -34.9110   22.4160 O   0  0  0  0  0  0  0  0  0  0  0  0
  -25.0390  -33.8320   24.9600 H   0  0  0  0  0  0  0  0  0  0  0  0
  -24.1150  -36.6670   23.3210 C   0  0  0  0  0  1  0  0  0  0  0  0
  -25.3860  -36.2240   24.0650 C   0  0  0  0  0  3  0  0  0  0  0  0
  -27.5140  -37.0900   24.9310 C   0  0  0  0  0  1  0  0  0  0  0  0
  -26.3870  -37.3110   24.0280 N   0  0  0  0  0  0  0  0  0  0  0  0
  -25.9600  -38.2020   24.2660 H   0  0  0  0  0  0  0  0  0  0  0  0
  -27.9280  -25.1080   21.6140 C   0  0  0  0  0  2  0  0  0  0  0  0
  -26.4810  -25.7500   23.5970 C   0  0  0  0  0  1  0  0  0  0  0  0
  -25.3490  -24.9020   21.5250 C   0  0  0  0  0  1  0  0  0  0  0  0
  -26.6190  -24.8100   22.3910 C   0  0  0  0  0  3  0  0  0  0  0  0
  1 48  1  0
  1 90  1  0
  2  1  1  0
  2  5  1  0
  2  4  1  0
  3  2  1  0
  6  5  1  0
  6  7  1  0
  8  7  1  0
  8  9  1  0
 10 18  1  0
 11 16  1  0
 12 13  1  0
 12 11  1  0
 14 13  1  0
 14 23  1  0
 14 15  1  0
 16 10  1  0
 16 15  1  0
 17 10  2  0
 18 19  1  0
 18  9  1  0
 20 21  2  0
 21 40  1  0
 22 21  1  0
 22 25  1  0
 23 20  1  0
 23 24  1  0
 24 22  2  0
 25 26  1  0
 26 27  2  0
 28 31  1  0
 28 27  1  0
 29 28  2  0
 30 29  1  0
 30 25  2  0
 31 32  1  0
 32 33  1  0
 33 34  2  0
 35 34  1  0
 35 39  1  0
 36 35  2  0
 37 32  2  0
 37 36  1  0
 38 37  1  0
 40 41  1  0
 41 44  1  0
 41 43  1  0
 42 40  2  0
 45 46  1  0
 45 20  1  0
 47 45  1  0
 48 49  1  0
 49 51  1  0
 50 61  2  0
 51 56  1  0
 52 60  1  0
 52 62  1  0
 53 59  1  0
 53 55  1  0
 54 60  1  0
 55 54  1  0
 56 55  2  0
 57 58  1  0
 57 51  2  0
 58 53  2  0
 59 52  1  0
 60 50  1  0
 62 64  2  0
 63 62  1  0
 65 63  1  0
 66 75  2  0
 66 71  1  0
 67 63  1  0
 67 71  1  0
 68 67  1  0
 69 70  1  0
 69 68  1  0
 70 66  1  0
 71 72  2  0
 72 73  1  0
 74 73  2  0
 75 74  1  0
 76 50  1  0
 76 81  1  0
 76 77  1  0
 77 80  1  1
 77 78  1  0
 79 77  1  0
 81 84  1  0
 82 86  1  0
 82 81  1  0
 83 82  2  0
 86 85  1  0
 88 86  1  0
 88 89  1  0
 88 87  1  0
 90 93  1  0
 92 93  1  0
 93 91  1  0
M  ISO  4  10 100  18 100  48 101  49 101
M  END
>  <TORSDO>  (77) 
F 25

>  <SCORE>  (77) 
-11.512

>  <name>  (77) 
78

>  <ligand_id>  (77) 
78

>  <original_smiles>  (77) 
[H]c1c([H])c([H])c2c(c1[H])C([H])([H])C([H])([H])C([H])([H])C2([H])N([H])C(=O)C1([H])N(C(=O)C([H])(N([H])C(=O)C([H])(N([H])C([H])([H])[H])C([H])([H])[H])C(C([H])([H])[H])(C([H])([H])[H])C([H])([H])[H])C([H])([H])c2c([H])c(OC([H])([H])C([H])(C([H])([H])C([H])(C([H])([H])[H])C([H])([H])[H])[N+]([H])([H])C([H])([H])C([H])([H])C([H])([H])C([H])([H])C([H])([H])N([H])C(=O)N3C([H])([H])C([H])([H])C([H])([H])C([H])(n4nc(-c5c([H])c([H])c(Oc6c([H])c([H])c(F)c([H])c6F)c([H])c5[H])c(C(=O)N([H])[H])c4N([H])[H])C3([H])[H])c([H])c([H])c2C1([H])[H]

>  <smiles>  (77) 
[H]c1c([H])c([H])c2c(c1[H])C([H])([H])C([H])([H])C([H])([H])C2([H])N([H])C(=O)C1([H])N(C(=O)C([H])(N([H])C(=O)C([H])(N([H])C([H])([H])[H])C([H])([H])[H])C(C([H])([H])[H])(C([H])([H])[H])C([H])([H])[H])C([H])([H])c2c([H])c(OC([H])([H])C([H])(C([H])([H])C([H])(C([H])([H])[H])C([H])([H])[H])[N+]([H])([H])C([H])([H])C([H])([H])C([H])([H])C([H])([H])C([H])([H])N([H])C(=O)N3C([H])([H])C([H])([H])C([H])([H])C([H])(n4nc(-c5c([H])c([H])c(Oc6c([H])c([H])c(F)c([H])c6F)c([H])c5[H])c(C(=O)N([H])[H])c4N([H])[H])C3([H])[H])c([H])c([H])c2C1([H])[H]

$$$$
79:0:0
     RDKit          3D

 85 93  0  0  1  0  0  0  0  0999 V2000
  -27.8690  -20.5330   20.2500 C   0  0  0  0  0  3  0  0  0  0  0  0
  -29.9410  -20.9170   20.2420 C   0  0  0  0  0  3  0  0  0  0  0  0
  -27.5530  -22.1030   20.2650 C   0  0  0  0  0  3  0  0  0  0  0  0
  -29.6220  -22.4840   20.2590 C   0  0  0  0  0  3  0  0  0  0  0  0
  -29.1170  -19.6110   20.2350 C   0  0  0  0  0  0  0  0  0  0  0  0
  -28.3750  -23.4100   20.2720 C   0  0  0  0  0  0  0  0  0  0  0  0
  -30.1350  -16.2720   20.1640 C   0  0  0  0  0  0  0  0  0  0  0  0
  -30.4150  -13.6120   19.3740 C   0  0  0  0  0  2  0  0  0  0  0  0
  -29.5800  -12.9620   18.2160 C   0  0  0  0  0  2  0  0  0  0  0  0
  -28.2080  -12.4820   18.7050 C   0  0  0  0  0  2  0  0  0  0  0  0
  -27.6220  -13.4990   19.7000 C   0  0  0  0  0  3  0  0  0  0  0  0
  -28.6220  -14.0210   20.7740 C   0  0  0  0  0  2  0  0  0  0  0  0
  -29.6930  -14.8130   20.0790 N   0  0  0  0  0  0  0  0  0  0  0  0
  -31.3800  -16.1530   20.0280 O   0  0  0  0  0  0  0  0  0  0  0  0
  -29.3210  -17.7340   20.2220 N   0  0  0  0  0  0  0  0  0  0  0  0
  -28.3760  -17.3810   20.2740 H   0  0  0  0  0  0  0  0  0  0  0  0
  -25.2700  -13.9480   20.5120 C   0  0  0  0  0  0  0  0  0  0  0  0
  -24.2310  -13.1450   20.8780 C   0  0  0  0  0  0  0  0  0  0  0  0
  -24.7240  -11.8040   20.8200 C   0  0  0  0  0  0  0  0  0  0  0  0
  -26.3290  -13.1030   20.2440 N   0  0  0  0  0  0  0  0  0  0  0  0
  -26.0170  -11.8020   20.4920 N   0  0  0  0  0  0  0  0  0  0  0  0
  -24.0140  -10.5290   21.0000 C   0  0  0  0  0  0  0  0  0  0  0  0
  -24.4420   -9.5660   21.9410 C   0  0  0  0  0  3  0  0  0  0  0  0
  -23.7250   -8.3630   22.1140 C   0  0  0  0  0  3  0  0  0  0  0  0
  -22.5630   -8.1110   21.3470 C   0  0  0  0  0  0  0  0  0  0  0  0
  -22.1520   -9.0620   20.3960 C   0  0  0  0  0  3  0  0  0  0  0  0
  -22.8690  -10.2570   20.2220 C   0  0  0  0  0  3  0  0  0  0  0  0
  -21.8180   -6.9590   21.4280 O   0  0  0  0  0  0  0  0  0  0  0  0
  -21.7340   -6.2350   22.5910 C   0  0  0  0  0  0  0  0  0  0  0  0
  -21.2190   -6.7950   23.7800 C   0  0  0  0  0  3  0  0  0  0  0  0
  -21.0870   -5.9970   24.9340 C   0  0  0  0  0  3  0  0  0  0  0  0
  -21.4570   -4.6390   24.8980 C   0  0  0  0  0  0  0  0  0  0  0  0
  -21.9650   -4.0790   23.7130 C   0  0  0  0  0  3  0  0  0  0  0  0
  -22.1000   -4.8740   22.5620 C   0  0  0  0  0  0  0  0  0  0  0  0
  -22.5680   -4.3230   21.4150 F   0  0  0  0  0  0  0  0  0  0  0  0
  -21.3240   -3.8690   26.0030 F   0  0  0  0  0  0  0  0  0  0  0  0
  -22.8300  -13.5980   21.1600 C   0  0  0  0  0  0  0  0  0  0  0  0
  -22.1210  -12.8920   22.0330 N   0  0  0  0  0  0  0  0  0  0  0  0
  -22.3730  -14.6170   20.6430 O   0  0  0  0  0  0  0  0  0  0  0  0
  -22.5050  -12.0690   22.4740 H   0  0  0  0  0  0  0  0  0  0  0  0
  -21.1810  -13.1790   22.2660 H   0  0  0  0  0  0  0  0  0  0  0  0
  -25.4000  -15.3240   20.3460 N   0  0  0  0  0  0  0  0  0  0  0  0
  -24.6150  -15.9550   20.4640 H   0  0  0  0  0  0  0  0  0  0  0  0
  -26.2250  -15.7790   19.9790 H   0  0  0  0  0  0  0  0  0  0  0  0
  -28.2040  -25.1520   20.3060 O   0  0  0  0  0  0  0  0  0  0  0  0
  -24.6990  -31.8750   23.1860 C   0  0  0  0  0  0  0  0  0  0  0  0
  -27.2260  -26.4850   20.2890 C   0  0  0  0  0  0  0  0  0  0  0  0
  -23.5350  -30.4560   21.5570 C   0  0  0  0  0  3  0  0  0  0  0  0
  -24.9910  -28.7300   20.1880 C   0  0  0  0  0  0  0  0  0  0  0  0
  -26.1260  -30.4990   21.4920 C   0  0  0  0  0  2  0  0  0  0  0  0
  -26.1870  -29.0250   20.8520 C   0  0  0  0  0  0  0  0  0  0  0  0
  -27.2670  -27.9420   20.8620 C   0  0  0  0  0  3  0  0  0  0  0  0
  -25.9970  -26.4900   19.5550 C   0  0  0  0  0  3  0  0  0  0  0  0
  -24.9550  -27.4910   19.5150 C   0  0  0  0  0  3  0  0  0  0  0  0
  -23.8000  -29.7230   20.2050 C   0  0  0  0  0  2  0  0  0  0  0  0
  -24.8140  -30.9850   22.1290 N   0  0  0  0  0  0  0  0  0  0  0  0
  -23.5970  -32.1920   23.6700 O   0  0  0  0  0  0  0  0  0  0  0  0
  -22.7800  -29.5160   22.5370 C   0  0  0  0  0  0  0  0  0  0  0  0
  -21.4440  -29.3840   22.4100 N   0  0  0  0  0  0  0  0  0  0  0  0
  -23.4160  -28.8980   23.3940 O   0  0  0  0  0  0  0  0  0  0  0  0
  -20.9760  -29.9330   21.7010 H   0  0  0  0  0  0  0  0  0  0  0  0
  -18.0400  -28.2000   22.9360 C   0  0  0  0  0  0  0  0  0  0  0  0
  -20.6050  -28.4590   23.1850 C   0  0  0  0  0  3  0  0  0  0  0  0
  -20.6930  -27.0230   22.6170 C   0  0  0  0  0  2  0  0  0  0  0  0
  -19.5880  -26.7060   21.6050 C   0  0  0  0  0  2  0  0  0  0  0  0
  -18.2090  -26.8540   22.2510 C   0  0  0  0  0  2  0  0  0  0  0  0
  -19.1640  -28.9620   23.3590 C   0  0  0  0  0  0  0  0  0  0  0  0
  -18.9470  -30.2160   23.9670 C   0  0  0  0  0  3  0  0  0  0  0  0
  -17.6430  -30.7140   24.1500 C   0  0  0  0  0  3  0  0  0  0  0  0
  -16.5350  -29.9530   23.7380 C   0  0  0  0  0  3  0  0  0  0  0  0
  -16.7340  -28.6970   23.1370 C   0  0  0  0  0  3  0  0  0  0  0  0
  -25.9420  -32.5460   23.8440 C   0  0  0  0  0  3  0  0  0  0  0  0
  -25.6070  -33.9530   24.1650 N   0  0  0  0  0  0  0  0  0  0  0  0
  -25.9340  -35.0200   23.4240 C   0  0  0  0  0  0  0  0  0  0  0  0
  -26.5960  -34.9260   22.3880 O   0  0  0  0  0  0  0  0  0  0  0  0
  -25.0120  -34.0970   24.9680 H   0  0  0  0  0  0  0  0  0  0  0  0
  -24.1920  -36.8230   23.1260 C   0  0  0  0  0  1  0  0  0  0  0  0
  -25.4560  -36.4120   23.9000 C   0  0  0  0  0  3  0  0  0  0  0  0
  -27.5990  -37.3240   24.6860 C   0  0  0  0  0  1  0  0  0  0  0  0
  -26.4820  -37.4700   23.7570 N   0  0  0  0  0  0  0  0  0  0  0  0
  -26.0730  -38.3910   23.8940 H   0  0  0  0  0  0  0  0  0  0  0  0
  -26.4160  -31.8110   25.1610 C   0  0  1  0  0  0  0  0  0  0  0  0
  -25.2890  -31.6010   26.2010 C   0  0  0  0  0  1  0  0  0  0  0  0
  -27.0110  -30.4230   24.8420 C   0  0  0  0  0  1  0  0  0  0  0  0
  -27.5460  -32.6230   25.8390 C   0  0  0  0  0  1  0  0  0  0  0  0
  1  3  1  0
  2  4  2  0
  3  6  2  0
  4  6  1  0
  5  2  1  0
  5  1  2  0
  6 45  1  0
  7 15  1  0
  8 13  1  0
  9 10  1  0
  9  8  1  0
 11 10  1  0
 11 20  1  0
 11 12  1  0
 13  7  1  0
 13 12  1  0
 14  7  2  0
 15  5  1  0
 15 16  1  0
 17 18  2  0
 18 37  1  0
 19 18  1  0
 19 22  1  0
 20 21  1  0
 20 17  1  0
 21 19  2  0
 22 23  1  0
 23 24  2  0
 25 28  1  0
 25 24  1  0
 26 25  2  0
 27 26  1  0
 27 22  2  0
 28 29  1  0
 29 30  1  0
 30 31  2  0
 32 31  1  0
 32 36  1  0
 33 32  2  0
 34 29  2  0
 34 33  1  0
 35 34  1  0
 37 38  1  0
 38 41  1  0
 38 40  1  0
 39 37  2  0
 42 43  1  0
 42 17  1  0
 44 42  1  0
 46 57  2  0
 47 45  1  0
 47 52  1  0
 48 56  1  0
 48 58  1  0
 49 55  1  0
 49 51  1  0
 50 56  1  0
 51 52  2  0
 51 50  1  0
 53 47  2  0
 54 53  1  0
 54 49  2  0
 55 48  1  0
 56 46  1  0
 58 60  2  0
 59 58  1  0
 61 59  1  0
 62 71  2  0
 62 67  1  0
 63 59  1  0
 63 67  1  0
 64 63  1  0
 65 66  1  0
 65 64  1  0
 66 62  1  0
 67 68  2  0
 68 69  1  0
 70 69  2  0
 71 70  1  0
 72 46  1  0
 72 73  1  0
 72 82  1  0
 73 76  1  0
 74 78  1  0
 74 73  1  0
 75 74  2  0
 78 77  1  0
 80 81  1  0
 80 78  1  0
 80 79  1  0
 82 85  1  1
 82 83  1  0
 84 82  1  0
M  ISO  4   6 101   7 100  15 100  45 101
M  END
>  <TORSDO>  (78) 
F 16

>  <SCORE>  (78) 
-16.478

>  <name>  (78) 
79

>  <ligand_id>  (78) 
79

>  <original_smiles>  (78) 
[H]c1c([H])c([H])c2c(c1[H])C([H])([H])C([H])([H])C([H])([H])C2([H])N([H])C(=O)C1([H])N(C(=O)C([H])(N([H])C(=O)C([H])(N([H])C([H])([H])[H])C([H])([H])[H])C(C([H])([H])[H])(C([H])([H])[H])C([H])([H])[H])C([H])([H])c2c([H])c(Oc3c([H])c([H])c(N([H])C(=O)N4C([H])([H])C([H])([H])C([H])([H])C([H])(n5nc(-c6c([H])c([H])c(Oc7c([H])c([H])c(F)c([H])c7F)c([H])c6[H])c(C(=O)N([H])[H])c5N([H])[H])C4([H])[H])c([H])c3[H])c([H])c([H])c2C1([H])[H]

>  <smiles>  (78) 
[H]c1c([H])c([H])c2c(c1[H])C([H])([H])C([H])([H])C([H])([H])C2([H])N([H])C(=O)C1([H])N(C(=O)C([H])(N([H])C(=O)C([H])(N([H])C([H])([H])[H])C([H])([H])[H])C(C([H])([H])[H])(C([H])([H])[H])C([H])([H])[H])C([H])([H])c2c([H])c(Oc3c([H])c([H])c(N([H])C(=O)N4C([H])([H])C([H])([H])C([H])([H])C([H])(n5nc(-c6c([H])c([H])c(Oc7c([H])c([H])c(F)c([H])c7F)c([H])c6[H])c(C(=O)N([H])[H])c5N([H])[H])C4([H])[H])c([H])c3[H])c([H])c([H])c2C1([H])[H]

$$$$
80:0:0
     RDKit          3D

 93100  0  0  1  0  0  0  0  0999 V2000
  -27.1880  -23.4210   19.4540 C   0  0  0  0  0  1  0  0  0  0  0  0
  -28.4620  -23.7530   20.2450 C   0  0  2  0  0  0  0  0  0  0  0  0
  -29.4980  -23.9660   19.2560 N   0  0  0  0  0  0  0  0  0  0  0  0
  -29.5700  -24.9830   19.2110 H   0  0  0  0  0  0  0  0  0  0  0  0
  -29.0880  -23.7380   18.3590 H   0  0  0  0  0  0  0  0  0  0  0  0
  -30.0560  -22.7480   22.0830 C   0  0  0  0  0  1  0  0  0  0  0  0
  -28.8670  -22.4610   21.1380 C   0  0  0  0  0  3  0  0  0  0  0  0
  -29.0750  -21.1670   20.3440 N   0  0  0  0  0  4  0  0  0  0  0  0
  -28.1980  -20.9490   19.9080 H   0  0  0  0  0  0  0  0  0  0  0  0
  -29.7160  -21.4150   19.6040 H   0  0  0  0  0  0  0  0  0  0  0  0
  -29.5840  -19.9050   21.0410 C   0  0  0  0  0  2  0  0  0  0  0  0
  -29.2970  -18.4510   20.4050 C   0  0  0  0  0  3  0  0  0  0  0  0
  -30.1540  -17.2270   21.0130 C   0  0  0  0  0  3  0  0  0  0  0  0
  -30.5570  -14.7000   20.3770 C   0  0  0  0  0  0  0  0  0  0  0  0
  -30.3690  -12.4460   19.3230 C   0  0  0  0  0  2  0  0  0  0  0  0
  -29.4120  -12.5120   18.1130 C   0  0  0  0  0  2  0  0  0  0  0  0
  -27.9470  -12.3440   18.5540 C   0  0  0  0  0  2  0  0  0  0  0  0
  -27.5820  -13.2380   19.7670 C   0  0  0  0  0  3  0  0  0  0  0  0
  -28.6430  -13.1350   20.8840 C   0  0  0  0  0  2  0  0  0  0  0  0
  -29.9420  -13.4760   20.2910 N   0  0  0  0  0  0  0  0  0  0  0  0
  -31.7220  -14.8450   19.9930 O   0  0  0  0  0  0  0  0  0  0  0  0
  -29.7780  -15.7740   20.7510 N   0  0  0  0  0  0  0  0  0  0  0  0
  -28.8500  -15.5080   21.0500 H   0  0  0  0  0  0  0  0  0  0  0  0
  -25.2050  -13.8540   20.5190 C   0  0  0  0  0  0  0  0  0  0  0  0
  -24.1430  -13.0850   20.9080 C   0  0  0  0  0  0  0  0  0  0  0  0
  -24.5980  -11.7320   20.8750 C   0  0  0  0  0  0  0  0  0  0  0  0
  -26.2390  -12.9660   20.2670 N   0  0  0  0  0  0  0  0  0  0  0  0
  -25.8830  -11.6880   20.5450 N   0  0  0  0  0  0  0  0  0  0  0  0
  -23.8680  -10.4740   21.0720 C   0  0  0  0  0  0  0  0  0  0  0  0
  -24.3280   -9.4900   21.9750 C   0  0  0  0  0  3  0  0  0  0  0  0
  -23.5980   -8.2950   22.1660 C   0  0  0  0  0  3  0  0  0  0  0  0
  -22.3950   -8.0780   21.4520 C   0  0  0  0  0  0  0  0  0  0  0  0
  -21.9550   -9.0500   20.5370 C   0  0  0  0  0  3  0  0  0  0  0  0
  -22.6840  -10.2350   20.3450 C   0  0  0  0  0  3  0  0  0  0  0  0
  -21.6340   -6.9380   21.5510 O   0  0  0  0  0  0  0  0  0  0  0  0
  -21.6420   -6.1640   22.6860 C   0  0  0  0  0  0  0  0  0  0  0  0
  -21.3110   -6.6940   23.9520 C   0  0  0  0  0  3  0  0  0  0  0  0
  -21.2650   -5.8490   25.0790 C   0  0  0  0  0  3  0  0  0  0  0  0
  -21.5350   -4.4740   24.9390 C   0  0  0  0  0  0  0  0  0  0  0  0
  -21.8570   -3.9440   23.6770 C   0  0  0  0  0  3  0  0  0  0  0  0
  -21.9070   -4.7870   22.5540 C   0  0  0  0  0  0  0  0  0  0  0  0
  -22.1940   -4.2650   21.3370 F   0  0  0  0  0  0  0  0  0  0  0  0
  -21.4830   -3.6620   26.0200 F   0  0  0  0  0  0  0  0  0  0  0  0
  -22.7490  -13.5650   21.1950 C   0  0  0  0  0  0  0  0  0  0  0  0
  -22.0330  -12.8790   22.0790 N   0  0  0  0  0  0  0  0  0  0  0  0
  -22.3080  -14.5890   20.6760 O   0  0  0  0  0  0  0  0  0  0  0  0
  -22.4130  -12.0540   22.5200 H   0  0  0  0  0  0  0  0  0  0  0  0
  -21.0960  -13.1780   22.3080 H   0  0  0  0  0  0  0  0  0  0  0  0
  -25.3790  -15.2250   20.3420 N   0  0  0  0  0  0  0  0  0  0  0  0
  -24.6120  -15.8800   20.4630 H   0  0  0  0  0  0  0  0  0  0  0  0
  -26.2140  -15.6590   19.9720 H   0  0  0  0  0  0  0  0  0  0  0  0
  -28.2510  -25.1880   20.9630 C   0  0  0  0  0  2  0  0  0  0  0  0
  -28.3280  -26.4510   20.1800 O   0  0  0  0  0  0  0  0  0  0  0  0
  -24.6450  -31.8700   23.2200 C   0  0  0  0  0  0  0  0  0  0  0  0
  -27.2210  -27.3080   20.1780 C   0  0  0  0  0  0  0  0  0  0  0  0
  -23.4290  -30.4720   21.5890 C   0  0  0  0  0  3  0  0  0  0  0  0
  -24.8690  -28.9290   20.1480 C   0  0  0  0  0  0  0  0  0  0  0  0
  -25.9660  -30.7990   21.3800 C   0  0  0  0  0  2  0  0  0  0  0  0
  -26.0420  -29.4180   20.7380 C   0  0  0  0  0  0  0  0  0  0  0  0
  -27.2280  -28.6220   20.7350 C   0  0  0  0  0  3  0  0  0  0  0  0
  -26.0290  -26.8660   19.5700 C   0  0  0  0  0  3  0  0  0  0  0  0
  -24.8690  -27.6610   19.5430 C   0  0  0  0  0  3  0  0  0  0  0  0
  -23.6310  -29.8030   20.2040 C   0  0  0  0  0  2  0  0  0  0  0  0
  -24.7000  -31.0640   22.1220 N   0  0  0  0  0  0  0  0  0  0  0  0
  -23.5660  -32.1440   23.7660 O   0  0  0  0  0  0  0  0  0  0  0  0
  -22.7770  -29.4500   22.5520 C   0  0  0  0  0  0  0  0  0  0  0  0
  -21.4490  -29.2700   22.4360 N   0  0  0  0  0  0  0  0  0  0  0  0
  -23.4630  -28.8220   23.3620 O   0  0  0  0  0  0  0  0  0  0  0  0
  -20.9570  -29.8260   21.7500 H   0  0  0  0  0  0  0  0  0  0  0  0
  -18.0790  -28.0680   22.9510 C   0  0  0  0  0  0  0  0  0  0  0  0
  -20.6360  -28.3340   23.2140 C   0  0  0  0  0  3  0  0  0  0  0  0
  -20.7410  -26.9010   22.6420 C   0  0  0  0  0  2  0  0  0  0  0  0
  -19.6360  -26.5710   21.6340 C   0  0  0  0  0  2  0  0  0  0  0  0
  -18.2560  -26.7160   22.2800 C   0  0  0  0  0  2  0  0  0  0  0  0
  -19.1950  -28.8340   23.3750 C   0  0  0  0  0  0  0  0  0  0  0  0
  -18.9730  -30.0990   23.9630 C   0  0  0  0  0  3  0  0  0  0  0  0
  -17.6660  -30.5970   24.1260 C   0  0  0  0  0  3  0  0  0  0  0  0
  -16.5640  -29.8280   23.7190 C   0  0  0  0  0  3  0  0  0  0  0  0
  -16.7710  -28.5630   23.1370 C   0  0  0  0  0  3  0  0  0  0  0  0
  -25.9320  -32.5040   23.8300 C   0  0  0  0  0  3  0  0  0  0  0  0
  -25.6190  -33.8960   24.1770 N   0  0  0  0  0  0  0  0  0  0  0  0
  -25.9380  -34.9580   23.4230 C   0  0  0  0  0  0  0  0  0  0  0  0
  -26.5910  -34.8680   22.3820 O   0  0  0  0  0  0  0  0  0  0  0  0
  -25.0370  -34.0410   24.9880 H   0  0  0  0  0  0  0  0  0  0  0  0
  -24.1900  -36.7400   23.1170 C   0  0  0  0  0  1  0  0  0  0  0  0
  -25.4500  -36.3400   23.9010 C   0  0  0  0  0  3  0  0  0  0  0  0
  -27.6000  -37.2240   24.6920 C   0  0  0  0  0  1  0  0  0  0  0  0
  -26.4760  -37.4010   23.7770 N   0  0  0  0  0  0  0  0  0  0  0  0
  -26.0690  -38.3170   23.9460 H   0  0  0  0  0  0  0  0  0  0  0  0
  -26.4690  -31.7230   25.0900 C   0  0  1  0  0  0  0  0  0  0  0  0
  -25.3900  -31.4730   26.1710 C   0  0  0  0  0  1  0  0  0  0  0  0
  -27.0450  -30.3500   24.6730 C   0  0  0  0  0  1  0  0  0  0  0  0
  -27.6320  -32.5110   25.7360 C   0  0  0  0  0  1  0  0  0  0  0  0
  2  1  1  6
  2 52  1  0
  2  7  1  0
  3  2  1  0
  4  3  1  0
  5  3  1  0
  7  6  1  0
  8 11  1  0
  8  7  1  0
  9  8  1  0
 10  8  1  0
 12 13  2  0
 12 11  1  0
 14 22  1  0
 15 20  1  0
 16 17  1  0
 16 15  1  0
 18 17  1  0
 18 27  1  0
 18 19  1  0
 20 14  1  0
 20 19  1  0
 21 14  2  0
 22 13  1  0
 22 23  1  0
 24 25  2  0
 25 44  1  0
 26 25  1  0
 26 29  1  0
 27 24  1  0
 27 28  1  0
 28 26  2  0
 29 30  1  0
 30 31  2  0
 32 35  1  0
 32 31  1  0
 33 32  2  0
 34 33  1  0
 34 29  2  0
 35 36  1  0
 36 37  1  0
 37 38  2  0
 39 38  1  0
 39 43  1  0
 40 39  2  0
 41 36  2  0
 41 40  1  0
 42 41  1  0
 44 45  1  0
 45 48  1  0
 45 47  1  0
 46 44  2  0
 49 50  1  0
 49 24  1  0
 51 49  1  0
 53 52  1  0
 54 65  2  0
 55 53  1  0
 55 60  1  0
 56 64  1  0
 56 66  1  0
 57 63  1  0
 57 59  1  0
 58 64  1  0
 59 58  1  0
 60 59  2  0
 61 55  2  0
 62 61  1  0
 62 57  2  0
 63 56  1  0
 64 54  1  0
 66 68  2  0
 67 66  1  0
 69 67  1  0
 70 79  2  0
 70 75  1  0
 71 67  1  0
 71 75  1  0
 72 71  1  0
 73 74  1  0
 73 72  1  0
 74 70  1  0
 75 76  2  0
 76 77  1  0
 78 77  2  0
 79 78  1  0
 80 54  1  0
 80 81  1  0
 80 90  1  0
 81 84  1  0
 82 86  1  0
 82 81  1  0
 83 82  2  0
 86 85  1  0
 88 86  1  0
 88 89  1  0
 88 87  1  0
 90 93  1  1
 90 91  1  0
 92 90  1  0
M  ISO  4  14 100  22 100  52 101  53 101
M  END
>  <TORSDO>  (79) 
F 23

>  <SCORE>  (79) 
-12.863

>  <name>  (79) 
80

>  <ligand_id>  (79) 
80

>  <original_smiles>  (79) 
[H]c1c([H])c([H])c2c(c1[H])C([H])([H])C([H])([H])C([H])([H])C2([H])N([H])C(=O)C1([H])N(C(=O)C([H])(N([H])C(=O)C([H])(N([H])C([H])([H])[H])C([H])([H])[H])C(C([H])([H])[H])(C([H])([H])[H])C([H])([H])[H])C([H])([H])c2c([H])c(OC([H])([H])C(N([H])[H])(C([H])([H])[H])C([H])(C([H])([H])[H])[N+]([H])([H])C([H])([H])C([H])([H])C([H])([H])N([H])C(=O)N3C([H])([H])C([H])([H])C([H])([H])C([H])(n4nc(-c5c([H])c([H])c(Oc6c([H])c([H])c(F)c([H])c6F)c([H])c5[H])c(C(=O)N([H])[H])c4N([H])[H])C3([H])[H])c([H])c([H])c2C1([H])[H]

>  <smiles>  (79) 
[H]c1c([H])c([H])c2c(c1[H])C([H])([H])C([H])([H])C([H])([H])C2([H])N([H])C(=O)C1([H])N(C(=O)C([H])(N([H])C(=O)C([H])(N([H])C([H])([H])[H])C([H])([H])[H])C(C([H])([H])[H])(C([H])([H])[H])C([H])([H])[H])C([H])([H])c2c([H])c(OC([H])([H])C(N([H])[H])(C([H])([H])[H])C([H])(C([H])([H])[H])[N+]([H])([H])C([H])([H])C([H])([H])C([H])([H])N([H])C(=O)N3C([H])([H])C([H])([H])C([H])([H])C([H])(n4nc(-c5c([H])c([H])c(Oc6c([H])c([H])c(F)c([H])c6F)c([H])c5[H])c(C(=O)N([H])[H])c4N([H])[H])C3([H])[H])c([H])c([H])c2C1([H])[H]

$$$$
81:0:0
     RDKit          3D

 97105  0  0  1  0  0  0  0  0999 V2000
  -30.0370  -18.1980   17.5050 C   0  0  0  0  0  3  0  0  0  0  0  0
  -30.4530  -19.3940   18.1220 C   0  0  0  0  0  3  0  0  0  0  0  0
  -30.2050  -16.9590   18.1520 C   0  0  0  0  0  3  0  0  0  0  0  0
  -31.2190  -18.1070   20.0380 C   0  0  0  0  0  3  0  0  0  0  0  0
  -31.0430  -19.3670   19.4040 C   0  0  0  0  0  0  0  0  0  0  0  0
  -30.8070  -16.8830   19.4300 C   0  0  0  0  0  0  0  0  0  0  0  0
  -31.4590  -14.5370   19.3510 C   0  0  0  0  0  0  0  0  0  0  0  0
  -30.7910  -12.5160   18.0870 C   0  0  0  0  0  2  0  0  0  0  0  0
  -29.6380  -12.8320   17.1110 C   0  0  0  0  0  2  0  0  0  0  0  0
  -28.2670  -12.7360   17.8140 C   0  0  0  0  0  2  0  0  0  0  0  0
  -28.2350  -13.4750   19.1790 C   0  0  0  0  0  3  0  0  0  0  0  0
  -29.4700  -13.1050   20.0250 C   0  0  0  0  0  2  0  0  0  0  0  0
  -30.6700  -13.4270   19.2400 N   0  0  0  0  0  0  0  0  0  0  0  0
  -32.4720  -14.6820   18.6570 O   0  0  0  0  0  0  0  0  0  0  0  0
  -30.9800  -15.5920   20.0730 N   0  0  0  0  0  0  0  0  0  0  0  0
  -26.1080  -14.1280   20.4700 C   0  0  0  0  0  0  0  0  0  0  0  0
  -25.0670  -13.3840   20.9520 C   0  0  0  0  0  0  0  0  0  0  0  0
  -25.3720  -12.0250   20.6410 C   0  0  0  0  0  0  0  0  0  0  0  0
  -26.9890  -13.2230   19.8990 N   0  0  0  0  0  0  0  0  0  0  0  0
  -26.5630  -11.9450   20.0580 N   0  0  0  0  0  0  0  0  0  0  0  0
  -24.5800  -10.8030   20.8160 C   0  0  0  0  0  0  0  0  0  0  0  0
  -24.9960   -9.7700   21.6850 C   0  0  0  0  0  3  0  0  0  0  0  0
  -24.2090   -8.6100   21.8500 C   0  0  0  0  0  3  0  0  0  0  0  0
  -22.9870   -8.4770   21.1480 C   0  0  0  0  0  0  0  0  0  0  0  0
  -22.5860   -9.4970   20.2670 C   0  0  0  0  0  3  0  0  0  0  0  0
  -23.3730  -10.6480   20.1000 C   0  0  0  0  0  3  0  0  0  0  0  0
  -22.1690   -7.3740   21.2280 O   0  0  0  0  0  0  0  0  0  0  0  0
  -21.9700   -6.7090   22.4110 C   0  0  0  0  0  0  0  0  0  0  0  0
  -21.4270   -7.3520   23.5450 C   0  0  0  0  0  3  0  0  0  0  0  0
  -21.1700   -6.6140   24.7190 C   0  0  0  0  0  3  0  0  0  0  0  0
  -21.4510   -5.2360   24.7570 C   0  0  0  0  0  0  0  0  0  0  0  0
  -21.9880   -4.5920   23.6280 C   0  0  0  0  0  3  0  0  0  0  0  0
  -22.2440   -5.3270   22.4570 C   0  0  0  0  0  0  0  0  0  0  0  0
  -22.7430   -4.6990   21.3650 F   0  0  0  0  0  0  0  0  0  0  0  0
  -21.2000   -4.5240   25.8800 F   0  0  0  0  0  0  0  0  0  0  0  0
  -23.8110  -13.9140   21.5830 C   0  0  0  0  0  0  0  0  0  0  0  0
  -23.2180  -13.1580   22.4990 N   0  0  0  0  0  0  0  0  0  0  0  0
  -23.3750  -15.0270   21.2990 O   0  0  0  0  0  0  0  0  0  0  0  0
  -23.5920  -12.2560   22.7560 H   0  0  0  0  0  0  0  0  0  0  0  0
  -22.3820  -13.4930   22.9580 H   0  0  0  0  0  0  0  0  0  0  0  0
  -26.3720  -15.4940   20.4490 N   0  0  0  0  0  0  0  0  0  0  0  0
  -25.6640  -16.1650   20.7200 H   0  0  0  0  0  0  0  0  0  0  0  0
  -27.1530  -15.9170   19.9640 H   0  0  0  0  0  0  0  0  0  0  0  0
  -31.0590  -15.5300   21.5500 C   0  0  0  0  0  2  0  0  0  0  0  0
  -30.1370  -16.5750   22.2320 C   0  0  0  0  0  2  0  0  0  0  0  0
  -30.4320  -16.7500   23.6650 N   0  0  0  0  0  4  0  0  0  0  0  0
  -30.2360  -15.9110   24.1830 H   0  0  0  0  0  0  0  0  0  0  0  0
  -29.8520  -17.4800   24.0380 H   0  0  0  0  0  0  0  0  0  0  0  0
  -31.3900  -17.0110   23.8200 H   0  0  0  0  0  0  0  0  0  0  0  0
  -31.5320  -20.6510   20.1090 C   0  0  0  0  0  2  0  0  0  0  0  0
  -30.9550  -21.9320   19.6070 N   0  0  0  0  0  4  0  0  0  0  0  0
  -29.9820  -21.7750   19.3910 H   0  0  0  0  0  0  0  0  0  0  0  0
  -31.4320  -22.1690   18.7530 H   0  0  0  0  0  0  0  0  0  0  0  0
  -31.0390  -23.0750   20.5650 C   0  0  0  0  0  2  0  0  0  0  0  0
  -30.8200  -24.4920   19.9470 C   0  0  0  0  0  2  0  0  0  0  0  0
  -29.6190  -25.2730   20.5420 C   0  0  0  0  0  2  0  0  0  0  0  0
  -29.5850  -26.6550   20.1350 O   0  0  0  0  0  0  0  0  0  0  0  0
  -24.7910  -31.0900   23.0590 C   0  0  0  0  0  0  0  0  0  0  0  0
  -28.3300  -27.2310   20.0680 C   0  0  0  0  0  0  0  0  0  0  0  0
  -23.9670  -29.6370   21.2380 C   0  0  0  0  0  3  0  0  0  0  0  0
  -25.7580  -28.4040   19.9030 C   0  0  0  0  0  0  0  0  0  0  0  0
  -26.4270  -30.3370   21.3390 C   0  0  0  0  0  2  0  0  0  0  0  0
  -26.7670  -29.0370   20.6400 C   0  0  0  0  0  0  0  0  0  0  0  0
  -28.0580  -28.4590   20.7190 C   0  0  0  0  0  3  0  0  0  0  0  0
  -27.3050  -26.6220   19.3100 C   0  0  0  0  0  3  0  0  0  0  0  0
  -26.0220  -27.1960   19.2330 C   0  0  0  0  0  3  0  0  0  0  0  0
  -24.4060  -29.0820   19.8580 C   0  0  0  0  0  2  0  0  0  0  0  0
  -25.0700  -30.3710   21.9360 N   0  0  0  0  0  0  0  0  0  0  0  0
  -23.6320  -31.1820   23.4930 O   0  0  0  0  0  0  0  0  0  0  0  0
  -23.3740  -28.4800   22.0750 C   0  0  0  0  0  0  0  0  0  0  0  0
  -22.1140  -28.1160   21.7870 N   0  0  0  0  0  0  0  0  0  0  0  0
  -24.0490  -27.9150   22.9400 O   0  0  0  0  0  0  0  0  0  0  0  0
  -21.6320  -28.6290   21.0640 H   0  0  0  0  0  0  0  0  0  0  0  0
  -18.9220  -26.4220   21.8330 C   0  0  0  0  0  0  0  0  0  0  0  0
  -21.3650  -27.0310   22.4170 C   0  0  0  0  0  3  0  0  0  0  0  0
  -21.7480  -25.6630   21.8040 C   0  0  0  0  0  2  0  0  0  0  0  0
  -20.8260  -25.2440   20.6540 C   0  0  0  0  0  2  0  0  0  0  0  0
  -19.3750  -25.1510   21.1340 C   0  0  0  0  0  2  0  0  0  0  0  0
  -19.8580  -27.3120   22.4220 C   0  0  0  0  0  0  0  0  0  0  0  0
  -19.3880  -28.4970   23.0290 C   0  0  0  0  0  3  0  0  0  0  0  0
  -18.0120  -28.7930   23.0590 C   0  0  0  0  0  3  0  0  0  0  0  0
  -17.0890  -27.9010   22.4890 C   0  0  0  0  0  3  0  0  0  0  0  0
  -17.5430  -26.7170   21.8810 C   0  0  0  0  0  3  0  0  0  0  0  0
  -25.9050  -31.8510   23.8420 C   0  0  0  0  0  3  0  0  0  0  0  0
  -25.3920  -33.1930   24.1470 N   0  0  0  0  0  0  0  0  0  0  0  0
  -25.6770  -34.2950   23.4380 C   0  0  0  0  0  0  0  0  0  0  0  0
  -26.4660  -34.2960   22.4900 O   0  0  0  0  0  0  0  0  0  0  0  0
  -24.6990  -33.2590   24.8770 H   0  0  0  0  0  0  0  0  0  0  0  0
  -23.7840  -35.8640   22.9110 C   0  0  0  0  0  1  0  0  0  0  0  0
  -24.9730  -35.6030   23.8490 C   0  0  0  0  0  3  0  0  0  0  0  0
  -26.8770  -36.7270   24.9160 C   0  0  0  0  0  1  0  0  0  0  0  0
  -25.8720  -36.7780   23.8560 N   0  0  0  0  0  0  0  0  0  0  0  0
  -25.3410  -37.6380   23.9630 H   0  0  0  0  0  0  0  0  0  0  0  0
  -26.3570  -31.1140   25.1630 C   0  0  1  0  0  0  0  0  0  0  0  0
  -25.1840  -30.7210   26.0900 C   0  0  0  0  0  1  0  0  0  0  0  0
  -27.1470  -29.8270   24.8300 C   0  0  0  0  0  1  0  0  0  0  0  0
  -27.3170  -32.0250   25.9660 C   0  0  0  0  0  1  0  0  0  0  0  0
  1  2  2  0
  1  3  1  0
  2  5  1  0
  3  6  2  0
  5  4  2  0
  5 50  1  0
  6  4  1  0
  6 15  1  0
  7 15  1  0
  8 13  1  0
  9 10  1  0
  9  8  1  0
 11 10  1  0
 11 19  1  0
 11 12  1  0
 13  7  1  0
 13 12  1  0
 14  7  2  0
 15 44  1  0
 16 17  2  0
 17 36  1  0
 18 21  1  0
 18 17  1  0
 19 20  1  0
 19 16  1  0
 20 18  2  0
 21 22  1  0
 22 23  2  0
 24 27  1  0
 24 23  1  0
 25 24  2  0
 26 25  1  0
 26 21  2  0
 27 28  1  0
 28 33  2  0
 28 29  1  0
 29 30  2  0
 30 31  1  0
 31 35  1  0
 32 31  2  0
 33 32  1  0
 34 33  1  0
 36 37  1  0
 37 39  1  0
 37 40  1  0
 38 36  2  0
 41 16  1  0
 41 42  1  0
 43 41  1  0
 44 45  1  0
 45 46  1  0
 46 49  1  0
 46 48  1  0
 46 47  1  0
 51 50  1  0
 51 54  1  0
 52 51  1  0
 53 51  1  0
 55 56  1  0
 55 54  1  0
 57 56  1  0
 58 69  2  0
 59 57  1  0
 59 64  1  0
 60 68  1  0
 60 70  1  0
 61 63  1  0
 62 68  1  0
 63 64  2  0
 63 62  1  0
 65 59  2  0
 66 65  1  0
 66 61  2  0
 67 61  1  0
 67 60  1  0
 68 58  1  0
 70 72  2  0
 71 70  1  0
 73 71  1  0
 74 83  2  0
 74 79  1  0
 75 71  1  0
 75 79  1  0
 76 75  1  0
 77 78  1  0
 77 76  1  0
 78 74  1  0
 79 80  2  0
 80 81  1  0
 82 81  2  0
 83 82  1  0
 84 58  1  0
 84 85  1  0
 84 94  1  0
 85 88  1  0
 86 90  1  0
 86 85  1  0
 87 86  2  0
 90 89  1  0
 90 92  1  0
 92 93  1  0
 92 91  1  0
 94 97  1  1
 94 95  1  0
 96 94  1  0
M  ISO  4   7 100  15 100  56 101  57 101
M  END
>  <TORSDO>  (80) 
F 24

>  <SCORE>  (80) 
-7.247

>  <name>  (80) 
81

>  <ligand_id>  (80) 
81

>  <original_smiles>  (80) 
[H]c1c([H])c([H])c2c(c1[H])C([H])([H])C([H])([H])C([H])([H])C2([H])N([H])C(=O)C1([H])N(C(=O)C([H])(N([H])C(=O)C([H])(N([H])C([H])([H])[H])C([H])([H])[H])C(C([H])([H])[H])(C([H])([H])[H])C([H])([H])[H])C([H])([H])c2c([H])c(OC([H])([H])C([H])([H])C([H])([H])[N+]([H])([H])C([H])([H])c3c([H])c([H])c([H])c(N(C(=O)N4C([H])([H])C([H])([H])C([H])([H])C([H])(n5nc(-c6c([H])c([H])c(Oc7c([H])c([H])c(F)c([H])c7F)c([H])c6[H])c(C(=O)N([H])[H])c5N([H])[H])C4([H])[H])C([H])([H])C([H])([H])[N+]([H])([H])[H])c3[H])c([H])c([H])c2C1([H])[H]

>  <smiles>  (80) 
[H]c1c([H])c([H])c2c(c1[H])C([H])([H])C([H])([H])C([H])([H])C2([H])N([H])C(=O)C1([H])N(C(=O)C([H])(N([H])C(=O)C([H])(N([H])C([H])([H])[H])C([H])([H])[H])C(C([H])([H])[H])(C([H])([H])[H])C([H])([H])[H])C([H])([H])c2c([H])c(OC([H])([H])C([H])([H])C([H])([H])[N+]([H])([H])C([H])([H])c3c([H])c([H])c([H])c(N(C(=O)N4C([H])([H])C([H])([H])C([H])([H])C([H])(n5nc(-c6c([H])c([H])c(Oc7c([H])c([H])c(F)c([H])c7F)c([H])c6[H])c(C(=O)N([H])[H])c5N([H])[H])C4([H])[H])C([H])([H])C([H])([H])[N+]([H])([H])[H])c3[H])c([H])c([H])c2C1([H])[H]

$$$$
82:0:0
     RDKit          3D

 95102  0  0  1  0  0  0  0  0999 V2000
  -25.4560  -29.7650   18.4410 C   0  0  0  0  0  2  0  0  0  0  0  0
  -26.2150  -28.2210   18.5040 C   0  0  0  0  0  2  0  0  0  0  0  0
  -24.8740  -27.0840   21.7550 C   0  0  0  0  0  2  0  0  0  0  0  0
  -24.7260  -30.1670   19.9420 C   0  0  0  0  0  3  0  0  0  0  0  0
  -25.5240  -26.5720   20.5980 C   0  0  0  0  0  2  0  0  0  0  0  0
  -25.1860  -28.4390   21.6290 C   0  0  0  0  0  1  0  0  0  0  0  0
  -24.0060  -31.5500   19.7740 C   0  0  0  0  0  1  0  0  0  0  0  0
  -25.7080  -24.9950   20.8720 N   0  0  0  0  0  0  0  0  0  0  0  0
  -24.8010  -24.5720   21.0730 H   0  0  0  0  0  0  0  0  0  0  0  0
  -26.9050  -23.8410   20.8700 C   0  0  0  0  0  3  0  0  0  0  0  0
  -26.8550  -22.0500   20.5670 C   0  0  0  0  0  3  0  0  0  0  0  0
  -28.0840  -20.9030   20.6710 N   0  0  0  0  0  4  0  0  0  0  0  0
  -28.3700  -20.9630   21.6390 H   0  0  0  0  0  0  0  0  0  0  0  0
  -28.8480  -21.2940   20.1360 H   0  0  0  0  0  0  0  0  0  0  0  0
  -28.0980  -19.2520   20.3430 C   0  0  0  0  0  3  0  0  0  0  0  0
  -29.4130  -18.0090   20.5920 C   0  0  0  0  0  3  0  0  0  0  0  0
  -30.4130  -15.1740   20.4010 C   0  0  0  0  0  0  0  0  0  0  0  0
  -30.6290  -12.7090   19.5770 C   0  0  0  0  0  2  0  0  0  0  0  0
  -29.7360  -12.4100   18.3400 C   0  0  0  0  0  2  0  0  0  0  0  0
  -28.2920  -12.0910   18.7690 C   0  0  0  0  0  2  0  0  0  0  0  0
  -27.7940  -13.0990   19.8320 C   0  0  0  0  0  3  0  0  0  0  0  0
  -28.7910  -13.2710   20.9880 C   0  0  0  0  0  2  0  0  0  0  0  0
  -29.9930  -13.8220   20.3750 N   0  0  0  0  0  0  0  0  0  0  0  0
  -31.6330  -15.2890   20.1910 O   0  0  0  0  0  0  0  0  0  0  0  0
  -29.4610  -16.3270   20.4890 N   0  0  0  0  0  0  0  0  0  0  0  0
  -28.5270  -15.9610   20.5810 H   0  0  0  0  0  0  0  0  0  0  0  0
  -25.4220  -13.6790   20.5370 C   0  0  0  0  0  0  0  0  0  0  0  0
  -24.3590  -12.9070   20.9100 C   0  0  0  0  0  0  0  0  0  0  0  0
  -24.8280  -11.5560   20.8990 C   0  0  0  0  0  0  0  0  0  0  0  0
  -26.4620  -12.7970   20.3150 N   0  0  0  0  0  0  0  0  0  0  0  0
  -26.1210  -11.5170   20.6020 N   0  0  0  0  0  0  0  0  0  0  0  0
  -24.1060  -10.2940   21.0840 C   0  0  0  0  0  0  0  0  0  0  0  0
  -24.4960   -9.3590   22.0670 C   0  0  0  0  0  3  0  0  0  0  0  0
  -23.7710   -8.1620   22.2410 C   0  0  0  0  0  3  0  0  0  0  0  0
  -22.6420   -7.8930   21.4300 C   0  0  0  0  0  0  0  0  0  0  0  0
  -22.2730   -8.8170   20.4360 C   0  0  0  0  0  3  0  0  0  0  0  0
  -22.9980  -10.0060   20.2610 C   0  0  0  0  0  3  0  0  0  0  0  0
  -21.8880   -6.7480   21.5140 O   0  0  0  0  0  0  0  0  0  0  0  0
  -21.7410   -6.0670   22.6960 C   0  0  0  0  0  0  0  0  0  0  0  0
  -21.1900   -6.6770   23.8440 C   0  0  0  0  0  3  0  0  0  0  0  0
  -20.9920   -5.9210   25.0160 C   0  0  0  0  0  3  0  0  0  0  0  0
  -21.3350   -4.5550   25.0400 C   0  0  0  0  0  0  0  0  0  0  0  0
  -21.8790   -3.9460   23.8960 C   0  0  0  0  0  3  0  0  0  0  0  0
  -22.0780   -4.6990   22.7260 C   0  0  0  0  0  0  0  0  0  0  0  0
  -22.5830   -4.1010   21.6200 F   0  0  0  0  0  0  0  0  0  0  0  0
  -21.1380   -3.8260   26.1630 F   0  0  0  0  0  0  0  0  0  0  0  0
  -22.9590  -13.3850   21.1520 C   0  0  0  0  0  0  0  0  0  0  0  0
  -22.2200  -12.6980   22.0160 N   0  0  0  0  0  0  0  0  0  0  0  0
  -22.5310  -14.4050   20.6110 O   0  0  0  0  0  0  0  0  0  0  0  0
  -22.5790  -11.8690   22.4660 H   0  0  0  0  0  0  0  0  0  0  0  0
  -21.2810  -13.0000   22.2300 H   0  0  0  0  0  0  0  0  0  0  0  0
  -25.5900  -15.0470   20.3330 N   0  0  0  0  0  0  0  0  0  0  0  0
  -24.7960  -15.6760   20.3760 H   0  0  0  0  0  0  0  0  0  0  0  0
  -26.3460  -15.4190   19.7720 H   0  0  0  0  0  0  0  0  0  0  0  0
  -26.9530  -27.6240   21.5130 O   0  0  0  0  0  0  0  0  0  0  0  0
  -24.5870  -31.5620   23.5560 C   0  0  0  0  0  0  0  0  0  0  0  0
  -27.7020  -27.1120   20.0250 C   0  0  0  0  0  3  0  0  0  0  0  0
  -23.2640  -30.0750   21.8580 C   0  0  0  0  0  3  0  0  0  0  0  0
  -24.4360  -28.3180   19.4700 C   0  0  0  0  0  3  0  0  0  0  0  0
  -26.4370  -30.5840   21.8610 C   0  0  0  0  0  2  0  0  0  0  0  0
  -26.7900  -29.3810   20.4790 C   0  0  0  0  0  2  0  0  0  0  0  0
  -27.9670  -28.5100   20.4350 C   0  0  0  0  0  3  0  0  0  0  0  0
  -26.6730  -26.2760   18.5920 C   0  0  0  0  0  2  0  0  0  0  0  0
  -24.8340  -26.8720   18.3420 C   0  0  0  0  0  3  0  0  0  0  0  0
  -23.0310  -28.9710   20.3320 C   0  0  0  0  0  2  0  0  0  0  0  0
  -24.7750  -30.7540   22.4890 N   0  0  0  0  0  0  0  0  0  0  0  0
  -23.4640  -31.8430   23.9930 O   0  0  0  0  0  0  0  0  0  0  0  0
  -22.5370  -29.2220   22.8300 C   0  0  0  0  0  0  0  0  0  0  0  0
  -21.2360  -29.1020   22.5750 N   0  0  0  0  0  0  0  0  0  0  0  0
  -23.1470  -28.5550   23.6600 O   0  0  0  0  0  0  0  0  0  0  0  0
  -20.8300  -29.7130   21.8820 H   0  0  0  0  0  0  0  0  0  0  0  0
  -17.8480  -27.9960   22.7130 C   0  0  0  0  0  0  0  0  0  0  0  0
  -20.3770  -28.0960   23.1470 C   0  0  0  0  0  3  0  0  0  0  0  0
  -20.4770  -26.7620   22.3650 C   0  0  0  0  0  2  0  0  0  0  0  0
  -19.4080  -26.6110   21.2810 C   0  0  0  0  0  2  0  0  0  0  0  0
  -18.0090  -26.7240   21.8960 C   0  0  0  0  0  2  0  0  0  0  0  0
  -18.9690  -28.6550   23.2740 C   0  0  0  0  0  0  0  0  0  0  0  0
  -18.7890  -29.8660   23.9770 C   0  0  0  0  0  3  0  0  0  0  0  0
  -17.5060  -30.4190   24.1300 C   0  0  0  0  0  3  0  0  0  0  0  0
  -16.3920  -29.7520   23.5920 C   0  0  0  0  0  3  0  0  0  0  0  0
  -16.5620  -28.5390   22.9000 C   0  0  0  0  0  3  0  0  0  0  0  0
  -25.8280  -32.1380   24.2810 C   0  0  0  0  0  3  0  0  0  0  0  0
  -25.6090  -33.5800   24.4590 N   0  0  0  0  0  0  0  0  0  0  0  0
  -26.0830  -34.5250   23.6370 C   0  0  0  0  0  0  0  0  0  0  0  0
  -26.8080  -34.2720   22.6720 O   0  0  0  0  0  0  0  0  0  0  0  0
  -24.9880  -33.8660   25.2030 H   0  0  0  0  0  0  0  0  0  0  0  0
  -24.5690  -36.4280   22.9930 C   0  0  0  0  0  1  0  0  0  0  0  0
  -25.6990  -35.9870   23.9390 C   0  0  0  0  0  3  0  0  0  0  0  0
  -27.8440  -36.7300   24.8750 C   0  0  0  0  0  1  0  0  0  0  0  0
  -26.8340  -36.9290   23.8360 N   0  0  0  0  0  0  0  0  0  0  0  0
  -26.5170  -37.8950   23.8870 H   0  0  0  0  0  0  0  0  0  0  0  0
  -26.0930  -31.4200   25.6580 C   0  0  1  0  0  0  0  0  0  0  0  0
  -24.8520  -31.3770   26.5780 C   0  0  0  0  0  1  0  0  0  0  0  0
  -26.5770  -29.9600   25.4970 C   0  0  0  0  0  1  0  0  0  0  0  0
  -27.2440  -32.1520   26.3810 C   0  0  0  0  0  1  0  0  0  0  0  0
  1  2  1  0
  1  4  1  0
  4  7  1  0
  5  8  1  0
  5  3  1  0
  6  3  1  0
  8  9  1  0
 10  8  1  0
 11 12  1  0
 11 10  2  0
 12 13  1  0
 14 12  1  0
 15 16  2  0
 15 12  1  0
 17 25  1  0
 18 23  1  0
 19 20  1  0
 19 18  1  0
 21 20  1  0
 21 30  1  0
 21 22  1  0
 23 17  1  0
 23 22  1  0
 24 17  2  0
 25 26  1  0
 25 16  1  0
 27 28  2  0
 28 47  1  0
 29 28  1  0
 29 32  1  0
 30 27  1  0
 30 31  1  0
 31 29  2  0
 32 33  1  0
 33 34  2  0
 35 38  1  0
 35 34  1  0
 36 35  2  0
 37 36  1  0
 37 32  2  0
 38 39  1  0
 39 44  2  0
 39 40  1  0
 40 41  2  0
 41 42  1  0
 42 46  1  0
 43 42  2  0
 44 43  1  0
 45 44  1  0
 47 48  1  0
 48 51  1  0
 48 50  1  0
 49 47  2  0
 52 53  1  0
 52 27  1  0
 54 52  1  0
 56 67  2  0
 57 63  1  0
 57 62  1  0
 57 55  1  0
 58 66  1  0
 58 68  1  0
 59  4  1  0
 59 65  1  0
 60 66  1  0
 61 60  1  0
 62 61  1  0
 62 55  1  0
 64  2  1  0
 64 63  1  0
 64 59  1  0
 65 58  1  0
 66 56  1  0
 68 70  2  0
 69 68  1  0
 71 69  1  0
 72 81  2  0
 72 77  1  0
 73 69  1  0
 73 77  1  0
 74 73  1  0
 75 76  1  0
 75 74  1  0
 76 72  1  0
 77 78  2  0
 78 79  1  0
 80 79  2  0
 81 80  1  0
 82 56  1  0
 82 83  1  0
 82 92  1  0
 83 86  1  0
 84 88  1  0
 84 83  1  0
 85 84  2  0
 88 87  1  0
 90 91  1  0
 90 88  1  0
 90 89  1  0
 92 95  1  1
 92 93  1  0
 94 92  1  0
M  ISO  4   6 101  17 100  25 100  55 101
M  END
>  <TORSDO>  (81) 
F 22

>  <SCORE>  (81) 
-14.368

>  <name>  (81) 
82

>  <ligand_id>  (81) 
82

>  <original_smiles>  (81) 
[H]c1c([H])c([H])c2c(c1[H])C([H])([H])C([H])([H])C([H])([H])C2([H])N([H])C(=O)C1([H])N(C(=O)C([H])(N([H])C(=O)C([H])(N([H])C([H])([H])[H])C([H])([H])[H])C(C([H])([H])[H])(C([H])([H])[H])C([H])([H])[H])C([H])([H])c2c([H])c(Oc3c([H])c(N([H])C([H])([H])C([H])([H])[N+]([H])([H])C([H])([H])C([H])([H])N([H])C(=O)N4C([H])([H])C([H])([H])C([H])([H])C([H])(n5nc(-c6c([H])c([H])c(Oc7c([H])c([H])c(F)c([H])c7F)c([H])c6[H])c(C(=O)N([H])[H])c5N([H])[H])C4([H])[H])c([H])c([H])c3C([H])([H])[H])c([H])c([H])c2C1([H])[H]

>  <smiles>  (81) 
[H]c1c([H])c([H])c2c(c1[H])C([H])([H])C([H])([H])C([H])([H])C2([H])N([H])C(=O)C1([H])N(C(=O)C([H])(N([H])C(=O)C([H])(N([H])C([H])([H])[H])C([H])([H])[H])C(C([H])([H])[H])(C([H])([H])[H])C([H])([H])[H])C([H])([H])c2c([H])c(Oc3c([H])c(N([H])C([H])([H])C([H])([H])[N+]([H])([H])C([H])([H])C([H])([H])N([H])C(=O)N4C([H])([H])C([H])([H])C([H])([H])C([H])(n5nc(-c6c([H])c([H])c(Oc7c([H])c([H])c(F)c([H])c7F)c([H])c6[H])c(C(=O)N([H])[H])c5N([H])[H])C4([H])[H])c([H])c([H])c3C([H])([H])[H])c([H])c([H])c2C1([H])[H]

$$$$
83:0:0
     RDKit          3D

 92 99  0  0  1  0  0  0  0  0999 V2000
  -28.8880  -22.6750   19.9810 C   0  0  0  0  0  3  0  0  0  0  0  0
  -26.7500  -21.3670   19.7520 C   0  0  0  0  0  1  0  0  0  0  0  0
  -27.0760  -22.7540   21.7540 C   0  0  0  0  0  1  0  0  0  0  0  0
  -27.4290  -22.5510   20.3240 N   0  0  1  0  0  4  0  0  0  0  0  0
  -26.9870  -23.3230   19.8470 H   0  0  0  0  0  0  0  0  0  0  0  0
  -29.3660  -24.1900   20.2230 C   0  0  0  0  0  3  0  0  0  0  0  0
  -28.4010  -25.3320   19.6790 C   0  0  0  0  0  3  0  0  0  0  0  0
  -28.6310  -26.7690   19.9450 O   0  0  0  0  0  0  0  0  0  0  0  0
  -24.7370  -31.8120   23.3220 C   0  0  0  0  0  0  0  0  0  0  0  0
  -27.4930  -27.5950   19.9370 C   0  0  0  0  0  0  0  0  0  0  0  0
  -23.5760  -30.5000   21.5840 C   0  0  0  0  0  3  0  0  0  0  0  0
  -25.0730  -29.1160   20.0470 C   0  0  0  0  0  0  0  0  0  0  0  0
  -26.1020  -30.9200   21.4230 C   0  0  0  0  0  2  0  0  0  0  0  0
  -26.2270  -29.5970   20.6800 C   0  0  0  0  0  0  0  0  0  0  0  0
  -27.4390  -28.8480   20.6220 C   0  0  0  0  0  3  0  0  0  0  0  0
  -26.3160  -27.1780   19.2690 C   0  0  0  0  0  3  0  0  0  0  0  0
  -25.1200  -27.9110   19.3340 C   0  0  0  0  0  3  0  0  0  0  0  0
  -23.8060  -29.9370   20.1590 C   0  0  0  0  0  2  0  0  0  0  0  0
  -24.8240  -31.0910   22.1680 N   0  0  0  0  0  0  0  0  0  0  0  0
  -23.6460  -32.0140   23.8760 O   0  0  0  0  0  0  0  0  0  0  0  0
  -22.9520  -29.3920   22.4650 C   0  0  0  0  0  0  0  0  0  0  0  0
  -21.6480  -29.1290   22.2720 N   0  0  0  0  0  0  0  0  0  0  0  0
  -23.6400  -28.7730   23.2800 O   0  0  0  0  0  0  0  0  0  0  0  0
  -21.1480  -29.6860   21.5930 H   0  0  0  0  0  0  0  0  0  0  0  0
  -18.3530  -27.6640   22.5480 C   0  0  0  0  0  0  0  0  0  0  0  0
  -20.8670  -28.1020   22.9620 C   0  0  0  0  0  3  0  0  0  0  0  0
  -21.1070  -26.7060   22.3390 C   0  0  0  0  0  2  0  0  0  0  0  0
  -20.0830  -26.3450   21.2560 C   0  0  0  0  0  2  0  0  0  0  0  0
  -18.6640  -26.3610   21.8320 C   0  0  0  0  0  2  0  0  0  0  0  0
  -19.3870  -28.4880   23.0650 C   0  0  0  0  0  0  0  0  0  0  0  0
  -19.0430  -29.7060   23.6910 C   0  0  0  0  0  3  0  0  0  0  0  0
  -17.6980  -30.1020   23.8070 C   0  0  0  0  0  3  0  0  0  0  0  0
  -16.6770  -29.2750   23.3080 C   0  0  0  0  0  3  0  0  0  0  0  0
  -17.0050  -28.0570   22.6850 C   0  0  0  0  0  3  0  0  0  0  0  0
  -25.9990  -32.4400   23.9890 C   0  0  0  0  0  3  0  0  0  0  0  0
  -25.6670  -33.8240   24.3550 N   0  0  0  0  0  0  0  0  0  0  0  0
  -26.0020  -34.9040   23.6360 C   0  0  0  0  0  0  0  0  0  0  0  0
  -26.6950  -34.8380   22.6160 O   0  0  0  0  0  0  0  0  0  0  0  0
  -25.0540  -33.9470   25.1480 H   0  0  0  0  0  0  0  0  0  0  0  0
  -24.2640  -36.6880   23.2950 C   0  0  0  0  0  1  0  0  0  0  0  0
  -25.4900  -36.2720   24.1240 C   0  0  0  0  0  3  0  0  0  0  0  0
  -27.5860  -37.1600   25.0440 C   0  0  0  0  0  1  0  0  0  0  0  0
  -26.5140  -37.3380   24.0680 N   0  0  0  0  0  0  0  0  0  0  0  0
  -26.0930  -38.2500   24.2230 H   0  0  0  0  0  0  0  0  0  0  0  0
  -26.4980  -31.6350   25.2510 C   0  0  1  0  0  0  0  0  0  0  0  0
  -25.3840  -31.3460   26.2850 C   0  0  0  0  0  1  0  0  0  0  0  0
  -27.1110  -30.2800   24.8280 C   0  0  0  0  0  1  0  0  0  0  0  0
  -27.6220  -32.4230   25.9650 C   0  0  0  0  0  1  0  0  0  0  0  0
  -29.7750  -21.4970   20.6380 C   0  0  0  0  0  2  0  0  0  0  0  0
  -29.6570  -19.9940   18.4430 C   0  0  0  0  0  1  0  0  0  0  0  0
  -30.1850  -20.1270   19.8890 C   0  0  0  0  0  3  0  0  0  0  0  0
  -29.9750  -18.8340   20.6700 N   0  0  0  0  0  4  0  0  0  0  0  0
  -30.2800  -18.9940   21.6180 H   0  0  0  0  0  0  0  0  0  0  0  0
  -28.9880  -18.6410   20.7090 H   0  0  0  0  0  0  0  0  0  0  0  0
  -30.6900  -17.5750   20.1980 C   0  0  0  0  0  3  0  0  0  0  0  0
  -30.2890  -16.2060   20.9010 C   0  0  0  0  0  3  0  0  0  0  0  0
  -30.9960  -14.9050   20.3590 C   0  0  0  0  0  0  0  0  0  0  0  0
  -30.7330  -12.6850   19.2690 C   0  0  0  0  0  2  0  0  0  0  0  0
  -29.8050  -12.8500   18.0460 C   0  0  0  0  0  2  0  0  0  0  0  0
  -28.3260  -12.7190   18.4590 C   0  0  0  0  0  2  0  0  0  0  0  0
  -27.9750  -13.5740   19.7060 C   0  0  0  0  0  3  0  0  0  0  0  0
  -29.0240  -13.3960   20.8280 C   0  0  0  0  0  2  0  0  0  0  0  0
  -30.3430  -13.7030   20.2640 N   0  0  0  0  0  0  0  0  0  0  0  0
  -32.1420  -15.0250   19.9140 O   0  0  0  0  0  0  0  0  0  0  0  0
  -25.5780  -14.1990   20.3970 C   0  0  0  0  0  0  0  0  0  0  0  0
  -24.5010  -13.4390   20.7610 C   0  0  0  0  0  0  0  0  0  0  0  0
  -24.9510  -12.0820   20.7400 C   0  0  0  0  0  0  0  0  0  0  0  0
  -26.6180  -13.3080   20.1790 N   0  0  0  0  0  0  0  0  0  0  0  0
  -26.2430  -12.0300   20.4440 N   0  0  0  0  0  0  0  0  0  0  0  0
  -24.2100  -10.8280   20.9280 C   0  0  0  0  0  0  0  0  0  0  0  0
  -24.6050   -9.8730   21.8900 C   0  0  0  0  0  3  0  0  0  0  0  0
  -23.8620   -8.6850   22.0660 C   0  0  0  0  0  3  0  0  0  0  0  0
  -22.7120   -8.4440   21.2780 C   0  0  0  0  0  0  0  0  0  0  0  0
  -22.3380   -9.3880   20.3040 C   0  0  0  0  0  3  0  0  0  0  0  0
  -23.0810  -10.5670   20.1270 C   0  0  0  0  0  3  0  0  0  0  0  0
  -21.9450   -7.3060   21.3600 O   0  0  0  0  0  0  0  0  0  0  0  0
  -21.8400   -6.5930   22.5260 C   0  0  0  0  0  0  0  0  0  0  0  0
  -21.3160   -7.1660   23.7060 C   0  0  0  0  0  3  0  0  0  0  0  0
  -21.1590   -6.3770   24.8640 C   0  0  0  0  0  3  0  0  0  0  0  0
  -21.5190   -5.0170   24.8420 C   0  0  0  0  0  0  0  0  0  0  0  0
  -22.0360   -4.4420   23.6680 C   0  0  0  0  0  3  0  0  0  0  0  0
  -22.1930   -5.2270   22.5130 C   0  0  0  0  0  0  0  0  0  0  0  0
  -22.6720   -4.6640   21.3780 F   0  0  0  0  0  0  0  0  0  0  0  0
  -21.3610   -4.2560   25.9510 F   0  0  0  0  0  0  0  0  0  0  0  0
  -23.1060  -13.9300   21.0200 C   0  0  0  0  0  0  0  0  0  0  0  0
  -22.3650  -13.2450   21.8840 N   0  0  0  0  0  0  0  0  0  0  0  0
  -22.6830  -14.9580   20.4930 O   0  0  0  0  0  0  0  0  0  0  0  0
  -22.7210  -12.4110   22.3280 H   0  0  0  0  0  0  0  0  0  0  0  0
  -21.4300  -13.5570   22.1050 H   0  0  0  0  0  0  0  0  0  0  0  0
  -25.7580  -15.5680   20.2140 N   0  0  0  0  0  0  0  0  0  0  0  0
  -24.9870  -16.2240   20.2910 H   0  0  0  0  0  0  0  0  0  0  0  0
  -26.6050  -15.9930   19.8640 H   0  0  0  0  0  0  0  0  0  0  0  0
  1  6  1  0
  1  4  1  0
  1 49  1  0
  2  4  1  0
  4  3  1  0
  4  5  1  6
  7  8  1  0
  7  6  2  0
  9 20  2  0
 10  8  1  0
 10 15  1  0
 11 19  1  0
 11 21  1  0
 12 18  1  0
 12 14  1  0
 13 19  1  0
 14 13  1  0
 15 14  2  0
 16 17  1  0
 16 10  2  0
 17 12  2  0
 18 11  1  0
 19  9  1  0
 21 23  2  0
 22 21  1  0
 24 22  1  0
 25 34  2  0
 25 30  1  0
 26 22  1  0
 26 30  1  0
 27 26  1  0
 28 29  1  0
 28 27  1  0
 29 25  1  0
 30 31  2  0
 31 32  1  0
 33 32  2  0
 34 33  1  0
 35  9  1  0
 35 36  1  0
 35 45  1  0
 36 39  1  0
 37 41  1  0
 37 36  1  0
 38 37  2  0
 41 40  1  0
 43 41  1  0
 43 44  1  0
 43 42  1  0
 45 48  1  1
 45 46  1  0
 47 45  1  0
 51 50  1  0
 51 49  1  0
 51 52  1  0
 52 54  1  0
 52 53  1  0
 55 52  1  0
 55 56  2  0
 57 56  1  0
 58 63  1  0
 59 60  1  0
 59 58  1  0
 61 60  1  0
 61 68  1  0
 61 62  1  0
 63 57  1  0
 63 62  1  0
 64 57  2  0
 65 66  2  0
 66 85  1  0
 67 66  1  0
 67 70  1  0
 68 65  1  0
 68 69  1  0
 69 67  2  0
 70 71  1  0
 71 72  2  0
 73 76  1  0
 73 72  1  0
 74 73  2  0
 75 74  1  0
 75 70  2  0
 76 77  1  0
 77 78  1  0
 78 79  2  0
 80 79  1  0
 80 84  1  0
 81 80  2  0
 82 77  2  0
 82 81  1  0
 83 82  1  0
 85 86  1  0
 86 89  1  0
 86 88  1  0
 87 85  2  0
 90 91  1  0
 90 65  1  0
 92 90  1  0
M  ISO  4   7 101   8 101  56 100  57 100
M  END
>  <TORSDO>  (82) 
F 24

>  <SCORE>  (82) 
-11.394

>  <name>  (82) 
83

>  <ligand_id>  (82) 
83

>  <original_smiles>  (82) 
[H]c1c([H])c([H])c2c(c1[H])C([H])([H])C([H])([H])C([H])([H])C2([H])N([H])C(=O)C1([H])N(C(=O)C([H])(N([H])C(=O)C([H])(N([H])C([H])([H])[H])C([H])([H])[H])C(C([H])([H])[H])(C([H])([H])[H])C([H])([H])[H])C([H])([H])c2c([H])c(OC([H])([H])C([H])([H])C([H])(C([H])([H])C([H])(C([H])([H])[H])[N+]([H])([H])C([H])([H])C([H])([H])C(=O)N3C([H])([H])C([H])([H])C([H])([H])C([H])(n4nc(-c5c([H])c([H])c(Oc6c([H])c([H])c(F)c([H])c6F)c([H])c5[H])c(C(=O)N([H])[H])c4N([H])[H])C3([H])[H])[N+]([H])(C([H])([H])[H])C([H])([H])[H])c([H])c([H])c2C1([H])[H]

>  <smiles>  (82) 
[H]c1c([H])c([H])c2c(c1[H])C([H])([H])C([H])([H])C([H])([H])C2([H])N([H])C(=O)C1([H])N(C(=O)C([H])(N([H])C(=O)C([H])(N([H])C([H])([H])[H])C([H])([H])[H])C(C([H])([H])[H])(C([H])([H])[H])C([H])([H])[H])C([H])([H])c2c([H])c(OC([H])([H])C([H])([H])C([H])(C([H])([H])C([H])(C([H])([H])[H])[N+]([H])([H])C([H])([H])C([H])([H])C(=O)N3C([H])([H])C([H])([H])C([H])([H])C([H])(n4nc(-c5c([H])c([H])c(Oc6c([H])c([H])c(F)c([H])c6F)c([H])c5[H])c(C(=O)N([H])[H])c4N([H])[H])C3([H])[H])[N+]([H])(C([H])([H])[H])C([H])([H])[H])c([H])c([H])c2C1([H])[H]

$$$$
84:0:0
     RDKit          3D

 91 99  0  0  1  0  0  0  0  0999 V2000
  -29.1930  -22.6840   19.7820 N   0  0  0  0  0  4  0  0  0  0  0  0
  -29.1700  -22.2240   18.8860 H   0  0  0  0  0  0  0  0  0  0  0  0
  -30.1530  -22.9540   19.9280 H   0  0  0  0  0  0  0  0  0  0  0  0
  -28.8450  -21.5970   20.7730 C   0  0  0  0  0  2  0  0  0  0  0  0
  -28.1460  -19.1150   20.5070 C   0  0  0  0  0  3  0  0  0  0  0  0
  -30.5080  -19.5150   20.3950 C   0  0  0  0  0  3  0  0  0  0  0  0
  -28.3860  -17.7130   20.4870 C   0  0  0  0  0  3  0  0  0  0  0  0
  -30.7500  -18.0950   20.3520 C   0  0  0  0  0  3  0  0  0  0  0  0
  -29.1940  -20.0710   20.4950 C   0  0  0  0  0  0  0  0  0  0  0  0
  -29.6860  -17.1480   20.4290 C   0  0  0  0  0  0  0  0  0  0  0  0
  -30.6150  -14.6950   20.0770 C   0  0  0  0  0  0  0  0  0  0  0  0
  -30.4050  -12.4760   18.9600 C   0  0  0  0  0  2  0  0  0  0  0  0
  -29.3910  -12.6250   17.8010 C   0  0  0  0  0  2  0  0  0  0  0  0
  -27.9400  -12.4540   18.2980 C   0  0  0  0  0  2  0  0  0  0  0  0
  -27.6460  -13.2760   19.5800 C   0  0  0  0  0  3  0  0  0  0  0  0
  -28.7610  -13.0680   20.6320 C   0  0  0  0  0  2  0  0  0  0  0  0
  -30.0380  -13.4510   20.0050 N   0  0  0  0  0  0  0  0  0  0  0  0
  -31.7510  -14.9070   19.6370 O   0  0  0  0  0  0  0  0  0  0  0  0
  -29.7710  -15.6840   20.5210 N   0  0  0  0  0  0  0  0  0  0  0  0
  -28.9190  -15.2680   20.8640 H   0  0  0  0  0  0  0  0  0  0  0  0
  -25.2870  -13.8660   20.4160 C   0  0  0  0  0  0  0  0  0  0  0  0
  -24.2400  -13.0880   20.8270 C   0  0  0  0  0  0  0  0  0  0  0  0
  -24.7000  -11.7370   20.7530 C   0  0  0  0  0  0  0  0  0  0  0  0
  -26.3210  -12.9890   20.1200 N   0  0  0  0  0  0  0  0  0  0  0  0
  -25.9750  -11.7030   20.3830 N   0  0  0  0  0  0  0  0  0  0  0  0
  -23.9830  -10.4720   20.9570 C   0  0  0  0  0  0  0  0  0  0  0  0
  -24.4290   -9.5140   21.8940 C   0  0  0  0  0  3  0  0  0  0  0  0
  -23.7140   -8.3120   22.0840 C   0  0  0  0  0  3  0  0  0  0  0  0
  -22.5380   -8.0610   21.3380 C   0  0  0  0  0  0  0  0  0  0  0  0
  -22.1120   -9.0080   20.3880 C   0  0  0  0  0  3  0  0  0  0  0  0
  -22.8280  -10.2010   20.1970 C   0  0  0  0  0  3  0  0  0  0  0  0
  -21.7920   -6.9110   21.4380 O   0  0  0  0  0  0  0  0  0  0  0  0
  -21.7190   -6.2020   22.6090 C   0  0  0  0  0  0  0  0  0  0  0  0
  -21.2310   -6.7790   23.8010 C   0  0  0  0  0  3  0  0  0  0  0  0
  -21.1070   -5.9930   24.9650 C   0  0  0  0  0  3  0  0  0  0  0  0
  -21.4630   -4.6320   24.9370 C   0  0  0  0  0  0  0  0  0  0  0  0
  -21.9440   -4.0540   23.7490 C   0  0  0  0  0  3  0  0  0  0  0  0
  -22.0690   -4.8370   22.5870 C   0  0  0  0  0  0  0  0  0  0  0  0
  -22.5140   -4.2690   21.4400 F   0  0  0  0  0  0  0  0  0  0  0  0
  -21.3370   -3.8740   26.0520 F   0  0  0  0  0  0  0  0  0  0  0  0
  -22.8560  -13.5600   21.1710 C   0  0  0  0  0  0  0  0  0  0  0  0
  -22.1690  -12.8480   22.0570 N   0  0  0  0  0  0  0  0  0  0  0  0
  -22.3960  -14.5950   20.6890 O   0  0  0  0  0  0  0  0  0  0  0  0
  -22.5550  -12.0100   22.4680 H   0  0  0  0  0  0  0  0  0  0  0  0
  -21.2430  -13.1460   22.3300 H   0  0  0  0  0  0  0  0  0  0  0  0
  -25.4390  -15.2380   20.2390 N   0  0  0  0  0  0  0  0  0  0  0  0
  -24.6590  -15.8750   20.3570 H   0  0  0  0  0  0  0  0  0  0  0  0
  -26.2180  -15.6550   19.7460 H   0  0  0  0  0  0  0  0  0  0  0  0
  -28.3180  -23.9370   19.6270 C   0  0  0  0  0  2  0  0  0  0  0  0
  -28.4560  -25.1650   20.6370 C   0  0  0  0  0  2  0  0  0  0  0  0
  -28.4420  -26.5610   20.1350 O   0  0  0  0  0  0  0  0  0  0  0  0
  -24.6750  -31.8900   23.2510 C   0  0  0  0  0  0  0  0  0  0  0  0
  -27.2850  -27.3480   20.1820 C   0  0  0  0  0  0  0  0  0  0  0  0
  -23.4650  -30.5000   21.6030 C   0  0  0  0  0  3  0  0  0  0  0  0
  -24.9110  -28.9430   20.1790 C   0  0  0  0  0  0  0  0  0  0  0  0
  -26.0020  -30.8200   21.4160 C   0  0  0  0  0  2  0  0  0  0  0  0
  -26.0800  -29.4400   20.7690 C   0  0  0  0  0  0  0  0  0  0  0  0
  -27.2680  -28.6560   20.7550 C   0  0  0  0  0  3  0  0  0  0  0  0
  -26.0950  -26.8870   19.5840 C   0  0  0  0  0  3  0  0  0  0  0  0
  -24.9200  -27.6700   19.5800 C   0  0  0  0  0  3  0  0  0  0  0  0
  -23.6780  -29.8220   20.2230 C   0  0  0  0  0  2  0  0  0  0  0  0
  -24.7340  -31.0870   22.1470 N   0  0  0  0  0  0  0  0  0  0  0  0
  -23.5930  -32.1680   23.7890 O   0  0  0  0  0  0  0  0  0  0  0  0
  -22.8020  -29.4840   22.5610 C   0  0  0  0  0  0  0  0  0  0  0  0
  -21.4760  -29.3100   22.4330 N   0  0  0  0  0  0  0  0  0  0  0  0
  -23.4790  -28.8540   23.3780 O   0  0  0  0  0  0  0  0  0  0  0  0
  -20.9890  -29.8680   21.7460 H   0  0  0  0  0  0  0  0  0  0  0  0
  -18.0960  -28.1230   22.9210 C   0  0  0  0  0  0  0  0  0  0  0  0
  -20.6530  -28.3720   23.1990 C   0  0  0  0  0  3  0  0  0  0  0  0
  -20.7530  -26.9420   22.6180 C   0  0  0  0  0  2  0  0  0  0  0  0
  -19.6530  -26.6270   21.6010 C   0  0  0  0  0  2  0  0  0  0  0  0
  -18.2690  -26.7750   22.2420 C   0  0  0  0  0  2  0  0  0  0  0  0
  -19.2140  -28.8790   23.3570 C   0  0  0  0  0  0  0  0  0  0  0  0
  -18.9980  -30.1400   23.9520 C   0  0  0  0  0  3  0  0  0  0  0  0
  -17.6960  -30.6450   24.1180 C   0  0  0  0  0  3  0  0  0  0  0  0
  -16.5900  -29.8840   23.7010 C   0  0  0  0  0  3  0  0  0  0  0  0
  -16.7900  -28.6260   23.1060 C   0  0  0  0  0  3  0  0  0  0  0  0
  -25.9610  -32.5150   23.8730 C   0  0  0  0  0  3  0  0  0  0  0  0
  -26.4810  -31.7310   25.1420 C   0  0  1  0  0  0  0  0  0  0  0  0
  -25.3900  -31.4860   26.2110 C   0  0  0  0  0  1  0  0  0  0  0  0
  -27.0600  -30.3560   24.7350 C   0  0  0  0  0  1  0  0  0  0  0  0
  -27.6320  -32.5190   25.8100 C   0  0  0  0  0  1  0  0  0  0  0  0
  -25.6560  -33.9110   24.2190 N   0  0  0  0  0  0  0  0  0  0  0  0
  -25.9860  -34.9690   23.4680 C   0  0  0  0  0  0  0  0  0  0  0  0
  -26.6490  -34.8750   22.4320 O   0  0  0  0  0  0  0  0  0  0  0  0
  -25.0710  -34.0580   25.0260 H   0  0  0  0  0  0  0  0  0  0  0  0
  -24.2650  -36.7710   23.1340 C   0  0  0  0  0  1  0  0  0  0  0  0
  -25.5040  -36.3550   23.9420 C   0  0  0  0  0  3  0  0  0  0  0  0
  -27.6370  -37.2260   24.7870 C   0  0  0  0  0  1  0  0  0  0  0  0
  -26.5400  -37.4060   23.8410 N   0  0  0  0  0  0  0  0  0  0  0  0
  -26.1370  -38.3250   23.9940 H   0  0  0  0  0  0  0  0  0  0  0  0
  1  3  1  0
  1  4  1  0
  2  1  1  0
  6  9  2  0
  7  5  2  0
  8  6  1  0
  8 10  2  0
  9  5  1  0
  9  4  1  0
 10  7  1  0
 10 19  1  0
 11 19  1  0
 12 17  1  0
 13 14  1  0
 13 12  1  0
 15 14  1  0
 15 24  1  0
 15 16  1  0
 17 11  1  0
 17 16  1  0
 18 11  2  0
 19 20  1  0
 21 22  2  0
 22 41  1  0
 23 22  1  0
 23 26  1  0
 24 25  1  0
 24 21  1  0
 25 23  2  0
 26 27  1  0
 27 28  2  0
 29 32  1  0
 29 28  1  0
 30 29  2  0
 31 30  1  0
 31 26  2  0
 32 33  1  0
 33 34  1  0
 34 35  2  0
 36 35  1  0
 36 40  1  0
 37 36  2  0
 38 33  2  0
 38 37  1  0
 39 38  1  0
 41 42  1  0
 42 45  1  0
 42 44  1  0
 43 41  2  0
 46 47  1  0
 46 21  1  0
 48 46  1  0
 49  1  1  0
 49 50  1  0
 51 53  1  0
 51 50  1  0
 52 63  2  0
 53 58  1  0
 54 62  1  0
 54 64  1  0
 55 61  1  0
 55 57  1  0
 56 62  1  0
 57 56  1  0
 58 57  2  0
 59 53  2  0
 60 59  1  0
 60 55  2  0
 61 54  1  0
 62 52  1  0
 64 66  2  0
 65 64  1  0
 67 65  1  0
 68 77  2  0
 68 73  1  0
 69 65  1  0
 69 73  1  0
 70 69  1  0
 71 72  1  0
 71 70  1  0
 72 68  1  0
 73 74  2  0
 74 75  1  0
 76 75  2  0
 77 76  1  0
 78 52  1  0
 78 83  1  0
 78 79  1  0
 79 82  1  1
 79 80  1  0
 81 79  1  0
 83 86  1  0
 84 88  1  0
 84 83  1  0
 85 84  2  0
 88 87  1  0
 90 88  1  0
 90 91  1  0
 90 89  1  0
M  ISO  4  11 100  19 100  50 101  51 101
M  END
>  <TORSDO>  (83) 
F 20

>  <SCORE>  (83) 
-13.810

>  <name>  (83) 
84

>  <ligand_id>  (83) 
84

>  <original_smiles>  (83) 
[H]c1c([H])c([H])c2c(c1[H])C([H])([H])C([H])([H])C([H])([H])C2([H])N([H])C(=O)C1([H])N(C(=O)C([H])(N([H])C(=O)C([H])(N([H])C([H])([H])[H])C([H])([H])[H])C(C([H])([H])[H])(C([H])([H])[H])C([H])([H])[H])C([H])([H])c2c([H])c(OC([H])([H])C([H])([H])[N+]([H])([H])C([H])([H])c3c([H])c([H])c(N([H])C(=O)N4C([H])([H])C([H])([H])C([H])([H])C([H])(n5nc(-c6c([H])c([H])c(Oc7c([H])c([H])c(F)c([H])c7F)c([H])c6[H])c(C(=O)N([H])[H])c5N([H])[H])C4([H])[H])c([H])c3[H])c([H])c([H])c2C1([H])[H]

>  <smiles>  (83) 
[H]c1c([H])c([H])c2c(c1[H])C([H])([H])C([H])([H])C([H])([H])C2([H])N([H])C(=O)C1([H])N(C(=O)C([H])(N([H])C(=O)C([H])(N([H])C([H])([H])[H])C([H])([H])[H])C(C([H])([H])[H])(C([H])([H])[H])C([H])([H])[H])C([H])([H])c2c([H])c(OC([H])([H])C([H])([H])[N+]([H])([H])C([H])([H])c3c([H])c([H])c(N([H])C(=O)N4C([H])([H])C([H])([H])C([H])([H])C([H])(n5nc(-c6c([H])c([H])c(Oc7c([H])c([H])c(F)c([H])c7F)c([H])c6[H])c(C(=O)N([H])[H])c5N([H])[H])C4([H])[H])c([H])c3[H])c([H])c([H])c2C1([H])[H]

$$$$
85:0:0
     RDKit          3D

 99107  0  0  1  0  0  0  0  0999 V2000
  -23.4070  -23.8090   20.6410 C   0  0  0  0  0  2  0  0  0  0  0  0
  -24.0800  -25.8150   19.1590 C   0  0  0  0  0  2  0  0  0  0  0  0
  -22.2290  -24.7620   21.1200 C   0  0  0  0  0  2  0  0  0  0  0  0
  -22.9980  -26.6870   19.9470 C   0  0  0  0  0  2  0  0  0  0  0  0
  -24.1090  -24.2250   19.2990 C   0  0  0  0  0  3  0  0  0  0  0  0
  -22.7760  -26.1540   21.3290 N   0  0  1  0  0  4  0  0  0  0  0  0
  -23.7250  -25.8520   21.4920 H   0  0  0  0  0  0  0  0  0  0  0  0
  -27.8550  -23.6150   18.2110 C   0  0  0  0  0  3  0  0  0  0  0  0
  -26.6320  -24.2310   18.5440 C   0  0  0  0  0  3  0  0  0  0  0  0
  -28.0340  -22.2260   18.3220 C   0  0  0  0  0  3  0  0  0  0  0  0
  -25.7200  -22.0470   19.0620 C   0  0  0  0  0  3  0  0  0  0  0  0
  -25.5040  -23.4840   18.9840 C   0  0  0  0  0  0  0  0  0  0  0  0
  -26.9790  -21.3930   18.7470 C   0  0  0  0  0  0  0  0  0  0  0  0
  -27.1730  -19.9690   18.7880 N   0  0  0  0  0  0  0  0  0  0  0  0
  -26.6850  -19.4590   19.5260 H   0  0  0  0  0  0  0  0  0  0  0  0
  -28.2440  -19.1940   18.0640 C   0  0  0  0  0  3  0  0  0  0  0  0
  -28.5320  -17.7050   18.5770 C   0  0  0  0  0  3  0  0  0  0  0  0
  -29.7670  -16.8280   18.0370 C   0  0  0  0  0  2  0  0  0  0  0  0
  -31.3300  -14.9090   19.0860 C   0  0  0  0  0  0  0  0  0  0  0  0
  -31.6500  -12.4830   19.6390 C   0  0  0  0  0  2  0  0  0  0  0  0
  -30.7400  -11.6570   18.6890 C   0  0  0  0  0  2  0  0  0  0  0  0
  -29.2830  -11.6200   19.1960 C   0  0  0  0  0  2  0  0  0  0  0  0
  -28.7640  -12.9980   19.6710 C   0  0  0  0  0  3  0  0  0  0  0  0
  -29.7900  -13.6760   20.6160 C   0  0  0  0  0  2  0  0  0  0  0  0
  -31.0370  -13.8120   19.8490 N   0  0  0  0  0  0  0  0  0  0  0  0
  -32.3760  -14.9800   18.4260 O   0  0  0  0  0  0  0  0  0  0  0  0
  -30.2840  -15.8080   19.0220 N   0  0  0  0  0  0  0  0  0  0  0  0
  -29.5900  -15.5720   19.7130 H   0  0  0  0  0  0  0  0  0  0  0  0
  -26.6730  -13.9080   20.8480 C   0  0  0  0  0  0  0  0  0  0  0  0
  -25.5150  -13.3020   21.2360 C   0  0  0  0  0  0  0  0  0  0  0  0
  -25.6350  -11.9330   20.8460 C   0  0  0  0  0  0  0  0  0  0  0  0
  -27.4500  -12.9080   20.2860 N   0  0  0  0  0  0  0  0  0  0  0  0
  -26.8350  -11.7020   20.3360 N   0  0  0  0  0  0  0  0  0  0  0  0
  -24.6490  -10.8490   20.8820 C   0  0  0  0  0  0  0  0  0  0  0  0
  -24.9820   -9.5740   21.3850 C   0  0  0  0  0  3  0  0  0  0  0  0
  -24.0140   -8.5510   21.4310 C   0  0  0  0  0  3  0  0  0  0  0  0
  -22.6970   -8.7950   20.9780 C   0  0  0  0  0  0  0  0  0  0  0  0
  -22.3770  -10.0590   20.4520 C   0  0  0  0  0  3  0  0  0  0  0  0
  -23.3430  -11.0780   20.4020 C   0  0  0  0  0  3  0  0  0  0  0  0
  -21.7040   -7.8460   20.9530 O   0  0  0  0  0  0  0  0  0  0  0  0
  -21.5920   -6.8990   21.9390 C   0  0  0  0  0  0  0  0  0  0  0  0
  -21.3830   -7.2540   23.2900 C   0  0  0  0  0  3  0  0  0  0  0  0
  -21.2110   -6.2490   24.2620 C   0  0  0  0  0  3  0  0  0  0  0  0
  -21.2280   -4.8940   23.8850 C   0  0  0  0  0  0  0  0  0  0  0  0
  -21.4290   -4.5390   22.5410 C   0  0  0  0  0  3  0  0  0  0  0  0
  -21.6060   -5.5400   21.5680 C   0  0  0  0  0  0  0  0  0  0  0  0
  -21.7760   -5.1930   20.2690 F   0  0  0  0  0  0  0  0  0  0  0  0
  -21.0520   -3.9290   24.8180 F   0  0  0  0  0  0  0  0  0  0  0  0
  -24.3210  -13.9770   21.8400 C   0  0  0  0  0  0  0  0  0  0  0  0
  -23.6110  -13.2860   22.7250 N   0  0  0  0  0  0  0  0  0  0  0  0
  -24.0430  -15.1440   21.5690 O   0  0  0  0  0  0  0  0  0  0  0  0
  -23.8510  -12.3340   22.9580 H   0  0  0  0  0  0  0  0  0  0  0  0
  -22.8060  -13.7130   23.1590 H   0  0  0  0  0  0  0  0  0  0  0  0
  -27.1070  -15.2250   20.9080 N   0  0  0  0  0  0  0  0  0  0  0  0
  -26.5060  -15.9580   21.2690 H   0  0  0  0  0  0  0  0  0  0  0  0
  -28.0040  -15.5680   20.5910 H   0  0  0  0  0  0  0  0  0  0  0  0
  -22.8150  -27.0450   22.7060 C   0  0  0  0  0  2  0  0  0  0  0  0
  -25.5350  -28.5320   23.3590 C   0  0  0  0  0  2  0  0  0  0  0  0
  -27.1810  -27.5630   24.1050 O   0  0  0  0  0  1  0  0  0  0  0  0
  -28.3210  -31.3480   27.5660 C   0  0  0  0  0  0  0  0  0  0  0  0
  -28.6670  -27.1300   24.1220 C   0  0  0  0  0  3  0  0  0  0  0  0
  -27.6320  -30.9270   25.2880 C   0  0  0  0  0  3  0  0  0  0  0  0
  -29.1230  -29.5000   23.7360 C   0  0  0  0  0  3  0  0  0  0  0  0
  -29.8780  -30.0680   26.0610 C   0  0  0  0  0  2  0  0  0  0  0  0
  -29.6720  -29.0590   24.9470 C   0  0  0  0  0  3  0  0  0  0  0  0
  -29.5910  -27.6680   25.1100 C   0  0  0  0  0  2  0  0  0  0  0  0
  -29.2520  -27.2330   22.8830 C   0  0  0  0  0  2  0  0  0  0  0  0
  -29.0690  -28.5930   22.6310 C   0  0  0  0  0  2  0  0  0  0  0  0
  -28.2480  -30.7070   23.8510 C   0  0  0  0  0  2  0  0  0  0  0  0
  -28.6500  -30.8370   26.3500 N   0  0  0  0  0  0  0  0  0  0  0  0
  -27.2460  -31.9450   27.7540 O   0  0  0  0  0  0  0  0  0  0  0  0
  -26.5130  -29.9750   25.7550 C   0  0  0  0  0  0  0  0  0  0  0  0
  -25.2990  -30.2700   25.4180 N   0  0  0  0  0  0  0  0  0  0  0  0
  -26.6930  -28.9630   26.4250 O   0  0  0  0  0  0  0  0  0  0  0  0
  -25.0910  -31.1480   24.9680 H   0  0  0  0  0  0  0  0  0  0  0  0
  -23.8930  -28.9420   22.5910 C   0  0  1  0  0  0  0  0  0  0  0  0
  -24.2750  -29.2540   25.4260 C   0  0  0  0  0  2  0  0  0  0  0  0
  -24.6150  -27.2980   26.1190 C   0  0  0  0  0 15  0  0  0  0  0  0
  -25.0840  -26.2190   24.0900 C   0  0  0  0  0  1  0  0  0  0  0  0
  -24.7430  -27.4080   22.5860 C   0  0  2  0  0  0  0  0  0  0  0  0
  -23.7940  -29.7500   23.8380 C   0  0  0  0  0  0  0  0  0  0  0  0
  -23.1730  -31.0500   23.7150 C   0  0  0  0  0  3  0  0  0  0  0  0
  -22.5280  -31.5490   22.5580 C   0  0  0  0  0  3  0  0  0  0  0  0
  -22.4070  -30.7040   21.4490 C   0  0  0  0  0  3  0  0  0  0  0  0
  -23.0630  -29.4310   21.4800 C   0  0  0  0  0  2  0  0  0  0  0  0
  -29.2920  -31.2260   28.7530 C   0  0  0  0  0  3  0  0  0  0  0  0
  -29.5210  -32.5980   29.2070 N   0  0  0  0  0  0  0  0  0  0  0  0
  -30.5510  -33.3540   28.8120 C   0  0  0  0  0  0  0  0  0  0  0  0
  -31.4650  -32.9190   28.1050 O   0  0  0  0  0  0  0  0  0  0  0  0
  -28.7770  -33.0350   29.7320 H   0  0  0  0  0  0  0  0  0  0  0  0
  -30.1480  -35.7440   28.1450 C   0  0  0  0  0  1  0  0  0  0  0  0
  -30.5770  -34.8150   29.2920 C   0  0  0  0  0  3  0  0  0  0  0  0
  -32.2600  -34.5680   31.0600 C   0  0  0  0  0  1  0  0  0  0  0  0
  -31.8960  -35.2330   29.8100 N   0  0  0  0  0  0  0  0  0  0  0  0
  -31.9200  -36.2370   29.9650 H   0  0  0  0  0  0  0  0  0  0  0  0
  -28.7350  -30.3290   29.9190 C   0  0  1  0  0  0  0  0  0  0  0  0
  -27.2690  -30.6260   30.3050 C   0  0  0  0  0  1  0  0  0  0  0  0
  -28.8300  -28.8290   29.5640 C   0  0  0  0  0  1  0  0  0  0  0  0
  -29.6160  -30.5390   31.1700 C   0  0  0  0  0  1  0  0  0  0  0  0
  1  3  1  0
  2  5  1  0
  2  4  1  0
  3  6  1  0
  4  6  1  0
  5 12  1  0
  5  1  1  0
  6  7  1  1
  6 57  1  0
  8 10  2  0
  8  9  1  0
  9 12  2  0
 10 13  1  0
 12 11  1  0
 13 14  1  0
 13 11  2  0
 14 15  1  0
 16 17  2  0
 16 14  1  0
 18 17  1  0
 18 27  1  0
 19 25  1  0
 20 25  1  0
 21 22  1  0
 21 20  1  0
 23 22  1  0
 23 32  1  0
 23 24  1  0
 25 24  1  0
 26 19  2  0
 27 19  1  0
 27 28  1  0
 29 54  1  0
 29 30  2  0
 30 49  1  0
 31 34  1  0
 31 30  1  0
 32 33  1  0
 32 29  1  0
 33 31  2  0
 34 35  1  0
 35 36  2  0
 37 36  1  0
 38 37  2  0
 39 38  1  0
 39 34  2  0
 40 37  1  0
 40 41  1  0
 41 42  1  0
 42 43  2  0
 44 43  1  0
 44 48  1  0
 45 44  2  0
 46 41  2  0
 46 45  1  0
 47 46  1  0
 49 50  1  0
 50 52  1  0
 50 53  1  0
 51 49  2  0
 54 55  1  0
 56 54  1  0
 60 71  2  0
 61 59  1  0
 61 66  1  0
 62 72  1  0
 62 70  1  0
 63 68  1  0
 63 69  1  0
 63 65  1  0
 64 70  1  0
 65 66  1  0
 65 64  1  0
 67 61  1  0
 68 67  1  0
 69 62  1  0
 70 60  1  0
 72 74  2  0
 73 77  1  0
 73 72  1  0
 75 73  1  0
 76 85  1  6
 76 58  1  0
 76 81  1  0
 80 76  1  0
 80 57  1  0
 80 58  1  0
 80 79  1  6
 81 77  1  0
 82 81  2  0
 83 82  1  0
 84 85  1  0
 84 83  2  0
 86 60  1  0
 86 87  1  0
 86 96  1  0
 87 90  1  0
 88 87  1  0
 88 92  1  0
 89 88  2  0
 92 91  1  0
 92 94  1  0
 94 95  1  0
 94 93  1  0
 96 97  1  1
 96 99  1  0
 98 96  1  0
M  ISO  4  19 100  27 100  58 101  59 101
M  END
>  <TORSDO>  (84) 
F 23

>  <SCORE>  (84) 
-7.179

>  <name>  (84) 
85

>  <ligand_id>  (84) 
85

>  <original_smiles>  (84) 
[H]c1c([H])c([H])c2c(c1[H])C([H])([H])C([H])([H])C([H])([H])C2([H])N([H])C(=O)C1([H])N(C(=O)C([H])(N([H])C(=O)C([H])(N([H])C([H])([H])[H])C([H])([H])[H])C(C([H])([H])[H])(C([H])([H])[H])C([H])([H])[H])C([H])([H])c2c([H])c(OC([H])([H])C([H])([H])[N+]3([H])C([H])([H])C([H])([H])C([H])(c4c([H])c([H])c([H])c(N([H])C([H])([H])C([H])([H])C([H])([H])N([H])C(=O)N5C([H])([H])C([H])([H])C([H])([H])C([H])(n6nc(-c7c([H])c([H])c(Oc8c([H])c([H])c(F)c([H])c8F)c([H])c7[H])c(C(=O)N([H])[H])c6N([H])[H])C5([H])[H])c4[H])C([H])([H])C3([H])[H])c([H])c([H])c2C1([H])[H]

>  <smiles>  (84) 
[H]c1c([H])c([H])c2c(c1[H])C([H])([H])C([H])([H])C([H])([H])C2([H])N([H])C(=O)C1([H])N(C(=O)C([H])(N([H])C(=O)C([H])(N([H])C([H])([H])[H])C([H])([H])[H])C(C([H])([H])[H])(C([H])([H])[H])C([H])([H])[H])C([H])([H])c2c([H])c(OC([H])([H])C([H])([H])[N+]3([H])C([H])([H])C([H])([H])C([H])(c4c([H])c([H])c([H])c(N([H])C([H])([H])C([H])([H])C([H])([H])N([H])C(=O)N5C([H])([H])C([H])([H])C([H])([H])C([H])(n6nc(-c7c([H])c([H])c(Oc8c([H])c([H])c(F)c([H])c8F)c([H])c7[H])c(C(=O)N([H])[H])c6N([H])[H])C5([H])[H])c4[H])C([H])([H])C3([H])[H])c([H])c([H])c2C1([H])[H]

$$$$
86:0:0
     RDKit          3D

 90 98  0  0  1  0  0  0  0  0999 V2000
  -30.9830  -14.7980   20.0790 C   0  0  0  0  0  0  0  0  0  0  0  0
  -30.9130  -12.2650   19.7350 C   0  0  0  0  0  2  0  0  0  0  0  0
  -30.0740  -11.8720   18.4930 C   0  0  0  0  0  2  0  0  0  0  0  0
  -28.5750  -11.7730   18.8370 C   0  0  0  0  0  2  0  0  0  0  0  0
  -28.0920  -12.9580   19.7110 C   0  0  0  0  0  3  0  0  0  0  0  0
  -29.0610  -13.2230   20.8800 C   0  0  0  0  0  2  0  0  0  0  0  0
  -30.3650  -13.5520   20.2820 N   0  0  0  0  0  0  0  0  0  0  0  0
  -32.1870  -14.7390   19.7900 O   0  0  0  0  0  0  0  0  0  0  0  0
  -27.9990  -17.1460   20.0950 C   0  0  0  0  0  2  0  0  0  0  0  0
  -29.2960  -16.6430   20.8110 C   0  0  0  0  0  2  0  0  0  0  0  0
  -30.5530  -17.1950   18.8350 C   0  0  0  0  0  2  0  0  0  0  0  0
  -30.4070  -18.8570   19.1190 C   0  0  0  0  0  2  0  0  0  0  0  0
  -27.9880  -19.3630   18.6160 C   0  0  0  0  0  2  0  0  0  0  0  0
  -27.6890  -18.6840   20.0090 C   0  0  0  0  0  3  0  0  0  0  0  0
  -26.1960  -18.8890   20.3750 C   0  0  0  0  0  1  0  0  0  0  0  0
  -30.2710  -16.0450   19.8720 N   0  0  0  0  0  0  0  0  0  0  0  0
  -29.4010  -19.8170   18.3680 N   0  0  1  0  0  4  0  0  0  0  0  0
  -29.5700  -19.6420   17.3880 H   0  0  0  0  0  0  0  0  0  0  0  0
  -25.7290  -13.7460   20.3150 C   0  0  0  0  0  0  0  0  0  0  0  0
  -24.6020  -13.0820   20.6900 C   0  0  0  0  0  0  0  0  0  0  0  0
  -24.9550  -11.6990   20.7290 C   0  0  0  0  0  0  0  0  0  0  0  0
  -26.7140  -12.7830   20.1620 N   0  0  0  0  0  0  0  0  0  0  0  0
  -26.2500  -11.5460   20.4710 N   0  0  0  0  0  0  0  0  0  0  0  0
  -24.1140  -10.5150   20.9370 C   0  0  0  0  0  0  0  0  0  0  0  0
  -24.4960   -9.4810   21.8200 C   0  0  0  0  0  3  0  0  0  0  0  0
  -23.6590   -8.3620   22.0120 C   0  0  0  0  0  3  0  0  0  0  0  0
  -22.4260   -8.2680   21.3230 C   0  0  0  0  0  0  0  0  0  0  0  0
  -22.0630   -9.2880   20.4270 C   0  0  0  0  0  3  0  0  0  0  0  0
  -22.8980  -10.4000   20.2310 C   0  0  0  0  0  3  0  0  0  0  0  0
  -21.5640   -7.2050   21.4300 O   0  0  0  0  0  0  0  0  0  0  0  0
  -21.5800   -6.3740   22.5200 C   0  0  0  0  0  0  0  0  0  0  0  0
  -21.4080   -6.8620   23.8330 C   0  0  0  0  0  3  0  0  0  0  0  0
  -21.3630   -5.9630   24.9170 C   0  0  0  0  0  3  0  0  0  0  0  0
  -21.4810   -4.5790   24.6860 C   0  0  0  0  0  0  0  0  0  0  0  0
  -21.6500   -4.0900   23.3790 C   0  0  0  0  0  3  0  0  0  0  0  0
  -21.6970   -4.9860   22.2970 C   0  0  0  0  0  0  0  0  0  0  0  0
  -21.8410   -4.5120   21.0380 F   0  0  0  0  0  0  0  0  0  0  0  0
  -21.4280   -3.7150   25.7270 F   0  0  0  0  0  0  0  0  0  0  0  0
  -23.2460  -13.6890   20.9000 C   0  0  0  0  0  0  0  0  0  0  0  0
  -22.4540  -13.1170   21.7970 N   0  0  0  0  0  0  0  0  0  0  0  0
  -22.9040  -14.7120   20.3060 O   0  0  0  0  0  0  0  0  0  0  0  0
  -22.7440  -12.2870   22.2940 H   0  0  0  0  0  0  0  0  0  0  0  0
  -21.5480  -13.5140   21.9930 H   0  0  0  0  0  0  0  0  0  0  0  0
  -25.9790  -15.0810   20.0560 N   0  0  0  0  0  0  0  0  0  0  0  0
  -25.2520  -15.7810   20.1400 H   0  0  0  0  0  0  0  0  0  0  0  0
  -26.8640  -15.4580   19.7520 H   0  0  0  0  0  0  0  0  0  0  0  0
  -29.5170  -21.4080   18.5070 C   0  0  0  0  0  2  0  0  0  0  0  0
  -28.5780  -22.5610   17.6790 C   0  0  0  0  0  2  0  0  0  0  0  0
  -28.0890  -24.0890   18.2470 C   0  0  0  0  0  2  0  0  0  0  0  0
  -27.9140  -25.4690   17.5220 O   0  0  0  0  0  0  0  0  0  0  0  0
  -25.1580  -30.4680   22.2400 C   0  0  0  0  0  0  0  0  0  0  0  0
  -26.9350  -26.4610   17.8980 C   0  0  0  0  0  0  0  0  0  0  0  0
  -23.6490  -29.5490   20.5180 C   0  0  0  0  0  3  0  0  0  0  0  0
  -24.7680  -28.2840   18.5820 C   0  0  0  0  0  0  0  0  0  0  0  0
  -26.1720  -29.7280   20.0460 C   0  0  0  0  0  2  0  0  0  0  0  0
  -26.0480  -28.5220   19.0980 C   0  0  0  0  0  0  0  0  0  0  0  0
  -27.1330  -27.6370   18.7330 C   0  0  0  0  0  3  0  0  0  0  0  0
  -25.6290  -26.3200   17.3880 C   0  0  0  0  0  3  0  0  0  0  0  0
  -24.5730  -27.2000   17.7120 C   0  0  0  0  0  3  0  0  0  0  0  0
  -23.6310  -29.2020   19.0050 C   0  0  0  0  0  2  0  0  0  0  0  0
  -25.0220  -29.9250   20.9910 N   0  0  0  0  0  0  0  0  0  0  0  0
  -24.1730  -30.6670   22.9700 O   0  0  0  0  0  0  0  0  0  0  0  0
  -23.0260  -28.3790   21.3170 C   0  0  0  0  0  0  0  0  0  0  0  0
  -21.6850  -28.2780   21.3150 N   0  0  0  0  0  0  0  0  0  0  0  0
  -23.7500  -27.5720   21.9060 O   0  0  0  0  0  0  0  0  0  0  0  0
  -21.1580  -28.9770   20.8100 H   0  0  0  0  0  0  0  0  0  0  0  0
  -18.3280  -27.0380   21.8750 C   0  0  0  0  0  0  0  0  0  0  0  0
  -20.9070  -27.2190   21.9650 C   0  0  0  0  0  3  0  0  0  0  0  0
  -20.9210  -25.9240   21.1210 C   0  0  0  0  0  2  0  0  0  0  0  0
  -19.7280  -25.8110   20.1640 C   0  0  0  0  0  2  0  0  0  0  0  0
  -18.4080  -25.8440   20.9400 C   0  0  0  0  0  2  0  0  0  0  0  0
  -19.4980  -27.6930   22.3440 C   0  0  0  0  0  0  0  0  0  0  0  0
  -19.3570  -28.8180   23.1850 C   0  0  0  0  0  3  0  0  0  0  0  0
  -18.0830  -29.2850   23.5620 C   0  0  0  0  0  3  0  0  0  0  0  0
  -16.9300  -28.6220   23.1050 C   0  0  0  0  0  3  0  0  0  0  0  0
  -17.0540  -27.5040   22.2640 C   0  0  0  0  0  3  0  0  0  0  0  0
  -26.5530  -30.8810   22.8030 C   0  0  0  0  0  3  0  0  0  0  0  0
  -26.3500  -32.0300   23.7000 N   0  0  0  0  0  0  0  0  0  0  0  0
  -26.6510  -33.2990   23.4010 C   0  0  0  0  0  0  0  0  0  0  0  0
  -27.1970  -33.6240   22.3430 O   0  0  0  0  0  0  0  0  0  0  0  0
  -25.8580  -31.8490   24.5620 H   0  0  0  0  0  0  0  0  0  0  0  0
  -25.0140  -35.1190   23.9960 C   0  0  0  0  0  1  0  0  0  0  0  0
  -26.2890  -34.3830   24.4370 C   0  0  0  0  0  3  0  0  0  0  0  0
  -28.5380  -34.7940   25.3360 C   0  0  0  0  0  1  0  0  0  0  0  0
  -27.3700  -35.3640   24.6700 N   0  0  0  0  0  0  0  0  0  0  0  0
  -27.0320  -36.1370   25.2380 H   0  0  0  0  0  0  0  0  0  0  0  0
  -27.2860  -29.7110   23.5700 C   0  0  1  0  0  0  0  0  0  0  0  0
  -26.4230  -29.0410   24.6630 C   0  0  0  0  0  1  0  0  0  0  0  0
  -27.7410  -28.6070   22.5890 C   0  0  0  0  0  1  0  0  0  0  0  0
  -28.5680  -30.2540   24.2480 C   0  0  0  0  0  1  0  0  0  0  0  0
  1  7  1  0
  2  7  1  0
  3  4  1  0
  3  2  1  0
  5  4  1  0
  5 22  1  0
  5  6  1  0
  7  6  1  0
  8  1  2  0
  9 10  1  0
 11 12  1  0
 11 16  1  0
 13 14  1  0
 14  9  1  0
 14 15  1  0
 16  1  1  0
 16 10  1  0
 17 47  1  0
 17 13  1  0
 17 12  1  0
 17 18  1  6
 19 20  2  0
 20 21  1  0
 20 39  1  0
 21 24  1  0
 22 19  1  0
 22 23  1  0
 23 21  2  0
 24 25  1  0
 25 26  2  0
 27 30  1  0
 27 26  1  0
 28 27  2  0
 29 28  1  0
 29 24  2  0
 30 31  1  0
 31 32  1  0
 32 33  2  0
 34 33  1  0
 34 38  1  0
 35 34  2  0
 36 31  2  0
 36 35  1  0
 37 36  1  0
 39 40  1  0
 40 43  1  0
 40 42  1  0
 41 39  2  0
 44 45  1  0
 44 19  1  0
 46 44  1  0
 48 49  1  0
 48 47  1  0
 50 52  1  0
 50 49  1  0
 51 62  2  0
 52 57  1  0
 53 61  1  0
 53 63  1  0
 54 60  1  0
 54 56  1  0
 55 61  1  0
 56 55  1  0
 57 56  2  0
 58 59  1  0
 58 52  2  0
 59 54  2  0
 60 53  1  0
 61 51  1  0
 63 65  2  0
 64 63  1  0
 66 64  1  0
 67 76  2  0
 67 72  1  0
 68 64  1  0
 68 72  1  0
 69 68  1  0
 70 71  1  0
 70 69  1  0
 71 67  1  0
 72 73  2  0
 73 74  1  0
 75 74  2  0
 76 75  1  0
 77 51  1  0
 77 87  1  0
 77 78  1  0
 78 81  1  0
 79 78  1  0
 79 83  1  0
 80 79  2  0
 83 82  1  0
 83 85  1  0
 85 86  1  0
 85 84  1  0
 87 90  1  1
 87 88  1  0
 89 87  1  0
M  ISO  4   1 100  16 100  49 101  50 101
M  END
>  <TORSDO>  (85) 
F 18

>  <SCORE>  (85) 
-10.660

>  <name>  (85) 
86

>  <ligand_id>  (85) 
86

>  <original_smiles>  (85) 
[H]c1c([H])c([H])c2c(c1[H])C([H])([H])C([H])([H])C([H])([H])C2([H])N([H])C(=O)C1([H])N(C(=O)C([H])(N([H])C(=O)C([H])(N([H])C([H])([H])[H])C([H])([H])[H])C(C([H])([H])[H])(C([H])([H])[H])C([H])([H])[H])C([H])([H])c2c([H])c(OC([H])([H])C([H])([H])C([H])([H])[N+]3([H])C([H])([H])C([H])([H])N(C(=O)N4C([H])([H])C([H])([H])C([H])([H])C([H])(n5nc(-c6c([H])c([H])c(Oc7c([H])c([H])c(F)c([H])c7F)c([H])c6[H])c(C(=O)N([H])[H])c5N([H])[H])C4([H])[H])C([H])([H])C([H])([H])C([H])(C([H])([H])[H])C3([H])[H])c([H])c([H])c2C1([H])[H]

>  <smiles>  (85) 
[H]c1c([H])c([H])c2c(c1[H])C([H])([H])C([H])([H])C([H])([H])C2([H])N([H])C(=O)C1([H])N(C(=O)C([H])(N([H])C(=O)C([H])(N([H])C([H])([H])[H])C([H])([H])[H])C(C([H])([H])[H])(C([H])([H])[H])C([H])([H])[H])C([H])([H])c2c([H])c(OC([H])([H])C([H])([H])C([H])([H])[N+]3([H])C([H])([H])C([H])([H])N(C(=O)N4C([H])([H])C([H])([H])C([H])([H])C([H])(n5nc(-c6c([H])c([H])c(Oc7c([H])c([H])c(F)c([H])c7F)c([H])c6[H])c(C(=O)N([H])[H])c5N([H])[H])C4([H])[H])C([H])([H])C([H])([H])C([H])(C([H])([H])[H])C3([H])[H])c([H])c([H])c2C1([H])[H]

$$$$
87:0:0
     RDKit          3D

 90 98  0  0  1  0  0  0  0  0999 V2000
  -30.5610  -20.6580   19.3900 C   0  0  0  0  0  3  0  0  0  0  0  0
  -30.7580  -19.1870   19.4820 C   0  0  0  0  0  3  0  0  0  0  0  0
  -28.6260  -19.0090   20.3370 C   0  0  0  0  0  3  0  0  0  0  0  0
  -29.3920  -21.4530   19.7670 C   0  0  0  0  0  0  0  0  0  0  0  0
  -29.8010  -18.2150   19.9770 C   0  0  0  0  0  0  0  0  0  0  0  0
  -28.4320  -20.4820   20.2620 C   0  0  0  0  0  0  0  0  0  0  0  0
  -30.6920  -15.4240   19.8950 C   0  0  0  0  0  0  0  0  0  0  0  0
  -30.6570  -12.9740   19.0720 C   0  0  0  0  0  2  0  0  0  0  0  0
  -29.6850  -12.7830   17.8800 C   0  0  0  0  0  2  0  0  0  0  0  0
  -28.2490  -12.5350   18.3760 C   0  0  0  0  0  2  0  0  0  0  0  0
  -27.8500  -13.5100   19.5110 C   0  0  0  0  0  3  0  0  0  0  0  0
  -28.9410  -13.6380   20.5960 C   0  0  0  0  0  2  0  0  0  0  0  0
  -30.1590  -14.1110   19.9200 N   0  0  0  0  0  0  0  0  0  0  0  0
  -31.8850  -15.4810   19.5650 O   0  0  0  0  0  0  0  0  0  0  0  0
  -29.8540  -16.6120   20.0930 N   0  0  0  0  0  0  0  0  0  0  0  0
  -28.9620  -16.2670   20.4170 H   0  0  0  0  0  0  0  0  0  0  0  0
  -25.5190  -14.0920   20.3760 C   0  0  0  0  0  0  0  0  0  0  0  0
  -24.4650  -13.3220   20.7830 C   0  0  0  0  0  0  0  0  0  0  0  0
  -24.9120  -11.9680   20.7100 C   0  0  0  0  0  0  0  0  0  0  0  0
  -26.5380  -13.2080   20.0710 N   0  0  0  0  0  0  0  0  0  0  0  0
  -26.1880  -11.9220   20.3390 N   0  0  0  0  0  0  0  0  0  0  0  0
  -24.1790  -10.7110   20.9140 C   0  0  0  0  0  0  0  0  0  0  0  0
  -24.6000   -9.7530   21.8630 C   0  0  0  0  0  3  0  0  0  0  0  0
  -23.8640   -8.5640   22.0540 C   0  0  0  0  0  3  0  0  0  0  0  0
  -22.6930   -8.3230   21.2960 C   0  0  0  0  0  0  0  0  0  0  0  0
  -22.2910   -9.2690   20.3370 C   0  0  0  0  0  3  0  0  0  0  0  0
  -23.0280  -10.4500   20.1440 C   0  0  0  0  0  3  0  0  0  0  0  0
  -21.9300   -7.1850   21.3960 O   0  0  0  0  0  0  0  0  0  0  0  0
  -21.8350   -6.4840   22.5710 C   0  0  0  0  0  0  0  0  0  0  0  0
  -21.3160   -7.0670   23.7470 C   0  0  0  0  0  3  0  0  0  0  0  0
  -21.1700   -6.2900   24.9130 C   0  0  0  0  0  3  0  0  0  0  0  0
  -21.5330   -4.9310   24.9040 C   0  0  0  0  0  0  0  0  0  0  0  0
  -22.0450   -4.3460   23.7320 C   0  0  0  0  0  3  0  0  0  0  0  0
  -22.1920   -5.1210   22.5680 C   0  0  0  0  0  0  0  0  0  0  0  0
  -22.6660   -4.5470   21.4360 F   0  0  0  0  0  0  0  0  0  0  0  0
  -21.3870   -4.1810   26.0230 F   0  0  0  0  0  0  0  0  0  0  0  0
  -23.0870  -13.8130   21.1200 C   0  0  0  0  0  0  0  0  0  0  0  0
  -22.3900  -13.1150   22.0090 N   0  0  0  0  0  0  0  0  0  0  0  0
  -22.6410  -14.8500   20.6310 O   0  0  0  0  0  0  0  0  0  0  0  0
  -22.7650  -12.2760   22.4250 H   0  0  0  0  0  0  0  0  0  0  0  0
  -21.4670  -13.4250   22.2790 H   0  0  0  0  0  0  0  0  0  0  0  0
  -25.6880  -15.4630   20.2080 N   0  0  0  0  0  0  0  0  0  0  0  0
  -24.9240  -16.1160   20.3530 H   0  0  0  0  0  0  0  0  0  0  0  0
  -26.4980  -15.8950   19.7840 H   0  0  0  0  0  0  0  0  0  0  0  0
  -27.2300  -20.9960   20.7420 N   0  0  0  0  0  0  0  0  0  0  0  0
  -26.6720  -20.4240   21.3690 H   0  0  0  0  0  0  0  0  0  0  0  0
  -27.1910  -21.9820   20.9770 H   0  0  0  0  0  0  0  0  0  0  0  0
  -29.3670  -23.1920   19.8490 C   0  0  0  0  0  3  0  0  0  0  0  0
  -28.2550  -24.5290   19.5100 C   0  0  0  0  0  3  0  0  0  0  0  0
  -28.3980  -26.1340   19.7630 O   0  0  0  0  0  0  0  0  0  0  0  0
  -24.5810  -31.7010   23.0510 C   0  0  0  0  0  0  0  0  0  0  0  0
  -27.3230  -27.1510   19.7580 C   0  0  0  0  0  0  0  0  0  0  0  0
  -23.4340  -30.3500   21.3400 C   0  0  0  0  0  3  0  0  0  0  0  0
  -24.9380  -28.8940   19.8240 C   0  0  0  0  0  0  0  0  0  0  0  0
  -25.9840  -30.6900   21.1920 C   0  0  0  0  0  2  0  0  0  0  0  0
  -26.1090  -29.3270   20.4580 C   0  0  0  0  0  0  0  0  0  0  0  0
  -27.2950  -28.4770   20.4010 C   0  0  0  0  0  3  0  0  0  0  0  0
  -26.1160  -26.8540   19.0880 C   0  0  0  0  0  3  0  0  0  0  0  0
  -24.9620  -27.6790   19.1210 C   0  0  0  0  0  3  0  0  0  0  0  0
  -23.6810  -29.7540   19.9270 C   0  0  0  0  0  2  0  0  0  0  0  0
  -24.6860  -30.9380   21.9160 N   0  0  0  0  0  0  0  0  0  0  0  0
  -23.4850  -31.9150   23.5920 O   0  0  0  0  0  0  0  0  0  0  0  0
  -22.7900  -29.2740   22.2510 C   0  0  0  0  0  0  0  0  0  0  0  0
  -21.4660  -29.0690   22.1280 N   0  0  0  0  0  0  0  0  0  0  0  0
  -23.4870  -28.6240   23.0340 O   0  0  0  0  0  0  0  0  0  0  0  0
  -20.9540  -29.6460   21.4750 H   0  0  0  0  0  0  0  0  0  0  0  0
  -18.1270  -27.7430   22.6250 C   0  0  0  0  0  0  0  0  0  0  0  0
  -20.6840  -28.0600   22.8500 C   0  0  0  0  0  3  0  0  0  0  0  0
  -20.8090  -26.6740   22.1760 C   0  0  0  0  0  2  0  0  0  0  0  0
  -19.6910  -26.3920   21.1650 C   0  0  0  0  0  2  0  0  0  0  0  0
  -18.3230  -26.4510   21.8480 C   0  0  0  0  0  2  0  0  0  0  0  0
  -19.2350  -28.5060   23.0810 C   0  0  0  0  0  0  0  0  0  0  0  0
  -18.9940  -29.7140   23.7700 C   0  0  0  0  0  3  0  0  0  0  0  0
  -17.6810  -30.1610   24.0060 C   0  0  0  0  0  3  0  0  0  0  0  0
  -16.5880  -29.3960   23.5630 C   0  0  0  0  0  3  0  0  0  0  0  0
  -16.8120  -28.1880   22.8780 C   0  0  0  0  0  3  0  0  0  0  0  0
  -25.8310  -32.3560   23.7130 C   0  0  0  0  0  3  0  0  0  0  0  0
  -26.3300  -31.5810   24.9950 C   0  0  1  0  0  0  0  0  0  0  0  0
  -25.2160  -31.3130   26.0350 C   0  0  0  0  0  1  0  0  0  0  0  0
  -26.9490  -30.2190   24.6110 C   0  0  0  0  0  1  0  0  0  0  0  0
  -27.4490  -32.3900   25.6940 C   0  0  0  0  0  1  0  0  0  0  0  0
  -25.4820  -33.7440   24.0630 N   0  0  0  0  0  0  0  0  0  0  0  0
  -25.7700  -34.8200   23.3180 C   0  0  0  0  0  0  0  0  0  0  0  0
  -26.4230  -34.7500   22.2730 O   0  0  0  0  0  0  0  0  0  0  0  0
  -24.8970  -33.8690   24.8760 H   0  0  0  0  0  0  0  0  0  0  0  0
  -23.9700  -36.5610   23.0550 C   0  0  0  0  0  1  0  0  0  0  0  0
  -25.2580  -36.1890   23.8080 C   0  0  0  0  0  3  0  0  0  0  0  0
  -27.3860  -37.1530   24.5670 C   0  0  0  0  0  1  0  0  0  0  0  0
  -26.2490  -37.2780   23.6590 N   0  0  0  0  0  0  0  0  0  0  0  0
  -25.8160  -38.1830   23.8160 H   0  0  0  0  0  0  0  0  0  0  0  0
  1  2  2  0
  1  4  1  0
  2  5  1  0
  4 48  1  0
  4  6  2  0
  5 15  1  0
  5  3  2  0
  6  3  1  0
  6 45  1  0
  7 13  1  0
  7 15  1  0
  8 13  1  0
  9 10  1  0
  9  8  1  0
 11 10  1  0
 11 20  1  0
 11 12  1  0
 13 12  1  0
 14  7  2  0
 15 16  1  0
 17 18  2  0
 18 37  1  0
 19 18  1  0
 19 22  1  0
 20 21  1  0
 20 17  1  0
 21 19  2  0
 22 23  1  0
 23 24  2  0
 25 28  1  0
 25 24  1  0
 26 25  2  0
 27 26  1  0
 27 22  2  0
 28 29  1  0
 29 30  1  0
 30 31  2  0
 32 31  1  0
 32 36  1  0
 33 32  2  0
 34 29  2  0
 34 33  1  0
 35 34  1  0
 37 38  1  0
 38 41  1  0
 38 40  1  0
 39 37  2  0
 42 43  1  0
 42 17  1  0
 44 42  1  0
 45 47  1  0
 45 46  1  0
 49 50  1  0
 49 48  2  0
 51 62  2  0
 52 50  1  0
 52 57  1  0
 53 61  1  0
 53 63  1  0
 54 60  1  0
 54 56  1  0
 55 61  1  0
 56 55  1  0
 57 56  2  0
 58 59  1  0
 58 52  2  0
 59 54  2  0
 60 53  1  0
 61 51  1  0
 63 65  2  0
 64 63  1  0
 66 64  1  0
 67 76  2  0
 67 72  1  0
 68 64  1  0
 68 72  1  0
 69 68  1  0
 70 71  1  0
 70 69  1  0
 71 67  1  0
 72 73  2  0
 73 74  1  0
 75 74  2  0
 76 75  1  0
 77 51  1  0
 77 82  1  0
 77 78  1  0
 78 81  1  1
 78 79  1  0
 80 78  1  0
 82 85  1  0
 83 87  1  0
 83 82  1  0
 84 83  2  0
 87 86  1  0
 89 87  1  0
 89 90  1  0
 89 88  1  0
M  ISO  4   7 100  15 100  49 101  50 101
M  END
>  <TORSDO>  (86) 
F 19

>  <SCORE>  (86) 
-14.646

>  <name>  (86) 
87

>  <ligand_id>  (86) 
87

>  <original_smiles>  (86) 
[H]c1c([H])c([H])c2c(c1[H])C([H])([H])C([H])([H])C([H])([H])C2([H])N([H])C(=O)C1([H])N(C(=O)C([H])(N([H])C(=O)C([H])(N([H])C([H])([H])[H])C([H])([H])[H])C(C([H])([H])[H])(C([H])([H])[H])C([H])([H])[H])C([H])([H])c2c([H])c(OC([H])([H])C([H])([H])c3c([H])c([H])c(N([H])C(=O)N4C([H])([H])C([H])([H])C([H])([H])C([H])(n5nc(-c6c([H])c([H])c(Oc7c([H])c([H])c(F)c([H])c7F)c([H])c6[H])c(C(=O)N([H])[H])c5N([H])[H])C4([H])[H])c([H])c3N([H])[H])c([H])c([H])c2C1([H])[H]

>  <smiles>  (86) 
[H]c1c([H])c([H])c2c(c1[H])C([H])([H])C([H])([H])C([H])([H])C2([H])N([H])C(=O)C1([H])N(C(=O)C([H])(N([H])C(=O)C([H])(N([H])C([H])([H])[H])C([H])([H])[H])C(C([H])([H])[H])(C([H])([H])[H])C([H])([H])[H])C([H])([H])c2c([H])c(OC([H])([H])C([H])([H])c3c([H])c([H])c(N([H])C(=O)N4C([H])([H])C([H])([H])C([H])([H])C([H])(n5nc(-c6c([H])c([H])c(Oc7c([H])c([H])c(F)c([H])c7F)c([H])c6[H])c(C(=O)N([H])[H])c5N([H])[H])C4([H])[H])c([H])c3N([H])[H])c([H])c([H])c2C1([H])[H]

$$$$
88:0:0
     RDKit          3D

 93100  0  0  1  0  0  0  0  0999 V2000
  -28.8030  -22.4050   20.5040 C   0  0  0  0  0  3  0  0  0  0  0  0
  -28.2710  -22.1480   21.8570 N   0  0  0  0  0  4  0  0  0  0  0  0
  -28.9950  -22.2940   22.5390 H   0  0  0  0  0  0  0  0  0  0  0  0
  -27.9700  -21.1940   21.9420 H   0  0  0  0  0  0  0  0  0  0  0  0
  -27.4930  -22.7410   22.0720 H   0  0  0  0  0  0  0  0  0  0  0  0
  -29.8650  -21.2740   20.1590 C   0  0  0  0  0  0  0  0  0  0  0  0
  -29.5610  -19.9390   20.3320 N   0  0  0  0  0  0  0  0  0  0  0  0
  -30.9840  -21.6110   19.7710 O   0  0  0  0  0  0  0  0  0  0  0  0
  -28.5980  -19.7320   20.5610 H   0  0  0  0  0  0  0  0  0  0  0  0
  -31.5830  -18.7090   21.1780 C   0  0  0  0  0  1  0  0  0  0  0  0
  -30.4370  -18.7130   20.1560 C   0  0  0  0  0  3  0  0  0  0  0  0
  -29.6420  -17.3200   20.0440 C   0  0  0  0  0  2  0  0  0  0  0  0
  -30.4120  -16.0480   22.2690 C   0  0  0  0  0  1  0  0  0  0  0  0
  -29.9390  -15.9260   20.8100 C   0  0  0  0  0  3  0  0  0  0  0  0
  -30.6540  -14.6930   20.0960 C   0  0  0  0  0  0  0  0  0  0  0  0
  -30.3860  -12.4980   18.9290 C   0  0  0  0  0  2  0  0  0  0  0  0
  -29.3710  -12.6700   17.7770 C   0  0  0  0  0  2  0  0  0  0  0  0
  -27.9190  -12.5160   18.2770 C   0  0  0  0  0  2  0  0  0  0  0  0
  -27.6450  -13.3320   19.5690 C   0  0  0  0  0  3  0  0  0  0  0  0
  -28.7610  -13.0840   20.6090 C   0  0  0  0  0  2  0  0  0  0  0  0
  -30.0370  -13.4690   19.9860 N   0  0  0  0  0  0  0  0  0  0  0  0
  -31.7620  -14.8760   19.5820 O   0  0  0  0  0  0  0  0  0  0  0  0
  -25.2930  -13.9490   20.4040 C   0  0  0  0  0  0  0  0  0  0  0  0
  -24.2380  -13.1820   20.8190 C   0  0  0  0  0  0  0  0  0  0  0  0
  -24.6860  -11.8260   20.7540 C   0  0  0  0  0  0  0  0  0  0  0  0
  -26.3180  -13.0600   20.1130 N   0  0  0  0  0  0  0  0  0  0  0  0
  -25.9590  -11.7790   20.3810 N   0  0  0  0  0  0  0  0  0  0  0  0
  -23.9600  -10.5700   20.9690 C   0  0  0  0  0  0  0  0  0  0  0  0
  -24.4230   -9.5960   21.8810 C   0  0  0  0  0  3  0  0  0  0  0  0
  -23.6980   -8.4020   22.0840 C   0  0  0  0  0  3  0  0  0  0  0  0
  -22.4940   -8.1740   21.3740 C   0  0  0  0  0  0  0  0  0  0  0  0
  -22.0490   -9.1380   20.4520 C   0  0  0  0  0  3  0  0  0  0  0  0
  -22.7750  -10.3220   20.2470 C   0  0  0  0  0  3  0  0  0  0  0  0
  -21.7350   -7.0340   21.4890 O   0  0  0  0  0  0  0  0  0  0  0  0
  -21.7150   -6.2960   22.6440 C   0  0  0  0  0  0  0  0  0  0  0  0
  -21.3430   -6.8620   23.8840 C   0  0  0  0  0  3  0  0  0  0  0  0
  -21.2660   -6.0510   25.0340 C   0  0  0  0  0  3  0  0  0  0  0  0
  -21.5530   -4.6760   24.9460 C   0  0  0  0  0  0  0  0  0  0  0  0
  -21.9190   -4.1100   23.7120 C   0  0  0  0  0  3  0  0  0  0  0  0
  -21.9970   -4.9180   22.5640 C   0  0  0  0  0  0  0  0  0  0  0  0
  -22.3290   -4.3630   21.3740 F   0  0  0  0  0  0  0  0  0  0  0  0
  -21.4720   -3.8950   26.0490 F   0  0  0  0  0  0  0  0  0  0  0  0
  -22.8590  -13.6690   21.1610 C   0  0  0  0  0  0  0  0  0  0  0  0
  -22.1700  -12.9760   22.0600 N   0  0  0  0  0  0  0  0  0  0  0  0
  -22.4030  -14.6980   20.6650 O   0  0  0  0  0  0  0  0  0  0  0  0
  -22.5520  -12.1450   22.4850 H   0  0  0  0  0  0  0  0  0  0  0  0
  -21.2450  -13.2830   22.3270 H   0  0  0  0  0  0  0  0  0  0  0  0
  -25.4610  -15.3200   20.2310 N   0  0  0  0  0  0  0  0  0  0  0  0
  -24.7040  -15.9770   20.3890 H   0  0  0  0  0  0  0  0  0  0  0  0
  -26.2940  -15.7560   19.8590 H   0  0  0  0  0  0  0  0  0  0  0  0
  -29.2300  -23.9550   20.3550 C   0  0  0  0  0  3  0  0  0  0  0  0
  -28.0760  -25.0330   20.1210 C   0  0  0  0  0  3  0  0  0  0  0  0
  -28.3230  -26.4940   20.2410 O   0  0  0  0  0  0  0  0  0  0  0  0
  -24.6100  -31.9360   23.2320 C   0  0  0  0  0  0  0  0  0  0  0  0
  -27.2050  -27.3520   20.1890 C   0  0  0  0  0  0  0  0  0  0  0  0
  -23.3980  -30.5280   21.6090 C   0  0  0  0  0  3  0  0  0  0  0  0
  -24.8400  -28.9700   20.1850 C   0  0  0  0  0  0  0  0  0  0  0  0
  -25.9390  -30.8420   21.4120 C   0  0  0  0  0  2  0  0  0  0  0  0
  -26.0150  -29.4610   20.7670 C   0  0  0  0  0  0  0  0  0  0  0  0
  -27.2010  -28.6640   20.7560 C   0  0  0  0  0  3  0  0  0  0  0  0
  -26.0000  -26.9190   19.5830 C   0  0  0  0  0  3  0  0  0  0  0  0
  -24.8340  -27.7030   19.5860 C   0  0  0  0  0  3  0  0  0  0  0  0
  -23.6050  -29.8470   20.2320 C   0  0  0  0  0  2  0  0  0  0  0  0
  -24.6680  -31.1180   22.1410 N   0  0  0  0  0  0  0  0  0  0  0  0
  -23.5290  -32.2190   23.7680 O   0  0  0  0  0  0  0  0  0  0  0  0
  -22.7380  -29.5170   22.5770 C   0  0  0  0  0  0  0  0  0  0  0  0
  -21.4090  -29.3450   22.4590 N   0  0  0  0  0  0  0  0  0  0  0  0
  -23.4180  -28.8910   23.3930 O   0  0  0  0  0  0  0  0  0  0  0  0
  -20.9180  -29.9060   21.7770 H   0  0  0  0  0  0  0  0  0  0  0  0
  -18.0290  -28.1620   22.9780 C   0  0  0  0  0  0  0  0  0  0  0  0
  -20.5890  -28.4170   23.2400 C   0  0  0  0  0  3  0  0  0  0  0  0
  -20.6860  -26.9790   22.6780 C   0  0  0  0  0  2  0  0  0  0  0  0
  -19.5810  -26.6510   21.6690 C   0  0  0  0  0  2  0  0  0  0  0  0
  -18.2000  -26.8070   22.3150 C   0  0  0  0  0  2  0  0  0  0  0  0
  -19.1520  -28.9260   23.3980 C   0  0  0  0  0  0  0  0  0  0  0  0
  -18.9370  -30.1950   23.9780 C   0  0  0  0  0  3  0  0  0  0  0  0
  -17.6340  -30.7020   24.1410 C   0  0  0  0  0  3  0  0  0  0  0  0
  -16.5270  -29.9350   23.7380 C   0  0  0  0  0  3  0  0  0  0  0  0
  -16.7250  -28.6680   23.1630 C   0  0  0  0  0  3  0  0  0  0  0  0
  -25.8960  -32.5710   23.8450 C   0  0  0  0  0  3  0  0  0  0  0  0
  -26.4200  -31.8010   25.1180 C   0  0  1  0  0  0  0  0  0  0  0  0
  -25.3350  -31.5630   26.1940 C   0  0  0  0  0  1  0  0  0  0  0  0
  -27.0000  -30.4230   24.7230 C   0  0  0  0  0  1  0  0  0  0  0  0
  -27.5780  -32.5950   25.7690 C   0  0  0  0  0  1  0  0  0  0  0  0
  -25.5860  -33.9690   24.1760 N   0  0  0  0  0  0  0  0  0  0  0  0
  -25.9220  -35.0220   23.4190 C   0  0  0  0  0  0  0  0  0  0  0  0
  -26.5910  -34.9190   22.3880 O   0  0  0  0  0  0  0  0  0  0  0  0
  -24.9900  -34.1240   24.9760 H   0  0  0  0  0  0  0  0  0  0  0  0
  -24.1960  -36.8190   23.0670 C   0  0  0  0  0  1  0  0  0  0  0  0
  -25.4360  -36.4130   23.8780 C   0  0  0  0  0  3  0  0  0  0  0  0
  -27.5760  -37.2860   24.7090 C   0  0  0  0  0  1  0  0  0  0  0  0
  -26.4730  -37.4610   23.7680 N   0  0  0  0  0  0  0  0  0  0  0  0
  -26.0710  -38.3830   23.9190 H   0  0  0  0  0  0  0  0  0  0  0  0
  1 51  1  0
  1  2  1  0
  2  4  1  0
  2  5  1  0
  2  3  1  0
  6  7  1  0
  6  1  1  0
  7  9  1  0
  8  6  2  0
 11  7  1  0
 11 10  1  0
 12 11  1  0
 12 14  1  0
 14 13  1  0
 15 14  1  0
 16 21  1  0
 17 18  1  0
 17 16  1  0
 19 18  1  0
 19 26  1  0
 19 20  1  0
 21 15  1  0
 21 20  1  0
 22 15  2  0
 23 24  2  0
 24 43  1  0
 25 24  1  0
 25 28  1  0
 26 27  1  0
 26 23  1  0
 27 25  2  0
 28 29  1  0
 29 30  2  0
 31 34  1  0
 31 30  1  0
 32 31  2  0
 33 32  1  0
 33 28  2  0
 34 35  1  0
 35 36  1  0
 36 37  2  0
 38 37  1  0
 38 42  1  0
 39 38  2  0
 40 35  2  0
 40 39  1  0
 41 40  1  0
 43 44  1  0
 44 47  1  0
 44 46  1  0
 45 43  2  0
 48 49  1  0
 48 23  1  0
 50 48  1  0
 52 53  1  0
 52 51  2  0
 54 65  2  0
 55 53  1  0
 55 60  1  0
 56 64  1  0
 56 66  1  0
 57 63  1  0
 57 59  1  0
 58 64  1  0
 59 58  1  0
 60 59  2  0
 61 62  1  0
 61 55  2  0
 62 57  2  0
 63 56  1  0
 64 54  1  0
 66 68  2  0
 67 66  1  0
 69 67  1  0
 70 79  2  0
 70 75  1  0
 71 67  1  0
 71 75  1  0
 72 71  1  0
 73 74  1  0
 73 72  1  0
 74 70  1  0
 75 76  2  0
 76 77  1  0
 78 77  2  0
 79 78  1  0
 80 54  1  0
 80 85  1  0
 80 81  1  0
 81 84  1  1
 81 82  1  0
 83 81  1  0
 85 88  1  0
 86 90  1  0
 86 85  1  0
 87 86  2  0
 90 89  1  0
 92 90  1  0
 92 93  1  0
 92 91  1  0
M  ISO  4  14 100  15 100  52 101  53 101
M  END
>  <TORSDO>  (87) 
F 23

>  <SCORE>  (87) 
-12.818

>  <name>  (87) 
88

>  <ligand_id>  (87) 
88

>  <original_smiles>  (87) 
[H]c1c([H])c([H])c2c(c1[H])C([H])([H])C([H])([H])C([H])([H])C2([H])N([H])C(=O)C1([H])N(C(=O)C([H])(N([H])C(=O)C([H])(N([H])C([H])([H])[H])C([H])([H])[H])C(C([H])([H])[H])(C([H])([H])[H])C([H])([H])[H])C([H])([H])c2c([H])c(OC([H])([H])C([H])([H])C([H])(C(=O)N([H])C([H])(C([H])([H])[H])C([H])([H])C([H])(C(=O)N3C([H])([H])C([H])([H])C([H])([H])C([H])(n4nc(-c5c([H])c([H])c(Oc6c([H])c([H])c(F)c([H])c6F)c([H])c5[H])c(C(=O)N([H])[H])c4N([H])[H])C3([H])[H])C([H])([H])[H])[N+]([H])([H])[H])c([H])c([H])c2C1([H])[H]

>  <smiles>  (87) 
[H]c1c([H])c([H])c2c(c1[H])C([H])([H])C([H])([H])C([H])([H])C2([H])N([H])C(=O)C1([H])N(C(=O)C([H])(N([H])C(=O)C([H])(N([H])C([H])([H])[H])C([H])([H])[H])C(C([H])([H])[H])(C([H])([H])[H])C([H])([H])[H])C([H])([H])c2c([H])c(OC([H])([H])C([H])([H])C([H])(C(=O)N([H])C([H])(C([H])([H])[H])C([H])([H])C([H])(C(=O)N3C([H])([H])C([H])([H])C([H])([H])C([H])(n4nc(-c5c([H])c([H])c(Oc6c([H])c([H])c(F)c([H])c6F)c([H])c5[H])c(C(=O)N([H])[H])c4N([H])[H])C3([H])[H])C([H])([H])[H])[N+]([H])([H])[H])c([H])c([H])c2C1([H])[H]

$$$$
89:0:0
     RDKit          3D

 93102  0  0  1  0  0  0  0  0999 V2000
  -29.7270  -18.4820   17.9910 C   0  0  0  0  0  3  0  0  0  0  0  0
  -29.8800  -17.2650   18.6890 C   0  0  0  0  0  3  0  0  0  0  0  0
  -29.6470  -18.4830   20.7760 C   0  0  0  0  0  3  0  0  0  0  0  0
  -29.5520  -19.7160   18.6620 C   0  0  0  0  0  0  0  0  0  0  0  0
  -29.5170  -19.7570   20.0760 C   0  0  0  0  0  0  0  0  0  0  0  0
  -29.8370  -17.2100   20.1000 C   0  0  0  0  0  0  0  0  0  0  0  0
  -29.3560  -20.9660   17.8690 C   0  0  0  0  0  0  0  0  0  0  0  0
  -29.3520  -21.1790   20.7750 C   0  0  0  0  0  2  0  0  0  0  0  0
  -29.6710  -22.2930   18.5800 C   0  0  0  0  0  2  0  0  0  0  0  0
  -28.9640  -22.3750   19.8880 N   0  0  2  0  0  4  0  0  0  0  0  0
  -29.0000  -20.9700   16.6860 O   0  0  0  0  0  0  0  0  0  0  0  0
  -27.9890  -22.2200   19.6750 H   0  0  0  0  0  0  0  0  0  0  0  0
  -30.5940  -14.7490   20.4120 C   0  0  0  0  0  0  0  0  0  0  0  0
  -30.3910  -12.4680   19.4340 C   0  0  0  0  0  2  0  0  0  0  0  0
  -29.4730  -12.5670   18.1940 C   0  0  0  0  0  2  0  0  0  0  0  0
  -27.9960  -12.4030   18.6010 C   0  0  0  0  0  2  0  0  0  0  0  0
  -27.6130  -13.2840   19.8200 C   0  0  0  0  0  3  0  0  0  0  0  0
  -28.6570  -13.1860   20.9570 C   0  0  0  0  0  2  0  0  0  0  0  0
  -29.9690  -13.5220   20.3880 N   0  0  0  0  0  0  0  0  0  0  0  0
  -31.7610  -14.8550   20.0220 O   0  0  0  0  0  0  0  0  0  0  0  0
  -29.8580  -15.8750   20.7480 N   0  0  0  0  0  0  0  0  0  0  0  0
  -29.0450  -15.6750   21.3110 H   0  0  0  0  0  0  0  0  0  0  0  0
  -25.2130  -13.8720   20.5160 C   0  0  0  0  0  0  0  0  0  0  0  0
  -24.1420  -13.0980   20.8730 C   0  0  0  0  0  0  0  0  0  0  0  0
  -24.6060  -11.7470   20.8510 C   0  0  0  0  0  0  0  0  0  0  0  0
  -26.2610  -12.9940   20.2920 N   0  0  0  0  0  0  0  0  0  0  0  0
  -25.9010  -11.7100   20.5570 N   0  0  0  0  0  0  0  0  0  0  0  0
  -23.8770  -10.4840   21.0360 C   0  0  0  0  0  0  0  0  0  0  0  0
  -24.2940   -9.5200   21.9800 C   0  0  0  0  0  3  0  0  0  0  0  0
  -23.5630   -8.3240   22.1550 C   0  0  0  0  0  3  0  0  0  0  0  0
  -22.4020   -8.0820   21.3840 C   0  0  0  0  0  0  0  0  0  0  0  0
  -22.0030   -9.0350   20.4290 C   0  0  0  0  0  3  0  0  0  0  0  0
  -22.7340  -10.2220   20.2540 C   0  0  0  0  0  3  0  0  0  0  0  0
  -21.6460   -6.9380   21.4650 O   0  0  0  0  0  0  0  0  0  0  0  0
  -21.5710   -6.2060   22.6230 C   0  0  0  0  0  0  0  0  0  0  0  0
  -21.1080   -6.7710   23.8310 C   0  0  0  0  0  3  0  0  0  0  0  0
  -20.9790   -5.9640   24.9800 C   0  0  0  0  0  3  0  0  0  0  0  0
  -21.3030   -4.5950   24.9210 C   0  0  0  0  0  0  0  0  0  0  0  0
  -21.7590   -4.0310   23.7170 C   0  0  0  0  0  3  0  0  0  0  0  0
  -21.8900   -4.8340   22.5700 C   0  0  0  0  0  0  0  0  0  0  0  0
  -22.3080   -4.2810   21.4070 F   0  0  0  0  0  0  0  0  0  0  0  0
  -21.1740   -3.8200   26.0220 F   0  0  0  0  0  0  0  0  0  0  0  0
  -22.7410  -13.5760   21.1240 C   0  0  0  0  0  0  0  0  0  0  0  0
  -21.9990  -12.8800   21.9780 N   0  0  0  0  0  0  0  0  0  0  0  0
  -22.3120  -14.6030   20.5980 O   0  0  0  0  0  0  0  0  0  0  0  0
  -22.3580  -12.0490   22.4240 H   0  0  0  0  0  0  0  0  0  0  0  0
  -21.0590  -13.1840   22.1890 H   0  0  0  0  0  0  0  0  0  0  0  0
  -25.3800  -15.2410   20.3380 N   0  0  0  0  0  0  0  0  0  0  0  0
  -24.6150  -15.8980   20.4430 H   0  0  0  0  0  0  0  0  0  0  0  0
  -26.2380  -15.6800   20.0300 H   0  0  0  0  0  0  0  0  0  0  0  0
  -29.0610  -23.7990   20.4930 C   0  0  0  0  0  3  0  0  0  0  0  0
  -28.1380  -24.9750   19.8690 C   0  0  0  0  0  3  0  0  0  0  0  0
  -28.3020  -26.4220   20.2400 O   0  0  0  0  0  0  0  0  0  0  0  0
  -24.5930  -31.8770   23.2550 C   0  0  0  0  0  0  0  0  0  0  0  0
  -27.1970  -27.3040   20.1680 C   0  0  0  0  0  0  0  0  0  0  0  0
  -23.3870  -30.4890   21.6090 C   0  0  0  0  0  3  0  0  0  0  0  0
  -24.8360  -28.9450   20.1710 C   0  0  0  0  0  0  0  0  0  0  0  0
  -25.9310  -30.7950   21.4310 C   0  0  0  0  0  2  0  0  0  0  0  0
  -26.0070  -29.4170   20.7770 C   0  0  0  0  0  0  0  0  0  0  0  0
  -27.1880  -28.6090   20.7700 C   0  0  0  0  0  3  0  0  0  0  0  0
  -26.0070  -26.9110   19.5130 C   0  0  0  0  0  3  0  0  0  0  0  0
  -24.8420  -27.7010   19.5270 C   0  0  0  0  0  3  0  0  0  0  0  0
  -23.6030  -29.8250   20.2230 C   0  0  0  0  0  2  0  0  0  0  0  0
  -24.6560  -31.0740   22.1540 N   0  0  0  0  0  0  0  0  0  0  0  0
  -23.5100  -32.1540   23.7900 O   0  0  0  0  0  0  0  0  0  0  0  0
  -22.7230  -29.4680   22.5630 C   0  0  0  0  0  0  0  0  0  0  0  0
  -21.3970  -29.2890   22.4330 N   0  0  0  0  0  0  0  0  0  0  0  0
  -23.4000  -28.8410   23.3820 O   0  0  0  0  0  0  0  0  0  0  0  0
  -20.9100  -29.8490   21.7480 H   0  0  0  0  0  0  0  0  0  0  0  0
  -18.0200  -28.0800   22.9180 C   0  0  0  0  0  0  0  0  0  0  0  0
  -20.5770  -28.3510   23.2000 C   0  0  0  0  0  3  0  0  0  0  0  0
  -20.6850  -26.9180   22.6260 C   0  0  0  0  0  2  0  0  0  0  0  0
  -19.5890  -26.5900   21.6070 C   0  0  0  0  0  2  0  0  0  0  0  0
  -18.2030  -26.7310   22.2440 C   0  0  0  0  0  2  0  0  0  0  0  0
  -19.1330  -28.8460   23.3530 C   0  0  0  0  0  0  0  0  0  0  0  0
  -18.9060  -30.1080   23.9450 C   0  0  0  0  0  3  0  0  0  0  0  0
  -17.5990  -30.6050   24.1030 C   0  0  0  0  0  3  0  0  0  0  0  0
  -16.4990  -29.8360   23.6820 C   0  0  0  0  0  3  0  0  0  0  0  0
  -16.7100  -28.5750   23.0950 C   0  0  0  0  0  3  0  0  0  0  0  0
  -25.8760  -32.5060   23.8800 C   0  0  0  0  0  3  0  0  0  0  0  0
  -25.5720  -33.9070   24.2060 N   0  0  0  0  0  0  0  0  0  0  0  0
  -25.9040  -34.9560   23.4410 C   0  0  0  0  0  0  0  0  0  0  0  0
  -26.5710  -34.8460   22.4080 O   0  0  0  0  0  0  0  0  0  0  0  0
  -24.9800  -34.0670   25.0080 H   0  0  0  0  0  0  0  0  0  0  0  0
  -24.1830  -36.7550   23.0840 C   0  0  0  0  0  1  0  0  0  0  0  0
  -25.4250  -36.3480   23.8950 C   0  0  0  0  0  3  0  0  0  0  0  0
  -27.5650  -37.2280   24.7160 C   0  0  0  0  0  1  0  0  0  0  0  0
  -26.4610  -37.3960   23.7740 N   0  0  0  0  0  0  0  0  0  0  0  0
  -26.0590  -38.3190   23.9170 H   0  0  0  0  0  0  0  0  0  0  0  0
  -26.3830  -31.7360   25.1620 C   0  0  1  0  0  0  0  0  0  0  0  0
  -25.2850  -31.5090   26.2270 C   0  0  0  0  0  1  0  0  0  0  0  0
  -26.9570  -30.3520   24.7780 C   0  0  0  0  0  1  0  0  0  0  0  0
  -27.5390  -32.5240   25.8230 C   0  0  0  0  0  1  0  0  0  0  0  0
  1  4  2  0
  1  2  1  0
  2  6  2  0
  4  5  1  0
  5  8  1  0
  5  3  2  0
  6 21  1  0
  6  3  1  0
  7  9  1  0
  7  4  1  0
  9 10  1  0
 10 51  1  0
 10  8  1  0
 11  7  2  0
 10 12  1  6
 13 21  1  0
 14 19  1  0
 15 16  1  0
 15 14  1  0
 17 16  1  0
 17 26  1  0
 17 18  1  0
 19 13  1  0
 19 18  1  0
 20 13  2  0
 21 22  1  0
 23 24  2  0
 24 43  1  0
 25 24  1  0
 25 28  1  0
 26 23  1  0
 26 27  1  0
 27 25  2  0
 28 29  1  0
 29 30  2  0
 31 34  1  0
 31 30  1  0
 32 31  2  0
 33 32  1  0
 33 28  2  0
 34 35  1  0
 35 36  1  0
 36 37  2  0
 38 37  1  0
 38 42  1  0
 39 38  2  0
 40 35  2  0
 40 39  1  0
 41 40  1  0
 43 44  1  0
 44 47  1  0
 44 46  1  0
 45 43  2  0
 48 49  1  0
 48 23  1  0
 50 48  1  0
 52 53  1  0
 52 51  2  0
 54 65  2  0
 55 53  1  0
 55 60  1  0
 56 64  1  0
 56 66  1  0
 57 63  1  0
 57 59  1  0
 58 64  1  0
 59 58  1  0
 60 59  2  0
 61 62  1  0
 61 55  2  0
 62 57  2  0
 63 56  1  0
 64 54  1  0
 66 68  2  0
 67 66  1  0
 69 67  1  0
 70 79  2  0
 70 75  1  0
 71 67  1  0
 71 75  1  0
 72 71  1  0
 73 74  1  0
 73 72  1  0
 74 70  1  0
 75 76  2  0
 76 77  1  0
 78 77  2  0
 79 78  1  0
 80 54  1  0
 80 81  1  0
 80 90  1  0
 81 84  1  0
 82 86  1  0
 82 81  1  0
 83 82  2  0
 86 85  1  0
 88 86  1  0
 88 89  1  0
 88 87  1  0
 90 93  1  1
 90 91  1  0
 92 90  1  0
M  ISO  4  13 100  21 100  52 101  53 101
M  END
>  <TORSDO>  (88) 
F 18

>  <SCORE>  (88) 
-14.771

>  <name>  (88) 
89

>  <ligand_id>  (88) 
89

>  <original_smiles>  (88) 
[H]c1c([H])c([H])c2c(c1[H])C([H])([H])C([H])([H])C([H])([H])C2([H])N([H])C(=O)C1([H])N(C(=O)C([H])(N([H])C(=O)C([H])(N([H])C([H])([H])[H])C([H])([H])[H])C(C([H])([H])[H])(C([H])([H])[H])C([H])([H])[H])C([H])([H])c2c([H])c(OC([H])([H])C([H])([H])[N+]3([H])C([H])([H])C(=O)c4c([H])c([H])c(N([H])C(=O)N5C([H])([H])C([H])([H])C([H])([H])C([H])(n6nc(-c7c([H])c([H])c(Oc8c([H])c([H])c(F)c([H])c8F)c([H])c7[H])c(C(=O)N([H])[H])c6N([H])[H])C5([H])[H])c([H])c4C3([H])[H])c([H])c([H])c2C1([H])[H]

>  <smiles>  (88) 
[H]c1c([H])c([H])c2c(c1[H])C([H])([H])C([H])([H])C([H])([H])C2([H])N([H])C(=O)C1([H])N(C(=O)C([H])(N([H])C(=O)C([H])(N([H])C([H])([H])[H])C([H])([H])[H])C(C([H])([H])[H])(C([H])([H])[H])C([H])([H])[H])C([H])([H])c2c([H])c(OC([H])([H])C([H])([H])[N+]3([H])C([H])([H])C(=O)c4c([H])c([H])c(N([H])C(=O)N5C([H])([H])C([H])([H])C([H])([H])C([H])(n6nc(-c7c([H])c([H])c(Oc8c([H])c([H])c(F)c([H])c8F)c([H])c7[H])c(C(=O)N([H])[H])c6N([H])[H])C5([H])[H])c([H])c4C3([H])[H])c([H])c([H])c2C1([H])[H]

$$$$
90:0:0
     RDKit          3D

 88 95  0  0  1  0  0  0  0  0999 V2000
  -29.6710  -23.6710   21.9160 C   0  0  0  0  0  1  0  0  0  0  0  0
  -29.1130  -23.4090   20.5040 C   0  0  0  0  0  3  0  0  0  0  0  0
  -29.6200  -20.6860   20.4050 C   0  0  0  0  0  0  0  0  0  0  0  0
  -28.7900  -21.8510   20.3830 N   0  0  0  0  0  0  0  0  0  0  0  0
  -30.8370  -20.8630   20.4480 O   0  0  0  0  0  0  0  0  0  0  0  0
  -27.8020  -21.6390   20.3260 H   0  0  0  0  0  0  0  0  0  0  0  0
  -29.1390  -19.0880   20.3850 C   0  0  0  0  0  3  0  0  0  0  0  0
  -30.1850  -17.7440   20.4020 C   0  0  0  0  0  3  0  0  0  0  0  0
  -30.5300  -15.0030   20.3200 C   0  0  0  0  0  0  0  0  0  0  0  0
  -30.3940  -12.6550   19.3700 C   0  0  0  0  0  2  0  0  0  0  0  0
  -29.4570  -12.6180   18.1430 C   0  0  0  0  0  2  0  0  0  0  0  0
  -27.9950  -12.4070   18.5760 C   0  0  0  0  0  2  0  0  0  0  0  0
  -27.5920  -13.3150   19.7650 C   0  0  0  0  0  3  0  0  0  0  0  0
  -28.6560  -13.3310   20.8850 C   0  0  0  0  0  2  0  0  0  0  0  0
  -29.9200  -13.7480   20.2700 N   0  0  0  0  0  0  0  0  0  0  0  0
  -31.7260  -15.0570   20.0220 O   0  0  0  0  0  0  0  0  0  0  0  0
  -29.7810  -16.2040   20.4960 N   0  0  0  0  0  0  0  0  0  0  0  0
  -28.8090  -16.0370   20.7090 H   0  0  0  0  0  0  0  0  0  0  0  0
  -25.2120  -13.8730   20.5140 C   0  0  0  0  0  0  0  0  0  0  0  0
  -24.1550  -13.0910   20.8880 C   0  0  0  0  0  0  0  0  0  0  0  0
  -24.6280  -11.7430   20.8520 C   0  0  0  0  0  0  0  0  0  0  0  0
  -26.2600  -13.0040   20.2700 N   0  0  0  0  0  0  0  0  0  0  0  0
  -25.9200  -11.7150   20.5380 N   0  0  0  0  0  0  0  0  0  0  0  0
  -23.9080  -10.4750   21.0430 C   0  0  0  0  0  0  0  0  0  0  0  0
  -24.3510   -9.5080   21.9720 C   0  0  0  0  0  3  0  0  0  0  0  0
  -23.6320   -8.3070   22.1520 C   0  0  0  0  0  3  0  0  0  0  0  0
  -22.4540   -8.0660   21.4050 C   0  0  0  0  0  0  0  0  0  0  0  0
  -22.0310   -9.0210   20.4640 C   0  0  0  0  0  3  0  0  0  0  0  0
  -22.7520  -10.2130   20.2810 C   0  0  0  0  0  3  0  0  0  0  0  0
  -21.7050   -6.9170   21.4950 O   0  0  0  0  0  0  0  0  0  0  0  0
  -21.6680   -6.1690   22.6440 C   0  0  0  0  0  0  0  0  0  0  0  0
  -21.2530   -6.7190   23.8760 C   0  0  0  0  0  3  0  0  0  0  0  0
  -21.1630   -5.8970   25.0180 C   0  0  0  0  0  3  0  0  0  0  0  0
  -21.4760   -4.5270   24.9270 C   0  0  0  0  0  0  0  0  0  0  0  0
  -21.8810   -3.9760   23.6990 C   0  0  0  0  0  3  0  0  0  0  0  0
  -21.9750   -4.7960   22.5600 C   0  0  0  0  0  0  0  0  0  0  0  0
  -22.3460   -4.2560   21.3740 F   0  0  0  0  0  0  0  0  0  0  0  0
  -21.3830   -3.7350   26.0210 F   0  0  0  0  0  0  0  0  0  0  0  0
  -22.7560  -13.5580   21.1630 C   0  0  0  0  0  0  0  0  0  0  0  0
  -22.0380  -12.8570   22.0330 N   0  0  0  0  0  0  0  0  0  0  0  0
  -22.3090  -14.5780   20.6400 O   0  0  0  0  0  0  0  0  0  0  0  0
  -22.4170  -12.0340   22.4760 H   0  0  0  0  0  0  0  0  0  0  0  0
  -21.0970  -13.1460   22.2550 H   0  0  0  0  0  0  0  0  0  0  0  0
  -25.3680  -15.2440   20.3340 N   0  0  0  0  0  0  0  0  0  0  0  0
  -24.5950  -15.8940   20.4300 H   0  0  0  0  0  0  0  0  0  0  0  0
  -26.2020  -15.6810   19.9640 H   0  0  0  0  0  0  0  0  0  0  0  0
  -28.0220  -24.6630   20.1610 C   0  0  0  0  0  2  0  0  0  0  0  0
  -28.2640  -26.2050   20.2930 O   0  0  0  0  0  0  0  0  0  0  0  0
  -24.6490  -31.9170   23.2440 C   0  0  0  0  0  0  0  0  0  0  0  0
  -27.2000  -27.1820   20.2230 C   0  0  0  0  0  0  0  0  0  0  0  0
  -23.4340  -30.5230   21.6140 C   0  0  0  0  0  3  0  0  0  0  0  0
  -24.8700  -28.9340   20.1860 C   0  0  0  0  0  0  0  0  0  0  0  0
  -25.9860  -30.7770   21.4330 C   0  0  0  0  0  2  0  0  0  0  0  0
  -26.0540  -29.3810   20.7880 C   0  0  0  0  0  0  0  0  0  0  0  0
  -27.2180  -28.5230   20.7850 C   0  0  0  0  0  3  0  0  0  0  0  0
  -25.9880  -26.8340   19.5850 C   0  0  0  0  0  3  0  0  0  0  0  0
  -24.8520  -27.6750   19.5670 C   0  0  0  0  0  3  0  0  0  0  0  0
  -23.6440  -29.8350   20.2370 C   0  0  0  0  0  2  0  0  0  0  0  0
  -24.7100  -31.0940   22.1520 N   0  0  0  0  0  0  0  0  0  0  0  0
  -23.5670  -32.2080   23.7770 O   0  0  0  0  0  0  0  0  0  0  0  0
  -22.7530  -29.5240   22.5820 C   0  0  0  0  0  0  0  0  0  0  0  0
  -21.4240  -29.3590   22.4550 N   0  0  0  0  0  0  0  0  0  0  0  0
  -23.4210  -28.9000   23.4110 O   0  0  0  0  0  0  0  0  0  0  0  0
  -20.9420  -29.9090   21.7590 H   0  0  0  0  0  0  0  0  0  0  0  0
  -18.0400  -28.1660   22.9560 C   0  0  0  0  0  0  0  0  0  0  0  0
  -20.5980  -28.4300   23.2320 C   0  0  0  0  0  3  0  0  0  0  0  0
  -20.7020  -26.9930   22.6690 C   0  0  0  0  0  2  0  0  0  0  0  0
  -19.6050  -26.6620   21.6540 C   0  0  0  0  0  2  0  0  0  0  0  0
  -18.2190  -26.8120   22.2900 C   0  0  0  0  0  2  0  0  0  0  0  0
  -19.1580  -28.9330   23.3830 C   0  0  0  0  0  0  0  0  0  0  0  0
  -18.9350  -30.1990   23.9660 C   0  0  0  0  0  3  0  0  0  0  0  0
  -17.6280  -30.6970   24.1280 C   0  0  0  0  0  3  0  0  0  0  0  0
  -16.5270  -29.9290   23.7150 C   0  0  0  0  0  3  0  0  0  0  0  0
  -16.7340  -28.6660   23.1330 C   0  0  0  0  0  3  0  0  0  0  0  0
  -25.9320  -32.5460   23.8660 C   0  0  0  0  0  3  0  0  0  0  0  0
  -26.4480  -31.7670   25.1400 C   0  0  1  0  0  0  0  0  0  0  0  0
  -25.3550  -31.5340   26.2110 C   0  0  0  0  0  1  0  0  0  0  0  0
  -27.0210  -30.3860   24.7450 C   0  0  0  0  0  1  0  0  0  0  0  0
  -27.6070  -32.5520   25.7980 C   0  0  0  0  0  1  0  0  0  0  0  0
  -25.6270  -33.9430   24.2090 N   0  0  0  0  0  0  0  0  0  0  0  0
  -25.9400  -35.0020   23.4500 C   0  0  0  0  0  0  0  0  0  0  0  0
  -26.5830  -34.9060   22.4020 O   0  0  0  0  0  0  0  0  0  0  0  0
  -25.0500  -34.0930   25.0240 H   0  0  0  0  0  0  0  0  0  0  0  0
  -24.1900  -36.7900   23.1710 C   0  0  0  0  0  1  0  0  0  0  0  0
  -25.4670  -36.3900   23.9290 C   0  0  0  0  0  3  0  0  0  0  0  0
  -27.6300  -37.2860   24.6710 C   0  0  0  0  0  1  0  0  0  0  0  0
  -26.4900  -37.4480   23.7730 N   0  0  0  0  0  0  0  0  0  0  0  0
  -26.0860  -38.3670   23.9320 H   0  0  0  0  0  0  0  0  0  0  0  0
  2  1  1  0
  3  5  2  0
  4  3  1  0
  4  2  1  0
  6  4  1  0
  7  8  2  0
  7  3  1  0
  8 17  1  0
  9 17  1  0
 10 15  1  0
 11 12  1  0
 11 10  1  0
 13 12  1  0
 13 22  1  0
 13 14  1  0
 15  9  1  0
 15 14  1  0
 16  9  2  0
 17 18  1  0
 19 20  2  0
 20 39  1  0
 21 20  1  0
 21 24  1  0
 22 19  1  0
 22 23  1  0
 23 21  2  0
 24 25  1  0
 25 26  2  0
 27 30  1  0
 27 26  1  0
 28 27  2  0
 29 28  1  0
 29 24  2  0
 30 31  1  0
 31 32  1  0
 32 33  2  0
 34 33  1  0
 34 38  1  0
 35 34  2  0
 36 31  2  0
 36 35  1  0
 37 36  1  0
 39 40  1  0
 40 43  1  0
 40 42  1  0
 41 39  2  0
 44 45  1  0
 44 19  1  0
 46 44  1  0
 47 48  1  0
 47  2  1  0
 49 60  2  0
 50 48  1  0
 50 55  1  0
 51 59  1  0
 51 61  1  0
 52 58  1  0
 52 54  1  0
 53 59  1  0
 54 53  1  0
 55 54  2  0
 56 50  2  0
 57 56  1  0
 57 52  2  0
 58 51  1  0
 59 49  1  0
 61 63  2  0
 62 61  1  0
 64 62  1  0
 65 74  2  0
 65 70  1  0
 66 62  1  0
 66 70  1  0
 67 66  1  0
 68 69  1  0
 68 67  1  0
 69 65  1  0
 70 71  2  0
 71 72  1  0
 73 72  2  0
 74 73  1  0
 75 49  1  0
 75 80  1  0
 75 76  1  0
 76 79  1  1
 76 77  1  0
 78 76  1  0
 80 83  1  0
 81 85  1  0
 81 80  1  0
 82 81  2  0
 85 84  1  0
 87 85  1  0
 87 88  1  0
 87 86  1  0
M  ISO  4   9 100  17 100  47 101  48 101
M  END
>  <TORSDO>  (89) 
F 20

>  <SCORE>  (89) 
-15.140

>  <name>  (89) 
90

>  <ligand_id>  (89) 
90

>  <original_smiles>  (89) 
[H]c1c([H])c([H])c2c(c1[H])C([H])([H])C([H])([H])C([H])([H])C2([H])N([H])C(=O)C1([H])N(C(=O)C([H])(N([H])C(=O)C([H])(N([H])C([H])([H])[H])C([H])([H])[H])C(C([H])([H])[H])(C([H])([H])[H])C([H])([H])[H])C([H])([H])c2c([H])c(OC([H])([H])C([H])(N([H])C(=O)C([H])([H])C([H])([H])N([H])C(=O)N3C([H])([H])C([H])([H])C([H])([H])C([H])(n4nc(-c5c([H])c([H])c(Oc6c([H])c([H])c(F)c([H])c6F)c([H])c5[H])c(C(=O)N([H])[H])c4N([H])[H])C3([H])[H])C([H])([H])[H])c([H])c([H])c2C1([H])[H]

>  <smiles>  (89) 
[H]c1c([H])c([H])c2c(c1[H])C([H])([H])C([H])([H])C([H])([H])C2([H])N([H])C(=O)C1([H])N(C(=O)C([H])(N([H])C(=O)C([H])(N([H])C([H])([H])[H])C([H])([H])[H])C(C([H])([H])[H])(C([H])([H])[H])C([H])([H])[H])C([H])([H])c2c([H])c(OC([H])([H])C([H])(N([H])C(=O)C([H])([H])C([H])([H])N([H])C(=O)N3C([H])([H])C([H])([H])C([H])([H])C([H])(n4nc(-c5c([H])c([H])c(Oc6c([H])c([H])c(F)c([H])c6F)c([H])c5[H])c(C(=O)N([H])[H])c4N([H])[H])C3([H])[H])C([H])([H])[H])c([H])c([H])c2C1([H])[H]

$$$$
91:0:0
     RDKit          3D

 97105  0  0  1  0  0  0  0  0999 V2000
  -28.6420  -19.9920   21.5650 C   0  0  0  0  0  2  0  0  0  0  0  0
  -28.4700  -18.6740   20.8930 N   0  0  0  0  0  4  0  0  0  0  0  0
  -27.8150  -18.7790   20.1360 H   0  0  0  0  0  0  0  0  0  0  0  0
  -28.0500  -18.0460   21.5620 H   0  0  0  0  0  0  0  0  0  0  0  0
  -29.7200  -18.0490   20.3950 C   0  0  0  0  0  2  0  0  0  0  0  0
  -29.5250  -16.5610   19.9850 C   0  0  0  0  0  2  0  0  0  0  0  0
  -31.3490  -14.8060   19.9200 C   0  0  0  0  0  0  0  0  0  0  0  0
  -31.0550  -12.4590   19.2480 C   0  0  0  0  0  2  0  0  0  0  0  0
  -30.1190  -12.3790   18.0240 C   0  0  0  0  0  2  0  0  0  0  0  0
  -28.6390  -12.3200   18.4470 C   0  0  0  0  0  2  0  0  0  0  0  0
  -28.2750  -13.3690   19.5310 C   0  0  0  0  0  3  0  0  0  0  0  0
  -29.3340  -13.3920   20.6590 C   0  0  0  0  0  2  0  0  0  0  0  0
  -30.6360  -13.6420   20.0180 N   0  0  0  0  0  0  0  0  0  0  0  0
  -32.5700  -14.7540   19.7820 O   0  0  0  0  0  0  0  0  0  0  0  0
  -30.7070  -15.8970   19.3790 N   0  0  0  0  0  0  0  0  0  0  0  0
  -33.5290  -17.4750   16.3990 C   0  0  0  0  0  2  0  0  0  0  0  0
  -32.3730  -16.6060   15.8950 C   0  0  0  0  0  2  0  0  0  0  0  0
  -33.0390  -18.4470   17.4770 C   0  0  0  0  0  2  0  0  0  0  0  0
  -31.7360  -15.7920   17.0390 C   0  0  0  0  0  2  0  0  0  0  0  0
  -32.4020  -17.6960   18.6610 C   0  0  0  0  0  2  0  0  0  0  0  0
  -31.2930  -16.6780   18.2340 C   0  0  0  0  0  3  0  0  0  0  0  0
  -25.9320  -14.1270   20.2790 C   0  0  0  0  0  0  0  0  0  0  0  0
  -24.8180  -13.4220   20.6580 C   0  0  0  0  0  0  0  0  0  0  0  0
  -25.1930  -12.0460   20.6130 C   0  0  0  0  0  0  0  0  0  0  0  0
  -26.9160  -13.1800   20.0360 N   0  0  0  0  0  0  0  0  0  0  0  0
  -26.4760  -11.9230   20.2940 N   0  0  0  0  0  0  0  0  0  0  0  0
  -24.3890  -10.8310   20.7960 C   0  0  0  0  0  0  0  0  0  0  0  0
  -24.7600   -9.8320   21.7210 C   0  0  0  0  0  3  0  0  0  0  0  0
  -23.9600   -8.6820   21.8900 C   0  0  0  0  0  3  0  0  0  0  0  0
  -22.7740   -8.5240   21.1330 C   0  0  0  0  0  0  0  0  0  0  0  0
  -22.4230   -9.5140   20.1970 C   0  0  0  0  0  3  0  0  0  0  0  0
  -23.2230  -10.6550   20.0250 C   0  0  0  0  0  3  0  0  0  0  0  0
  -21.9490   -7.4290   21.2140 O   0  0  0  0  0  0  0  0  0  0  0  0
  -21.8080   -6.7210   22.3790 C   0  0  0  0  0  0  0  0  0  0  0  0
  -21.3350   -7.3240   23.5660 C   0  0  0  0  0  3  0  0  0  0  0  0
  -21.1330   -6.5450   24.7210 C   0  0  0  0  0  3  0  0  0  0  0  0
  -21.3980   -5.1630   24.6940 C   0  0  0  0  0  0  0  0  0  0  0  0
  -21.8630   -4.5580   23.5110 C   0  0  0  0  0  3  0  0  0  0  0  0
  -22.0630   -5.3340   22.3570 C   0  0  0  0  0  0  0  0  0  0  0  0
  -22.4910   -4.7430   21.2170 F   0  0  0  0  0  0  0  0  0  0  0  0
  -21.1990   -4.4110   25.8010 F   0  0  0  0  0  0  0  0  0  0  0  0
  -23.4550  -13.9870   20.9360 C   0  0  0  0  0  0  0  0  0  0  0  0
  -22.7030  -13.3590   21.8360 N   0  0  0  0  0  0  0  0  0  0  0  0
  -23.0660  -15.0200   20.3940 O   0  0  0  0  0  0  0  0  0  0  0  0
  -23.0300  -12.5230   22.2990 H   0  0  0  0  0  0  0  0  0  0  0  0
  -21.7890  -13.7220   22.0660 H   0  0  0  0  0  0  0  0  0  0  0  0
  -26.1820  -15.4830   20.0920 N   0  0  0  0  0  0  0  0  0  0  0  0
  -25.4000  -16.1280   20.0760 H   0  0  0  0  0  0  0  0  0  0  0  0
  -26.9460  -15.7810   19.5020 H   0  0  0  0  0  0  0  0  0  0  0  0
  -28.8560  -21.1780   20.5860 C   0  0  0  0  0  2  0  0  0  0  0  0
  -28.6780  -22.5880   21.2130 C   0  0  0  0  0  2  0  0  0  0  0  0
  -29.0280  -23.6540   20.2410 N   0  0  0  0  0  4  0  0  0  0  0  0
  -28.4220  -23.5760   19.4390 H   0  0  0  0  0  0  0  0  0  0  0  0
  -29.9710  -23.4840   19.9290 H   0  0  0  0  0  0  0  0  0  0  0  0
  -28.9730  -25.0500   20.7450 C   0  0  0  0  0  2  0  0  0  0  0  0
  -29.3730  -26.0560   19.6400 C   0  0  0  0  0  2  0  0  0  0  0  0
  -29.1270  -27.4100   20.0200 O   0  0  0  0  0  0  0  0  0  0  0  0
  -24.5680  -31.8000   23.1940 C   0  0  0  0  0  0  0  0  0  0  0  0
  -27.8440  -27.9230   19.9890 C   0  0  0  0  0  0  0  0  0  0  0  0
  -23.5980  -30.3840   21.4130 C   0  0  0  0  0  3  0  0  0  0  0  0
  -25.2790  -29.1250   19.9650 C   0  0  0  0  0  0  0  0  0  0  0  0
  -26.0630  -31.0580   21.3450 C   0  0  0  0  0  2  0  0  0  0  0  0
  -26.3370  -29.7500   20.6340 C   0  0  0  0  0  0  0  0  0  0  0  0
  -27.6180  -29.1540   20.6430 C   0  0  0  0  0  3  0  0  0  0  0  0
  -26.7560  -27.2950   19.3330 C   0  0  0  0  0  3  0  0  0  0  0  0
  -25.4840  -27.8960   19.3110 C   0  0  0  0  0  3  0  0  0  0  0  0
  -23.9350  -29.8200   20.0060 C   0  0  0  0  0  2  0  0  0  0  0  0
  -24.7580  -31.0940   22.0440 N   0  0  0  0  0  0  0  0  0  0  0  0
  -23.4420  -31.9050   23.7020 O   0  0  0  0  0  0  0  0  0  0  0  0
  -23.0400  -29.2320   22.2770 C   0  0  0  0  0  0  0  0  0  0  0  0
  -21.7500  -28.9150   22.0850 N   0  0  0  0  0  0  0  0  0  0  0  0
  -23.7680  -28.6250   23.0680 O   0  0  0  0  0  0  0  0  0  0  0  0
  -21.2200  -29.4670   21.4250 H   0  0  0  0  0  0  0  0  0  0  0  0
  -18.5030  -27.3650   22.3890 C   0  0  0  0  0  0  0  0  0  0  0  0
  -21.0170  -27.8410   22.7520 C   0  0  0  0  0  3  0  0  0  0  0  0
  -21.2710  -26.4810   22.0610 C   0  0  0  0  0  2  0  0  0  0  0  0
  -20.2250  -26.1410   20.9950 C   0  0  0  0  0  2  0  0  0  0  0  0
  -18.8240  -26.1000   21.6120 C   0  0  0  0  0  2  0  0  0  0  0  0
  -19.5330  -28.1930   22.9120 C   0  0  0  0  0  0  0  0  0  0  0  0
  -19.1790  -29.3780   23.5920 C   0  0  0  0  0  3  0  0  0  0  0  0
  -17.8290  -29.7370   23.7620 C   0  0  0  0  0  3  0  0  0  0  0  0
  -16.8130  -28.9030   23.2620 C   0  0  0  0  0  3  0  0  0  0  0  0
  -17.1510  -27.7240   22.5750 C   0  0  0  0  0  3  0  0  0  0  0  0
  -25.7440  -32.5340   23.9150 C   0  0  0  0  0  3  0  0  0  0  0  0
  -26.2010  -31.8160   25.2440 C   0  0  1  0  0  0  0  0  0  0  0  0
  -25.0360  -31.4800   26.2060 C   0  0  0  0  0  1  0  0  0  0  0  0
  -26.9390  -30.4990   24.9170 C   0  0  0  0  0  1  0  0  0  0  0  0
  -27.2120  -32.7080   26.0050 C   0  0  0  0  0  1  0  0  0  0  0  0
  -25.3020  -33.9050   24.1880 N   0  0  0  0  0  0  0  0  0  0  0  0
  -25.6310  -34.9720   23.4490 C   0  0  0  0  0  0  0  0  0  0  0  0
  -26.4050  -34.9100   22.4900 O   0  0  0  0  0  0  0  0  0  0  0  0
  -24.6090  -34.0180   24.9170 H   0  0  0  0  0  0  0  0  0  0  0  0
  -23.8160  -36.6260   22.9140 C   0  0  0  0  0  1  0  0  0  0  0  0
  -25.0050  -36.3240   23.8400 C   0  0  0  0  0  3  0  0  0  0  0  0
  -26.9810  -37.3750   24.8480 C   0  0  0  0  0  1  0  0  0  0  0  0
  -25.9630  -37.4500   23.8010 N   0  0  0  0  0  0  0  0  0  0  0  0
  -25.4800  -38.3380   23.8920 H   0  0  0  0  0  0  0  0  0  0  0  0
  2  4  1  0
  2  1  1  0
  3  2  1  0
  5  2  1  0
  6  5  1  0
  7 13  1  0
  8 13  1  0
  9 10  1  0
  9  8  1  0
 11 10  1  0
 11 25  1  0
 11 12  1  0
 13 12  1  0
 14  7  2  0
 15  7  1  0
 15  6  1  0
 16 18  1  0
 17 16  1  0
 17 19  1  0
 18 20  1  0
 19 21  1  0
 21 20  1  0
 21 15  1  0
 22 23  2  0
 23 42  1  0
 24 23  1  0
 24 27  1  0
 25 22  1  0
 25 26  1  0
 26 24  2  0
 27 28  1  0
 28 29  2  0
 30 33  1  0
 30 29  1  0
 31 30  2  0
 32 31  1  0
 32 27  2  0
 33 34  1  0
 34 35  1  0
 35 36  2  0
 37 36  1  0
 37 41  1  0
 38 37  2  0
 39 34  2  0
 39 38  1  0
 40 39  1  0
 42 43  1  0
 43 46  1  0
 43 45  1  0
 44 42  2  0
 47 22  1  0
 48 47  1  0
 49 47  1  0
 50 51  1  0
 50  1  1  0
 52 55  1  0
 52 51  1  0
 53 52  1  0
 54 52  1  0
 56 57  1  0
 56 55  1  0
 58 69  2  0
 59 57  1  0
 59 64  1  0
 60 68  1  0
 60 70  1  0
 61 67  1  0
 61 63  1  0
 62 68  1  0
 63 64  2  0
 63 62  1  0
 65 59  2  0
 66 65  1  0
 66 61  2  0
 67 60  1  0
 68 58  1  0
 70 72  2  0
 71 70  1  0
 73 71  1  0
 74 83  2  0
 74 79  1  0
 75 71  1  0
 75 79  1  0
 76 75  1  0
 77 78  1  0
 77 76  1  0
 78 74  1  0
 79 80  2  0
 80 81  1  0
 82 81  2  0
 83 82  1  0
 84 58  1  0
 84 89  1  0
 84 85  1  0
 85 88  1  1
 85 86  1  0
 87 85  1  0
 89 92  1  0
 90 94  1  0
 90 89  1  0
 91 90  2  0
 94 93  1  0
 96 94  1  0
 96 97  1  0
 96 95  1  0
M  ISO  4   7 100  15 100  56 101  57 101
M  END
>  <TORSDO>  (90) 
F 25

>  <SCORE>  (90) 
-10.090

>  <name>  (90) 
91

>  <ligand_id>  (90) 
91

>  <original_smiles>  (90) 
[H]c1c([H])c([H])c2c(c1[H])C([H])([H])C([H])([H])C([H])([H])C2([H])N([H])C(=O)C1([H])N(C(=O)C([H])(N([H])C(=O)C([H])(N([H])C([H])([H])[H])C([H])([H])[H])C(C([H])([H])[H])(C([H])([H])[H])C([H])([H])[H])C([H])([H])c2c([H])c(OC([H])([H])C([H])([H])[N+]([H])([H])C([H])([H])C([H])([H])C([H])([H])[N+]([H])([H])C([H])([H])C([H])([H])N(C(=O)N3C([H])([H])C([H])([H])C([H])([H])C([H])(n4nc(-c5c([H])c([H])c(Oc6c([H])c([H])c(F)c([H])c6F)c([H])c5[H])c(C(=O)N([H])[H])c4N([H])[H])C3([H])[H])C3([H])C([H])([H])C([H])([H])C([H])([H])C([H])([H])C3([H])[H])c([H])c([H])c2C1([H])[H]

>  <smiles>  (90) 
[H]c1c([H])c([H])c2c(c1[H])C([H])([H])C([H])([H])C([H])([H])C2([H])N([H])C(=O)C1([H])N(C(=O)C([H])(N([H])C(=O)C([H])(N([H])C([H])([H])[H])C([H])([H])[H])C(C([H])([H])[H])(C([H])([H])[H])C([H])([H])[H])C([H])([H])c2c([H])c(OC([H])([H])C([H])([H])[N+]([H])([H])C([H])([H])C([H])([H])C([H])([H])[N+]([H])([H])C([H])([H])C([H])([H])N(C(=O)N3C([H])([H])C([H])([H])C([H])([H])C([H])(n4nc(-c5c([H])c([H])c(Oc6c([H])c([H])c(F)c([H])c6F)c([H])c5[H])c(C(=O)N([H])[H])c4N([H])[H])C3([H])[H])C3([H])C([H])([H])C([H])([H])C([H])([H])C([H])([H])C3([H])[H])c([H])c([H])c2C1([H])[H]

$$$$
92:0:0
     RDKit          3D

 93100  0  0  1  0  0  0  0  0999 V2000
  -29.2520  -22.9030   20.0520 C   0  0  0  0  0  0  0  0  0  0  0  0
  -29.7800  -21.9850   20.8890 N   0  0  0  0  0  0  0  0  0  0  0  0
  -28.5280  -22.5600   19.1120 O   0  0  0  0  0  0  0  0  0  0  0  0
  -30.3910  -22.3170   21.6280 H   0  0  0  0  0  0  0  0  0  0  0  0
  -29.3980  -20.5520   20.9120 C   0  0  0  0  0  2  0  0  0  0  0  0
  -31.6200  -19.7640   19.9000 C   0  0  0  0  0  1  0  0  0  0  0  0
  -30.5620  -19.5180   20.9950 C   0  0  0  0  0  3  0  0  0  0  0  0
  -30.0040  -18.1340   20.9160 N   0  0  0  0  0  4  0  0  0  0  0  0
  -29.1550  -18.1400   21.4600 H   0  0  0  0  0  0  0  0  0  0  0  0
  -29.7540  -17.9420   19.9590 H   0  0  0  0  0  0  0  0  0  0  0  0
  -30.8470  -17.0140   21.4300 C   0  0  0  0  0  2  0  0  0  0  0  0
  -30.1070  -15.6300   21.4660 C   0  0  0  0  0  2  0  0  0  0  0  0
  -30.7130  -14.4880   20.6080 C   0  0  0  0  0  0  0  0  0  0  0  0
  -30.3930  -12.3680   19.3610 C   0  0  0  0  0  2  0  0  0  0  0  0
  -29.4630  -12.6050   18.1520 C   0  0  0  0  0  2  0  0  0  0  0  0
  -27.9840  -12.4640   18.5590 C   0  0  0  0  0  2  0  0  0  0  0  0
  -27.6450  -13.2690   19.8390 C   0  0  0  0  0  3  0  0  0  0  0  0
  -28.6860  -13.0270   20.9560 C   0  0  0  0  0  2  0  0  0  0  0  0
  -30.0200  -13.3310   20.4130 N   0  0  0  0  0  0  0  0  0  0  0  0
  -31.7990  -14.6810   20.0530 O   0  0  0  0  0  0  0  0  0  0  0  0
  -25.2350  -13.8820   20.4980 C   0  0  0  0  0  0  0  0  0  0  0  0
  -24.1570  -13.1150   20.8570 C   0  0  0  0  0  0  0  0  0  0  0  0
  -24.6170  -11.7630   20.8430 C   0  0  0  0  0  0  0  0  0  0  0  0
  -26.2830  -13.0000   20.2940 N   0  0  0  0  0  0  0  0  0  0  0  0
  -25.9130  -11.7210   20.5570 N   0  0  0  0  0  0  0  0  0  0  0  0
  -23.8870  -10.5040   21.0350 C   0  0  0  0  0  0  0  0  0  0  0  0
  -24.3180   -9.5400   21.9730 C   0  0  0  0  0  3  0  0  0  0  0  0
  -23.5920   -8.3420   22.1530 C   0  0  0  0  0  3  0  0  0  0  0  0
  -22.4230   -8.1010   21.3910 C   0  0  0  0  0  0  0  0  0  0  0  0
  -22.0140   -9.0540   20.4400 C   0  0  0  0  0  3  0  0  0  0  0  0
  -22.7390  -10.2430   20.2610 C   0  0  0  0  0  3  0  0  0  0  0  0
  -21.6670   -6.9570   21.4770 O   0  0  0  0  0  0  0  0  0  0  0  0
  -21.6160   -6.2120   22.6290 C   0  0  0  0  0  0  0  0  0  0  0  0
  -21.1960   -6.7700   23.8550 C   0  0  0  0  0  3  0  0  0  0  0  0
  -21.0950   -5.9550   25.0010 C   0  0  0  0  0  3  0  0  0  0  0  0
  -21.4010   -4.5840   24.9180 C   0  0  0  0  0  0  0  0  0  0  0  0
  -21.8100   -4.0240   23.6950 C   0  0  0  0  0  3  0  0  0  0  0  0
  -21.9170   -4.8370   22.5520 C   0  0  0  0  0  0  0  0  0  0  0  0
  -22.2950   -4.2930   21.3710 F   0  0  0  0  0  0  0  0  0  0  0  0
  -21.2950   -3.7980   26.0150 F   0  0  0  0  0  0  0  0  0  0  0  0
  -22.7580  -13.5960   21.1070 C   0  0  0  0  0  0  0  0  0  0  0  0
  -22.0210  -12.9030   21.9660 N   0  0  0  0  0  0  0  0  0  0  0  0
  -22.3270  -14.6190   20.5730 O   0  0  0  0  0  0  0  0  0  0  0  0
  -22.3910  -12.0770   22.4140 H   0  0  0  0  0  0  0  0  0  0  0  0
  -21.0780  -13.1990   22.1820 H   0  0  0  0  0  0  0  0  0  0  0  0
  -25.4100  -15.2490   20.3120 N   0  0  0  0  0  0  0  0  0  0  0  0
  -24.6460  -15.9130   20.3750 H   0  0  0  0  0  0  0  0  0  0  0  0
  -26.2660  -15.6620   19.9680 H   0  0  0  0  0  0  0  0  0  0  0  0
  -29.5070  -24.4220   20.2950 C   0  0  0  0  0  3  0  0  0  0  0  0
  -32.0820  -24.4110   19.7670 C   0  0  0  0  0  1  0  0  0  0  0  0
  -30.6860  -24.9800   19.4610 C   0  0  0  0  0  2  0  0  0  0  0  0
  -28.2290  -25.2540   19.9550 C   0  0  0  0  0  2  0  0  0  0  0  0
  -28.3500  -26.6770   20.1640 O   0  0  0  0  0  0  0  0  0  0  0  0
  -24.5760  -31.8760   23.2330 C   0  0  0  0  0  0  0  0  0  0  0  0
  -27.1820  -27.4230   20.1190 C   0  0  0  0  0  0  0  0  0  0  0  0
  -23.3570  -30.4880   21.5920 C   0  0  0  0  0  3  0  0  0  0  0  0
  -24.7930  -28.9540   20.1500 C   0  0  0  0  0  0  0  0  0  0  0  0
  -25.8860  -30.8330   21.3810 C   0  0  0  0  0  2  0  0  0  0  0  0
  -25.9600  -29.4650   20.7320 C   0  0  0  0  0  0  0  0  0  0  0  0
  -27.1560  -28.7100   20.7090 C   0  0  0  0  0  3  0  0  0  0  0  0
  -25.9950  -26.9360   19.5190 C   0  0  0  0  0  3  0  0  0  0  0  0
  -24.8070  -27.6920   19.5370 C   0  0  0  0  0  3  0  0  0  0  0  0
  -23.5560  -29.8230   20.2050 C   0  0  0  0  0  2  0  0  0  0  0  0
  -24.6260  -31.0800   22.1260 N   0  0  0  0  0  0  0  0  0  0  0  0
  -23.4990  -32.1470   23.7810 O   0  0  0  0  0  0  0  0  0  0  0  0
  -22.7120  -29.4610   22.5510 C   0  0  0  0  0  0  0  0  0  0  0  0
  -21.3870  -29.2760   22.4260 N   0  0  0  0  0  0  0  0  0  0  0  0
  -23.4000  -28.8360   23.3630 O   0  0  0  0  0  0  0  0  0  0  0  0
  -20.8980  -29.8310   21.7360 H   0  0  0  0  0  0  0  0  0  0  0  0
  -18.0150  -28.0780   22.9320 C   0  0  0  0  0  0  0  0  0  0  0  0
  -20.5710  -28.3390   23.1990 C   0  0  0  0  0  3  0  0  0  0  0  0
  -20.6730  -26.9100   22.6210 C   0  0  0  0  0  2  0  0  0  0  0  0
  -19.5680  -26.5830   21.6090 C   0  0  0  0  0  2  0  0  0  0  0  0
  -18.1890  -26.7270   22.2590 C   0  0  0  0  0  2  0  0  0  0  0  0
  -19.1330  -28.8410   23.3600 C   0  0  0  0  0  0  0  0  0  0  0  0
  -18.9180  -30.1030   23.9540 C   0  0  0  0  0  3  0  0  0  0  0  0
  -17.6150  -30.6040   24.1220 C   0  0  0  0  0  3  0  0  0  0  0  0
  -16.5090  -29.8410   23.7110 C   0  0  0  0  0  3  0  0  0  0  0  0
  -16.7100  -28.5780   23.1240 C   0  0  0  0  0  3  0  0  0  0  0  0
  -25.8680  -32.5030   23.8440 C   0  0  0  0  0  3  0  0  0  0  0  0
  -25.5600  -33.8970   24.1900 N   0  0  0  0  0  0  0  0  0  0  0  0
  -25.8780  -34.9570   23.4340 C   0  0  0  0  0  0  0  0  0  0  0  0
  -26.5330  -34.8630   22.3930 O   0  0  0  0  0  0  0  0  0  0  0  0
  -24.9760  -34.0420   25.0000 H   0  0  0  0  0  0  0  0  0  0  0  0
  -24.1370  -36.7450   23.1140 C   0  0  0  0  0  1  0  0  0  0  0  0
  -25.3900  -36.3400   23.9060 C   0  0  0  0  0  3  0  0  0  0  0  0
  -27.5340  -37.2220   24.7140 C   0  0  0  0  0  1  0  0  0  0  0  0
  -26.4180  -37.3970   23.7890 N   0  0  0  0  0  0  0  0  0  0  0  0
  -26.0120  -38.3150   23.9460 H   0  0  0  0  0  0  0  0  0  0  0  0
  -26.3990  -31.7220   25.1080 C   0  0  1  0  0  0  0  0  0  0  0  0
  -25.3170  -31.4660   26.1850 C   0  0  0  0  0  1  0  0  0  0  0  0
  -26.9860  -30.3510   24.6940 C   0  0  0  0  0  1  0  0  0  0  0  0
  -27.5560  -32.5130   25.7600 C   0  0  0  0  0  1  0  0  0  0  0  0
  1 49  1  0
  1  2  1  0
  2  5  1  0
  2  4  1  0
  3  1  2  0
  5  7  1  0
  7  6  1  0
  8  7  1  0
  8 11  1  0
  8  9  1  0
 10  8  1  0
 11 12  1  0
 13 12  1  0
 14 19  1  0
 15 16  1  0
 15 14  1  0
 17 16  1  0
 17 24  1  0
 17 18  1  0
 19 13  1  0
 19 18  1  0
 20 13  2  0
 21 22  2  0
 22 41  1  0
 23 22  1  0
 23 26  1  0
 24 21  1  0
 24 25  1  0
 25 23  2  0
 26 27  1  0
 27 28  2  0
 29 32  1  0
 29 28  1  0
 30 29  2  0
 31 30  1  0
 31 26  2  0
 32 33  1  0
 33 34  1  0
 34 35  2  0
 36 35  1  0
 36 40  1  0
 37 36  2  0
 38 33  2  0
 38 37  1  0
 39 38  1  0
 41 42  1  0
 42 45  1  0
 42 44  1  0
 43 41  2  0
 46 47  1  0
 46 21  1  0
 48 46  1  0
 49 51  1  0
 51 50  1  0
 52 53  1  0
 52 49  1  0
 54 65  2  0
 55 53  1  0
 55 60  1  0
 56 64  1  0
 56 66  1  0
 57 63  1  0
 57 59  1  0
 58 64  1  0
 59 58  1  0
 60 59  2  0
 61 62  1  0
 61 55  2  0
 62 57  2  0
 63 56  1  0
 64 54  1  0
 66 68  2  0
 67 66  1  0
 69 67  1  0
 70 79  2  0
 70 75  1  0
 71 67  1  0
 71 75  1  0
 72 71  1  0
 73 74  1  0
 73 72  1  0
 74 70  1  0
 75 76  2  0
 76 77  1  0
 78 77  2  0
 79 78  1  0
 80 54  1  0
 80 81  1  0
 80 90  1  0
 81 84  1  0
 82 86  1  0
 82 81  1  0
 83 82  2  0
 86 85  1  0
 88 86  1  0
 88 89  1  0
 88 87  1  0
 90 93  1  1
 90 91  1  0
 92 90  1  0
M  ISO  4  12 100  13 100  52 101  53 101
M  END
>  <TORSDO>  (91) 
F 24

>  <SCORE>  (91) 
-12.570

>  <name>  (91) 
92

>  <ligand_id>  (91) 
92

>  <original_smiles>  (91) 
[H]c1c([H])c([H])c2c(c1[H])C([H])([H])C([H])([H])C([H])([H])C2([H])N([H])C(=O)C1([H])N(C(=O)C([H])(N([H])C(=O)C([H])(N([H])C([H])([H])[H])C([H])([H])[H])C(C([H])([H])[H])(C([H])([H])[H])C([H])([H])[H])C([H])([H])c2c([H])c(OC([H])([H])C([H])(C(=O)N([H])C([H])([H])C([H])(C([H])([H])[H])[N+]([H])([H])C([H])([H])C([H])([H])C(=O)N3C([H])([H])C([H])([H])C([H])([H])C([H])(n4nc(-c5c([H])c([H])c(Oc6c([H])c([H])c(F)c([H])c6F)c([H])c5[H])c(C(=O)N([H])[H])c4N([H])[H])C3([H])[H])C([H])([H])C([H])([H])[H])c([H])c([H])c2C1([H])[H]

>  <smiles>  (91) 
[H]c1c([H])c([H])c2c(c1[H])C([H])([H])C([H])([H])C([H])([H])C2([H])N([H])C(=O)C1([H])N(C(=O)C([H])(N([H])C(=O)C([H])(N([H])C([H])([H])[H])C([H])([H])[H])C(C([H])([H])[H])(C([H])([H])[H])C([H])([H])[H])C([H])([H])c2c([H])c(OC([H])([H])C([H])(C(=O)N([H])C([H])([H])C([H])(C([H])([H])[H])[N+]([H])([H])C([H])([H])C([H])([H])C(=O)N3C([H])([H])C([H])([H])C([H])([H])C([H])(n4nc(-c5c([H])c([H])c(Oc6c([H])c([H])c(F)c([H])c6F)c([H])c5[H])c(C(=O)N([H])[H])c4N([H])[H])C3([H])[H])C([H])([H])C([H])([H])[H])c([H])c([H])c2C1([H])[H]

$$$$
93:0:0
     RDKit          3D

 88 95  0  0  1  0  0  0  0  0999 V2000
  -29.4410  -22.1580   20.6800 C   0  0  0  0  0  3  0  0  0  0  0  0
  -29.1110  -23.5590   20.7370 C   0  0  0  0  0  0  0  0  0  0  0  0
  -29.9500  -24.3760   21.7170 C   0  0  0  0  0  1  0  0  0  0  0  0
  -27.6980  -20.7490   19.3460 C   0  0  0  0  0  1  0  0  0  0  0  0
  -29.1050  -20.7150   19.9600 C   0  0  0  0  0  3  0  0  0  0  0  0
  -29.3650  -19.3180   20.7030 N   0  0  0  0  0  4  0  0  0  0  0  0
  -30.0580  -19.5030   21.4100 H   0  0  0  0  0  0  0  0  0  0  0  0
  -28.5130  -19.1240   21.2080 H   0  0  0  0  0  0  0  0  0  0  0  0
  -29.8250  -17.9470   20.0200 C   0  0  0  0  0  3  0  0  0  0  0  0
  -29.6740  -16.4050   20.7380 C   0  0  0  0  0  3  0  0  0  0  0  0
  -30.4660  -14.9830   20.3460 C   0  0  0  0  0  0  0  0  0  0  0  0
  -30.3660  -12.6170   19.4070 C   0  0  0  0  0  2  0  0  0  0  0  0
  -29.4510  -12.6080   18.1580 C   0  0  0  0  0  2  0  0  0  0  0  0
  -27.9770  -12.4090   18.5580 C   0  0  0  0  0  2  0  0  0  0  0  0
  -27.5660  -13.3160   19.7480 C   0  0  0  0  0  3  0  0  0  0  0  0
  -28.6060  -13.3020   20.8880 C   0  0  0  0  0  2  0  0  0  0  0  0
  -29.8940  -13.7080   20.3130 N   0  0  0  0  0  0  0  0  0  0  0  0
  -31.6510  -15.0460   19.9970 O   0  0  0  0  0  0  0  0  0  0  0  0
  -25.1750  -13.9060   20.4440 C   0  0  0  0  0  0  0  0  0  0  0  0
  -24.1050  -13.1360   20.8130 C   0  0  0  0  0  0  0  0  0  0  0  0
  -24.5700  -11.7840   20.8110 C   0  0  0  0  0  0  0  0  0  0  0  0
  -26.2200  -13.0240   20.2300 N   0  0  0  0  0  0  0  0  0  0  0  0
  -25.8660  -11.7450   20.5170 N   0  0  0  0  0  0  0  0  0  0  0  0
  -23.8390  -10.5260   21.0080 C   0  0  0  0  0  0  0  0  0  0  0  0
  -24.2630   -9.5650   21.9510 C   0  0  0  0  0  3  0  0  0  0  0  0
  -23.5320   -8.3720   22.1370 C   0  0  0  0  0  3  0  0  0  0  0  0
  -22.3590   -8.1330   21.3820 C   0  0  0  0  0  0  0  0  0  0  0  0
  -21.9520   -9.0830   20.4270 C   0  0  0  0  0  3  0  0  0  0  0  0
  -22.6850  -10.2670   20.2390 C   0  0  0  0  0  3  0  0  0  0  0  0
  -21.5990   -6.9940   21.4790 O   0  0  0  0  0  0  0  0  0  0  0  0
  -21.5550   -6.2530   22.6320 C   0  0  0  0  0  0  0  0  0  0  0  0
  -21.1540   -6.8120   23.8660 C   0  0  0  0  0  3  0  0  0  0  0  0
  -21.0600   -5.9980   25.0110 C   0  0  0  0  0  3  0  0  0  0  0  0
  -21.3530   -4.6230   24.9240 C   0  0  0  0  0  0  0  0  0  0  0  0
  -21.7450   -4.0620   23.6960 C   0  0  0  0  0  3  0  0  0  0  0  0
  -21.8420   -4.8750   22.5530 C   0  0  0  0  0  0  0  0  0  0  0  0
  -22.2010   -4.3260   21.3670 F   0  0  0  0  0  0  0  0  0  0  0  0
  -21.2540   -3.8370   26.0210 F   0  0  0  0  0  0  0  0  0  0  0  0
  -22.7040  -13.6190   21.0500 C   0  0  0  0  0  0  0  0  0  0  0  0
  -21.9590  -12.9380   21.9150 N   0  0  0  0  0  0  0  0  0  0  0  0
  -22.2770  -14.6350   20.5050 O   0  0  0  0  0  0  0  0  0  0  0  0
  -22.3170  -12.1180   22.3830 H   0  0  0  0  0  0  0  0  0  0  0  0
  -21.0160  -13.2420   22.1140 H   0  0  0  0  0  0  0  0  0  0  0  0
  -25.3400  -15.2740   20.2460 N   0  0  0  0  0  0  0  0  0  0  0  0
  -24.5620  -15.9190   20.3270 H   0  0  0  0  0  0  0  0  0  0  0  0
  -26.1850  -15.7090   19.9010 H   0  0  0  0  0  0  0  0  0  0  0  0
  -28.0830  -24.6410   20.0540 C   0  0  0  0  0  2  0  0  0  0  0  0
  -28.2710  -26.1800   20.2760 O   0  0  0  0  0  0  0  0  0  0  0  0
  -24.6410  -31.8720   23.2400 C   0  0  0  0  0  0  0  0  0  0  0  0
  -27.2040  -27.1500   20.2050 C   0  0  0  0  0  0  0  0  0  0  0  0
  -23.4310  -30.4730   21.6070 C   0  0  0  0  0  3  0  0  0  0  0  0
  -24.8740  -28.8910   20.1770 C   0  0  0  0  0  0  0  0  0  0  0  0
  -25.9840  -30.7350   21.4340 C   0  0  0  0  0  2  0  0  0  0  0  0
  -26.0530  -29.3420   20.7830 C   0  0  0  0  0  0  0  0  0  0  0  0
  -27.2170  -28.4840   20.7800 C   0  0  0  0  0  3  0  0  0  0  0  0
  -25.9990  -26.8020   19.5580 C   0  0  0  0  0  3  0  0  0  0  0  0
  -24.8580  -27.6360   19.5500 C   0  0  0  0  0  3  0  0  0  0  0  0
  -23.6460  -29.7880   20.2300 C   0  0  0  0  0  2  0  0  0  0  0  0
  -24.7050  -31.0510   22.1470 N   0  0  0  0  0  0  0  0  0  0  0  0
  -23.5580  -32.1600   23.7720 O   0  0  0  0  0  0  0  0  0  0  0  0
  -22.7550  -29.4720   22.5770 C   0  0  0  0  0  0  0  0  0  0  0  0
  -21.4260  -29.3050   22.4550 N   0  0  0  0  0  0  0  0  0  0  0  0
  -23.4280  -28.8450   23.3990 O   0  0  0  0  0  0  0  0  0  0  0  0
  -20.9410  -29.8640   21.7670 H   0  0  0  0  0  0  0  0  0  0  0  0
  -18.0430  -28.1050   22.9620 C   0  0  0  0  0  0  0  0  0  0  0  0
  -20.6030  -28.3720   23.2290 C   0  0  0  0  0  3  0  0  0  0  0  0
  -20.7040  -26.9360   22.6630 C   0  0  0  0  0  2  0  0  0  0  0  0
  -19.6040  -26.6070   21.6490 C   0  0  0  0  0  2  0  0  0  0  0  0
  -18.2210  -26.7540   22.2910 C   0  0  0  0  0  2  0  0  0  0  0  0
  -19.1610  -28.8710   23.3870 C   0  0  0  0  0  0  0  0  0  0  0  0
  -18.9410  -30.1350   23.9760 C   0  0  0  0  0  3  0  0  0  0  0  0
  -17.6360  -30.6350   24.1440 C   0  0  0  0  0  3  0  0  0  0  0  0
  -16.5330  -29.8670   23.7340 C   0  0  0  0  0  3  0  0  0  0  0  0
  -16.7360  -28.6050   23.1500 C   0  0  0  0  0  3  0  0  0  0  0  0
  -25.9220  -32.5060   23.8620 C   0  0  0  0  0  3  0  0  0  0  0  0
  -25.6160  -33.9060   24.1980 N   0  0  0  0  0  0  0  0  0  0  0  0
  -25.9390  -34.9630   23.4400 C   0  0  0  0  0  0  0  0  0  0  0  0
  -26.5980  -34.8620   22.4020 O   0  0  0  0  0  0  0  0  0  0  0  0
  -25.0330  -34.0580   25.0080 H   0  0  0  0  0  0  0  0  0  0  0  0
  -24.2050  -36.7590   23.1190 C   0  0  0  0  0  1  0  0  0  0  0  0
  -25.4600  -36.3520   23.9090 C   0  0  0  0  0  3  0  0  0  0  0  0
  -27.6090  -37.2370   24.7050 C   0  0  0  0  0  1  0  0  0  0  0  0
  -26.4920  -37.4060   23.7810 N   0  0  0  0  0  0  0  0  0  0  0  0
  -26.0880  -38.3260   23.9340 H   0  0  0  0  0  0  0  0  0  0  0  0
  -26.4370  -31.7360   25.1410 C   0  0  1  0  0  0  0  0  0  0  0  0
  -25.3450  -31.5070   26.2130 C   0  0  0  0  0  1  0  0  0  0  0  0
  -27.0130  -30.3530   24.7580 C   0  0  0  0  0  1  0  0  0  0  0  0
  -27.5920  -32.5260   25.8000 C   0  0  0  0  0  1  0  0  0  0  0  0
  1  2  2  0
  2  3  1  0
  5  4  1  0
  5  1  1  0
  5  6  1  0
  6  8  1  0
  6  7  1  0
  9  6  1  0
  9 10  2  0
 11 10  1  0
 12 17  1  0
 13 14  1  0
 13 12  1  0
 15 14  1  0
 15 22  1  0
 15 16  1  0
 17 11  1  0
 17 16  1  0
 18 11  2  0
 19 20  2  0
 20 39  1  0
 21 20  1  0
 21 24  1  0
 22 19  1  0
 22 23  1  0
 23 21  2  0
 24 25  1  0
 25 26  2  0
 27 30  1  0
 27 26  1  0
 28 27  2  0
 29 28  1  0
 29 24  2  0
 30 31  1  0
 31 32  1  0
 32 33  2  0
 34 33  1  0
 34 38  1  0
 35 34  2  0
 36 31  2  0
 36 35  1  0
 37 36  1  0
 39 40  1  0
 40 43  1  0
 40 42  1  0
 41 39  2  0
 44 45  1  0
 44 19  1  0
 46 44  1  0
 47 48  1  0
 47  2  1  0
 49 60  2  0
 50 48  1  0
 50 55  1  0
 51 59  1  0
 51 61  1  0
 52 58  1  0
 52 54  1  0
 53 59  1  0
 54 53  1  0
 55 54  2  0
 56 50  2  0
 57 56  1  0
 57 52  2  0
 58 51  1  0
 59 49  1  0
 61 63  2  0
 62 61  1  0
 64 62  1  0
 65 74  2  0
 65 70  1  0
 66 62  1  0
 66 70  1  0
 67 66  1  0
 68 69  1  0
 68 67  1  0
 69 65  1  0
 70 71  2  0
 71 72  1  0
 73 72  2  0
 74 73  1  0
 75 49  1  0
 75 76  1  0
 75 85  1  0
 76 79  1  0
 77 81  1  0
 77 76  1  0
 78 77  2  0
 81 80  1  0
 83 81  1  0
 83 84  1  0
 83 82  1  0
 85 88  1  1
 85 86  1  0
 87 85  1  0
M  ISO  4  10 100  11 100  47 101  48 101
M  END
>  <TORSDO>  (92) 
F 21

>  <SCORE>  (92) 
-14.064

>  <name>  (92) 
93

>  <ligand_id>  (92) 
93

>  <original_smiles>  (92) 
[H]C(=C(C([H])([H])[H])C([H])([H])Oc1c([H])c([H])c2c(c1[H])C([H])([H])N(C(=O)C([H])(N([H])C(=O)C([H])(N([H])C([H])([H])[H])C([H])([H])[H])C(C([H])([H])[H])(C([H])([H])[H])C([H])([H])[H])C([H])(C(=O)N([H])C1([H])c3c([H])c([H])c([H])c([H])c3C([H])([H])C([H])([H])C1([H])[H])C2([H])[H])C([H])(C([H])([H])[H])[N+]([H])([H])C([H])([H])C([H])([H])C(=O)N1C([H])([H])C([H])([H])C([H])([H])C([H])(n2nc(-c3c([H])c([H])c(Oc4c([H])c([H])c(F)c([H])c4F)c([H])c3[H])c(C(=O)N([H])[H])c2N([H])[H])C1([H])[H]

>  <smiles>  (92) 
[H]C(=C(C([H])([H])[H])C([H])([H])Oc1c([H])c([H])c2c(c1[H])C([H])([H])N(C(=O)C([H])(N([H])C(=O)C([H])(N([H])C([H])([H])[H])C([H])([H])[H])C(C([H])([H])[H])(C([H])([H])[H])C([H])([H])[H])C([H])(C(=O)N([H])C1([H])c3c([H])c([H])c([H])c([H])c3C([H])([H])C([H])([H])C1([H])[H])C2([H])[H])C([H])(C([H])([H])[H])[N+]([H])([H])C([H])([H])C([H])([H])C(=O)N1C([H])([H])C([H])([H])C([H])([H])C([H])(n2nc(-c3c([H])c([H])c(Oc4c([H])c([H])c(F)c([H])c4F)c([H])c3[H])c(C(=O)N([H])[H])c2N([H])[H])C1([H])[H]

$$$$
94:0:0
     RDKit          3D

 93100  0  0  1  0  0  0  0  0999 V2000
  -28.5920  -22.3170   20.2360 C   0  0  0  0  0  3  0  0  0  0  0  0
  -27.5540  -22.1270   19.1210 C   0  0  0  0  0  0  0  0  0  0  0  0
  -25.1600  -22.1710   18.4740 C   0  0  0  0  0  1  0  0  0  0  0  0
  -26.2620  -22.3060   19.4210 N   0  0  0  0  0  0  0  0  0  0  0  0
  -27.9380  -21.8190   17.9900 O   0  0  0  0  0  0  0  0  0  0  0  0
  -26.0200  -22.5610   20.3710 H   0  0  0  0  0  0  0  0  0  0  0  0
  -29.5990  -21.1910   20.0280 N   0  0  0  0  0  4  0  0  0  0  0  0
  -29.4390  -20.9580   19.0560 H   0  0  0  0  0  0  0  0  0  0  0  0
  -30.5360  -21.5540   20.0950 H   0  0  0  0  0  0  0  0  0  0  0  0
  -29.5010  -19.9070   20.8540 C   0  0  0  0  0  2  0  0  0  0  0  0
  -29.7250  -18.4780   20.1390 C   0  0  0  0  0  2  0  0  0  0  0  0
  -30.1780  -17.2400   21.0600 C   0  0  0  0  0  2  0  0  0  0  0  0
  -30.6070  -14.7170   20.4270 C   0  0  0  0  0  0  0  0  0  0  0  0
  -30.4100  -12.4680   19.3690 C   0  0  0  0  0  2  0  0  0  0  0  0
  -29.4760  -12.5710   18.1430 C   0  0  0  0  0  2  0  0  0  0  0  0
  -28.0010  -12.4010   18.5610 C   0  0  0  0  0  2  0  0  0  0  0  0
  -27.6220  -13.2790   19.7840 C   0  0  0  0  0  3  0  0  0  0  0  0
  -28.6720  -13.1560   20.9110 C   0  0  0  0  0  2  0  0  0  0  0  0
  -29.9770  -13.5020   20.3310 N   0  0  0  0  0  0  0  0  0  0  0  0
  -31.7950  -14.8460   20.1160 O   0  0  0  0  0  0  0  0  0  0  0  0
  -29.8180  -15.8110   20.7000 N   0  0  0  0  0  0  0  0  0  0  0  0
  -28.8480  -15.5720   20.8490 H   0  0  0  0  0  0  0  0  0  0  0  0
  -25.2220  -13.8750   20.4770 C   0  0  0  0  0  0  0  0  0  0  0  0
  -24.1520  -13.1010   20.8350 C   0  0  0  0  0  0  0  0  0  0  0  0
  -24.6170  -11.7500   20.8150 C   0  0  0  0  0  0  0  0  0  0  0  0
  -26.2710  -12.9960   20.2570 N   0  0  0  0  0  0  0  0  0  0  0  0
  -25.9120  -11.7120   20.5240 N   0  0  0  0  0  0  0  0  0  0  0  0
  -23.8890  -10.4880   20.9980 C   0  0  0  0  0  0  0  0  0  0  0  0
  -24.3040   -9.5280   21.9490 C   0  0  0  0  0  3  0  0  0  0  0  0
  -23.5760   -8.3310   22.1200 C   0  0  0  0  0  3  0  0  0  0  0  0
  -22.4210   -8.0840   21.3390 C   0  0  0  0  0  0  0  0  0  0  0  0
  -22.0280   -9.0330   20.3770 C   0  0  0  0  0  3  0  0  0  0  0  0
  -22.7560  -10.2200   20.2050 C   0  0  0  0  0  3  0  0  0  0  0  0
  -21.6670   -6.9380   21.4180 O   0  0  0  0  0  0  0  0  0  0  0  0
  -21.5870   -6.2080   22.5770 C   0  0  0  0  0  0  0  0  0  0  0  0
  -21.1070   -6.7700   23.7810 C   0  0  0  0  0  3  0  0  0  0  0  0
  -20.9770   -5.9650   24.9290 C   0  0  0  0  0  3  0  0  0  0  0  0
  -21.3150   -4.6000   24.8770 C   0  0  0  0  0  0  0  0  0  0  0  0
  -21.7870   -4.0380   23.6780 C   0  0  0  0  0  3  0  0  0  0  0  0
  -21.9190   -4.8390   22.5300 C   0  0  0  0  0  0  0  0  0  0  0  0
  -22.3550   -4.2870   21.3730 F   0  0  0  0  0  0  0  0  0  0  0  0
  -21.1820   -3.8250   25.9790 F   0  0  0  0  0  0  0  0  0  0  0  0
  -22.7500  -13.5770   21.0850 C   0  0  0  0  0  0  0  0  0  0  0  0
  -22.0100  -12.8770   21.9390 N   0  0  0  0  0  0  0  0  0  0  0  0
  -22.3180  -14.6020   20.5600 O   0  0  0  0  0  0  0  0  0  0  0  0
  -22.3700  -12.0460   22.3830 H   0  0  0  0  0  0  0  0  0  0  0  0
  -21.0700  -13.1780   22.1530 H   0  0  0  0  0  0  0  0  0  0  0  0
  -25.3850  -15.2460   20.3010 N   0  0  0  0  0  0  0  0  0  0  0  0
  -24.6150  -15.8980   20.4090 H   0  0  0  0  0  0  0  0  0  0  0  0
  -26.2340  -15.6910   19.9790 H   0  0  0  0  0  0  0  0  0  0  0  0
  -29.1240  -23.8480   20.2400 C   0  0  0  0  0  3  0  0  0  0  0  0
  -28.0640  -25.0230   19.9650 C   0  0  0  0  0  3  0  0  0  0  0  0
  -28.3160  -26.4690   20.2080 O   0  0  0  0  0  0  0  0  0  0  0  0
  -24.5930  -31.8750   23.2720 C   0  0  0  0  0  0  0  0  0  0  0  0
  -27.2000  -27.3330   20.1690 C   0  0  0  0  0  0  0  0  0  0  0  0
  -23.3870  -30.4910   21.6230 C   0  0  0  0  0  3  0  0  0  0  0  0
  -24.8340  -28.9550   20.1870 C   0  0  0  0  0  0  0  0  0  0  0  0
  -25.9300  -30.8080   21.4400 C   0  0  0  0  0  2  0  0  0  0  0  0
  -26.0090  -29.4350   20.7780 C   0  0  0  0  0  0  0  0  0  0  0  0
  -27.1970  -28.6380   20.7560 C   0  0  0  0  0  3  0  0  0  0  0  0
  -25.9910  -26.9090   19.5610 C   0  0  0  0  0  3  0  0  0  0  0  0
  -24.8270  -27.6960   19.5750 C   0  0  0  0  0  3  0  0  0  0  0  0
  -23.5990  -29.8310   20.2380 C   0  0  0  0  0  2  0  0  0  0  0  0
  -24.6570  -31.0740   22.1690 N   0  0  0  0  0  0  0  0  0  0  0  0
  -23.5090  -32.1480   23.8080 O   0  0  0  0  0  0  0  0  0  0  0  0
  -22.7240  -29.4640   22.5750 C   0  0  0  0  0  0  0  0  0  0  0  0
  -21.4000  -29.2840   22.4420 N   0  0  0  0  0  0  0  0  0  0  0  0
  -23.4030  -28.8340   23.3890 O   0  0  0  0  0  0  0  0  0  0  0  0
  -20.9120  -29.8460   21.7570 H   0  0  0  0  0  0  0  0  0  0  0  0
  -18.0210  -28.0870   22.9360 C   0  0  0  0  0  0  0  0  0  0  0  0
  -20.5790  -28.3410   23.2040 C   0  0  0  0  0  3  0  0  0  0  0  0
  -20.6770  -26.9140   22.6200 C   0  0  0  0  0  2  0  0  0  0  0  0
  -19.5760  -26.6000   21.6030 C   0  0  0  0  0  2  0  0  0  0  0  0
  -18.1930  -26.7440   22.2470 C   0  0  0  0  0  2  0  0  0  0  0  0
  -19.1410  -28.8440   23.3700 C   0  0  0  0  0  0  0  0  0  0  0  0
  -18.9260  -30.1030   23.9730 C   0  0  0  0  0  3  0  0  0  0  0  0
  -17.6230  -30.6050   24.1470 C   0  0  0  0  0  3  0  0  0  0  0  0
  -16.5160  -29.8460   23.7270 C   0  0  0  0  0  3  0  0  0  0  0  0
  -16.7150  -28.5890   23.1280 C   0  0  0  0  0  3  0  0  0  0  0  0
  -25.8760  -32.5020   23.9000 C   0  0  0  0  0  3  0  0  0  0  0  0
  -25.5770  -33.9060   24.2140 N   0  0  0  0  0  0  0  0  0  0  0  0
  -25.9200  -34.9480   23.4460 C   0  0  0  0  0  0  0  0  0  0  0  0
  -26.5960  -34.8290   22.4210 O   0  0  0  0  0  0  0  0  0  0  0  0
  -24.9810  -34.0770   25.0110 H   0  0  0  0  0  0  0  0  0  0  0  0
  -24.2120  -36.7530   23.0620 C   0  0  0  0  0  1  0  0  0  0  0  0
  -25.4420  -36.3450   23.8890 C   0  0  0  0  0  3  0  0  0  0  0  0
  -27.5750  -37.2150   24.7370 C   0  0  0  0  0  1  0  0  0  0  0  0
  -26.4840  -37.3870   23.7790 N   0  0  0  0  0  0  0  0  0  0  0  0
  -26.0840  -38.3110   23.9150 H   0  0  0  0  0  0  0  0  0  0  0  0
  -26.3700  -31.7390   25.1900 C   0  0  1  0  0  0  0  0  0  0  0  0
  -25.2620  -31.5260   26.2490 C   0  0  0  0  0  1  0  0  0  0  0  0
  -26.9430  -30.3520   24.8210 C   0  0  0  0  0  1  0  0  0  0  0  0
  -27.5240  -32.5280   25.8520 C   0  0  0  0  0  1  0  0  0  0  0  0
  1 51  1  0
  2  4  1  0
  2  1  1  0
  3  4  1  0
  4  6  1  0
  5  2  2  0
  7  9  1  0
  7  1  1  0
  7 10  1  0
  8  7  1  0
 11 10  1  0
 11 12  1  0
 13 21  1  0
 14 19  1  0
 15 16  1  0
 15 14  1  0
 17 16  1  0
 17 26  1  0
 17 18  1  0
 19 13  1  0
 19 18  1  0
 20 13  2  0
 21 22  1  0
 21 12  1  0
 23 24  2  0
 24 43  1  0
 25 24  1  0
 25 28  1  0
 26 23  1  0
 26 27  1  0
 27 25  2  0
 28 29  1  0
 29 30  2  0
 31 34  1  0
 31 30  1  0
 32 31  2  0
 33 32  1  0
 33 28  2  0
 34 35  1  0
 35 36  1  0
 36 37  2  0
 38 37  1  0
 38 42  1  0
 39 38  2  0
 40 35  2  0
 40 39  1  0
 41 40  1  0
 43 44  1  0
 44 47  1  0
 44 46  1  0
 45 43  2  0
 48 49  1  0
 48 23  1  0
 50 48  1  0
 52 53  1  0
 52 51  2  0
 54 65  2  0
 55 53  1  0
 55 60  1  0
 56 64  1  0
 56 66  1  0
 57 63  1  0
 57 59  1  0
 58 64  1  0
 59 58  1  0
 60 59  2  0
 61 62  1  0
 61 55  2  0
 62 57  2  0
 63 56  1  0
 64 54  1  0
 66 68  2  0
 67 66  1  0
 69 67  1  0
 70 79  2  0
 70 75  1  0
 71 67  1  0
 71 75  1  0
 72 71  1  0
 73 74  1  0
 73 72  1  0
 74 70  1  0
 75 76  2  0
 76 77  1  0
 78 77  2  0
 79 78  1  0
 80 54  1  0
 80 81  1  0
 80 90  1  0
 81 84  1  0
 82 86  1  0
 82 81  1  0
 83 82  2  0
 86 85  1  0
 88 86  1  0
 88 89  1  0
 88 87  1  0
 90 93  1  1
 90 91  1  0
 92 90  1  0
M  ISO  4  13 100  21 100  52 101  53 101
M  END
>  <TORSDO>  (93) 
F 23

>  <SCORE>  (93) 
-12.903

>  <name>  (93) 
94

>  <ligand_id>  (93) 
94

>  <original_smiles>  (93) 
[H]c1c([H])c([H])c2c(c1[H])C([H])([H])C([H])([H])C([H])([H])C2([H])N([H])C(=O)C1([H])N(C(=O)C([H])(N([H])C(=O)C([H])(N([H])C([H])([H])[H])C([H])([H])[H])C(C([H])([H])[H])(C([H])([H])[H])C([H])([H])[H])C([H])([H])c2c([H])c(OC([H])([H])C([H])([H])C([H])(C(=O)N([H])C([H])([H])[H])[N+]([H])([H])C([H])([H])C([H])([H])C([H])([H])N([H])C(=O)N3C([H])([H])C([H])([H])C([H])([H])C([H])(n4nc(-c5c([H])c([H])c(Oc6c([H])c([H])c(F)c([H])c6F)c([H])c5[H])c(C(=O)N([H])[H])c4N([H])[H])C3([H])[H])c([H])c([H])c2C1([H])[H]

>  <smiles>  (93) 
[H]c1c([H])c([H])c2c(c1[H])C([H])([H])C([H])([H])C([H])([H])C2([H])N([H])C(=O)C1([H])N(C(=O)C([H])(N([H])C(=O)C([H])(N([H])C([H])([H])[H])C([H])([H])[H])C(C([H])([H])[H])(C([H])([H])[H])C([H])([H])[H])C([H])([H])c2c([H])c(OC([H])([H])C([H])([H])C([H])(C(=O)N([H])C([H])([H])[H])[N+]([H])([H])C([H])([H])C([H])([H])C([H])([H])N([H])C(=O)N3C([H])([H])C([H])([H])C([H])([H])C([H])(n4nc(-c5c([H])c([H])c(Oc6c([H])c([H])c(F)c([H])c6F)c([H])c5[H])c(C(=O)N([H])[H])c4N([H])[H])C3([H])[H])c([H])c([H])c2C1([H])[H]

$$$$
95:0:0
     RDKit          3D

 97104  0  0  1  0  0  0  0  0999 V2000
  -29.1790  -20.7580   19.7460 C   0  0  0  0  0  3  0  0  0  0  0  0
  -29.8940  -19.4910   20.1160 N   0  0  0  0  0  4  0  0  0  0  0  0
  -29.1860  -18.8850   20.4940 H   0  0  0  0  0  0  0  0  0  0  0  0
  -30.5250  -19.7130   20.8680 H   0  0  0  0  0  0  0  0  0  0  0  0
  -30.6370  -18.7100   19.0820 C   0  0  0  0  0  3  0  0  0  0  0  0
  -31.5320  -17.5750   19.6970 C   0  0  0  0  0  2  0  0  0  0  0  0
  -30.8660  -16.3340   20.4020 C   0  0  0  0  0  2  0  0  0  0  0  0
  -31.6310  -14.9900   20.1770 C   0  0  0  0  0  0  0  0  0  0  0  0
  -31.3950  -12.6470   19.4290 C   0  0  0  0  0  2  0  0  0  0  0  0
  -30.4870  -12.6240   18.1810 C   0  0  0  0  0  2  0  0  0  0  0  0
  -29.0030  -12.5350   18.5880 C   0  0  0  0  0  2  0  0  0  0  0  0
  -28.6190  -13.5740   19.6730 C   0  0  0  0  0  3  0  0  0  0  0  0
  -29.6470  -13.5870   20.8270 C   0  0  0  0  0  2  0  0  0  0  0  0
  -30.9820  -13.7940   20.2550 N   0  0  0  0  0  0  0  0  0  0  0  0
  -32.7950  -15.0590   19.7770 O   0  0  0  0  0  0  0  0  0  0  0  0
  -26.2690  -14.3030   20.4190 C   0  0  0  0  0  0  0  0  0  0  0  0
  -25.1600  -13.5870   20.7780 C   0  0  0  0  0  0  0  0  0  0  0  0
  -25.5410  -12.2120   20.7160 C   0  0  0  0  0  0  0  0  0  0  0  0
  -27.2580  -13.3680   20.1600 N   0  0  0  0  0  0  0  0  0  0  0  0
  -26.8250  -12.1030   20.3990 N   0  0  0  0  0  0  0  0  0  0  0  0
  -24.7430  -10.9900   20.8830 C   0  0  0  0  0  0  0  0  0  0  0  0
  -25.0550  -10.0330   21.8730 C   0  0  0  0  0  3  0  0  0  0  0  0
  -24.2630   -8.8750   22.0250 C   0  0  0  0  0  3  0  0  0  0  0  0
  -23.1430   -8.6670   21.1860 C   0  0  0  0  0  0  0  0  0  0  0  0
  -22.8500   -9.6100   20.1860 C   0  0  0  0  0  3  0  0  0  0  0  0
  -23.6430  -10.7600   20.0320 C   0  0  0  0  0  3  0  0  0  0  0  0
  -22.3310   -7.5600   21.2440 O   0  0  0  0  0  0  0  0  0  0  0  0
  -22.0570   -6.9300   22.4320 C   0  0  0  0  0  0  0  0  0  0  0  0
  -21.3950   -7.5920   23.4890 C   0  0  0  0  0  3  0  0  0  0  0  0
  -21.0710   -6.8880   24.6650 C   0  0  0  0  0  3  0  0  0  0  0  0
  -21.3980   -5.5240   24.7840 C   0  0  0  0  0  0  0  0  0  0  0  0
  -22.0510   -4.8620   23.7290 C   0  0  0  0  0  3  0  0  0  0  0  0
  -22.3770   -5.5630   22.5550 C   0  0  0  0  0  0  0  0  0  0  0  0
  -22.9890   -4.9160   21.5340 F   0  0  0  0  0  0  0  0  0  0  0  0
  -21.0780   -4.8450   25.9100 F   0  0  0  0  0  0  0  0  0  0  0  0
  -23.7930  -14.1390   21.0660 C   0  0  0  0  0  0  0  0  0  0  0  0
  -23.0330  -13.4700   21.9260 N   0  0  0  0  0  0  0  0  0  0  0  0
  -23.4110  -15.1960   20.5650 O   0  0  0  0  0  0  0  0  0  0  0  0
  -23.3540  -12.6130   22.3490 H   0  0  0  0  0  0  0  0  0  0  0  0
  -22.1160  -13.8210   22.1640 H   0  0  0  0  0  0  0  0  0  0  0  0
  -26.5130  -15.6650   20.2670 N   0  0  0  0  0  0  0  0  0  0  0  0
  -25.7820  -16.3590   20.3840 H   0  0  0  0  0  0  0  0  0  0  0  0
  -27.3720  -16.0490   19.8980 H   0  0  0  0  0  0  0  0  0  0  0  0
  -29.7360  -18.1410   17.9530 C   0  0  0  0  0  2  0  0  0  0  0  0
  -29.6020  -19.0440   16.8200 N   0  0  0  0  0  0  0  0  0  0  0  0
  -28.9190  -19.7670   17.0120 H   0  0  0  0  0  0  0  0  0  0  0  0
  -29.1950  -18.5320   16.0420 H   0  0  0  0  0  0  0  0  0  0  0  0
  -26.7770  -19.7970   19.7200 C   0  0  0  0  0  1  0  0  0  0  0  0
  -27.7860  -20.7200   20.4290 C   0  0  0  0  0  2  0  0  0  0  0  0
  -29.9910  -22.0860   20.0530 C   0  0  0  0  0  3  0  0  0  0  0  0
  -31.9950  -22.9980   21.4620 C   0  0  0  0  0  1  0  0  0  0  0  0
  -30.9100  -21.9250   21.2940 C   0  0  0  0  0  2  0  0  0  0  0  0
  -29.0690  -23.2180   20.2980 N   0  0  0  0  0  0  0  0  0  0  0  0
  -28.1410  -22.9760   19.9640 H   0  0  0  0  0  0  0  0  0  0  0  0
  -29.4110  -24.5440   19.7450 C   0  0  0  0  0  2  0  0  0  0  0  0
  -28.5620  -25.6530   20.4380 C   0  0  0  0  0  2  0  0  0  0  0  0
  -28.6860  -26.9880   19.8890 O   0  0  0  0  0  0  0  0  0  0  0  0
  -24.5220  -31.7130   23.2580 C   0  0  0  0  0  0  0  0  0  0  0  0
  -27.5070  -27.7090   19.8930 C   0  0  0  0  0  0  0  0  0  0  0  0
  -23.4460  -30.3880   21.4680 C   0  0  0  0  0  3  0  0  0  0  0  0
  -25.0290  -29.0770   19.9530 C   0  0  0  0  0  0  0  0  0  0  0  0
  -25.9490  -30.9170   21.3730 C   0  0  0  0  0  2  0  0  0  0  0  0
  -26.1390  -29.6150   20.6170 C   0  0  0  0  0  0  0  0  0  0  0  0
  -27.3850  -28.9410   20.5820 C   0  0  0  0  0  3  0  0  0  0  0  0
  -26.3840  -27.1970   19.2110 C   0  0  0  0  0  3  0  0  0  0  0  0
  -25.1470  -27.8690   19.2430 C   0  0  0  0  0  3  0  0  0  0  0  0
  -23.7300  -29.8480   20.0410 C   0  0  0  0  0  2  0  0  0  0  0  0
  -24.6550  -31.0170   22.0920 N   0  0  0  0  0  0  0  0  0  0  0  0
  -23.4140  -31.8680   23.7890 O   0  0  0  0  0  0  0  0  0  0  0  0
  -22.8400  -29.2480   22.3190 C   0  0  0  0  0  0  0  0  0  0  0  0
  -21.5280  -29.0090   22.1540 N   0  0  0  0  0  0  0  0  0  0  0  0
  -23.5470  -28.5850   23.0830 O   0  0  0  0  0  0  0  0  0  0  0  0
  -21.0160  -29.6010   21.5160 H   0  0  0  0  0  0  0  0  0  0  0  0
  -18.2090  -27.6260   22.5210 C   0  0  0  0  0  0  0  0  0  0  0  0
  -20.7550  -27.9610   22.8200 C   0  0  0  0  0  3  0  0  0  0  0  0
  -20.9150  -26.6040   22.0960 C   0  0  0  0  0  2  0  0  0  0  0  0
  -19.8250  -26.3450   21.0520 C   0  0  0  0  0  2  0  0  0  0  0  0
  -18.4400  -26.3630   21.7050 C   0  0  0  0  0  2  0  0  0  0  0  0
  -19.2970  -28.3840   23.0300 C   0  0  0  0  0  0  0  0  0  0  0  0
  -19.0280  -29.5670   23.7500 C   0  0  0  0  0  3  0  0  0  0  0  0
  -17.7040  -29.9940   23.9670 C   0  0  0  0  0  3  0  0  0  0  0  0
  -16.6310  -29.2310   23.4740 C   0  0  0  0  0  3  0  0  0  0  0  0
  -16.8850  -28.0480   22.7570 C   0  0  0  0  0  3  0  0  0  0  0  0
  -25.7500  -32.3650   23.9650 C   0  0  0  0  0  3  0  0  0  0  0  0
  -25.3990  -33.7590   24.2680 N   0  0  0  0  0  0  0  0  0  0  0  0
  -25.7460  -34.8110   23.5160 C   0  0  0  0  0  0  0  0  0  0  0  0
  -26.4660  -34.7130   22.5180 O   0  0  0  0  0  0  0  0  0  0  0  0
  -24.7620  -33.9070   25.0370 H   0  0  0  0  0  0  0  0  0  0  0  0
  -23.9880  -36.5560   23.0740 C   0  0  0  0  0  1  0  0  0  0  0  0
  -25.2070  -36.1930   23.9360 C   0  0  0  0  0  3  0  0  0  0  0  0
  -27.2750  -37.1520   24.8460 C   0  0  0  0  0  1  0  0  0  0  0  0
  -26.2170  -37.2690   23.8460 N   0  0  0  0  0  0  0  0  0  0  0  0
  -25.7810  -38.1810   23.9520 H   0  0  0  0  0  0  0  0  0  0  0  0
  -26.1920  -31.6040   25.2750 C   0  0  1  0  0  0  0  0  0  0  0  0
  -25.0300  -31.3340   26.2590 C   0  0  0  0  0  1  0  0  0  0  0  0
  -26.8380  -30.2430   24.9250 C   0  0  0  0  0  1  0  0  0  0  0  0
  -27.2690  -32.4260   26.0210 C   0  0  0  0  0  1  0  0  0  0  0  0
  1 50  1  0
  1  2  1  0
  1 49  1  0
  2  3  1  0
  2  4  1  0
  5 44  1  0
  5  6  1  0
  5  2  1  0
  6  7  1  0
  8 14  1  0
  8  7  1  0
  9 14  1  0
 10 11  1  0
 10  9  1  0
 12 11  1  0
 12 19  1  0
 12 13  1  0
 14 13  1  0
 15  8  2  0
 16 17  2  0
 17 36  1  0
 18 17  1  0
 18 21  1  0
 19 20  1  0
 19 16  1  0
 20 18  2  0
 21 22  1  0
 22 23  2  0
 24 27  1  0
 24 23  1  0
 25 24  2  0
 26 25  1  0
 26 21  2  0
 27 28  1  0
 28 33  2  0
 28 29  1  0
 29 30  2  0
 30 31  1  0
 31 35  1  0
 32 31  2  0
 33 32  1  0
 34 33  1  0
 36 37  1  0
 37 40  1  0
 37 39  1  0
 38 36  2  0
 41 42  1  0
 41 16  1  0
 43 41  1  0
 45 46  1  0
 45 44  1  0
 47 45  1  0
 48 49  1  0
 50 53  1  0
 50 52  1  0
 52 51  1  0
 54 53  1  0
 55 53  1  0
 55 56  1  0
 57 59  1  0
 57 56  1  0
 58 69  2  0
 59 64  1  0
 60 68  1  0
 60 70  1  0
 61 67  1  0
 61 63  1  0
 62 68  1  0
 63 62  1  0
 64 63  2  0
 65 66  1  0
 65 59  2  0
 66 61  2  0
 67 60  1  0
 68 58  1  0
 70 72  2  0
 71 70  1  0
 73 71  1  0
 74 83  2  0
 74 79  1  0
 75 71  1  0
 75 79  1  0
 76 75  1  0
 77 78  1  0
 77 76  1  0
 78 74  1  0
 79 80  2  0
 80 81  1  0
 82 81  2  0
 83 82  1  0
 84 58  1  0
 84 85  1  0
 84 94  1  0
 85 88  1  0
 86 90  1  0
 86 85  1  0
 87 86  2  0
 90 89  1  0
 92 90  1  0
 92 93  1  0
 92 91  1  0
 94 97  1  1
 94 95  1  0
 96 94  1  0
M  ISO  4   7 100   8 100  56 101  57 101
M  END
>  <TORSDO>  (94) 
F 28

>  <SCORE>  (94) 
-9.096

>  <name>  (94) 
95

>  <ligand_id>  (94) 
95

>  <original_smiles>  (94) 
[H]c1c([H])c([H])c2c(c1[H])C([H])([H])C([H])([H])C([H])([H])C2([H])N([H])C(=O)C1([H])N(C(=O)C([H])(N([H])C(=O)C([H])(N([H])C([H])([H])[H])C([H])([H])[H])C(C([H])([H])[H])(C([H])([H])[H])C([H])([H])[H])C([H])([H])c2c([H])c(OC([H])([H])C([H])([H])N([H])C([H])(C([H])([H])C([H])([H])[H])C([H])(C([H])([H])C([H])([H])[H])[N+]([H])([H])C([H])(C([H])([H])N([H])[H])C([H])([H])C([H])([H])C(=O)N3C([H])([H])C([H])([H])C([H])([H])C([H])(n4nc(-c5c([H])c([H])c(Oc6c([H])c([H])c(F)c([H])c6F)c([H])c5[H])c(C(=O)N([H])[H])c4N([H])[H])C3([H])[H])c([H])c([H])c2C1([H])[H]

>  <smiles>  (94) 
[H]c1c([H])c([H])c2c(c1[H])C([H])([H])C([H])([H])C([H])([H])C2([H])N([H])C(=O)C1([H])N(C(=O)C([H])(N([H])C(=O)C([H])(N([H])C([H])([H])[H])C([H])([H])[H])C(C([H])([H])[H])(C([H])([H])[H])C([H])([H])[H])C([H])([H])c2c([H])c(OC([H])([H])C([H])([H])N([H])C([H])(C([H])([H])C([H])([H])[H])C([H])(C([H])([H])C([H])([H])[H])[N+]([H])([H])C([H])(C([H])([H])N([H])[H])C([H])([H])C([H])([H])C(=O)N3C([H])([H])C([H])([H])C([H])([H])C([H])(n4nc(-c5c([H])c([H])c(Oc6c([H])c([H])c(F)c([H])c6F)c([H])c5[H])c(C(=O)N([H])[H])c4N([H])[H])C3([H])[H])c([H])c([H])c2C1([H])[H]

$$$$
96:0:0
     RDKit          3D

 90 98  0  0  1  0  0  0  0  0999 V2000
  -30.6400  -18.5230   20.1830 C   0  0  0  0  0  3  0  0  0  0  0  0
  -30.3580  -19.9540   20.0190 C   0  0  0  0  0  3  0  0  0  0  0  0
  -28.3350  -18.0700   20.0050 C   0  0  0  0  0  3  0  0  0  0  0  0
  -28.0470  -19.4750   19.8290 C   0  0  0  0  0  0  0  0  0  0  0  0
  -29.6300  -17.4950   20.1820 C   0  0  0  0  0  0  0  0  0  0  0  0
  -29.0410  -20.5110   19.8220 C   0  0  0  0  0  0  0  0  0  0  0  0
  -26.5860  -19.8600   19.6400 C   0  0  0  0  0  1  0  0  0  0  0  0
  -30.5750  -14.8830   20.1430 C   0  0  0  0  0  0  0  0  0  0  0  0
  -30.4580  -12.5080   19.2750 C   0  0  0  0  0  2  0  0  0  0  0  0
  -29.5070  -12.4600   18.0560 C   0  0  0  0  0  2  0  0  0  0  0  0
  -28.0400  -12.2920   18.5020 C   0  0  0  0  0  2  0  0  0  0  0  0
  -27.6630  -13.2520   19.6600 C   0  0  0  0  0  3  0  0  0  0  0  0
  -28.7270  -13.2410   20.7790 C   0  0  0  0  0  2  0  0  0  0  0  0
  -30.0090  -13.6140   20.1630 N   0  0  0  0  0  0  0  0  0  0  0  0
  -31.7570  -14.9970   19.7990 O   0  0  0  0  0  0  0  0  0  0  0  0
  -29.7110  -15.9780   20.3560 N   0  0  0  0  0  0  0  0  0  0  0  0
  -28.8210  -15.6020   20.6400 H   0  0  0  0  0  0  0  0  0  0  0  0
  -25.3100  -13.9080   20.4390 C   0  0  0  0  0  0  0  0  0  0  0  0
  -24.2270  -13.1640   20.8200 C   0  0  0  0  0  0  0  0  0  0  0  0
  -24.6440  -11.7990   20.7640 C   0  0  0  0  0  0  0  0  0  0  0  0
  -26.3190  -12.9970   20.1710 N   0  0  0  0  0  0  0  0  0  0  0  0
  -25.9280  -11.7230   20.4300 N   0  0  0  0  0  0  0  0  0  0  0  0
  -23.8790  -10.5590   20.9480 C   0  0  0  0  0  0  0  0  0  0  0  0
  -24.3000   -9.5580   21.8520 C   0  0  0  0  0  3  0  0  0  0  0  0
  -23.5370   -8.3850   22.0270 C   0  0  0  0  0  3  0  0  0  0  0  0
  -22.3370   -8.2030   21.2990 C   0  0  0  0  0  0  0  0  0  0  0  0
  -21.9340   -9.1920   20.3830 C   0  0  0  0  0  3  0  0  0  0  0  0
  -22.6980  -10.3570   20.2060 C   0  0  0  0  0  3  0  0  0  0  0  0
  -21.5440   -7.0840   21.3840 O   0  0  0  0  0  0  0  0  0  0  0  0
  -21.5030   -6.3170   22.5210 C   0  0  0  0  0  0  0  0  0  0  0  0
  -21.1310   -6.8570   23.7710 C   0  0  0  0  0  3  0  0  0  0  0  0
  -21.0350   -6.0180   24.9000 C   0  0  0  0  0  3  0  0  0  0  0  0
  -21.3000   -4.6410   24.7790 C   0  0  0  0  0  0  0  0  0  0  0  0
  -21.6650   -4.1010   23.5340 C   0  0  0  0  0  3  0  0  0  0  0  0
  -21.7630   -4.9360   22.4070 C   0  0  0  0  0  0  0  0  0  0  0  0
  -22.0940   -4.4070   21.2050 F   0  0  0  0  0  0  0  0  0  0  0  0
  -21.2010   -3.8340   25.8610 F   0  0  0  0  0  0  0  0  0  0  0  0
  -22.8510  -13.6840   21.1190 C   0  0  0  0  0  0  0  0  0  0  0  0
  -22.1170  -13.0090   21.9960 N   0  0  0  0  0  0  0  0  0  0  0  0
  -22.4360  -14.7240   20.6090 O   0  0  0  0  0  0  0  0  0  0  0  0
  -22.4660  -12.1660   22.4310 H   0  0  0  0  0  0  0  0  0  0  0  0
  -21.1940  -13.3390   22.2390 H   0  0  0  0  0  0  0  0  0  0  0  0
  -25.5140  -15.2740   20.2690 N   0  0  0  0  0  0  0  0  0  0  0  0
  -24.7520  -15.9350   20.3700 H   0  0  0  0  0  0  0  0  0  0  0  0
  -26.3240  -15.6710   19.8150 H   0  0  0  0  0  0  0  0  0  0  0  0
  -28.6040  -21.9110   19.5870 N   0  0  0  0  0  0  0  0  0  0  0  0
  -27.6120  -21.9450   19.3740 H   0  0  0  0  0  0  0  0  0  0  0  0
  -29.1580  -23.3530   19.7220 C   0  0  0  0  0  3  0  0  0  0  0  0
  -28.1380  -24.6610   19.4410 C   0  0  0  0  0  3  0  0  0  0  0  0
  -28.3840  -26.1740   19.6690 O   0  0  0  0  0  0  0  0  0  0  0  0
  -24.6080  -31.5450   22.9900 C   0  0  0  0  0  0  0  0  0  0  0  0
  -27.2910  -27.1120   19.6690 C   0  0  0  0  0  0  0  0  0  0  0  0
  -23.4320  -30.2180   21.2770 C   0  0  0  0  0  3  0  0  0  0  0  0
  -24.9110  -28.7750   19.7550 C   0  0  0  0  0  0  0  0  0  0  0  0
  -25.9750  -30.5680   21.1120 C   0  0  0  0  0  2  0  0  0  0  0  0
  -26.0820  -29.2210   20.3790 C   0  0  0  0  0  0  0  0  0  0  0  0
  -27.2730  -28.4080   20.3190 C   0  0  0  0  0  3  0  0  0  0  0  0
  -26.0870  -26.7620   19.0140 C   0  0  0  0  0  3  0  0  0  0  0  0
  -24.9250  -27.5590   19.0570 C   0  0  0  0  0  3  0  0  0  0  0  0
  -23.6590  -29.6310   19.8600 C   0  0  0  0  0  2  0  0  0  0  0  0
  -24.6920  -30.7960   21.8490 N   0  0  0  0  0  0  0  0  0  0  0  0
  -23.5190  -31.7700   23.5400 O   0  0  0  0  0  0  0  0  0  0  0  0
  -22.7880  -29.1380   22.1810 C   0  0  0  0  0  0  0  0  0  0  0  0
  -21.4590  -28.9580   22.0680 N   0  0  0  0  0  0  0  0  0  0  0  0
  -23.4840  -28.4670   22.9470 O   0  0  0  0  0  0  0  0  0  0  0  0
  -20.9530  -29.5530   21.4290 H   0  0  0  0  0  0  0  0  0  0  0  0
  -18.0980  -27.7100   22.5850 C   0  0  0  0  0  0  0  0  0  0  0  0
  -20.6640  -27.9610   22.7910 C   0  0  0  0  0  3  0  0  0  0  0  0
  -20.7490  -26.5770   22.1030 C   0  0  0  0  0  2  0  0  0  0  0  0
  -19.6150  -26.3300   21.1030 C   0  0  0  0  0  2  0  0  0  0  0  0
  -18.2550  -26.4180   21.8010 C   0  0  0  0  0  2  0  0  0  0  0  0
  -19.2290  -28.4420   23.0360 C   0  0  0  0  0  0  0  0  0  0  0  0
  -19.0260  -29.6520   23.7340 C   0  0  0  0  0  3  0  0  0  0  0  0
  -17.7260  -30.1320   23.9820 C   0  0  0  0  0  3  0  0  0  0  0  0
  -16.6100  -29.3960   23.5440 C   0  0  0  0  0  3  0  0  0  0  0  0
  -16.7980  -28.1870   22.8530 C   0  0  0  0  0  3  0  0  0  0  0  0
  -25.8740  -32.1750   23.6460 C   0  0  0  0  0  3  0  0  0  0  0  0
  -26.4000  -31.3570   24.8900 C   0  0  1  0  0  0  0  0  0  0  0  0
  -25.3090  -31.0590   25.9450 C   0  0  0  0  0  1  0  0  0  0  0  0
  -27.0020  -30.0040   24.4430 C   0  0  0  0  0  1  0  0  0  0  0  0
  -27.5380  -32.1370   25.5860 C   0  0  0  0  0  1  0  0  0  0  0  0
  -25.5350  -33.5500   24.0440 N   0  0  0  0  0  0  0  0  0  0  0  0
  -25.8340  -34.6460   23.3350 C   0  0  0  0  0  0  0  0  0  0  0  0
  -26.4910  -34.6080   22.2910 O   0  0  0  0  0  0  0  0  0  0  0  0
  -24.9480  -33.6520   24.8600 H   0  0  0  0  0  0  0  0  0  0  0  0
  -24.0510  -36.4080   23.1080 C   0  0  0  0  0  1  0  0  0  0  0  0
  -25.3240  -36.0020   23.8660 C   0  0  0  0  0  3  0  0  0  0  0  0
  -27.4580  -36.9100   24.6770 C   0  0  0  0  0  1  0  0  0  0  0  0
  -26.3270  -37.0860   23.7700 N   0  0  0  0  0  0  0  0  0  0  0  0
  -25.9000  -37.9880   23.9650 H   0  0  0  0  0  0  0  0  0  0  0  0
  2  1  2  0
  3  5  2  0
  4  3  1  0
  5  1  1  0
  5 16  1  0
  6  4  2  0
  6  2  1  0
  7  4  1  0
  8 14  1  0
  8 16  1  0
  9 14  1  0
 10 11  1  0
 10  9  1  0
 12 11  1  0
 12 21  1  0
 12 13  1  0
 14 13  1  0
 15  8  2  0
 16 17  1  0
 18 19  2  0
 19 38  1  0
 20 19  1  0
 20 23  1  0
 21 22  1  0
 21 18  1  0
 22 20  2  0
 23 24  1  0
 24 25  2  0
 26 29  1  0
 26 25  1  0
 27 26  2  0
 28 27  1  0
 28 23  2  0
 29 30  1  0
 30 31  1  0
 31 32  2  0
 33 32  1  0
 33 37  1  0
 34 33  2  0
 35 30  2  0
 35 34  1  0
 36 35  1  0
 38 39  1  0
 39 42  1  0
 39 41  1  0
 40 38  2  0
 43 44  1  0
 43 18  1  0
 45 43  1  0
 46 48  1  0
 46  6  1  0
 47 46  1  0
 49 50  1  0
 49 48  2  0
 51 62  2  0
 52 50  1  0
 52 57  1  0
 53 61  1  0
 53 63  1  0
 54 60  1  0
 54 56  1  0
 55 61  1  0
 56 55  1  0
 57 56  2  0
 58 59  1  0
 58 52  2  0
 59 54  2  0
 60 53  1  0
 61 51  1  0
 63 65  2  0
 64 63  1  0
 66 64  1  0
 67 76  2  0
 67 72  1  0
 68 64  1  0
 68 72  1  0
 69 68  1  0
 70 71  1  0
 70 69  1  0
 71 67  1  0
 72 73  2  0
 73 74  1  0
 75 74  2  0
 76 75  1  0
 77 51  1  0
 77 82  1  0
 77 78  1  0
 78 81  1  1
 78 79  1  0
 80 78  1  0
 82 85  1  0
 83 87  1  0
 83 82  1  0
 84 83  2  0
 87 86  1  0
 89 87  1  0
 89 90  1  0
 89 88  1  0
M  ISO  4   8 100  16 100  49 101  50 101
M  END
>  <TORSDO>  (95) 
F 19

>  <SCORE>  (95) 
-12.942

>  <name>  (95) 
96

>  <ligand_id>  (95) 
96

>  <original_smiles>  (95) 
[H]c1c([H])c([H])c2c(c1[H])C([H])([H])C([H])([H])C([H])([H])C2([H])N([H])C(=O)C1([H])N(C(=O)C([H])(N([H])C(=O)C([H])(N([H])C([H])([H])[H])C([H])([H])[H])C(C([H])([H])[H])(C([H])([H])[H])C([H])([H])[H])C([H])([H])c2c([H])c(OC([H])([H])C([H])([H])N([H])c3c([H])c([H])c(N([H])C(=O)N4C([H])([H])C([H])([H])C([H])([H])C([H])(n5nc(-c6c([H])c([H])c(Oc7c([H])c([H])c(F)c([H])c7F)c([H])c6[H])c(C(=O)N([H])[H])c5N([H])[H])C4([H])[H])c([H])c3C([H])([H])[H])c([H])c([H])c2C1([H])[H]

>  <smiles>  (95) 
[H]c1c([H])c([H])c2c(c1[H])C([H])([H])C([H])([H])C([H])([H])C2([H])N([H])C(=O)C1([H])N(C(=O)C([H])(N([H])C(=O)C([H])(N([H])C([H])([H])[H])C([H])([H])[H])C(C([H])([H])[H])(C([H])([H])[H])C([H])([H])[H])C([H])([H])c2c([H])c(OC([H])([H])C([H])([H])N([H])c3c([H])c([H])c(N([H])C(=O)N4C([H])([H])C([H])([H])C([H])([H])C([H])(n5nc(-c6c([H])c([H])c(Oc7c([H])c([H])c(F)c([H])c7F)c([H])c6[H])c(C(=O)N([H])[H])c5N([H])[H])C4([H])[H])c([H])c3C([H])([H])[H])c([H])c([H])c2C1([H])[H]

$$$$
