0:0:0
     RDKit          3D

 90 99  0  0  1  0  0  0  0  0999 V2000
  -28.5910  -16.8730   19.7980 C   0  0  0  0  0  2  0  0  0  0  0  0
  -27.9490  -17.9840   20.6590 C   0  0  0  0  0  2  0  0  0  0  0  0
  -28.4570  -20.3250   21.4470 C   0  0  0  0  0  2  0  0  0  0  0  0
  -30.4650  -18.5230   19.5100 C   0  0  0  0  0  2  0  0  0  0  0  0
  -28.9730  -21.6710   20.9360 C   0  0  0  0  0  2  0  0  0  0  0  0
  -30.1090  -16.8500   19.9370 C   0  0  0  0  0  3  0  0  0  0  0  0
  -29.3130  -19.8490   19.2850 C   0  0  0  0  0  3  0  0  0  0  0  0
  -28.1140  -19.4790   20.2150 C   0  0  1  0  0  0  0  0  0  0  0  0
  -26.7610  -19.9360   19.6200 C   0  0  0  0  0  1  0  0  0  0  0  0
  -29.5140  -21.4780   19.5670 N   0  0  1  0  0  4  0  0  0  0  0  0
  -30.5110  -21.5910   19.6740 H   0  0  0  0  0  0  0  0  0  0  0  0
  -30.8450  -15.2780   19.6440 C   0  0  0  0  0  0  0  0  0  0  0  0
  -30.7390  -12.7800   18.9180 C   0  0  0  0  0  2  0  0  0  0  0  0
  -29.7700  -12.5440   17.7280 C   0  0  0  0  0  2  0  0  0  0  0  0
  -28.3280  -12.3320   18.2290 C   0  0  0  0  0  2  0  0  0  0  0  0
  -27.9410  -13.3880   19.2910 C   0  0  0  0  0  3  0  0  0  0  0  0
  -29.0290  -13.5380   20.3820 C   0  0  0  0  0  2  0  0  0  0  0  0
  -30.2710  -13.9730   19.7150 N   0  0  0  0  0  0  0  0  0  0  0  0
  -32.0280  -15.2370   19.2770 O   0  0  0  0  0  0  0  0  0  0  0  0
  -25.6320  -14.1010   20.1410 C   0  0  0  0  0  0  0  0  0  0  0  0
  -24.5560  -13.3960   20.5870 C   0  0  0  0  0  0  0  0  0  0  0  0
  -24.9440  -12.0220   20.5440 C   0  0  0  0  0  0  0  0  0  0  0  0
  -26.6180  -13.1680   19.8600 N   0  0  0  0  0  0  0  0  0  0  0  0
  -26.2140  -11.9100   20.1660 N   0  0  0  0  0  0  0  0  0  0  0  0
  -24.1550  -10.8100   20.7730 C   0  0  0  0  0  0  0  0  0  0  0  0
  -24.5770   -9.8130   21.6780 C   0  0  0  0  0  3  0  0  0  0  0  0
  -23.7850   -8.6670   21.8960 C   0  0  0  0  0  3  0  0  0  0  0  0
  -22.5560   -8.5130   21.2110 C   0  0  0  0  0  0  0  0  0  0  0  0
  -22.1530   -9.4970   20.2920 C   0  0  0  0  0  3  0  0  0  0  0  0
  -22.9460  -10.6340   20.0710 C   0  0  0  0  0  3  0  0  0  0  0  0
  -21.7300   -7.4220   21.3430 O   0  0  0  0  0  0  0  0  0  0  0  0
  -21.7300   -6.6560   22.4810 C   0  0  0  0  0  0  0  0  0  0  0  0
  -21.4420   -7.2050   23.7500 C   0  0  0  0  0  3  0  0  0  0  0  0
  -21.3810   -6.3670   24.8810 C   0  0  0  0  0  3  0  0  0  0  0  0
  -21.6010   -4.9830   24.7460 C   0  0  0  0  0  0  0  0  0  0  0  0
  -21.8820   -4.4350   23.4830 C   0  0  0  0  0  3  0  0  0  0  0  0
  -21.9450   -5.2690   22.3530 C   0  0  0  0  0  0  0  0  0  0  0  0
  -22.1940   -4.7330   21.1350 F   0  0  0  0  0  0  0  0  0  0  0  0
  -21.5350   -4.1780   25.8320 F   0  0  0  0  0  0  0  0  0  0  0  0
  -23.2070  -13.9580   20.9250 C   0  0  0  0  0  0  0  0  0  0  0  0
  -22.4860  -13.3130   21.8330 N   0  0  0  0  0  0  0  0  0  0  0  0
  -22.8070  -15.0080   20.4170 O   0  0  0  0  0  0  0  0  0  0  0  0
  -22.8250  -12.4660   22.2650 H   0  0  0  0  0  0  0  0  0  0  0  0
  -21.5790  -13.6680   22.1000 H   0  0  0  0  0  0  0  0  0  0  0  0
  -25.8220  -15.4560   19.9180 N   0  0  0  0  0  0  0  0  0  0  0  0
  -25.0650  -16.1190   20.0480 H   0  0  0  0  0  0  0  0  0  0  0  0
  -26.6580  -15.8760   19.5350 H   0  0  0  0  0  0  0  0  0  0  0  0
  -29.0570  -22.7920   18.6550 C   0  0  0  0  0  3  0  0  0  0  0  0
  -28.5280  -24.4060   19.2040 C   0  0  0  0  0  3  0  0  0  0  0  0
  -28.3270  -25.8790   18.5380 O   0  0  0  0  0  0  0  0  0  0  0  0
  -24.7700  -31.1700   22.5350 C   0  0  0  0  0  0  0  0  0  0  0  0
  -27.2460  -26.8590   18.7660 C   0  0  0  0  0  0  0  0  0  0  0  0
  -23.5010  -29.9460   20.8110 C   0  0  0  0  0  3  0  0  0  0  0  0
  -24.8860  -28.5960   19.1040 C   0  0  0  0  0  0  0  0  0  0  0  0
  -26.0380  -30.2900   20.5190 C   0  0  0  0  0  2  0  0  0  0  0  0
  -26.0990  -28.9810   19.6880 C   0  0  0  0  0  0  0  0  0  0  0  0
  -27.2750  -28.1410   19.4880 C   0  0  0  0  0  3  0  0  0  0  0  0
  -25.9920  -26.6020   18.1680 C   0  0  0  0  0  3  0  0  0  0  0  0
  -24.8520  -27.4280   18.3220 C   0  0  0  0  0  3  0  0  0  0  0  0
  -23.6470  -29.4540   19.3450 C   0  0  0  0  0  2  0  0  0  0  0  0
  -24.7920  -30.4920   21.3410 N   0  0  0  0  0  0  0  0  0  0  0  0
  -23.7150  -31.3430   23.1660 O   0  0  0  0  0  0  0  0  0  0  0  0
  -22.9160  -28.8060   21.6850 C   0  0  0  0  0  0  0  0  0  0  0  0
  -21.5900  -28.5880   21.6190 N   0  0  0  0  0  0  0  0  0  0  0  0
  -23.6630  -28.1200   22.3870 O   0  0  0  0  0  0  0  0  0  0  0  0
  -21.0430  -29.1820   21.0100 H   0  0  0  0  0  0  0  0  0  0  0  0
  -18.3010  -27.1540   22.1880 C   0  0  0  0  0  0  0  0  0  0  0  0
  -20.8600  -27.5260   22.3210 C   0  0  0  0  0  3  0  0  0  0  0  0
  -20.9890  -26.1790   21.5700 C   0  0  0  0  0  2  0  0  0  0  0  0
  -19.8310  -25.9110   20.6030 C   0  0  0  0  0  2  0  0  0  0  0  0
  -18.4940  -25.9050   21.3470 C   0  0  0  0  0  2  0  0  0  0  0  0
  -19.4080  -27.9220   22.6380 C   0  0  0  0  0  0  0  0  0  0  0  0
  -19.1640  -29.0870   23.3970 C   0  0  0  0  0  3  0  0  0  0  0  0
  -17.8490  -29.4910   23.7030 C   0  0  0  0  0  3  0  0  0  0  0  0
  -16.7590  -28.7200   23.2630 C   0  0  0  0  0  3  0  0  0  0  0  0
  -16.9860  -27.5540   22.5120 C   0  0  0  0  0  3  0  0  0  0  0  0
  -26.0650  -31.7730   23.1540 C   0  0  0  0  0  3  0  0  0  0  0  0
  -25.6970  -33.0300   23.8300 N   0  0  0  0  0  0  0  0  0  0  0  0
  -25.9170  -34.2580   23.3410 C   0  0  0  0  0  0  0  0  0  0  0  0
  -26.5150  -34.4540   22.2790 O   0  0  0  0  0  0  0  0  0  0  0  0
  -25.1550  -32.9440   24.6770 H   0  0  0  0  0  0  0  0  0  0  0  0
  -24.0810  -35.9720   23.5440 C   0  0  0  0  0  1  0  0  0  0  0  0
  -25.3930  -35.4570   24.1580 C   0  0  0  0  0  3  0  0  0  0  0  0
  -27.5280  -36.2530   25.0720 C   0  0  0  0  0  1  0  0  0  0  0  0
  -26.3600  -36.5710   24.2550 N   0  0  0  0  0  0  0  0  0  0  0  0
  -25.9160  -37.3970   24.6480 H   0  0  0  0  0  0  0  0  0  0  0  0
  -26.7810  -30.8010   24.1700 C   0  0  1  0  0  0  0  0  0  0  0  0
  -25.8490  -30.2540   25.2740 C   0  0  0  0  0  1  0  0  0  0  0  0
  -27.4010  -29.5890   23.4350 C   0  0  0  0  0  1  0  0  0  0  0  0
  -27.9490  -31.5400   24.8640 C   0  0  0  0  0  1  0  0  0  0  0  0
  1  6  1  0
  1  2  1  0
  4  6  1  0
  5  3  1  0
  6 12  1  0
  7  4  1  0
  7 10  1  0
  7  8  1  0
  8  9  1  6
  8  2  1  0
  8  3  1  0
 10 11  1  1
 10  5  1  0
 12 18  1  0
 13 18  1  0
 14 15  1  0
 14 13  1  0
 16 15  1  0
 16 23  1  0
 16 17  1  0
 18 17  1  0
 19 12  2  0
 20 21  2  0
 21 40  1  0
 22 21  1  0
 22 25  1  0
 23 20  1  0
 23 24  1  0
 24 22  2  0
 25 26  1  0
 26 27  2  0
 28 31  1  0
 28 27  1  0
 29 28  2  0
 30 29  1  0
 30 25  2  0
 31 32  1  0
 32 33  1  0
 33 34  2  0
 35 34  1  0
 35 39  1  0
 36 35  2  0
 37 32  2  0
 37 36  1  0
 38 37  1  0
 40 41  1  0
 41 44  1  0
 41 43  1  0
 42 40  2  0
 45 46  1  0
 45 20  1  0
 47 45  1  0
 48 49  2  0
 48 10  1  0
 50 52  1  0
 50 49  1  0
 51 62  2  0
 52 57  1  0
 53 61  1  0
 53 63  1  0
 54 60  1  0
 54 56  1  0
 55 61  1  0
 56 55  1  0
 57 56  2  0
 58 59  1  0
 58 52  2  0
 59 54  2  0
 60 53  1  0
 61 51  1  0
 63 65  2  0
 64 63  1  0
 66 64  1  0
 67 76  2  0
 67 72  1  0
 68 64  1  0
 68 72  1  0
 69 68  1  0
 70 71  1  0
 70 69  1  0
 71 67  1  0
 72 73  2  0
 73 74  1  0
 75 74  2  0
 76 75  1  0
 77 51  1  0
 77 78  1  0
 77 87  1  0
 78 81  1  0
 79 78  1  0
 79 83  1  0
 80 79  2  0
 83 82  1  0
 83 85  1  0
 85 86  1  0
 85 84  1  0
 87 90  1  1
 87 88  1  0
 89 87  1  0
M  ISO  4   6 100  12 100  49 101  50 101
M  END
>  <TORSDO>  (1) 
F 18

>  <SCORE>  (1) 
-11.697

>  <name>  (1) 
0

>  <ligand_id>  (1) 
0

>  <original_smiles>  (1) 
[H]c1c([H])c([H])c2c(c1[H])C([H])([H])C([H])([H])C([H])([H])C2([H])N([H])C(=O)C1([H])N(C(=O)C([H])(N([H])C(=O)C([H])(N([H])C([H])([H])[H])C([H])([H])[H])C(C([H])([H])[H])(C([H])([H])[H])C([H])([H])[H])C([H])([H])c2c([H])c(OC([H])([H])C([H])([H])[N+]3([H])C([H])([H])C([H])([H])C4(C([H])([H])[H])C([H])([H])C([H])([H])C([H])(C(=O)N5C([H])([H])C([H])([H])C([H])([H])C([H])(n6nc(-c7c([H])c([H])c(Oc8c([H])c([H])c(F)c([H])c8F)c([H])c7[H])c(C(=O)N([H])[H])c6N([H])[H])C5([H])[H])C([H])([H])C43[H])c([H])c([H])c2C1([H])[H]

>  <smiles>  (1) 
[H]c1c([H])c([H])c2c(c1[H])C([H])([H])C([H])([H])C([H])([H])C2([H])N([H])C(=O)C1([H])N(C(=O)C([H])(N([H])C(=O)C([H])(N([H])C([H])([H])[H])C([H])([H])[H])C(C([H])([H])[H])(C([H])([H])[H])C([H])([H])[H])C([H])([H])c2c([H])c(OC([H])([H])C([H])([H])[N+]3([H])C([H])([H])C([H])([H])C4(C([H])([H])[H])C([H])([H])C([H])([H])C([H])(C(=O)N5C([H])([H])C([H])([H])C([H])([H])C([H])(n6nc(-c7c([H])c([H])c(Oc8c([H])c([H])c(F)c([H])c8F)c([H])c7[H])c(C(=O)N([H])[H])c6N([H])[H])C5([H])[H])C([H])([H])C43[H])c([H])c([H])c2C1([H])[H]

$$$$
1:0:0
     RDKit          3D

 92101  0  0  1  0  0  0  0  0999 V2000
  -29.0100  -16.2040   18.9670 C   0  0  0  0  0  3  0  0  0  0  0  0
  -28.3100  -17.3680   18.6170 C   0  0  0  0  0  3  0  0  0  0  0  0
  -30.0100  -17.3740   20.8290 C   0  0  0  0  0  3  0  0  0  0  0  0
  -29.8260  -16.1170   20.1170 C   0  0  0  0  0  0  0  0  0  0  0  0
  -28.4620  -18.5630   19.3420 C   0  0  0  0  0  0  0  0  0  0  0  0
  -29.3490  -18.6180   20.4420 C   0  0  0  0  0  0  0  0  0  0  0  0
  -27.6550  -19.7740   18.8820 C   0  0  0  0  0  2  0  0  0  0  0  0
  -29.6130  -20.0390   21.0940 C   0  0  0  0  0  2  0  0  0  0  0  0
  -28.3010  -21.1300   19.1870 C   0  0  0  0  0  2  0  0  0  0  0  0
  -28.6630  -21.2710   20.6690 C   0  0  0  0  0  3  0  0  0  0  0  0
  -30.6120  -14.7840   20.3380 C   0  0  0  0  0  0  0  0  0  0  0  0
  -30.4070  -12.4990   19.3620 C   0  0  0  0  0  2  0  0  0  0  0  0
  -29.4690  -12.5420   18.1350 C   0  0  0  0  0  2  0  0  0  0  0  0
  -27.9930  -12.3880   18.5590 C   0  0  0  0  0  2  0  0  0  0  0  0
  -27.6080  -13.2680   19.7780 C   0  0  0  0  0  3  0  0  0  0  0  0
  -28.6750  -13.2340   20.8890 C   0  0  0  0  0  2  0  0  0  0  0  0
  -29.9770  -13.5620   20.2950 N   0  0  0  0  0  0  0  0  0  0  0  0
  -31.8360  -14.8420   20.1910 O   0  0  0  0  0  0  0  0  0  0  0  0
  -25.2290  -13.8570   20.5080 C   0  0  0  0  0  0  0  0  0  0  0  0
  -24.1650  -13.0770   20.8690 C   0  0  0  0  0  0  0  0  0  0  0  0
  -24.6380  -11.7290   20.8460 C   0  0  0  0  0  0  0  0  0  0  0  0
  -26.2750  -12.9760   20.2790 N   0  0  0  0  0  0  0  0  0  0  0  0
  -25.9290  -11.6950   20.5480 N   0  0  0  0  0  0  0  0  0  0  0  0
  -23.9230  -10.4630   21.0320 C   0  0  0  0  0  0  0  0  0  0  0  0
  -24.3530   -9.5070   21.9780 C   0  0  0  0  0  3  0  0  0  0  0  0
  -23.6390   -8.3020   22.1490 C   0  0  0  0  0  3  0  0  0  0  0  0
  -22.4810   -8.0470   21.3770 C   0  0  0  0  0  0  0  0  0  0  0  0
  -22.0710   -8.9920   20.4210 C   0  0  0  0  0  3  0  0  0  0  0  0
  -22.7860  -10.1880   20.2450 C   0  0  0  0  0  3  0  0  0  0  0  0
  -21.7360   -6.8960   21.4620 O   0  0  0  0  0  0  0  0  0  0  0  0
  -21.6690   -6.1680   22.6230 C   0  0  0  0  0  0  0  0  0  0  0  0
  -21.1930   -6.7280   23.8280 C   0  0  0  0  0  3  0  0  0  0  0  0
  -21.0720   -5.9250   24.9800 C   0  0  0  0  0  3  0  0  0  0  0  0
  -21.4170   -4.5610   24.9270 C   0  0  0  0  0  0  0  0  0  0  0  0
  -21.8860   -4.0000   23.7260 C   0  0  0  0  0  3  0  0  0  0  0  0
  -22.0080   -4.8010   22.5770 C   0  0  0  0  0  0  0  0  0  0  0  0
  -22.4390   -4.2490   21.4170 F   0  0  0  0  0  0  0  0  0  0  0  0
  -21.2930   -3.7870   26.0310 F   0  0  0  0  0  0  0  0  0  0  0  0
  -22.7620  -13.5440   21.1290 C   0  0  0  0  0  0  0  0  0  0  0  0
  -22.0330  -12.8380   21.9850 N   0  0  0  0  0  0  0  0  0  0  0  0
  -22.3230  -14.5690   20.6100 O   0  0  0  0  0  0  0  0  0  0  0  0
  -22.4020  -12.0030   22.4190 H   0  0  0  0  0  0  0  0  0  0  0  0
  -21.0930  -13.1310   22.2100 H   0  0  0  0  0  0  0  0  0  0  0  0
  -25.3930  -15.2270   20.3270 N   0  0  0  0  0  0  0  0  0  0  0  0
  -24.6330  -15.8910   20.4250 H   0  0  0  0  0  0  0  0  0  0  0  0
  -26.2640  -15.6610   20.0460 H   0  0  0  0  0  0  0  0  0  0  0  0
  -29.1580  -22.6900   20.9630 N   0  0  0  0  0  4  0  0  0  0  0  0
  -29.9400  -22.8840   20.3560 H   0  0  0  0  0  0  0  0  0  0  0  0
  -29.5350  -22.6650   21.8990 H   0  0  0  0  0  0  0  0  0  0  0  0
  -28.1940  -23.8860   20.9450 C   0  0  0  0  0  2  0  0  0  0  0  0
  -28.5740  -25.1500   20.0350 C   0  0  0  0  0  2  0  0  0  0  0  0
  -28.4190  -26.5520   20.5010 O   0  0  0  0  0  0  0  0  0  0  0  0
  -24.5680  -31.9150   23.2880 C   0  0  0  0  0  0  0  0  0  0  0  0
  -27.2650  -27.3360   20.3630 C   0  0  0  0  0  0  0  0  0  0  0  0
  -23.4020  -30.4900   21.6380 C   0  0  0  0  0  3  0  0  0  0  0  0
  -24.8880  -28.9260   20.2570 C   0  0  0  0  0  0  0  0  0  0  0  0
  -25.9350  -30.8300   21.4870 C   0  0  0  0  0  2  0  0  0  0  0  0
  -26.0360  -29.4380   20.8730 C   0  0  0  0  0  0  0  0  0  0  0  0
  -27.2200  -28.6520   20.9180 C   0  0  0  0  0  3  0  0  0  0  0  0
  -26.0980  -26.8680   19.7160 C   0  0  0  0  0  3  0  0  0  0  0  0
  -24.9230  -27.6490   19.6680 C   0  0  0  0  0  3  0  0  0  0  0  0
  -23.6430  -29.7930   20.2710 C   0  0  0  0  0  2  0  0  0  0  0  0
  -24.6540  -31.0970   22.1970 N   0  0  0  0  0  0  0  0  0  0  0  0
  -23.4750  -32.1940   23.7970 O   0  0  0  0  0  0  0  0  0  0  0  0
  -22.7260  -29.4840   22.6000 C   0  0  0  0  0  0  0  0  0  0  0  0
  -21.4020  -29.3120   22.4590 N   0  0  0  0  0  0  0  0  0  0  0  0
  -23.3930  -28.8640   23.4330 O   0  0  0  0  0  0  0  0  0  0  0  0
  -20.9260  -29.8670   21.7610 H   0  0  0  0  0  0  0  0  0  0  0  0
  -18.0100  -28.1510   22.9370 C   0  0  0  0  0  0  0  0  0  0  0  0
  -20.5690  -28.3820   23.2230 C   0  0  0  0  0  3  0  0  0  0  0  0
  -20.6590  -26.9500   22.6470 C   0  0  0  0  0  2  0  0  0  0  0  0
  -19.5590  -26.6400   21.6260 C   0  0  0  0  0  2  0  0  0  0  0  0
  -18.1750  -26.8000   22.2620 C   0  0  0  0  0  2  0  0  0  0  0  0
  -19.1340  -28.9000   23.3740 C   0  0  0  0  0  0  0  0  0  0  0  0
  -18.9260  -30.1650   23.9660 C   0  0  0  0  0  3  0  0  0  0  0  0
  -17.6270  -30.6800   24.1260 C   0  0  0  0  0  3  0  0  0  0  0  0
  -16.5160  -29.9260   23.7070 C   0  0  0  0  0  3  0  0  0  0  0  0
  -16.7090  -28.6650   23.1170 C   0  0  0  0  0  3  0  0  0  0  0  0
  -25.8370  -32.5590   23.9290 C   0  0  0  0  0  3  0  0  0  0  0  0
  -26.3190  -31.8140   25.2350 C   0  0  1  0  0  0  0  0  0  0  0  0
  -25.1990  -31.5920   26.2800 C   0  0  0  0  0  1  0  0  0  0  0  0
  -26.9120  -30.4310   24.8790 C   0  0  0  0  0  1  0  0  0  0  0  0
  -27.4580  -32.6190   25.9080 C   0  0  0  0  0  1  0  0  0  0  0  0
  -25.5220  -33.9650   24.2220 N   0  0  0  0  0  0  0  0  0  0  0  0
  -25.8780  -35.0010   23.4500 C   0  0  0  0  0  0  0  0  0  0  0  0
  -26.5760  -34.8740   22.4400 O   0  0  0  0  0  0  0  0  0  0  0  0
  -24.9020  -34.1410   24.9980 H   0  0  0  0  0  0  0  0  0  0  0  0
  -24.1700  -36.7970   23.0130 C   0  0  0  0  0  1  0  0  0  0  0  0
  -25.3830  -36.4000   23.8690 C   0  0  0  0  0  3  0  0  0  0  0  0
  -27.4930  -37.2940   24.7490 C   0  0  0  0  0  1  0  0  0  0  0  0
  -26.4230  -37.4480   23.7670 N   0  0  0  0  0  0  0  0  0  0  0  0
  -26.0150  -38.3720   23.8840 H   0  0  0  0  0  0  0  0  0  0  0  0
  1  4  1  0
  2  1  2  0
  2  5  1  0
  4 11  1  0
  4  3  2  0
  5  6  2  0
  6  3  1  0
  6  8  1  0
  7  9  1  0
  7  5  1  0
  9 10  1  0
 10 47  1  0
 10  8  1  0
 12 17  1  0
 13 14  1  0
 13 12  1  0
 15 14  1  0
 15 22  1  0
 15 16  1  0
 17 11  1  0
 17 16  1  0
 18 11  2  0
 19 20  2  0
 20 39  1  0
 21 20  1  0
 21 24  1  0
 22 19  1  0
 22 23  1  0
 23 21  2  0
 24 25  1  0
 25 26  2  0
 27 30  1  0
 27 26  1  0
 28 27  2  0
 29 28  1  0
 29 24  2  0
 30 31  1  0
 31 32  1  0
 32 33  2  0
 34 33  1  0
 34 38  1  0
 35 34  2  0
 36 31  2  0
 36 35  1  0
 37 36  1  0
 39 40  1  0
 40 43  1  0
 40 42  1  0
 41 39  2  0
 44 45  1  0
 44 19  1  0
 46 44  1  0
 47 49  1  0
 48 47  1  0
 50 47  1  0
 51 52  1  0
 51 50  1  0
 53 64  2  0
 54 52  1  0
 54 59  1  0
 55 63  1  0
 55 65  1  0
 56 62  1  0
 56 58  1  0
 57 63  1  0
 58 59  2  0
 58 57  1  0
 60 54  2  0
 61 60  1  0
 61 56  2  0
 62 55  1  0
 63 53  1  0
 65 67  2  0
 66 65  1  0
 68 66  1  0
 69 78  2  0
 69 74  1  0
 70 66  1  0
 70 74  1  0
 71 70  1  0
 72 73  1  0
 72 71  1  0
 73 69  1  0
 74 75  2  0
 75 76  1  0
 77 76  2  0
 78 77  1  0
 79 53  1  0
 79 84  1  0
 79 80  1  0
 80 83  1  1
 80 81  1  0
 82 80  1  0
 84 87  1  0
 85 89  1  0
 85 84  1  0
 86 85  2  0
 89 88  1  0
 91 89  1  0
 91 92  1  0
 91 90  1  0
M  ISO  4   4 100  11 100  51 101  52 101
M  END
>  <TORSDO>  (2) 
F 19

>  <SCORE>  (2) 
-14.465

>  <name>  (2) 
1

>  <ligand_id>  (2) 
1

>  <original_smiles>  (2) 
[H]c1c([H])c([H])c2c(c1[H])C([H])([H])C([H])([H])C([H])([H])C2([H])N([H])C(=O)C1([H])N(C(=O)C([H])(N([H])C(=O)C([H])(N([H])C([H])([H])[H])C([H])([H])[H])C(C([H])([H])[H])(C([H])([H])[H])C([H])([H])[H])C([H])([H])c2c([H])c(OC([H])([H])C([H])([H])[N+]([H])([H])C3([H])C([H])([H])c4c([H])c(C(=O)N5C([H])([H])C([H])([H])C([H])([H])C([H])(n6nc(-c7c([H])c([H])c(Oc8c([H])c([H])c(F)c([H])c8F)c([H])c7[H])c(C(=O)N([H])[H])c6N([H])[H])C5([H])[H])c([H])c([H])c4C([H])([H])C3([H])[H])c([H])c([H])c2C1([H])[H]

>  <smiles>  (2) 
[H]c1c([H])c([H])c2c(c1[H])C([H])([H])C([H])([H])C([H])([H])C2([H])N([H])C(=O)C1([H])N(C(=O)C([H])(N([H])C(=O)C([H])(N([H])C([H])([H])[H])C([H])([H])[H])C(C([H])([H])[H])(C([H])([H])[H])C([H])([H])[H])C([H])([H])c2c([H])c(OC([H])([H])C([H])([H])[N+]([H])([H])C3([H])C([H])([H])c4c([H])c(C(=O)N5C([H])([H])C([H])([H])C([H])([H])C([H])(n6nc(-c7c([H])c([H])c(Oc8c([H])c([H])c(F)c([H])c8F)c([H])c7[H])c(C(=O)N([H])[H])c6N([H])[H])C5([H])[H])c([H])c([H])c4C([H])([H])C3([H])[H])c([H])c([H])c2C1([H])[H]

$$$$
2:0:0
     RDKit          3D

 93101  0  0  1  0  0  0  0  0999 V2000
  -28.8480  -20.5180   20.4340 N   0  0  0  0  0  4  0  0  0  0  0  0
  -28.0570  -20.2550   19.8700 H   0  0  0  0  0  0  0  0  0  0  0  0
  -28.5130  -20.5380   21.3830 H   0  0  0  0  0  0  0  0  0  0  0  0
  -29.2040  -22.0100   20.0350 C   0  0  0  0  0  2  0  0  0  0  0  0
  -28.3680  -23.3740   20.5490 C   0  0  0  0  0  2  0  0  0  0  0  0
  -28.4210  -24.8590   19.7710 C   0  0  0  0  0  2  0  0  0  0  0  0
  -28.2970  -26.2870   20.3450 O   0  0  0  0  0  0  0  0  0  0  0  0
  -24.5930  -31.8990   23.2210 C   0  0  0  0  0  0  0  0  0  0  0  0
  -27.2030  -27.2040   20.2220 C   0  0  0  0  0  0  0  0  0  0  0  0
  -23.4010  -30.4910   21.5820 C   0  0  0  0  0  3  0  0  0  0  0  0
  -24.8580  -28.9130   20.1690 C   0  0  0  0  0  0  0  0  0  0  0  0
  -25.9500  -30.7710   21.4240 C   0  0  0  0  0  2  0  0  0  0  0  0
  -26.0280  -29.3770   20.7810 C   0  0  0  0  0  0  0  0  0  0  0  0
  -27.1970  -28.5350   20.7940 C   0  0  0  0  0  3  0  0  0  0  0  0
  -26.0070  -26.8250   19.5750 C   0  0  0  0  0  3  0  0  0  0  0  0
  -24.8580  -27.6490   19.5530 C   0  0  0  0  0  3  0  0  0  0  0  0
  -23.6270  -29.8040   20.2080 C   0  0  0  0  0  2  0  0  0  0  0  0
  -24.6670  -31.0750   22.1320 N   0  0  0  0  0  0  0  0  0  0  0  0
  -23.5040  -32.1840   23.7440 O   0  0  0  0  0  0  0  0  0  0  0  0
  -22.7210  -29.4890   22.5480 C   0  0  0  0  0  0  0  0  0  0  0  0
  -21.3930  -29.3230   22.4210 N   0  0  0  0  0  0  0  0  0  0  0  0
  -23.3910  -28.8630   23.3740 O   0  0  0  0  0  0  0  0  0  0  0  0
  -20.9090  -29.8790   21.7300 H   0  0  0  0  0  0  0  0  0  0  0  0
  -18.0060  -28.1480   22.9320 C   0  0  0  0  0  0  0  0  0  0  0  0
  -20.5670  -28.3920   23.1940 C   0  0  0  0  0  3  0  0  0  0  0  0
  -20.6570  -26.9590   22.6190 C   0  0  0  0  0  2  0  0  0  0  0  0
  -19.5510  -26.6450   21.6060 C   0  0  0  0  0  2  0  0  0  0  0  0
  -18.1720  -26.7990   22.2530 C   0  0  0  0  0  2  0  0  0  0  0  0
  -19.1310  -28.9030   23.3590 C   0  0  0  0  0  0  0  0  0  0  0  0
  -18.9210  -30.1650   23.9560 C   0  0  0  0  0  3  0  0  0  0  0  0
  -17.6200  -30.6750   24.1270 C   0  0  0  0  0  3  0  0  0  0  0  0
  -16.5100  -29.9170   23.7150 C   0  0  0  0  0  3  0  0  0  0  0  0
  -16.7030  -28.6560   23.1250 C   0  0  0  0  0  3  0  0  0  0  0  0
  -25.8690  -32.5370   23.8510 C   0  0  0  0  0  3  0  0  0  0  0  0
  -25.5520  -33.9350   24.1840 N   0  0  0  0  0  0  0  0  0  0  0  0
  -25.8840  -34.9940   23.4320 C   0  0  0  0  0  0  0  0  0  0  0  0
  -26.5550  -34.8960   22.4020 O   0  0  0  0  0  0  0  0  0  0  0  0
  -24.9530  -34.0840   24.9830 H   0  0  0  0  0  0  0  0  0  0  0  0
  -24.1550  -36.7900   23.0850 C   0  0  0  0  0  1  0  0  0  0  0  0
  -25.3950  -36.3810   23.8970 C   0  0  0  0  0  3  0  0  0  0  0  0
  -27.5260  -37.2660   24.7380 C   0  0  0  0  0  1  0  0  0  0  0  0
  -26.4270  -37.4340   23.7900 N   0  0  0  0  0  0  0  0  0  0  0  0
  -26.0200  -38.3550   23.9390 H   0  0  0  0  0  0  0  0  0  0  0  0
  -26.3800  -31.7690   25.1320 C   0  0  1  0  0  0  0  0  0  0  0  0
  -25.2810  -31.5310   26.1960 C   0  0  0  0  0  1  0  0  0  0  0  0
  -26.9670  -30.3910   24.7490 C   0  0  0  0  0  1  0  0  0  0  0  0
  -27.5270  -32.5650   25.7990 C   0  0  0  0  0  1  0  0  0  0  0  0
  -29.8690  -19.3060   20.3830 C   0  0  0  0  0  3  0  0  0  0  0  0
  -33.1660  -20.4170   17.7590 C   0  0  0  0  0  3  0  0  0  0  0  0
  -33.3690  -20.3440   19.1500 C   0  0  0  0  0  3  0  0  0  0  0  0
  -31.8990  -20.1300   17.2180 C   0  0  0  0  0  3  0  0  0  0  0  0
  -32.3050  -19.9860   20.0020 C   0  0  0  0  0  3  0  0  0  0  0  0
  -30.8350  -19.7710   18.0680 C   0  0  0  0  0  3  0  0  0  0  0  0
  -31.0300  -19.6960   19.4660 C   0  0  0  0  0  0  0  0  0  0  0  0
  -27.9450  -17.6320   19.7040 C   0  0  0  0  0  1  0  0  0  0  0  0
  -29.4440  -17.7060   20.0400 C   0  0  0  0  0  3  0  0  0  0  0  0
  -29.8870  -16.3440   20.9190 C   0  0  0  0  0  2  0  0  0  0  0  0
  -30.5270  -14.9330   20.3430 C   0  0  0  0  0  0  0  0  0  0  0  0
  -30.3650  -12.6050   19.3540 C   0  0  0  0  0  2  0  0  0  0  0  0
  -29.4310  -12.6280   18.1230 C   0  0  0  0  0  2  0  0  0  0  0  0
  -27.9660  -12.4250   18.5530 C   0  0  0  0  0  2  0  0  0  0  0  0
  -27.5790  -13.3190   19.7600 C   0  0  0  0  0  3  0  0  0  0  0  0
  -28.6380  -13.2820   20.8830 C   0  0  0  0  0  2  0  0  0  0  0  0
  -29.9210  -13.6780   20.2910 N   0  0  0  0  0  0  0  0  0  0  0  0
  -31.6820  -14.9950   19.9100 O   0  0  0  0  0  0  0  0  0  0  0  0
  -25.1950  -13.8910   20.4970 C   0  0  0  0  0  0  0  0  0  0  0  0
  -24.1320  -13.1130   20.8640 C   0  0  0  0  0  0  0  0  0  0  0  0
  -24.6000  -11.7630   20.8310 C   0  0  0  0  0  0  0  0  0  0  0  0
  -26.2400  -13.0170   20.2560 N   0  0  0  0  0  0  0  0  0  0  0  0
  -25.8910  -11.7320   20.5220 N   0  0  0  0  0  0  0  0  0  0  0  0
  -23.8770  -10.4990   21.0200 C   0  0  0  0  0  0  0  0  0  0  0  0
  -24.3070   -9.5350   21.9570 C   0  0  0  0  0  3  0  0  0  0  0  0
  -23.5820   -8.3360   22.1360 C   0  0  0  0  0  3  0  0  0  0  0  0
  -22.4120   -8.0950   21.3760 C   0  0  0  0  0  0  0  0  0  0  0  0
  -22.0000   -9.0490   20.4280 C   0  0  0  0  0  3  0  0  0  0  0  0
  -22.7260  -10.2370   20.2490 C   0  0  0  0  0  3  0  0  0  0  0  0
  -21.6600   -6.9480   21.4620 O   0  0  0  0  0  0  0  0  0  0  0  0
  -21.6010   -6.2100   22.6170 C   0  0  0  0  0  0  0  0  0  0  0  0
  -21.1580   -6.7680   23.8360 C   0  0  0  0  0  3  0  0  0  0  0  0
  -21.0480   -5.9570   24.9830 C   0  0  0  0  0  3  0  0  0  0  0  0
  -21.3710   -4.5890   24.9110 C   0  0  0  0  0  0  0  0  0  0  0  0
  -21.8080   -4.0310   23.6970 C   0  0  0  0  0  3  0  0  0  0  0  0
  -21.9200   -4.8390   22.5520 C   0  0  0  0  0  0  0  0  0  0  0  0
  -22.3210   -4.2920   21.3790 F   0  0  0  0  0  0  0  0  0  0  0  0
  -21.2580   -3.8060   26.0100 F   0  0  0  0  0  0  0  0  0  0  0  0
  -22.7350  -13.5870   21.1350 C   0  0  0  0  0  0  0  0  0  0  0  0
  -22.0060  -12.8840   21.9950 N   0  0  0  0  0  0  0  0  0  0  0  0
  -22.2970  -14.6150   20.6210 O   0  0  0  0  0  0  0  0  0  0  0  0
  -22.3740  -12.0520   22.4340 H   0  0  0  0  0  0  0  0  0  0  0  0
  -21.0680  -13.1840   22.2210 H   0  0  0  0  0  0  0  0  0  0  0  0
  -25.3540  -15.2630   20.3260 N   0  0  0  0  0  0  0  0  0  0  0  0
  -24.5840  -15.9130   20.4440 H   0  0  0  0  0  0  0  0  0  0  0  0
  -26.2080  -15.7080   20.0160 H   0  0  0  0  0  0  0  0  0  0  0  0
  1  3  1  0
  2  1  1  0
  4  1  1  0
  4  5  1  0
  6  7  1  0
  6  5  1  0
  8 19  2  0
  9  7  1  0
  9 14  1  0
 10 18  1  0
 10 20  1  0
 11 17  1  0
 11 13  1  0
 12 18  1  0
 13 14  2  0
 13 12  1  0
 15  9  2  0
 16 15  1  0
 16 11  2  0
 17 10  1  0
 18  8  1  0
 20 22  2  0
 21 20  1  0
 23 21  1  0
 24 33  2  0
 24 29  1  0
 25 21  1  0
 25 29  1  0
 26 25  1  0
 27 28  1  0
 27 26  1  0
 28 24  1  0
 29 30  2  0
 30 31  1  0
 32 31  2  0
 33 32  1  0
 34  8  1  0
 34 35  1  0
 34 44  1  0
 35 38  1  0
 36 40  1  0
 36 35  1  0
 37 36  2  0
 40 39  1  0
 42 40  1  0
 42 43  1  0
 42 41  1  0
 44 47  1  1
 44 45  1  0
 46 44  1  0
 48  1  1  0
 49 50  1  0
 50 52  2  0
 51 49  2  0
 51 53  1  0
 53 54  2  0
 54 52  1  0
 54 48  1  0
 56 55  1  0
 56 48  1  0
 56 57  1  0
 58 57  1  0
 59 64  1  0
 60 61  1  0
 60 59  1  0
 62 61  1  0
 62 69  1  0
 62 63  1  0
 64 58  1  0
 64 63  1  0
 65 58  2  0
 66 67  2  0
 67 86  1  0
 68 67  1  0
 68 71  1  0
 69 66  1  0
 69 70  1  0
 70 68  2  0
 71 72  1  0
 72 73  2  0
 74 77  1  0
 74 73  1  0
 75 74  2  0
 76 75  1  0
 76 71  2  0
 77 78  1  0
 78 79  1  0
 79 80  2  0
 81 80  1  0
 81 85  1  0
 82 81  2  0
 83 78  2  0
 83 82  1  0
 84 83  1  0
 86 87  1  0
 87 90  1  0
 87 89  1  0
 88 86  2  0
 91 92  1  0
 91 66  1  0
 93 91  1  0
M  ISO  4   6 101   7 101  57 100  58 100
M  END
>  <TORSDO>  (3) 
F 23

>  <SCORE>  (3) 
-12.991

>  <name>  (3) 
2

>  <ligand_id>  (3) 
2

>  <original_smiles>  (3) 
[H]c1c([H])c([H])c(C([H])(C([H])(C([H])([H])[H])C([H])([H])C(=O)N2C([H])([H])C([H])([H])C([H])([H])C([H])(n3nc(-c4c([H])c([H])c(Oc5c([H])c([H])c(F)c([H])c5F)c([H])c4[H])c(C(=O)N([H])[H])c3N([H])[H])C2([H])[H])[N+]([H])([H])C([H])([H])C([H])([H])C([H])([H])Oc2c([H])c([H])c3c(c2[H])C([H])([H])N(C(=O)C([H])(N([H])C(=O)C([H])(N([H])C([H])([H])[H])C([H])([H])[H])C(C([H])([H])[H])(C([H])([H])[H])C([H])([H])[H])C([H])(C(=O)N([H])C2([H])c4c([H])c([H])c([H])c([H])c4C([H])([H])C([H])([H])C2([H])[H])C3([H])[H])c([H])c1[H]

>  <smiles>  (3) 
[H]c1c([H])c([H])c(C([H])(C([H])(C([H])([H])[H])C([H])([H])C(=O)N2C([H])([H])C([H])([H])C([H])([H])C([H])(n3nc(-c4c([H])c([H])c(Oc5c([H])c([H])c(F)c([H])c5F)c([H])c4[H])c(C(=O)N([H])[H])c3N([H])[H])C2([H])[H])[N+]([H])([H])C([H])([H])C([H])([H])C([H])([H])Oc2c([H])c([H])c3c(c2[H])C([H])([H])N(C(=O)C([H])(N([H])C(=O)C([H])(N([H])C([H])([H])[H])C([H])([H])[H])C(C([H])([H])[H])(C([H])([H])[H])C([H])([H])[H])C([H])(C(=O)N([H])C2([H])c4c([H])c([H])c([H])c([H])c4C([H])([H])C([H])([H])C2([H])[H])C3([H])[H])c([H])c1[H]

$$$$
3:0:0
     RDKit          3D

 93100  0  0  1  0  0  0  0  0999 V2000
  -29.5930  -19.9120   20.0240 N   0  0  0  0  0  4  0  0  0  0  0  0
  -28.6480  -19.7230   19.7360 H   0  0  0  0  0  0  0  0  0  0  0  0
  -30.1720  -19.9310   19.1980 H   0  0  0  0  0  0  0  0  0  0  0  0
  -29.6380  -21.3000   20.6470 C   0  0  0  0  0  3  0  0  0  0  0  0
  -28.9060  -22.4760   19.8570 C   0  0  0  0  0  3  0  0  0  0  0  0
  -29.1210  -23.9820   20.3490 C   0  0  0  0  0  3  0  0  0  0  0  0
  -28.1060  -25.0800   19.8190 C   0  0  0  0  0  3  0  0  0  0  0  0
  -28.2780  -26.5030   20.2000 O   0  0  0  0  0  0  0  0  0  0  0  0
  -24.5890  -31.9110   23.2580 C   0  0  0  0  0  0  0  0  0  0  0  0
  -27.1560  -27.3510   20.1580 C   0  0  0  0  0  0  0  0  0  0  0  0
  -23.3660  -30.5220   21.6250 C   0  0  0  0  0  3  0  0  0  0  0  0
  -24.7960  -28.9700   20.1860 C   0  0  0  0  0  0  0  0  0  0  0  0
  -25.9070  -30.8230   21.4290 C   0  0  0  0  0  2  0  0  0  0  0  0
  -25.9720  -29.4480   20.7780 C   0  0  0  0  0  0  0  0  0  0  0  0
  -27.1530  -28.6470   20.7600 C   0  0  0  0  0  3  0  0  0  0  0  0
  -25.9570  -26.9350   19.5310 C   0  0  0  0  0  3  0  0  0  0  0  0
  -24.7890  -27.7160   19.5600 C   0  0  0  0  0  3  0  0  0  0  0  0
  -23.5660  -29.8510   20.2420 C   0  0  0  0  0  2  0  0  0  0  0  0
  -24.6410  -31.1040   22.1600 N   0  0  0  0  0  0  0  0  0  0  0  0
  -23.5090  -32.1950   23.7980 O   0  0  0  0  0  0  0  0  0  0  0  0
  -22.7080  -29.5050   22.5880 C   0  0  0  0  0  0  0  0  0  0  0  0
  -21.3820  -29.3260   22.4630 N   0  0  0  0  0  0  0  0  0  0  0  0
  -23.3890  -28.8820   23.4060 O   0  0  0  0  0  0  0  0  0  0  0  0
  -20.8930  -29.8870   21.7790 H   0  0  0  0  0  0  0  0  0  0  0  0
  -18.0070  -28.1230   22.9580 C   0  0  0  0  0  0  0  0  0  0  0  0
  -20.5630  -28.3920   23.2360 C   0  0  0  0  0  3  0  0  0  0  0  0
  -20.6710  -26.9560   22.6760 C   0  0  0  0  0  2  0  0  0  0  0  0
  -19.5750  -26.6200   21.6590 C   0  0  0  0  0  2  0  0  0  0  0  0
  -18.1900  -26.7670   22.2960 C   0  0  0  0  0  2  0  0  0  0  0  0
  -19.1220  -28.8920   23.3860 C   0  0  0  0  0  0  0  0  0  0  0  0
  -18.8980  -30.1590   23.9670 C   0  0  0  0  0  3  0  0  0  0  0  0
  -17.5910  -30.6590   24.1230 C   0  0  0  0  0  3  0  0  0  0  0  0
  -16.4910  -29.8880   23.7100 C   0  0  0  0  0  3  0  0  0  0  0  0
  -16.6980  -28.6210   23.1360 C   0  0  0  0  0  3  0  0  0  0  0  0
  -25.8800  -32.5360   23.8700 C   0  0  0  0  0  3  0  0  0  0  0  0
  -25.5800  -33.9370   24.1990 N   0  0  0  0  0  0  0  0  0  0  0  0
  -25.9120  -34.9870   23.4360 C   0  0  0  0  0  0  0  0  0  0  0  0
  -26.5720  -34.8790   22.3990 O   0  0  0  0  0  0  0  0  0  0  0  0
  -24.9890  -34.0950   25.0020 H   0  0  0  0  0  0  0  0  0  0  0  0
  -24.1880  -36.7880   23.0950 C   0  0  0  0  0  1  0  0  0  0  0  0
  -25.4340  -36.3800   23.8950 C   0  0  0  0  0  3  0  0  0  0  0  0
  -27.5830  -37.2540   24.7000 C   0  0  0  0  0  1  0  0  0  0  0  0
  -26.4710  -37.4280   23.7700 N   0  0  0  0  0  0  0  0  0  0  0  0
  -26.0720  -38.3510   23.9190 H   0  0  0  0  0  0  0  0  0  0  0  0
  -26.3980  -31.7650   25.1450 C   0  0  1  0  0  0  0  0  0  0  0  0
  -25.3110  -31.5390   26.2210 C   0  0  0  0  0  1  0  0  0  0  0  0
  -26.9690  -30.3810   24.7550 C   0  0  0  0  0  1  0  0  0  0  0  0
  -27.5580  -32.5540   25.7990 C   0  0  0  0  0  1  0  0  0  0  0  0
  -30.0670  -18.7160   20.8360 C   0  0  0  0  0  3  0  0  0  0  0  0
  -31.5760  -18.8730   21.1180 C   0  0  0  0  0  0  0  0  0  0  0  0
  -32.0340  -18.6000   22.3350 N   0  0  0  0  0  0  0  0  0  0  0  0
  -32.3360  -19.2410   20.2220 O   0  0  0  0  0  0  0  0  0  0  0  0
  -31.4120  -18.2990   23.0720 H   0  0  0  0  0  0  0  0  0  0  0  0
  -33.0190  -18.6910   22.5360 H   0  0  0  0  0  0  0  0  0  0  0  0
  -28.4040  -17.2330   19.5210 C   0  0  0  0  0  1  0  0  0  0  0  0
  -29.8120  -17.2790   20.1550 C   0  0  0  0  0  3  0  0  0  0  0  0
  -30.0190  -15.9630   21.0540 C   0  0  0  0  0  2  0  0  0  0  0  0
  -30.6360  -14.6610   20.3900 C   0  0  0  0  0  0  0  0  0  0  0  0
  -30.3710  -12.4400   19.2970 C   0  0  0  0  0  2  0  0  0  0  0  0
  -29.4290  -12.5870   18.0820 C   0  0  0  0  0  2  0  0  0  0  0  0
  -27.9560  -12.4360   18.5150 C   0  0  0  0  0  2  0  0  0  0  0  0
  -27.6090  -13.2850   19.7690 C   0  0  0  0  0  3  0  0  0  0  0  0
  -28.6740  -13.1200   20.8770 C   0  0  0  0  0  2  0  0  0  0  0  0
  -29.9810  -13.4580   20.2960 N   0  0  0  0  0  0  0  0  0  0  0  0
  -31.7590  -14.7860   19.8950 O   0  0  0  0  0  0  0  0  0  0  0  0
  -25.2180  -13.8990   20.4830 C   0  0  0  0  0  0  0  0  0  0  0  0
  -24.1460  -13.1330   20.8540 C   0  0  0  0  0  0  0  0  0  0  0  0
  -24.6030  -11.7800   20.8300 C   0  0  0  0  0  0  0  0  0  0  0  0
  -26.2590  -13.0130   20.2540 N   0  0  0  0  0  0  0  0  0  0  0  0
  -25.8950  -11.7330   20.5240 N   0  0  0  0  0  0  0  0  0  0  0  0
  -23.8730  -10.5220   21.0280 C   0  0  0  0  0  0  0  0  0  0  0  0
  -24.3110   -9.5530   21.9570 C   0  0  0  0  0  3  0  0  0  0  0  0
  -23.5810   -8.3590   22.1460 C   0  0  0  0  0  3  0  0  0  0  0  0
  -22.3980   -8.1280   21.4030 C   0  0  0  0  0  0  0  0  0  0  0  0
  -21.9800   -9.0860   20.4620 C   0  0  0  0  0  3  0  0  0  0  0  0
  -22.7100  -10.2710   20.2740 C   0  0  0  0  0  3  0  0  0  0  0  0
  -21.6410   -6.9860   21.4960 O   0  0  0  0  0  0  0  0  0  0  0  0
  -21.6070   -6.2370   22.6450 C   0  0  0  0  0  0  0  0  0  0  0  0
  -21.2120   -6.7900   23.8820 C   0  0  0  0  0  3  0  0  0  0  0  0
  -21.1240   -5.9690   25.0240 C   0  0  0  0  0  3  0  0  0  0  0  0
  -21.4200   -4.5960   24.9300 C   0  0  0  0  0  0  0  0  0  0  0  0
  -21.8080   -4.0430   23.6980 C   0  0  0  0  0  3  0  0  0  0  0  0
  -21.8980   -4.8610   22.5580 C   0  0  0  0  0  0  0  0  0  0  0  0
  -22.2530   -4.3170   21.3680 F   0  0  0  0  0  0  0  0  0  0  0  0
  -21.3290   -3.8060   26.0260 F   0  0  0  0  0  0  0  0  0  0  0  0
  -22.7510  -13.6200   21.1220 C   0  0  0  0  0  0  0  0  0  0  0  0
  -22.0210  -12.9320   21.9940 N   0  0  0  0  0  0  0  0  0  0  0  0
  -22.3170  -14.6430   20.5970 O   0  0  0  0  0  0  0  0  0  0  0  0
  -22.3880  -12.1070   22.4460 H   0  0  0  0  0  0  0  0  0  0  0  0
  -21.0840  -13.2370   22.2140 H   0  0  0  0  0  0  0  0  0  0  0  0
  -25.3890  -15.2680   20.3000 N   0  0  0  0  0  0  0  0  0  0  0  0
  -24.6290  -15.9290   20.4110 H   0  0  0  0  0  0  0  0  0  0  0  0
  -26.2440  -15.7010   19.9780 H   0  0  0  0  0  0  0  0  0  0  0  0
  1  4  1  0
  1 49  1  0
  2  1  1  0
  3  1  1  0
  5  6  1  0
  5  4  2  0
  7  8  1  0
  7  6  2  0
  9 20  2  0
 10  8  1  0
 10 15  1  0
 11 19  1  0
 11 21  1  0
 12 18  1  0
 12 14  1  0
 13 19  1  0
 14 13  1  0
 15 14  2  0
 16 17  1  0
 16 10  2  0
 17 12  2  0
 18 11  1  0
 19  9  1  0
 21 23  2  0
 22 21  1  0
 24 22  1  0
 25 34  2  0
 25 30  1  0
 26 22  1  0
 26 30  1  0
 27 26  1  0
 28 29  1  0
 28 27  1  0
 29 25  1  0
 30 31  2  0
 31 32  1  0
 33 32  2  0
 34 33  1  0
 35  9  1  0
 35 36  1  0
 35 45  1  0
 36 39  1  0
 37 41  1  0
 37 36  1  0
 38 37  2  0
 41 40  1  0
 43 41  1  0
 43 44  1  0
 43 42  1  0
 45 48  1  1
 45 46  1  0
 47 45  1  0
 49 50  1  0
 50 51  1  0
 51 54  1  0
 51 53  1  0
 52 50  2  0
 56 55  1  0
 56 49  1  0
 56 57  1  0
 58 57  1  0
 59 64  1  0
 60 61  1  0
 60 59  1  0
 62 61  1  0
 62 69  1  0
 62 63  1  0
 64 58  1  0
 64 63  1  0
 65 58  2  0
 66 67  2  0
 67 86  1  0
 68 67  1  0
 68 71  1  0
 69 66  1  0
 69 70  1  0
 70 68  2  0
 71 72  1  0
 72 73  2  0
 74 77  1  0
 74 73  1  0
 75 74  2  0
 76 75  1  0
 76 71  2  0
 77 78  1  0
 78 79  1  0
 79 80  2  0
 81 80  1  0
 81 85  1  0
 82 81  2  0
 83 78  2  0
 83 82  1  0
 84 83  1  0
 86 87  1  0
 87 90  1  0
 87 89  1  0
 88 86  2  0
 91 92  1  0
 91 66  1  0
 93 91  1  0
M  ISO  4   7 101   8 101  57 100  58 100
M  END
>  <TORSDO>  (4) 
F 24

>  <SCORE>  (4) 
-12.368

>  <name>  (4) 
3

>  <ligand_id>  (4) 
3

>  <original_smiles>  (4) 
[H]c1c([H])c([H])c2c(c1[H])C([H])([H])C([H])([H])C([H])([H])C2([H])N([H])C(=O)C1([H])N(C(=O)C([H])(N([H])C(=O)C([H])(N([H])C([H])([H])[H])C([H])([H])[H])C(C([H])([H])[H])(C([H])([H])[H])C([H])([H])[H])C([H])([H])c2c([H])c(OC([H])([H])C([H])([H])C([H])([H])C([H])([H])[N+]([H])([H])C([H])(C(=O)N([H])[H])C([H])(C([H])([H])[H])C([H])([H])C(=O)N3C([H])([H])C([H])([H])C([H])([H])C([H])(n4nc(-c5c([H])c([H])c(Oc6c([H])c([H])c(F)c([H])c6F)c([H])c5[H])c(C(=O)N([H])[H])c4N([H])[H])C3([H])[H])c([H])c([H])c2C1([H])[H]

>  <smiles>  (4) 
[H]c1c([H])c([H])c2c(c1[H])C([H])([H])C([H])([H])C([H])([H])C2([H])N([H])C(=O)C1([H])N(C(=O)C([H])(N([H])C(=O)C([H])(N([H])C([H])([H])[H])C([H])([H])[H])C(C([H])([H])[H])(C([H])([H])[H])C([H])([H])[H])C([H])([H])c2c([H])c(OC([H])([H])C([H])([H])C([H])([H])C([H])([H])[N+]([H])([H])C([H])(C(=O)N([H])[H])C([H])(C([H])([H])[H])C([H])([H])C(=O)N3C([H])([H])C([H])([H])C([H])([H])C([H])(n4nc(-c5c([H])c([H])c(Oc6c([H])c([H])c(F)c([H])c6F)c([H])c5[H])c(C(=O)N([H])[H])c4N([H])[H])C3([H])[H])c([H])c([H])c2C1([H])[H]

$$$$
4:0:0
     RDKit          3D

 86 94  0  0  1  0  0  0  0  0999 V2000
  -28.5900  -21.4750   21.3230 C   0  0  0  0  0  3  0  0  0  0  0  0
  -29.0570  -21.6180   19.1640 C   0  0  0  0  0  3  0  0  0  0  0  0
  -28.2500  -22.9760   21.3400 C   0  0  0  0  0  3  0  0  0  0  0  0
  -28.7180  -23.1120   19.1850 C   0  0  0  0  0  3  0  0  0  0  0  0
  -29.0510  -20.5670   20.2250 C   0  0  0  0  0  0  0  0  0  0  0  0
  -28.2540  -24.0250   20.2710 C   0  0  0  0  0  0  0  0  0  0  0  0
  -28.1860  -25.6470   20.3160 O   0  0  0  0  0  0  0  0  0  0  0  0
  -24.6620  -31.9280   23.2350 C   0  0  0  0  0  0  0  0  0  0  0  0
  -27.1690  -26.8190   20.2920 C   0  0  0  0  0  0  0  0  0  0  0  0
  -23.4650  -30.5190   21.6140 C   0  0  0  0  0  3  0  0  0  0  0  0
  -24.9030  -28.8490   20.2170 C   0  0  0  0  0  0  0  0  0  0  0  0
  -26.0410  -30.6540   21.4840 C   0  0  0  0  0  2  0  0  0  0  0  0
  -26.0980  -29.2130   20.8480 C   0  0  0  0  0  0  0  0  0  0  0  0
  -27.2130  -28.2240   20.8550 C   0  0  0  0  0  3  0  0  0  0  0  0
  -25.9420  -26.6630   19.5990 C   0  0  0  0  0  3  0  0  0  0  0  0
  -24.8620  -27.6010   19.5720 C   0  0  0  0  0  3  0  0  0  0  0  0
  -23.6990  -29.8040   20.2510 C   0  0  0  0  0  2  0  0  0  0  0  0
  -24.7480  -31.0670   22.1630 N   0  0  0  0  0  0  0  0  0  0  0  0
  -23.5730  -32.2380   23.7460 O   0  0  0  0  0  0  0  0  0  0  0  0
  -22.7490  -29.5540   22.5970 C   0  0  0  0  0  0  0  0  0  0  0  0
  -21.4170  -29.3950   22.4680 N   0  0  0  0  0  0  0  0  0  0  0  0
  -23.4020  -28.9450   23.4470 O   0  0  0  0  0  0  0  0  0  0  0  0
  -20.9400  -29.9360   21.7590 H   0  0  0  0  0  0  0  0  0  0  0  0
  -18.0330  -28.1730   22.9750 C   0  0  0  0  0  0  0  0  0  0  0  0
  -20.5890  -28.4690   23.2500 C   0  0  0  0  0  3  0  0  0  0  0  0
  -20.7050  -27.0260   22.7040 C   0  0  0  0  0  2  0  0  0  0  0  0
  -19.6150  -26.6760   21.6860 C   0  0  0  0  0  2  0  0  0  0  0  0
  -18.2280  -26.8170   22.3180 C   0  0  0  0  0  2  0  0  0  0  0  0
  -19.1420  -28.9550   23.3970 C   0  0  0  0  0  0  0  0  0  0  0  0
  -18.9030  -30.2210   23.9760 C   0  0  0  0  0  3  0  0  0  0  0  0
  -17.5900  -30.7070   24.1320 C   0  0  0  0  0  3  0  0  0  0  0  0
  -16.4970  -29.9240   23.7210 C   0  0  0  0  0  3  0  0  0  0  0  0
  -16.7200  -28.6580   23.1500 C   0  0  0  0  0  3  0  0  0  0  0  0
  -25.9300  -32.5800   23.8670 C   0  0  0  0  0  3  0  0  0  0  0  0
  -25.6140  -33.9850   24.1920 N   0  0  0  0  0  0  0  0  0  0  0  0
  -25.9280  -35.0440   23.4330 C   0  0  0  0  0  0  0  0  0  0  0  0
  -26.5710  -34.9400   22.3850 O   0  0  0  0  0  0  0  0  0  0  0  0
  -25.0360  -34.1380   25.0060 H   0  0  0  0  0  0  0  0  0  0  0  0
  -24.1800  -36.8370   23.1440 C   0  0  0  0  0  1  0  0  0  0  0  0
  -25.4570  -36.4370   23.9020 C   0  0  0  0  0  3  0  0  0  0  0  0
  -27.6160  -37.3430   24.6430 C   0  0  0  0  0  1  0  0  0  0  0  0
  -26.4800  -37.4950   23.7380 N   0  0  0  0  0  0  0  0  0  0  0  0
  -26.0760  -38.4150   23.8880 H   0  0  0  0  0  0  0  0  0  0  0  0
  -26.4270  -31.8300   25.1660 C   0  0  1  0  0  0  0  0  0  0  0  0
  -25.3220  -31.6200   26.2280 C   0  0  0  0  0  1  0  0  0  0  0  0
  -27.0070  -30.4420   24.8160 C   0  0  0  0  0  1  0  0  0  0  0  0
  -27.5770  -32.6300   25.8250 C   0  0  0  0  0  1  0  0  0  0  0  0
  -29.8100  -18.8500   20.1940 C   0  0  0  0  0  2  0  0  0  0  0  0
  -30.2800  -15.7320   20.1460 C   0  0  0  0  0  0  0  0  0  0  0  0
  -30.3600  -13.2040   19.2870 C   0  0  0  0  0  2  0  0  0  0  0  0
  -29.4450  -12.8240   18.0890 C   0  0  0  0  0  2  0  0  0  0  0  0
  -28.0330  -12.4610   18.5730 C   0  0  0  0  0  2  0  0  0  0  0  0
  -27.5440  -13.4400   19.6650 C   0  0  0  0  0  3  0  0  0  0  0  0
  -28.6000  -13.7350   20.7550 C   0  0  0  0  0  2  0  0  0  0  0  0
  -29.7540  -14.3690   20.0780 N   0  0  0  0  0  0  0  0  0  0  0  0
  -31.5060  -15.6750   19.9330 O   0  0  0  0  0  0  0  0  0  0  0  0
  -29.5360  -17.0970   20.2570 N   0  0  0  0  0  0  0  0  0  0  0  0
  -28.5510  -16.9140   20.3940 H   0  0  0  0  0  0  0  0  0  0  0  0
  -25.1960  -13.9340   20.4960 C   0  0  0  0  0  0  0  0  0  0  0  0
  -24.1560  -13.1360   20.8780 C   0  0  0  0  0  0  0  0  0  0  0  0
  -24.6420  -11.7930   20.8150 C   0  0  0  0  0  0  0  0  0  0  0  0
  -26.2440  -13.0790   20.2120 N   0  0  0  0  0  0  0  0  0  0  0  0
  -25.9270  -11.7830   20.4710 N   0  0  0  0  0  0  0  0  0  0  0  0
  -23.9330  -10.5190   21.0010 C   0  0  0  0  0  0  0  0  0  0  0  0
  -24.3800   -9.5520   21.9290 C   0  0  0  0  0  3  0  0  0  0  0  0
  -23.6660   -8.3470   22.1050 C   0  0  0  0  0  3  0  0  0  0  0  0
  -22.4910   -8.1000   21.3570 C   0  0  0  0  0  0  0  0  0  0  0  0
  -22.0630   -9.0560   20.4180 C   0  0  0  0  0  3  0  0  0  0  0  0
  -22.7780  -10.2520   20.2390 C   0  0  0  0  0  3  0  0  0  0  0  0
  -21.7480   -6.9480   21.4430 O   0  0  0  0  0  0  0  0  0  0  0  0
  -21.6920   -6.2130   22.6010 C   0  0  0  0  0  0  0  0  0  0  0  0
  -21.2140   -6.7660   23.8100 C   0  0  0  0  0  3  0  0  0  0  0  0
  -21.1080   -5.9560   24.9590 C   0  0  0  0  0  3  0  0  0  0  0  0
  -21.4670   -4.5960   24.8990 C   0  0  0  0  0  0  0  0  0  0  0  0
  -21.9370   -4.0440   23.6940 C   0  0  0  0  0  3  0  0  0  0  0  0
  -22.0450   -4.8500   22.5480 C   0  0  0  0  0  0  0  0  0  0  0  0
  -22.4780   -4.3080   21.3830 F   0  0  0  0  0  0  0  0  0  0  0  0
  -21.3590   -3.8160   26.0000 F   0  0  0  0  0  0  0  0  0  0  0  0
  -22.7590  -13.5920   21.1800 C   0  0  0  0  0  0  0  0  0  0  0  0
  -22.0590  -12.8810   22.0560 N   0  0  0  0  0  0  0  0  0  0  0  0
  -22.3000  -14.6170   20.6770 O   0  0  0  0  0  0  0  0  0  0  0  0
  -22.4470  -12.0530   22.4850 H   0  0  0  0  0  0  0  0  0  0  0  0
  -21.1210  -13.1660   22.3000 H   0  0  0  0  0  0  0  0  0  0  0  0
  -25.3340  -15.3090   20.3330 N   0  0  0  0  0  0  0  0  0  0  0  0
  -24.5570  -15.9470   20.4650 H   0  0  0  0  0  0  0  0  0  0  0  0
  -26.1550  -15.7600   19.9510 H   0  0  0  0  0  0  0  0  0  0  0  0
  1  3  1  0
  2  4  2  0
  2  5  1  0
  4  6  1  0
  5  1  2  0
  6  7  1  0
  6  3  2  0
  8 19  2  0
  9  7  1  0
  9 14  1  0
 10 18  1  0
 10 20  1  0
 11 17  1  0
 11 13  1  0
 12 18  1  0
 13 14  2  0
 13 12  1  0
 15  9  2  0
 16 15  1  0
 16 11  2  0
 17 10  1  0
 18  8  1  0
 20 22  2  0
 21 20  1  0
 23 21  1  0
 24 33  2  0
 24 29  1  0
 25 21  1  0
 25 29  1  0
 26 25  1  0
 27 28  1  0
 27 26  1  0
 28 24  1  0
 29 30  2  0
 30 31  1  0
 32 31  2  0
 33 32  1  0
 34  8  1  0
 34 35  1  0
 34 44  1  0
 35 38  1  0
 36 40  1  0
 36 35  1  0
 37 36  2  0
 40 39  1  0
 42 43  1  0
 42 40  1  0
 42 41  1  0
 44 47  1  1
 44 45  1  0
 46 44  1  0
 48  5  1  0
 48 57  1  0
 49 57  1  0
 50 55  1  0
 51 52  1  0
 51 50  1  0
 53 52  1  0
 53 62  1  0
 53 54  1  0
 55 49  1  0
 55 54  1  0
 56 49  2  0
 57 58  1  0
 59 60  2  0
 60 79  1  0
 61 60  1  0
 61 64  1  0
 62 63  1  0
 62 59  1  0
 63 61  2  0
 64 65  1  0
 65 66  2  0
 67 70  1  0
 67 66  1  0
 68 67  2  0
 69 68  1  0
 69 64  2  0
 70 71  1  0
 71 72  1  0
 72 73  2  0
 74 73  1  0
 74 78  1  0
 75 74  2  0
 76 71  2  0
 76 75  1  0
 77 76  1  0
 79 80  1  0
 80 83  1  0
 80 82  1  0
 81 79  2  0
 84 85  1  0
 84 59  1  0
 86 84  1  0
M  ISO  4   6 101   7 101  49 100  57 100
M  END
>  <TORSDO>  (5) 
F 17

>  <SCORE>  (5) 
-15.844

>  <name>  (5) 
4

>  <ligand_id>  (5) 
4

>  <original_smiles>  (5) 
[H]c1c([H])c([H])c2c(c1[H])C([H])([H])C([H])([H])C([H])([H])C2([H])N([H])C(=O)C1([H])N(C(=O)C([H])(N([H])C(=O)C([H])(N([H])C([H])([H])[H])C([H])([H])[H])C(C([H])([H])[H])(C([H])([H])[H])C([H])([H])[H])C([H])([H])c2c([H])c(Oc3c([H])c([H])c(C([H])([H])N([H])C(=O)N4C([H])([H])C([H])([H])C([H])([H])C([H])(n5nc(-c6c([H])c([H])c(Oc7c([H])c([H])c(F)c([H])c7F)c([H])c6[H])c(C(=O)N([H])[H])c5N([H])[H])C4([H])[H])c([H])c3[H])c([H])c([H])c2C1([H])[H]

>  <smiles>  (5) 
[H]c1c([H])c([H])c2c(c1[H])C([H])([H])C([H])([H])C([H])([H])C2([H])N([H])C(=O)C1([H])N(C(=O)C([H])(N([H])C(=O)C([H])(N([H])C([H])([H])[H])C([H])([H])[H])C(C([H])([H])[H])(C([H])([H])[H])C([H])([H])[H])C([H])([H])c2c([H])c(Oc3c([H])c([H])c(C([H])([H])N([H])C(=O)N4C([H])([H])C([H])([H])C([H])([H])C([H])(n5nc(-c6c([H])c([H])c(Oc7c([H])c([H])c(F)c([H])c7F)c([H])c6[H])c(C(=O)N([H])[H])c5N([H])[H])C4([H])[H])c([H])c3[H])c([H])c([H])c2C1([H])[H]

$$$$
5:0:0
     RDKit          3D

 91 98  0  0  1  0  0  0  0  0999 V2000
  -29.2890  -20.7220   19.7020 C   0  0  0  0  0  0  0  0  0  0  0  0
  -29.2660  -22.0170   20.2770 N   0  0  0  0  0  0  0  0  0  0  0  0
  -28.7040  -20.5620   18.6310 O   0  0  0  0  0  0  0  0  0  0  0  0
  -29.7400  -22.0600   21.1690 H   0  0  0  0  0  0  0  0  0  0  0  0
  -28.8640  -23.4230   19.6800 C   0  0  0  0  0  2  0  0  0  0  0  0
  -28.2750  -24.7370   20.5430 C   0  0  0  0  0  2  0  0  0  0  0  0
  -28.4260  -26.2440   20.1820 O   0  0  0  0  0  0  0  0  0  0  0  0
  -24.6490  -31.8270   23.1770 C   0  0  0  0  0  0  0  0  0  0  0  0
  -27.3300  -27.1710   20.1750 C   0  0  0  0  0  0  0  0  0  0  0  0
  -23.4860  -30.4200   21.5140 C   0  0  0  0  0  3  0  0  0  0  0  0
  -24.9740  -28.8620   20.1150 C   0  0  0  0  0  0  0  0  0  0  0  0
  -26.0340  -30.7290   21.3800 C   0  0  0  0  0  2  0  0  0  0  0  0
  -26.1360  -29.3350   20.7370 C   0  0  0  0  0  0  0  0  0  0  0  0
  -27.3170  -28.5020   20.7510 C   0  0  0  0  0  3  0  0  0  0  0  0
  -26.1420  -26.7890   19.5210 C   0  0  0  0  0  3  0  0  0  0  0  0
  -24.9860  -27.6000   19.4970 C   0  0  0  0  0  3  0  0  0  0  0  0
  -23.7350  -29.7420   20.1400 C   0  0  0  0  0  2  0  0  0  0  0  0
  -24.7410  -31.0160   22.0800 N   0  0  0  0  0  0  0  0  0  0  0  0
  -23.5530  -32.0950   23.6930 O   0  0  0  0  0  0  0  0  0  0  0  0
  -22.8090  -29.4060   22.4670 C   0  0  0  0  0  0  0  0  0  0  0  0
  -21.4830  -29.2210   22.3280 N   0  0  0  0  0  0  0  0  0  0  0  0
  -23.4790  -28.7830   23.2950 O   0  0  0  0  0  0  0  0  0  0  0  0
  -20.9980  -29.7760   21.6370 H   0  0  0  0  0  0  0  0  0  0  0  0
  -18.1190  -27.9530   22.7610 C   0  0  0  0  0  0  0  0  0  0  0  0
  -20.6650  -28.2680   23.0840 C   0  0  0  0  0  3  0  0  0  0  0  0
  -20.8080  -26.8380   22.5120 C   0  0  0  0  0  2  0  0  0  0  0  0
  -19.7360  -26.4920   21.4750 C   0  0  0  0  0  2  0  0  0  0  0  0
  -18.3390  -26.6070   22.0900 C   0  0  0  0  0  2  0  0  0  0  0  0
  -19.2110  -28.7400   23.2140 C   0  0  0  0  0  0  0  0  0  0  0  0
  -18.9530  -29.9960   23.8020 C   0  0  0  0  0  3  0  0  0  0  0  0
  -17.6350  -30.4700   23.9410 C   0  0  0  0  0  3  0  0  0  0  0  0
  -16.5560  -29.6810   23.5050 C   0  0  0  0  0  3  0  0  0  0  0  0
  -16.7980  -28.4240   22.9230 C   0  0  0  0  0  3  0  0  0  0  0  0
  -25.9110  -32.4770   23.8220 C   0  0  0  0  0  3  0  0  0  0  0  0
  -25.5820  -33.8730   24.1540 N   0  0  0  0  0  0  0  0  0  0  0  0
  -25.9160  -34.9330   23.4110 C   0  0  0  0  0  0  0  0  0  0  0  0
  -26.6040  -34.8430   22.3890 O   0  0  0  0  0  0  0  0  0  0  0  0
  -24.9790  -34.0160   24.9510 H   0  0  0  0  0  0  0  0  0  0  0  0
  -24.1800  -36.7180   23.0460 C   0  0  0  0  0  1  0  0  0  0  0  0
  -25.4120  -36.3160   23.8700 C   0  0  0  0  0  3  0  0  0  0  0  0
  -27.5280  -37.2180   24.7350 C   0  0  0  0  0  1  0  0  0  0  0  0
  -26.4390  -37.3800   23.7760 N   0  0  0  0  0  0  0  0  0  0  0  0
  -26.0210  -38.2950   23.9220 H   0  0  0  0  0  0  0  0  0  0  0  0
  -26.4120  -31.7100   25.1080 C   0  0  1  0  0  0  0  0  0  0  0  0
  -25.3020  -31.4690   26.1580 C   0  0  0  0  0  1  0  0  0  0  0  0
  -27.0100  -30.3340   24.7300 C   0  0  0  0  0  1  0  0  0  0  0  0
  -27.5490  -32.5090   25.7900 C   0  0  0  0  0  1  0  0  0  0  0  0
  -30.0670  -19.3980   20.3230 C   0  0  0  0  0  0  0  0  0  0  0  0
  -31.5950  -19.5210   22.2850 C   0  0  0  0  0  0  0  0  0  0  0  0
  -31.7170  -19.7410   23.7810 C   0  0  0  0  0  1  0  0  0  0  0  0
  -30.3770  -19.6290   21.7340 N   0  0  0  0  0  4  0  0  0  0  0  0
  -32.6040  -19.2540   21.6320 O   0  0  0  0  0  0  0  0  0  0  0  0
  -29.6000  -19.8960   22.3250 H   0  0  0  0  0  0  0  0  0  0  0  0
  -29.7200  -17.7720   20.0360 C   0  0  0  0  0  2  0  0  0  0  0  0
  -30.1460  -16.4710   21.0120 C   0  0  0  0  0  2  0  0  0  0  0  0
  -30.8740  -15.0630   20.5620 C   0  0  0  0  0  0  0  0  0  0  0  0
  -30.7670  -12.7030   19.6560 C   0  0  0  0  0  2  0  0  0  0  0  0
  -29.8890  -12.7030   18.3830 C   0  0  0  0  0  2  0  0  0  0  0  0
  -28.4020  -12.5420   18.7510 C   0  0  0  0  0  2  0  0  0  0  0  0
  -27.9710  -13.4740   19.9170 C   0  0  0  0  0  3  0  0  0  0  0  0
  -28.9750  -13.4340   21.0890 C   0  0  0  0  0  2  0  0  0  0  0  0
  -30.2870  -13.8000   20.5450 N   0  0  0  0  0  0  0  0  0  0  0  0
  -32.0500  -15.1280   20.1880 O   0  0  0  0  0  0  0  0  0  0  0  0
  -25.5690  -14.1000   20.5460 C   0  0  0  0  0  0  0  0  0  0  0  0
  -24.4790  -13.3460   20.8790 C   0  0  0  0  0  0  0  0  0  0  0  0
  -24.9240  -11.9880   20.8870 C   0  0  0  0  0  0  0  0  0  0  0  0
  -26.6080  -13.2040   20.3590 N   0  0  0  0  0  0  0  0  0  0  0  0
  -26.2250  -11.9290   20.6290 N   0  0  0  0  0  0  0  0  0  0  0  0
  -24.1740  -10.7380   21.0600 C   0  0  0  0  0  0  0  0  0  0  0  0
  -24.5530   -9.7730   22.0190 C   0  0  0  0  0  3  0  0  0  0  0  0
  -23.8030   -8.5890   22.1800 C   0  0  0  0  0  3  0  0  0  0  0  0
  -22.6590   -8.3600   21.3790 C   0  0  0  0  0  0  0  0  0  0  0  0
  -22.3010   -9.3100   20.4060 C   0  0  0  0  0  3  0  0  0  0  0  0
  -23.0510  -10.4860   20.2460 C   0  0  0  0  0  3  0  0  0  0  0  0
  -21.8860   -7.2250   21.4460 O   0  0  0  0  0  0  0  0  0  0  0  0
  -21.7670   -6.5030   22.6060 C   0  0  0  0  0  0  0  0  0  0  0  0
  -21.2930   -7.0840   23.8010 C   0  0  0  0  0  3  0  0  0  0  0  0
  -21.1200   -6.2900   24.9510 C   0  0  0  0  0  3  0  0  0  0  0  0
  -21.4120   -4.9130   24.9090 C   0  0  0  0  0  0  0  0  0  0  0  0
  -21.8790   -4.3300   23.7170 C   0  0  0  0  0  3  0  0  0  0  0  0
  -22.0520   -5.1230   22.5690 C   0  0  0  0  0  0  0  0  0  0  0  0
  -22.4830   -4.5500   21.4180 F   0  0  0  0  0  0  0  0  0  0  0  0
  -21.2390   -4.1480   26.0110 F   0  0  0  0  0  0  0  0  0  0  0  0
  -23.0780  -13.8440   21.0870 C   0  0  0  0  0  0  0  0  0  0  0  0
  -22.3100  -13.1800   21.9430 N   0  0  0  0  0  0  0  0  0  0  0  0
  -22.6710  -14.8580   20.5190 O   0  0  0  0  0  0  0  0  0  0  0  0
  -22.6530  -12.3620   22.4250 H   0  0  0  0  0  0  0  0  0  0  0  0
  -21.3670  -13.4940   22.1230 H   0  0  0  0  0  0  0  0  0  0  0  0
  -25.7670  -15.4660   20.3620 N   0  0  0  0  0  0  0  0  0  0  0  0
  -25.0150  -16.1450   20.4310 H   0  0  0  0  0  0  0  0  0  0  0  0
  -26.6440  -15.8790   20.0700 H   0  0  0  0  0  0  0  0  0  0  0  0
  1  2  1  0
  1 48  1  0
  2  4  1  0
  3  1  2  0
  5  2  1  0
  5  6  1  0
  7  6  1  0
  8 19  2  0
  9  7  1  0
  9 14  1  0
 10 18  1  0
 10 20  1  0
 11 17  1  0
 11 13  1  0
 12 18  1  0
 13 14  2  0
 13 12  1  0
 15  9  2  0
 16 15  1  0
 16 11  2  0
 17 10  1  0
 18  8  1  0
 20 22  2  0
 21 20  1  0
 23 21  1  0
 24 33  2  0
 24 29  1  0
 25 21  1  0
 25 29  1  0
 26 25  1  0
 27 28  1  0
 27 26  1  0
 28 24  1  0
 29 30  2  0
 30 31  1  0
 32 31  2  0
 33 32  1  0
 34  8  1  0
 34 35  1  0
 34 44  1  0
 35 38  1  0
 36 40  1  0
 36 35  1  0
 37 36  2  0
 40 39  1  0
 42 40  1  0
 42 43  1  0
 42 41  1  0
 44 47  1  1
 44 45  1  0
 46 44  1  0
 48 51  2  0
 49 50  1  0
 51 49  1  0
 51 53  1  0
 52 49  2  0
 54 48  1  0
 54 55  1  0
 56 55  1  0
 57 62  1  0
 58 59  1  0
 58 57  1  0
 60 59  1  0
 60 67  1  0
 60 61  1  0
 62 56  1  0
 62 61  1  0
 63 56  2  0
 64 65  2  0
 65 66  1  0
 65 84  1  0
 66 69  1  0
 67 64  1  0
 67 68  1  0
 68 66  2  0
 69 70  1  0
 70 71  2  0
 72 75  1  0
 72 71  1  0
 73 72  2  0
 74 73  1  0
 74 69  2  0
 75 76  1  0
 76 77  1  0
 77 78  2  0
 79 78  1  0
 79 83  1  0
 80 79  2  0
 81 76  2  0
 81 80  1  0
 82 81  1  0
 84 85  1  0
 85 88  1  0
 85 87  1  0
 86 84  2  0
 89 90  1  0
 89 64  1  0
 91 89  1  0
M  ISO  4   6 101   7 101  55 100  56 100
M  END
>  <TORSDO>  (6) 
F 22

>  <SCORE>  (6) 
-12.980

>  <name>  (6) 
5

>  <ligand_id>  (6) 
5

>  <original_smiles>  (6) 
[H]c1c([H])c([H])c2c(c1[H])C([H])([H])C([H])([H])C([H])([H])C2([H])N([H])C(=O)C1([H])N(C(=O)C([H])(N([H])C(=O)C([H])(N([H])C([H])([H])[H])C([H])([H])[H])C(C([H])([H])[H])(C([H])([H])[H])C([H])([H])[H])C([H])([H])c2c([H])c(OC([H])([H])C([H])([H])N([H])C(=O)C([H])(N([H])C(=O)C([H])([H])[H])C([H])([H])C([H])([H])C(=O)N3C([H])([H])C([H])([H])C([H])([H])C([H])(n4nc(-c5c([H])c([H])c(Oc6c([H])c([H])c(F)c([H])c6F)c([H])c5[H])c(C(=O)N([H])[H])c4N([H])[H])C3([H])[H])c([H])c([H])c2C1([H])[H]

>  <smiles>  (6) 
[H]c1c([H])c([H])c2c(c1[H])C([H])([H])C([H])([H])C([H])([H])C2([H])N([H])C(=O)C1([H])N(C(=O)C([H])(N([H])C(=O)C([H])(N([H])C([H])([H])[H])C([H])([H])[H])C(C([H])([H])[H])(C([H])([H])[H])C([H])([H])[H])C([H])([H])c2c([H])c(OC([H])([H])C([H])([H])N([H])C(=O)C([H])(N([H])C(=O)C([H])([H])[H])C([H])([H])C([H])([H])C(=O)N3C([H])([H])C([H])([H])C([H])([H])C([H])(n4nc(-c5c([H])c([H])c(Oc6c([H])c([H])c(F)c([H])c6F)c([H])c5[H])c(C(=O)N([H])[H])c4N([H])[H])C3([H])[H])c([H])c([H])c2C1([H])[H]

$$$$
6:0:0
     RDKit          3D

 94102  0  0  1  0  0  0  0  0999 V2000
  -28.6120  -20.3750   18.3090 C   0  0  0  0  0  1  0  0  0  0  0  0
  -30.0680  -20.8490   18.1760 C   0  0  0  0  0  3  0  0  0  0  0  0
  -30.2210  -22.2350   18.9410 N   0  0  0  0  0  4  0  0  0  0  0  0
  -29.8070  -22.0940   19.8520 H   0  0  0  0  0  0  0  0  0  0  0  0
  -31.2050  -22.3680   19.1120 H   0  0  0  0  0  0  0  0  0  0  0  0
  -29.6670  -23.6240   18.3830 C   0  0  0  0  0  2  0  0  0  0  0  0
  -29.0140  -24.8570   19.3390 C   0  0  0  0  0  2  0  0  0  0  0  0
  -28.9890  -26.3970   19.0650 O   0  0  0  0  0  0  0  0  0  0  0  0
  -24.7210  -31.0450   22.8910 C   0  0  0  0  0  0  0  0  0  0  0  0
  -27.7940  -27.1910   19.1940 C   0  0  0  0  0  0  0  0  0  0  0  0
  -23.6550  -29.7010   21.1240 C   0  0  0  0  0  3  0  0  0  0  0  0
  -25.2370  -28.5520   19.4600 C   0  0  0  0  0  0  0  0  0  0  0  0
  -26.1300  -30.3710   20.9090 C   0  0  0  0  0  2  0  0  0  0  0  0
  -26.3700  -29.0970   20.0790 C   0  0  0  0  0  0  0  0  0  0  0  0
  -27.6460  -28.4390   19.9240 C   0  0  0  0  0  3  0  0  0  0  0  0
  -26.6230  -26.7510   18.5390 C   0  0  0  0  0  3  0  0  0  0  0  0
  -25.3750  -27.3980   18.6750 C   0  0  0  0  0  3  0  0  0  0  0  0
  -23.8970  -29.2430   19.6630 C   0  0  0  0  0  2  0  0  0  0  0  0
  -24.8560  -30.3890   21.6970 N   0  0  0  0  0  0  0  0  0  0  0  0
  -23.6330  -31.0910   23.4850 O   0  0  0  0  0  0  0  0  0  0  0  0
  -23.1840  -28.4890   21.9660 C   0  0  0  0  0  0  0  0  0  0  0  0
  -21.9310  -28.0490   21.7580 N   0  0  0  0  0  0  0  0  0  0  0  0
  -23.9480  -27.9520   22.7710 O   0  0  0  0  0  0  0  0  0  0  0  0
  -21.3600  -28.5500   21.0920 H   0  0  0  0  0  0  0  0  0  0  0  0
  -18.9440  -26.0040   21.8530 C   0  0  0  0  0  0  0  0  0  0  0  0
  -21.3090  -26.8910   22.4060 C   0  0  0  0  0  3  0  0  0  0  0  0
  -21.8380  -25.5710   21.8010 C   0  0  0  0  0  2  0  0  0  0  0  0
  -20.9610  -25.0400   20.6640 C   0  0  0  0  0  2  0  0  0  0  0  0
  -19.5310  -24.7870   21.1550 C   0  0  0  0  0  2  0  0  0  0  0  0
  -19.7800  -27.0000   22.4220 C   0  0  0  0  0  0  0  0  0  0  0  0
  -19.1860  -28.1300   23.0240 C   0  0  0  0  0  3  0  0  0  0  0  0
  -17.7880  -28.2720   23.0670 C   0  0  0  0  0  3  0  0  0  0  0  0
  -16.9630  -27.2740   22.5180 C   0  0  0  0  0  3  0  0  0  0  0  0
  -17.5420  -26.1440   21.9120 C   0  0  0  0  0  3  0  0  0  0  0  0
  -25.9220  -31.7840   23.5530 C   0  0  0  0  0  3  0  0  0  0  0  0
  -26.5250  -31.0040   24.7850 C   0  0  1  0  0  0  0  0  0  0  0  0
  -25.4740  -30.6020   25.8450 C   0  0  0  0  0  1  0  0  0  0  0  0
  -27.2380  -29.7130   24.3210 C   0  0  0  0  0  1  0  0  0  0  0  0
  -27.5940  -31.8770   25.4840 C   0  0  0  0  0  1  0  0  0  0  0  0
  -25.4550  -33.1170   23.9680 N   0  0  0  0  0  0  0  0  0  0  0  0
  -25.7060  -34.2540   23.3070 C   0  0  0  0  0  0  0  0  0  0  0  0
  -26.4210  -34.2990   22.3010 O   0  0  0  0  0  0  0  0  0  0  0  0
  -24.8140  -33.1510   24.7470 H   0  0  0  0  0  0  0  0  0  0  0  0
  -23.8270  -35.9020   23.0060 C   0  0  0  0  0  1  0  0  0  0  0  0
  -25.0640  -35.5480   23.8450 C   0  0  0  0  0  3  0  0  0  0  0  0
  -27.0600  -36.5610   24.8570 C   0  0  0  0  0  1  0  0  0  0  0  0
  -25.9920  -36.7000   23.8700 N   0  0  0  0  0  0  0  0  0  0  0  0
  -25.4910  -37.5630   24.0630 H   0  0  0  0  0  0  0  0  0  0  0  0
  -31.1650  -19.5400   18.2900 C   0  0  0  0  0  2  0  0  0  0  0  0
  -32.0420  -15.3690   18.5000 C   0  0  0  0  0  0  0  0  0  0  0  0
  -31.7690  -12.8850   18.0300 C   0  0  0  0  0  2  0  0  0  0  0  0
  -30.6300  -12.6180   17.0180 C   0  0  0  0  0  2  0  0  0  0  0  0
  -29.2810  -12.4970   17.7410 C   0  0  0  0  0  2  0  0  0  0  0  0
  -29.0680  -13.6360   18.7670 C   0  0  0  0  0  3  0  0  0  0  0  0
  -30.3090  -13.8360   19.6670 C   0  0  0  0  0  2  0  0  0  0  0  0
  -31.4490  -14.1330   18.7950 N   0  0  0  0  0  0  0  0  0  0  0  0
  -33.0570  -15.3260   17.7960 O   0  0  0  0  0  0  0  0  0  0  0  0
  -29.1290  -17.4750   20.2760 C   0  0  0  0  0  2  0  0  0  0  0  0
  -29.3690  -17.7400   18.7700 C   0  0  0  0  0  2  0  0  0  0  0  0
  -31.3880  -17.2390   21.4710 C   0  0  0  0  0  2  0  0  0  0  0  0
  -30.1090  -18.0850   21.3020 C   0  0  0  0  0  3  0  0  0  0  0  0
  -30.8240  -17.8560   18.2820 C   0  0  0  0  0  3  0  0  0  0  0  0
  -32.3040  -17.0320   20.2430 C   0  0  0  0  0  3  0  0  0  0  0  0
  -29.4140  -18.2150   22.6660 C   0  0  0  0  0  1  0  0  0  0  0  0
  -33.4110  -18.0910   20.0510 C   0  0  0  0  0  1  0  0  0  0  0  0
  -31.5920  -16.6410   18.9970 N   0  0  0  0  0  0  0  0  0  0  0  0
  -27.0000  -14.3890   20.0840 C   0  0  0  0  0  0  0  0  0  0  0  0
  -25.9620  -13.7100   20.6440 C   0  0  0  0  0  0  0  0  0  0  0  0
  -26.2000  -12.3330   20.3600 C   0  0  0  0  0  0  0  0  0  0  0  0
  -27.8420  -13.4380   19.5330 N   0  0  0  0  0  0  0  0  0  0  0  0
  -27.3720  -12.1820   19.7490 N   0  0  0  0  0  0  0  0  0  0  0  0
  -25.3460  -11.1630   20.5800 C   0  0  0  0  0  0  0  0  0  0  0  0
  -25.6820  -10.1740   21.5290 C   0  0  0  0  0  3  0  0  0  0  0  0
  -24.8290   -9.0710   21.7390 C   0  0  0  0  0  3  0  0  0  0  0  0
  -23.6250   -8.9510   21.0010 C   0  0  0  0  0  0  0  0  0  0  0  0
  -23.3100   -9.9270   20.0370 C   0  0  0  0  0  3  0  0  0  0  0  0
  -24.1640  -11.0240   19.8270 C   0  0  0  0  0  3  0  0  0  0  0  0
  -22.7480   -7.9010   21.1220 O   0  0  0  0  0  0  0  0  0  0  0  0
  -22.4280   -7.3680   22.3470 C   0  0  0  0  0  0  0  0  0  0  0  0
  -21.8410   -8.1460   23.3690 C   0  0  0  0  0  3  0  0  0  0  0  0
  -21.4580   -7.5410   24.5830 C   0  0  0  0  0  3  0  0  0  0  0  0
  -21.6560   -6.1610   24.7760 C   0  0  0  0  0  0  0  0  0  0  0  0
  -22.2390   -5.3850   23.7580 C   0  0  0  0  0  3  0  0  0  0  0  0
  -22.6190   -5.9880   22.5450 C   0  0  0  0  0  0  0  0  0  0  0  0
  -23.1540   -5.2290   21.5600 F   0  0  0  0  0  0  0  0  0  0  0  0
  -21.2870   -5.5770   25.9410 F   0  0  0  0  0  0  0  0  0  0  0  0
  -24.7590  -14.3160   21.3060 C   0  0  0  0  0  0  0  0  0  0  0  0
  -24.1700  -13.6130   22.2650 N   0  0  0  0  0  0  0  0  0  0  0  0
  -24.3670  -15.4430   21.0120 O   0  0  0  0  0  0  0  0  0  0  0  0
  -24.5030  -12.6950   22.5270 H   0  0  0  0  0  0  0  0  0  0  0  0
  -23.3690  -13.9990   22.7470 H   0  0  0  0  0  0  0  0  0  0  0  0
  -27.2660  -15.7420   19.9690 N   0  0  0  0  0  0  0  0  0  0  0  0
  -26.5770  -16.4250   20.2600 H   0  0  0  0  0  0  0  0  0  0  0  0
  -28.0510  -16.1390   19.4750 H   0  0  0  0  0  0  0  0  0  0  0  0
  2 49  1  0
  2  1  1  0
  2  3  1  0
  3  5  1  0
  3  4  1  0
  6  3  1  0
  6  7  1  0
  8 10  1  0
  8  7  1  0
  9 20  2  0
 10 15  1  0
 11 19  1  0
 11 21  1  0
 12 18  1  0
 12 14  1  0
 13 19  1  0
 14 13  1  0
 15 14  2  0
 16 17  1  0
 16 10  2  0
 17 12  2  0
 18 11  1  0
 19  9  1  0
 21 23  2  0
 22 21  1  0
 24 22  1  0
 25 34  2  0
 25 30  1  0
 26 22  1  0
 26 30  1  0
 27 26  1  0
 28 29  1  0
 28 27  1  0
 29 25  1  0
 30 31  2  0
 31 32  1  0
 33 32  2  0
 34 33  1  0
 35  9  1  0
 35 40  1  0
 35 36  1  0
 36 39  1  1
 36 37  1  0
 38 36  1  0
 40 43  1  0
 41 45  1  0
 41 40  1  0
 42 41  2  0
 45 44  1  0
 45 47  1  0
 47 48  1  0
 47 46  1  0
 50 56  1  0
 50 66  1  0
 51 56  1  0
 52 53  1  0
 52 51  1  0
 54 53  1  0
 54 70  1  0
 54 55  1  0
 56 55  1  0
 57 50  2  0
 58 61  1  0
 59 58  1  0
 61 60  1  0
 61 64  1  0
 62 49  1  0
 62 59  1  0
 62 66  1  0
 63 65  1  0
 63 60  1  0
 66 63  1  0
 67 68  2  0
 68 87  1  0
 69 72  1  0
 69 68  1  0
 70 71  1  0
 70 67  1  0
 71 69  2  0
 72 73  1  0
 73 74  2  0
 75 78  1  0
 75 74  1  0
 76 75  2  0
 77 76  1  0
 77 72  2  0
 78 79  1  0
 79 84  2  0
 79 80  1  0
 80 81  2  0
 81 82  1  0
 82 86  1  0
 83 82  2  0
 84 83  1  0
 85 84  1  0
 87 88  1  0
 88 90  1  0
 88 91  1  0
 89 87  2  0
 92 67  1  0
 92 93  1  0
 94 92  1  0
M  ISO  4   7 101   8 101  50 100  66 100
M  END
>  <TORSDO>  (7) 
F 20

>  <SCORE>  (7) 
-6.634

>  <name>  (7) 
6

>  <ligand_id>  (7) 
6

>  <original_smiles>  (7) 
[H]c1c([H])c([H])c2c(c1[H])C([H])([H])C([H])([H])C([H])([H])C2([H])N([H])C(=O)C1([H])N(C(=O)C([H])(N([H])C(=O)C([H])(N([H])C([H])([H])[H])C([H])([H])[H])C(C([H])([H])[H])(C([H])([H])[H])C([H])([H])[H])C([H])([H])c2c([H])c(OC([H])([H])C([H])([H])[N+]([H])([H])C([H])(C([H])([H])[H])C([H])([H])C3([H])N(C(=O)N4C([H])([H])C([H])([H])C([H])([H])C([H])(n5nc(-c6c([H])c([H])c(Oc7c([H])c([H])c(F)c([H])c7F)c([H])c6[H])c(C(=O)N([H])[H])c5N([H])[H])C4([H])[H])C([H])(C([H])([H])[H])C([H])([H])C([H])(C([H])([H])[H])C([H])([H])C3([H])[H])c([H])c([H])c2C1([H])[H]

>  <smiles>  (7) 
[H]c1c([H])c([H])c2c(c1[H])C([H])([H])C([H])([H])C([H])([H])C2([H])N([H])C(=O)C1([H])N(C(=O)C([H])(N([H])C(=O)C([H])(N([H])C([H])([H])[H])C([H])([H])[H])C(C([H])([H])[H])(C([H])([H])[H])C([H])([H])[H])C([H])([H])c2c([H])c(OC([H])([H])C([H])([H])[N+]([H])([H])C([H])(C([H])([H])[H])C([H])([H])C3([H])N(C(=O)N4C([H])([H])C([H])([H])C([H])([H])C([H])(n5nc(-c6c([H])c([H])c(Oc7c([H])c([H])c(F)c([H])c7F)c([H])c6[H])c(C(=O)N([H])[H])c5N([H])[H])C4([H])[H])C([H])(C([H])([H])[H])C([H])([H])C([H])(C([H])([H])[H])C([H])([H])C3([H])[H])c([H])c([H])c2C1([H])[H]

$$$$
7:0:0
     RDKit          3D

 94101  0  0  1  0  0  0  0  0999 V2000
  -29.4010  -21.8910   20.6940 C   0  0  0  0  0  3  0  0  0  0  0  0
  -29.5150  -24.1110   21.5890 C   0  0  0  0  0  1  0  0  0  0  0  0
  -28.9890  -23.3020   20.4820 N   0  0  0  0  0  0  0  0  0  0  0  0
  -29.2640  -23.9400   19.1800 C   0  0  0  0  0  2  0  0  0  0  0  0
  -28.6080  -25.3440   19.0450 C   0  0  0  0  0  2  0  0  0  0  0  0
  -28.9400  -26.0870   17.7320 C   0  0  0  0  0  2  0  0  0  0  0  0
  -28.6880  -27.4990   17.8140 O   0  0  0  0  0  0  0  0  0  0  0  0
  -24.5650  -30.9930   22.4270 C   0  0  0  0  0  0  0  0  0  0  0  0
  -27.4160  -27.9670   18.0750 C   0  0  0  0  0  0  0  0  0  0  0  0
  -23.3790  -29.8840   20.5590 C   0  0  0  0  0  3  0  0  0  0  0  0
  -24.8540  -29.0140   18.6680 C   0  0  0  0  0  0  0  0  0  0  0  0
  -25.7910  -30.6850   20.2770 C   0  0  0  0  0  2  0  0  0  0  0  0
  -25.9880  -29.5500   19.2900 C   0  0  0  0  0  0  0  0  0  0  0  0
  -27.2680  -29.0340   18.9920 C   0  0  0  0  0  3  0  0  0  0  0  0
  -26.2590  -27.4430   17.4520 C   0  0  0  0  0  3  0  0  0  0  0  0
  -24.9830  -27.9600   17.7470 C   0  0  0  0  0  3  0  0  0  0  0  0
  -23.5200  -29.6210   19.0360 C   0  0  0  0  0  2  0  0  0  0  0  0
  -24.6030  -30.5240   21.1470 N   0  0  0  0  0  0  0  0  0  0  0  0
  -23.5250  -30.9430   23.0980 O   0  0  0  0  0  0  0  0  0  0  0  0
  -22.9840  -28.5630   21.2530 C   0  0  0  0  0  0  0  0  0  0  0  0
  -21.6980  -28.1920   21.1490 N   0  0  0  0  0  0  0  0  0  0  0  0
  -23.8270  -27.8830   21.8450 O   0  0  0  0  0  0  0  0  0  0  0  0
  -21.0710  -28.8100   20.6520 H   0  0  0  0  0  0  0  0  0  0  0  0
  -18.6020  -26.3600   21.4840 C   0  0  0  0  0  0  0  0  0  0  0  0
  -21.1050  -26.9680   21.6870 C   0  0  0  0  0  3  0  0  0  0  0  0
  -21.3700  -25.7650   20.7540 C   0  0  0  0  0  2  0  0  0  0  0  0
  -20.2420  -25.5240   19.7450 C   0  0  0  0  0  2  0  0  0  0  0  0
  -18.9180  -25.2690   20.4730 C   0  0  0  0  0  2  0  0  0  0  0  0
  -19.6280  -27.1680   22.0410 C   0  0  0  0  0  0  0  0  0  0  0  0
  -19.2780  -28.1890   22.9490 C   0  0  0  0  0  3  0  0  0  0  0  0
  -17.9350  -28.4070   23.3060 C   0  0  0  0  0  3  0  0  0  0  0  0
  -16.9240  -27.5930   22.7650 C   0  0  0  0  0  3  0  0  0  0  0  0
  -17.2590  -26.5710   21.8590 C   0  0  0  0  0  3  0  0  0  0  0  0
  -25.8170  -31.6410   23.0980 C   0  0  0  0  0  3  0  0  0  0  0  0
  -26.5210  -30.6910   24.1420 C   0  0  1  0  0  0  0  0  0  0  0  0
  -25.5540  -30.0940   25.1910 C   0  0  0  0  0  1  0  0  0  0  0  0
  -27.2200  -29.5150   23.4200 C   0  0  0  0  0  1  0  0  0  0  0  0
  -27.6260  -31.4670   24.8970 C   0  0  0  0  0  1  0  0  0  0  0  0
  -25.3760  -32.8860   23.7410 N   0  0  0  0  0  0  0  0  0  0  0  0
  -25.5530  -34.1100   23.2280 C   0  0  0  0  0  0  0  0  0  0  0  0
  -26.1740  -34.3140   22.1810 O   0  0  0  0  0  0  0  0  0  0  0  0
  -24.8040  -32.7900   24.5670 H   0  0  0  0  0  0  0  0  0  0  0  0
  -23.6290  -35.7260   23.3310 C   0  0  0  0  0  1  0  0  0  0  0  0
  -24.9460  -35.2980   23.9980 C   0  0  0  0  0  3  0  0  0  0  0  0
  -27.0050  -36.2220   24.9650 C   0  0  0  0  0  1  0  0  0  0  0  0
  -25.8550  -36.4610   24.0980 N   0  0  0  0  0  0  0  0  0  0  0  0
  -25.3600  -37.2770   24.4480 H   0  0  0  0  0  0  0  0  0  0  0  0
  -27.9320  -20.2500   22.0530 C   0  0  0  0  0  1  0  0  0  0  0  0
  -28.0980  -21.0470   20.7500 C   0  0  0  0  0  2  0  0  0  0  0  0
  -30.4560  -21.2930   19.7160 C   0  0  0  0  0  2  0  0  0  0  0  0
  -31.0950  -20.0740   20.2840 N   0  0  0  0  0  4  0  0  0  0  0  0
  -30.4280  -19.3230   20.2090 H   0  0  0  0  0  0  0  0  0  0  0  0
  -31.2590  -20.2340   21.2660 H   0  0  0  0  0  0  0  0  0  0  0  0
  -33.5120  -20.6460   20.0380 C   0  0  0  0  0  1  0  0  0  0  0  0
  -32.3840  -19.6560   19.6700 C   0  0  0  0  0  3  0  0  0  0  0  0
  -32.8090  -18.2120   20.0900 C   0  0  0  0  0  2  0  0  0  0  0  0
  -31.4450  -17.1750   18.1650 C   0  0  0  0  0  1  0  0  0  0  0  0
  -31.9370  -16.9980   19.6210 C   0  0  0  0  0  3  0  0  0  0  0  0
  -32.7250  -15.6540   19.6640 C   0  0  0  0  0  0  0  0  0  0  0  0
  -32.4640  -13.2820   19.0990 C   0  0  0  0  0  2  0  0  0  0  0  0
  -31.5220  -13.2050   17.8780 C   0  0  0  0  0  2  0  0  0  0  0  0
  -30.0470  -13.1550   18.3270 C   0  0  0  0  0  2  0  0  0  0  0  0
  -29.6980  -14.2410   19.3800 C   0  0  0  0  0  3  0  0  0  0  0  0
  -30.7640  -14.2980   20.4970 C   0  0  0  0  0  2  0  0  0  0  0  0
  -32.0830  -14.4710   19.8760 N   0  0  0  0  0  0  0  0  0  0  0  0
  -33.8900  -15.6880   19.2620 O   0  0  0  0  0  0  0  0  0  0  0  0
  -27.4090  -15.0160   20.2590 C   0  0  0  0  0  0  0  0  0  0  0  0
  -26.2910  -14.3200   20.6370 C   0  0  0  0  0  0  0  0  0  0  0  0
  -26.6220  -12.9380   20.4920 C   0  0  0  0  0  0  0  0  0  0  0  0
  -28.3530  -14.0600   19.9160 N   0  0  0  0  0  0  0  0  0  0  0  0
  -27.8850  -12.8010   20.1120 N   0  0  0  0  0  0  0  0  0  0  0  0
  -25.7910  -11.7370   20.6380 C   0  0  0  0  0  0  0  0  0  0  0  0
  -26.0450  -10.7830   21.6480 C   0  0  0  0  0  3  0  0  0  0  0  0
  -25.2230   -9.6440   21.7800 C   0  0  0  0  0  3  0  0  0  0  0  0
  -24.1300   -9.4520   20.9010 C   0  0  0  0  0  0  0  0  0  0  0  0
  -23.8940  -10.3930   19.8840 C   0  0  0  0  0  3  0  0  0  0  0  0
  -24.7180  -11.5240   19.7500 C   0  0  0  0  0  3  0  0  0  0  0  0
  -23.2920   -8.3640   20.9400 O   0  0  0  0  0  0  0  0  0  0  0  0
  -22.8560   -7.8330   22.1260 C   0  0  0  0  0  0  0  0  0  0  0  0
  -22.0790   -8.5820   23.0380 C   0  0  0  0  0  3  0  0  0  0  0  0
  -21.5950   -7.9750   24.2140 C   0  0  0  0  0  3  0  0  0  0  0  0
  -21.8760   -6.6220   24.4760 C   0  0  0  0  0  0  0  0  0  0  0  0
  -22.6440   -5.8730   23.5670 C   0  0  0  0  0  3  0  0  0  0  0  0
  -23.1300   -6.4770   22.3950 C   0  0  0  0  0  0  0  0  0  0  0  0
  -23.8520   -5.7450   21.5120 F   0  0  0  0  0  0  0  0  0  0  0  0
  -21.4030   -6.0360   25.6020 F   0  0  0  0  0  0  0  0  0  0  0  0
  -24.9600  -14.9030   21.0150 C   0  0  0  0  0  0  0  0  0  0  0  0
  -24.2130  -14.2160   21.8720 N   0  0  0  0  0  0  0  0  0  0  0  0
  -24.5970  -15.9980   20.5860 O   0  0  0  0  0  0  0  0  0  0  0  0
  -24.5200  -13.3290   22.2400 H   0  0  0  0  0  0  0  0  0  0  0  0
  -23.3200  -14.5860   22.1650 H   0  0  0  0  0  0  0  0  0  0  0  0
  -27.6960  -16.3740   20.1590 N   0  0  0  0  0  0  0  0  0  0  0  0
  -26.9990  -17.0890   20.3330 H   0  0  0  0  0  0  0  0  0  0  0  0
  -28.5590  -16.7440   19.7810 H   0  0  0  0  0  0  0  0  0  0  0  0
  1 50  1  0
  1 49  1  0
  3  1  1  0
  3  2  1  0
  4  3  1  0
  5  4  1  0
  6  7  1  0
  6  5  1  0
  7  9  1  0
  8 19  2  0
  9 14  1  0
 10 18  1  0
 10 20  1  0
 11 17  1  0
 11 13  1  0
 12 18  1  0
 13 12  1  0
 14 13  2  0
 15 16  1  0
 15  9  2  0
 16 11  2  0
 17 10  1  0
 18  8  1  0
 20 22  2  0
 21 20  1  0
 23 21  1  0
 24 33  2  0
 24 29  1  0
 25 21  1  0
 25 29  1  0
 26 25  1  0
 27 28  1  0
 27 26  1  0
 28 24  1  0
 29 30  2  0
 30 31  1  0
 32 31  2  0
 33 32  1  0
 34  8  1  0
 34 39  1  0
 34 35  1  0
 35 38  1  1
 35 36  1  0
 37 35  1  0
 39 42  1  0
 40 39  1  0
 40 44  1  0
 41 40  2  0
 44 43  1  0
 44 46  1  0
 46 47  1  0
 46 45  1  0
 49 48  1  0
 50 51  1  0
 51 53  1  0
 52 51  1  0
 55 54  1  0
 55 56  1  0
 55 51  1  0
 58 57  1  0
 58 59  1  0
 58 56  1  0
 59 65  1  0
 60 65  1  0
 61 62  1  0
 61 60  1  0
 63 62  1  0
 63 70  1  0
 63 64  1  0
 65 64  1  0
 66 59  2  0
 67 68  2  0
 68 87  1  0
 69 68  1  0
 69 72  1  0
 70 71  1  0
 70 67  1  0
 71 69  2  0
 72 73  1  0
 73 74  2  0
 75 78  1  0
 75 74  1  0
 76 75  2  0
 77 76  1  0
 77 72  2  0
 78 79  1  0
 79 84  2  0
 79 80  1  0
 80 81  2  0
 81 82  1  0
 82 86  1  0
 83 82  2  0
 84 83  1  0
 85 84  1  0
 87 88  1  0
 88 91  1  0
 88 90  1  0
 89 87  2  0
 92 67  1  0
 92 93  1  0
 94 92  1  0
M  ISO  4   6 101   7 101  58 100  59 100
M  END
>  <TORSDO>  (8) 
F 26

>  <SCORE>  (8) 
-2.821

>  <name>  (8) 
7

>  <ligand_id>  (8) 
7

>  <original_smiles>  (8) 
[H]c1c([H])c([H])c2c(c1[H])C([H])([H])C([H])([H])C([H])([H])C2([H])N([H])C(=O)C1([H])N(C(=O)C([H])(N([H])C(=O)C([H])(N([H])C([H])([H])[H])C([H])([H])[H])C(C([H])([H])[H])(C([H])([H])[H])C([H])([H])[H])C([H])([H])c2c([H])c(OC([H])([H])C([H])([H])C([H])([H])N(C([H])([H])[H])C([H])(C([H])([H])C([H])([H])[H])C([H])([H])[N+]([H])([H])C([H])(C([H])([H])[H])C([H])([H])C([H])(C(=O)N3C([H])([H])C([H])([H])C([H])([H])C([H])(n4nc(-c5c([H])c([H])c(Oc6c([H])c([H])c(F)c([H])c6F)c([H])c5[H])c(C(=O)N([H])[H])c4N([H])[H])C3([H])[H])C([H])([H])[H])c([H])c([H])c2C1([H])[H]

>  <smiles>  (8) 
[H]c1c([H])c([H])c2c(c1[H])C([H])([H])C([H])([H])C([H])([H])C2([H])N([H])C(=O)C1([H])N(C(=O)C([H])(N([H])C(=O)C([H])(N([H])C([H])([H])[H])C([H])([H])[H])C(C([H])([H])[H])(C([H])([H])[H])C([H])([H])[H])C([H])([H])c2c([H])c(OC([H])([H])C([H])([H])C([H])([H])N(C([H])([H])[H])C([H])(C([H])([H])C([H])([H])[H])C([H])([H])[N+]([H])([H])C([H])(C([H])([H])[H])C([H])([H])C([H])(C(=O)N3C([H])([H])C([H])([H])C([H])([H])C([H])(n4nc(-c5c([H])c([H])c(Oc6c([H])c([H])c(F)c([H])c6F)c([H])c5[H])c(C(=O)N([H])[H])c4N([H])[H])C3([H])[H])C([H])([H])[H])c([H])c([H])c2C1([H])[H]

$$$$
8:0:0
     RDKit          3D

 94101  0  0  1  0  0  0  0  0999 V2000
  -29.7330  -21.2860   20.4850 C   0  0  0  0  0  3  0  0  0  0  0  0
  -28.7630  -22.4440   20.2030 N   0  0  0  0  0  4  0  0  0  0  0  0
  -28.4690  -22.3220   19.2460 H   0  0  0  0  0  0  0  0  0  0  0  0
  -27.9400  -22.2970   20.7680 H   0  0  0  0  0  0  0  0  0  0  0  0
  -29.1880  -23.9120   20.3580 C   0  0  0  0  0  2  0  0  0  0  0  0
  -28.4830  -25.0230   18.1560 C   0  0  0  0  0  1  0  0  0  0  0  0
  -28.2570  -25.0180   19.6770 C   0  0  0  0  0  3  0  0  0  0  0  0
  -28.3700  -26.4370   20.1270 O   0  0  0  0  0  0  0  0  0  0  0  0
  -24.6400  -31.7810   23.2620 C   0  0  0  0  0  0  0  0  0  0  0  0
  -27.2480  -27.2890   20.0850 C   0  0  0  0  0  0  0  0  0  0  0  0
  -23.4370  -30.4240   21.5900 C   0  0  0  0  0  3  0  0  0  0  0  0
  -24.8840  -28.9140   20.1250 C   0  0  0  0  0  0  0  0  0  0  0  0
  -25.9790  -30.7400   21.4180 C   0  0  0  0  0  2  0  0  0  0  0  0
  -26.0550  -29.3780   20.7350 C   0  0  0  0  0  0  0  0  0  0  0  0
  -27.2370  -28.5790   20.7090 C   0  0  0  0  0  3  0  0  0  0  0  0
  -26.0480  -26.8900   19.4480 C   0  0  0  0  0  3  0  0  0  0  0  0
  -24.8830  -27.6740   19.4750 C   0  0  0  0  0  3  0  0  0  0  0  0
  -23.6500  -29.7890   20.1930 C   0  0  0  0  0  2  0  0  0  0  0  0
  -24.7050  -30.9990   22.1460 N   0  0  0  0  0  0  0  0  0  0  0  0
  -23.5550  -32.0470   23.8010 O   0  0  0  0  0  0  0  0  0  0  0  0
  -22.7750  -29.3820   22.5220 C   0  0  0  0  0  0  0  0  0  0  0  0
  -21.4570  -29.1720   22.3560 N   0  0  0  0  0  0  0  0  0  0  0  0
  -23.4460  -28.7660   23.3550 O   0  0  0  0  0  0  0  0  0  0  0  0
  -20.9750  -29.7220   21.6600 H   0  0  0  0  0  0  0  0  0  0  0  0
  -18.1060  -27.8610   22.7270 C   0  0  0  0  0  0  0  0  0  0  0  0
  -20.6400  -28.2110   23.0990 C   0  0  0  0  0  3  0  0  0  0  0  0
  -20.8150  -26.7790   22.5380 C   0  0  0  0  0  2  0  0  0  0  0  0
  -19.7670  -26.4140   21.4820 C   0  0  0  0  0  2  0  0  0  0  0  0
  -18.3560  -26.5150   22.0680 C   0  0  0  0  0  2  0  0  0  0  0  0
  -19.1790  -28.6630   23.1960 C   0  0  0  0  0  0  0  0  0  0  0  0
  -18.8930  -29.9200   23.7720 C   0  0  0  0  0  3  0  0  0  0  0  0
  -17.5660  -30.3770   23.8810 C   0  0  0  0  0  3  0  0  0  0  0  0
  -16.5070  -29.5730   23.4260 C   0  0  0  0  0  3  0  0  0  0  0  0
  -16.7770  -28.3170   22.8550 C   0  0  0  0  0  3  0  0  0  0  0  0
  -25.9220  -32.3980   23.9000 C   0  0  0  0  0  3  0  0  0  0  0  0
  -26.4120  -31.6210   25.1840 C   0  0  1  0  0  0  0  0  0  0  0  0
  -25.3000  -31.3950   26.2360 C   0  0  0  0  0  1  0  0  0  0  0  0
  -26.9870  -30.2370   24.8040 C   0  0  0  0  0  1  0  0  0  0  0  0
  -27.5590  -32.4050   25.8630 C   0  0  0  0  0  1  0  0  0  0  0  0
  -25.6230  -33.8000   24.2250 N   0  0  0  0  0  0  0  0  0  0  0  0
  -25.9570  -34.8470   23.4600 C   0  0  0  0  0  0  0  0  0  0  0  0
  -26.6180  -34.7340   22.4240 O   0  0  0  0  0  0  0  0  0  0  0  0
  -25.0330  -33.9620   25.0270 H   0  0  0  0  0  0  0  0  0  0  0  0
  -24.2260  -36.6420   23.1220 C   0  0  0  0  0  1  0  0  0  0  0  0
  -25.4820  -36.2410   23.9140 C   0  0  0  0  0  3  0  0  0  0  0  0
  -27.6310  -37.1310   24.7020 C   0  0  0  0  0  1  0  0  0  0  0  0
  -26.5160  -37.2890   23.7720 N   0  0  0  0  0  0  0  0  0  0  0  0
  -26.1140  -38.2130   23.9120 H   0  0  0  0  0  0  0  0  0  0  0  0
  -29.4410  -22.0290   22.9550 C   0  0  0  0  0  1  0  0  0  0  0  0
  -30.3710  -21.3740   21.9160 C   0  0  0  0  0  3  0  0  0  0  0  0
  -32.8650  -21.2460   21.1540 C   0  0  0  0  0  1  0  0  0  0  0  0
  -31.8040  -21.9610   22.0040 C   0  0  0  0  0  2  0  0  0  0  0  0
  -28.5890  -19.7140   18.7510 C   0  0  0  0  0  1  0  0  0  0  0  0
  -29.1340  -19.7980   20.1930 C   0  0  0  0  0  3  0  0  0  0  0  0
  -31.3330  -18.6840   19.8960 C   0  0  0  0  0  1  0  0  0  0  0  0
  -29.9960  -18.5730   20.4790 N   0  0  0  0  0  0  0  0  0  0  0  0
  -29.4610  -17.2020   20.1270 C   0  0  0  0  0  2  0  0  0  0  0  0
  -30.0210  -15.9130   20.9080 C   0  0  0  0  0  2  0  0  0  0  0  0
  -30.5840  -14.6560   20.1120 C   0  0  0  0  0  0  0  0  0  0  0  0
  -30.2430  -12.4900   18.9130 C   0  0  0  0  0  2  0  0  0  0  0  0
  -29.2310  -12.7190   17.7690 C   0  0  0  0  0  2  0  0  0  0  0  0
  -27.7840  -12.5530   18.2740 C   0  0  0  0  0  2  0  0  0  0  0  0
  -27.5230  -13.3250   19.5950 C   0  0  0  0  0  3  0  0  0  0  0  0
  -28.6480  -13.0820   20.6240 C   0  0  0  0  0  2  0  0  0  0  0  0
  -29.9220  -13.4530   19.9920 N   0  0  0  0  0  0  0  0  0  0  0  0
  -31.6760  -14.8020   19.5530 O   0  0  0  0  0  0  0  0  0  0  0  0
  -25.1740  -13.8930   20.4630 C   0  0  0  0  0  0  0  0  0  0  0  0
  -24.1310  -13.1070   20.8740 C   0  0  0  0  0  0  0  0  0  0  0  0
  -24.5930  -11.7580   20.7840 C   0  0  0  0  0  0  0  0  0  0  0  0
  -26.2050  -13.0230   20.1470 N   0  0  0  0  0  0  0  0  0  0  0  0
  -25.8650  -11.7320   20.3980 N   0  0  0  0  0  0  0  0  0  0  0  0
  -23.8790  -10.4910   20.9870 C   0  0  0  0  0  0  0  0  0  0  0  0
  -24.3500   -9.5150   21.8930 C   0  0  0  0  0  3  0  0  0  0  0  0
  -23.6360   -8.3120   22.0850 C   0  0  0  0  0  3  0  0  0  0  0  0
  -22.4370   -8.0760   21.3710 C   0  0  0  0  0  0  0  0  0  0  0  0
  -21.9850   -9.0410   20.4520 C   0  0  0  0  0  3  0  0  0  0  0  0
  -22.7000  -10.2350   20.2590 C   0  0  0  0  0  3  0  0  0  0  0  0
  -21.6890   -6.9280   21.4740 O   0  0  0  0  0  0  0  0  0  0  0  0
  -21.6720   -6.1810   22.6240 C   0  0  0  0  0  0  0  0  0  0  0  0
  -21.2450   -6.7220   23.8570 C   0  0  0  0  0  3  0  0  0  0  0  0
  -21.1770   -5.9010   25.0000 C   0  0  0  0  0  3  0  0  0  0  0  0
  -21.5240   -4.5390   24.9110 C   0  0  0  0  0  0  0  0  0  0  0  0
  -21.9420   -3.9970   23.6830 C   0  0  0  0  0  3  0  0  0  0  0  0
  -22.0140   -4.8160   22.5420 C   0  0  0  0  0  0  0  0  0  0  0  0
  -22.3980   -4.2850   21.3570 F   0  0  0  0  0  0  0  0  0  0  0  0
  -21.4500   -3.7470   26.0070 F   0  0  0  0  0  0  0  0  0  0  0  0
  -22.7520  -13.5730   21.2400 C   0  0  0  0  0  0  0  0  0  0  0  0
  -22.0760  -12.8530   22.1260 N   0  0  0  0  0  0  0  0  0  0  0  0
  -22.2840  -14.6110   20.7740 O   0  0  0  0  0  0  0  0  0  0  0  0
  -22.4690  -12.0120   22.5220 H   0  0  0  0  0  0  0  0  0  0  0  0
  -21.1510  -13.1420   22.4110 H   0  0  0  0  0  0  0  0  0  0  0  0
  -25.3240  -15.2690   20.3120 N   0  0  0  0  0  0  0  0  0  0  0  0
  -24.5600  -15.9150   20.4760 H   0  0  0  0  0  0  0  0  0  0  0  0
  -26.1560  -15.7200   19.9550 H   0  0  0  0  0  0  0  0  0  0  0  0
  1  2  1  0
  1 50  1  0
  2  5  1  0
  2  4  1  0
  3  2  1  0
  7  6  1  0
  7  8  1  0
  7  5  1  0
  9 20  2  0
 10  8  1  0
 10 15  1  0
 11 19  1  0
 11 21  1  0
 12 18  1  0
 12 14  1  0
 13 19  1  0
 14 13  1  0
 15 14  2  0
 16 17  1  0
 16 10  2  0
 17 12  2  0
 18 11  1  0
 19  9  1  0
 21 23  2  0
 22 21  1  0
 24 22  1  0
 25 34  2  0
 25 30  1  0
 26 22  1  0
 26 30  1  0
 27 26  1  0
 28 29  1  0
 28 27  1  0
 29 25  1  0
 30 31  2  0
 31 32  1  0
 33 32  2  0
 34 33  1  0
 35  9  1  0
 35 40  1  0
 35 36  1  0
 36 39  1  1
 36 37  1  0
 38 36  1  0
 40 43  1  0
 41 45  1  0
 41 40  1  0
 42 41  2  0
 45 44  1  0
 47 48  1  0
 47 45  1  0
 47 46  1  0
 50 52  1  0
 50 49  1  0
 51 52  1  0
 54 53  1  0
 54 56  1  0
 54  1  1  0
 55 56  1  0
 57 56  1  0
 57 58  1  0
 59 58  1  0
 60 65  1  0
 61 62  1  0
 61 60  1  0
 63 62  1  0
 63 70  1  0
 63 64  1  0
 65 59  1  0
 65 64  1  0
 66 59  2  0
 67 68  2  0
 68 87  1  0
 69 68  1  0
 69 72  1  0
 70 71  1  0
 70 67  1  0
 71 69  2  0
 72 73  1  0
 73 74  2  0
 75 78  1  0
 75 74  1  0
 76 75  2  0
 77 76  1  0
 77 72  2  0
 78 79  1  0
 79 80  1  0
 80 81  2  0
 82 81  1  0
 82 86  1  0
 83 82  2  0
 84 79  2  0
 84 83  1  0
 85 84  1  0
 87 88  1  0
 88 91  1  0
 88 90  1  0
 89 87  2  0
 92 67  1  0
 92 93  1  0
 94 92  1  0
M  ISO  4   7 101   8 101  58 100  59 100
M  END
>  <TORSDO>  (9) 
F 25

>  <SCORE>  (9) 
-12.070

>  <name>  (9) 
8

>  <ligand_id>  (9) 
8

>  <original_smiles>  (9) 
[H]c1c([H])c([H])c2c(c1[H])C([H])([H])C([H])([H])C([H])([H])C2([H])N([H])C(=O)C1([H])N(C(=O)C([H])(N([H])C(=O)C([H])(N([H])C([H])([H])[H])C([H])([H])[H])C(C([H])([H])[H])(C([H])([H])[H])C([H])([H])[H])C([H])([H])c2c([H])c(OC([H])(C([H])([H])[H])C([H])([H])[N+]([H])([H])C([H])(C([H])(N(C([H])([H])[H])C([H])([H])C([H])([H])C(=O)N3C([H])([H])C([H])([H])C([H])([H])C([H])(n4nc(-c5c([H])c([H])c(Oc6c([H])c([H])c(F)c([H])c6F)c([H])c5[H])c(C(=O)N([H])[H])c4N([H])[H])C3([H])[H])C([H])([H])[H])C([H])(C([H])([H])[H])C([H])([H])C([H])([H])[H])c([H])c([H])c2C1([H])[H]

>  <smiles>  (9) 
[H]c1c([H])c([H])c2c(c1[H])C([H])([H])C([H])([H])C([H])([H])C2([H])N([H])C(=O)C1([H])N(C(=O)C([H])(N([H])C(=O)C([H])(N([H])C([H])([H])[H])C([H])([H])[H])C(C([H])([H])[H])(C([H])([H])[H])C([H])([H])[H])C([H])([H])c2c([H])c(OC([H])(C([H])([H])[H])C([H])([H])[N+]([H])([H])C([H])(C([H])(N(C([H])([H])[H])C([H])([H])C([H])([H])C(=O)N3C([H])([H])C([H])([H])C([H])([H])C([H])(n4nc(-c5c([H])c([H])c(Oc6c([H])c([H])c(F)c([H])c6F)c([H])c5[H])c(C(=O)N([H])[H])c4N([H])[H])C3([H])[H])C([H])([H])[H])C([H])(C([H])([H])[H])C([H])([H])C([H])([H])[H])c([H])c([H])c2C1([H])[H]

$$$$
9:0:0
     RDKit          3D

 92100  0  0  1  0  0  0  0  0999 V2000
  -29.8420  -20.3430   23.4390 C   0  0  0  0  0  3  0  0  0  0  0  0
  -30.4750  -19.2100   22.8930 C   0  0  0  0  0  3  0  0  0  0  0  0
  -30.1710  -21.6360   22.9860 C   0  0  0  0  0  3  0  0  0  0  0  0
  -31.7790  -20.6680   21.4360 C   0  0  0  0  0  3  0  0  0  0  0  0
  -31.4420  -19.3630   21.8770 C   0  0  0  0  0  0  0  0  0  0  0  0
  -31.1450  -21.8090   21.9790 C   0  0  0  0  0  0  0  0  0  0  0  0
  -31.4710  -23.0950   21.5160 N   0  0  0  0  0  0  0  0  0  0  0  0
  -32.3830  -23.1290   21.0620 H   0  0  0  0  0  0  0  0  0  0  0  0
  -30.4160  -23.7070   20.7030 C   0  0  0  0  0  2  0  0  0  0  0  0
  -30.3770  -25.2560   20.7600 C   0  0  0  0  0  2  0  0  0  0  0  0
  -29.1440  -25.8310   20.0160 C   0  0  0  0  0  2  0  0  0  0  0  0
  -29.0710  -27.2670   20.0840 O   0  0  0  0  0  0  0  0  0  0  0  0
  -24.5110  -31.6610   23.2760 C   0  0  0  0  0  0  0  0  0  0  0  0
  -27.8100  -27.8290   20.0290 C   0  0  0  0  0  0  0  0  0  0  0  0
  -23.5420  -30.2180   21.5140 C   0  0  0  0  0  3  0  0  0  0  0  0
  -25.2240  -28.9930   20.0370 C   0  0  0  0  0  0  0  0  0  0  0  0
  -25.9940  -30.9370   21.4080 C   0  0  0  0  0  2  0  0  0  0  0  0
  -26.2850  -29.6350   20.6900 C   0  0  0  0  0  0  0  0  0  0  0  0
  -27.5780  -29.0640   20.6790 C   0  0  0  0  0  3  0  0  0  0  0  0
  -26.7310  -27.2090   19.3550 C   0  0  0  0  0  3  0  0  0  0  0  0
  -25.4440  -27.7800   19.3630 C   0  0  0  0  0  3  0  0  0  0  0  0
  -23.8690  -29.6610   20.1030 C   0  0  0  0  0  2  0  0  0  0  0  0
  -24.6970  -30.9530   22.1260 N   0  0  0  0  0  0  0  0  0  0  0  0
  -23.3920  -31.7460   23.8010 O   0  0  0  0  0  0  0  0  0  0  0  0
  -23.0170  -29.0590   22.3920 C   0  0  0  0  0  0  0  0  0  0  0  0
  -21.7480  -28.6760   22.1790 N   0  0  0  0  0  0  0  0  0  0  0  0
  -23.7520  -28.5090   23.2160 O   0  0  0  0  0  0  0  0  0  0  0  0
  -21.2080  -29.1810   21.4920 H   0  0  0  0  0  0  0  0  0  0  0  0
  -18.5980  -26.9220   22.4070 C   0  0  0  0  0  0  0  0  0  0  0  0
  -21.0550  -27.5840   22.8640 C   0  0  0  0  0  3  0  0  0  0  0  0
  -21.4300  -26.2180   22.2470 C   0  0  0  0  0  2  0  0  0  0  0  0
  -20.4620  -25.7680   21.1470 C   0  0  0  0  0  2  0  0  0  0  0  0
  -19.0360  -25.6550   21.6930 C   0  0  0  0  0  2  0  0  0  0  0  0
  -19.5440  -27.8370   22.9400 C   0  0  0  0  0  0  0  0  0  0  0  0
  -19.0810  -29.0200   23.5560 C   0  0  0  0  0  3  0  0  0  0  0  0
  -17.7030  -29.2910   23.6510 C   0  0  0  0  0  3  0  0  0  0  0  0
  -16.7690  -28.3730   23.1350 C   0  0  0  0  0  3  0  0  0  0  0  0
  -17.2180  -27.1920   22.5190 C   0  0  0  0  0  3  0  0  0  0  0  0
  -25.6860  -32.4180   23.9720 C   0  0  0  0  0  3  0  0  0  0  0  0
  -25.2350  -33.7910   24.2290 N   0  0  0  0  0  0  0  0  0  0  0  0
  -25.5380  -34.8480   23.4620 C   0  0  0  0  0  0  0  0  0  0  0  0
  -26.2950  -34.7740   22.4910 O   0  0  0  0  0  0  0  0  0  0  0  0
  -24.5640  -33.9140   24.9730 H   0  0  0  0  0  0  0  0  0  0  0  0
  -23.6940  -36.4670   22.9140 C   0  0  0  0  0  1  0  0  0  0  0  0
  -24.8990  -36.1990   23.8300 C   0  0  0  0  0  3  0  0  0  0  0  0
  -26.8690  -37.2970   24.7960 C   0  0  0  0  0  1  0  0  0  0  0  0
  -25.8440  -37.3340   23.7570 N   0  0  0  0  0  0  0  0  0  0  0  0
  -25.3500  -38.2210   23.8290 H   0  0  0  0  0  0  0  0  0  0  0  0
  -26.1630  -31.7280   25.3090 C   0  0  1  0  0  0  0  0  0  0  0  0
  -25.0110  -31.4130   26.2920 C   0  0  0  0  0  1  0  0  0  0  0  0
  -26.9020  -30.4040   25.0080 C   0  0  0  0  0  1  0  0  0  0  0  0
  -27.1780  -32.6420   26.0350 C   0  0  0  0  0  1  0  0  0  0  0  0
  -32.1170  -18.1450   21.2480 C   0  0  0  0  0  2  0  0  0  0  0  0
  -31.2040  -16.9010   21.1190 C   0  0  0  0  0  2  0  0  0  0  0  0
  -32.3520  -14.9130   20.1300 C   0  0  0  0  0  0  0  0  0  0  0  0
  -31.9240  -12.6850   19.1910 C   0  0  0  0  0  2  0  0  0  0  0  0
  -30.9840  -12.8440   17.9770 C   0  0  0  0  0  2  0  0  0  0  0  0
  -29.5070  -12.8660   18.4200 C   0  0  0  0  0  2  0  0  0  0  0  0
  -29.2390  -13.8300   19.6080 C   0  0  0  0  0  3  0  0  0  0  0  0
  -30.2830  -13.6150   20.7280 C   0  0  0  0  0  2  0  0  0  0  0  0
  -31.6170  -13.7720   20.1310 N   0  0  0  0  0  0  0  0  0  0  0  0
  -33.5320  -14.9430   19.7660 O   0  0  0  0  0  0  0  0  0  0  0  0
  -31.5650  -16.7010   18.6910 C   0  0  0  0  0  1  0  0  0  0  0  0
  -31.6010  -16.0330   20.0000 N   0  0  0  0  0  0  0  0  0  0  0  0
  -26.9560  -14.6930   20.4240 C   0  0  0  0  0  0  0  0  0  0  0  0
  -25.8080  -14.0390   20.7730 C   0  0  0  0  0  0  0  0  0  0  0  0
  -26.0930  -12.6440   20.6460 C   0  0  0  0  0  0  0  0  0  0  0  0
  -27.8750  -13.7020   20.1090 N   0  0  0  0  0  0  0  0  0  0  0  0
  -27.3590  -12.4620   20.3010 N   0  0  0  0  0  0  0  0  0  0  0  0
  -25.2190  -11.4710   20.7740 C   0  0  0  0  0  0  0  0  0  0  0  0
  -25.4940  -10.4440   21.7030 C   0  0  0  0  0  3  0  0  0  0  0  0
  -24.6330   -9.3350   21.8200 C   0  0  0  0  0  3  0  0  0  0  0  0
  -23.4790   -9.2430   21.0050 C   0  0  0  0  0  0  0  0  0  0  0  0
  -23.2210  -10.2570   20.0640 C   0  0  0  0  0  3  0  0  0  0  0  0
  -24.0840  -11.3590   19.9470 C   0  0  0  0  0  3  0  0  0  0  0  0
  -22.6000   -8.1890   21.0300 O   0  0  0  0  0  0  0  0  0  0  0  0
  -22.2710   -7.5500   22.1980 C   0  0  0  0  0  0  0  0  0  0  0  0
  -21.6760   -8.2360   23.2810 C   0  0  0  0  0  3  0  0  0  0  0  0
  -21.2950   -7.5300   24.4400 C   0  0  0  0  0  3  0  0  0  0  0  0
  -21.4970   -6.1380   24.5150 C   0  0  0  0  0  0  0  0  0  0  0  0
  -22.0810   -5.4510   23.4340 C   0  0  0  0  0  3  0  0  0  0  0  0
  -22.4650   -6.1550   22.2800 C   0  0  0  0  0  0  0  0  0  0  0  0
  -23.0100   -5.4860   21.2350 F   0  0  0  0  0  0  0  0  0  0  0  0
  -21.1210   -5.4570   25.6230 F   0  0  0  0  0  0  0  0  0  0  0  0
  -24.4870  -14.6670   21.1140 C   0  0  0  0  0  0  0  0  0  0  0  0
  -23.7070  -14.0300   21.9780 N   0  0  0  0  0  0  0  0  0  0  0  0
  -24.1590  -15.7570   20.6430 O   0  0  0  0  0  0  0  0  0  0  0  0
  -23.9790  -13.1420   22.3710 H   0  0  0  0  0  0  0  0  0  0  0  0
  -22.8240  -14.4360   22.2500 H   0  0  0  0  0  0  0  0  0  0  0  0
  -27.2920  -16.0410   20.3280 N   0  0  0  0  0  0  0  0  0  0  0  0
  -26.6210  -16.7770   20.5170 H   0  0  0  0  0  0  0  0  0  0  0  0
  -28.1960  -16.3860   20.0320 H   0  0  0  0  0  0  0  0  0  0  0  0
  2  1  2  0
  3  1  1  0
  4  5  2  0
  4  6  1  0
  5  2  1  0
  6  3  2  0
  7  6  1  0
  8  7  1  0
  9 10  1  0
  9  7  1  0
 11 12  1  0
 11 10  1  0
 13 24  2  0
 14 12  1  0
 14 19  1  0
 15 23  1  0
 15 25  1  0
 16 22  1  0
 16 18  1  0
 17 23  1  0
 18 17  1  0
 19 18  2  0
 20 21  1  0
 20 14  2  0
 21 16  2  0
 22 15  1  0
 23 13  1  0
 25 27  2  0
 26 25  1  0
 28 26  1  0
 29 38  2  0
 29 34  1  0
 30 26  1  0
 30 34  1  0
 31 30  1  0
 32 33  1  0
 32 31  1  0
 33 29  1  0
 34 35  2  0
 35 36  1  0
 37 36  2  0
 38 37  1  0
 39 13  1  0
 39 40  1  0
 39 49  1  0
 40 43  1  0
 41 45  1  0
 41 40  1  0
 42 41  2  0
 45 44  1  0
 47 48  1  0
 47 45  1  0
 47 46  1  0
 49 52  1  1
 49 50  1  0
 51 49  1  0
 53  5  1  0
 54 53  1  0
 55 61  1  0
 56 61  1  0
 57 58  1  0
 57 56  1  0
 59 58  1  0
 59 68  1  0
 59 60  1  0
 61 60  1  0
 62 55  2  0
 63 64  1  0
 64 55  1  0
 64 54  1  0
 65 66  2  0
 66 85  1  0
 67 66  1  0
 67 70  1  0
 68 69  1  0
 68 65  1  0
 69 67  2  0
 70 71  1  0
 71 72  2  0
 73 76  1  0
 73 72  1  0
 74 73  2  0
 75 74  1  0
 75 70  2  0
 76 77  1  0
 77 82  2  0
 77 78  1  0
 78 79  2  0
 79 80  1  0
 80 84  1  0
 81 80  2  0
 82 81  1  0
 83 82  1  0
 85 86  1  0
 86 89  1  0
 86 88  1  0
 87 85  2  0
 90 65  1  0
 90 91  1  0
 92 90  1  0
M  ISO  4  11 101  12 101  55 100  64 100
M  END
>  <TORSDO>  (10) 
F 22

>  <SCORE>  (10) 
-8.931

>  <name>  (10) 
9

>  <ligand_id>  (10) 
9

>  <original_smiles>  (10) 
[H]c1c([H])c(N([H])C([H])([H])C([H])([H])C([H])([H])Oc2c([H])c([H])c3c(c2[H])C([H])([H])N(C(=O)C([H])(N([H])C(=O)C([H])(N([H])C([H])([H])[H])C([H])([H])[H])C(C([H])([H])[H])(C([H])([H])[H])C([H])([H])[H])C([H])(C(=O)N([H])C2([H])c4c([H])c([H])c([H])c([H])c4C([H])([H])C([H])([H])C2([H])[H])C3([H])[H])c([H])c(C([H])([H])C([H])([H])N(C(=O)N2C([H])([H])C([H])([H])C([H])([H])C([H])(n3nc(-c4c([H])c([H])c(Oc5c([H])c([H])c(F)c([H])c5F)c([H])c4[H])c(C(=O)N([H])[H])c3N([H])[H])C2([H])[H])C([H])([H])[H])c1[H]

>  <smiles>  (10) 
[H]c1c([H])c(N([H])C([H])([H])C([H])([H])C([H])([H])Oc2c([H])c([H])c3c(c2[H])C([H])([H])N(C(=O)C([H])(N([H])C(=O)C([H])(N([H])C([H])([H])[H])C([H])([H])[H])C(C([H])([H])[H])(C([H])([H])[H])C([H])([H])[H])C([H])(C(=O)N([H])C2([H])c4c([H])c([H])c([H])c([H])c4C([H])([H])C([H])([H])C2([H])[H])C3([H])[H])c([H])c(C([H])([H])C([H])([H])N(C(=O)N2C([H])([H])C([H])([H])C([H])([H])C([H])(n3nc(-c4c([H])c([H])c(Oc5c([H])c([H])c(F)c([H])c5F)c([H])c4[H])c(C(=O)N([H])[H])c3N([H])[H])C2([H])[H])C([H])([H])[H])c1[H]

$$$$
10:0:0
     RDKit          3D

 99107  0  0  1  0  0  0  0  0999 V2000
  -29.1900  -22.1600   22.3700 C   0  0  0  0  0  2  0  0  0  0  0  0
  -32.3430  -20.6530   20.7810 C   0  0  0  0  0  3  0  0  0  0  0  0
  -30.9130  -18.8280   21.5350 C   0  0  0  0  0  3  0  0  0  0  0  0
  -31.3920  -21.5860   21.2380 C   0  0  0  0  0  3  0  0  0  0  0  0
  -29.9550  -19.7610   21.9770 C   0  0  0  0  0  3  0  0  0  0  0  0
  -32.1160  -19.2700   20.9400 C   0  0  0  0  0  0  0  0  0  0  0  0
  -30.1950  -21.1450   21.8430 C   0  0  0  0  0  0  0  0  0  0  0  0
  -33.1760  -18.2630   20.5160 C   0  0  0  0  0  2  0  0  0  0  0  0
  -32.7200  -17.4400   19.3820 N   0  0  0  0  0  4  0  0  0  0  0  0
  -32.6540  -18.0120   18.5560 H   0  0  0  0  0  0  0  0  0  0  0  0
  -31.8010  -17.1070   19.6290 H   0  0  0  0  0  0  0  0  0  0  0  0
  -33.5680  -16.2540   19.1330 C   0  0  0  0  0  2  0  0  0  0  0  0
  -32.9460  -15.2370   18.1450 C   0  0  0  0  0  2  0  0  0  0  0  0
  -31.4470  -14.8290   18.2840 C   0  0  0  0  0  2  0  0  0  0  0  0
  -30.9240  -14.4410   19.6970 C   0  0  0  0  0  0  0  0  0  0  0  0
  -30.2520  -12.2700   18.9530 C   0  0  0  0  0  2  0  0  0  0  0  0
  -29.2510  -12.4950   17.8110 C   0  0  0  0  0  2  0  0  0  0  0  0
  -27.8370  -12.4420   18.3820 C   0  0  0  0  0  2  0  0  0  0  0  0
  -27.6260  -13.3390   19.6350 C   0  0  0  0  0  3  0  0  0  0  0  0
  -28.8250  -13.2670   20.6440 C   0  0  0  0  0  2  0  0  0  0  0  0
  -30.0930  -13.3760   19.8740 N   0  0  0  0  0  0  0  0  0  0  0  0
  -31.3200  -15.1830   20.5550 O   0  0  0  0  0  0  0  0  0  0  0  0
  -25.2410  -13.8910   20.4740 C   0  0  0  0  0  0  0  0  0  0  0  0
  -24.1970  -13.0950   20.8660 C   0  0  0  0  0  0  0  0  0  0  0  0
  -24.6790  -11.7520   20.8010 C   0  0  0  0  0  0  0  0  0  0  0  0
  -26.3070  -13.0390   20.2160 N   0  0  0  0  0  0  0  0  0  0  0  0
  -25.9650  -11.7450   20.4670 N   0  0  0  0  0  0  0  0  0  0  0  0
  -23.9760  -10.4720   20.9940 C   0  0  0  0  0  0  0  0  0  0  0  0
  -24.4280   -9.5170   21.9310 C   0  0  0  0  0  3  0  0  0  0  0  0
  -23.7260   -8.3060   22.1160 C   0  0  0  0  0  3  0  0  0  0  0  0
  -22.5570   -8.0380   21.3660 C   0  0  0  0  0  0  0  0  0  0  0  0
  -22.1220   -8.9820   20.4170 C   0  0  0  0  0  3  0  0  0  0  0  0
  -22.8260  -10.1850   20.2300 C   0  0  0  0  0  3  0  0  0  0  0  0
  -21.8240   -6.8800   21.4660 O   0  0  0  0  0  0  0  0  0  0  0  0
  -21.7520   -6.1710   22.6400 C   0  0  0  0  0  0  0  0  0  0  0  0
  -21.2790   -6.7570   23.8330 C   0  0  0  0  0  3  0  0  0  0  0  0
  -21.1540   -5.9750   25.0010 C   0  0  0  0  0  3  0  0  0  0  0  0
  -21.4920   -4.6090   24.9730 C   0  0  0  0  0  0  0  0  0  0  0  0
  -21.9590   -4.0230   23.7840 C   0  0  0  0  0  3  0  0  0  0  0  0
  -22.0860   -4.8020   22.6200 C   0  0  0  0  0  0  0  0  0  0  0  0
  -22.5170   -4.2260   21.4710 F   0  0  0  0  0  0  0  0  0  0  0  0
  -21.3630   -3.8570   26.0910 F   0  0  0  0  0  0  0  0  0  0  0  0
  -22.7990  -13.5400   21.1930 C   0  0  0  0  0  0  0  0  0  0  0  0
  -22.1180  -12.8250   22.0820 N   0  0  0  0  0  0  0  0  0  0  0  0
  -22.3210  -14.5610   20.6980 O   0  0  0  0  0  0  0  0  0  0  0  0
  -22.5170  -12.0010   22.5070 H   0  0  0  0  0  0  0  0  0  0  0  0
  -21.1840  -13.1060   22.3460 H   0  0  0  0  0  0  0  0  0  0  0  0
  -25.3670  -15.2650   20.2930 N   0  0  0  0  0  0  0  0  0  0  0  0
  -24.5890  -15.8990   20.4280 H   0  0  0  0  0  0  0  0  0  0  0  0
  -26.2130  -15.7250   19.9780 H   0  0  0  0  0  0  0  0  0  0  0  0
  -28.5090  -22.8670   21.2560 N   0  0  1  0  0  4  0  0  0  0  0  0
  -29.1610  -22.8360   20.4880 H   0  0  0  0  0  0  0  0  0  0  0  0
  -26.9530  -22.4600   19.3110 C   0  0  0  0  0  1  0  0  0  0  0  0
  -27.2940  -22.1480   20.7800 C   0  0  0  0  0  2  0  0  0  0  0  0
  -28.2650  -24.3040   21.5520 C   0  0  0  0  0  2  0  0  0  0  0  0
  -29.5400  -25.1650   21.3990 C   0  0  0  0  0  2  0  0  0  0  0  0
  -30.5330  -27.5040   21.2550 C   0  0  0  0  0  1  0  0  0  0  0  0
  -29.2450  -26.6710   21.3110 C   0  0  0  0  0  3  0  0  0  0  0  0
  -28.5190  -26.8570   20.1000 O   0  0  0  0  0  0  0  0  0  0  0  0
  -24.6300  -31.9550   23.2450 C   0  0  0  0  0  0  0  0  0  0  0  0
  -27.3570  -27.5880   20.1690 C   0  0  0  0  0  0  0  0  0  0  0  0
  -23.4480  -30.5400   21.5920 C   0  0  0  0  0  3  0  0  0  0  0  0
  -24.9300  -29.0230   20.1770 C   0  0  0  0  0  0  0  0  0  0  0  0
  -25.9640  -30.9400   21.4080 C   0  0  0  0  0  2  0  0  0  0  0  0
  -26.0710  -29.5690   20.7780 C   0  0  0  0  0  0  0  0  0  0  0  0
  -27.2840  -28.8550   20.7870 C   0  0  0  0  0  3  0  0  0  0  0  0
  -26.2080  -27.0490   19.5590 C   0  0  0  0  0  3  0  0  0  0  0  0
  -24.9890  -27.7560   19.5700 C   0  0  0  0  0  3  0  0  0  0  0  0
  -23.6730  -29.8610   20.2140 C   0  0  0  0  0  2  0  0  0  0  0  0
  -24.6980  -31.1600   22.1410 N   0  0  0  0  0  0  0  0  0  0  0  0
  -23.5440  -32.2140   23.7810 O   0  0  0  0  0  0  0  0  0  0  0  0
  -22.8060  -29.5110   22.5470 C   0  0  0  0  0  0  0  0  0  0  0  0
  -21.4850  -29.3130   22.4100 N   0  0  0  0  0  0  0  0  0  0  0  0
  -23.4930  -28.8920   23.3650 O   0  0  0  0  0  0  0  0  0  0  0  0
  -20.9930  -29.8660   21.7220 H   0  0  0  0  0  0  0  0  0  0  0  0
  -18.1210  -28.0890   22.8810 C   0  0  0  0  0  0  0  0  0  0  0  0
  -20.6740  -28.3660   23.1710 C   0  0  0  0  0  3  0  0  0  0  0  0
  -20.7920  -26.9380   22.5900 C   0  0  0  0  0  2  0  0  0  0  0  0
  -19.7000  -26.6100   21.5680 C   0  0  0  0  0  2  0  0  0  0  0  0
  -18.3140  -26.7430   22.2030 C   0  0  0  0  0  2  0  0  0  0  0  0
  -19.2300  -28.8570   23.3210 C   0  0  0  0  0  0  0  0  0  0  0  0
  -18.9990  -30.1180   23.9130 C   0  0  0  0  0  3  0  0  0  0  0  0
  -17.6900  -30.6110   24.0700 C   0  0  0  0  0  3  0  0  0  0  0  0
  -16.5940  -29.8370   23.6470 C   0  0  0  0  0  3  0  0  0  0  0  0
  -16.8100  -28.5790   23.0580 C   0  0  0  0  0  3  0  0  0  0  0  0
  -25.9080  -32.5950   23.8720 C   0  0  0  0  0  3  0  0  0  0  0  0
  -25.5890  -33.9920   24.1960 N   0  0  0  0  0  0  0  0  0  0  0  0
  -25.9290  -35.0440   23.4400 C   0  0  0  0  0  0  0  0  0  0  0  0
  -26.6160  -34.9420   22.4200 O   0  0  0  0  0  0  0  0  0  0  0  0
  -24.9810  -34.1450   24.9890 H   0  0  0  0  0  0  0  0  0  0  0  0
  -24.2000  -36.8260   23.0450 C   0  0  0  0  0  1  0  0  0  0  0  0
  -25.4250  -36.4290   23.8850 C   0  0  0  0  0  3  0  0  0  0  0  0
  -27.5370  -37.3220   24.7600 C   0  0  0  0  0  1  0  0  0  0  0  0
  -26.4550  -37.4870   23.7950 N   0  0  0  0  0  0  0  0  0  0  0  0
  -26.0410  -38.4050   23.9340 H   0  0  0  0  0  0  0  0  0  0  0  0
  -26.4280  -31.8280   25.1490 C   0  0  1  0  0  0  0  0  0  0  0  0
  -25.3320  -31.5790   26.2120 C   0  0  0  0  0  1  0  0  0  0  0  0
  -27.0260  -30.4570   24.7550 C   0  0  0  0  0  1  0  0  0  0  0  0
  -27.5660  -32.6340   25.8190 C   0  0  0  0  0  1  0  0  0  0  0  0
  2  6  2  0
  2  4  1  0
  3  5  2  0
  4  7  2  0
  6  3  1  0
  7  5  1  0
  7  1  1  0
  8  6  1  0
  9 11  1  0
  9  8  1  0
 10  9  1  0
 12  9  1  0
 13 14  1  0
 13 12  1  0
 14 15  1  0
 15 21  1  0
 15 22  2  0
 16 21  1  0
 17 18  1  0
 17 16  1  0
 19 18  1  0
 19 26  1  0
 19 20  1  0
 21 20  1  0
 23 24  2  0
 24 43  1  0
 25 24  1  0
 25 28  1  0
 26 27  1  0
 26 23  1  0
 27 25  2  0
 28 29  1  0
 29 30  2  0
 31 34  1  0
 31 30  1  0
 32 31  2  0
 33 32  1  0
 33 28  2  0
 34 35  1  0
 35 36  1  0
 36 37  2  0
 38 37  1  0
 38 42  1  0
 39 38  2  0
 40 35  2  0
 40 39  1  0
 41 40  1  0
 43 44  1  0
 44 47  1  0
 44 46  1  0
 45 43  2  0
 48 49  1  0
 48 23  1  0
 50 48  1  0
 51 55  1  0
 51  1  1  0
 51 52  1  6
 53 54  1  0
 54 51  1  0
 56 55  1  0
 58 57  1  0
 58 56  1  0
 59 61  1  0
 59 58  1  0
 60 71  2  0
 61 66  1  0
 62 70  1  0
 62 72  1  0
 63 69  1  0
 63 65  1  0
 64 70  1  0
 65 66  2  0
 65 64  1  0
 67 68  1  0
 67 61  2  0
 68 63  2  0
 69 62  1  0
 70 60  1  0
 72 74  2  0
 73 72  1  0
 75 73  1  0
 76 85  2  0
 76 81  1  0
 77 73  1  0
 77 81  1  0
 78 77  1  0
 79 80  1  0
 79 78  1  0
 80 76  1  0
 81 82  2  0
 82 83  1  0
 84 83  2  0
 85 84  1  0
 86 60  1  0
 86 87  1  0
 86 96  1  0
 87 90  1  0
 88 92  1  0
 88 87  1  0
 89 88  2  0
 92 91  1  0
 94 92  1  0
 94 95  1  0
 94 93  1  0
 96 99  1  1
 96 97  1  0
 98 96  1  0
M  ISO  4  14 100  15 100  58 101  59 101
M  END
>  <TORSDO>  (11) 
F 27

>  <SCORE>  (11) 
-11.550

>  <name>  (11) 
10

>  <ligand_id>  (11) 
10

>  <original_smiles>  (11) 
[H]c1c([H])c([H])c2c(c1[H])C([H])([H])C([H])([H])C([H])([H])C2([H])N([H])C(=O)C1([H])N(C(=O)C([H])(N([H])C(=O)C([H])(N([H])C([H])([H])[H])C([H])([H])[H])C(C([H])([H])[H])(C([H])([H])[H])C([H])([H])[H])C([H])([H])c2c([H])c(OC([H])(C([H])([H])[H])C([H])([H])C([H])([H])[N+]([H])(C([H])([H])c3c([H])c([H])c(C([H])([H])[N+]([H])([H])C([H])([H])C([H])([H])C([H])([H])C(=O)N4C([H])([H])C([H])([H])C([H])([H])C([H])(n5nc(-c6c([H])c([H])c(Oc7c([H])c([H])c(F)c([H])c7F)c([H])c6[H])c(C(=O)N([H])[H])c5N([H])[H])C4([H])[H])c([H])c3[H])C([H])([H])C([H])([H])[H])c([H])c([H])c2C1([H])[H]

>  <smiles>  (11) 
[H]c1c([H])c([H])c2c(c1[H])C([H])([H])C([H])([H])C([H])([H])C2([H])N([H])C(=O)C1([H])N(C(=O)C([H])(N([H])C(=O)C([H])(N([H])C([H])([H])[H])C([H])([H])[H])C(C([H])([H])[H])(C([H])([H])[H])C([H])([H])[H])C([H])([H])c2c([H])c(OC([H])(C([H])([H])[H])C([H])([H])C([H])([H])[N+]([H])(C([H])([H])c3c([H])c([H])c(C([H])([H])[N+]([H])([H])C([H])([H])C([H])([H])C([H])([H])C(=O)N4C([H])([H])C([H])([H])C([H])([H])C([H])(n5nc(-c6c([H])c([H])c(Oc7c([H])c([H])c(F)c([H])c7F)c([H])c6[H])c(C(=O)N([H])[H])c5N([H])[H])C4([H])[H])c([H])c3[H])C([H])([H])C([H])([H])[H])c([H])c([H])c2C1([H])[H]

$$$$
11:0:0
     RDKit          3D

 93101  0  0  1  0  0  0  0  0999 V2000
  -30.5110  -24.3180   21.6700 C   0  0  0  0  0  3  0  0  0  0  0  0
  -28.3040  -24.2920   22.6900 C   0  0  0  0  0  3  0  0  0  0  0  0
  -30.0950  -25.3430   20.8010 C   0  0  0  0  0  3  0  0  0  0  0  0
  -27.8890  -25.3240   21.8230 C   0  0  0  0  0  3  0  0  0  0  0  0
  -29.6090  -23.7670   22.6060 C   0  0  0  0  0  0  0  0  0  0  0  0
  -28.7830  -25.8460   20.8580 C   0  0  0  0  0  0  0  0  0  0  0  0
  -29.9710  -22.7110   23.4540 N   0  0  0  0  0  0  0  0  0  0  0  0
  -29.2530  -22.3960   24.1010 H   0  0  0  0  0  0  0  0  0  0  0  0
  -30.8620  -21.6760   22.9330 C   0  0  0  0  0  2  0  0  0  0  0  0
  -30.2260  -20.2810   23.0160 C   0  0  0  0  0  2  0  0  0  0  0  0
  -31.0680  -19.2180   22.2850 C   0  0  0  0  0  2  0  0  0  0  0  0
  -30.4240  -17.8880   22.3040 N   0  0  0  0  0  4  0  0  0  0  0  0
  -30.4190  -17.5420   23.2510 H   0  0  0  0  0  0  0  0  0  0  0  0
  -29.4670  -18.0000   22.0110 H   0  0  0  0  0  0  0  0  0  0  0  0
  -31.0750  -16.8950   21.4210 C   0  0  0  0  0  2  0  0  0  0  0  0
  -30.3180  -15.5500   21.3970 C   0  0  0  0  0  2  0  0  0  0  0  0
  -30.8320  -14.5660   20.3330 C   0  0  0  0  0  0  0  0  0  0  0  0
  -30.4360  -12.5400   18.9720 C   0  0  0  0  0  2  0  0  0  0  0  0
  -29.4310  -12.8350   17.8410 C   0  0  0  0  0  2  0  0  0  0  0  0
  -27.9800  -12.6750   18.3400 C   0  0  0  0  0  2  0  0  0  0  0  0
  -27.7200  -13.4320   19.6690 C   0  0  0  0  0  3  0  0  0  0  0  0
  -28.8230  -13.1070   20.7010 C   0  0  0  0  0  2  0  0  0  0  0  0
  -30.1240  -13.4320   20.0960 N   0  0  0  0  0  0  0  0  0  0  0  0
  -31.8560  -14.8490   19.7010 O   0  0  0  0  0  0  0  0  0  0  0  0
  -25.3430  -14.0160   20.4750 C   0  0  0  0  0  0  0  0  0  0  0  0
  -24.2950  -13.2300   20.8760 C   0  0  0  0  0  0  0  0  0  0  0  0
  -24.7640  -11.8840   20.8080 C   0  0  0  0  0  0  0  0  0  0  0  0
  -26.3860  -13.1450   20.1940 N   0  0  0  0  0  0  0  0  0  0  0  0
  -26.0410  -11.8570   20.4470 N   0  0  0  0  0  0  0  0  0  0  0  0
  -24.0560  -10.6130   21.0090 C   0  0  0  0  0  0  0  0  0  0  0  0
  -24.5230   -9.6460   21.9260 C   0  0  0  0  0  3  0  0  0  0  0  0
  -23.8150   -8.4380   22.1160 C   0  0  0  0  0  3  0  0  0  0  0  0
  -22.6280   -8.1910   21.3890 C   0  0  0  0  0  0  0  0  0  0  0  0
  -22.1800   -9.1470   20.4610 C   0  0  0  0  0  3  0  0  0  0  0  0
  -22.8880  -10.3450   20.2690 C   0  0  0  0  0  3  0  0  0  0  0  0
  -21.8880   -7.0360   21.4880 O   0  0  0  0  0  0  0  0  0  0  0  0
  -21.8560   -6.3000   22.6450 C   0  0  0  0  0  0  0  0  0  0  0  0
  -21.4430   -6.8620   23.8730 C   0  0  0  0  0  3  0  0  0  0  0  0
  -21.3590   -6.0520   25.0240 C   0  0  0  0  0  3  0  0  0  0  0  0
  -21.6750   -4.6830   24.9470 C   0  0  0  0  0  0  0  0  0  0  0  0
  -22.0820   -4.1220   23.7240 C   0  0  0  0  0  3  0  0  0  0  0  0
  -22.1690   -4.9280   22.5750 C   0  0  0  0  0  0  0  0  0  0  0  0
  -22.5400   -4.3780   21.3940 F   0  0  0  0  0  0  0  0  0  0  0  0
  -21.5870   -3.9020   26.0500 F   0  0  0  0  0  0  0  0  0  0  0  0
  -22.9060  -13.6920   21.2120 C   0  0  0  0  0  0  0  0  0  0  0  0
  -22.2200  -12.9790   22.0990 N   0  0  0  0  0  0  0  0  0  0  0  0
  -22.4380  -14.7200   20.7240 O   0  0  0  0  0  0  0  0  0  0  0  0
  -22.6110  -12.1470   22.5150 H   0  0  0  0  0  0  0  0  0  0  0  0
  -21.2900  -13.2710   22.3660 H   0  0  0  0  0  0  0  0  0  0  0  0
  -25.4900  -15.3900   20.3090 N   0  0  0  0  0  0  0  0  0  0  0  0
  -24.7220  -16.0370   20.4510 H   0  0  0  0  0  0  0  0  0  0  0  0
  -26.3210  -15.8370   19.9430 H   0  0  0  0  0  0  0  0  0  0  0  0
  -28.4460  -26.8160   19.9440 O   0  0  0  0  0  0  0  0  0  0  0  0
  -24.6240  -31.8470   23.2170 C   0  0  0  0  0  0  0  0  0  0  0  0
  -27.2600  -27.4940   20.0450 C   0  0  0  0  0  0  0  0  0  0  0  0
  -23.4010  -30.4540   21.5750 C   0  0  0  0  0  3  0  0  0  0  0  0
  -24.8450  -28.9400   20.1180 C   0  0  0  0  0  0  0  0  0  0  0  0
  -25.9160  -30.8430   21.3420 C   0  0  0  0  0  2  0  0  0  0  0  0
  -26.0030  -29.4780   20.6950 C   0  0  0  0  0  0  0  0  0  0  0  0
  -27.2150  -28.7590   20.6630 C   0  0  0  0  0  3  0  0  0  0  0  0
  -26.0930  -26.9560   19.4670 C   0  0  0  0  0  3  0  0  0  0  0  0
  -24.8810  -27.6740   19.5070 C   0  0  0  0  0  3  0  0  0  0  0  0
  -23.5950  -29.7870   20.1870 C   0  0  0  0  0  2  0  0  0  0  0  0
  -24.6660  -31.0620   22.1040 N   0  0  0  0  0  0  0  0  0  0  0  0
  -23.5510  -32.1050   23.7780 O   0  0  0  0  0  0  0  0  0  0  0  0
  -22.7730  -29.4190   22.5350 C   0  0  0  0  0  0  0  0  0  0  0  0
  -21.4510  -29.2210   22.4150 N   0  0  0  0  0  0  0  0  0  0  0  0
  -23.4730  -28.7950   23.3390 O   0  0  0  0  0  0  0  0  0  0  0  0
  -20.9500  -29.7770   21.7360 H   0  0  0  0  0  0  0  0  0  0  0  0
  -18.0990  -27.9680   22.9070 C   0  0  0  0  0  0  0  0  0  0  0  0
  -20.6510  -28.2690   23.1830 C   0  0  0  0  0  3  0  0  0  0  0  0
  -20.7800  -26.8420   22.6050 C   0  0  0  0  0  2  0  0  0  0  0  0
  -19.6850  -26.5010   21.5900 C   0  0  0  0  0  2  0  0  0  0  0  0
  -18.2990  -26.6220   22.2320 C   0  0  0  0  0  2  0  0  0  0  0  0
  -19.2040  -28.7490   23.3390 C   0  0  0  0  0  0  0  0  0  0  0  0
  -18.9630  -30.0080   23.9290 C   0  0  0  0  0  3  0  0  0  0  0  0
  -17.6510  -30.4890   24.0920 C   0  0  0  0  0  3  0  0  0  0  0  0
  -16.5600  -29.7060   23.6750 C   0  0  0  0  0  3  0  0  0  0  0  0
  -16.7840  -28.4480   23.0890 C   0  0  0  0  0  3  0  0  0  0  0  0
  -25.9170  -32.4760   23.8250 C   0  0  0  0  0  3  0  0  0  0  0  0
  -25.6070  -33.8670   24.1790 N   0  0  0  0  0  0  0  0  0  0  0  0
  -25.9290  -34.9310   23.4310 C   0  0  0  0  0  0  0  0  0  0  0  0
  -26.5920  -34.8460   22.3930 O   0  0  0  0  0  0  0  0  0  0  0  0
  -25.0170  -34.0080   24.9860 H   0  0  0  0  0  0  0  0  0  0  0  0
  -24.1940  -36.7230   23.1070 C   0  0  0  0  0  1  0  0  0  0  0  0
  -25.4380  -36.3110   23.9100 C   0  0  0  0  0  3  0  0  0  0  0  0
  -27.5720  -37.1870   24.7520 C   0  0  0  0  0  1  0  0  0  0  0  0
  -26.4670  -37.3670   23.8130 N   0  0  0  0  0  0  0  0  0  0  0  0
  -26.0610  -38.2840   23.9770 H   0  0  0  0  0  0  0  0  0  0  0  0
  -26.4650  -31.6880   25.0770 C   0  0  1  0  0  0  0  0  0  0  0  0
  -25.3940  -31.4240   26.1620 C   0  0  0  0  0  1  0  0  0  0  0  0
  -27.0500  -30.3210   24.6500 C   0  0  0  0  0  1  0  0  0  0  0  0
  -27.6220  -32.4790   25.7310 C   0  0  0  0  0  1  0  0  0  0  0  0
  1  5  1  0
  3  6  1  0
  3  1  2  0
  4  2  1  0
  5  2  2  0
  5  7  1  0
  6  4  2  0
  7  8  1  0
  9 10  1  0
  9  7  1  0
 11 12  1  0
 11 10  1  0
 12 13  1  0
 14 12  1  0
 15 12  1  0
 16 15  1  0
 17 16  1  0
 18 23  1  0
 19 20  1  0
 19 18  1  0
 21 20  1  0
 21 28  1  0
 21 22  1  0
 23 17  1  0
 23 22  1  0
 24 17  2  0
 25 26  2  0
 26 45  1  0
 27 26  1  0
 27 30  1  0
 28 29  1  0
 28 25  1  0
 29 27  2  0
 30 31  1  0
 31 32  2  0
 33 36  1  0
 33 32  1  0
 34 33  2  0
 35 34  1  0
 35 30  2  0
 36 37  1  0
 37 38  1  0
 38 39  2  0
 40 39  1  0
 40 44  1  0
 41 40  2  0
 42 37  2  0
 42 41  1  0
 43 42  1  0
 45 46  1  0
 46 49  1  0
 46 48  1  0
 47 45  2  0
 50 51  1  0
 50 25  1  0
 52 50  1  0
 53 55  1  0
 53  6  1  0
 54 65  2  0
 55 60  1  0
 56 64  1  0
 56 66  1  0
 57 63  1  0
 57 59  1  0
 58 64  1  0
 59 58  1  0
 60 59  2  0
 61 62  1  0
 61 55  2  0
 62 57  2  0
 63 56  1  0
 64 54  1  0
 66 68  2  0
 67 66  1  0
 69 67  1  0
 70 79  2  0
 70 75  1  0
 71 67  1  0
 71 75  1  0
 72 71  1  0
 73 74  1  0
 73 72  1  0
 74 70  1  0
 75 76  2  0
 76 77  1  0
 78 77  2  0
 79 78  1  0
 80 54  1  0
 80 81  1  0
 80 90  1  0
 81 84  1  0
 82 86  1  0
 82 81  1  0
 83 82  2  0
 86 85  1  0
 88 86  1  0
 88 89  1  0
 88 87  1  0
 90 93  1  1
 90 91  1  0
 92 90  1  0
M  ISO  4   6 101  16 100  17 100  53 101
M  END
>  <TORSDO>  (12) 
F 23

>  <SCORE>  (12) 
-12.419

>  <name>  (12) 
11

>  <ligand_id>  (12) 
11

>  <original_smiles>  (12) 
[H]c1c([H])c([H])c2c(c1[H])C([H])([H])C([H])([H])C([H])([H])C2([H])N([H])C(=O)C1([H])N(C(=O)C([H])(N([H])C(=O)C([H])(N([H])C([H])([H])[H])C([H])([H])[H])C(C([H])([H])[H])(C([H])([H])[H])C([H])([H])[H])C([H])([H])c2c([H])c(Oc3c([H])c([H])c(N([H])C([H])([H])C([H])([H])C([H])([H])[N+]([H])([H])C([H])([H])C([H])([H])C(=O)N4C([H])([H])C([H])([H])C([H])([H])C([H])(n5nc(-c6c([H])c([H])c(Oc7c([H])c([H])c(F)c([H])c7F)c([H])c6[H])c(C(=O)N([H])[H])c5N([H])[H])C4([H])[H])c([H])c3[H])c([H])c([H])c2C1([H])[H]

>  <smiles>  (12) 
[H]c1c([H])c([H])c2c(c1[H])C([H])([H])C([H])([H])C([H])([H])C2([H])N([H])C(=O)C1([H])N(C(=O)C([H])(N([H])C(=O)C([H])(N([H])C([H])([H])[H])C([H])([H])[H])C(C([H])([H])[H])(C([H])([H])[H])C([H])([H])[H])C([H])([H])c2c([H])c(Oc3c([H])c([H])c(N([H])C([H])([H])C([H])([H])C([H])([H])[N+]([H])([H])C([H])([H])C([H])([H])C(=O)N4C([H])([H])C([H])([H])C([H])([H])C([H])(n5nc(-c6c([H])c([H])c(Oc7c([H])c([H])c(F)c([H])c7F)c([H])c6[H])c(C(=O)N([H])[H])c5N([H])[H])C4([H])[H])c([H])c3[H])c([H])c([H])c2C1([H])[H]

$$$$
12:0:0
     RDKit          3D

 97105  0  0  1  0  0  0  0  0999 V2000
  -30.9480  -20.0390   20.6480 C   0  0  0  0  0  3  0  0  0  0  0  0
  -30.1360  -21.0080   20.0600 C   0  0  0  0  0  3  0  0  0  0  0  0
  -30.4250  -18.7620   20.8900 C   0  0  0  0  0  3  0  0  0  0  0  0
  -28.2490  -19.4470   20.0940 C   0  0  0  0  0  3  0  0  0  0  0  0
  -28.7970  -20.7030   19.7110 C   0  0  0  0  0  0  0  0  0  0  0  0
  -29.0600  -18.4630   20.6880 C   0  0  0  0  0  0  0  0  0  0  0  0
  -28.5010  -17.2170   21.0610 N   0  0  0  0  0  0  0  0  0  0  0  0
  -27.4950  -17.0760   21.0390 H   0  0  0  0  0  0  0  0  0  0  0  0
  -29.3560  -16.0570   21.3120 C   0  0  0  0  0  2  0  0  0  0  0  0
  -30.5710  -16.4070   22.2130 C   0  0  0  0  0  2  0  0  0  0  0  0
  -31.7660  -15.4280   22.1580 C   0  0  0  0  0  2  0  0  0  0  0  0
  -32.2030  -14.8000   20.8110 C   0  0  0  0  0  2  0  0  0  0  0  0
  -31.2460  -13.1240   19.2080 C   0  0  0  0  0  0  0  0  0  0  0  0
  -30.6190  -10.8460   18.4620 C   0  0  0  0  0  2  0  0  0  0  0  0
  -29.4720  -10.8200   17.4280 C   0  0  0  0  0  2  0  0  0  0  0  0
  -28.0840  -10.8990   18.0820 C   0  0  0  0  0  2  0  0  0  0  0  0
  -27.9970  -12.0560   19.1020 C   0  0  0  0  0  3  0  0  0  0  0  0
  -29.1880  -12.0230   20.0770 C   0  0  0  0  0  2  0  0  0  0  0  0
  -30.4420  -12.0390   19.3030 N   0  0  0  0  0  0  0  0  0  0  0  0
  -32.0450  -13.3320   18.2830 O   0  0  0  0  0  0  0  0  0  0  0  0
  -31.2380  -13.8190   20.3500 N   0  0  0  0  0  0  0  0  0  0  0  0
  -30.6040  -13.4190   21.0260 H   0  0  0  0  0  0  0  0  0  0  0  0
  -25.9030  -13.0550   20.2130 C   0  0  0  0  0  0  0  0  0  0  0  0
  -24.7920  -12.4560   20.7700 C   0  0  0  0  0  0  0  0  0  0  0  0
  -25.0170  -11.0420   20.6870 C   0  0  0  0  0  0  0  0  0  0  0  0
  -26.7220  -12.0110   19.8140 N   0  0  0  0  0  0  0  0  0  0  0  0
  -26.2080  -10.8000   20.1430 N   0  0  0  0  0  0  0  0  0  0  0  0
  -24.1220   -9.9130   20.9750 C   0  0  0  0  0  0  0  0  0  0  0  0
  -24.5150   -8.8660   21.8390 C   0  0  0  0  0  3  0  0  0  0  0  0
  -23.6150   -7.8100   22.1290 C   0  0  0  0  0  3  0  0  0  0  0  0
  -22.3140   -7.8130   21.5740 C   0  0  0  0  0  0  0  0  0  0  0  0
  -21.9460   -8.8360   20.6760 C   0  0  0  0  0  3  0  0  0  0  0  0
  -22.8390   -9.8840   20.3840 C   0  0  0  0  0  3  0  0  0  0  0  0
  -21.3930   -6.8110   21.7900 O   0  0  0  0  0  0  0  0  0  0  0  0
  -21.4000   -6.0670   22.9400 C   0  0  0  0  0  0  0  0  0  0  0  0
  -21.2580   -6.6590   24.2210 C   0  0  0  0  0  3  0  0  0  0  0  0
  -21.2070   -5.8420   25.3700 C   0  0  0  0  0  3  0  0  0  0  0  0
  -21.2710   -4.4450   25.2500 C   0  0  0  0  0  0  0  0  0  0  0  0
  -21.3960   -3.8580   23.9830 C   0  0  0  0  0  3  0  0  0  0  0  0
  -21.4720   -4.6610   22.8350 C   0  0  0  0  0  0  0  0  0  0  0  0
  -21.5780   -4.0860   21.6170 F   0  0  0  0  0  0  0  0  0  0  0  0
  -21.2250   -3.6660   26.3600 F   0  0  0  0  0  0  0  0  0  0  0  0
  -23.5430  -13.1460   21.2610 C   0  0  0  0  0  0  0  0  0  0  0  0
  -22.8680  -12.5600   22.2460 N   0  0  0  0  0  0  0  0  0  0  0  0
  -23.1690  -14.2240   20.7950 O   0  0  0  0  0  0  0  0  0  0  0  0
  -23.1400  -11.6460   22.5890 H   0  0  0  0  0  0  0  0  0  0  0  0
  -22.0490  -13.0060   22.6230 H   0  0  0  0  0  0  0  0  0  0  0  0
  -26.2590  -14.3700   19.9810 N   0  0  0  0  0  0  0  0  0  0  0  0
  -26.7480  -14.4280   19.0940 H   0  0  0  0  0  0  0  0  0  0  0  0
  -26.9410  -14.7450   20.6430 H   0  0  0  0  0  0  0  0  0  0  0  0
  -28.0600  -21.6780   18.8080 C   0  0  0  0  0  2  0  0  0  0  0  0
  -25.8650  -22.2740   19.9650 C   0  0  0  0  0  1  0  0  0  0  0  0
  -27.2240  -22.6890   19.4930 N   0  0  1  0  0  4  0  0  0  0  0  0
  -26.8970  -23.2080   18.6980 H   0  0  0  0  0  0  0  0  0  0  0  0
  -27.9930  -23.7260   20.2740 C   0  0  0  0  0  2  0  0  0  0  0  0
  -28.1430  -24.9980   19.3680 C   0  0  0  0  0  2  0  0  0  0  0  0
  -28.5360  -26.3540   19.7990 O   0  0  0  0  0  0  0  0  0  0  0  0
  -24.9930  -31.5350   23.1740 C   0  0  0  0  0  0  0  0  0  0  0  0
  -27.5250  -27.3030   19.6940 C   0  0  0  0  0  0  0  0  0  0  0  0
  -23.7910  -30.3120   21.4010 C   0  0  0  0  0  3  0  0  0  0  0  0
  -25.2300  -28.9570   19.8120 C   0  0  0  0  0  0  0  0  0  0  0  0
  -26.3260  -30.6250   21.2790 C   0  0  0  0  0  2  0  0  0  0  0  0
  -26.3860  -29.3170   20.5130 C   0  0  0  0  0  0  0  0  0  0  0  0
  -27.5250  -28.4730   20.4990 C   0  0  0  0  0  3  0  0  0  0  0  0
  -26.4030  -27.0990   18.8440 C   0  0  0  0  0  3  0  0  0  0  0  0
  -25.2400  -27.8560   18.9550 C   0  0  0  0  0  3  0  0  0  0  0  0
  -24.0010  -29.8200   19.9480 C   0  0  0  0  0  2  0  0  0  0  0  0
  -25.0540  -30.8380   22.0050 N   0  0  0  0  0  0  0  0  0  0  0  0
  -23.9100  -31.7600   23.7240 O   0  0  0  0  0  0  0  0  0  0  0  0
  -23.1440  -29.1860   22.2390 C   0  0  0  0  0  0  0  0  0  0  0  0
  -21.8160  -29.0320   22.1180 N   0  0  0  0  0  0  0  0  0  0  0  0
  -23.8320  -28.4700   22.9740 O   0  0  0  0  0  0  0  0  0  0  0  0
  -21.3140  -29.6670   21.5120 H   0  0  0  0  0  0  0  0  0  0  0  0
  -18.4320  -27.8330   22.5560 C   0  0  0  0  0  0  0  0  0  0  0  0
  -21.0000  -28.0210   22.7970 C   0  0  0  0  0  3  0  0  0  0  0  0
  -21.0650  -26.6610   22.0600 C   0  0  0  0  0  2  0  0  0  0  0  0
  -19.9380  -26.4730   21.0430 C   0  0  0  0  0  2  0  0  0  0  0  0
  -18.5720  -26.5660   21.7310 C   0  0  0  0  0  2  0  0  0  0  0  0
  -19.5720  -28.5230   23.0460 C   0  0  0  0  0  0  0  0  0  0  0  0
  -19.3890  -29.7160   23.7780 C   0  0  0  0  0  3  0  0  0  0  0  0
  -18.0970  -30.2150   24.0270 C   0  0  0  0  0  3  0  0  0  0  0  0
  -16.9710  -29.5180   23.5520 C   0  0  0  0  0  3  0  0  0  0  0  0
  -17.1390  -28.3280   22.8230 C   0  0  0  0  0  3  0  0  0  0  0  0
  -26.2770  -32.1050   23.8480 C   0  0  0  0  0  3  0  0  0  0  0  0
  -26.7920  -31.2200   25.0500 C   0  0  1  0  0  0  0  0  0  0  0  0
  -25.6930  -30.8880   26.0860 C   0  0  0  0  0  1  0  0  0  0  0  0
  -27.3750  -29.8810   24.5350 C   0  0  0  0  0  1  0  0  0  0  0  0
  -27.9410  -31.9480   25.7820 C   0  0  0  0  0  1  0  0  0  0  0  0
  -25.9690  -33.4700   24.3000 N   0  0  0  0  0  0  0  0  0  0  0  0
  -26.3140  -34.5850   23.6440 C   0  0  0  0  0  0  0  0  0  0  0  0
  -26.9960  -34.5730   22.6160 O   0  0  0  0  0  0  0  0  0  0  0  0
  -25.3680  -33.5510   25.1060 H   0  0  0  0  0  0  0  0  0  0  0  0
  -24.6000  -36.4140   23.4220 C   0  0  0  0  0  1  0  0  0  0  0  0
  -25.8220  -35.9270   24.2170 C   0  0  0  0  0  3  0  0  0  0  0  0
  -27.9430  -36.7170   25.1690 C   0  0  0  0  0  1  0  0  0  0  0  0
  -26.8600  -36.9780   24.2240 N   0  0  0  0  0  0  0  0  0  0  0  0
  -26.4530  -37.8810   24.4480 H   0  0  0  0  0  0  0  0  0  0  0  0
  1  3  1  0
  2  1  2  0
  4  6  1  0
  5  2  1  0
  5  4  2  0
  6  3  2  0
  6  7  1  0
  7  9  1  0
  8  7  1  0
  9 10  1  0
 11 10  1  0
 12 11  1  0
 13 19  1  0
 13 21  1  0
 14 19  1  0
 15 16  1  0
 15 14  1  0
 17 16  1  0
 17 26  1  0
 17 18  1  0
 19 18  1  0
 20 13  2  0
 21 12  1  0
 21 22  1  0
 23 24  2  0
 24 43  1  0
 25 24  1  0
 25 28  1  0
 26 27  1  0
 26 23  1  0
 27 25  2  0
 28 29  1  0
 29 30  2  0
 31 34  1  0
 31 30  1  0
 32 31  2  0
 33 32  1  0
 33 28  2  0
 34 35  1  0
 35 36  1  0
 36 37  2  0
 38 37  1  0
 38 42  1  0
 39 38  2  0
 40 35  2  0
 40 39  1  0
 41 40  1  0
 43 44  1  0
 44 46  1  0
 44 47  1  0
 45 43  2  0
 48 23  1  0
 48 50  1  0
 49 48  1  0
 51 53  1  0
 51  5  1  0
 53 52  1  0
 53 55  1  0
 53 54  1  6
 56 57  1  0
 56 55  1  0
 58 69  2  0
 59 57  1  0
 59 64  1  0
 60 68  1  0
 60 70  1  0
 61 67  1  0
 61 63  1  0
 62 68  1  0
 63 62  1  0
 64 63  2  0
 65 66  1  0
 65 59  2  0
 66 61  2  0
 67 60  1  0
 68 58  1  0
 70 72  2  0
 71 70  1  0
 73 71  1  0
 74 83  2  0
 74 79  1  0
 75 71  1  0
 75 79  1  0
 76 75  1  0
 77 78  1  0
 77 76  1  0
 78 74  1  0
 79 80  2  0
 80 81  1  0
 82 81  2  0
 83 82  1  0
 84 58  1  0
 84 89  1  0
 84 85  1  0
 85 88  1  1
 85 86  1  0
 87 85  1  0
 89 92  1  0
 90 94  1  0
 90 89  1  0
 91 90  2  0
 94 93  1  0
 94 96  1  0
 96 97  1  0
 96 95  1  0
M  ISO  4  13 100  21 100  56 101  57 101
M  END
>  <TORSDO>  (13) 
F 25

>  <SCORE>  (13) 
-7.798

>  <name>  (13) 
12

>  <ligand_id>  (13) 
12

>  <original_smiles>  (13) 
[H]c1c([H])c([H])c2c(c1[H])C([H])([H])C([H])([H])C([H])([H])C2([H])N([H])C(=O)C1([H])N(C(=O)C([H])(N([H])C(=O)C([H])(N([H])C([H])([H])[H])C([H])([H])[H])C(C([H])([H])[H])(C([H])([H])[H])C([H])([H])[H])C([H])([H])c2c([H])c(OC([H])([H])C([H])([H])[N+]([H])(C([H])([H])[H])C([H])([H])c3c([H])c([H])c([H])c(N([H])C([H])([H])C([H])([H])C([H])([H])C([H])([H])N([H])C(=O)N4C([H])([H])C([H])([H])C([H])([H])C([H])(n5nc(-c6c([H])c([H])c(Oc7c([H])c([H])c(F)c([H])c7F)c([H])c6[H])c(C(=O)N([H])[H])c5N([H])[H])C4([H])[H])c3[H])c([H])c([H])c2C1([H])[H]

>  <smiles>  (13) 
[H]c1c([H])c([H])c2c(c1[H])C([H])([H])C([H])([H])C([H])([H])C2([H])N([H])C(=O)C1([H])N(C(=O)C([H])(N([H])C(=O)C([H])(N([H])C([H])([H])[H])C([H])([H])[H])C(C([H])([H])[H])(C([H])([H])[H])C([H])([H])[H])C([H])([H])c2c([H])c(OC([H])([H])C([H])([H])[N+]([H])(C([H])([H])[H])C([H])([H])c3c([H])c([H])c([H])c(N([H])C([H])([H])C([H])([H])C([H])([H])C([H])([H])N([H])C(=O)N4C([H])([H])C([H])([H])C([H])([H])C([H])(n5nc(-c6c([H])c([H])c(Oc7c([H])c([H])c(F)c([H])c7F)c([H])c6[H])c(C(=O)N([H])[H])c5N([H])[H])C4([H])[H])c3[H])c([H])c([H])c2C1([H])[H]

$$$$
13:0:0
     RDKit          3D

 96104  0  0  1  0  0  0  0  0999 V2000
  -26.5760  -21.7460   20.9570 C   0  0  0  0  0  2  0  0  0  0  0  0
  -27.7870  -21.6770   18.7680 C   0  0  0  0  0  2  0  0  0  0  0  0
  -27.4810  -22.9250   21.3890 C   0  0  0  0  0  2  0  0  0  0  0  0
  -28.7470  -22.7630   19.2860 C   0  0  0  0  0  2  0  0  0  0  0  0
  -27.2280  -20.8050   19.9200 C   0  0  0  0  0  3  0  0  0  0  0  0
  -28.0290  -23.6740   20.2240 N   0  0  2  0  0  4  0  0  0  0  0  0
  -27.2250  -24.0180   19.7190 H   0  0  0  0  0  0  0  0  0  0  0  0
  -28.2210  -19.8720   20.5300 N   0  0  0  0  0  4  0  0  0  0  0  0
  -27.8590  -19.5820   21.4260 H   0  0  0  0  0  0  0  0  0  0  0  0
  -29.0990  -20.3320   20.7010 H   0  0  0  0  0  0  0  0  0  0  0  0
  -28.4930  -18.6410   19.7520 C   0  0  0  0  0  2  0  0  0  0  0  0
  -29.1470  -17.5150   20.5840 C   0  0  0  0  0  2  0  0  0  0  0  0
  -29.6370  -16.4000   19.6380 C   0  0  0  0  0  2  0  0  0  0  0  0
  -30.8450  -14.3620   19.3770 C   0  0  0  0  0  0  0  0  0  0  0  0
  -30.4390  -12.1200   18.4290 C   0  0  0  0  0  2  0  0  0  0  0  0
  -29.3160  -12.1690   17.3760 C   0  0  0  0  0  2  0  0  0  0  0  0
  -27.9350  -12.0130   18.0410 C   0  0  0  0  0  2  0  0  0  0  0  0
  -27.7460  -12.9810   19.2370 C   0  0  0  0  0  3  0  0  0  0  0  0
  -28.9580  -12.9010   20.1920 C   0  0  0  0  0  2  0  0  0  0  0  0
  -30.1840  -13.1770   19.4180 N   0  0  0  0  0  0  0  0  0  0  0  0
  -31.7490  -14.6070   18.5650 O   0  0  0  0  0  0  0  0  0  0  0  0
  -30.4050  -15.3010   20.2430 N   0  0  0  0  0  0  0  0  0  0  0  0
  -25.5890  -13.6310   20.4870 C   0  0  0  0  0  0  0  0  0  0  0  0
  -24.5550  -12.8760   20.9760 C   0  0  0  0  0  0  0  0  0  0  0  0
  -24.8890  -11.5180   20.6880 C   0  0  0  0  0  0  0  0  0  0  0  0
  -26.4920  -12.7290   19.9430 N   0  0  0  0  0  0  0  0  0  0  0  0
  -26.0830  -11.4480   20.1150 N   0  0  0  0  0  0  0  0  0  0  0  0
  -24.1140  -10.2850   20.8730 C   0  0  0  0  0  0  0  0  0  0  0  0
  -24.5010   -9.3070   21.8160 C   0  0  0  0  0  3  0  0  0  0  0  0
  -23.7330   -8.1350   21.9880 C   0  0  0  0  0  3  0  0  0  0  0  0
  -22.5640   -7.9340   21.2150 C   0  0  0  0  0  0  0  0  0  0  0  0
  -22.1980   -8.9000   20.2600 C   0  0  0  0  0  3  0  0  0  0  0  0
  -22.9670  -10.0630   20.0870 C   0  0  0  0  0  3  0  0  0  0  0  0
  -21.7680   -6.8170   21.2970 O   0  0  0  0  0  0  0  0  0  0  0  0
  -21.5000   -6.2100   22.4980 C   0  0  0  0  0  0  0  0  0  0  0  0
  -20.8510   -6.8920   23.5520 C   0  0  0  0  0  3  0  0  0  0  0  0
  -20.5340   -6.2080   24.7410 C   0  0  0  0  0  3  0  0  0  0  0  0
  -20.8560   -4.8450   24.8780 C   0  0  0  0  0  0  0  0  0  0  0  0
  -21.4970   -4.1630   23.8290 C   0  0  0  0  0  3  0  0  0  0  0  0
  -21.8170   -4.8440   22.6410 C   0  0  0  0  0  0  0  0  0  0  0  0
  -22.4140   -4.1770   21.6240 F   0  0  0  0  0  0  0  0  0  0  0  0
  -20.5440   -4.1850   26.0180 F   0  0  0  0  0  0  0  0  0  0  0  0
  -23.2830  -13.3900   21.5860 C   0  0  0  0  0  0  0  0  0  0  0  0
  -22.7130  -12.6530   22.5350 N   0  0  0  0  0  0  0  0  0  0  0  0
  -22.8080  -14.4750   21.2550 O   0  0  0  0  0  0  0  0  0  0  0  0
  -23.1090  -11.7680   22.8170 H   0  0  0  0  0  0  0  0  0  0  0  0
  -21.8640  -12.9770   22.9760 H   0  0  0  0  0  0  0  0  0  0  0  0
  -25.8220  -15.0020   20.4360 N   0  0  0  0  0  0  0  0  0  0  0  0
  -25.1060  -15.6640   20.7120 H   0  0  0  0  0  0  0  0  0  0  0  0
  -26.5480  -15.4110   19.8640 H   0  0  0  0  0  0  0  0  0  0  0  0
  -32.3240  -16.6040   21.2140 C   0  0  0  0  0  1  0  0  0  0  0  0
  -31.1890  -15.5900   21.4550 C   0  0  0  0  0  2  0  0  0  0  0  0
  -28.7650  -24.9090   20.6430 C   0  0  0  0  0  2  0  0  0  0  0  0
  -29.5700  -25.6190   19.5290 C   0  0  0  0  0  2  0  0  0  0  0  0
  -28.7470  -26.0990   18.3170 C   0  0  0  0  0  2  0  0  0  0  0  0
  -28.4940  -27.4930   18.4250 O   0  0  0  0  0  0  0  0  0  0  0  0
  -24.6250  -31.2730   22.9840 C   0  0  0  0  0  0  0  0  0  0  0  0
  -27.2330  -27.9460   18.7330 C   0  0  0  0  0  0  0  0  0  0  0  0
  -23.3400  -30.0980   21.2280 C   0  0  0  0  0  3  0  0  0  0  0  0
  -24.7210  -29.0750   19.3460 C   0  0  0  0  0  0  0  0  0  0  0  0
  -25.7580  -30.8160   20.8140 C   0  0  0  0  0  2  0  0  0  0  0  0
  -25.8870  -29.6190   19.8930 C   0  0  0  0  0  0  0  0  0  0  0  0
  -27.1430  -29.0610   19.5870 C   0  0  0  0  0  3  0  0  0  0  0  0
  -26.0480  -27.4010   18.1820 C   0  0  0  0  0  3  0  0  0  0  0  0
  -24.7950  -27.9630   18.4890 C   0  0  0  0  0  3  0  0  0  0  0  0
  -23.4150  -29.7380   19.7190 C   0  0  0  0  0  2  0  0  0  0  0  0
  -24.6000  -30.7320   21.7340 N   0  0  0  0  0  0  0  0  0  0  0  0
  -23.6110  -31.2940   23.6910 O   0  0  0  0  0  0  0  0  0  0  0  0
  -22.9320  -28.8320   22.0120 C   0  0  0  0  0  0  0  0  0  0  0  0
  -21.6520  -28.4460   21.8950 N   0  0  0  0  0  0  0  0  0  0  0  0
  -23.7580  -28.2050   22.6810 O   0  0  0  0  0  0  0  0  0  0  0  0
  -21.0390  -29.0170   21.3330 H   0  0  0  0  0  0  0  0  0  0  0  0
  -18.5910  -26.5480   22.1400 C   0  0  0  0  0  0  0  0  0  0  0  0
  -21.0470  -27.2640   22.5050 C   0  0  0  0  0  3  0  0  0  0  0  0
  -21.4320  -25.9810   21.7300 C   0  0  0  0  0  2  0  0  0  0  0  0
  -20.4070  -25.5960   20.6590 C   0  0  0  0  0  2  0  0  0  0  0  0
  -19.0280  -25.3700   21.2860 C   0  0  0  0  0  2  0  0  0  0  0  0
  -19.5380  -27.4460   22.6990 C   0  0  0  0  0  0  0  0  0  0  0  0
  -19.0720  -28.5460   23.4530 C   0  0  0  0  0  3  0  0  0  0  0  0
  -17.6950  -28.7450   23.6610 C   0  0  0  0  0  3  0  0  0  0  0  0
  -16.7630  -27.8420   23.1200 C   0  0  0  0  0  3  0  0  0  0  0  0
  -17.2140  -26.7470   22.3610 C   0  0  0  0  0  3  0  0  0  0  0  0
  -25.9250  -31.9110   23.5730 C   0  0  0  0  0  3  0  0  0  0  0  0
  -25.5520  -33.2080   24.1480 N   0  0  0  0  0  0  0  0  0  0  0  0
  -25.7710  -34.3920   23.5610 C   0  0  0  0  0  0  0  0  0  0  0  0
  -26.3780  -34.5090   22.4930 O   0  0  0  0  0  0  0  0  0  0  0  0
  -24.9940  -33.1850   24.9890 H   0  0  0  0  0  0  0  0  0  0  0  0
  -23.9310  -36.1080   23.5850 C   0  0  0  0  0  1  0  0  0  0  0  0
  -25.2280  -35.6480   24.2720 C   0  0  0  0  0  3  0  0  0  0  0  0
  -27.3430  -36.5080   25.1710 C   0  0  0  0  0  1  0  0  0  0  0  0
  -26.1920  -36.7670   24.3090 N   0  0  0  0  0  0  0  0  0  0  0  0
  -25.7440  -37.6230   24.6250 H   0  0  0  0  0  0  0  0  0  0  0  0
  -26.6310  -30.9960   24.6460 C   0  0  1  0  0  0  0  0  0  0  0  0
  -25.6820  -30.4960   25.7590 C   0  0  0  0  0  1  0  0  0  0  0  0
  -27.2650  -29.7560   23.9730 C   0  0  0  0  0  1  0  0  0  0  0  0
  -27.7890  -31.7740   25.3160 C   0  0  0  0  0  1  0  0  0  0  0  0
  1  3  1  0
  2  4  1  0
  2  5  1  0
  4  6  1  0
  5  8  1  0
  5  1  1  0
  6 53  1  0
  6  3  1  0
  6  7  1  6
  8 10  1  0
  8  9  1  0
 11  8  1  0
 11 12  1  0
 13 22  1  0
 13 12  1  0
 14 20  1  0
 14 22  1  0
 15 20  1  0
 16 17  1  0
 16 15  1  0
 18 17  1  0
 18 26  1  0
 18 19  1  0
 20 19  1  0
 21 14  2  0
 22 52  1  0
 23 24  2  0
 24 43  1  0
 25 28  1  0
 25 24  1  0
 26 27  1  0
 26 23  1  0
 27 25  2  0
 28 29  1  0
 29 30  2  0
 31 34  1  0
 31 30  1  0
 32 31  2  0
 33 32  1  0
 33 28  2  0
 34 35  1  0
 35 40  2  0
 35 36  1  0
 36 37  2  0
 37 38  1  0
 38 42  1  0
 39 38  2  0
 40 39  1  0
 41 40  1  0
 43 44  1  0
 44 46  1  0
 44 47  1  0
 45 43  2  0
 48 23  1  0
 48 49  1  0
 50 48  1  0
 51 52  1  0
 54 53  1  0
 55 56  1  0
 55 54  1  0
 56 58  1  0
 57 68  2  0
 58 63  1  0
 59 67  1  0
 59 69  1  0
 60 66  1  0
 60 62  1  0
 61 67  1  0
 62 61  1  0
 63 62  2  0
 64 65  1  0
 64 58  2  0
 65 60  2  0
 66 59  1  0
 67 57  1  0
 69 71  2  0
 70 69  1  0
 72 70  1  0
 73 82  2  0
 73 78  1  0
 74 70  1  0
 74 78  1  0
 75 74  1  0
 76 77  1  0
 76 75  1  0
 77 73  1  0
 78 79  2  0
 79 80  1  0
 81 80  2  0
 82 81  1  0
 83 57  1  0
 83 84  1  0
 83 93  1  0
 84 87  1  0
 85 84  1  0
 85 89  1  0
 86 85  2  0
 89 88  1  0
 89 91  1  0
 91 92  1  0
 91 90  1  0
 93 96  1  1
 93 94  1  0
 95 93  1  0
M  ISO  4  14 100  22 100  55 101  56 101
M  END
>  <TORSDO>  (14) 
F 24

>  <SCORE>  (14) 
-6.926

>  <name>  (14) 
13

>  <ligand_id>  (14) 
13

>  <original_smiles>  (14) 
[H]c1c([H])c([H])c2c(c1[H])C([H])([H])C([H])([H])C([H])([H])C2([H])N([H])C(=O)C1([H])N(C(=O)C([H])(N([H])C(=O)C([H])(N([H])C([H])([H])[H])C([H])([H])[H])C(C([H])([H])[H])(C([H])([H])[H])C([H])([H])[H])C([H])([H])c2c([H])c(OC([H])([H])C([H])([H])C([H])([H])[N+]3([H])C([H])([H])C([H])([H])C([H])([N+]([H])([H])C([H])([H])C([H])([H])C([H])([H])N(C(=O)N4C([H])([H])C([H])([H])C([H])([H])C([H])(n5nc(-c6c([H])c([H])c(Oc7c([H])c([H])c(F)c([H])c7F)c([H])c6[H])c(C(=O)N([H])[H])c5N([H])[H])C4([H])[H])C([H])([H])C([H])([H])[H])C([H])([H])C3([H])[H])c([H])c([H])c2C1([H])[H]

>  <smiles>  (14) 
[H]c1c([H])c([H])c2c(c1[H])C([H])([H])C([H])([H])C([H])([H])C2([H])N([H])C(=O)C1([H])N(C(=O)C([H])(N([H])C(=O)C([H])(N([H])C([H])([H])[H])C([H])([H])[H])C(C([H])([H])[H])(C([H])([H])[H])C([H])([H])[H])C([H])([H])c2c([H])c(OC([H])([H])C([H])([H])C([H])([H])[N+]3([H])C([H])([H])C([H])([H])C([H])([N+]([H])([H])C([H])([H])C([H])([H])C([H])([H])N(C(=O)N4C([H])([H])C([H])([H])C([H])([H])C([H])(n5nc(-c6c([H])c([H])c(Oc7c([H])c([H])c(F)c([H])c7F)c([H])c6[H])c(C(=O)N([H])[H])c5N([H])[H])C4([H])[H])C([H])([H])C([H])([H])[H])C([H])([H])C3([H])[H])c([H])c([H])c2C1([H])[H]

$$$$
14:0:0
     RDKit          3D

 89 96  0  0  1  0  0  0  0  0999 V2000
  -29.3820  -19.8520   20.7070 N   0  0  0  0  0  4  0  0  0  0  0  0
  -28.5470  -19.6010   21.2110 H   0  0  0  0  0  0  0  0  0  0  0  0
  -30.0570  -20.0890   21.4150 H   0  0  0  0  0  0  0  0  0  0  0  0
  -29.0090  -21.2860   19.9710 C   0  0  0  0  0  2  0  0  0  0  0  0
  -28.8260  -22.9190   20.6550 C   0  0  0  0  0  3  0  0  0  0  0  0
  -28.1190  -24.4170   20.0080 C   0  0  0  0  0  3  0  0  0  0  0  0
  -28.2410  -25.9990   20.3770 O   0  0  0  0  0  0  0  0  0  0  0  0
  -24.6220  -31.9260   23.1990 C   0  0  0  0  0  0  0  0  0  0  0  0
  -27.2140  -27.0590   20.2550 C   0  0  0  0  0  0  0  0  0  0  0  0
  -23.4390  -30.5040   21.5730 C   0  0  0  0  0  3  0  0  0  0  0  0
  -24.8990  -28.8950   20.1760 C   0  0  0  0  0  0  0  0  0  0  0  0
  -26.0030  -30.7340   21.4330 C   0  0  0  0  0  2  0  0  0  0  0  0
  -26.0800  -29.3220   20.7960 C   0  0  0  0  0  0  0  0  0  0  0  0
  -27.2300  -28.4220   20.8150 C   0  0  0  0  0  3  0  0  0  0  0  0
  -26.0070  -26.7730   19.5770 C   0  0  0  0  0  3  0  0  0  0  0  0
  -24.8850  -27.6390   19.5480 C   0  0  0  0  0  3  0  0  0  0  0  0
  -23.6750  -29.8060   20.2060 C   0  0  0  0  0  2  0  0  0  0  0  0
  -24.7090  -31.0810   22.1220 N   0  0  0  0  0  0  0  0  0  0  0  0
  -23.5300  -32.2200   23.7120 O   0  0  0  0  0  0  0  0  0  0  0  0
  -22.7470  -29.5170   22.5490 C   0  0  0  0  0  0  0  0  0  0  0  0
  -21.4210  -29.3330   22.4090 N   0  0  0  0  0  0  0  0  0  0  0  0
  -23.4080  -28.9170   23.3980 O   0  0  0  0  0  0  0  0  0  0  0  0
  -20.9400  -29.8690   21.6990 H   0  0  0  0  0  0  0  0  0  0  0  0
  -18.0460  -28.0970   22.8910 C   0  0  0  0  0  0  0  0  0  0  0  0
  -20.5980  -28.4020   23.1880 C   0  0  0  0  0  3  0  0  0  0  0  0
  -20.7270  -26.9600   22.6460 C   0  0  0  0  0  2  0  0  0  0  0  0
  -19.6450  -26.6000   21.6230 C   0  0  0  0  0  2  0  0  0  0  0  0
  -18.2520  -26.7380   22.2430 C   0  0  0  0  0  2  0  0  0  0  0  0
  -19.1480  -28.8840   23.3200 C   0  0  0  0  0  0  0  0  0  0  0  0
  -18.9010  -30.1530   23.8890 C   0  0  0  0  0  3  0  0  0  0  0  0
  -17.5860  -30.6350   24.0320 C   0  0  0  0  0  3  0  0  0  0  0  0
  -16.4990  -29.8460   23.6180 C   0  0  0  0  0  3  0  0  0  0  0  0
  -16.7290  -28.5790   23.0520 C   0  0  0  0  0  3  0  0  0  0  0  0
  -25.8900  -32.5790   23.8290 C   0  0  0  0  0  3  0  0  0  0  0  0
  -25.5570  -33.9720   24.1760 N   0  0  0  0  0  0  0  0  0  0  0  0
  -25.8710  -35.0440   23.4370 C   0  0  0  0  0  0  0  0  0  0  0  0
  -26.5330  -34.9660   22.3990 O   0  0  0  0  0  0  0  0  0  0  0  0
  -24.9660  -34.1040   24.9840 H   0  0  0  0  0  0  0  0  0  0  0  0
  -24.1210  -36.8290   23.1270 C   0  0  0  0  0  1  0  0  0  0  0  0
  -25.3710  -36.4200   23.9230 C   0  0  0  0  0  3  0  0  0  0  0  0
  -27.4950  -37.3210   24.7650 C   0  0  0  0  0  1  0  0  0  0  0  0
  -26.3910  -37.4870   23.8240 N   0  0  0  0  0  0  0  0  0  0  0  0
  -25.9740  -38.4000   23.9830 H   0  0  0  0  0  0  0  0  0  0  0  0
  -26.4140  -31.8110   25.1050 C   0  0  1  0  0  0  0  0  0  0  0  0
  -25.3180  -31.5390   26.1630 C   0  0  0  0  0  1  0  0  0  0  0  0
  -27.0340  -30.4510   24.7140 C   0  0  0  0  0  1  0  0  0  0  0  0
  -27.5410  -32.6280   25.7810 C   0  0  0  0  0  1  0  0  0  0  0  0
  -29.9430  -18.4380   20.0480 C   0  0  0  0  0  3  0  0  0  0  0  0
  -27.9190  -17.9050   18.5400 C   0  0  0  0  0  1  0  0  0  0  0  0
  -30.2480  -17.4350   17.6770 C   0  0  0  0  0  1  0  0  0  0  0  0
  -29.3970  -18.3310   18.5950 C   0  0  0  0  0  3  0  0  0  0  0  0
  -30.3740  -17.0440   22.2680 C   0  0  0  0  0  1  0  0  0  0  0  0
  -29.9640  -16.8220   20.8020 C   0  0  0  0  0  3  0  0  0  0  0  0
  -30.7230  -15.3220   20.3450 C   0  0  0  0  0  0  0  0  0  0  0  0
  -30.6790  -12.9270   19.3670 C   0  0  0  0  0  2  0  0  0  0  0  0
  -29.7570  -12.8280   18.1260 C   0  0  0  0  0  2  0  0  0  0  0  0
  -28.2990  -12.5690   18.5450 C   0  0  0  0  0  2  0  0  0  0  0  0
  -27.8640  -13.4800   19.7210 C   0  0  0  0  0  3  0  0  0  0  0  0
  -28.9100  -13.5320   20.8520 C   0  0  0  0  0  2  0  0  0  0  0  0
  -30.1670  -14.0200   20.2650 N   0  0  0  0  0  0  0  0  0  0  0  0
  -31.9170  -15.3470   20.0150 O   0  0  0  0  0  0  0  0  0  0  0  0
  -25.4740  -14.0190   20.4380 C   0  0  0  0  0  0  0  0  0  0  0  0
  -24.4150  -13.2340   20.7970 C   0  0  0  0  0  0  0  0  0  0  0  0
  -24.8960  -11.8890   20.7780 C   0  0  0  0  0  0  0  0  0  0  0  0
  -26.5290  -13.1550   20.2110 N   0  0  0  0  0  0  0  0  0  0  0  0
  -26.1940  -11.8680   20.4850 N   0  0  0  0  0  0  0  0  0  0  0  0
  -24.1800  -10.6200   20.9660 C   0  0  0  0  0  0  0  0  0  0  0  0
  -24.5770   -9.6820   21.9450 C   0  0  0  0  0  3  0  0  0  0  0  0
  -23.8570   -8.4800   22.1190 C   0  0  0  0  0  3  0  0  0  0  0  0
  -22.7270   -8.2050   21.3140 C   0  0  0  0  0  0  0  0  0  0  0  0
  -22.3490   -9.1310   20.3240 C   0  0  0  0  0  3  0  0  0  0  0  0
  -23.0700  -10.3240   20.1490 C   0  0  0  0  0  3  0  0  0  0  0  0
  -21.9830   -7.0520   21.3940 O   0  0  0  0  0  0  0  0  0  0  0  0
  -21.8440   -6.3680   22.5740 C   0  0  0  0  0  0  0  0  0  0  0  0
  -21.2640   -6.9620   23.7170 C   0  0  0  0  0  3  0  0  0  0  0  0
  -21.0760   -6.2010   24.8880 C   0  0  0  0  0  3  0  0  0  0  0  0
  -21.4570   -4.8460   24.9160 C   0  0  0  0  0  0  0  0  0  0  0  0
  -22.0270   -4.2510   23.7780 C   0  0  0  0  0  3  0  0  0  0  0  0
  -22.2170   -5.0090   22.6100 C   0  0  0  0  0  0  0  0  0  0  0  0
  -22.7490   -4.4250   21.5080 F   0  0  0  0  0  0  0  0  0  0  0  0
  -21.2670   -4.1120   26.0370 F   0  0  0  0  0  0  0  0  0  0  0  0
  -23.0090  -13.6970   21.0430 C   0  0  0  0  0  0  0  0  0  0  0  0
  -22.2780  -13.0040   21.9080 N   0  0  0  0  0  0  0  0  0  0  0  0
  -22.5680  -14.7110   20.5040 O   0  0  0  0  0  0  0  0  0  0  0  0
  -22.6480  -12.1830   22.3650 H   0  0  0  0  0  0  0  0  0  0  0  0
  -21.3350  -13.2980   22.1170 H   0  0  0  0  0  0  0  0  0  0  0  0
  -25.6230  -15.3910   20.2590 N   0  0  0  0  0  0  0  0  0  0  0  0
  -24.8460  -16.0340   20.3580 H   0  0  0  0  0  0  0  0  0  0  0  0
  -26.4690  -15.8380   19.9340 H   0  0  0  0  0  0  0  0  0  0  0  0
  1  2  1  0
  1  3  1  0
  4  5  1  0
  4  1  1  0
  6  7  1  0
  6  5  2  0
  8 19  2  0
  9  7  1  0
  9 14  1  0
 10 18  1  0
 10 20  1  0
 11 17  1  0
 11 13  1  0
 12 18  1  0
 13 14  2  0
 13 12  1  0
 15  9  2  0
 16 15  1  0
 16 11  2  0
 17 10  1  0
 18  8  1  0
 20 22  2  0
 21 20  1  0
 23 21  1  0
 24 33  2  0
 24 29  1  0
 25 21  1  0
 25 29  1  0
 26 25  1  0
 27 28  1  0
 27 26  1  0
 28 24  1  0
 29 30  2  0
 30 31  1  0
 32 31  2  0
 33 32  1  0
 34  8  1  0
 34 35  1  0
 34 44  1  0
 35 38  1  0
 36 40  1  0
 36 35  1  0
 37 36  2  0
 40 39  1  0
 42 40  1  0
 42 43  1  0
 42 41  1  0
 44 47  1  1
 44 45  1  0
 46 44  1  0
 48 51  1  0
 48  1  1  0
 48 53  1  0
 49 51  1  0
 50 51  1  0
 53 52  1  0
 54 53  1  0
 55 60  1  0
 56 57  1  0
 56 55  1  0
 58 57  1  0
 58 65  1  0
 58 59  1  0
 60 54  1  0
 60 59  1  0
 61 54  2  0
 62 63  2  0
 63 82  1  0
 64 63  1  0
 64 67  1  0
 65 62  1  0
 65 66  1  0
 66 64  2  0
 67 68  1  0
 68 69  2  0
 70 73  1  0
 70 69  1  0
 71 70  2  0
 72 71  1  0
 72 67  2  0
 73 74  1  0
 74 79  2  0
 74 75  1  0
 75 76  2  0
 76 77  1  0
 77 81  1  0
 78 77  2  0
 79 78  1  0
 80 79  1  0
 82 83  1  0
 83 86  1  0
 83 85  1  0
 84 82  2  0
 87 88  1  0
 87 62  1  0
 89 87  1  0
M  ISO  4   6 101   7 101  53 100  54 100
M  END
>  <TORSDO>  (15) 
F 22

>  <SCORE>  (15) 
-14.782

>  <name>  (15) 
14

>  <ligand_id>  (15) 
14

>  <original_smiles>  (15) 
[H]c1c([H])c([H])c2c(c1[H])C([H])([H])C([H])([H])C([H])([H])C2([H])N([H])C(=O)C1([H])N(C(=O)C([H])(N([H])C(=O)C([H])(N([H])C([H])([H])[H])C([H])([H])[H])C(C([H])([H])[H])(C([H])([H])[H])C([H])([H])[H])C([H])([H])c2c([H])c(OC([H])([H])C([H])([H])C([H])([H])[N+]([H])([H])C([H])(C([H])(C(=O)N3C([H])([H])C([H])([H])C([H])([H])C([H])(n4nc(-c5c([H])c([H])c(Oc6c([H])c([H])c(F)c([H])c6F)c([H])c5[H])c(C(=O)N([H])[H])c4N([H])[H])C3([H])[H])C([H])([H])[H])C([H])(C([H])([H])[H])C([H])([H])[H])c([H])c([H])c2C1([H])[H]

>  <smiles>  (15) 
[H]c1c([H])c([H])c2c(c1[H])C([H])([H])C([H])([H])C([H])([H])C2([H])N([H])C(=O)C1([H])N(C(=O)C([H])(N([H])C(=O)C([H])(N([H])C([H])([H])[H])C([H])([H])[H])C(C([H])([H])[H])(C([H])([H])[H])C([H])([H])[H])C([H])([H])c2c([H])c(OC([H])([H])C([H])([H])C([H])([H])[N+]([H])([H])C([H])(C([H])(C(=O)N3C([H])([H])C([H])([H])C([H])([H])C([H])(n4nc(-c5c([H])c([H])c(Oc6c([H])c([H])c(F)c([H])c6F)c([H])c5[H])c(C(=O)N([H])[H])c4N([H])[H])C3([H])[H])C([H])([H])[H])C([H])(C([H])([H])[H])C([H])([H])[H])c([H])c([H])c2C1([H])[H]

$$$$
15:0:0
     RDKit          3D

 94102  0  0  1  0  0  0  0  0999 V2000
  -28.4500  -22.3440   21.4660 C   0  0  0  0  0  1  0  0  0  0  0  0
  -29.4190  -22.0770   20.3780 N   0  0  2  0  0  4  0  0  0  0  0  0
  -30.2520  -21.8480   20.8980 H   0  0  0  0  0  0  0  0  0  0  0  0
  -29.3740  -24.6000   19.5640 C   0  0  0  0  0  3  0  0  0  0  0  0
  -29.7820  -23.2910   19.4920 C   0  0  0  0  0  0  0  0  0  0  0  0
  -30.8040  -22.9020   18.4210 C   0  0  0  0  0  1  0  0  0  0  0  0
  -28.4600  -25.3940   20.5140 C   0  0  0  0  0  2  0  0  0  0  0  0
  -28.5620  -26.8370   20.3220 O   0  0  0  0  0  0  0  0  0  0  0  0
  -24.6190  -31.9890   23.3690 C   0  0  0  0  0  0  0  0  0  0  0  0
  -27.3900  -27.5830   20.3050 C   0  0  0  0  0  0  0  0  0  0  0  0
  -23.4720  -30.5850   21.6900 C   0  0  0  0  0  3  0  0  0  0  0  0
  -24.9780  -29.0870   20.2780 C   0  0  0  0  0  0  0  0  0  0  0  0
  -25.9990  -30.9810   21.5470 C   0  0  0  0  0  2  0  0  0  0  0  0
  -26.1210  -29.6150   20.8920 C   0  0  0  0  0  0  0  0  0  0  0  0
  -27.3310  -28.8740   20.8940 C   0  0  0  0  0  3  0  0  0  0  0  0
  -26.2270  -27.0860   19.6760 C   0  0  0  0  0  3  0  0  0  0  0  0
  -25.0290  -27.8250   19.6630 C   0  0  0  0  0  3  0  0  0  0  0  0
  -23.7210  -29.9280   20.3080 C   0  0  0  0  0  2  0  0  0  0  0  0
  -24.7140  -31.2010   22.2610 N   0  0  0  0  0  0  0  0  0  0  0  0
  -23.5220  -32.2360   23.8890 O   0  0  0  0  0  0  0  0  0  0  0  0
  -22.8200  -29.5420   22.6250 C   0  0  0  0  0  0  0  0  0  0  0  0
  -21.5010  -29.3310   22.4650 N   0  0  0  0  0  0  0  0  0  0  0  0
  -23.4960  -28.9230   23.4520 O   0  0  0  0  0  0  0  0  0  0  0  0
  -21.0170  -29.8830   21.7700 H   0  0  0  0  0  0  0  0  0  0  0  0
  -18.1400  -28.0690   22.8840 C   0  0  0  0  0  0  0  0  0  0  0  0
  -20.6880  -28.3710   23.2090 C   0  0  0  0  0  3  0  0  0  0  0  0
  -20.8270  -26.9490   22.6170 C   0  0  0  0  0  2  0  0  0  0  0  0
  -19.7490  -26.6190   21.5790 C   0  0  0  0  0  2  0  0  0  0  0  0
  -18.3530  -26.7320   22.1970 C   0  0  0  0  0  2  0  0  0  0  0  0
  -19.2360  -28.8460   23.3450 C   0  0  0  0  0  0  0  0  0  0  0  0
  -18.9830  -30.0980   23.9460 C   0  0  0  0  0  3  0  0  0  0  0  0
  -17.6660  -30.5740   24.0920 C   0  0  0  0  0  3  0  0  0  0  0  0
  -16.5840  -29.7940   23.6470 C   0  0  0  0  0  3  0  0  0  0  0  0
  -16.8220  -28.5440   23.0490 C   0  0  0  0  0  3  0  0  0  0  0  0
  -25.8800  -32.6380   24.0210 C   0  0  0  0  0  3  0  0  0  0  0  0
  -25.5480  -34.0350   24.3310 N   0  0  0  0  0  0  0  0  0  0  0  0
  -25.9160  -35.0860   23.5870 C   0  0  0  0  0  0  0  0  0  0  0  0
  -26.6410  -34.9830   22.5920 O   0  0  0  0  0  0  0  0  0  0  0  0
  -24.9090  -34.1890   25.0960 H   0  0  0  0  0  0  0  0  0  0  0  0
  -24.2270  -36.8870   23.1110 C   0  0  0  0  0  1  0  0  0  0  0  0
  -25.4000  -36.4740   24.0130 C   0  0  0  0  0  3  0  0  0  0  0  0
  -27.4670  -37.3450   25.0110 C   0  0  0  0  0  1  0  0  0  0  0  0
  -26.4410  -37.5230   23.9880 N   0  0  0  0  0  0  0  0  0  0  0  0
  -26.0270  -38.4440   24.1120 H   0  0  0  0  0  0  0  0  0  0  0  0
  -26.3690  -31.8800   25.3170 C   0  0  1  0  0  0  0  0  0  0  0  0
  -25.2440  -31.6180   26.3450 C   0  0  0  0  0  1  0  0  0  0  0  0
  -26.9990  -30.5170   24.9480 C   0  0  0  0  0  1  0  0  0  0  0  0
  -27.4750  -32.7040   26.0170 C   0  0  0  0  0  1  0  0  0  0  0  0
  -29.1080  -20.7590   19.7020 C   0  0  0  0  0  2  0  0  0  0  0  0
  -32.5580  -18.9940   19.7200 C   0  0  0  0  0  3  0  0  0  0  0  0
  -31.5620  -19.9840   19.6370 C   0  0  0  0  0  3  0  0  0  0  0  0
  -32.2160  -17.6600   20.0000 C   0  0  0  0  0  3  0  0  0  0  0  0
  -29.8680  -18.2890   20.0790 C   0  0  0  0  0  3  0  0  0  0  0  0
  -30.2000  -19.6570   19.8210 C   0  0  0  0  0  0  0  0  0  0  0  0
  -30.8670  -17.2690   20.1730 C   0  0  0  0  0  0  0  0  0  0  0  0
  -31.0620  -14.8060   19.9120 C   0  0  0  0  0  0  0  0  0  0  0  0
  -30.6930  -12.5990   18.8260 C   0  0  0  0  0  2  0  0  0  0  0  0
  -29.6410  -12.7100   17.7010 C   0  0  0  0  0  2  0  0  0  0  0  0
  -28.2120  -12.5410   18.2560 C   0  0  0  0  0  2  0  0  0  0  0  0
  -27.9670  -13.3950   19.5250 C   0  0  0  0  0  3  0  0  0  0  0  0
  -29.1200  -13.2010   20.5240 C   0  0  0  0  0  2  0  0  0  0  0  0
  -30.3750  -13.6100   19.8650 N   0  0  0  0  0  0  0  0  0  0  0  0
  -32.0800  -14.9310   19.2230 O   0  0  0  0  0  0  0  0  0  0  0  0
  -30.5540  -15.9070   20.5880 N   0  0  0  0  0  0  0  0  0  0  0  0
  -25.7060  -13.9750   20.6060 C   0  0  0  0  0  0  0  0  0  0  0  0
  -24.6650  -13.1950   21.0280 C   0  0  0  0  0  0  0  0  0  0  0  0
  -25.0650  -11.8440   20.7900 C   0  0  0  0  0  0  0  0  0  0  0  0
  -26.6750  -13.1000   20.1410 N   0  0  0  0  0  0  0  0  0  0  0  0
  -26.3000  -11.8050   20.3080 N   0  0  0  0  0  0  0  0  0  0  0  0
  -24.3190  -10.5870   20.9380 C   0  0  0  0  0  0  0  0  0  0  0  0
  -24.7560   -9.5670   21.8120 C   0  0  0  0  0  3  0  0  0  0  0  0
  -24.0120   -8.3740   21.9480 C   0  0  0  0  0  3  0  0  0  0  0  0
  -22.8170   -8.1960   21.2110 C   0  0  0  0  0  0  0  0  0  0  0  0
  -22.3990   -9.2060   20.3270 C   0  0  0  0  0  3  0  0  0  0  0  0
  -23.1420  -10.3890   20.1890 C   0  0  0  0  0  3  0  0  0  0  0  0
  -22.0400   -7.0630   21.2620 O   0  0  0  0  0  0  0  0  0  0  0  0
  -21.9220   -6.3240   22.4110 C   0  0  0  0  0  0  0  0  0  0  0  0
  -21.4430   -6.8860   23.6150 C   0  0  0  0  0  3  0  0  0  0  0  0
  -21.2730   -6.0740   24.7530 C   0  0  0  0  0  3  0  0  0  0  0  0
  -21.5670   -4.6990   24.6880 C   0  0  0  0  0  0  0  0  0  0  0  0
  -22.0360   -4.1350   23.4890 C   0  0  0  0  0  3  0  0  0  0  0  0
  -22.2100   -4.9460   22.3530 C   0  0  0  0  0  0  0  0  0  0  0  0
  -22.6430   -4.3930   21.1940 F   0  0  0  0  0  0  0  0  0  0  0  0
  -21.3970   -3.9160   25.7800 F   0  0  0  0  0  0  0  0  0  0  0  0
  -23.3330  -13.6740   21.5310 C   0  0  0  0  0  0  0  0  0  0  0  0
  -22.7130  -12.9260   22.4370 N   0  0  0  0  0  0  0  0  0  0  0  0
  -22.8550  -14.7440   21.1550 O   0  0  0  0  0  0  0  0  0  0  0  0
  -23.1130  -12.0580   22.7630 H   0  0  0  0  0  0  0  0  0  0  0  0
  -21.8240  -13.2260   22.8100 H   0  0  0  0  0  0  0  0  0  0  0  0
  -25.9080  -15.3520   20.5590 N   0  0  0  0  0  0  0  0  0  0  0  0
  -25.2020  -16.0200   20.8520 H   0  0  0  0  0  0  0  0  0  0  0  0
  -26.7360  -15.7940   20.1800 H   0  0  0  0  0  0  0  0  0  0  0  0
  -30.4210  -16.8670   22.9650 C   0  0  0  0  0  1  0  0  0  0  0  0
  -29.9790  -15.7950   21.9470 C   0  0  0  0  0  2  0  0  0  0  0  0
  2  3  1  1
  2  1  1  0
  4  7  1  0
  5  4  2  0
  5  2  1  0
  6  5  1  0
  8  7  1  0
  9 20  2  0
 10  8  1  0
 10 15  1  0
 11 19  1  0
 11 21  1  0
 12 18  1  0
 12 14  1  0
 13 19  1  0
 14 15  2  0
 14 13  1  0
 16 10  2  0
 17 16  1  0
 17 12  2  0
 18 11  1  0
 19  9  1  0
 21 23  2  0
 22 21  1  0
 24 22  1  0
 25 34  2  0
 25 30  1  0
 26 22  1  0
 26 30  1  0
 27 26  1  0
 28 29  1  0
 28 27  1  0
 29 25  1  0
 30 31  2  0
 31 32  1  0
 33 32  2  0
 34 33  1  0
 35  9  1  0
 35 36  1  0
 35 45  1  0
 36 39  1  0
 37 41  1  0
 37 36  1  0
 38 37  2  0
 41 40  1  0
 43 41  1  0
 43 44  1  0
 43 42  1  0
 45 48  1  1
 45 46  1  0
 47 45  1  0
 49 54  1  0
 49  2  1  0
 50 52  1  0
 51 50  2  0
 51 54  1  0
 52 55  2  0
 53 55  1  0
 54 53  2  0
 55 64  1  0
 56 64  1  0
 57 62  1  0
 58 59  1  0
 58 57  1  0
 60 59  1  0
 60 68  1  0
 60 61  1  0
 62 56  1  0
 62 61  1  0
 63 56  2  0
 64 94  1  0
 65 66  2  0
 66 85  1  0
 67 70  1  0
 67 66  1  0
 68 69  1  0
 68 65  1  0
 69 67  2  0
 70 71  1  0
 71 72  2  0
 73 76  1  0
 73 72  1  0
 74 73  2  0
 75 74  1  0
 75 70  2  0
 76 77  1  0
 77 78  1  0
 78 79  2  0
 80 79  1  0
 80 84  1  0
 81 80  2  0
 82 77  2  0
 82 81  1  0
 83 82  1  0
 85 86  1  0
 86 88  1  0
 86 89  1  0
 87 85  2  0
 90 65  1  0
 90 91  1  0
 92 90  1  0
 94 93  1  0
M  ISO  4   7 101   8 101  56 100  64 100
M  END
>  <TORSDO>  (16) 
F 21

>  <SCORE>  (16) 
-12.013

>  <name>  (16) 
15

>  <ligand_id>  (16) 
15

>  <original_smiles>  (16) 
[H]C(=C(C([H])([H])[H])[N+]([H])(C([H])([H])[H])C([H])([H])c1c([H])c([H])c([H])c(N(C(=O)N2C([H])([H])C([H])([H])C([H])([H])C([H])(n3nc(-c4c([H])c([H])c(Oc5c([H])c([H])c(F)c([H])c5F)c([H])c4[H])c(C(=O)N([H])[H])c3N([H])[H])C2([H])[H])C([H])([H])C([H])([H])[H])c1[H])C([H])([H])Oc1c([H])c([H])c2c(c1[H])C([H])([H])N(C(=O)C([H])(N([H])C(=O)C([H])(N([H])C([H])([H])[H])C([H])([H])[H])C(C([H])([H])[H])(C([H])([H])[H])C([H])([H])[H])C([H])(C(=O)N([H])C1([H])c3c([H])c([H])c([H])c([H])c3C([H])([H])C([H])([H])C1([H])[H])C2([H])[H]

>  <smiles>  (16) 
[H]C(=C(C([H])([H])[H])[N+]([H])(C([H])([H])[H])C([H])([H])c1c([H])c([H])c([H])c(N(C(=O)N2C([H])([H])C([H])([H])C([H])([H])C([H])(n3nc(-c4c([H])c([H])c(Oc5c([H])c([H])c(F)c([H])c5F)c([H])c4[H])c(C(=O)N([H])[H])c3N([H])[H])C2([H])[H])C([H])([H])C([H])([H])[H])c1[H])C([H])([H])Oc1c([H])c([H])c2c(c1[H])C([H])([H])N(C(=O)C([H])(N([H])C(=O)C([H])(N([H])C([H])([H])[H])C([H])([H])[H])C(C([H])([H])[H])(C([H])([H])[H])C([H])([H])[H])C([H])(C(=O)N([H])C1([H])c3c([H])c([H])c([H])c([H])c3C([H])([H])C([H])([H])C1([H])[H])C2([H])[H]

$$$$
16:0:0
     RDKit          3D

 93100  0  0  1  0  0  0  0  0999 V2000
  -29.4270  -22.4290   20.6010 C   0  0  0  0  0  3  0  0  0  0  0  0
  -29.4800  -23.3140   19.3950 N   0  0  0  0  0  4  0  0  0  0  0  0
  -30.1700  -22.9230   18.7700 H   0  0  0  0  0  0  0  0  0  0  0  0
  -28.6020  -23.2400   18.9050 H   0  0  0  0  0  0  0  0  0  0  0  0
  -29.8200  -24.7670   19.5920 C   0  0  0  0  0  2  0  0  0  0  0  0
  -28.6850  -25.6390   20.2050 C   0  0  0  0  0  2  0  0  0  0  0  0
  -28.7900  -27.0570   19.8900 O   0  0  0  0  0  0  0  0  0  0  0  0
  -24.7370  -31.9100   23.2440 C   0  0  0  0  0  0  0  0  0  0  0  0
  -27.6030  -27.7750   19.9110 C   0  0  0  0  0  0  0  0  0  0  0  0
  -23.6060  -30.5320   21.5320 C   0  0  0  0  0  3  0  0  0  0  0  0
  -25.1370  -29.1760   20.0070 C   0  0  0  0  0  0  0  0  0  0  0  0
  -26.1090  -31.0400   21.3490 C   0  0  0  0  0  2  0  0  0  0  0  0
  -26.2690  -29.7140   20.6310 C   0  0  0  0  0  0  0  0  0  0  0  0
  -27.5060  -29.0220   20.5820 C   0  0  0  0  0  3  0  0  0  0  0  0
  -26.4540  -27.2860   19.2460 C   0  0  0  0  0  3  0  0  0  0  0  0
  -25.2260  -27.9640   19.3070 C   0  0  0  0  0  3  0  0  0  0  0  0
  -23.8470  -29.9570   20.1110 C   0  0  0  0  0  2  0  0  0  0  0  0
  -24.8350  -31.1730   22.1000 N   0  0  0  0  0  0  0  0  0  0  0  0
  -23.6450  -32.0870   23.8020 O   0  0  0  0  0  0  0  0  0  0  0  0
  -23.0260  -29.4170   22.4330 C   0  0  0  0  0  0  0  0  0  0  0  0
  -21.7230  -29.1300   22.2710 N   0  0  0  0  0  0  0  0  0  0  0  0
  -23.7440  -28.8170   23.2360 O   0  0  0  0  0  0  0  0  0  0  0  0
  -21.2020  -29.6780   21.6020 H   0  0  0  0  0  0  0  0  0  0  0  0
  -18.4560  -27.6260   22.6400 C   0  0  0  0  0  0  0  0  0  0  0  0
  -20.9740  -28.0950   22.9850 C   0  0  0  0  0  3  0  0  0  0  0  0
  -21.2150  -26.7010   22.3610 C   0  0  0  0  0  2  0  0  0  0  0  0
  -20.1690  -26.3220   21.3090 C   0  0  0  0  0  2  0  0  0  0  0  0
  -18.7650  -26.3220   21.9220 C   0  0  0  0  0  2  0  0  0  0  0  0
  -19.4940  -28.4650   23.1250 C   0  0  0  0  0  0  0  0  0  0  0  0
  -19.1530  -29.6810   23.7560 C   0  0  0  0  0  3  0  0  0  0  0  0
  -17.8070  -30.0610   23.9070 C   0  0  0  0  0  3  0  0  0  0  0  0
  -16.7830  -29.2200   23.4370 C   0  0  0  0  0  3  0  0  0  0  0  0
  -17.1090  -28.0040   22.8110 C   0  0  0  0  0  3  0  0  0  0  0  0
  -25.9860  -32.5840   23.8900 C   0  0  0  0  0  3  0  0  0  0  0  0
  -25.6260  -33.9710   24.2080 N   0  0  0  0  0  0  0  0  0  0  0  0
  -25.9390  -35.0320   23.4500 C   0  0  0  0  0  0  0  0  0  0  0  0
  -26.6320  -34.9460   22.4330 O   0  0  0  0  0  0  0  0  0  0  0  0
  -25.0140  -34.1110   24.9980 H   0  0  0  0  0  0  0  0  0  0  0  0
  -24.1590  -36.7640   23.0510 C   0  0  0  0  0  1  0  0  0  0  0  0
  -25.3950  -36.4050   23.8900 C   0  0  0  0  0  3  0  0  0  0  0  0
  -27.4760  -37.3690   24.7650 C   0  0  0  0  0  1  0  0  0  0  0  0
  -26.3940  -37.4910   23.7930 N   0  0  0  0  0  0  0  0  0  0  0  0
  -25.9550  -38.3990   23.9210 H   0  0  0  0  0  0  0  0  0  0  0  0
  -26.5030  -31.8320   25.1780 C   0  0  1  0  0  0  0  0  0  0  0  0
  -25.3960  -31.5530   26.2220 C   0  0  0  0  0  1  0  0  0  0  0  0
  -27.1450  -30.4790   24.7980 C   0  0  0  0  0  1  0  0  0  0  0  0
  -27.6070  -32.6710   25.8650 C   0  0  0  0  0  1  0  0  0  0  0  0
  -27.8920  -21.0700   22.1570 C   0  0  0  0  0  1  0  0  0  0  0  0
  -26.9090  -23.0130   20.9180 C   0  0  0  0  0  1  0  0  0  0  0  0
  -27.9780  -21.9040   20.8620 C   0  0  0  0  0  3  0  0  0  0  0  0
  -30.4970  -21.2740   20.5680 C   0  0  0  0  0  2  0  0  0  0  0  0
  -30.1590  -19.9640   19.8060 C   0  0  0  0  0  0  0  0  0  0  0  0
  -30.4520  -18.7790   20.3910 N   0  0  0  0  0  0  0  0  0  0  0  0
  -29.6550  -20.0320   18.6850 O   0  0  0  0  0  0  0  0  0  0  0  0
  -30.8960  -18.8150   21.3000 H   0  0  0  0  0  0  0  0  0  0  0  0
  -30.2730  -17.4380   19.7850 C   0  0  0  0  0  2  0  0  0  0  0  0
  -30.3990  -16.2390   20.7880 C   0  0  0  0  0  2  0  0  0  0  0  0
  -31.0320  -14.9530   20.1760 C   0  0  0  0  0  0  0  0  0  0  0  0
  -30.7230  -12.7510   19.0960 C   0  0  0  0  0  2  0  0  0  0  0  0
  -29.7620  -12.9240   17.9000 C   0  0  0  0  0  2  0  0  0  0  0  0
  -28.2950  -12.7920   18.3580 C   0  0  0  0  0  2  0  0  0  0  0  0
  -27.9780  -13.6560   19.6100 C   0  0  0  0  0  3  0  0  0  0  0  0
  -29.0570  -13.4610   20.6990 C   0  0  0  0  0  2  0  0  0  0  0  0
  -30.3640  -13.7640   20.1030 N   0  0  0  0  0  0  0  0  0  0  0  0
  -32.1490  -15.0840   19.6690 O   0  0  0  0  0  0  0  0  0  0  0  0
  -25.6140  -14.2760   20.4190 C   0  0  0  0  0  0  0  0  0  0  0  0
  -24.5420  -13.5110   20.7850 C   0  0  0  0  0  0  0  0  0  0  0  0
  -24.9720  -12.1520   20.6830 C   0  0  0  0  0  0  0  0  0  0  0  0
  -26.6340  -13.3850   20.1190 N   0  0  0  0  0  0  0  0  0  0  0  0
  -26.2520  -12.1010   20.3350 N   0  0  0  0  0  0  0  0  0  0  0  0
  -24.2240  -10.8980   20.8420 C   0  0  0  0  0  0  0  0  0  0  0  0
  -24.6180   -9.9170   21.7780 C   0  0  0  0  0  3  0  0  0  0  0  0
  -23.8720   -8.7270   21.9260 C   0  0  0  0  0  3  0  0  0  0  0  0
  -22.7190   -8.5100   21.1370 C   0  0  0  0  0  0  0  0  0  0  0  0
  -22.3430   -9.4800   20.1910 C   0  0  0  0  0  3  0  0  0  0  0  0
  -23.0880  -10.6610   20.0420 C   0  0  0  0  0  3  0  0  0  0  0  0
  -21.9470   -7.3740   21.1930 O   0  0  0  0  0  0  0  0  0  0  0  0
  -21.8110   -6.6550   22.3520 C   0  0  0  0  0  0  0  0  0  0  0  0
  -21.2720   -7.2250   23.5260 C   0  0  0  0  0  3  0  0  0  0  0  0
  -21.0860   -6.4300   24.6740 C   0  0  0  0  0  3  0  0  0  0  0  0
  -21.4290   -5.0650   24.6490 C   0  0  0  0  0  0  0  0  0  0  0  0
  -21.9600   -4.4940   23.4790 C   0  0  0  0  0  3  0  0  0  0  0  0
  -22.1480   -5.2850   22.3340 C   0  0  0  0  0  0  0  0  0  0  0  0
  -22.6400   -4.7250   21.2030 F   0  0  0  0  0  0  0  0  0  0  0  0
  -21.2420   -4.2980   25.7490 F   0  0  0  0  0  0  0  0  0  0  0  0
  -23.1620  -14.0030   21.1200 C   0  0  0  0  0  0  0  0  0  0  0  0
  -22.4480  -13.2860   21.9800 N   0  0  0  0  0  0  0  0  0  0  0  0
  -22.7290  -15.0570   20.6560 O   0  0  0  0  0  0  0  0  0  0  0  0
  -22.8130  -12.4310   22.3770 H   0  0  0  0  0  0  0  0  0  0  0  0
  -21.5250  -13.5950   22.2470 H   0  0  0  0  0  0  0  0  0  0  0  0
  -25.8040  -15.6500   20.2940 N   0  0  0  0  0  0  0  0  0  0  0  0
  -25.0560  -16.3160   20.4560 H   0  0  0  0  0  0  0  0  0  0  0  0
  -26.6570  -16.0830   19.9640 H   0  0  0  0  0  0  0  0  0  0  0  0
  1 51  1  0
  1 50  1  0
  2  5  1  0
  2  1  1  0
  3  2  1  0
  4  2  1  0
  5  6  1  0
  7  9  1  0
  7  6  1  0
  8 19  2  0
  9 14  1  0
 10 18  1  0
 10 20  1  0
 11 17  1  0
 11 13  1  0
 12 18  1  0
 13 12  1  0
 14 13  2  0
 15 16  1  0
 15  9  2  0
 16 11  2  0
 17 10  1  0
 18  8  1  0
 20 22  2  0
 21 20  1  0
 23 21  1  0
 24 33  2  0
 24 29  1  0
 25 21  1  0
 25 29  1  0
 26 25  1  0
 27 28  1  0
 27 26  1  0
 28 24  1  0
 29 30  2  0
 30 31  1  0
 32 31  2  0
 33 32  1  0
 34  8  1  0
 34 35  1  0
 34 44  1  0
 35 38  1  0
 36 40  1  0
 36 35  1  0
 37 36  2  0
 40 39  1  0
 42 40  1  0
 42 43  1  0
 42 41  1  0
 44 47  1  1
 44 45  1  0
 46 44  1  0
 50 49  1  0
 50 48  1  0
 52 53  1  0
 52 51  1  0
 53 55  1  0
 54 52  2  0
 56 53  1  0
 56 57  1  0
 58 57  1  0
 59 64  1  0
 60 61  1  0
 60 59  1  0
 62 61  1  0
 62 69  1  0
 62 63  1  0
 64 58  1  0
 64 63  1  0
 65 58  2  0
 66 67  2  0
 67 86  1  0
 68 67  1  0
 68 71  1  0
 69 70  1  0
 69 66  1  0
 70 68  2  0
 71 72  1  0
 72 73  2  0
 74 77  1  0
 74 73  1  0
 75 74  2  0
 76 75  1  0
 76 71  2  0
 77 78  1  0
 78 79  1  0
 79 80  2  0
 81 80  1  0
 81 85  1  0
 82 81  2  0
 83 78  2  0
 83 82  1  0
 84 83  1  0
 86 87  1  0
 87 90  1  0
 87 89  1  0
 88 86  2  0
 91 66  1  0
 91 92  1  0
 93 91  1  0
M  ISO  4   6 101   7 101  57 100  58 100
M  END
>  <TORSDO>  (17) 
F 24

>  <SCORE>  (17) 
-10.390

>  <name>  (17) 
16

>  <ligand_id>  (17) 
16

>  <original_smiles>  (17) 
[H]c1c([H])c([H])c2c(c1[H])C([H])([H])C([H])([H])C([H])([H])C2([H])N([H])C(=O)C1([H])N(C(=O)C([H])(N([H])C(=O)C([H])(N([H])C([H])([H])[H])C([H])([H])[H])C(C([H])([H])[H])(C([H])([H])[H])C([H])([H])[H])C([H])([H])c2c([H])c(OC([H])([H])C([H])([H])[N+]([H])([H])C([H])(C([H])([H])C(=O)N([H])C([H])([H])C([H])([H])C(=O)N3C([H])([H])C([H])([H])C([H])([H])C([H])(n4nc(-c5c([H])c([H])c(Oc6c([H])c([H])c(F)c([H])c6F)c([H])c5[H])c(C(=O)N([H])[H])c4N([H])[H])C3([H])[H])C([H])(C([H])([H])[H])C([H])([H])[H])c([H])c([H])c2C1([H])[H]

>  <smiles>  (17) 
[H]c1c([H])c([H])c2c(c1[H])C([H])([H])C([H])([H])C([H])([H])C2([H])N([H])C(=O)C1([H])N(C(=O)C([H])(N([H])C(=O)C([H])(N([H])C([H])([H])[H])C([H])([H])[H])C(C([H])([H])[H])(C([H])([H])[H])C([H])([H])[H])C([H])([H])c2c([H])c(OC([H])([H])C([H])([H])[N+]([H])([H])C([H])(C([H])([H])C(=O)N([H])C([H])([H])C([H])([H])C(=O)N3C([H])([H])C([H])([H])C([H])([H])C([H])(n4nc(-c5c([H])c([H])c(Oc6c([H])c([H])c(F)c([H])c6F)c([H])c5[H])c(C(=O)N([H])[H])c4N([H])[H])C3([H])[H])C([H])(C([H])([H])[H])C([H])([H])[H])c([H])c([H])c2C1([H])[H]

$$$$
17:0:0
     RDKit          3D

 99107  0  0  1  0  0  0  0  0999 V2000
  -30.3610  -19.5620   21.3490 C   0  0  0  0  0  3  0  0  0  0  0  0
  -29.8970  -18.1560   21.5190 N   0  0  0  0  0  4  0  0  0  0  0  0
  -29.6430  -18.0450   22.4880 H   0  0  0  0  0  0  0  0  0  0  0  0
  -29.0630  -18.0130   20.9710 H   0  0  0  0  0  0  0  0  0  0  0  0
  -30.8780  -17.0840   21.1910 C   0  0  0  0  0  2  0  0  0  0  0  0
  -30.2990  -15.6580   21.4050 C   0  0  0  0  0  2  0  0  0  0  0  0
  -30.9520  -14.5460   20.5520 C   0  0  0  0  0  0  0  0  0  0  0  0
  -30.6250  -12.4610   19.2590 C   0  0  0  0  0  2  0  0  0  0  0  0
  -29.6720  -12.7280   18.0760 C   0  0  0  0  0  2  0  0  0  0  0  0
  -28.1990  -12.5890   18.5100 C   0  0  0  0  0  2  0  0  0  0  0  0
  -27.8820  -13.3780   19.8080 C   0  0  0  0  0  3  0  0  0  0  0  0
  -28.9400  -13.0820   20.8960 C   0  0  0  0  0  2  0  0  0  0  0  0
  -30.2660  -13.3900   20.3390 N   0  0  0  0  0  0  0  0  0  0  0  0
  -32.0440  -14.7680   20.0200 O   0  0  0  0  0  0  0  0  0  0  0  0
  -25.5070  -14.0030   20.5810 C   0  0  0  0  0  0  0  0  0  0  0  0
  -24.4220  -13.2370   20.9120 C   0  0  0  0  0  0  0  0  0  0  0  0
  -24.8460  -11.8780   20.7860 C   0  0  0  0  0  0  0  0  0  0  0  0
  -26.5250  -13.1110   20.2810 N   0  0  0  0  0  0  0  0  0  0  0  0
  -26.1310  -11.8250   20.4600 N   0  0  0  0  0  0  0  0  0  0  0  0
  -24.0880  -10.6250   20.9000 C   0  0  0  0  0  0  0  0  0  0  0  0
  -24.5380   -9.5640   21.7150 C   0  0  0  0  0  3  0  0  0  0  0  0
  -23.7840   -8.3750   21.8230 C   0  0  0  0  0  3  0  0  0  0  0  0
  -22.5650   -8.2420   21.1160 C   0  0  0  0  0  0  0  0  0  0  0  0
  -22.1340   -9.2930   20.2880 C   0  0  0  0  0  3  0  0  0  0  0  0
  -22.8880  -10.4730   20.1780 C   0  0  0  0  0  3  0  0  0  0  0  0
  -21.7810   -7.1140   21.1400 O   0  0  0  0  0  0  0  0  0  0  0  0
  -21.8030   -6.2430   22.1990 C   0  0  0  0  0  0  0  0  0  0  0  0
  -21.5260   -6.6660   23.5180 C   0  0  0  0  0  3  0  0  0  0  0  0
  -21.4920   -5.7250   24.5660 C   0  0  0  0  0  3  0  0  0  0  0  0
  -21.7260   -4.3630   24.2990 C   0  0  0  0  0  0  0  0  0  0  0  0
  -21.9960   -3.9400   22.9860 C   0  0  0  0  0  3  0  0  0  0  0  0
  -22.0320   -4.8770   21.9390 C   0  0  0  0  0  0  0  0  0  0  0  0
  -22.2730   -4.4610   20.6730 F   0  0  0  0  0  0  0  0  0  0  0  0
  -21.6850   -3.4580   25.3040 F   0  0  0  0  0  0  0  0  0  0  0  0
  -23.0410  -13.7310   21.2330 C   0  0  0  0  0  0  0  0  0  0  0  0
  -22.3090  -13.0060   22.0720 N   0  0  0  0  0  0  0  0  0  0  0  0
  -22.6200  -14.7940   20.7770 O   0  0  0  0  0  0  0  0  0  0  0  0
  -22.6620  -12.1450   22.4630 H   0  0  0  0  0  0  0  0  0  0  0  0
  -21.3820  -13.3170   22.3270 H   0  0  0  0  0  0  0  0  0  0  0  0
  -25.7080  -15.3770   20.4920 N   0  0  0  0  0  0  0  0  0  0  0  0
  -24.9540  -16.0410   20.6340 H   0  0  0  0  0  0  0  0  0  0  0  0
  -26.5540  -15.8090   20.1430 H   0  0  0  0  0  0  0  0  0  0  0  0
  -30.9500  -19.8550   19.9380 C   0  0  0  0  0  2  0  0  0  0  0  0
  -30.0700  -22.9640   17.8590 C   0  0  0  0  0  3  0  0  0  0  0  0
  -30.5530  -24.0050   18.6730 C   0  0  0  0  0  3  0  0  0  0  0  0
  -30.2180  -21.6240   18.2640 C   0  0  0  0  0  3  0  0  0  0  0  0
  -31.3670  -22.3600   20.2820 C   0  0  0  0  0  3  0  0  0  0  0  0
  -31.2020  -23.7050   19.8870 C   0  0  0  0  0  0  0  0  0  0  0  0
  -30.8520  -21.3120   19.4870 C   0  0  0  0  0  0  0  0  0  0  0  0
  -31.7120  -24.8220   20.7740 C   0  0  0  0  0  1  0  0  0  0  0  0
  -29.2840  -20.5850   21.8170 C   0  0  0  0  0  2  0  0  0  0  0  0
  -28.2050  -20.9860   20.7790 C   0  0  0  0  0  2  0  0  0  0  0  0
  -27.2210  -22.0570   21.3020 C   0  0  0  0  0  2  0  0  0  0  0  0
  -27.8600  -23.3710   21.5660 N   0  0  0  0  0  4  0  0  0  0  0  0
  -28.8340  -23.2350   21.7910 H   0  0  0  0  0  0  0  0  0  0  0  0
  -27.4150  -23.7370   22.3950 H   0  0  0  0  0  0  0  0  0  0  0  0
  -27.7170  -24.3900   20.4920 C   0  0  0  0  0  2  0  0  0  0  0  0
  -28.2760  -25.7710   20.9160 C   0  0  0  0  0  2  0  0  0  0  0  0
  -28.1700  -26.7640   19.8880 O   0  0  0  0  0  0  0  0  0  0  0  0
  -24.4710  -31.8910   23.1730 C   0  0  0  0  0  0  0  0  0  0  0  0
  -27.0230  -27.5160   19.9410 C   0  0  0  0  0  0  0  0  0  0  0  0
  -23.2300  -30.5540   21.5010 C   0  0  0  0  0  3  0  0  0  0  0  0
  -24.6500  -29.0400   20.0190 C   0  0  0  0  0  0  0  0  0  0  0  0
  -25.7550  -30.8880   21.2910 C   0  0  0  0  0  2  0  0  0  0  0  0
  -25.8180  -29.5340   20.6150 C   0  0  0  0  0  0  0  0  0  0  0  0
  -27.0100  -28.7770   20.5790 C   0  0  0  0  0  3  0  0  0  0  0  0
  -25.8480  -27.0380   19.3290 C   0  0  0  0  0  3  0  0  0  0  0  0
  -24.6580  -27.7900   19.3760 C   0  0  0  0  0  3  0  0  0  0  0  0
  -23.4190  -29.9130   20.1000 C   0  0  0  0  0  2  0  0  0  0  0  0
  -24.5030  -31.1250   22.0480 N   0  0  0  0  0  0  0  0  0  0  0  0
  -23.3990  -32.1620   23.7330 O   0  0  0  0  0  0  0  0  0  0  0  0
  -22.5730  -29.5140   22.4370 C   0  0  0  0  0  0  0  0  0  0  0  0
  -21.2440  -29.3590   22.3190 N   0  0  0  0  0  0  0  0  0  0  0  0
  -23.2560  -28.8490   23.2200 O   0  0  0  0  0  0  0  0  0  0  0  0
  -20.7570  -29.9490   21.6600 H   0  0  0  0  0  0  0  0  0  0  0  0
  -17.8570  -28.2020   22.8060 C   0  0  0  0  0  0  0  0  0  0  0  0
  -20.4190  -28.4120   23.0680 C   0  0  0  0  0  3  0  0  0  0  0  0
  -20.4960  -26.9970   22.4500 C   0  0  0  0  0  2  0  0  0  0  0  0
  -19.3820  -26.7200   21.4340 C   0  0  0  0  0  2  0  0  0  0  0  0
  -18.0080  -26.8690   22.0930 C   0  0  0  0  0  2  0  0  0  0  0  0
  -18.9900  -28.9340   23.2500 C   0  0  0  0  0  0  0  0  0  0  0  0
  -18.7960  -30.1830   23.8770 C   0  0  0  0  0  3  0  0  0  0  0  0
  -17.5020  -30.7020   24.0660 C   0  0  0  0  0  3  0  0  0  0  0  0
  -16.3820  -29.9660   23.6390 C   0  0  0  0  0  3  0  0  0  0  0  0
  -16.5610  -28.7180   23.0160 C   0  0  0  0  0  3  0  0  0  0  0  0
  -25.7730  -32.4840   23.7980 C   0  0  0  0  0  3  0  0  0  0  0  0
  -25.4940  -33.8810   24.1530 N   0  0  0  0  0  0  0  0  0  0  0  0
  -25.8530  -34.9390   23.4140 C   0  0  0  0  0  0  0  0  0  0  0  0
  -26.5260  -34.8390   22.3830 O   0  0  0  0  0  0  0  0  0  0  0  0
  -24.9000  -34.0340   24.9550 H   0  0  0  0  0  0  0  0  0  0  0  0
  -24.1670  -36.7750   23.0820 C   0  0  0  0  0  1  0  0  0  0  0  0
  -25.3940  -36.3290   23.8920 C   0  0  0  0  0  3  0  0  0  0  0  0
  -27.5440  -37.1540   24.7460 C   0  0  0  0  0  1  0  0  0  0  0  0
  -26.4500  -37.3620   23.8010 N   0  0  0  0  0  0  0  0  0  0  0  0
  -26.0630  -38.2880   23.9640 H   0  0  0  0  0  0  0  0  0  0  0  0
  -26.2820  -31.6780   25.0560 C   0  0  1  0  0  0  0  0  0  0  0  0
  -25.1940  -31.4500   26.1320 C   0  0  0  0  0  1  0  0  0  0  0  0
  -26.8240  -30.2930   24.6330 C   0  0  0  0  0  1  0  0  0  0  0  0
  -27.4580  -32.4310   25.7200 C   0  0  0  0  0  1  0  0  0  0  0  0
  1 43  1  0
  1  2  1  0
  1 51  1  0
  2  3  1  0
  4  2  1  0
  5  6  1  0
  5  2  1  0
  7  6  1  0
  8 13  1  0
  9 10  1  0
  9  8  1  0
 11 10  1  0
 11 18  1  0
 11 12  1  0
 13  7  1  0
 13 12  1  0
 14  7  2  0
 15 16  2  0
 16 35  1  0
 17 20  1  0
 17 16  1  0
 18 19  1  0
 18 15  1  0
 19 17  2  0
 20 21  1  0
 21 22  2  0
 23 26  1  0
 23 22  1  0
 24 23  2  0
 25 24  1  0
 25 20  2  0
 26 27  1  0
 27 28  1  0
 28 29  2  0
 30 29  1  0
 30 34  1  0
 31 30  2  0
 32 27  2  0
 32 31  1  0
 33 32  1  0
 35 36  1  0
 36 39  1  0
 36 38  1  0
 37 35  2  0
 40 15  1  0
 40 41  1  0
 42 40  1  0
 44 46  2  0
 44 45  1  0
 45 48  2  0
 46 49  1  0
 48 47  1  0
 48 50  1  0
 49 43  1  0
 49 47  2  0
 52 53  1  0
 52 51  1  0
 53 54  1  0
 54 55  1  0
 54 56  1  0
 57 58  1  0
 57 54  1  0
 59 61  1  0
 59 58  1  0
 60 71  2  0
 61 66  1  0
 62 70  1  0
 62 72  1  0
 63 69  1  0
 63 65  1  0
 64 70  1  0
 65 64  1  0
 66 65  2  0
 67 68  1  0
 67 61  2  0
 68 63  2  0
 69 62  1  0
 70 60  1  0
 72 74  2  0
 73 72  1  0
 75 73  1  0
 76 85  2  0
 76 81  1  0
 77 73  1  0
 77 81  1  0
 78 77  1  0
 79 80  1  0
 79 78  1  0
 80 76  1  0
 81 82  2  0
 82 83  1  0
 84 83  2  0
 85 84  1  0
 86 60  1  0
 86 87  1  0
 86 96  1  0
 87 90  1  0
 88 92  1  0
 88 87  1  0
 89 88  2  0
 92 91  1  0
 94 92  1  0
 94 95  1  0
 94 93  1  0
 96 99  1  1
 96 97  1  0
 98 96  1  0
M  ISO  4   6 100   7 100  58 101  59 101
M  END
>  <TORSDO>  (18) 
F 27

>  <SCORE>  (18) 
-11.140

>  <name>  (18) 
17

>  <ligand_id>  (18) 
17

>  <original_smiles>  (18) 
[H]c1c([H])c([H])c2c(c1[H])C([H])([H])C([H])([H])C([H])([H])C2([H])N([H])C(=O)C1([H])N(C(=O)C([H])(N([H])C(=O)C([H])(N([H])C([H])([H])[H])C([H])([H])[H])C(C([H])([H])[H])(C([H])([H])[H])C([H])([H])[H])C([H])([H])c2c([H])c(OC([H])([H])C([H])([H])[N+]([H])([H])C([H])([H])C([H])([H])C([H])([H])C([H])(C([H])([H])c3c([H])c([H])c([H])c(C([H])([H])[H])c3[H])[N+]([H])([H])C([H])([H])C([H])([H])C(=O)N3C([H])([H])C([H])([H])C([H])([H])C([H])(n4nc(-c5c([H])c([H])c(Oc6c([H])c([H])c(F)c([H])c6F)c([H])c5[H])c(C(=O)N([H])[H])c4N([H])[H])C3([H])[H])c([H])c([H])c2C1([H])[H]

>  <smiles>  (18) 
[H]c1c([H])c([H])c2c(c1[H])C([H])([H])C([H])([H])C([H])([H])C2([H])N([H])C(=O)C1([H])N(C(=O)C([H])(N([H])C(=O)C([H])(N([H])C([H])([H])[H])C([H])([H])[H])C(C([H])([H])[H])(C([H])([H])[H])C([H])([H])[H])C([H])([H])c2c([H])c(OC([H])([H])C([H])([H])[N+]([H])([H])C([H])([H])C([H])([H])C([H])([H])C([H])(C([H])([H])c3c([H])c([H])c([H])c(C([H])([H])[H])c3[H])[N+]([H])([H])C([H])([H])C([H])([H])C(=O)N3C([H])([H])C([H])([H])C([H])([H])C([H])(n4nc(-c5c([H])c([H])c(Oc6c([H])c([H])c(F)c([H])c6F)c([H])c5[H])c(C(=O)N([H])[H])c4N([H])[H])C3([H])[H])c([H])c([H])c2C1([H])[H]

$$$$
18:0:0
     RDKit          3D

 90 98  0  0  1  0  0  0  0  0999 V2000
  -29.5870  -20.5970   20.3980 N   0  0  0  0  0  4  0  0  0  0  0  0
  -30.3350  -20.8220   21.0350 H   0  0  0  0  0  0  0  0  0  0  0  0
  -29.9990  -20.6070   19.4790 H   0  0  0  0  0  0  0  0  0  0  0  0
  -27.7460  -18.8110   20.2260 C   0  0  0  0  0  1  0  0  0  0  0  0
  -29.1840  -19.0870   20.7000 C   0  0  0  0  0  3  0  0  0  0  0  0
  -30.5730  -15.0540   20.5580 C   0  0  0  0  0  0  0  0  0  0  0  0
  -30.4980  -12.6580   19.7290 C   0  0  0  0  0  2  0  0  0  0  0  0
  -29.6210  -12.5070   18.4640 C   0  0  0  0  0  2  0  0  0  0  0  0
  -28.1310  -12.3560   18.8310 C   0  0  0  0  0  2  0  0  0  0  0  0
  -27.6640  -13.3140   19.9600 C   0  0  0  0  0  3  0  0  0  0  0  0
  -28.6790  -13.4040   21.1180 C   0  0  0  0  0  2  0  0  0  0  0  0
  -29.9650  -13.7970   20.5280 N   0  0  0  0  0  0  0  0  0  0  0  0
  -31.8090  -15.0750   20.5360 O   0  0  0  0  0  0  0  0  0  0  0  0
  -29.9530  -17.2230   18.0460 C   0  0  0  0  0  2  0  0  0  0  0  0
  -30.8490  -18.0180   18.9790 C   0  0  0  0  0  2  0  0  0  0  0  0
  -29.2170  -16.2220   18.9460 C   0  0  0  0  0  2  0  0  0  0  0  0
  -30.2360  -17.7920   20.3630 C   0  0  0  0  0  3  0  0  0  0  0  0
  -29.8240  -16.2560   20.2950 N   0  0  0  0  0  0  0  0  0  0  0  0
  -25.2590  -13.9080   20.5900 C   0  0  0  0  0  0  0  0  0  0  0  0
  -24.1790  -13.1380   20.9180 C   0  0  0  0  0  0  0  0  0  0  0  0
  -24.6460  -11.7880   20.9310 C   0  0  0  0  0  0  0  0  0  0  0  0
  -26.3120  -13.0250   20.4140 N   0  0  0  0  0  0  0  0  0  0  0  0
  -25.9500  -11.7480   20.6880 N   0  0  0  0  0  0  0  0  0  0  0  0
  -23.9150  -10.5280   21.1010 C   0  0  0  0  0  0  0  0  0  0  0  0
  -24.3100   -9.5680   22.0590 C   0  0  0  0  0  3  0  0  0  0  0  0
  -23.5780   -8.3730   22.2170 C   0  0  0  0  0  3  0  0  0  0  0  0
  -22.4380   -8.1270   21.4160 C   0  0  0  0  0  0  0  0  0  0  0  0
  -22.0630   -9.0740   20.4480 C   0  0  0  0  0  3  0  0  0  0  0  0
  -22.7960  -10.2620   20.2880 C   0  0  0  0  0  3  0  0  0  0  0  0
  -21.6810   -6.9820   21.4830 O   0  0  0  0  0  0  0  0  0  0  0  0
  -21.5890   -6.2480   22.6380 C   0  0  0  0  0  0  0  0  0  0  0  0
  -21.1120   -6.8100   23.8420 C   0  0  0  0  0  3  0  0  0  0  0  0
  -20.9660   -6.0010   24.9880 C   0  0  0  0  0  3  0  0  0  0  0  0
  -21.2900   -4.6330   24.9290 C   0  0  0  0  0  0  0  0  0  0  0  0
  -21.7610   -4.0710   23.7300 C   0  0  0  0  0  3  0  0  0  0  0  0
  -21.9070   -4.8760   22.5870 C   0  0  0  0  0  0  0  0  0  0  0  0
  -22.3410   -4.3250   21.4270 F   0  0  0  0  0  0  0  0  0  0  0  0
  -21.1430   -3.8530   26.0260 F   0  0  0  0  0  0  0  0  0  0  0  0
  -22.7690  -13.6160   21.1100 C   0  0  0  0  0  0  0  0  0  0  0  0
  -22.0030  -12.9380   21.9570 N   0  0  0  0  0  0  0  0  0  0  0  0
  -22.3540  -14.6280   20.5440 O   0  0  0  0  0  0  0  0  0  0  0  0
  -22.3490  -12.1190   22.4330 H   0  0  0  0  0  0  0  0  0  0  0  0
  -21.0560  -13.2440   22.1310 H   0  0  0  0  0  0  0  0  0  0  0  0
  -25.4280  -15.2770   20.4020 N   0  0  0  0  0  0  0  0  0  0  0  0
  -24.6540  -15.9310   20.4660 H   0  0  0  0  0  0  0  0  0  0  0  0
  -26.2980  -15.7160   20.1280 H   0  0  0  0  0  0  0  0  0  0  0  0
  -28.5790  -21.8220   20.4250 C   0  0  0  0  0  2  0  0  0  0  0  0
  -29.0340  -23.4410   20.3080 C   0  0  0  0  0  3  0  0  0  0  0  0
  -27.9590  -24.7250   20.1390 C   0  0  0  0  0  3  0  0  0  0  0  0
  -28.2400  -26.2520   20.2000 O   0  0  0  0  0  0  0  0  0  0  0  0
  -24.6020  -31.8930   23.2340 C   0  0  0  0  0  0  0  0  0  0  0  0
  -27.1700  -27.2180   20.1530 C   0  0  0  0  0  0  0  0  0  0  0  0
  -23.3910  -30.5040   21.5980 C   0  0  0  0  0  3  0  0  0  0  0  0
  -24.8310  -28.9460   20.1500 C   0  0  0  0  0  0  0  0  0  0  0  0
  -25.9410  -30.7820   21.4100 C   0  0  0  0  0  2  0  0  0  0  0  0
  -26.0140  -29.3950   20.7500 C   0  0  0  0  0  0  0  0  0  0  0  0
  -27.1840  -28.5480   20.7340 C   0  0  0  0  0  3  0  0  0  0  0  0
  -25.9570  -26.8660   19.5190 C   0  0  0  0  0  3  0  0  0  0  0  0
  -24.8150  -27.6940   19.5200 C   0  0  0  0  0  3  0  0  0  0  0  0
  -23.6010  -29.8370   20.2130 C   0  0  0  0  0  2  0  0  0  0  0  0
  -24.6650  -31.0800   22.1350 N   0  0  0  0  0  0  0  0  0  0  0  0
  -23.5210  -32.1710   23.7740 O   0  0  0  0  0  0  0  0  0  0  0  0
  -22.7250  -29.4870   22.5580 C   0  0  0  0  0  0  0  0  0  0  0  0
  -21.3980  -29.3060   22.4350 N   0  0  0  0  0  0  0  0  0  0  0  0
  -23.4040  -28.8660   23.3800 O   0  0  0  0  0  0  0  0  0  0  0  0
  -20.9060  -29.8580   21.7460 H   0  0  0  0  0  0  0  0  0  0  0  0
  -18.0310  -28.0690   22.9330 C   0  0  0  0  0  0  0  0  0  0  0  0
  -20.5850  -28.3620   23.2090 C   0  0  0  0  0  3  0  0  0  0  0  0
  -20.7060  -26.9300   22.6400 C   0  0  0  0  0  2  0  0  0  0  0  0
  -19.6120  -26.5900   21.6240 C   0  0  0  0  0  2  0  0  0  0  0  0
  -18.2270  -26.7200   22.2620 C   0  0  0  0  0  2  0  0  0  0  0  0
  -19.1390  -28.8470   23.3630 C   0  0  0  0  0  0  0  0  0  0  0  0
  -18.9020  -30.1080   23.9520 C   0  0  0  0  0  3  0  0  0  0  0  0
  -17.5900  -30.5920   24.1150 C   0  0  0  0  0  3  0  0  0  0  0  0
  -16.4970  -29.8120   23.7000 C   0  0  0  0  0  3  0  0  0  0  0  0
  -16.7180  -28.5520   23.1160 C   0  0  0  0  0  3  0  0  0  0  0  0
  -25.8840  -32.5290   23.8530 C   0  0  0  0  0  3  0  0  0  0  0  0
  -26.4050  -31.7570   25.1270 C   0  0  1  0  0  0  0  0  0  0  0  0
  -25.3180  -31.5200   26.2010 C   0  0  0  0  0  1  0  0  0  0  0  0
  -26.9850  -30.3790   24.7360 C   0  0  0  0  0  1  0  0  0  0  0  0
  -27.5620  -32.5480   25.7820 C   0  0  0  0  0  1  0  0  0  0  0  0
  -25.5730  -33.9270   24.1920 N   0  0  0  0  0  0  0  0  0  0  0  0
  -25.8880  -34.9850   23.4330 C   0  0  0  0  0  0  0  0  0  0  0  0
  -26.5390  -34.8880   22.3890 O   0  0  0  0  0  0  0  0  0  0  0  0
  -24.9950  -34.0770   25.0060 H   0  0  0  0  0  0  0  0  0  0  0  0
  -24.1450  -36.7740   23.1260 C   0  0  0  0  0  1  0  0  0  0  0  0
  -25.4060  -36.3720   23.9060 C   0  0  0  0  0  3  0  0  0  0  0  0
  -27.5560  -37.2640   24.6910 C   0  0  0  0  0  1  0  0  0  0  0  0
  -26.4320  -37.4290   23.7720 N   0  0  0  0  0  0  0  0  0  0  0  0
  -26.0250  -38.3470   23.9310 H   0  0  0  0  0  0  0  0  0  0  0  0
  1 47  1  0
  1  5  1  0
  1  2  1  0
  3  1  1  0
  5  4  1  0
  7 12  1  0
  8  9  1  0
  8  7  1  0
 10  9  1  0
 10 22  1  0
 10 11  1  0
 12  6  1  0
 12 11  1  0
 13  6  2  0
 14 16  1  0
 14 15  1  0
 15 17  1  0
 16 18  1  0
 17  5  1  0
 18 17  1  0
 18  6  1  0
 19 20  2  0
 20 21  1  0
 20 39  1  0
 21 24  1  0
 22 19  1  0
 22 23  1  0
 23 21  2  0
 24 25  1  0
 25 26  2  0
 27 30  1  0
 27 26  1  0
 28 27  2  0
 29 28  1  0
 29 24  2  0
 30 31  1  0
 31 32  1  0
 32 33  2  0
 34 33  1  0
 34 38  1  0
 35 34  2  0
 36 31  2  0
 36 35  1  0
 37 36  1  0
 39 40  1  0
 40 43  1  0
 40 42  1  0
 41 39  2  0
 44 45  1  0
 44 19  1  0
 46 44  1  0
 48 47  1  0
 49 50  1  0
 49 48  2  0
 51 62  2  0
 52 50  1  0
 52 57  1  0
 53 61  1  0
 53 63  1  0
 54 60  1  0
 54 56  1  0
 55 61  1  0
 56 55  1  0
 57 56  2  0
 58 59  1  0
 58 52  2  0
 59 54  2  0
 60 53  1  0
 61 51  1  0
 63 65  2  0
 64 63  1  0
 66 64  1  0
 67 76  2  0
 67 72  1  0
 68 64  1  0
 68 72  1  0
 69 68  1  0
 70 71  1  0
 70 69  1  0
 71 67  1  0
 72 73  2  0
 73 74  1  0
 75 74  2  0
 76 75  1  0
 77 51  1  0
 77 82  1  0
 77 78  1  0
 78 81  1  1
 78 79  1  0
 80 78  1  0
 82 85  1  0
 83 87  1  0
 83 82  1  0
 84 83  2  0
 87 86  1  0
 89 87  1  0
 89 90  1  0
 89 88  1  0
M  ISO  4   6 100  18 100  49 101  50 101
M  END
>  <TORSDO>  (19) 
F 20

>  <SCORE>  (19) 
-13.618

>  <name>  (19) 
18

>  <ligand_id>  (19) 
18

>  <original_smiles>  (19) 
[H]c1c([H])c([H])c2c(c1[H])C([H])([H])C([H])([H])C([H])([H])C2([H])N([H])C(=O)C1([H])N(C(=O)C([H])(N([H])C(=O)C([H])(N([H])C([H])([H])[H])C([H])([H])[H])C(C([H])([H])[H])(C([H])([H])[H])C([H])([H])[H])C([H])([H])c2c([H])c(OC([H])([H])C([H])([H])C([H])([H])[N+]([H])([H])C([H])(C([H])([H])[H])C3([H])N(C(=O)N4C([H])([H])C([H])([H])C([H])([H])C([H])(n5nc(-c6c([H])c([H])c(Oc7c([H])c([H])c(F)c([H])c7F)c([H])c6[H])c(C(=O)N([H])[H])c5N([H])[H])C4([H])[H])C([H])([H])C([H])([H])C3([H])[H])c([H])c([H])c2C1([H])[H]

>  <smiles>  (19) 
[H]c1c([H])c([H])c2c(c1[H])C([H])([H])C([H])([H])C([H])([H])C2([H])N([H])C(=O)C1([H])N(C(=O)C([H])(N([H])C(=O)C([H])(N([H])C([H])([H])[H])C([H])([H])[H])C(C([H])([H])[H])(C([H])([H])[H])C([H])([H])[H])C([H])([H])c2c([H])c(OC([H])([H])C([H])([H])C([H])([H])[N+]([H])([H])C([H])(C([H])([H])[H])C3([H])N(C(=O)N4C([H])([H])C([H])([H])C([H])([H])C([H])(n5nc(-c6c([H])c([H])c(Oc7c([H])c([H])c(F)c([H])c7F)c([H])c6[H])c(C(=O)N([H])[H])c5N([H])[H])C4([H])[H])C([H])([H])C([H])([H])C3([H])[H])c([H])c([H])c2C1([H])[H]

$$$$
19:0:0
     RDKit          3D

 89 97  0  0  1  0  0  0  0  0999 V2000
  -26.9800  -21.3170   19.8230 C   0  0  0  0  0  1  0  0  0  0  0  0
  -28.4680  -21.6710   20.0650 C   0  0  0  0  0  3  0  0  0  0  0  0
  -29.1590  -20.4280   20.7310 N   0  0  0  0  0  0  0  0  0  0  0  0
  -29.4340  -20.5560   21.7050 H   0  0  0  0  0  0  0  0  0  0  0  0
  -28.9940  -17.6080   18.2130 C   0  0  0  0  0  3  0  0  0  0  0  0
  -29.3900  -16.4390   18.8930 C   0  0  0  0  0  3  0  0  0  0  0  0
  -28.9520  -18.8650   18.8400 C   0  0  0  0  0  3  0  0  0  0  0  0
  -29.7690  -17.7910   20.8620 C   0  0  0  0  0  3  0  0  0  0  0  0
  -29.8350  -16.4410   20.2360 C   0  0  0  0  0  0  0  0  0  0  0  0
  -29.2890  -19.0460   20.1970 C   0  0  0  0  0  0  0  0  0  0  0  0
  -30.5670  -15.0970   20.7250 C   0  0  0  0  0  0  0  0  0  0  0  0
  -30.5620  -12.7060   19.9120 C   0  0  0  0  0  2  0  0  0  0  0  0
  -29.7380  -12.5800   18.6180 C   0  0  0  0  0  2  0  0  0  0  0  0
  -28.2320  -12.4070   18.9160 C   0  0  0  0  0  2  0  0  0  0  0  0
  -27.7140  -13.3560   20.0300 C   0  0  0  0  0  3  0  0  0  0  0  0
  -28.6820  -13.4240   21.2230 C   0  0  0  0  0  2  0  0  0  0  0  0
  -29.9890  -13.8290   20.7010 N   0  0  0  0  0  0  0  0  0  0  0  0
  -31.8020  -15.1350   20.7240 O   0  0  0  0  0  0  0  0  0  0  0  0
  -25.2830  -13.9060   20.6120 C   0  0  0  0  0  0  0  0  0  0  0  0
  -24.2090  -13.1210   20.9240 C   0  0  0  0  0  0  0  0  0  0  0  0
  -24.6960  -11.7770   20.9550 C   0  0  0  0  0  0  0  0  0  0  0  0
  -26.3530  -13.0430   20.4520 N   0  0  0  0  0  0  0  0  0  0  0  0
  -26.0060  -11.7580   20.7330 N   0  0  0  0  0  0  0  0  0  0  0  0
  -23.9770  -10.5080   21.1190 C   0  0  0  0  0  0  0  0  0  0  0  0
  -24.3610   -9.5610   22.0950 C   0  0  0  0  0  3  0  0  0  0  0  0
  -23.6410   -8.3570   22.2450 C   0  0  0  0  0  3  0  0  0  0  0  0
  -22.5220   -8.0910   21.4210 C   0  0  0  0  0  0  0  0  0  0  0  0
  -22.1580   -9.0240   20.4360 C   0  0  0  0  0  3  0  0  0  0  0  0
  -22.8780  -10.2210   20.2830 C   0  0  0  0  0  3  0  0  0  0  0  0
  -21.7770   -6.9380   21.4800 O   0  0  0  0  0  0  0  0  0  0  0  0
  -21.6710   -6.2100   22.6370 C   0  0  0  0  0  0  0  0  0  0  0  0
  -21.1630   -6.7720   23.8280 C   0  0  0  0  0  3  0  0  0  0  0  0
  -21.0040   -5.9700   24.9740 C   0  0  0  0  0  3  0  0  0  0  0  0
  -21.3420   -4.6030   24.9310 C   0  0  0  0  0  0  0  0  0  0  0  0
  -21.8450   -4.0380   23.7450 C   0  0  0  0  0  3  0  0  0  0  0  0
  -22.0030   -4.8400   22.6010 C   0  0  0  0  0  0  0  0  0  0  0  0
  -22.4660   -4.2880   21.4540 F   0  0  0  0  0  0  0  0  0  0  0  0
  -21.1830   -3.8270   26.0280 F   0  0  0  0  0  0  0  0  0  0  0  0
  -22.7860  -13.5760   21.0780 C   0  0  0  0  0  0  0  0  0  0  0  0
  -22.0040  -12.8940   21.9010 N   0  0  0  0  0  0  0  0  0  0  0  0
  -22.3720  -14.5780   20.4940 O   0  0  0  0  0  0  0  0  0  0  0  0
  -22.3400  -12.0930   22.4170 H   0  0  0  0  0  0  0  0  0  0  0  0
  -21.0480  -13.1920   22.0370 H   0  0  0  0  0  0  0  0  0  0  0  0
  -25.4290  -15.2790   20.4270 N   0  0  0  0  0  0  0  0  0  0  0  0
  -24.6410  -15.9160   20.4920 H   0  0  0  0  0  0  0  0  0  0  0  0
  -26.2880  -15.7380   20.1520 H   0  0  0  0  0  0  0  0  0  0  0  0
  -28.6020  -23.2530   20.6700 C   0  0  0  0  0  3  0  0  0  0  0  0
  -27.9210  -24.6670   20.0140 C   0  0  0  0  0  3  0  0  0  0  0  0
  -28.1720  -26.1830   20.3560 O   0  0  0  0  0  0  0  0  0  0  0  0
  -24.5990  -31.9680   23.2500 C   0  0  0  0  0  0  0  0  0  0  0  0
  -27.1520  -27.2070   20.2460 C   0  0  0  0  0  0  0  0  0  0  0  0
  -23.4040  -30.5630   21.6210 C   0  0  0  0  0  3  0  0  0  0  0  0
  -24.8520  -28.9900   20.1900 C   0  0  0  0  0  0  0  0  0  0  0  0
  -25.9610  -30.8190   21.4630 C   0  0  0  0  0  2  0  0  0  0  0  0
  -26.0300  -29.4230   20.8090 C   0  0  0  0  0  0  0  0  0  0  0  0
  -27.1830  -28.5470   20.8210 C   0  0  0  0  0  3  0  0  0  0  0  0
  -25.9550  -26.8930   19.5670 C   0  0  0  0  0  3  0  0  0  0  0  0
  -24.8330  -27.7470   19.5440 C   0  0  0  0  0  3  0  0  0  0  0  0
  -23.6280  -29.8900   20.2400 C   0  0  0  0  0  2  0  0  0  0  0  0
  -24.6750  -31.1400   22.1650 N   0  0  0  0  0  0  0  0  0  0  0  0
  -23.5120  -32.2530   23.7750 O   0  0  0  0  0  0  0  0  0  0  0  0
  -22.7310  -29.5530   22.5850 C   0  0  0  0  0  0  0  0  0  0  0  0
  -21.4020  -29.3800   22.4640 N   0  0  0  0  0  0  0  0  0  0  0  0
  -23.4040  -28.9330   23.4110 O   0  0  0  0  0  0  0  0  0  0  0  0
  -20.9130  -29.9380   21.7780 H   0  0  0  0  0  0  0  0  0  0  0  0
  -18.0210  -28.1710   22.9730 C   0  0  0  0  0  0  0  0  0  0  0  0
  -20.5810  -28.4440   23.2390 C   0  0  0  0  0  3  0  0  0  0  0  0
  -20.6860  -27.0070   22.6760 C   0  0  0  0  0  2  0  0  0  0  0  0
  -19.5830  -26.6740   21.6650 C   0  0  0  0  0  2  0  0  0  0  0  0
  -18.2020  -26.8180   22.3060 C   0  0  0  0  0  2  0  0  0  0  0  0
  -19.1380  -28.9420   23.3970 C   0  0  0  0  0  0  0  0  0  0  0  0
  -18.9130  -30.2080   23.9820 C   0  0  0  0  0  3  0  0  0  0  0  0
  -17.6050  -30.7020   24.1450 C   0  0  0  0  0  3  0  0  0  0  0  0
  -16.5040  -29.9300   23.7360 C   0  0  0  0  0  3  0  0  0  0  0  0
  -16.7130  -28.6660   23.1560 C   0  0  0  0  0  3  0  0  0  0  0  0
  -25.8730  -32.6150   23.8740 C   0  0  0  0  0  3  0  0  0  0  0  0
  -26.3860  -31.8550   25.1590 C   0  0  1  0  0  0  0  0  0  0  0  0
  -25.2910  -31.6230   26.2290 C   0  0  0  0  0  1  0  0  0  0  0  0
  -26.9730  -30.4750   24.7860 C   0  0  0  0  0  1  0  0  0  0  0  0
  -27.5300  -32.6610   25.8190 C   0  0  0  0  0  1  0  0  0  0  0  0
  -25.5550  -34.0140   24.1990 N   0  0  0  0  0  0  0  0  0  0  0  0
  -25.8970  -35.0710   23.4500 C   0  0  0  0  0  0  0  0  0  0  0  0
  -26.5790  -34.9710   22.4270 O   0  0  0  0  0  0  0  0  0  0  0  0
  -24.9510  -34.1650   24.9940 H   0  0  0  0  0  0  0  0  0  0  0  0
  -24.1840  -36.8780   23.0700 C   0  0  0  0  0  1  0  0  0  0  0  0
  -25.4050  -36.4600   23.9060 C   0  0  0  0  0  3  0  0  0  0  0  0
  -27.5250  -37.3300   24.7900 C   0  0  0  0  0  1  0  0  0  0  0  0
  -26.4410  -37.5110   23.8270 N   0  0  0  0  0  0  0  0  0  0  0  0
  -26.0360  -38.4310   23.9780 H   0  0  0  0  0  0  0  0  0  0  0  0
  2  1  1  0
  2 47  1  0
  2  3  1  0
  3  4  1  0
  5  7  2  0
  5  6  1  0
  6  9  2  0
  7 10  1  0
  9 11  1  0
  9  8  1  0
 10  3  1  0
 10  8  2  0
 12 17  1  0
 13 14  1  0
 13 12  1  0
 15 14  1  0
 15 22  1  0
 15 16  1  0
 17 11  1  0
 17 16  1  0
 18 11  2  0
 19 20  2  0
 20 21  1  0
 20 39  1  0
 21 24  1  0
 22 19  1  0
 22 23  1  0
 23 21  2  0
 24 25  1  0
 25 26  2  0
 27 30  1  0
 27 26  1  0
 28 27  2  0
 29 28  1  0
 29 24  2  0
 30 31  1  0
 31 32  1  0
 32 33  2  0
 34 33  1  0
 34 38  1  0
 35 34  2  0
 36 31  2  0
 36 35  1  0
 37 36  1  0
 39 40  1  0
 40 43  1  0
 40 42  1  0
 41 39  2  0
 44 45  1  0
 44 19  1  0
 46 44  1  0
 48 49  1  0
 48 47  2  0
 50 61  2  0
 51 49  1  0
 51 56  1  0
 52 60  1  0
 52 62  1  0
 53 59  1  0
 53 55  1  0
 54 60  1  0
 55 56  2  0
 55 54  1  0
 57 51  2  0
 58 57  1  0
 58 53  2  0
 59 52  1  0
 60 50  1  0
 62 64  2  0
 63 62  1  0
 65 63  1  0
 66 75  2  0
 66 71  1  0
 67 63  1  0
 67 71  1  0
 68 67  1  0
 69 70  1  0
 69 68  1  0
 70 66  1  0
 71 72  2  0
 72 73  1  0
 74 73  2  0
 75 74  1  0
 76 50  1  0
 76 81  1  0
 76 77  1  0
 77 80  1  1
 77 78  1  0
 79 77  1  0
 81 84  1  0
 82 86  1  0
 82 81  1  0
 83 82  2  0
 86 85  1  0
 88 86  1  0
 88 89  1  0
 88 87  1  0
M  ISO  4   9 100  11 100  48 101  49 101
M  END
>  <TORSDO>  (20) 
F 20

>  <SCORE>  (20) 
-14.201

>  <name>  (20) 
19

>  <ligand_id>  (20) 
19

>  <original_smiles>  (20) 
[H]c1c([H])c(C(=O)N2C([H])([H])C([H])([H])C([H])([H])C([H])(n3nc(-c4c([H])c([H])c(Oc5c([H])c([H])c(F)c([H])c5F)c([H])c4[H])c(C(=O)N([H])[H])c3N([H])[H])C2([H])[H])c([H])c(N([H])C([H])(C([H])([H])[H])C([H])([H])C([H])([H])Oc2c([H])c([H])c3c(c2[H])C([H])([H])N(C(=O)C([H])(N([H])C(=O)C([H])(N([H])C([H])([H])[H])C([H])([H])[H])C(C([H])([H])[H])(C([H])([H])[H])C([H])([H])[H])C([H])(C(=O)N([H])C2([H])c4c([H])c([H])c([H])c([H])c4C([H])([H])C([H])([H])C2([H])[H])C3([H])[H])c1[H]

>  <smiles>  (20) 
[H]c1c([H])c(C(=O)N2C([H])([H])C([H])([H])C([H])([H])C([H])(n3nc(-c4c([H])c([H])c(Oc5c([H])c([H])c(F)c([H])c5F)c([H])c4[H])c(C(=O)N([H])[H])c3N([H])[H])C2([H])[H])c([H])c(N([H])C([H])(C([H])([H])[H])C([H])([H])C([H])([H])Oc2c([H])c([H])c3c(c2[H])C([H])([H])N(C(=O)C([H])(N([H])C(=O)C([H])(N([H])C([H])([H])[H])C([H])([H])[H])C(C([H])([H])[H])(C([H])([H])[H])C([H])([H])[H])C([H])(C(=O)N([H])C2([H])c4c([H])c([H])c([H])c([H])c4C([H])([H])C([H])([H])C2([H])[H])C3([H])[H])c1[H]

$$$$
20:0:0
     RDKit          3D

 90 97  0  0  1  0  0  0  0  0999 V2000
  -28.8350  -21.9050   20.5320 C   0  0  0  0  0  3  0  0  0  0  0  0
  -29.6320  -20.6600   19.9680 N   0  0  0  0  0  4  0  0  0  0  0  0
  -30.5210  -20.9980   19.6410 H   0  0  0  0  0  0  0  0  0  0  0  0
  -29.1100  -20.3790   19.1520 H   0  0  0  0  0  0  0  0  0  0  0  0
  -29.9010  -19.3450   20.8060 C   0  0  0  0  0  3  0  0  0  0  0  0
  -31.3590  -18.6220   22.8830 C   0  0  0  0  0  1  0  0  0  0  0  0
  -30.8990  -19.7340   21.9340 C   0  0  0  0  0  2  0  0  0  0  0  0
  -30.3920  -17.9180   20.0600 C   0  0  0  0  0  3  0  0  0  0  0  0
  -30.0970  -16.3730   20.6380 C   0  0  0  0  0  3  0  0  0  0  0  0
  -30.9040  -15.0000   20.2320 C   0  0  0  0  0  0  0  0  0  0  0  0
  -30.7410  -12.6740   19.2500 C   0  0  0  0  0  2  0  0  0  0  0  0
  -29.7980  -12.7050   18.0240 C   0  0  0  0  0  2  0  0  0  0  0  0
  -28.3280  -12.5340   18.4560 C   0  0  0  0  0  2  0  0  0  0  0  0
  -27.9570  -13.4440   19.6550 C   0  0  0  0  0  3  0  0  0  0  0  0
  -29.0170  -13.3820   20.7760 C   0  0  0  0  0  2  0  0  0  0  0  0
  -30.3110  -13.7450   20.1870 N   0  0  0  0  0  0  0  0  0  0  0  0
  -32.0780  -15.0890   19.8550 O   0  0  0  0  0  0  0  0  0  0  0  0
  -25.5850  -14.0760   20.3920 C   0  0  0  0  0  0  0  0  0  0  0  0
  -24.5070  -13.3220   20.7690 C   0  0  0  0  0  0  0  0  0  0  0  0
  -24.9470  -11.9630   20.7440 C   0  0  0  0  0  0  0  0  0  0  0  0
  -26.6120  -13.1780   20.1540 N   0  0  0  0  0  0  0  0  0  0  0  0
  -26.2370  -11.9020   20.4300 N   0  0  0  0  0  0  0  0  0  0  0  0
  -24.1990  -10.7150   20.9430 C   0  0  0  0  0  0  0  0  0  0  0  0
  -24.6010   -9.7570   21.8990 C   0  0  0  0  0  3  0  0  0  0  0  0
  -23.8530   -8.5740   22.0860 C   0  0  0  0  0  3  0  0  0  0  0  0
  -22.6900   -8.3400   21.3140 C   0  0  0  0  0  0  0  0  0  0  0  0
  -22.3060   -9.2860   20.3480 C   0  0  0  0  0  3  0  0  0  0  0  0
  -23.0550  -10.4610   20.1600 C   0  0  0  0  0  3  0  0  0  0  0  0
  -21.9170   -7.2080   21.4070 O   0  0  0  0  0  0  0  0  0  0  0  0
  -21.8140   -6.5010   22.5790 C   0  0  0  0  0  0  0  0  0  0  0  0
  -21.3560   -7.1010   23.7720 C   0  0  0  0  0  3  0  0  0  0  0  0
  -21.1990   -6.3210   24.9360 C   0  0  0  0  0  3  0  0  0  0  0  0
  -21.4900   -4.9450   24.9060 C   0  0  0  0  0  0  0  0  0  0  0  0
  -21.9400   -4.3450   23.7170 C   0  0  0  0  0  3  0  0  0  0  0  0
  -22.0980   -5.1210   22.5560 C   0  0  0  0  0  0  0  0  0  0  0  0
  -22.5120   -4.5350   21.4070 F   0  0  0  0  0  0  0  0  0  0  0  0
  -21.3310   -4.1940   26.0220 F   0  0  0  0  0  0  0  0  0  0  0  0
  -23.1190  -13.8250   21.0400 C   0  0  0  0  0  0  0  0  0  0  0  0
  -22.3860  -13.1560   21.9220 N   0  0  0  0  0  0  0  0  0  0  0  0
  -22.6940  -14.8480   20.5030 O   0  0  0  0  0  0  0  0  0  0  0  0
  -22.7430  -12.3290   22.3770 H   0  0  0  0  0  0  0  0  0  0  0  0
  -21.4550  -13.4760   22.1470 H   0  0  0  0  0  0  0  0  0  0  0  0
  -25.7720  -15.4430   20.2080 N   0  0  0  0  0  0  0  0  0  0  0  0
  -25.0170  -16.1100   20.3200 H   0  0  0  0  0  0  0  0  0  0  0  0
  -26.6270  -15.8650   19.8680 H   0  0  0  0  0  0  0  0  0  0  0  0
  -27.3680  -21.5900   20.2490 C   0  0  0  0  0  3  0  0  0  0  0  0
  -26.9490  -21.2480   19.1390 O   0  0  0  0  0  0  0  0  0  0  0  0
  -29.1330  -23.4870   20.0630 C   0  0  0  0  0  3  0  0  0  0  0  0
  -28.1630  -24.7760   20.5010 C   0  0  0  0  0  3  0  0  0  0  0  0
  -28.4330  -26.2840   20.3050 O   0  0  0  0  0  0  0  0  0  0  0  0
  -24.6480  -31.8530   23.2470 C   0  0  0  0  0  0  0  0  0  0  0  0
  -27.3480  -27.2210   20.2520 C   0  0  0  0  0  0  0  0  0  0  0  0
  -23.4930  -30.4400   21.5890 C   0  0  0  0  0  3  0  0  0  0  0  0
  -24.9870  -28.8970   20.1860 C   0  0  0  0  0  0  0  0  0  0  0  0
  -26.0400  -30.7580   21.4590 C   0  0  0  0  0  2  0  0  0  0  0  0
  -26.1470  -29.3710   20.8110 C   0  0  0  0  0  0  0  0  0  0  0  0
  -27.3300  -28.5480   20.8280 C   0  0  0  0  0  3  0  0  0  0  0  0
  -26.1660  -26.8460   19.5750 C   0  0  0  0  0  3  0  0  0  0  0  0
  -25.0070  -27.6470   19.5520 C   0  0  0  0  0  3  0  0  0  0  0  0
  -23.7430  -29.7700   20.2130 C   0  0  0  0  0  2  0  0  0  0  0  0
  -24.7450  -31.0380   22.1540 N   0  0  0  0  0  0  0  0  0  0  0  0
  -23.5510  -32.1190   23.7600 O   0  0  0  0  0  0  0  0  0  0  0  0
  -22.8200  -29.4190   22.5390 C   0  0  0  0  0  0  0  0  0  0  0  0
  -21.5000  -29.2160   22.3850 N   0  0  0  0  0  0  0  0  0  0  0  0
  -23.4890  -28.8100   23.3790 O   0  0  0  0  0  0  0  0  0  0  0  0
  -21.0170  -29.7610   21.6840 H   0  0  0  0  0  0  0  0  0  0  0  0
  -18.1450  -27.9100   22.7830 C   0  0  0  0  0  0  0  0  0  0  0  0
  -20.6820  -28.2650   23.1420 C   0  0  0  0  0  3  0  0  0  0  0  0
  -20.8540  -26.8270   22.5980 C   0  0  0  0  0  2  0  0  0  0  0  0
  -19.8020  -26.4490   21.5510 C   0  0  0  0  0  2  0  0  0  0  0  0
  -18.3930  -26.5570   22.1400 C   0  0  0  0  0  2  0  0  0  0  0  0
  -19.2210  -28.7190   23.2400 C   0  0  0  0  0  0  0  0  0  0  0  0
  -18.9360  -29.9810   23.8020 C   0  0  0  0  0  3  0  0  0  0  0  0
  -17.6080  -30.4390   23.9130 C   0  0  0  0  0  3  0  0  0  0  0  0
  -16.5470  -29.6280   23.4720 C   0  0  0  0  0  3  0  0  0  0  0  0
  -16.8170  -28.3660   22.9130 C   0  0  0  0  0  3  0  0  0  0  0  0
  -25.9080  -32.5070   23.8910 C   0  0  0  0  0  3  0  0  0  0  0  0
  -26.3940  -31.7620   25.1950 C   0  0  1  0  0  0  0  0  0  0  0  0
  -25.2750  -31.5360   26.2380 C   0  0  0  0  0  1  0  0  0  0  0  0
  -26.9970  -30.3820   24.8470 C   0  0  0  0  0  1  0  0  0  0  0  0
  -27.5210  -32.5780   25.8740 C   0  0  0  0  0  1  0  0  0  0  0  0
  -25.5780  -33.9090   24.1930 N   0  0  0  0  0  0  0  0  0  0  0  0
  -25.9360  -34.9570   23.4400 C   0  0  0  0  0  0  0  0  0  0  0  0
  -26.6440  -34.8470   22.4360 O   0  0  0  0  0  0  0  0  0  0  0  0
  -24.9530  -34.0680   24.9690 H   0  0  0  0  0  0  0  0  0  0  0  0
  -24.2150  -36.7430   23.0090 C   0  0  0  0  0  1  0  0  0  0  0  0
  -25.4290  -36.3490   23.8670 C   0  0  0  0  0  3  0  0  0  0  0  0
  -27.5320  -37.2500   24.7600 C   0  0  0  0  0  1  0  0  0  0  0  0
  -26.4620  -37.4040   23.7780 N   0  0  0  0  0  0  0  0  0  0  0  0
  -26.0480  -38.3250   23.9050 H   0  0  0  0  0  0  0  0  0  0  0  0
  1 48  1  0
  2  1  1  0
  2  5  1  0
  3  2  1  0
  4  2  1  0
  5  8  1  0
  5  7  1  0
  7  6  1  0
  8  9  2  0
 10  9  1  0
 11 16  1  0
 12 13  1  0
 12 11  1  0
 14 13  1  0
 14 21  1  0
 14 15  1  0
 16 10  1  0
 16 15  1  0
 17 10  2  0
 18 19  2  0
 19 38  1  0
 20 19  1  0
 20 23  1  0
 21 18  1  0
 21 22  1  0
 22 20  2  0
 23 24  1  0
 24 25  2  0
 26 29  1  0
 26 25  1  0
 27 26  2  0
 28 27  1  0
 28 23  2  0
 29 30  1  0
 30 31  1  0
 31 32  2  0
 33 32  1  0
 33 37  1  0
 34 33  2  0
 35 30  2  0
 35 34  1  0
 36 35  1  0
 38 39  1  0
 39 42  1  0
 39 41  1  0
 40 38  2  0
 43 44  1  0
 43 18  1  0
 45 43  1  0
 46  1  1  0
 47 46  2  0
 48 49  2  0
 50 49  1  0
 51 62  2  0
 52 50  1  0
 52 57  1  0
 53 61  1  0
 53 63  1  0
 54 60  1  0
 54 56  1  0
 55 61  1  0
 56 57  2  0
 56 55  1  0
 58 52  2  0
 59 58  1  0
 59 54  2  0
 60 53  1  0
 61 51  1  0
 63 65  2  0
 64 63  1  0
 66 64  1  0
 67 76  2  0
 67 72  1  0
 68 64  1  0
 68 72  1  0
 69 68  1  0
 70 71  1  0
 70 69  1  0
 71 67  1  0
 72 73  2  0
 73 74  1  0
 75 74  2  0
 76 75  1  0
 77 51  1  0
 77 82  1  0
 77 78  1  0
 78 81  1  1
 78 79  1  0
 80 78  1  0
 82 85  1  0
 83 87  1  0
 83 82  1  0
 84 83  2  0
 87 86  1  0
 89 87  1  0
 89 90  1  0
 89 88  1  0
M  ISO  4   9 100  10 100  49 101  50 101
M  END
>  <TORSDO>  (21) 
F 24

>  <SCORE>  (21) 
-11.850

>  <name>  (21) 
20

>  <ligand_id>  (21) 
20

>  <original_smiles>  (21) 
[H]C(=O)C([H])(C([H])([H])C([H])([H])Oc1c([H])c([H])c2c(c1[H])C([H])([H])N(C(=O)C([H])(N([H])C(=O)C([H])(N([H])C([H])([H])[H])C([H])([H])[H])C(C([H])([H])[H])(C([H])([H])[H])C([H])([H])[H])C([H])(C(=O)N([H])C1([H])c3c([H])c([H])c([H])c([H])c3C([H])([H])C([H])([H])C1([H])[H])C2([H])[H])[N+]([H])([H])C([H])(C([H])([H])C([H])([H])[H])C([H])([H])C([H])([H])C(=O)N1C([H])([H])C([H])([H])C([H])([H])C([H])(n2nc(-c3c([H])c([H])c(Oc4c([H])c([H])c(F)c([H])c4F)c([H])c3[H])c(C(=O)N([H])[H])c2N([H])[H])C1([H])[H]

>  <smiles>  (21) 
[H]C(=O)C([H])(C([H])([H])C([H])([H])Oc1c([H])c([H])c2c(c1[H])C([H])([H])N(C(=O)C([H])(N([H])C(=O)C([H])(N([H])C([H])([H])[H])C([H])([H])[H])C(C([H])([H])[H])(C([H])([H])[H])C([H])([H])[H])C([H])(C(=O)N([H])C1([H])c3c([H])c([H])c([H])c([H])c3C([H])([H])C([H])([H])C1([H])[H])C2([H])[H])[N+]([H])([H])C([H])(C([H])([H])C([H])([H])[H])C([H])([H])C([H])([H])C(=O)N1C([H])([H])C([H])([H])C([H])([H])C([H])(n2nc(-c3c([H])c([H])c(Oc4c([H])c([H])c(F)c([H])c4F)c([H])c3[H])c(C(=O)N([H])[H])c2N([H])[H])C1([H])[H]

$$$$
21:0:0
     RDKit          3D

 97105  0  0  1  0  0  0  0  0999 V2000
  -28.8670  -19.3600   19.9830 C   0  0  0  0  0  3  0  0  0  0  0  0
  -27.3960  -19.4170   19.8410 N   0  0  0  0  0  4  0  0  0  0  0  0
  -26.9110  -19.2420   20.7070 H   0  0  0  0  0  0  0  0  0  0  0  0
  -27.0580  -18.8320   19.0980 H   0  0  0  0  0  0  0  0  0  0  0  0
  -27.1550  -20.3550   19.5680 H   0  0  0  0  0  0  0  0  0  0  0  0
  -29.3340  -20.7330   20.6670 C   0  0  0  0  0  3  0  0  0  0  0  0
  -28.7250  -22.0970   20.0950 C   0  0  0  0  0  3  0  0  0  0  0  0
  -29.2020  -23.5160   20.6500 C   0  0  0  0  0  2  0  0  0  0  0  0
  -28.3440  -24.7510   20.1340 C   0  0  0  0  0  2  0  0  0  0  0  0
  -28.6520  -26.1520   20.5000 O   0  0  0  0  0  0  0  0  0  0  0  0
  -25.1460  -31.5980   23.6600 C   0  0  0  0  0  0  0  0  0  0  0  0
  -27.5890  -27.0690   20.4450 C   0  0  0  0  0  0  0  0  0  0  0  0
  -23.9120  -30.3610   21.9150 C   0  0  0  0  0  3  0  0  0  0  0  0
  -25.3150  -28.8070   20.4490 C   0  0  0  0  0  0  0  0  0  0  0  0
  -26.4690  -30.5380   21.8230 C   0  0  0  0  0  2  0  0  0  0  0  0
  -26.4890  -29.1940   21.1080 C   0  0  0  0  0  0  0  0  0  0  0  0
  -27.6260  -28.3360   21.0980 C   0  0  0  0  0  3  0  0  0  0  0  0
  -26.3950  -26.7430   19.7540 C   0  0  0  0  0  3  0  0  0  0  0  0
  -25.2720  -27.5860   19.7620 C   0  0  0  0  0  3  0  0  0  0  0  0
  -24.1290  -29.7470   20.5070 C   0  0  0  0  0  2  0  0  0  0  0  0
  -25.1920  -30.8490   22.5220 N   0  0  0  0  0  0  0  0  0  0  0  0
  -24.0660  -31.9080   24.1840 O   0  0  0  0  0  0  0  0  0  0  0  0
  -23.1680  -29.3330   22.8010 C   0  0  0  0  0  0  0  0  0  0  0  0
  -21.8440  -29.2130   22.6020 N   0  0  0  0  0  0  0  0  0  0  0  0
  -23.7790  -28.6530   23.6280 O   0  0  0  0  0  0  0  0  0  0  0  0
  -21.4120  -29.8150   21.9130 H   0  0  0  0  0  0  0  0  0  0  0  0
  -18.4020  -28.1390   22.8940 C   0  0  0  0  0  0  0  0  0  0  0  0
  -20.9520  -28.2820   23.2950 C   0  0  0  0  0  3  0  0  0  0  0  0
  -21.0240  -26.8690   22.6730 C   0  0  0  0  0  2  0  0  0  0  0  0
  -19.9620  -26.6280   21.5950 C   0  0  0  0  0  2  0  0  0  0  0  0
  -18.5580  -26.8080   22.1760 C   0  0  0  0  0  2  0  0  0  0  0  0
  -19.5270  -28.8380   23.4050 C   0  0  0  0  0  0  0  0  0  0  0  0
  -19.3300  -30.0870   24.0340 C   0  0  0  0  0  3  0  0  0  0  0  0
  -18.0390  -30.6360   24.1540 C   0  0  0  0  0  3  0  0  0  0  0  0
  -16.9270  -29.9330   23.6570 C   0  0  0  0  0  3  0  0  0  0  0  0
  -17.1110  -28.6870   23.0350 C   0  0  0  0  0  3  0  0  0  0  0  0
  -26.4470  -32.1210   24.3460 C   0  0  0  0  0  3  0  0  0  0  0  0
  -26.1910  -33.4960   24.7910 N   0  0  0  0  0  0  0  0  0  0  0  0
  -26.5770  -34.5950   24.1280 C   0  0  0  0  0  0  0  0  0  0  0  0
  -27.2600  -34.5520   23.1010 O   0  0  0  0  0  0  0  0  0  0  0  0
  -25.5940  -33.6020   25.5970 H   0  0  0  0  0  0  0  0  0  0  0  0
  -24.9290  -36.4820   23.9010 C   0  0  0  0  0  1  0  0  0  0  0  0
  -26.1360  -35.9560   24.6950 C   0  0  0  0  0  3  0  0  0  0  0  0
  -28.2900  -36.6770   25.6290 C   0  0  0  0  0  1  0  0  0  0  0  0
  -27.2110  -36.9720   24.6900 N   0  0  0  0  0  0  0  0  0  0  0  0
  -26.8390  -37.8920   24.9150 H   0  0  0  0  0  0  0  0  0  0  0  0
  -26.9090  -31.2220   25.5590 C   0  0  1  0  0  0  0  0  0  0  0  0
  -25.7850  -30.9260   26.5780 C   0  0  0  0  0  1  0  0  0  0  0  0
  -27.4630  -29.8660   25.0610 C   0  0  0  0  0  1  0  0  0  0  0  0
  -28.0620  -31.9200   26.3160 C   0  0  0  0  0  1  0  0  0  0  0  0
  -29.4230  -17.9880   20.6450 C   0  0  0  0  0  2  0  0  0  0  0  0
  -29.3300  -16.5210   19.9610 C   0  0  0  0  0  3  0  0  0  0  0  0
  -27.9320  -16.1740   19.4840 N   0  0  0  0  0  4  0  0  0  0  0  0
  -27.8020  -16.3860   18.5080 H   0  0  0  0  0  0  0  0  0  0  0  0
  -27.8670  -15.1660   19.4700 H   0  0  0  0  0  0  0  0  0  0  0  0
  -25.8030  -17.5590   19.4520 C   0  0  0  0  0  1  0  0  0  0  0  0
  -26.7370  -16.6320   20.2690 C   0  0  0  0  0  3  0  0  0  0  0  0
  -26.6200  -14.7160   21.9960 C   0  0  0  0  0  1  0  0  0  0  0  0
  -24.4840  -15.7720   21.2500 C   0  0  0  0  0  1  0  0  0  0  0  0
  -25.9220  -15.4120   20.8170 C   0  0  1  0  0  0  0  0  0  0  0  0
  -29.9290  -15.2940   20.8240 C   0  0  0  0  0  2  0  0  0  0  0  0
  -30.6020  -14.0050   20.1830 C   0  0  0  0  0  0  0  0  0  0  0  0
  -30.5610  -11.6220   19.4190 C   0  0  0  0  0  2  0  0  0  0  0  0
  -29.7450  -11.4990   18.1140 C   0  0  0  0  0  2  0  0  0  0  0  0
  -28.2400  -11.3410   18.4180 C   0  0  0  0  0  2  0  0  0  0  0  0
  -27.7390  -12.3910   19.4380 C   0  0  0  0  0  3  0  0  0  0  0  0
  -28.6750  -12.4470   20.6670 C   0  0  0  0  0  2  0  0  0  0  0  0
  -30.0250  -12.7610   20.1940 N   0  0  0  0  0  0  0  0  0  0  0  0
  -31.7290  -14.1430   19.6950 O   0  0  0  0  0  0  0  0  0  0  0  0
  -25.2690  -13.0300   19.7770 C   0  0  0  0  0  0  0  0  0  0  0  0
  -24.1850  -12.3050   20.1860 C   0  0  0  0  0  0  0  0  0  0  0  0
  -24.6650  -10.9850   20.4480 C   0  0  0  0  0  0  0  0  0  0  0  0
  -26.3460  -12.1560   19.8140 N   0  0  0  0  0  0  0  0  0  0  0  0
  -25.9810  -10.9360   20.2780 N   0  0  0  0  0  0  0  0  0  0  0  0
  -23.9430   -9.7540   20.7930 C   0  0  0  0  0  0  0  0  0  0  0  0
  -24.3940   -8.8970   21.8220 C   0  0  0  0  0  3  0  0  0  0  0  0
  -23.6740   -7.7280   22.1450 C   0  0  0  0  0  3  0  0  0  0  0  0
  -22.4920   -7.4020   21.4380 C   0  0  0  0  0  0  0  0  0  0  0  0
  -22.0620   -8.2440   20.3970 C   0  0  0  0  0  3  0  0  0  0  0  0
  -22.7820   -9.4060   20.0750 C   0  0  0  0  0  3  0  0  0  0  0  0
  -21.7430   -6.2730   21.6640 O   0  0  0  0  0  0  0  0  0  0  0  0
  -21.7300   -5.6520   22.8870 C   0  0  0  0  0  0  0  0  0  0  0  0
  -21.3520   -6.3330   24.0660 C   0  0  0  0  0  3  0  0  0  0  0  0
  -21.2880   -5.6380   25.2890 C   0  0  0  0  0  3  0  0  0  0  0  0
  -21.5950   -4.2640   25.3360 C   0  0  0  0  0  0  0  0  0  0  0  0
  -21.9670   -3.5850   24.1650 C   0  0  0  0  0  3  0  0  0  0  0  0
  -22.0330   -4.2770   22.9430 C   0  0  0  0  0  0  0  0  0  0  0  0
  -22.3770   -3.6140   21.8120 F   0  0  0  0  0  0  0  0  0  0  0  0
  -21.5270   -3.5940   26.5110 F   0  0  0  0  0  0  0  0  0  0  0  0
  -22.7600  -12.7750   20.2260 C   0  0  0  0  0  0  0  0  0  0  0  0
  -21.9690  -12.2470   21.1530 N   0  0  0  0  0  0  0  0  0  0  0  0
  -22.3580  -13.6540   19.4630 O   0  0  0  0  0  0  0  0  0  0  0  0
  -22.3150  -11.5540   21.8010 H   0  0  0  0  0  0  0  0  0  0  0  0
  -21.0080  -12.5440   21.2260 H   0  0  0  0  0  0  0  0  0  0  0  0
  -25.4430  -14.3500   19.3550 N   0  0  0  0  0  4  0  0  0  0  0  0
  -24.5260  -14.7640   19.2170 H   0  0  0  0  0  0  0  0  0  0  0  0
  -25.9210  -14.3510   18.4600 H   0  0  0  0  0  0  0  0  0  0  0  0
  1 51  1  0
  1  6  1  0
  2  1  1  0
  2  3  1  0
  4  2  1  0
  5  2  1  0
  7  8  1  0
  7  6  2  0
  9 10  1  0
  9  8  1  0
 11 22  2  0
 12 10  1  0
 12 17  1  0
 13 21  1  0
 13 23  1  0
 14 20  1  0
 14 16  1  0
 15 21  1  0
 16 15  1  0
 17 16  2  0
 18 19  1  0
 18 12  2  0
 19 14  2  0
 20 13  1  0
 21 11  1  0
 23 25  2  0
 24 23  1  0
 26 24  1  0
 27 36  2  0
 27 32  1  0
 28 24  1  0
 28 32  1  0
 29 28  1  0
 30 31  1  0
 30 29  1  0
 31 27  1  0
 32 33  2  0
 33 34  1  0
 35 34  2  0
 36 35  1  0
 37 11  1  0
 37 38  1  0
 37 47  1  0
 38 41  1  0
 39 43  1  0
 39 38  1  0
 40 39  2  0
 43 42  1  0
 45 43  1  0
 45 46  1  0
 45 44  1  0
 47 50  1  1
 47 48  1  0
 49 47  1  0
 52 51  1  0
 52 61  1  0
 53 52  1  0
 53 57  1  0
 54 53  1  0
 55 53  1  0
 57 56  1  0
 57 60  1  0
 60 59  1  1
 60 58  1  0
 62 68  1  0
 62 61  1  0
 63 68  1  0
 64 65  1  0
 64 63  1  0
 66 65  1  0
 66 73  1  0
 66 67  1  0
 68 67  1  0
 69 62  2  0
 70 73  1  0
 70 71  2  0
 71 90  1  0
 71 72  1  0
 72 75  1  0
 73 74  1  0
 74 72  2  0
 75 76  1  0
 76 77  2  0
 78 81  1  0
 78 77  1  0
 79 78  2  0
 80 79  1  0
 80 75  2  0
 81 82  1  0
 82 87  2  0
 82 83  1  0
 83 84  2  0
 84 85  1  0
 85 89  1  0
 86 85  2  0
 87 86  1  0
 88 87  1  0
 90 91  1  0
 91 94  1  0
 91 93  1  0
 92 90  2  0
 95 70  1  0
 95 60  1  0
 96 95  1  0
 97 95  1  0
M  ISO  4   9 101  10 101  61 100  62 100
M  END
>  <TORSDO>  (22) 
F 27

>  <SCORE>  (22) 
-6.370

>  <name>  (22) 
21

>  <ligand_id>  (22) 
21

>  <original_smiles>  (22) 
[H]c1c([H])c([H])c2c(c1[H])C([H])([H])C([H])([H])C([H])([H])C2([H])N([H])C(=O)C1([H])N(C(=O)C([H])(N([H])C(=O)C([H])(N([H])C([H])([H])[H])C([H])([H])[H])C(C([H])([H])[H])(C([H])([H])[H])C([H])([H])[H])C([H])([H])c2c([H])c(OC([H])([H])C([H])([H])C([H])([H])C([H])([H])C([H])(C([H])([H])C([H])(C([H])([H])C(=O)N3C([H])([H])C([H])([H])C([H])([H])C([H])(n4nc(-c5c([H])c([H])c(Oc6c([H])c([H])c(F)c([H])c6F)c([H])c5[H])c(C(=O)N([H])[H])c4N([H])[H])C3([H])[H])[N+]([H])([H])C([H])(C([H])([H])[H])C([H])(C([H])([H])[H])C([H])([H])[H])[N+]([H])([H])[H])c([H])c([H])c2C1([H])[H]

>  <smiles>  (22) 
[H]c1c([H])c([H])c2c(c1[H])C([H])([H])C([H])([H])C([H])([H])C2([H])N([H])C(=O)C1([H])N(C(=O)C([H])(N([H])C(=O)C([H])(N([H])C([H])([H])[H])C([H])([H])[H])C(C([H])([H])[H])(C([H])([H])[H])C([H])([H])[H])C([H])([H])c2c([H])c(OC([H])([H])C([H])([H])C([H])([H])C([H])([H])C([H])(C([H])([H])C([H])(C([H])([H])C(=O)N3C([H])([H])C([H])([H])C([H])([H])C([H])(n4nc(-c5c([H])c([H])c(Oc6c([H])c([H])c(F)c([H])c6F)c([H])c5[H])c(C(=O)N([H])[H])c4N([H])[H])C3([H])[H])[N+]([H])([H])C([H])(C([H])([H])[H])C([H])(C([H])([H])[H])C([H])([H])[H])[N+]([H])([H])[H])c([H])c([H])c2C1([H])[H]

$$$$
22:0:0
     RDKit          3D

 91 98  0  0  1  0  0  0  0  0999 V2000
  -29.3050  -21.0090   21.7450 C   0  0  0  0  0  3  0  0  0  0  0  0
  -28.6940  -21.0070   23.0260 O   0  0  0  0  0  0  0  0  0  0  0  0
  -29.3390  -20.7290   23.6710 H   0  0  0  0  0  0  0  0  0  0  0  0
  -29.1650  -19.6180   21.0900 C   0  0  0  0  0  2  0  0  0  0  0  0
  -30.0400  -18.5340   21.7650 C   0  0  0  0  0  2  0  0  0  0  0  0
  -31.9860  -18.5580   20.2340 C   0  0  0  0  0  1  0  0  0  0  0  0
  -30.8880  -17.7510   20.8220 N   0  0  1  0  0  4  0  0  0  0  0  0
  -30.3100  -17.4670   20.0460 H   0  0  0  0  0  0  0  0  0  0  0  0
  -31.3970  -16.5010   21.4510 C   0  0  0  0  0  2  0  0  0  0  0  0
  -30.4390  -15.3030   21.2650 C   0  0  0  0  0  2  0  0  0  0  0  0
  -30.7490  -14.4030   20.0570 C   0  0  0  0  0  0  0  0  0  0  0  0
  -30.3040  -12.3110   18.8130 C   0  0  0  0  0  2  0  0  0  0  0  0
  -29.2800  -12.5150   17.6820 C   0  0  0  0  0  2  0  0  0  0  0  0
  -27.8410  -12.3860   18.2160 C   0  0  0  0  0  2  0  0  0  0  0  0
  -27.6000  -13.2450   19.4860 C   0  0  0  0  0  3  0  0  0  0  0  0
  -28.7180  -13.0020   20.5250 C   0  0  0  0  0  2  0  0  0  0  0  0
  -30.0120  -13.2780   19.8780 N   0  0  0  0  0  0  0  0  0  0  0  0
  -31.6860  -14.7050   19.3080 O   0  0  0  0  0  0  0  0  0  0  0  0
  -25.2460  -13.8980   20.3090 C   0  0  0  0  0  0  0  0  0  0  0  0
  -24.1970  -13.1440   20.7650 C   0  0  0  0  0  0  0  0  0  0  0  0
  -24.6480  -11.7890   20.7460 C   0  0  0  0  0  0  0  0  0  0  0  0
  -26.2720  -13.0010   20.0480 N   0  0  0  0  0  0  0  0  0  0  0  0
  -25.9160  -11.7290   20.3620 N   0  0  0  0  0  0  0  0  0  0  0  0
  -23.9270  -10.5380   21.0180 C   0  0  0  0  0  0  0  0  0  0  0  0
  -24.3820   -9.6210   21.9910 C   0  0  0  0  0  3  0  0  0  0  0  0
  -23.6640   -8.4330   22.2470 C   0  0  0  0  0  3  0  0  0  0  0  0
  -22.4780   -8.1540   21.5280 C   0  0  0  0  0  0  0  0  0  0  0  0
  -22.0410   -9.0590   20.5450 C   0  0  0  0  0  3  0  0  0  0  0  0
  -22.7600  -10.2380   20.2880 C   0  0  0  0  0  3  0  0  0  0  0  0
  -21.7280   -7.0130   21.6920 O   0  0  0  0  0  0  0  0  0  0  0  0
  -21.6710   -6.3560   22.8940 C   0  0  0  0  0  0  0  0  0  0  0  0
  -21.2210   -6.9940   24.0710 C   0  0  0  0  0  3  0  0  0  0  0  0
  -21.1120   -6.2620   25.2700 C   0  0  0  0  0  3  0  0  0  0  0  0
  -21.4410   -4.8930   25.2940 C   0  0  0  0  0  0  0  0  0  0  0  0
  -21.8830   -4.2550   24.1210 C   0  0  0  0  0  3  0  0  0  0  0  0
  -21.9940   -4.9840   22.9240 C   0  0  0  0  0  0  0  0  0  0  0  0
  -22.4010   -4.3590   21.7930 F   0  0  0  0  0  0  0  0  0  0  0  0
  -21.3280   -4.1880   26.4430 F   0  0  0  0  0  0  0  0  0  0  0  0
  -22.8210  -13.6400   21.1080 C   0  0  0  0  0  0  0  0  0  0  0  0
  -22.1490  -12.9810   22.0460 N   0  0  0  0  0  0  0  0  0  0  0  0
  -22.3540  -14.6470   20.5800 O   0  0  0  0  0  0  0  0  0  0  0  0
  -22.5400  -12.1650   22.4950 H   0  0  0  0  0  0  0  0  0  0  0  0
  -21.2280  -13.2960   22.3190 H   0  0  0  0  0  0  0  0  0  0  0  0
  -25.4080  -15.2590   20.0780 N   0  0  0  0  0  0  0  0  0  0  0  0
  -24.6520  -15.9240   20.2050 H   0  0  0  0  0  0  0  0  0  0  0  0
  -26.2380  -15.6770   19.6750 H   0  0  0  0  0  0  0  0  0  0  0  0
  -28.6600  -22.1250   20.9030 C   0  0  0  0  0  2  0  0  0  0  0  0
  -28.9950  -23.5330   21.4240 C   0  0  0  0  0  2  0  0  0  0  0  0
  -28.5650  -24.6500   20.4610 C   0  0  0  0  0  2  0  0  0  0  0  0
  -28.8850  -26.0490   21.0060 C   0  0  0  0  0  2  0  0  0  0  0  0
  -28.6740  -27.0190   19.9890 O   0  0  0  0  0  0  0  0  0  0  0  0
  -24.7790  -31.9500   23.3170 C   0  0  0  0  0  0  0  0  0  0  0  0
  -27.4830  -27.6910   20.0730 C   0  0  0  0  0  0  0  0  0  0  0  0
  -23.5840  -30.5840   21.6320 C   0  0  0  0  0  3  0  0  0  0  0  0
  -25.0570  -29.1190   20.1520 C   0  0  0  0  0  0  0  0  0  0  0  0
  -26.0970  -31.0010   21.4310 C   0  0  0  0  0  2  0  0  0  0  0  0
  -26.2050  -29.6520   20.7540 C   0  0  0  0  0  0  0  0  0  0  0  0
  -27.4220  -28.9430   20.7160 C   0  0  0  0  0  3  0  0  0  0  0  0
  -26.3270  -27.1570   19.4700 C   0  0  0  0  0  3  0  0  0  0  0  0
  -25.1100  -27.8660   19.5110 C   0  0  0  0  0  3  0  0  0  0  0  0
  -23.7980  -29.9540   20.2290 C   0  0  0  0  0  2  0  0  0  0  0  0
  -24.8380  -31.1910   22.1870 N   0  0  0  0  0  0  0  0  0  0  0  0
  -23.6980  -32.1850   23.8740 O   0  0  0  0  0  0  0  0  0  0  0  0
  -22.9580  -29.5190   22.5600 C   0  0  0  0  0  0  0  0  0  0  0  0
  -21.6390  -29.3060   22.4180 N   0  0  0  0  0  0  0  0  0  0  0  0
  -23.6510  -28.8900   23.3630 O   0  0  0  0  0  0  0  0  0  0  0  0
  -21.1390  -29.8690   21.7450 H   0  0  0  0  0  0  0  0  0  0  0  0
  -18.2950  -28.0070   22.8430 C   0  0  0  0  0  0  0  0  0  0  0  0
  -20.8410  -28.3280   23.1560 C   0  0  0  0  0  3  0  0  0  0  0  0
  -20.9920  -26.9150   22.5460 C   0  0  0  0  0  2  0  0  0  0  0  0
  -19.9130  -26.5870   21.5100 C   0  0  0  0  0  2  0  0  0  0  0  0
  -18.5190  -26.6790   22.1390 C   0  0  0  0  0  2  0  0  0  0  0  0
  -19.3870  -28.7880   23.3050 C   0  0  0  0  0  0  0  0  0  0  0  0
  -19.1260  -30.0310   23.9210 C   0  0  0  0  0  3  0  0  0  0  0  0
  -17.8060  -30.4930   24.0800 C   0  0  0  0  0  3  0  0  0  0  0  0
  -16.7290  -29.7070   23.6350 C   0  0  0  0  0  3  0  0  0  0  0  0
  -16.9740  -28.4670   23.0210 C   0  0  0  0  0  3  0  0  0  0  0  0
  -26.0600  -32.5760   23.9510 C   0  0  0  0  0  3  0  0  0  0  0  0
  -26.5820  -31.7830   25.2120 C   0  0  1  0  0  0  0  0  0  0  0  0
  -25.4880  -31.5140   26.2710 C   0  0  0  0  0  1  0  0  0  0  0  0
  -27.1790  -30.4210   24.7890 C   0  0  0  0  0  1  0  0  0  0  0  0
  -27.7240  -32.5750   25.8920 C   0  0  0  0  0  1  0  0  0  0  0  0
  -25.7450  -33.9660   24.3040 N   0  0  0  0  0  0  0  0  0  0  0  0
  -26.0740  -35.0320   23.5600 C   0  0  0  0  0  0  0  0  0  0  0  0
  -26.7480  -34.9460   22.5300 O   0  0  0  0  0  0  0  0  0  0  0  0
  -25.1450  -34.1050   25.1030 H   0  0  0  0  0  0  0  0  0  0  0  0
  -24.3320  -36.8130   23.2300 C   0  0  0  0  0  1  0  0  0  0  0  0
  -25.5770  -36.4100   24.0360 C   0  0  0  0  0  3  0  0  0  0  0  0
  -27.7040  -37.2990   24.8770 C   0  0  0  0  0  1  0  0  0  0  0  0
  -26.6010  -37.4720   23.9360 N   0  0  0  0  0  0  0  0  0  0  0  0
  -26.1890  -38.3870   24.0960 H   0  0  0  0  0  0  0  0  0  0  0  0
  1 47  1  0
  1  2  1  0
  2  3  1  0
  4  1  1  0
  4  5  1  0
  6  7  1  0
  7  9  1  0
  7  5  1  0
  7  8  1  6
 10  9  1  0
 11 10  1  0
 12 17  1  0
 13 14  1  0
 13 12  1  0
 15 14  1  0
 15 22  1  0
 15 16  1  0
 17 11  1  0
 17 16  1  0
 18 11  2  0
 19 20  2  0
 20 39  1  0
 21 20  1  0
 21 24  1  0
 22 19  1  0
 22 23  1  0
 23 21  2  0
 24 25  1  0
 25 26  2  0
 27 30  1  0
 27 26  1  0
 28 27  2  0
 29 28  1  0
 29 24  2  0
 30 31  1  0
 31 36  2  0
 31 32  1  0
 32 33  2  0
 33 34  1  0
 34 38  1  0
 35 34  2  0
 36 35  1  0
 37 36  1  0
 39 40  1  0
 40 43  1  0
 40 42  1  0
 41 39  2  0
 44 45  1  0
 44 19  1  0
 46 44  1  0
 47 48  1  0
 49 50  1  0
 49 48  1  0
 51 53  1  0
 51 50  1  0
 52 63  2  0
 53 58  1  0
 54 62  1  0
 54 64  1  0
 55 61  1  0
 55 57  1  0
 56 62  1  0
 57 56  1  0
 58 57  2  0
 59 60  1  0
 59 53  2  0
 60 55  2  0
 61 54  1  0
 62 52  1  0
 64 66  2  0
 65 64  1  0
 67 65  1  0
 68 77  2  0
 68 73  1  0
 69 65  1  0
 69 73  1  0
 70 69  1  0
 71 72  1  0
 71 70  1  0
 72 68  1  0
 73 74  2  0
 74 75  1  0
 76 75  2  0
 77 76  1  0
 78 52  1  0
 78 83  1  0
 78 79  1  0
 79 82  1  1
 79 80  1  0
 81 79  1  0
 83 86  1  0
 84 88  1  0
 84 83  1  0
 85 84  2  0
 88 87  1  0
 90 88  1  0
 90 91  1  0
 90 89  1  0
M  ISO  4  10 100  11 100  50 101  51 101
M  END
>  <TORSDO>  (23) 
F 26

>  <SCORE>  (23) 
-10.274

>  <name>  (23) 
22

>  <ligand_id>  (23) 
22

>  <original_smiles>  (23) 
[H]OC([H])(C([H])([H])C([H])([H])C([H])([H])C([H])([H])Oc1c([H])c([H])c2c(c1[H])C([H])([H])N(C(=O)C([H])(N([H])C(=O)C([H])(N([H])C([H])([H])[H])C([H])([H])[H])C(C([H])([H])[H])(C([H])([H])[H])C([H])([H])[H])C([H])(C(=O)N([H])C1([H])c3c([H])c([H])c([H])c([H])c3C([H])([H])C([H])([H])C1([H])[H])C2([H])[H])C([H])([H])C([H])([H])[N+]([H])(C([H])([H])[H])C([H])([H])C([H])([H])C(=O)N1C([H])([H])C([H])([H])C([H])([H])C([H])(n2nc(-c3c([H])c([H])c(Oc4c([H])c([H])c(F)c([H])c4F)c([H])c3[H])c(C(=O)N([H])[H])c2N([H])[H])C1([H])[H]

>  <smiles>  (23) 
[H]OC([H])(C([H])([H])C([H])([H])C([H])([H])C([H])([H])Oc1c([H])c([H])c2c(c1[H])C([H])([H])N(C(=O)C([H])(N([H])C(=O)C([H])(N([H])C([H])([H])[H])C([H])([H])[H])C(C([H])([H])[H])(C([H])([H])[H])C([H])([H])[H])C([H])(C(=O)N([H])C1([H])c3c([H])c([H])c([H])c([H])c3C([H])([H])C([H])([H])C1([H])[H])C2([H])[H])C([H])([H])C([H])([H])[N+]([H])(C([H])([H])[H])C([H])([H])C([H])([H])C(=O)N1C([H])([H])C([H])([H])C([H])([H])C([H])(n2nc(-c3c([H])c([H])c(Oc4c([H])c([H])c(F)c([H])c4F)c([H])c3[H])c(C(=O)N([H])[H])c2N([H])[H])C1([H])[H]

$$$$
23:0:0
     RDKit          3D

 97100  0  0  1  0  0  0  0  0999 V2000
  -26.6800  -23.8770   21.0440 C   0  0  0  0  0  1  0  0  0  0  0  0
  -26.3110  -25.3980   18.1110 C   0  0  0  0  0  1  0  0  0  0  0  0
  -27.0960  -22.6000   21.0520 C   0  0  0  0  0  2  0  0  0  0  0  0
  -26.7580  -24.0100   19.0640 C   0  0  0  0  0  1  0  0  0  0  0  0
  -26.2130  -23.9660   18.9930 C   0  0  0  0  0  2  0  0  0  0  0  0
  -27.4370  -22.2080   19.7270 C   0  0  0  0  0  1  0  0  0  0  0  0
  -28.9380  -18.0010   19.9120 C   0  0  0  0  0  2  0  0  0  0  0  0
  -29.7970  -14.9390   19.3240 C   0  0  0  0  0  2  0  0  0  0  0  0
  -29.3950  -13.6030   18.4900 C   0  0  0  0  0  2  0  0  0  0  0  0
  -28.3590  -12.6520   19.0820 C   0  0  0  0  0  2  0  0  0  0  0  0
  -27.4670  -13.6110   19.8570 C   0  0  0  0  0  3  0  0  0  0  0  0
  -28.1250  -14.8990   20.6440 C   0  0  0  0  0  2  0  0  0  0  0  0
  -28.7110  -16.2150   19.8300 N   0  0  0  0  0  0  0  0  0  0  0  0
  -30.2090  -17.7340   19.8730 O   0  0  0  0  0  1  0  0  0  0  0  0
  -28.2560  -20.0610   19.9090 N   0  0  0  0  0  1  0  0  0  0  0  0
  -25.0800  -13.5580   20.6270 C   0  0  0  0  0  0  0  0  0  0  0  0
  -24.1320  -12.6450   20.9740 C   0  0  0  0  0  0  0  0  0  0  0  0
  -24.7560  -11.3530   20.9320 C   0  0  0  0  0  0  0  0  0  0  0  0
  -26.2670  -12.9050   20.4410 N   0  0  0  0  0  0  0  0  0  0  0  0
  -26.0710  -11.5180   20.6220 N   0  0  0  0  0  0  0  0  0  0  0  0
  -24.1110  -10.0190   21.1240 C   0  0  0  0  0  0  0  0  0  0  0  0
  -24.5130   -9.1090   22.1320 C   0  0  0  0  0  3  0  0  0  0  0  0
  -23.8350   -7.8790   22.3310 C   0  0  0  0  0  3  0  0  0  0  0  0
  -22.7210   -7.5330   21.5230 C   0  0  0  0  0  0  0  0  0  0  0  0
  -22.3270   -8.4250   20.5070 C   0  0  0  0  0  3  0  0  0  0  0  0
  -23.0100   -9.6450   20.3130 C   0  0  0  0  0  3  0  0  0  0  0  0
  -22.0220   -6.3480   21.6260 O   0  0  0  0  0  0  0  0  0  0  0  0
  -21.8880   -5.6800   22.8200 C   0  0  0  0  0  0  0  0  0  0  0  0
  -21.2550   -6.2700   23.9350 C   0  0  0  0  0  3  0  0  0  0  0  0
  -21.0830   -5.5310   25.1230 C   0  0  0  0  0  3  0  0  0  0  0  0
  -21.5230   -4.1960   25.1940 C   0  0  0  0  0  0  0  0  0  0  0  0
  -22.1370   -3.6000   24.0800 C   0  0  0  0  0  3  0  0  0  0  0  0
  -22.3180   -4.3390   22.8960 C   0  0  0  0  0  0  0  0  0  0  0  0
  -22.8960   -3.7500   21.8200 F   0  0  0  0  0  0  0  0  0  0  0  0
  -21.3490   -3.4830   26.3310 F   0  0  0  0  0  0  0  0  0  0  0  0
  -22.6900  -12.9820   21.2250 C   0  0  0  0  0  0  0  0  0  0  0  0
  -22.0280  -12.2450   22.1050 N   0  0  0  0  0  0  0  0  0  0  0  0
  -22.1750  -13.9620   20.6860 O   0  0  0  0  0  0  0  0  0  0  0  0
  -22.4670  -11.4630   22.5570 H   0  0  0  0  0  0  0  0  0  0  0  0
  -21.0730  -12.4700   22.3280 H   0  0  0  0  0  0  0  0  0  0  0  0
  -25.0390  -14.9190   20.4060 N   0  0  0  0  0  0  0  0  0  0  0  0
  -24.1940  -15.4780   20.4280 H   0  0  0  0  0  0  0  0  0  0  0  0
  -25.8430  -15.4300   20.0580 H   0  0  0  0  0  0  0  0  0  0  0  0
  -29.4710  -20.4750   20.7320 C   0  0  0  0  0  2  0  0  0  0  0  0
  -30.1980  -21.8180   24.3760 C   0  0  0  0  0  3  0  0  0  0  0  0
  -30.4550  -23.2860   24.0500 C   0  0  0  0  0  3  0  0  0  0  0  0
  -29.8850  -20.7850   23.2730 C   0  0  0  0  0  2  0  0  0  0  0  0
  -30.4210  -23.7970   22.6080 C   0  0  0  0  0  2  0  0  0  0  0  0
  -29.4430  -21.4990   22.0110 C   0  0  0  0  0  3  0  0  0  0  0  0
  -30.3240  -22.6710   21.5840 N   0  0  0  0  0  4  0  0  0  0  0  0
  -31.2500  -22.3140   21.3210 H   0  0  0  0  0  0  0  0  0  0  0  0
  -29.9820  -23.1000   20.6800 H   0  0  0  0  0  0  0  0  0  0  0  0
  -26.2390  -24.0480   16.9660 N   0  0  0  0  0  2  0  0  0  0  0  0
  -25.3570  -24.1230   16.6300 H   0  0  0  0  0  0  0  0  0  0  0  0
  -27.4310  -25.0870   16.4650 C   0  0  0  0  0  2  0  0  0  0  0  0
  -28.6020  -25.3660   17.9240 C   0  0  0  0  0  1  0  0  0  0  0  0
  -28.1770  -26.6870   19.4710 O   0  0  0  0  0  1  0  0  0  0  0  0
  -24.6280  -31.9860   23.2930 C   0  0  0  0  0  0  0  0  0  0  0  0
  -26.7290  -27.2510   20.0920 C   0  0  0  0  0  3  0  0  0  0  0  0
  -23.3180  -30.6460   21.6950 C   0  0  0  0  0  3  0  0  0  0  0  0
  -24.4820  -28.8810   20.4140 C   0  0  0  0  0  3  0  0  0  0  0  0
  -25.8570  -30.6440   21.5210 C   0  0  0  0  0  2  0  0  0  0  0  0
  -25.7850  -29.2940   20.9480 C   0  0  0  0  0  0  0  0  0  0  0  0
  -26.9040  -28.3850   20.8290 C   0  0  0  0  0  3  0  0  0  0  0  0
  -25.0830  -26.8610   20.3190 C   0  0  0  0  0  2  0  0  0  0  0  0
  -24.0510  -27.6170   19.9800 C   0  0  0  0  0  2  0  0  0  0  0  0
  -23.3570  -29.8710   20.4630 C   0  0  0  0  0  2  0  0  0  0  0  0
  -24.6190  -31.1380   22.1980 N   0  0  0  0  0  0  0  0  0  0  0  0
  -23.6080  -32.3900   23.8090 O   0  0  0  0  0  0  0  0  0  0  0  0
  -22.5220  -29.8730   22.7990 C   0  0  0  0  0  0  0  0  0  0  0  0
  -21.1880  -29.7170   22.6680 N   0  0  0  0  0  0  0  0  0  0  0  0
  -23.1700  -29.3660   23.7220 O   0  0  0  0  0  0  0  0  0  0  0  0
  -20.7120  -30.1390   21.8990 H   0  0  0  0  0  0  0  0  0  0  0  0
  -17.9310  -28.2100   23.1550 C   0  0  0  0  0  0  0  0  0  0  0  0
  -20.4280  -28.7960   23.4880 C   0  0  0  0  0  3  0  0  0  0  0  0
  -20.7070  -27.3380   23.0520 C   0  0  0  0  0  2  0  0  0  0  0  0
  -19.7060  -26.8170   22.0150 C   0  0  0  0  0  2  0  0  0  0  0  0
  -18.2920  -26.8440   22.5970 C   0  0  0  0  0  2  0  0  0  0  0  0
  -18.9370  -29.1370   23.5510 C   0  0  0  0  0  0  0  0  0  0  0  0
  -18.5450  -30.4010   24.0440 C   0  0  0  0  0  3  0  0  0  0  0  0
  -17.1840  -30.7450   24.1450 C   0  0  0  0  0  3  0  0  0  0  0  0
  -16.1970  -29.8210   23.7550 C   0  0  0  0  0  3  0  0  0  0  0  0
  -16.5680  -28.5530   23.2750 C   0  0  0  0  0  3  0  0  0  0  0  0
  -25.8840  -32.5760   23.9970 C   0  0  0  0  0  0  0  0  0  0  0  0
  -26.1260  -33.9570   23.6080 N   0  0  0  0  0  4  0  0  0  0  0  0
  -26.2540  -35.2990   23.5610 C   0  0  0  0  0  0  0  0  0  0  0  0
  -26.7800  -35.5120   22.5010 O   0  0  0  0  0  0  0  0  0  0  0  0
  -26.4590  -33.8420   22.6730 H   0  0  0  0  0  0  0  0  0  0  0  0
  -24.6150  -37.0150   23.6970 C   0  0  0  0  0  1  0  0  0  0  0  0
  -25.8370  -36.4710   24.4480 C   0  0  0  0  0  3  0  0  0  0  0  0
  -28.2150  -37.1620   25.0430 C   0  0  0  0  0  1  0  0  0  0  0  0
  -26.9380  -37.4810   24.4180 N   0  0  0  0  0  0  0  0  0  0  0  0
  -26.6520  -38.4820   24.4330 H   0  0  0  0  0  0  0  0  0  0  0  0
  -26.6520  -31.9250   25.2040 C   0  0  1  0  0  0  0  0  0  0  0  0
  -25.7340  -31.7230   26.4100 C   0  0  0  0  0  1  0  0  0  0  0  0
  -27.1900  -30.5350   24.7380 C   0  0  0  0  0  1  0  0  0  0  0  0
  -27.9460  -32.7300   25.5400 C   0  0  0  0  0  1  0  0  0  0  0  0
  1  3  1  0
  2  5  1  0
  5  4  1  0
  6  3  1  0
  8 13  1  0
  9 10  1  0
  9  8  1  0
 11 10  1  0
 11 19  1  0
 11 12  1  0
 13  7  1  0
 13 12  1  0
 14  7  1  0
 15 44  1  0
 16 17  2  0
 17 36  1  0
 18 17  1  0
 18 21  1  0
 19 20  1  0
 19 16  1  0
 20 18  2  0
 21 22  1  0
 22 23  2  0
 24 27  1  0
 24 23  1  0
 25 24  2  0
 26 25  1  0
 26 21  2  0
 27 28  1  0
 28 33  2  0
 28 29  1  0
 29 30  2  0
 30 31  1  0
 31 35  1  0
 32 31  2  0
 33 32  1  0
 34 33  1  0
 36 37  1  0
 37 40  1  0
 37 39  1  0
 38 36  2  0
 41 42  1  0
 41 16  1  0
 43 41  1  0
 46 45  2  0
 47 45  1  0
 48 46  1  0
 49 44  1  0
 49 47  1  0
 50 49  1  0
 50 48  1  0
 51 50  1  0
 52 50  1  0
 54 53  1  0
 55 53  1  0
 55 56  1  0
 58 69  2  0
 58 84  1  0
 59 57  1  0
 59 65  1  0
 59 64  1  0
 60 68  1  0
 60 70  1  0
 61 66  1  0
 61 67  1  0
 61 63  1  0
 62 68  1  0
 63 62  1  0
 64 63  2  0
 66 65  1  0
 67 60  1  0
 68 58  1  0
 70 72  2  0
 71 70  1  0
 73 71  1  0
 74 83  2  0
 74 79  1  0
 75 71  1  0
 75 79  1  0
 76 75  1  0
 77 78  1  0
 77 76  1  0
 78 74  1  0
 79 80  2  0
 80 81  1  0
 82 81  2  0
 83 82  1  0
 84 94  1  0
 85 84  2  0
 86 85  1  0
 86 90  1  0
 87 86  2  0
 88 85  1  0
 90 89  1  0
 92 93  1  0
 92 90  1  0
 92 91  1  0
 94 97  1  1
 94 95  1  0
 96 94  1  0
M  ISO  4   7 100  15 100  56 101  57 101
M  END
>  <TORSDO>  (24) 
F 21

>  <SCORE>  (24) 
-12.863

>  <name>  (24) 
23

>  <ligand_id>  (24) 
23

>  <original_smiles>  (24) 
[H]c1c([H])c([H])c2c(c1[H])C([H])([H])C([H])([H])C([H])([H])C2([H])N([H])C(=O)C1([H])N(C(=O)C([H])(N([H])C(=O)C([H])(N([H])C([H])([H])[H])C([H])([H])[H])C(C([H])([H])[H])(C([H])([H])[H])C([H])([H])[H])C([H])([H])c2c([H])c(OC([H])([H])C([H])([H])N([H])c3c([H])c([H])c(N(C(=O)N4C([H])([H])C([H])([H])C([H])([H])C([H])(n5nc(-c6c([H])c([H])c(Oc7c([H])c([H])c(F)c([H])c7F)c([H])c6[H])c(C(=O)N([H])[H])c5N([H])[H])C4([H])[H])C([H])([H])C4([H])C([H])([H])C([H])([H])C([H])([H])C([H])([H])[N+]4([H])[H])c([H])c3[H])c([H])c([H])c2C1([H])[H]

>  <smiles>  (24) 
[H]c1c([H])c([H])c2c(c1[H])C([H])([H])C([H])([H])C([H])([H])C2([H])N([H])C(=O)C1([H])N(C(=O)C([H])(N([H])C(=O)C([H])(N([H])C([H])([H])[H])C([H])([H])[H])C(C([H])([H])[H])(C([H])([H])[H])C([H])([H])[H])C([H])([H])c2c([H])c(OC([H])([H])C([H])([H])N([H])c3c([H])c([H])c(N(C(=O)N4C([H])([H])C([H])([H])C([H])([H])C([H])(n5nc(-c6c([H])c([H])c(Oc7c([H])c([H])c(F)c([H])c7F)c([H])c6[H])c(C(=O)N([H])[H])c5N([H])[H])C4([H])[H])C([H])([H])C4([H])C([H])([H])C([H])([H])C([H])([H])C([H])([H])[N+]4([H])[H])c([H])c3[H])c([H])c([H])c2C1([H])[H]

$$$$
24:0:0
     RDKit          3D

 93101  0  0  1  0  0  0  0  0999 V2000
  -28.1060  -22.2860   19.7140 C   0  0  0  0  0  2  0  0  0  0  0  0
  -28.3590  -23.8560   19.4590 C   0  0  0  0  0  2  0  0  0  0  0  0
  -30.2750  -22.1430   21.0990 C   0  0  0  0  0  2  0  0  0  0  0  0
  -29.6210  -24.7330   21.4380 C   0  0  0  0  0  2  0  0  0  0  0  0
  -29.8950  -23.3220   22.0720 C   0  0  0  0  0  3  0  0  0  0  0  0
  -29.0620  -21.3310   20.5580 C   0  0  0  0  0  3  0  0  0  0  0  0
  -28.3130  -24.9430   20.6170 C   0  0  0  0  0  3  0  0  0  0  0  0
  -30.9920  -23.4710   23.1510 C   0  0  0  0  0  1  0  0  0  0  0  0
  -29.7400  -18.7620   20.5350 C   0  0  0  0  0  0  0  0  0  0  0  0
  -29.4030  -19.9650   19.9230 N   0  0  0  0  0  0  0  0  0  0  0  0
  -29.8220  -18.7860   21.7610 O   0  0  0  0  0  0  0  0  0  0  0  0
  -29.3170  -19.9280   18.9150 H   0  0  0  0  0  0  0  0  0  0  0  0
  -29.2480  -17.3400   18.4030 C   0  0  0  0  0  1  0  0  0  0  0  0
  -30.0460  -17.3640   19.7340 C   0  0  0  0  0  3  0  0  0  0  0  0
  -30.7490  -14.7900   19.9050 C   0  0  0  0  0  0  0  0  0  0  0  0
  -30.4930  -12.5400   18.7880 C   0  0  0  0  0  2  0  0  0  0  0  0
  -29.4620  -12.6550   17.6390 C   0  0  0  0  0  2  0  0  0  0  0  0
  -28.0310  -12.4360   18.1770 C   0  0  0  0  0  2  0  0  0  0  0  0
  -27.7530  -13.2610   19.4580 C   0  0  0  0  0  3  0  0  0  0  0  0
  -28.8920  -13.0660   20.4720 C   0  0  0  0  0  2  0  0  0  0  0  0
  -30.1310  -13.5450   19.8270 N   0  0  0  0  0  0  0  0  0  0  0  0
  -31.8480  -14.9200   19.3450 O   0  0  0  0  0  0  0  0  0  0  0  0
  -29.6240  -15.8750   21.7760 C   0  0  0  0  0  1  0  0  0  0  0  0
  -30.0520  -15.9260   20.3700 N   0  0  0  0  0  0  0  0  0  0  0  0
  -25.4530  -13.8320   20.4420 C   0  0  0  0  0  0  0  0  0  0  0  0
  -24.4110  -13.0460   20.8560 C   0  0  0  0  0  0  0  0  0  0  0  0
  -24.8510  -11.6940   20.7050 C   0  0  0  0  0  0  0  0  0  0  0  0
  -26.4540  -12.9540   20.0480 N   0  0  0  0  0  0  0  0  0  0  0  0
  -26.1060  -11.6620   20.2710 N   0  0  0  0  0  0  0  0  0  0  0  0
  -24.1340  -10.4290   20.8990 C   0  0  0  0  0  0  0  0  0  0  0  0
  -24.5720   -9.4690   21.8360 C   0  0  0  0  0  3  0  0  0  0  0  0
  -23.8590   -8.2620   22.0130 C   0  0  0  0  0  3  0  0  0  0  0  0
  -22.6930   -8.0100   21.2530 C   0  0  0  0  0  0  0  0  0  0  0  0
  -22.2720   -8.9600   20.3070 C   0  0  0  0  0  3  0  0  0  0  0  0
  -22.9840  -10.1580   20.1280 C   0  0  0  0  0  3  0  0  0  0  0  0
  -21.9520   -6.8540   21.3360 O   0  0  0  0  0  0  0  0  0  0  0  0
  -21.8100   -6.1760   22.5190 C   0  0  0  0  0  0  0  0  0  0  0  0
  -21.2450   -6.7820   23.6620 C   0  0  0  0  0  3  0  0  0  0  0  0
  -21.0530   -6.0270   24.8370 C   0  0  0  0  0  3  0  0  0  0  0  0
  -21.4120   -4.6680   24.8670 C   0  0  0  0  0  0  0  0  0  0  0  0
  -21.9690   -4.0600   23.7270 C   0  0  0  0  0  3  0  0  0  0  0  0
  -22.1650   -4.8110   22.5550 C   0  0  0  0  0  0  0  0  0  0  0  0
  -22.6820   -4.2170   21.4540 F   0  0  0  0  0  0  0  0  0  0  0  0
  -21.2200   -3.9390   25.9930 F   0  0  0  0  0  0  0  0  0  0  0  0
  -23.0500  -13.5160   21.2780 C   0  0  0  0  0  0  0  0  0  0  0  0
  -22.3940  -12.7810   22.1710 N   0  0  0  0  0  0  0  0  0  0  0  0
  -22.5770  -14.5660   20.8510 O   0  0  0  0  0  0  0  0  0  0  0  0
  -22.7840  -11.9290   22.5410 H   0  0  0  0  0  0  0  0  0  0  0  0
  -21.4860  -13.0870   22.4900 H   0  0  0  0  0  0  0  0  0  0  0  0
  -25.6430  -15.2070   20.3510 N   0  0  0  0  0  0  0  0  0  0  0  0
  -24.9740  -15.8880   20.6930 H   0  0  0  0  0  0  0  0  0  0  0  0
  -26.5280  -15.6240   20.0870 H   0  0  0  0  0  0  0  0  0  0  0  0
  -28.2930  -26.4080   20.2550 O   0  0  0  0  0  0  0  0  0  0  0  0
  -24.5130  -31.8630   23.2200 C   0  0  0  0  0  0  0  0  0  0  0  0
  -27.1320  -27.2170   20.2660 C   0  0  0  0  0  0  0  0  0  0  0  0
  -23.3060  -30.4320   21.6020 C   0  0  0  0  0  3  0  0  0  0  0  0
  -24.7560  -28.8380   20.2130 C   0  0  0  0  0  0  0  0  0  0  0  0
  -25.8410  -30.7450   21.3990 C   0  0  0  0  0  2  0  0  0  0  0  0
  -25.9260  -29.3450   20.7910 C   0  0  0  0  0  0  0  0  0  0  0  0
  -27.1160  -28.5510   20.7950 C   0  0  0  0  0  3  0  0  0  0  0  0
  -25.9360  -26.7570   19.6700 C   0  0  0  0  0  3  0  0  0  0  0  0
  -24.7660  -27.5510   19.6410 C   0  0  0  0  0  3  0  0  0  0  0  0
  -23.5240  -29.7260   20.2340 C   0  0  0  0  0  2  0  0  0  0  0  0
  -24.5740  -31.0340   22.1310 N   0  0  0  0  0  0  0  0  0  0  0  0
  -23.4300  -32.1440   23.7570 O   0  0  0  0  0  0  0  0  0  0  0  0
  -22.6420  -29.4390   22.5860 C   0  0  0  0  0  0  0  0  0  0  0  0
  -21.3150  -29.2600   22.4610 N   0  0  0  0  0  0  0  0  0  0  0  0
  -23.3170  -28.8300   23.4200 O   0  0  0  0  0  0  0  0  0  0  0  0
  -20.8250  -29.8060   21.7660 H   0  0  0  0  0  0  0  0  0  0  0  0
  -17.9420  -28.0390   22.9420 C   0  0  0  0  0  0  0  0  0  0  0  0
  -20.4960  -28.3340   23.2450 C   0  0  0  0  0  3  0  0  0  0  0  0
  -20.6230  -26.8880   22.7100 C   0  0  0  0  0  2  0  0  0  0  0  0
  -19.5390  -26.5250   21.6900 C   0  0  0  0  0  2  0  0  0  0  0  0
  -18.1440  -26.6730   22.3070 C   0  0  0  0  0  2  0  0  0  0  0  0
  -19.0470  -28.8250   23.3680 C   0  0  0  0  0  0  0  0  0  0  0  0
  -18.8060  -30.1030   23.9190 C   0  0  0  0  0  3  0  0  0  0  0  0
  -17.4930  -30.5920   24.0550 C   0  0  0  0  0  3  0  0  0  0  0  0
  -16.4040  -29.8030   23.6480 C   0  0  0  0  0  3  0  0  0  0  0  0
  -16.6290  -28.5290   23.0990 C   0  0  0  0  0  3  0  0  0  0  0  0
  -25.7940  -32.5070   23.8330 C   0  0  0  0  0  3  0  0  0  0  0  0
  -25.4850  -33.9070   24.1530 N   0  0  0  0  0  0  0  0  0  0  0  0
  -25.8240  -34.9560   23.3910 C   0  0  0  0  0  0  0  0  0  0  0  0
  -26.4960  -34.8470   22.3640 O   0  0  0  0  0  0  0  0  0  0  0  0
  -24.8960  -34.0690   24.9550 H   0  0  0  0  0  0  0  0  0  0  0  0
  -24.1040  -36.7500   23.0070 C   0  0  0  0  0  1  0  0  0  0  0  0
  -25.3330  -36.3480   23.8390 C   0  0  0  0  0  3  0  0  0  0  0  0
  -27.4570  -37.2260   24.7010 C   0  0  0  0  0  1  0  0  0  0  0  0
  -26.3690  -37.4010   23.7410 N   0  0  0  0  0  0  0  0  0  0  0  0
  -25.9620  -38.3220   23.8840 H   0  0  0  0  0  0  0  0  0  0  0  0
  -26.3160  -31.7500   25.1150 C   0  0  1  0  0  0  0  0  0  0  0  0
  -25.2310  -31.5230   26.1920 C   0  0  0  0  0  1  0  0  0  0  0  0
  -26.9020  -30.3740   24.7300 C   0  0  0  0  0  1  0  0  0  0  0  0
  -27.4630  -32.5580   25.7710 C   0  0  0  0  0  1  0  0  0  0  0  0
  1  6  1  0
  2  1  1  0
  2  7  1  0
  3  5  1  0
  4  5  1  0
  5  8  1  0
  6 10  1  0
  6  3  1  0
  7 53  1  0
  7  4  1  0
  9 11  2  0
 10  9  1  0
 12 10  1  0
 14 13  1  0
 14 24  1  0
 14  9  1  0
 15 24  1  0
 16 21  1  0
 17 18  1  0
 17 16  1  0
 19 18  1  0
 19 28  1  0
 19 20  1  0
 21 15  1  0
 21 20  1  0
 22 15  2  0
 24 23  1  0
 25 26  2  0
 26 45  1  0
 27 26  1  0
 27 30  1  0
 28 29  1  0
 28 25  1  0
 29 27  2  0
 30 31  1  0
 31 32  2  0
 33 36  1  0
 33 32  1  0
 34 33  2  0
 35 34  1  0
 35 30  2  0
 36 37  1  0
 37 42  2  0
 37 38  1  0
 38 39  2  0
 39 40  1  0
 40 44  1  0
 41 40  2  0
 42 41  1  0
 43 42  1  0
 45 46  1  0
 46 49  1  0
 46 48  1  0
 47 45  2  0
 50 25  1  0
 50 51  1  0
 52 50  1  0
 53 55  1  0
 54 65  2  0
 55 60  1  0
 56 64  1  0
 56 66  1  0
 57 63  1  0
 57 59  1  0
 58 64  1  0
 59 60  2  0
 59 58  1  0
 61 55  2  0
 62 61  1  0
 62 57  2  0
 63 56  1  0
 64 54  1  0
 66 68  2  0
 67 66  1  0
 69 67  1  0
 70 79  2  0
 70 75  1  0
 71 67  1  0
 71 75  1  0
 72 71  1  0
 73 74  1  0
 73 72  1  0
 74 70  1  0
 75 76  2  0
 76 77  1  0
 78 77  2  0
 79 78  1  0
 80 54  1  0
 80 81  1  0
 80 90  1  0
 81 84  1  0
 82 86  1  0
 82 81  1  0
 83 82  2  0
 86 85  1  0
 88 86  1  0
 88 89  1  0
 88 87  1  0
 90 93  1  1
 90 91  1  0
 92 90  1  0
M  ISO  4   7 101  15 100  24 100  53 101
M  END
>  <TORSDO>  (25) 
F 18

>  <SCORE>  (25) 
-12.227

>  <name>  (25) 
24

>  <ligand_id>  (25) 
24

>  <original_smiles>  (25) 
[H]c1c([H])c([H])c2c(c1[H])C([H])([H])C([H])([H])C([H])([H])C2([H])N([H])C(=O)C1([H])N(C(=O)C([H])(N([H])C(=O)C([H])(N([H])C([H])([H])[H])C([H])([H])[H])C(C([H])([H])[H])(C([H])([H])[H])C([H])([H])[H])C([H])([H])c2c([H])c(OC3([H])C([H])([H])C([H])([H])C([H])(N([H])C(=O)C([H])(N(C(=O)N4C([H])([H])C([H])([H])C([H])([H])C([H])(n5nc(-c6c([H])c([H])c(Oc7c([H])c([H])c(F)c([H])c7F)c([H])c6[H])c(C(=O)N([H])[H])c5N([H])[H])C4([H])[H])C([H])([H])[H])C([H])([H])[H])C([H])([H])C([H])(C([H])([H])[H])C3([H])[H])c([H])c([H])c2C1([H])[H]

>  <smiles>  (25) 
[H]c1c([H])c([H])c2c(c1[H])C([H])([H])C([H])([H])C([H])([H])C2([H])N([H])C(=O)C1([H])N(C(=O)C([H])(N([H])C(=O)C([H])(N([H])C([H])([H])[H])C([H])([H])[H])C(C([H])([H])[H])(C([H])([H])[H])C([H])([H])[H])C([H])([H])c2c([H])c(OC3([H])C([H])([H])C([H])([H])C([H])(N([H])C(=O)C([H])(N(C(=O)N4C([H])([H])C([H])([H])C([H])([H])C([H])(n5nc(-c6c([H])c([H])c(Oc7c([H])c([H])c(F)c([H])c7F)c([H])c6[H])c(C(=O)N([H])[H])c5N([H])[H])C4([H])[H])C([H])([H])[H])C([H])([H])[H])C([H])([H])C([H])(C([H])([H])[H])C3([H])[H])c([H])c([H])c2C1([H])[H]

$$$$
25:0:0
     RDKit          3D

 97106  0  0  1  0  0  0  0  0999 V2000
  -29.7470  -20.3990   19.3920 C   0  0  0  0  0  3  0  0  0  0  0  0
  -29.9050  -24.1400   20.7830 C   0  0  0  0  0  2  0  0  0  0  0  0
  -28.0040  -24.0860   19.2370 C   0  0  0  0  0  2  0  0  0  0  0  0
  -29.8170  -22.5440   20.9850 C   0  0  0  0  0  2  0  0  0  0  0  0
  -28.6930  -22.6920   18.8290 C   0  0  0  0  0  2  0  0  0  0  0  0
  -28.5790  -24.9210   20.4440 C   0  0  0  0  0  3  0  0  0  0  0  0
  -29.1040  -21.7320   19.9260 N   0  0  1  0  0  4  0  0  0  0  0  0
  -28.2340  -21.4480   20.3510 H   0  0  0  0  0  0  0  0  0  0  0  0
  -28.6970  -26.4490   20.3800 O   0  0  0  0  0  0  0  0  0  0  0  0
  -24.8510  -31.9480   23.3320 C   0  0  0  0  0  0  0  0  0  0  0  0
  -27.5760  -27.3290   20.3560 C   0  0  0  0  0  0  0  0  0  0  0  0
  -23.7060  -30.5300   21.6700 C   0  0  0  0  0  3  0  0  0  0  0  0
  -25.2070  -28.9780   20.2880 C   0  0  0  0  0  0  0  0  0  0  0  0
  -26.2540  -30.8530   21.5530 C   0  0  0  0  0  2  0  0  0  0  0  0
  -26.3630  -29.4660   20.9090 C   0  0  0  0  0  0  0  0  0  0  0  0
  -27.5520  -28.6570   20.9210 C   0  0  0  0  0  3  0  0  0  0  0  0
  -26.3910  -26.9170   19.7130 C   0  0  0  0  0  3  0  0  0  0  0  0
  -25.2280  -27.7140   19.6780 C   0  0  0  0  0  3  0  0  0  0  0  0
  -23.9640  -29.8510   20.2990 C   0  0  0  0  0  2  0  0  0  0  0  0
  -24.9550  -31.1310   22.2400 N   0  0  0  0  0  0  0  0  0  0  0  0
  -23.7510  -32.2180   23.8360 O   0  0  0  0  0  0  0  0  0  0  0  0
  -23.0250  -29.5140   22.6190 C   0  0  0  0  0  0  0  0  0  0  0  0
  -21.7030  -29.3230   22.4620 N   0  0  0  0  0  0  0  0  0  0  0  0
  -23.6880  -28.8980   23.4580 O   0  0  0  0  0  0  0  0  0  0  0  0
  -21.2250  -29.8750   21.7630 H   0  0  0  0  0  0  0  0  0  0  0  0
  -18.3310  -28.0700   22.8740 C   0  0  0  0  0  0  0  0  0  0  0  0
  -20.8760  -28.3790   23.2170 C   0  0  0  0  0  3  0  0  0  0  0  0
  -21.0180  -26.9430   22.6580 C   0  0  0  0  0  2  0  0  0  0  0  0
  -19.9530  -26.5940   21.6140 C   0  0  0  0  0  2  0  0  0  0  0  0
  -18.5500  -26.7190   22.2150 C   0  0  0  0  0  2  0  0  0  0  0  0
  -19.4230  -28.8560   23.3300 C   0  0  0  0  0  0  0  0  0  0  0  0
  -19.1630  -30.1190   23.9050 C   0  0  0  0  0  3  0  0  0  0  0  0
  -17.8450  -30.5970   24.0300 C   0  0  0  0  0  3  0  0  0  0  0  0
  -16.7690  -29.8100   23.5900 C   0  0  0  0  0  3  0  0  0  0  0  0
  -17.0110  -28.5470   23.0180 C   0  0  0  0  0  3  0  0  0  0  0  0
  -26.1080  -32.6010   23.9860 C   0  0  0  0  0  3  0  0  0  0  0  0
  -25.7520  -33.9780   24.3620 N   0  0  0  0  0  0  0  0  0  0  0  0
  -26.0490  -35.0660   23.6420 C   0  0  0  0  0  0  0  0  0  0  0  0
  -26.7210  -35.0200   22.6070 O   0  0  0  0  0  0  0  0  0  0  0  0
  -25.1530  -34.0850   25.1690 H   0  0  0  0  0  0  0  0  0  0  0  0
  -24.2530  -36.8080   23.3680 C   0  0  0  0  0  1  0  0  0  0  0  0
  -25.5190  -36.4230   24.1490 C   0  0  0  0  0  3  0  0  0  0  0  0
  -27.6360  -37.3560   24.9740 C   0  0  0  0  0  1  0  0  0  0  0  0
  -26.5120  -37.5160   24.0550 N   0  0  0  0  0  0  0  0  0  0  0  0
  -26.0770  -38.4150   24.2410 H   0  0  0  0  0  0  0  0  0  0  0  0
  -26.6390  -31.8040   25.2410 C   0  0  1  0  0  0  0  0  0  0  0  0
  -25.5420  -31.4710   26.2790 C   0  0  0  0  0  1  0  0  0  0  0  0
  -27.2960  -30.4730   24.8100 C   0  0  0  0  0  1  0  0  0  0  0  0
  -27.7400  -32.6260   25.9540 C   0  0  0  0  0  1  0  0  0  0  0  0
  -30.0270  -19.0200   20.2650 C   0  0  0  0  0  3  0  0  0  0  0  0
  -30.7040  -17.6670   19.5490 C   0  0  0  0  0  3  0  0  0  0  0  0
  -31.6040  -15.1260   19.6890 C   0  0  0  0  0  0  0  0  0  0  0  0
  -31.2140  -12.8900   18.5840 C   0  0  0  0  0  2  0  0  0  0  0  0
  -30.1410  -13.0130   17.4780 C   0  0  0  0  0  2  0  0  0  0  0  0
  -28.7260  -12.8570   18.0640 C   0  0  0  0  0  2  0  0  0  0  0  0
  -28.5260  -13.6950   19.3540 C   0  0  0  0  0  3  0  0  0  0  0  0
  -29.7040  -13.5280   20.3340 C   0  0  0  0  0  2  0  0  0  0  0  0
  -30.9220  -13.9180   19.6190 N   0  0  0  0  0  0  0  0  0  0  0  0
  -32.7120  -15.1800   19.1410 O   0  0  0  0  0  0  0  0  0  0  0  0
  -31.0150  -16.2900   20.2520 N   0  0  0  0  0  0  0  0  0  0  0  0
  -26.2750  -14.3280   20.3990 C   0  0  0  0  0  0  0  0  0  0  0  0
  -25.2280  -13.5760   20.8520 C   0  0  0  0  0  0  0  0  0  0  0  0
  -25.6240  -12.2100   20.6960 C   0  0  0  0  0  0  0  0  0  0  0  0
  -27.2420  -13.4250   19.9900 N   0  0  0  0  0  0  0  0  0  0  0  0
  -26.8640  -12.1420   20.2300 N   0  0  0  0  0  0  0  0  0  0  0  0
  -24.8700  -10.9680   20.9050 C   0  0  0  0  0  0  0  0  0  0  0  0
  -25.2690  -10.0130   21.8640 C   0  0  0  0  0  3  0  0  0  0  0  0
  -24.5130   -8.8370   22.0620 C   0  0  0  0  0  3  0  0  0  0  0  0
  -23.3420   -8.6090   21.2980 C   0  0  0  0  0  0  0  0  0  0  0  0
  -22.9620   -9.5540   20.3300 C   0  0  0  0  0  3  0  0  0  0  0  0
  -23.7190  -10.7210   20.1320 C   0  0  0  0  0  3  0  0  0  0  0  0
  -22.5600   -7.4850   21.4020 O   0  0  0  0  0  0  0  0  0  0  0  0
  -22.3140   -6.8890   22.6130 C   0  0  0  0  0  0  0  0  0  0  0  0
  -21.7080   -7.5890   23.6790 C   0  0  0  0  0  3  0  0  0  0  0  0
  -21.4110   -6.9190   24.8840 C   0  0  0  0  0  3  0  0  0  0  0  0
  -21.7080   -5.5490   25.0190 C   0  0  0  0  0  0  0  0  0  0  0  0
  -22.3060   -4.8500   23.9580 C   0  0  0  0  0  3  0  0  0  0  0  0
  -22.6040   -5.5170   22.7560 C   0  0  0  0  0  0  0  0  0  0  0  0
  -23.1610   -4.8330   21.7280 F   0  0  0  0  0  0  0  0  0  0  0  0
  -21.4170   -4.9030   26.1720 F   0  0  0  0  0  0  0  0  0  0  0  0
  -23.8960  -14.0900   21.3150 C   0  0  0  0  0  0  0  0  0  0  0  0
  -23.2700  -13.4020   22.2630 N   0  0  0  0  0  0  0  0  0  0  0  0
  -23.4260  -15.1360   20.8720 O   0  0  0  0  0  0  0  0  0  0  0  0
  -23.6660  -12.5540   22.6400 H   0  0  0  0  0  0  0  0  0  0  0  0
  -22.3830  -13.7290   22.6190 H   0  0  0  0  0  0  0  0  0  0  0  0
  -26.4810  -15.7000   20.2790 N   0  0  0  0  0  0  0  0  0  0  0  0
  -25.7670  -16.3780   20.5200 H   0  0  0  0  0  0  0  0  0  0  0  0
  -27.3160  -16.1240   19.8970 H   0  0  0  0  0  0  0  0  0  0  0  0
  -31.2900  -16.4740   21.6900 C   0  0  0  0  0  2  0  0  0  0  0  0
  -30.6240  -17.7840   23.7690 C   0  0  0  0  0  1  0  0  0  0  0  0
  -30.1300  -17.1210   22.4780 C   0  0  0  0  0  2  0  0  0  0  0  0
  -33.8290  -18.9140   16.8080 C   0  0  0  0  0  3  0  0  0  0  0  0
  -32.7070  -18.2110   16.3270 C   0  0  0  0  0  3  0  0  0  0  0  0
  -33.9480  -19.1960   18.1820 C   0  0  0  0  0  3  0  0  0  0  0  0
  -31.6980  -17.8040   17.2180 C   0  0  0  0  0  3  0  0  0  0  0  0
  -32.9430  -18.7800   19.0770 C   0  0  0  0  0  3  0  0  0  0  0  0
  -31.8060  -18.0950   18.5940 C   0  0  0  0  0  0  0  0  0  0  0  0
  1  7  1  0
  1 50  2  0
  2  4  1  0
  3  6  1  0
  5  3  1  0
  5  7  1  0
  6  9  1  0
  6  2  1  0
  7  8  1  1
  7  4  1  0
 10 21  2  0
 11  9  1  0
 11 16  1  0
 12 20  1  0
 12 22  1  0
 13 19  1  0
 13 15  1  0
 14 20  1  0
 15 16  2  0
 15 14  1  0
 17 11  2  0
 18 17  1  0
 18 13  2  0
 19 12  1  0
 20 10  1  0
 22 24  2  0
 23 22  1  0
 25 23  1  0
 26 35  2  0
 26 31  1  0
 27 23  1  0
 27 31  1  0
 28 27  1  0
 29 30  1  0
 29 28  1  0
 30 26  1  0
 31 32  2  0
 32 33  1  0
 34 33  2  0
 35 34  1  0
 36 10  1  0
 36 37  1  0
 36 46  1  0
 37 40  1  0
 38 42  1  0
 38 37  1  0
 39 38  2  0
 42 41  1  0
 44 42  1  0
 44 45  1  0
 44 43  1  0
 46 49  1  1
 46 47  1  0
 48 46  1  0
 51 60  1  0
 51 50  1  0
 52 60  1  0
 53 58  1  0
 54 55  1  0
 54 53  1  0
 56 55  1  0
 56 64  1  0
 56 57  1  0
 58 52  1  0
 58 57  1  0
 59 52  2  0
 60 89  1  0
 61 62  2  0
 62 81  1  0
 63 62  1  0
 63 66  1  0
 64 65  1  0
 64 61  1  0
 65 63  2  0
 66 67  1  0
 67 68  2  0
 69 72  1  0
 69 68  1  0
 70 69  2  0
 71 70  1  0
 71 66  2  0
 72 73  1  0
 73 78  2  0
 73 74  1  0
 74 75  2  0
 75 76  1  0
 76 80  1  0
 77 76  2  0
 78 77  1  0
 79 78  1  0
 81 82  1  0
 82 85  1  0
 82 84  1  0
 83 81  2  0
 86 61  1  0
 86 87  1  0
 88 86  1  0
 89 91  1  0
 91 90  1  0
 92 94  1  0
 93 92  2  0
 93 95  1  0
 94 96  2  0
 95 97  2  0
 97 96  1  0
 97 51  1  0
M  ISO  4   6 101   9 101  52 100  60 100
M  END
>  <TORSDO>  (26) 
F 22

>  <SCORE>  (26) 
-10.310

>  <name>  (26) 
25

>  <ligand_id>  (26) 
25

>  <original_smiles>  (26) 
[H]c1c([H])c([H])c(C([H])(N(C(=O)N2C([H])([H])C([H])([H])C([H])([H])C([H])(n3nc(-c4c([H])c([H])c(Oc5c([H])c([H])c(F)c([H])c5F)c([H])c4[H])c(C(=O)N([H])[H])c3N([H])[H])C2([H])[H])C([H])([H])C([H])([H])C([H])([H])[H])C([H])([H])C([H])([H])[N+]2([H])C([H])([H])C([H])([H])C([H])(Oc3c([H])c([H])c4c(c3[H])C([H])([H])N(C(=O)C([H])(N([H])C(=O)C([H])(N([H])C([H])([H])[H])C([H])([H])[H])C(C([H])([H])[H])(C([H])([H])[H])C([H])([H])[H])C([H])(C(=O)N([H])C3([H])c5c([H])c([H])c([H])c([H])c5C([H])([H])C([H])([H])C3([H])[H])C4([H])[H])C([H])([H])C2([H])[H])c([H])c1[H]

>  <smiles>  (26) 
[H]c1c([H])c([H])c(C([H])(N(C(=O)N2C([H])([H])C([H])([H])C([H])([H])C([H])(n3nc(-c4c([H])c([H])c(Oc5c([H])c([H])c(F)c([H])c5F)c([H])c4[H])c(C(=O)N([H])[H])c3N([H])[H])C2([H])[H])C([H])([H])C([H])([H])C([H])([H])[H])C([H])([H])C([H])([H])[N+]2([H])C([H])([H])C([H])([H])C([H])(Oc3c([H])c([H])c4c(c3[H])C([H])([H])N(C(=O)C([H])(N([H])C(=O)C([H])(N([H])C([H])([H])[H])C([H])([H])[H])C(C([H])([H])[H])(C([H])([H])[H])C([H])([H])[H])C([H])(C(=O)N([H])C3([H])c5c([H])c([H])c([H])c([H])c5C([H])([H])C([H])([H])C3([H])[H])C4([H])[H])C([H])([H])C2([H])[H])c([H])c1[H]

$$$$
26:0:0
     RDKit          3D

 90 97  0  0  1  0  0  0  0  0999 V2000
  -29.4370  -20.8240   20.0900 C   0  0  0  0  0  0  0  0  0  0  0  0
  -27.7070  -21.8740   21.5400 C   0  0  0  0  0  1  0  0  0  0  0  0
  -28.7570  -21.9940   20.5280 N   0  0  0  0  0  0  0  0  0  0  0  0
  -30.2940  -20.9410   19.2130 O   0  0  0  0  0  0  0  0  0  0  0  0
  -29.2420  -19.2870   20.6580 C   0  0  0  0  0  2  0  0  0  0  0  0
  -29.9250  -17.9040   19.9870 C   0  0  0  0  0  3  0  0  0  0  0  0
  -32.3910  -18.2450   20.3480 C   0  0  0  0  0  1  0  0  0  0  0  0
  -31.5380  -17.7590   18.0590 C   0  0  0  0  0  1  0  0  0  0  0  0
  -31.2460  -18.2940   19.4120 N   0  0  1  0  0  4  0  0  0  0  0  0
  -31.1250  -19.2880   19.2310 H   0  0  0  0  0  0  0  0  0  0  0  0
  -29.8950  -16.3950   20.7570 C   0  0  0  0  0  2  0  0  0  0  0  0
  -30.6090  -14.9680   20.3070 C   0  0  0  0  0  0  0  0  0  0  0  0
  -30.4550  -12.6350   19.3400 C   0  0  0  0  0  2  0  0  0  0  0  0
  -29.5260  -12.6530   18.1040 C   0  0  0  0  0  2  0  0  0  0  0  0
  -28.0590  -12.4530   18.5250 C   0  0  0  0  0  2  0  0  0  0  0  0
  -27.6620  -13.3540   19.7230 C   0  0  0  0  0  3  0  0  0  0  0  0
  -28.7150  -13.3230   20.8500 C   0  0  0  0  0  2  0  0  0  0  0  0
  -30.0040  -13.7140   20.2640 N   0  0  0  0  0  0  0  0  0  0  0  0
  -31.7860  -15.0100   19.9360 O   0  0  0  0  0  0  0  0  0  0  0  0
  -25.2690  -13.9230   20.4360 C   0  0  0  0  0  0  0  0  0  0  0  0
  -24.2060  -13.1440   20.8040 C   0  0  0  0  0  0  0  0  0  0  0  0
  -24.6810  -11.7970   20.7910 C   0  0  0  0  0  0  0  0  0  0  0  0
  -26.3210  -13.0500   20.2140 N   0  0  0  0  0  0  0  0  0  0  0  0
  -25.9750  -11.7660   20.4930 N   0  0  0  0  0  0  0  0  0  0  0  0
  -23.9580  -10.5320   20.9900 C   0  0  0  0  0  0  0  0  0  0  0  0
  -24.3890   -9.5760   21.9370 C   0  0  0  0  0  3  0  0  0  0  0  0
  -23.6690   -8.3750   22.1230 C   0  0  0  0  0  3  0  0  0  0  0  0
  -22.5020   -8.1240   21.3620 C   0  0  0  0  0  0  0  0  0  0  0  0
  -22.0910   -9.0680   20.4030 C   0  0  0  0  0  3  0  0  0  0  0  0
  -22.8130  -10.2590   20.2180 C   0  0  0  0  0  3  0  0  0  0  0  0
  -21.7510   -6.9760   21.4560 O   0  0  0  0  0  0  0  0  0  0  0  0
  -21.7020   -6.2430   22.6140 C   0  0  0  0  0  0  0  0  0  0  0  0
  -21.2680   -6.8050   23.8350 C   0  0  0  0  0  3  0  0  0  0  0  0
  -21.1660   -5.9980   24.9850 C   0  0  0  0  0  3  0  0  0  0  0  0
  -21.4880   -4.6280   24.9150 C   0  0  0  0  0  0  0  0  0  0  0  0
  -21.9130   -4.0640   23.6990 C   0  0  0  0  0  3  0  0  0  0  0  0
  -22.0180   -4.8700   22.5520 C   0  0  0  0  0  0  0  0  0  0  0  0
  -22.4090   -4.3180   21.3780 F   0  0  0  0  0  0  0  0  0  0  0  0
  -21.3820   -3.8510   26.0180 F   0  0  0  0  0  0  0  0  0  0  0  0
  -22.8030  -13.6130   21.0570 C   0  0  0  0  0  0  0  0  0  0  0  0
  -22.0730  -12.9210   21.9230 N   0  0  0  0  0  0  0  0  0  0  0  0
  -22.3640  -14.6320   20.5250 O   0  0  0  0  0  0  0  0  0  0  0  0
  -22.4430  -12.0980   22.3770 H   0  0  0  0  0  0  0  0  0  0  0  0
  -21.1310  -13.2160   22.1370 H   0  0  0  0  0  0  0  0  0  0  0  0
  -25.4270  -15.2920   20.2490 N   0  0  0  0  0  0  0  0  0  0  0  0
  -24.6570  -15.9460   20.3460 H   0  0  0  0  0  0  0  0  0  0  0  0
  -26.2780  -15.7310   19.9210 H   0  0  0  0  0  0  0  0  0  0  0  0
  -29.0130  -23.4850   20.0840 C   0  0  0  0  0  3  0  0  0  0  0  0
  -28.0270  -24.7790   20.4740 C   0  0  0  0  0  3  0  0  0  0  0  0
  -28.2870  -26.2770   20.1890 O   0  0  0  0  0  0  0  0  0  0  0  0
  -24.6390  -31.8920   23.2420 C   0  0  0  0  0  0  0  0  0  0  0  0
  -27.2130  -27.2290   20.1710 C   0  0  0  0  0  0  0  0  0  0  0  0
  -23.4310  -30.4950   21.6080 C   0  0  0  0  0  3  0  0  0  0  0  0
  -24.8720  -28.9370   20.1680 C   0  0  0  0  0  0  0  0  0  0  0  0
  -25.9790  -30.7820   21.4200 C   0  0  0  0  0  2  0  0  0  0  0  0
  -26.0540  -29.3950   20.7650 C   0  0  0  0  0  0  0  0  0  0  0  0
  -27.2270  -28.5560   20.7500 C   0  0  0  0  0  3  0  0  0  0  0  0
  -26.0090  -26.8690   19.5280 C   0  0  0  0  0  3  0  0  0  0  0  0
  -24.8610  -27.6870   19.5340 C   0  0  0  0  0  3  0  0  0  0  0  0
  -23.6410  -29.8240   20.2260 C   0  0  0  0  0  2  0  0  0  0  0  0
  -24.7030  -31.0780   22.1460 N   0  0  0  0  0  0  0  0  0  0  0  0
  -23.5570  -32.1690   23.7800 O   0  0  0  0  0  0  0  0  0  0  0  0
  -22.7660  -29.4800   22.5710 C   0  0  0  0  0  0  0  0  0  0  0  0
  -21.4400  -29.2990   22.4490 N   0  0  0  0  0  0  0  0  0  0  0  0
  -23.4470  -28.8600   23.3930 O   0  0  0  0  0  0  0  0  0  0  0  0
  -20.9480  -29.8530   21.7600 H   0  0  0  0  0  0  0  0  0  0  0  0
  -18.0710  -28.0680   22.9510 C   0  0  0  0  0  0  0  0  0  0  0  0
  -20.6270  -28.3560   23.2210 C   0  0  0  0  0  3  0  0  0  0  0  0
  -20.7430  -26.9230   22.6520 C   0  0  0  0  0  2  0  0  0  0  0  0
  -19.6450  -26.5860   21.6370 C   0  0  0  0  0  2  0  0  0  0  0  0
  -18.2620  -26.7190   22.2790 C   0  0  0  0  0  2  0  0  0  0  0  0
  -19.1810  -28.8440   23.3790 C   0  0  0  0  0  0  0  0  0  0  0  0
  -18.9480  -30.1050   23.9670 C   0  0  0  0  0  3  0  0  0  0  0  0
  -17.6370  -30.5920   24.1330 C   0  0  0  0  0  3  0  0  0  0  0  0
  -16.5410  -29.8140   23.7220 C   0  0  0  0  0  3  0  0  0  0  0  0
  -16.7590  -28.5540   23.1360 C   0  0  0  0  0  3  0  0  0  0  0  0
  -25.9210  -32.5290   23.8590 C   0  0  0  0  0  3  0  0  0  0  0  0
  -25.6110  -33.9280   24.1930 N   0  0  0  0  0  0  0  0  0  0  0  0
  -25.9320  -34.9840   23.4330 C   0  0  0  0  0  0  0  0  0  0  0  0
  -26.5880  -34.8840   22.3930 O   0  0  0  0  0  0  0  0  0  0  0  0
  -25.0300  -34.0800   25.0040 H   0  0  0  0  0  0  0  0  0  0  0  0
  -24.1970  -36.7770   23.1050 C   0  0  0  0  0  1  0  0  0  0  0  0
  -25.4500  -36.3720   23.8990 C   0  0  0  0  0  3  0  0  0  0  0  0
  -27.5930  -37.2600   24.7050 C   0  0  0  0  0  1  0  0  0  0  0  0
  -26.4790  -37.4270   23.7750 N   0  0  0  0  0  0  0  0  0  0  0  0
  -26.0740  -38.3470   23.9290 H   0  0  0  0  0  0  0  0  0  0  0  0
  -26.4410  -31.7590   25.1360 C   0  0  1  0  0  0  0  0  0  0  0  0
  -25.3520  -31.5260   26.2080 C   0  0  0  0  0  1  0  0  0  0  0  0
  -27.0210  -30.3790   24.7490 C   0  0  0  0  0  1  0  0  0  0  0  0
  -27.5950  -32.5540   25.7920 C   0  0  0  0  0  1  0  0  0  0  0  0
  1  3  1  0
  1  5  1  0
  3  2  1  0
  4  1  2  0
  6  5  1  0
  6 11  1  0
  8  9  1  0
  9  6  1  0
  9  7  1  0
  9 10  1  6
 12 11  1  0
 13 18  1  0
 14 15  1  0
 14 13  1  0
 16 15  1  0
 16 23  1  0
 16 17  1  0
 18 12  1  0
 18 17  1  0
 19 12  2  0
 20 21  2  0
 21 40  1  0
 22 21  1  0
 22 25  1  0
 23 20  1  0
 23 24  1  0
 24 22  2  0
 25 26  1  0
 26 27  2  0
 28 31  1  0
 28 27  1  0
 29 28  2  0
 30 29  1  0
 30 25  2  0
 31 32  1  0
 32 33  1  0
 33 34  2  0
 35 34  1  0
 35 39  1  0
 36 35  2  0
 37 32  2  0
 37 36  1  0
 38 37  1  0
 40 41  1  0
 41 44  1  0
 41 43  1  0
 42 40  2  0
 45 46  1  0
 45 20  1  0
 47 45  1  0
 48 49  2  0
 48  3  1  0
 50 49  1  0
 51 62  2  0
 52 50  1  0
 52 57  1  0
 53 61  1  0
 53 63  1  0
 54 60  1  0
 54 56  1  0
 55 61  1  0
 56 55  1  0
 57 56  2  0
 58 59  1  0
 58 52  2  0
 59 54  2  0
 60 53  1  0
 61 51  1  0
 63 65  2  0
 64 63  1  0
 66 64  1  0
 67 76  2  0
 67 72  1  0
 68 64  1  0
 68 72  1  0
 69 68  1  0
 70 71  1  0
 70 69  1  0
 71 67  1  0
 72 73  2  0
 73 74  1  0
 75 74  2  0
 76 75  1  0
 77 51  1  0
 77 78  1  0
 77 87  1  0
 78 81  1  0
 79 83  1  0
 79 78  1  0
 80 79  2  0
 83 82  1  0
 85 83  1  0
 85 86  1  0
 85 84  1  0
 87 90  1  1
 87 88  1  0
 89 87  1  0
M  ISO  4  11 100  12 100  49 101  50 101
M  END
>  <TORSDO>  (27) 
F 22

>  <SCORE>  (27) 
-13.512

>  <name>  (27) 
26

>  <ligand_id>  (27) 
26

>  <original_smiles>  (27) 
[H]c1c([H])c([H])c2c(c1[H])C([H])([H])C([H])([H])C([H])([H])C2([H])N([H])C(=O)C1([H])N(C(=O)C([H])(N([H])C(=O)C([H])(N([H])C([H])([H])[H])C([H])([H])[H])C(C([H])([H])[H])(C([H])([H])[H])C([H])([H])[H])C([H])([H])c2c([H])c(OC([H])([H])C([H])([H])N(C(=O)C([H])([H])C([H])(C([H])([H])C(=O)N3C([H])([H])C([H])([H])C([H])([H])C([H])(n4nc(-c5c([H])c([H])c(Oc6c([H])c([H])c(F)c([H])c6F)c([H])c5[H])c(C(=O)N([H])[H])c4N([H])[H])C3([H])[H])[N+]([H])(C([H])([H])[H])C([H])([H])[H])C([H])([H])[H])c([H])c([H])c2C1([H])[H]

>  <smiles>  (27) 
[H]c1c([H])c([H])c2c(c1[H])C([H])([H])C([H])([H])C([H])([H])C2([H])N([H])C(=O)C1([H])N(C(=O)C([H])(N([H])C(=O)C([H])(N([H])C([H])([H])[H])C([H])([H])[H])C(C([H])([H])[H])(C([H])([H])[H])C([H])([H])[H])C([H])([H])c2c([H])c(OC([H])([H])C([H])([H])N(C(=O)C([H])([H])C([H])(C([H])([H])C(=O)N3C([H])([H])C([H])([H])C([H])([H])C([H])(n4nc(-c5c([H])c([H])c(Oc6c([H])c([H])c(F)c([H])c6F)c([H])c5[H])c(C(=O)N([H])[H])c4N([H])[H])C3([H])[H])[N+]([H])(C([H])([H])[H])C([H])([H])[H])C([H])([H])[H])c([H])c([H])c2C1([H])[H]

$$$$
27:0:0
     RDKit          3D

 96104  0  0  1  0  0  0  0  0999 V2000
  -29.3230  -21.2500   21.4050 C   0  0  0  0  0  2  0  0  0  0  0  0
  -29.8030  -22.6720   21.7880 C   0  0  0  0  0  2  0  0  0  0  0  0
  -31.8540  -22.2550   20.2610 C   0  0  0  0  0  2  0  0  0  0  0  0
  -30.5610  -20.3640   21.1490 C   0  0  0  0  0  3  0  0  0  0  0  0
  -30.7740  -23.2670   20.7280 C   0  0  0  0  0  3  0  0  0  0  0  0
  -31.2960  -20.9130   19.9960 N   0  0  0  0  0  4  0  0  0  0  0  0
  -32.0410  -20.2720   19.7730 H   0  0  0  0  0  0  0  0  0  0  0  0
  -30.6840  -20.9310   19.1950 H   0  0  0  0  0  0  0  0  0  0  0  0
  -30.3080  -18.8680   20.8990 C   0  0  0  0  0  0  0  0  0  0  0  0
  -30.7910  -18.0140   21.8160 N   0  0  0  0  0  0  0  0  0  0  0  0
  -29.8190  -18.4910   19.8340 O   0  0  0  0  0  0  0  0  0  0  0  0
  -31.0940  -18.4120   22.6980 H   0  0  0  0  0  0  0  0  0  0  0  0
  -31.3050  -16.6730   21.5070 C   0  0  0  0  0  2  0  0  0  0  0  0
  -30.2230  -15.5980   21.2030 C   0  0  0  0  0  2  0  0  0  0  0  0
  -30.6860  -14.4830   20.2370 C   0  0  0  0  0  0  0  0  0  0  0  0
  -30.2420  -12.3950   18.9840 C   0  0  0  0  0  2  0  0  0  0  0  0
  -29.2750  -12.6980   17.8260 C   0  0  0  0  0  2  0  0  0  0  0  0
  -27.8220  -12.5150   18.2990 C   0  0  0  0  0  2  0  0  0  0  0  0
  -27.5370  -13.3100   19.6050 C   0  0  0  0  0  3  0  0  0  0  0  0
  -28.6340  -13.0730   20.6700 C   0  0  0  0  0  2  0  0  0  0  0  0
  -29.9470  -13.3500   20.0650 N   0  0  0  0  0  0  0  0  0  0  0  0
  -31.7160  -14.6780   19.5860 O   0  0  0  0  0  0  0  0  0  0  0  0
  -25.1600  -13.8900   20.3910 C   0  0  0  0  0  0  0  0  0  0  0  0
  -24.1120  -13.1090   20.7920 C   0  0  0  0  0  0  0  0  0  0  0  0
  -24.5810  -11.7600   20.7420 C   0  0  0  0  0  0  0  0  0  0  0  0
  -26.2040  -13.0190   20.1260 N   0  0  0  0  0  0  0  0  0  0  0  0
  -25.8610  -11.7320   20.3910 N   0  0  0  0  0  0  0  0  0  0  0  0
  -23.8700  -10.4930   20.9510 C   0  0  0  0  0  0  0  0  0  0  0  0
  -24.3230   -9.5330   21.8850 C   0  0  0  0  0  3  0  0  0  0  0  0
  -23.6110   -8.3290   22.0820 C   0  0  0  0  0  3  0  0  0  0  0  0
  -22.4310   -8.0740   21.3430 C   0  0  0  0  0  0  0  0  0  0  0  0
  -21.9960   -9.0210   20.4000 C   0  0  0  0  0  3  0  0  0  0  0  0
  -22.7070  -10.2170   20.2020 C   0  0  0  0  0  3  0  0  0  0  0  0
  -21.6860   -6.9230   21.4490 O   0  0  0  0  0  0  0  0  0  0  0  0
  -21.6500   -6.1950   22.6120 C   0  0  0  0  0  0  0  0  0  0  0  0
  -21.2150   -6.7600   23.8310 C   0  0  0  0  0  3  0  0  0  0  0  0
  -21.1320   -5.9580   24.9880 C   0  0  0  0  0  3  0  0  0  0  0  0
  -21.4640   -4.5920   24.9240 C   0  0  0  0  0  0  0  0  0  0  0  0
  -21.8880   -4.0270   23.7080 C   0  0  0  0  0  3  0  0  0  0  0  0
  -21.9780   -4.8260   22.5560 C   0  0  0  0  0  0  0  0  0  0  0  0
  -22.3690   -4.2710   21.3820 F   0  0  0  0  0  0  0  0  0  0  0  0
  -21.3730   -3.8200   26.0310 F   0  0  0  0  0  0  0  0  0  0  0  0
  -22.7210  -13.5730   21.1100 C   0  0  0  0  0  0  0  0  0  0  0  0
  -22.0240  -12.8660   21.9880 N   0  0  0  0  0  0  0  0  0  0  0  0
  -22.2600  -14.6010   20.6100 O   0  0  0  0  0  0  0  0  0  0  0  0
  -22.4100  -12.0320   22.4070 H   0  0  0  0  0  0  0  0  0  0  0  0
  -21.0910  -13.1600   22.2440 H   0  0  0  0  0  0  0  0  0  0  0  0
  -25.3090  -15.2640   20.2120 N   0  0  0  0  0  0  0  0  0  0  0  0
  -24.5420  -15.9130   20.3550 H   0  0  0  0  0  0  0  0  0  0  0  0
  -26.1530  -15.7130   19.8810 H   0  0  0  0  0  0  0  0  0  0  0  0
  -31.4770  -24.4260   21.2860 N   0  0  0  0  0  0  0  0  0  0  0  0
  -32.3430  -24.5970   20.7830 H   0  0  0  0  0  0  0  0  0  0  0  0
  -30.6920  -25.6620   21.3270 C   0  0  0  0  0  2  0  0  0  0  0  0
  -30.5860  -26.3520   19.9500 C   0  0  0  0  0  2  0  0  0  0  0  0
  -29.4830  -27.4250   19.9100 C   0  0  0  0  0  2  0  0  0  0  0  0
  -28.2070  -26.7820   19.9240 O   0  0  0  0  0  0  0  0  0  0  0  0
  -24.4980  -31.9430   23.2000 C   0  0  0  0  0  0  0  0  0  0  0  0
  -27.0700  -27.5600   20.0100 C   0  0  0  0  0  0  0  0  0  0  0  0
  -23.2350  -30.5620   21.5740 C   0  0  0  0  0  3  0  0  0  0  0  0
  -24.6500  -29.0280   20.1040 C   0  0  0  0  0  0  0  0  0  0  0  0
  -25.7500  -30.9260   21.3120 C   0  0  0  0  0  2  0  0  0  0  0  0
  -25.8190  -29.5620   20.6610 C   0  0  0  0  0  0  0  0  0  0  0  0
  -27.0270  -28.8380   20.6170 C   0  0  0  0  0  3  0  0  0  0  0  0
  -25.8820  -27.0260   19.4750 C   0  0  0  0  0  3  0  0  0  0  0  0
  -24.6720  -27.7510   19.5120 C   0  0  0  0  0  3  0  0  0  0  0  0
  -23.4040  -29.8830   20.1850 C   0  0  0  0  0  2  0  0  0  0  0  0
  -24.5120  -31.1590   22.0860 N   0  0  0  0  0  0  0  0  0  0  0  0
  -23.4370  -32.2150   23.7780 O   0  0  0  0  0  0  0  0  0  0  0  0
  -22.6070  -29.5390   22.5470 C   0  0  0  0  0  0  0  0  0  0  0  0
  -21.2830  -29.3490   22.4390 N   0  0  0  0  0  0  0  0  0  0  0  0
  -23.3070  -28.9180   23.3510 O   0  0  0  0  0  0  0  0  0  0  0  0
  -20.7790  -29.9020   21.7610 H   0  0  0  0  0  0  0  0  0  0  0  0
  -17.9280  -28.1280   22.9670 C   0  0  0  0  0  0  0  0  0  0  0  0
  -20.4840  -28.4110   23.2250 C   0  0  0  0  0  3  0  0  0  0  0  0
  -20.5960  -26.9750   22.6620 C   0  0  0  0  0  2  0  0  0  0  0  0
  -19.4970  -26.6350   21.6490 C   0  0  0  0  0  2  0  0  0  0  0  0
  -18.1130  -26.7760   22.2930 C   0  0  0  0  0  2  0  0  0  0  0  0
  -19.0420  -28.9030   23.3860 C   0  0  0  0  0  0  0  0  0  0  0  0
  -18.8140  -30.1690   23.9690 C   0  0  0  0  0  3  0  0  0  0  0  0
  -17.5050  -30.6610   24.1380 C   0  0  0  0  0  3  0  0  0  0  0  0
  -16.4060  -29.8790   23.7380 C   0  0  0  0  0  3  0  0  0  0  0  0
  -16.6180  -28.6150   23.1590 C   0  0  0  0  0  3  0  0  0  0  0  0
  -25.8090  -32.5580   23.7870 C   0  0  0  0  0  3  0  0  0  0  0  0
  -25.5210  -33.9520   24.1440 N   0  0  0  0  0  0  0  0  0  0  0  0
  -25.8490  -35.0140   23.3930 C   0  0  0  0  0  0  0  0  0  0  0  0
  -26.4980  -34.9200   22.3480 O   0  0  0  0  0  0  0  0  0  0  0  0
  -24.9430  -34.0990   24.9570 H   0  0  0  0  0  0  0  0  0  0  0  0
  -24.1350  -36.8290   23.0930 C   0  0  0  0  0  1  0  0  0  0  0  0
  -25.3820  -36.3980   23.8830 C   0  0  0  0  0  3  0  0  0  0  0  0
  -27.5350  -37.2450   24.7020 C   0  0  0  0  0  1  0  0  0  0  0  0
  -26.4210  -37.4420   23.7770 N   0  0  0  0  0  0  0  0  0  0  0  0
  -26.0260  -38.3620   23.9520 H   0  0  0  0  0  0  0  0  0  0  0  0
  -26.3650  -31.7630   25.0320 C   0  0  1  0  0  0  0  0  0  0  0  0
  -25.3040  -31.5060   26.1260 C   0  0  0  0  0  1  0  0  0  0  0  0
  -26.9390  -30.3940   24.5980 C   0  0  0  0  0  1  0  0  0  0  0  0
  -27.5300  -32.5480   25.6790 C   0  0  0  0  0  1  0  0  0  0  0  0
  1  2  1  0
  3  5  1  0
  4  9  1  0
  4  1  1  0
  5 51  1  0
  5  2  1  0
  6  3  1  0
  6  4  1  0
  7  6  1  0
  8  6  1  0
  9 10  1  0
 10 12  1  0
 11  9  2  0
 13 10  1  0
 14 13  1  0
 15 14  1  0
 16 21  1  0
 17 18  1  0
 17 16  1  0
 19 18  1  0
 19 26  1  0
 19 20  1  0
 21 15  1  0
 21 20  1  0
 22 15  2  0
 23 24  2  0
 24 43  1  0
 25 24  1  0
 25 28  1  0
 26 23  1  0
 26 27  1  0
 27 25  2  0
 28 29  1  0
 29 30  2  0
 31 34  1  0
 31 30  1  0
 32 31  2  0
 33 32  1  0
 33 28  2  0
 34 35  1  0
 35 36  1  0
 36 37  2  0
 38 37  1  0
 38 42  1  0
 39 38  2  0
 40 35  2  0
 40 39  1  0
 41 40  1  0
 43 44  1  0
 44 47  1  0
 44 46  1  0
 45 43  2  0
 48 49  1  0
 48 23  1  0
 50 48  1  0
 51 53  1  0
 52 51  1  0
 54 53  1  0
 55 56  1  0
 55 54  1  0
 56 58  1  0
 57 68  2  0
 58 63  1  0
 59 67  1  0
 59 69  1  0
 60 66  1  0
 60 62  1  0
 61 67  1  0
 62 61  1  0
 63 62  2  0
 64 65  1  0
 64 58  2  0
 65 60  2  0
 66 59  1  0
 67 57  1  0
 69 71  2  0
 70 69  1  0
 72 70  1  0
 73 82  2  0
 73 78  1  0
 74 70  1  0
 74 78  1  0
 75 74  1  0
 76 77  1  0
 76 75  1  0
 77 73  1  0
 78 79  2  0
 79 80  1  0
 81 80  2  0
 82 81  1  0
 83 57  1  0
 83 84  1  0
 83 93  1  0
 84 87  1  0
 85 89  1  0
 85 84  1  0
 86 85  2  0
 89 88  1  0
 91 89  1  0
 91 92  1  0
 91 90  1  0
 93 96  1  1
 93 94  1  0
 95 93  1  0
M  ISO  4  14 100  15 100  55 101  56 101
M  END
>  <TORSDO>  (28) 
F 23

>  <SCORE>  (28) 
-13.187

>  <name>  (28) 
27

>  <ligand_id>  (28) 
27

>  <original_smiles>  (28) 
[H]c1c([H])c([H])c2c(c1[H])C([H])([H])C([H])([H])C([H])([H])C2([H])N([H])C(=O)C1([H])N(C(=O)C([H])(N([H])C(=O)C([H])(N([H])C([H])([H])[H])C([H])([H])[H])C(C([H])([H])[H])(C([H])([H])[H])C([H])([H])[H])C([H])([H])c2c([H])c(OC([H])([H])C([H])([H])C([H])([H])N([H])C3([H])C([H])([H])C([H])([H])C([H])(C(=O)N([H])C([H])([H])C([H])([H])C(=O)N4C([H])([H])C([H])([H])C([H])([H])C([H])(n5nc(-c6c([H])c([H])c(Oc7c([H])c([H])c(F)c([H])c7F)c([H])c6[H])c(C(=O)N([H])[H])c5N([H])[H])C4([H])[H])[N+]([H])([H])C3([H])[H])c([H])c([H])c2C1([H])[H]

>  <smiles>  (28) 
[H]c1c([H])c([H])c2c(c1[H])C([H])([H])C([H])([H])C([H])([H])C2([H])N([H])C(=O)C1([H])N(C(=O)C([H])(N([H])C(=O)C([H])(N([H])C([H])([H])[H])C([H])([H])[H])C(C([H])([H])[H])(C([H])([H])[H])C([H])([H])[H])C([H])([H])c2c([H])c(OC([H])([H])C([H])([H])C([H])([H])N([H])C3([H])C([H])([H])C([H])([H])C([H])(C(=O)N([H])C([H])([H])C([H])([H])C(=O)N4C([H])([H])C([H])([H])C([H])([H])C([H])(n5nc(-c6c([H])c([H])c(Oc7c([H])c([H])c(F)c([H])c7F)c([H])c6[H])c(C(=O)N([H])[H])c5N([H])[H])C4([H])[H])[N+]([H])([H])C3([H])[H])c([H])c([H])c2C1([H])[H]

$$$$
28:0:0
     RDKit          3D

 91 99  0  0  1  0  0  0  0  0999 V2000
  -29.9570  -20.4530   19.3690 N   0  0  0  0  0  4  0  0  0  0  0  0
  -30.4250  -20.6070   20.2480 H   0  0  0  0  0  0  0  0  0  0  0  0
  -30.6640  -20.5770   18.6620 H   0  0  0  0  0  0  0  0  0  0  0  0
  -31.0470  -14.9950   19.3730 C   0  0  0  0  0  0  0  0  0  0  0  0
  -30.7890  -12.6240   18.4880 C   0  0  0  0  0  2  0  0  0  0  0  0
  -29.6870  -12.5320   17.4060 C   0  0  0  0  0  2  0  0  0  0  0  0
  -28.3040  -12.3140   18.0480 C   0  0  0  0  0  2  0  0  0  0  0  0
  -28.0660  -13.2610   19.2510 C   0  0  0  0  0  3  0  0  0  0  0  0
  -29.2700  -13.2850   20.2080 C   0  0  0  0  0  2  0  0  0  0  0  0
  -30.4350  -13.7350   19.4260 N   0  0  0  0  0  0  0  0  0  0  0  0
  -32.1420  -15.0420   18.7980 O   0  0  0  0  0  0  0  0  0  0  0  0
  -28.5440  -18.4400   20.3820 C   0  0  0  0  0  2  0  0  0  0  0  0
  -30.6850  -17.6700   19.1810 C   0  0  0  0  0  2  0  0  0  0  0  0
  -30.1700  -16.4590   21.1620 C   0  0  0  0  0  2  0  0  0  0  0  0
  -29.5660  -18.9050   19.3190 C   0  0  0  0  0  3  0  0  0  0  0  0
  -29.1230  -17.5630   21.5250 C   0  0  0  0  0  3  0  0  0  0  0  0
  -30.3830  -16.2200   19.7210 N   0  0  0  0  0  0  0  0  0  0  0  0
  -25.9450  -13.8530   20.5520 C   0  0  0  0  0  0  0  0  0  0  0  0
  -24.8960  -13.0950   20.9970 C   0  0  0  0  0  0  0  0  0  0  0  0
  -25.2060  -11.7450   20.6460 C   0  0  0  0  0  0  0  0  0  0  0  0
  -26.8220  -12.9660   19.9510 N   0  0  0  0  0  0  0  0  0  0  0  0
  -26.4020  -11.6810   20.0720 N   0  0  0  0  0  0  0  0  0  0  0  0
  -24.4050  -10.5190   20.7670 C   0  0  0  0  0  0  0  0  0  0  0  0
  -24.7770   -9.4770   21.6450 C   0  0  0  0  0  3  0  0  0  0  0  0
  -23.9800   -8.3170   21.7580 C   0  0  0  0  0  3  0  0  0  0  0  0
  -22.7960   -8.1910   20.9920 C   0  0  0  0  0  0  0  0  0  0  0  0
  -22.4420   -9.2220   20.1030 C   0  0  0  0  0  3  0  0  0  0  0  0
  -23.2400  -10.3730   19.9870 C   0  0  0  0  0  3  0  0  0  0  0  0
  -21.9730   -7.0910   21.0180 O   0  0  0  0  0  0  0  0  0  0  0  0
  -21.6370   -6.4710   22.1950 C   0  0  0  0  0  0  0  0  0  0  0  0
  -21.0210   -7.1690   23.2560 C   0  0  0  0  0  3  0  0  0  0  0  0
  -20.6290   -6.4790   24.4200 C   0  0  0  0  0  3  0  0  0  0  0  0
  -20.8430   -5.0910   24.5220 C   0  0  0  0  0  0  0  0  0  0  0  0
  -21.4520   -4.3930   23.4640 C   0  0  0  0  0  3  0  0  0  0  0  0
  -21.8440   -5.0820   22.3020 C   0  0  0  0  0  0  0  0  0  0  0  0
  -22.4110   -4.4000   21.2780 F   0  0  0  0  0  0  0  0  0  0  0  0
  -20.4600   -4.4260   25.6370 F   0  0  0  0  0  0  0  0  0  0  0  0
  -23.6300  -13.6060   21.6170 C   0  0  0  0  0  0  0  0  0  0  0  0
  -23.0400  -12.8380   22.5260 N   0  0  0  0  0  0  0  0  0  0  0  0
  -23.1810  -14.7150   21.3300 O   0  0  0  0  0  0  0  0  0  0  0  0
  -23.4200  -11.9380   22.7760 H   0  0  0  0  0  0  0  0  0  0  0  0
  -22.1950  -13.1580   22.9810 H   0  0  0  0  0  0  0  0  0  0  0  0
  -26.2190  -15.2190   20.5800 N   0  0  0  0  0  0  0  0  0  0  0  0
  -25.4700  -15.8560   20.8280 H   0  0  0  0  0  0  0  0  0  0  0  0
  -26.8700  -15.6230   19.9200 H   0  0  0  0  0  0  0  0  0  0  0  0
  -28.0500  -16.9590   22.2290 O   0  0  0  0  0  0  0  0  0  0  0  0
  -27.5550  -16.4060   21.6270 H   0  0  0  0  0  0  0  0  0  0  0  0
  -28.9480  -21.6700   19.1730 C   0  0  0  0  0  2  0  0  0  0  0  0
  -29.3510  -23.3070   19.3880 C   0  0  0  0  0  3  0  0  0  0  0  0
  -28.3000  -24.6230   19.2070 C   0  0  0  0  0  3  0  0  0  0  0  0
  -28.5050  -26.1250   19.5890 O   0  0  0  0  0  0  0  0  0  0  0  0
  -24.6360  -31.3920   23.0180 C   0  0  0  0  0  0  0  0  0  0  0  0
  -27.4120  -27.0720   19.5990 C   0  0  0  0  0  0  0  0  0  0  0  0
  -23.4990  -30.1000   21.2540 C   0  0  0  0  0  3  0  0  0  0  0  0
  -25.0150  -28.7200   19.7050 C   0  0  0  0  0  0  0  0  0  0  0  0
  -26.0410  -30.4820   21.1310 C   0  0  0  0  0  2  0  0  0  0  0  0
  -26.1730  -29.1570   20.3580 C   0  0  0  0  0  0  0  0  0  0  0  0
  -27.3720  -28.3510   20.2890 C   0  0  0  0  0  3  0  0  0  0  0  0
  -26.2220  -26.7400   18.9160 C   0  0  0  0  0  3  0  0  0  0  0  0
  -25.0520  -27.5260   18.9680 C   0  0  0  0  0  3  0  0  0  0  0  0
  -23.7510  -29.5580   19.8220 C   0  0  0  0  0  2  0  0  0  0  0  0
  -24.7440  -30.6760   21.8570 N   0  0  0  0  0  0  0  0  0  0  0  0
  -23.5370  -31.5860   23.5610 O   0  0  0  0  0  0  0  0  0  0  0  0
  -22.8590  -28.9850   22.1190 C   0  0  0  0  0  0  0  0  0  0  0  0
  -21.5430  -28.7590   21.9540 N   0  0  0  0  0  0  0  0  0  0  0  0
  -23.5500  -28.3290   22.9020 O   0  0  0  0  0  0  0  0  0  0  0  0
  -21.0400  -29.3440   21.3020 H   0  0  0  0  0  0  0  0  0  0  0  0
  -18.2060  -27.4100   22.3600 C   0  0  0  0  0  0  0  0  0  0  0  0
  -20.7590  -27.7230   22.6310 C   0  0  0  0  0  3  0  0  0  0  0  0
  -20.8960  -26.3610   21.9130 C   0  0  0  0  0  2  0  0  0  0  0  0
  -19.7930  -26.1100   20.8800 C   0  0  0  0  0  2  0  0  0  0  0  0
  -18.4160  -26.1440   21.5470 C   0  0  0  0  0  2  0  0  0  0  0  0
  -19.3060  -28.1590   22.8560 C   0  0  0  0  0  0  0  0  0  0  0  0
  -19.0540  -29.3460   23.5790 C   0  0  0  0  0  3  0  0  0  0  0  0
  -17.7360  -29.7830   23.8090 C   0  0  0  0  0  3  0  0  0  0  0  0
  -16.6510  -29.0300   23.3280 C   0  0  0  0  0  3  0  0  0  0  0  0
  -16.8870  -27.8450   22.6100 C   0  0  0  0  0  3  0  0  0  0  0  0
  -25.8850  -32.0220   23.7080 C   0  0  0  0  0  3  0  0  0  0  0  0
  -26.3490  -31.2270   24.9890 C   0  0  1  0  0  0  0  0  0  0  0  0
  -25.2110  -30.9530   26.0000 C   0  0  0  0  0  1  0  0  0  0  0  0
  -26.9680  -29.8650   24.6000 C   0  0  0  0  0  1  0  0  0  0  0  0
  -27.4580  -32.0190   25.7230 C   0  0  0  0  0  1  0  0  0  0  0  0
  -25.5500  -33.4110   24.0600 N   0  0  0  0  0  0  0  0  0  0  0  0
  -25.8150  -34.4780   23.2960 C   0  0  0  0  0  0  0  0  0  0  0  0
  -26.4340  -34.4010   22.2320 O   0  0  0  0  0  0  0  0  0  0  0  0
  -24.9930  -33.5430   24.8910 H   0  0  0  0  0  0  0  0  0  0  0  0
  -24.0000  -36.2100   23.0780 C   0  0  0  0  0  1  0  0  0  0  0  0
  -25.3150  -35.8520   23.7890 C   0  0  0  0  0  3  0  0  0  0  0  0
  -27.4620  -36.8320   24.4680 C   0  0  0  0  0  1  0  0  0  0  0  0
  -26.2970  -36.9410   23.5940 N   0  0  0  0  0  0  0  0  0  0  0  0
  -25.8650  -37.8480   23.7540 H   0  0  0  0  0  0  0  0  0  0  0  0
  1  2  1  0
  3  1  1  0
  4 10  1  0
  4 17  1  0
  5 10  1  0
  6  7  1  0
  6  5  1  0
  8  7  1  0
  8 21  1  0
  8  9  1  0
 10  9  1  0
 11  4  2  0
 12 16  1  0
 13 15  1  0
 13 17  1  0
 14 16  1  0
 15  1  1  0
 15 12  1  0
 16 46  1  0
 17 14  1  0
 18 43  1  0
 18 19  2  0
 19 38  1  0
 20 23  1  0
 20 19  1  0
 21 22  1  0
 21 18  1  0
 22 20  2  0
 23 24  1  0
 24 25  2  0
 26 29  1  0
 26 25  1  0
 27 26  2  0
 28 27  1  0
 28 23  2  0
 29 30  1  0
 30 35  2  0
 30 31  1  0
 31 32  2  0
 32 33  1  0
 33 37  1  0
 34 33  2  0
 35 34  1  0
 36 35  1  0
 38 39  1  0
 39 41  1  0
 39 42  1  0
 40 38  2  0
 43 44  1  0
 45 43  1  0
 47 46  1  0
 48  1  1  0
 48 49  1  0
 50 49  2  0
 50 51  1  0
 51 53  1  0
 52 63  2  0
 53 58  1  0
 54 62  1  0
 54 64  1  0
 55 61  1  0
 55 57  1  0
 56 62  1  0
 57 56  1  0
 58 57  2  0
 59 60  1  0
 59 53  2  0
 60 55  2  0
 61 54  1  0
 62 52  1  0
 64 66  2  0
 65 64  1  0
 67 65  1  0
 68 77  2  0
 68 73  1  0
 69 65  1  0
 69 73  1  0
 70 69  1  0
 71 72  1  0
 71 70  1  0
 72 68  1  0
 73 74  2  0
 74 75  1  0
 76 75  2  0
 77 76  1  0
 78 52  1  0
 78 83  1  0
 78 79  1  0
 79 82  1  1
 79 80  1  0
 81 79  1  0
 83 86  1  0
 84 88  1  0
 84 83  1  0
 85 84  2  0
 88 87  1  0
 90 91  1  0
 90 88  1  0
 90 89  1  0
M  ISO  4   4 100  17 100  50 101  51 101
M  END
>  <TORSDO>  (29) 
F 20

>  <SCORE>  (29) 
-8.961

>  <name>  (29) 
28

>  <ligand_id>  (29) 
28

>  <original_smiles>  (29) 
[H]OC1([H])C([H])([H])N(C(=O)N2C([H])([H])C([H])([H])C([H])([H])C([H])(n3nc(-c4c([H])c([H])c(Oc5c([H])c([H])c(F)c([H])c5F)c([H])c4[H])c(C(=O)N([H])[H])c3N([H])[H])C2([H])[H])C([H])([H])C([H])([N+]([H])([H])C([H])([H])C([H])([H])C([H])([H])Oc2c([H])c([H])c3c(c2[H])C([H])([H])N(C(=O)C([H])(N([H])C(=O)C([H])(N([H])C([H])([H])[H])C([H])([H])[H])C(C([H])([H])[H])(C([H])([H])[H])C([H])([H])[H])C([H])(C(=O)N([H])C2([H])c4c([H])c([H])c([H])c([H])c4C([H])([H])C([H])([H])C2([H])[H])C3([H])[H])C1([H])[H]

>  <smiles>  (29) 
[H]OC1([H])C([H])([H])N(C(=O)N2C([H])([H])C([H])([H])C([H])([H])C([H])(n3nc(-c4c([H])c([H])c(Oc5c([H])c([H])c(F)c([H])c5F)c([H])c4[H])c(C(=O)N([H])[H])c3N([H])[H])C2([H])[H])C([H])([H])C([H])([N+]([H])([H])C([H])([H])C([H])([H])C([H])([H])Oc2c([H])c([H])c3c(c2[H])C([H])([H])N(C(=O)C([H])(N([H])C(=O)C([H])(N([H])C([H])([H])[H])C([H])([H])[H])C(C([H])([H])[H])(C([H])([H])[H])C([H])([H])[H])C([H])(C(=O)N([H])C2([H])c4c([H])c([H])c([H])c([H])c4C([H])([H])C([H])([H])C2([H])[H])C3([H])[H])C1([H])[H]

$$$$
29:0:0
     RDKit          3D

 95103  0  0  1  0  0  0  0  0999 V2000
  -28.6000  -23.3300   19.5430 C   0  0  0  0  0  2  0  0  0  0  0  0
  -28.8900  -24.4250   21.7840 C   0  0  0  0  0  2  0  0  0  0  0  0
  -28.2350  -24.6840   20.4030 C   0  0  0  0  0  3  0  0  0  0  0  0
  -28.8430  -21.9050   20.3670 C   0  0  0  0  0  3  0  0  0  0  0  0
  -30.1150  -23.4380   21.8380 C   0  0  2  0  0  0  0  0  0  0  0  0
  -30.4100  -23.1120   23.3110 C   0  0  0  0  0  1  0  0  0  0  0  0
  -31.3750  -24.0400   21.1900 C   0  0  0  0  0  1  0  0  0  0  0  0
  -29.9470  -22.1360   21.2390 O   0  0  0  0  0  0  0  0  0  0  0  0
  -28.3910  -26.1760   19.9820 O   0  0  0  0  0  0  0  0  0  0  0  0
  -24.6680  -31.7240   23.0950 C   0  0  0  0  0  0  0  0  0  0  0  0
  -27.2970  -27.1090   19.9920 C   0  0  0  0  0  0  0  0  0  0  0  0
  -23.4720  -30.3300   21.4490 C   0  0  0  0  0  3  0  0  0  0  0  0
  -24.9320  -28.7940   19.9960 C   0  0  0  0  0  0  0  0  0  0  0  0
  -26.0170  -30.6460   21.2590 C   0  0  0  0  0  2  0  0  0  0  0  0
  -26.1090  -29.2630   20.5950 C   0  0  0  0  0  0  0  0  0  0  0  0
  -27.2930  -28.4390   20.5720 C   0  0  0  0  0  3  0  0  0  0  0  0
  -26.0960  -26.7340   19.3550 C   0  0  0  0  0  3  0  0  0  0  0  0
  -24.9360  -27.5400   19.3610 C   0  0  0  0  0  3  0  0  0  0  0  0
  -23.6910  -29.6700   20.0610 C   0  0  0  0  0  2  0  0  0  0  0  0
  -24.7390  -30.9220   21.9900 N   0  0  0  0  0  0  0  0  0  0  0  0
  -23.5860  -31.9860   23.6400 O   0  0  0  0  0  0  0  0  0  0  0  0
  -22.8190  -29.3010   22.4050 C   0  0  0  0  0  0  0  0  0  0  0  0
  -21.4930  -29.1120   22.2880 N   0  0  0  0  0  0  0  0  0  0  0  0
  -23.5060  -28.6770   23.2160 O   0  0  0  0  0  0  0  0  0  0  0  0
  -20.9930  -29.6670   21.6070 H   0  0  0  0  0  0  0  0  0  0  0  0
  -18.1370  -27.8440   22.7880 C   0  0  0  0  0  0  0  0  0  0  0  0
  -20.6910  -28.1530   23.0530 C   0  0  0  0  0  3  0  0  0  0  0  0
  -20.8190  -26.7270   22.4700 C   0  0  0  0  0  2  0  0  0  0  0  0
  -19.7210  -26.3900   21.4560 C   0  0  0  0  0  2  0  0  0  0  0  0
  -18.3380  -26.5040   22.1020 C   0  0  0  0  0  2  0  0  0  0  0  0
  -19.2420  -28.6260   23.2210 C   0  0  0  0  0  0  0  0  0  0  0  0
  -18.9980  -29.8790   23.8250 C   0  0  0  0  0  3  0  0  0  0  0  0
  -17.6840  -30.3520   24.0000 C   0  0  0  0  0  3  0  0  0  0  0  0
  -16.5940  -29.5680   23.5830 C   0  0  0  0  0  3  0  0  0  0  0  0
  -16.8220  -28.3160   22.9840 C   0  0  0  0  0  3  0  0  0  0  0  0
  -25.9440  -32.3680   23.7180 C   0  0  0  0  0  3  0  0  0  0  0  0
  -25.6020  -33.7410   24.1190 N   0  0  0  0  0  0  0  0  0  0  0  0
  -25.8920  -34.8400   23.4110 C   0  0  0  0  0  0  0  0  0  0  0  0
  -26.5420  -34.8050   22.3620 O   0  0  0  0  0  0  0  0  0  0  0  0
  -25.0200  -33.8400   24.9390 H   0  0  0  0  0  0  0  0  0  0  0  0
  -24.1120  -36.6050   23.1820 C   0  0  0  0  0  1  0  0  0  0  0  0
  -25.3790  -36.1920   23.9470 C   0  0  0  0  0  3  0  0  0  0  0  0
  -27.5030  -37.0960   24.7860 C   0  0  0  0  0  1  0  0  0  0  0  0
  -26.3820  -37.2760   23.8680 N   0  0  0  0  0  0  0  0  0  0  0  0
  -25.9550  -38.1780   24.0630 H   0  0  0  0  0  0  0  0  0  0  0  0
  -26.5100  -31.5580   24.9500 C   0  0  1  0  0  0  0  0  0  0  0  0
  -25.4470  -31.2460   26.0280 C   0  0  0  0  0  1  0  0  0  0  0  0
  -27.1230  -30.2150   24.4900 C   0  0  0  0  0  1  0  0  0  0  0  0
  -27.6510  -32.3590   25.6210 C   0  0  0  0  0  1  0  0  0  0  0  0
  -29.0600  -20.3790   19.6760 C   0  0  0  0  0  3  0  0  0  0  0  0
  -29.1460  -18.9700   21.7950 C   0  0  0  0  0  1  0  0  0  0  0  0
  -29.7610  -19.1930   20.4670 N   0  0  1  0  0  4  0  0  0  0  0  0
  -30.6560  -19.6000   20.7110 H   0  0  0  0  0  0  0  0  0  0  0  0
  -30.1490  -17.8150   19.7680 C   0  0  0  0  0  3  0  0  0  0  0  0
  -30.1400  -16.3230   20.5440 C   0  0  0  0  0  3  0  0  0  0  0  0
  -30.8560  -14.9380   19.9980 C   0  0  0  0  0  0  0  0  0  0  0  0
  -30.6340  -12.6270   18.9750 C   0  0  0  0  0  2  0  0  0  0  0  0
  -29.6230  -12.6900   17.8040 C   0  0  0  0  0  2  0  0  0  0  0  0
  -28.1860  -12.4870   18.3180 C   0  0  0  0  0  2  0  0  0  0  0  0
  -27.8850  -13.3570   19.5650 C   0  0  0  0  0  3  0  0  0  0  0  0
  -29.0080  -13.2860   20.6220 C   0  0  0  0  0  2  0  0  0  0  0  0
  -30.2580  -13.6800   19.9620 N   0  0  0  0  0  0  0  0  0  0  0  0
  -32.0010  -15.0200   19.5370 O   0  0  0  0  0  0  0  0  0  0  0  0
  -25.5640  -13.9420   20.4640 C   0  0  0  0  0  0  0  0  0  0  0  0
  -24.5130  -13.1710   20.8750 C   0  0  0  0  0  0  0  0  0  0  0  0
  -24.9520  -11.8140   20.7660 C   0  0  0  0  0  0  0  0  0  0  0  0
  -26.5760  -13.0590   20.1320 N   0  0  0  0  0  0  0  0  0  0  0  0
  -26.2210  -11.7700   20.3770 N   0  0  0  0  0  0  0  0  0  0  0  0
  -24.2190  -10.5560   20.9580 C   0  0  0  0  0  0  0  0  0  0  0  0
  -24.6210   -9.6080   21.9240 C   0  0  0  0  0  3  0  0  0  0  0  0
  -23.8890   -8.4160   22.1060 C   0  0  0  0  0  3  0  0  0  0  0  0
  -22.7380   -8.1620   21.3200 C   0  0  0  0  0  0  0  0  0  0  0  0
  -22.3550   -9.0990   20.3440 C   0  0  0  0  0  3  0  0  0  0  0  0
  -23.0890  -10.2830   20.1630 C   0  0  0  0  0  3  0  0  0  0  0  0
  -21.9780   -7.0220   21.4080 O   0  0  0  0  0  0  0  0  0  0  0  0
  -21.7950   -6.3680   22.6010 C   0  0  0  0  0  0  0  0  0  0  0  0
  -21.1900   -7.0000   23.7100 C   0  0  0  0  0  3  0  0  0  0  0  0
  -20.9570   -6.2700   24.8940 C   0  0  0  0  0  3  0  0  0  0  0  0
  -21.3190   -4.9120   24.9670 C   0  0  0  0  0  0  0  0  0  0  0  0
  -21.9150   -4.2810   23.8610 C   0  0  0  0  0  3  0  0  0  0  0  0
  -22.1500   -5.0080   22.6800 C   0  0  0  0  0  0  0  0  0  0  0  0
  -22.7060   -4.3900   21.6100 F   0  0  0  0  0  0  0  0  0  0  0  0
  -21.0890   -4.2080   26.1010 F   0  0  0  0  0  0  0  0  0  0  0  0
  -23.1440  -13.6550   21.2500 C   0  0  0  0  0  0  0  0  0  0  0  0
  -22.4660  -12.9380   22.1370 N   0  0  0  0  0  0  0  0  0  0  0  0
  -22.6870  -14.7020   20.7890 O   0  0  0  0  0  0  0  0  0  0  0  0
  -22.8530  -12.0900   22.5240 H   0  0  0  0  0  0  0  0  0  0  0  0
  -21.5490  -13.2390   22.4350 H   0  0  0  0  0  0  0  0  0  0  0  0
  -25.7420  -15.3150   20.3200 N   0  0  0  0  0  0  0  0  0  0  0  0
  -24.9970  -15.9810   20.4880 H   0  0  0  0  0  0  0  0  0  0  0  0
  -26.5720  -15.7390   19.9300 H   0  0  0  0  0  0  0  0  0  0  0  0
  -27.6670  -19.8920   19.1910 C   0  0  0  0  0  2  0  0  0  0  0  0
  -25.7110  -20.3140   17.6550 C   0  0  0  0  0  1  0  0  0  0  0  0
  -27.8970  -19.5080   16.6790 C   0  0  0  0  0  1  0  0  0  0  0  0
  -27.2410  -20.3540   17.7810 C   0  0  0  0  0  3  0  0  0  0  0  0
  1  4  1  0
  1  3  1  0
  2  5  1  0
  3  9  1  0
  3  2  1  0
  4 50  1  0
  4  8  1  0
  5  6  1  1
  7  5  1  0
  8  5  1  0
  9 11  1  0
 10 21  2  0
 11 16  1  0
 12 20  1  0
 12 22  1  0
 13 19  1  0
 13 15  1  0
 14 20  1  0
 15 14  1  0
 16 15  2  0
 17 18  1  0
 17 11  2  0
 18 13  2  0
 19 12  1  0
 20 10  1  0
 22 24  2  0
 23 22  1  0
 25 23  1  0
 26 35  2  0
 26 31  1  0
 27 23  1  0
 27 31  1  0
 28 27  1  0
 29 30  1  0
 29 28  1  0
 30 26  1  0
 31 32  2  0
 32 33  1  0
 34 33  2  0
 35 34  1  0
 36 10  1  0
 36 37  1  0
 36 46  1  0
 37 40  1  0
 38 42  1  0
 38 37  1  0
 39 38  2  0
 42 41  1  0
 44 42  1  0
 44 45  1  0
 44 43  1  0
 46 49  1  1
 46 47  1  0
 48 46  1  0
 50 92  1  0
 50 52  1  0
 52 53  1  1
 52 51  1  0
 54 52  1  0
 54 55  2  0
 56 55  1  0
 57 62  1  0
 58 59  1  0
 58 57  1  0
 60 59  1  0
 60 67  1  0
 60 61  1  0
 62 56  1  0
 62 61  1  0
 63 56  2  0
 64 65  2  0
 65 84  1  0
 66 65  1  0
 66 69  1  0
 67 68  1  0
 67 64  1  0
 68 66  2  0
 69 70  1  0
 70 71  2  0
 72 75  1  0
 72 71  1  0
 73 72  2  0
 74 73  1  0
 74 69  2  0
 75 76  1  0
 76 81  2  0
 76 77  1  0
 77 78  2  0
 78 79  1  0
 79 83  1  0
 80 79  2  0
 81 80  1  0
 82 81  1  0
 84 85  1  0
 85 88  1  0
 85 87  1  0
 86 84  2  0
 89 64  1  0
 89 90  1  0
 91 89  1  0
 93 95  1  0
 94 95  1  0
 95 92  1  0
M  ISO  4   3 101   9 101  55 100  56 100
M  END
>  <TORSDO>  (30) 
F 22

>  <SCORE>  (30) 
-11.625

>  <name>  (30) 
29

>  <ligand_id>  (30) 
29

>  <original_smiles>  (30) 
[H]c1c([H])c([H])c2c(c1[H])C([H])([H])C([H])([H])C([H])([H])C2([H])N([H])C(=O)C1([H])N(C(=O)C([H])(N([H])C(=O)C([H])(N([H])C([H])([H])[H])C([H])([H])[H])C(C([H])([H])[H])(C([H])([H])[H])C([H])([H])[H])C([H])([H])c2c([H])c(OC3([H])C([H])([H])C([H])(C([H])(C([H])([H])C([H])(C([H])([H])[H])C([H])([H])[H])[N+]([H])(C([H])([H])[H])C([H])([H])C([H])([H])C(=O)N4C([H])([H])C([H])([H])C([H])([H])C([H])(n5nc(-c6c([H])c([H])c(Oc7c([H])c([H])c(F)c([H])c7F)c([H])c6[H])c(C(=O)N([H])[H])c5N([H])[H])C4([H])[H])OC(C([H])([H])[H])(C([H])([H])[H])C3([H])[H])c([H])c([H])c2C1([H])[H]

>  <smiles>  (30) 
[H]c1c([H])c([H])c2c(c1[H])C([H])([H])C([H])([H])C([H])([H])C2([H])N([H])C(=O)C1([H])N(C(=O)C([H])(N([H])C(=O)C([H])(N([H])C([H])([H])[H])C([H])([H])[H])C(C([H])([H])[H])(C([H])([H])[H])C([H])([H])[H])C([H])([H])c2c([H])c(OC3([H])C([H])([H])C([H])(C([H])(C([H])([H])C([H])(C([H])([H])[H])C([H])([H])[H])[N+]([H])(C([H])([H])[H])C([H])([H])C([H])([H])C(=O)N4C([H])([H])C([H])([H])C([H])([H])C([H])(n5nc(-c6c([H])c([H])c(Oc7c([H])c([H])c(F)c([H])c7F)c([H])c6[H])c(C(=O)N([H])[H])c5N([H])[H])C4([H])[H])OC(C([H])([H])[H])(C([H])([H])[H])C3([H])[H])c([H])c([H])c2C1([H])[H]

$$$$
30:0:0
     RDKit          3D

 90 97  0  0  1  0  0  0  0  0999 V2000
  -29.4290  -21.3980   19.9500 N   0  0  0  0  0  4  0  0  0  0  0  0
  -29.8780  -21.5540   20.8380 H   0  0  0  0  0  0  0  0  0  0  0  0
  -30.1780  -21.4870   19.2820 H   0  0  0  0  0  0  0  0  0  0  0  0
  -28.0780  -19.5720   21.1250 C   0  0  0  0  0  1  0  0  0  0  0  0
  -29.0320  -19.7760   19.9440 C   0  0  0  0  0  3  0  0  0  0  0  0
  -30.0320  -18.2710   19.5940 C   0  0  0  0  0  3  0  0  0  0  0  0
  -30.7160  -15.3580   19.8730 C   0  0  0  0  0  0  0  0  0  0  0  0
  -30.6140  -12.9270   18.9680 C   0  0  0  0  0  2  0  0  0  0  0  0
  -29.6390  -12.7740   17.7760 C   0  0  0  0  0  2  0  0  0  0  0  0
  -28.2020  -12.5130   18.2730 C   0  0  0  0  0  2  0  0  0  0  0  0
  -27.8200  -13.4440   19.4530 C   0  0  0  0  0  3  0  0  0  0  0  0
  -28.9280  -13.5110   20.5200 C   0  0  0  0  0  2  0  0  0  0  0  0
  -30.1280  -14.0550   19.8490 N   0  0  0  0  0  0  0  0  0  0  0  0
  -31.8920  -15.3160   19.4890 O   0  0  0  0  0  0  0  0  0  0  0  0
  -29.4290  -16.6510   21.4870 C   0  0  0  0  0  1  0  0  0  0  0  0
  -30.0170  -16.6610   20.1460 N   0  0  0  0  0  0  0  0  0  0  0  0
  -25.5040  -14.0100   20.3630 C   0  0  0  0  0  0  0  0  0  0  0  0
  -24.4550  -13.2390   20.7780 C   0  0  0  0  0  0  0  0  0  0  0  0
  -24.9000  -11.8840   20.6830 C   0  0  0  0  0  0  0  0  0  0  0  0
  -26.5170  -13.1290   20.0290 N   0  0  0  0  0  0  0  0  0  0  0  0
  -26.1700  -11.8410   20.2890 N   0  0  0  0  0  0  0  0  0  0  0  0
  -24.1650  -10.6270   20.8860 C   0  0  0  0  0  0  0  0  0  0  0  0
  -24.5760   -9.6740   21.8460 C   0  0  0  0  0  3  0  0  0  0  0  0
  -23.8390   -8.4840   22.0310 C   0  0  0  0  0  3  0  0  0  0  0  0
  -22.6790   -8.2370   21.2590 C   0  0  0  0  0  0  0  0  0  0  0  0
  -22.2890   -9.1800   20.2920 C   0  0  0  0  0  3  0  0  0  0  0  0
  -23.0250  -10.3600   20.1040 C   0  0  0  0  0  3  0  0  0  0  0  0
  -21.9170   -7.0980   21.3540 O   0  0  0  0  0  0  0  0  0  0  0  0
  -21.7700   -6.4260   22.5410 C   0  0  0  0  0  0  0  0  0  0  0  0
  -21.2330   -7.0490   23.6880 C   0  0  0  0  0  3  0  0  0  0  0  0
  -21.0330   -6.3020   24.8660 C   0  0  0  0  0  3  0  0  0  0  0  0
  -21.3640   -4.9340   24.8980 C   0  0  0  0  0  0  0  0  0  0  0  0
  -21.8960   -4.3110   23.7560 C   0  0  0  0  0  3  0  0  0  0  0  0
  -22.0960   -5.0540   22.5790 C   0  0  0  0  0  0  0  0  0  0  0  0
  -22.5860   -4.4440   21.4740 F   0  0  0  0  0  0  0  0  0  0  0  0
  -21.1660   -4.2160   26.0280 F   0  0  0  0  0  0  0  0  0  0  0  0
  -23.0810  -13.7280   21.1370 C   0  0  0  0  0  0  0  0  0  0  0  0
  -22.3920  -13.0330   22.0330 N   0  0  0  0  0  0  0  0  0  0  0  0
  -22.6300  -14.7670   20.6570 O   0  0  0  0  0  0  0  0  0  0  0  0
  -22.7690  -12.2030   22.4630 H   0  0  0  0  0  0  0  0  0  0  0  0
  -21.4670  -13.3450   22.2970 H   0  0  0  0  0  0  0  0  0  0  0  0
  -25.6760  -15.3830   20.2110 N   0  0  0  0  0  0  0  0  0  0  0  0
  -24.9330  -16.0470   20.3880 H   0  0  0  0  0  0  0  0  0  0  0  0
  -26.5120  -15.8120   19.8350 H   0  0  0  0  0  0  0  0  0  0  0  0
  -32.5280  -18.7460   19.9040 C   0  0  0  0  0  1  0  0  0  0  0  0
  -31.7490  -17.9000   17.6400 C   0  0  0  0  0  1  0  0  0  0  0  0
  -31.3650  -18.6880   18.9130 C   0  0  0  0  0  3  0  0  0  0  0  0
  -28.4990  -22.7640   19.6640 C   0  0  0  0  0  2  0  0  0  0  0  0
  -28.4940  -24.3950   20.4190 C   0  0  0  0  0  2  0  0  0  0  0  0
  -28.3500  -25.9880   20.0100 O   0  0  0  0  0  0  0  0  0  0  0  0
  -24.4620  -31.7070   23.1100 C   0  0  0  0  0  0  0  0  0  0  0  0
  -27.2450  -26.9760   20.0890 C   0  0  0  0  0  0  0  0  0  0  0  0
  -23.3470  -30.2990   21.4260 C   0  0  0  0  0  3  0  0  0  0  0  0
  -24.8750  -28.7570   20.0240 C   0  0  0  0  0  0  0  0  0  0  0  0
  -25.9040  -30.6010   21.3350 C   0  0  0  0  0  2  0  0  0  0  0  0
  -26.0360  -29.2040   20.6680 C   0  0  0  0  0  0  0  0  0  0  0  0
  -27.2160  -28.3360   20.6720 C   0  0  0  0  0  3  0  0  0  0  0  0
  -26.0430  -26.6660   19.4160 C   0  0  0  0  0  3  0  0  0  0  0  0
  -24.9000  -27.5060   19.3850 C   0  0  0  0  0  3  0  0  0  0  0  0
  -23.6260  -29.6360   20.0510 C   0  0  0  0  0  2  0  0  0  0  0  0
  -24.5900  -30.8970   22.0110 N   0  0  0  0  0  0  0  0  0  0  0  0
  -23.3540  -31.9520   23.6150 O   0  0  0  0  0  0  0  0  0  0  0  0
  -22.6680  -29.2660   22.3660 C   0  0  0  0  0  0  0  0  0  0  0  0
  -21.3440  -29.0730   22.2210 N   0  0  0  0  0  0  0  0  0  0  0  0
  -23.3410  -28.6410   23.1880 O   0  0  0  0  0  0  0  0  0  0  0  0
  -20.8560  -29.6250   21.5300 H   0  0  0  0  0  0  0  0  0  0  0  0
  -17.9800  -27.8050   22.6980 C   0  0  0  0  0  0  0  0  0  0  0  0
  -20.5370  -28.0980   22.9630 C   0  0  0  0  0  3  0  0  0  0  0  0
  -20.6600  -26.6890   22.3400 C   0  0  0  0  0  2  0  0  0  0  0  0
  -19.5580  -26.3860   21.3180 C   0  0  0  0  0  2  0  0  0  0  0  0
  -18.1770  -26.4860   21.9710 C   0  0  0  0  0  2  0  0  0  0  0  0
  -19.0900  -28.5720   23.1490 C   0  0  0  0  0  0  0  0  0  0  0  0
  -18.8520  -29.8060   23.7900 C   0  0  0  0  0  3  0  0  0  0  0  0
  -17.5400  -30.2760   23.9850 C   0  0  0  0  0  3  0  0  0  0  0  0
  -16.4460  -29.5070   23.5490 C   0  0  0  0  0  3  0  0  0  0  0  0
  -16.6670  -28.2730   22.9100 C   0  0  0  0  0  3  0  0  0  0  0  0
  -25.7000  -32.3820   23.7750 C   0  0  0  0  0  3  0  0  0  0  0  0
  -25.3340  -33.7690   24.1100 N   0  0  0  0  0  0  0  0  0  0  0  0
  -25.6590  -34.8460   23.3830 C   0  0  0  0  0  0  0  0  0  0  0  0
  -26.3620  -34.7770   22.3710 O   0  0  0  0  0  0  0  0  0  0  0  0
  -24.7090  -33.8930   24.8930 H   0  0  0  0  0  0  0  0  0  0  0  0
  -23.8990  -36.6080   23.0110 C   0  0  0  0  0  1  0  0  0  0  0  0
  -25.1240  -36.2150   23.8510 C   0  0  0  0  0  3  0  0  0  0  0  0
  -27.2020  -37.1500   24.7710 C   0  0  0  0  0  1  0  0  0  0  0  0
  -26.1320  -37.2960   23.7880 N   0  0  0  0  0  0  0  0  0  0  0  0
  -25.6950  -38.2040   23.9260 H   0  0  0  0  0  0  0  0  0  0  0  0
  -26.1940  -31.6230   25.0700 C   0  0  1  0  0  0  0  0  0  0  0  0
  -25.0730  -31.3520   26.0990 C   0  0  0  0  0  1  0  0  0  0  0  0
  -26.8310  -30.2610   24.7100 C   0  0  0  0  0  1  0  0  0  0  0  0
  -27.2960  -32.4520   25.7720 C   0  0  0  0  0  1  0  0  0  0  0  0
  1  2  1  0
  3  1  1  0
  5  1  1  0
  5  4  1  0
  6 47  1  0
  6  5  1  0
  6 16  1  0
  7 16  1  0
  8 13  1  0
  9 10  1  0
  9  8  1  0
 11 10  1  0
 11 20  1  0
 11 12  1  0
 13  7  1  0
 13 12  1  0
 14  7  2  0
 16 15  1  0
 17 18  2  0
 18 37  1  0
 19 18  1  0
 19 22  1  0
 20 21  1  0
 20 17  1  0
 21 19  2  0
 22 23  1  0
 23 24  2  0
 25 28  1  0
 25 24  1  0
 26 25  2  0
 27 26  1  0
 27 22  2  0
 28 29  1  0
 29 34  2  0
 29 30  1  0
 30 31  2  0
 31 32  1  0
 32 36  1  0
 33 32  2  0
 34 33  1  0
 35 34  1  0
 37 38  1  0
 38 41  1  0
 38 40  1  0
 39 37  2  0
 42 17  1  0
 42 43  1  0
 44 42  1  0
 46 47  1  0
 47 45  1  0
 48  1  1  0
 48 49  1  0
 50 52  1  0
 50 49  1  0
 51 62  2  0
 52 57  1  0
 53 61  1  0
 53 63  1  0
 54 60  1  0
 54 56  1  0
 55 61  1  0
 56 57  2  0
 56 55  1  0
 58 52  2  0
 59 58  1  0
 59 54  2  0
 60 53  1  0
 61 51  1  0
 63 65  2  0
 64 63  1  0
 66 64  1  0
 67 76  2  0
 67 72  1  0
 68 64  1  0
 68 72  1  0
 69 68  1  0
 70 71  1  0
 70 69  1  0
 71 67  1  0
 72 73  2  0
 73 74  1  0
 75 74  2  0
 76 75  1  0
 77 51  1  0
 77 78  1  0
 77 87  1  0
 78 81  1  0
 79 83  1  0
 79 78  1  0
 80 79  2  0
 83 82  1  0
 85 83  1  0
 85 86  1  0
 85 84  1  0
 87 90  1  1
 87 88  1  0
 89 87  1  0
M  ISO  4   7 100  16 100  49 101  50 101
M  END
>  <TORSDO>  (31) 
F 21

>  <SCORE>  (31) 
-14.750

>  <name>  (31) 
30

>  <ligand_id>  (31) 
30

>  <original_smiles>  (31) 
[H]c1c([H])c([H])c2c(c1[H])C([H])([H])C([H])([H])C([H])([H])C2([H])N([H])C(=O)C1([H])N(C(=O)C([H])(N([H])C(=O)C([H])(N([H])C([H])([H])[H])C([H])([H])[H])C(C([H])([H])[H])(C([H])([H])[H])C([H])([H])[H])C([H])([H])c2c([H])c(OC([H])([H])C([H])([H])[N+]([H])([H])C([H])(C([H])([H])[H])C([H])(N(C(=O)N3C([H])([H])C([H])([H])C([H])([H])C([H])(n4nc(-c5c([H])c([H])c(Oc6c([H])c([H])c(F)c([H])c6F)c([H])c5[H])c(C(=O)N([H])[H])c4N([H])[H])C3([H])[H])C([H])([H])[H])C([H])(C([H])([H])[H])C([H])([H])[H])c([H])c([H])c2C1([H])[H]

>  <smiles>  (31) 
[H]c1c([H])c([H])c2c(c1[H])C([H])([H])C([H])([H])C([H])([H])C2([H])N([H])C(=O)C1([H])N(C(=O)C([H])(N([H])C(=O)C([H])(N([H])C([H])([H])[H])C([H])([H])[H])C(C([H])([H])[H])(C([H])([H])[H])C([H])([H])[H])C([H])([H])c2c([H])c(OC([H])([H])C([H])([H])[N+]([H])([H])C([H])(C([H])([H])[H])C([H])(N(C(=O)N3C([H])([H])C([H])([H])C([H])([H])C([H])(n4nc(-c5c([H])c([H])c(Oc6c([H])c([H])c(F)c([H])c6F)c([H])c5[H])c(C(=O)N([H])[H])c4N([H])[H])C3([H])[H])C([H])([H])[H])C([H])(C([H])([H])[H])C([H])([H])[H])c([H])c([H])c2C1([H])[H]

$$$$
31:0:0
     RDKit          3D

 97104  0  0  1  0  0  0  0  0999 V2000
  -29.2090  -22.4570   19.9410 C   0  0  0  0  0  3  0  0  0  0  0  0
  -29.5800  -21.2630   20.8300 N   0  0  0  0  0  4  0  0  0  0  0  0
  -30.3760  -21.5530   21.3780 H   0  0  0  0  0  0  0  0  0  0  0  0
  -28.8120  -21.1050   21.4610 H   0  0  0  0  0  0  0  0  0  0  0  0
  -29.9560  -19.9210   20.1940 C   0  0  0  0  0  2  0  0  0  0  0  0
  -29.9650  -18.6070   21.1150 C   0  0  0  0  0  2  0  0  0  0  0  0
  -30.7970  -17.2980   20.6580 C   0  0  0  0  0  2  0  0  0  0  0  0
  -30.7440  -14.7630   20.2540 C   0  0  0  0  0  0  0  0  0  0  0  0
  -30.4530  -12.5020   19.2440 C   0  0  0  0  0  2  0  0  0  0  0  0
  -29.5060  -12.5570   18.0270 C   0  0  0  0  0  2  0  0  0  0  0  0
  -28.0460  -12.3600   18.4770 C   0  0  0  0  0  2  0  0  0  0  0  0
  -27.6670  -13.2590   19.6780 C   0  0  0  0  0  3  0  0  0  0  0  0
  -28.7480  -13.2490   20.7890 C   0  0  0  0  0  2  0  0  0  0  0  0
  -30.0400  -13.5770   20.1690 N   0  0  0  0  0  0  0  0  0  0  0  0
  -31.9590  -14.7610   20.0470 O   0  0  0  0  0  0  0  0  0  0  0  0
  -28.9810  -16.2910   19.4490 C   0  0  0  0  0  1  0  0  0  0  0  0
  -30.0840  -15.9900   20.3650 N   0  0  0  0  0  0  0  0  0  0  0  0
  -25.2920  -13.8800   20.4100 C   0  0  0  0  0  0  0  0  0  0  0  0
  -24.2260  -13.1130   20.7880 C   0  0  0  0  0  0  0  0  0  0  0  0
  -24.6900  -11.7630   20.7730 C   0  0  0  0  0  0  0  0  0  0  0  0
  -26.3320  -12.9910   20.1870 N   0  0  0  0  0  0  0  0  0  0  0  0
  -25.9790  -11.7150   20.4720 N   0  0  0  0  0  0  0  0  0  0  0  0
  -23.9690  -10.5040   20.9730 C   0  0  0  0  0  0  0  0  0  0  0  0
  -24.4080   -9.5530   21.9180 C   0  0  0  0  0  3  0  0  0  0  0  0
  -23.6930   -8.3510   22.1050 C   0  0  0  0  0  3  0  0  0  0  0  0
  -22.5250   -8.0960   21.3500 C   0  0  0  0  0  0  0  0  0  0  0  0
  -22.1060   -9.0370   20.3940 C   0  0  0  0  0  3  0  0  0  0  0  0
  -22.8210  -10.2310   20.2030 C   0  0  0  0  0  3  0  0  0  0  0  0
  -21.7750   -6.9500   21.4510 O   0  0  0  0  0  0  0  0  0  0  0  0
  -21.7290   -6.2200   22.6110 C   0  0  0  0  0  0  0  0  0  0  0  0
  -21.2950   -6.7850   23.8300 C   0  0  0  0  0  3  0  0  0  0  0  0
  -21.1950   -5.9800   24.9820 C   0  0  0  0  0  3  0  0  0  0  0  0
  -21.5190   -4.6110   24.9160 C   0  0  0  0  0  0  0  0  0  0  0  0
  -21.9450   -4.0460   23.7010 C   0  0  0  0  0  3  0  0  0  0  0  0
  -22.0470   -4.8490   22.5510 C   0  0  0  0  0  0  0  0  0  0  0  0
  -22.4370   -4.2960   21.3780 F   0  0  0  0  0  0  0  0  0  0  0  0
  -21.4170   -3.8340   26.0190 F   0  0  0  0  0  0  0  0  0  0  0  0
  -22.8280  -13.5920   21.0470 C   0  0  0  0  0  0  0  0  0  0  0  0
  -22.0970  -12.9040   21.9160 N   0  0  0  0  0  0  0  0  0  0  0  0
  -22.3930  -14.6120   20.5160 O   0  0  0  0  0  0  0  0  0  0  0  0
  -22.4580  -12.0790   22.3690 H   0  0  0  0  0  0  0  0  0  0  0  0
  -21.1600  -13.2130   22.1330 H   0  0  0  0  0  0  0  0  0  0  0  0
  -25.4560  -15.2480   20.2110 N   0  0  0  0  0  0  0  0  0  0  0  0
  -24.6980  -15.9120   20.3220 H   0  0  0  0  0  0  0  0  0  0  0  0
  -26.3030  -15.6710   19.8570 H   0  0  0  0  0  0  0  0  0  0  0  0
  -28.2950  -23.8390   21.9760 C   0  0  0  0  0  1  0  0  0  0  0  0
  -29.0470  -23.9200   20.6340 C   0  0  0  0  0  3  0  0  0  0  0  0
  -28.3540  -25.0660   19.7500 C   0  0  0  0  0  2  0  0  0  0  0  0
  -28.3730  -26.4880   20.1980 O   0  0  0  0  0  0  0  0  0  0  0  0
  -24.6450  -31.8770   23.2150 C   0  0  0  0  0  0  0  0  0  0  0  0
  -27.2390  -27.3230   20.1200 C   0  0  0  0  0  0  0  0  0  0  0  0
  -23.4300  -30.4910   21.5720 C   0  0  0  0  0  3  0  0  0  0  0  0
  -24.8730  -28.9480   20.1280 C   0  0  0  0  0  0  0  0  0  0  0  0
  -25.9710  -30.8000   21.3860 C   0  0  0  0  0  2  0  0  0  0  0  0
  -26.0430  -29.4250   20.7290 C   0  0  0  0  0  0  0  0  0  0  0  0
  -27.2230  -28.6220   20.7190 C   0  0  0  0  0  3  0  0  0  0  0  0
  -26.0460  -26.9150   19.4740 C   0  0  0  0  0  3  0  0  0  0  0  0
  -24.8770  -27.6990   19.4940 C   0  0  0  0  0  3  0  0  0  0  0  0
  -23.6380  -29.8260   20.1870 C   0  0  0  0  0  2  0  0  0  0  0  0
  -24.7010  -31.0760   22.1130 N   0  0  0  0  0  0  0  0  0  0  0  0
  -23.5640  -32.1540   23.7540 O   0  0  0  0  0  0  0  0  0  0  0  0
  -22.7710  -29.4680   22.5290 C   0  0  0  0  0  0  0  0  0  0  0  0
  -21.4440  -29.2920   22.4030 N   0  0  0  0  0  0  0  0  0  0  0  0
  -23.4520  -28.8390   23.3440 O   0  0  0  0  0  0  0  0  0  0  0  0
  -20.9550  -29.8500   21.7180 H   0  0  0  0  0  0  0  0  0  0  0  0
  -18.0690  -28.0880   22.9000 C   0  0  0  0  0  0  0  0  0  0  0  0
  -20.6270  -28.3530   23.1730 C   0  0  0  0  0  3  0  0  0  0  0  0
  -20.7320  -26.9210   22.5990 C   0  0  0  0  0  2  0  0  0  0  0  0
  -19.6330  -26.5960   21.5830 C   0  0  0  0  0  2  0  0  0  0  0  0
  -18.2500  -26.7390   22.2250 C   0  0  0  0  0  2  0  0  0  0  0  0
  -19.1860  -28.8530   23.3310 C   0  0  0  0  0  0  0  0  0  0  0  0
  -18.9640  -30.1150   23.9240 C   0  0  0  0  0  3  0  0  0  0  0  0
  -17.6580  -30.6130   24.0890 C   0  0  0  0  0  3  0  0  0  0  0  0
  -16.5560  -29.8450   23.6740 C   0  0  0  0  0  3  0  0  0  0  0  0
  -16.7630  -28.5850   23.0860 C   0  0  0  0  0  3  0  0  0  0  0  0
  -25.9310  -32.5050   23.8350 C   0  0  0  0  0  3  0  0  0  0  0  0
  -26.4560  -31.7210   25.0990 C   0  0  1  0  0  0  0  0  0  0  0  0
  -25.3730  -31.4710   26.1730 C   0  0  0  0  0  1  0  0  0  0  0  0
  -27.0380  -30.3470   24.6910 C   0  0  0  0  0  1  0  0  0  0  0  0
  -27.6110  -32.5100   25.7600 C   0  0  0  0  0  1  0  0  0  0  0  0
  -25.6210  -33.8990   24.1810 N   0  0  0  0  0  0  0  0  0  0  0  0
  -25.9340  -34.9600   23.4270 C   0  0  0  0  0  0  0  0  0  0  0  0
  -26.5870  -34.8690   22.3840 O   0  0  0  0  0  0  0  0  0  0  0  0
  -25.0400  -34.0440   24.9940 H   0  0  0  0  0  0  0  0  0  0  0  0
  -24.1910  -36.7480   23.1230 C   0  0  0  0  0  1  0  0  0  0  0  0
  -25.4500  -36.3430   23.9070 C   0  0  0  0  0  3  0  0  0  0  0  0
  -27.5970  -37.2310   24.7000 C   0  0  0  0  0  1  0  0  0  0  0  0
  -26.4750  -37.4020   23.7810 N   0  0  0  0  0  0  0  0  0  0  0  0
  -26.0680  -38.3190   23.9460 H   0  0  0  0  0  0  0  0  0  0  0  0
  -30.1870  -22.5320   18.7420 C   0  0  0  0  0  2  0  0  0  0  0  0
  -31.5410  -22.7980   19.2180 N   0  0  0  0  0  0  0  0  0  0  0  0
  -31.6060  -23.7750   19.4870 H   0  0  0  0  0  0  0  0  0  0  0  0
  -32.5180  -22.5580   18.1630 C   0  0  0  0  0  2  0  0  0  0  0  0
  -33.4320  -24.9180   18.1670 C   0  0  0  0  0  1  0  0  0  0  0  0
  -33.7700  -23.4340   18.3780 C   0  0  0  0  0  3  0  0  0  0  0  0
  -35.0940  -21.8100   19.8900 C   0  0  0  0  0  1  0  0  0  0  0  0
  -34.4880  -23.2110   19.7290 C   0  0  0  0  0  2  0  0  0  0  0  0
  1 90  1  0
  1 47  1  0
  1  2  1  0
  2  3  1  0
  2  4  1  0
  5  2  1  0
  5  6  1  0
  7  6  1  0
  8 17  1  0
  9 14  1  0
 10 11  1  0
 10  9  1  0
 12 11  1  0
 12 21  1  0
 12 13  1  0
 14  8  1  0
 14 13  1  0
 15  8  2  0
 16 17  1  0
 17  7  1  0
 18 19  2  0
 19 38  1  0
 20 19  1  0
 20 23  1  0
 21 18  1  0
 21 22  1  0
 22 20  2  0
 23 24  1  0
 24 25  2  0
 26 29  1  0
 26 25  1  0
 27 26  2  0
 28 27  1  0
 28 23  2  0
 29 30  1  0
 30 31  1  0
 31 32  2  0
 33 32  1  0
 33 37  1  0
 34 33  2  0
 35 30  2  0
 35 34  1  0
 36 35  1  0
 38 39  1  0
 39 42  1  0
 39 41  1  0
 40 38  2  0
 43 44  1  0
 43 18  1  0
 45 43  1  0
 47 46  1  0
 48 49  1  0
 48 47  1  0
 50 61  2  0
 51 49  1  0
 51 56  1  0
 52 60  1  0
 52 62  1  0
 53 59  1  0
 53 55  1  0
 54 60  1  0
 55 54  1  0
 56 55  2  0
 57 58  1  0
 57 51  2  0
 58 53  2  0
 59 52  1  0
 60 50  1  0
 62 64  2  0
 63 62  1  0
 65 63  1  0
 66 75  2  0
 66 71  1  0
 67 63  1  0
 67 71  1  0
 68 67  1  0
 69 70  1  0
 69 68  1  0
 70 66  1  0
 71 72  2  0
 72 73  1  0
 74 73  2  0
 75 74  1  0
 76 50  1  0
 76 81  1  0
 76 77  1  0
 77 80  1  1
 77 78  1  0
 79 77  1  0
 81 84  1  0
 82 86  1  0
 82 81  1  0
 83 82  2  0
 86 85  1  0
 88 86  1  0
 88 89  1  0
 88 87  1  0
 90 91  1  0
 91 92  1  0
 93 95  1  0
 93 91  1  0
 95 94  1  0
 95 97  1  0
 97 96  1  0
M  ISO  4   8 100  17 100  48 101  49 101
M  END
>  <TORSDO>  (32) 
F 27

>  <SCORE>  (32) 
-11.525

>  <name>  (32) 
31

>  <ligand_id>  (32) 
31

>  <original_smiles>  (32) 
[H]c1c([H])c([H])c2c(c1[H])C([H])([H])C([H])([H])C([H])([H])C2([H])N([H])C(=O)C1([H])N(C(=O)C([H])(N([H])C(=O)C([H])(N([H])C([H])([H])[H])C([H])([H])[H])C(C([H])([H])[H])(C([H])([H])[H])C([H])([H])[H])C([H])([H])c2c([H])c(OC([H])([H])C([H])(C([H])([H])[H])C([H])(C([H])([H])N([H])C([H])([H])C([H])(C([H])([H])[H])C([H])([H])C([H])([H])[H])[N+]([H])([H])C([H])([H])C([H])([H])C([H])([H])N(C(=O)N3C([H])([H])C([H])([H])C([H])([H])C([H])(n4nc(-c5c([H])c([H])c(Oc6c([H])c([H])c(F)c([H])c6F)c([H])c5[H])c(C(=O)N([H])[H])c4N([H])[H])C3([H])[H])C([H])([H])[H])c([H])c([H])c2C1([H])[H]

>  <smiles>  (32) 
[H]c1c([H])c([H])c2c(c1[H])C([H])([H])C([H])([H])C([H])([H])C2([H])N([H])C(=O)C1([H])N(C(=O)C([H])(N([H])C(=O)C([H])(N([H])C([H])([H])[H])C([H])([H])[H])C(C([H])([H])[H])(C([H])([H])[H])C([H])([H])[H])C([H])([H])c2c([H])c(OC([H])([H])C([H])(C([H])([H])[H])C([H])(C([H])([H])N([H])C([H])([H])C([H])(C([H])([H])[H])C([H])([H])C([H])([H])[H])[N+]([H])([H])C([H])([H])C([H])([H])C([H])([H])N(C(=O)N3C([H])([H])C([H])([H])C([H])([H])C([H])(n4nc(-c5c([H])c([H])c(Oc6c([H])c([H])c(F)c([H])c6F)c([H])c5[H])c(C(=O)N([H])[H])c4N([H])[H])C3([H])[H])C([H])([H])[H])c([H])c([H])c2C1([H])[H]

$$$$
32:0:0
     RDKit          3D

 84 91  0  0  1  0  0  0  0  0999 V2000
  -30.2630  -15.8890   20.2800 C   0  0  0  0  0  0  0  0  0  0  0  0
  -30.3890  -13.2780   19.5260 C   0  0  0  0  0  2  0  0  0  0  0  0
  -29.5590  -12.7170   18.3310 C   0  0  0  0  0  2  0  0  0  0  0  0
  -28.1470  -12.3240   18.7790 C   0  0  0  0  0  2  0  0  0  0  0  0
  -27.5760  -13.3710   19.7580 C   0  0  0  0  0  3  0  0  0  0  0  0
  -28.5630  -13.8310   20.8650 C   0  0  0  0  0  2  0  0  0  0  0  0
  -29.7040  -14.5080   20.1850 N   0  0  0  0  0  0  0  0  0  0  0  0
  -31.4990  -15.7020   20.1790 O   0  0  0  0  0  0  0  0  0  0  0  0
  -29.9140  -20.4900   19.5710 C   0  0  0  0  0  2  0  0  0  0  0  0
  -27.9800  -20.0390   20.3860 C   0  0  0  0  0  2  0  0  0  0  0  0
  -30.4550  -18.8200   19.9620 C   0  0  0  0  0  2  0  0  0  0  0  0
  -28.4760  -18.3370   20.7330 C   0  0  0  0  0  2  0  0  0  0  0  0
  -28.7980  -21.5780   20.3200 C   0  0  0  0  0  2  0  0  0  0  0  0
  -29.6870  -17.4100   20.1940 N   0  0  0  0  0  0  0  0  0  0  0  0
  -25.2020  -13.8870   20.4670 C   0  0  0  0  0  0  0  0  0  0  0  0
  -24.1390  -13.1060   20.8180 C   0  0  0  0  0  0  0  0  0  0  0  0
  -24.6170  -11.7590   20.8210 C   0  0  0  0  0  0  0  0  0  0  0  0
  -26.2570  -13.0210   20.2650 N   0  0  0  0  0  0  0  0  0  0  0  0
  -25.9200  -11.7330   20.5440 N   0  0  0  0  0  0  0  0  0  0  0  0
  -23.8890  -10.4960   21.0120 C   0  0  0  0  0  0  0  0  0  0  0  0
  -24.3040   -9.5380   21.9630 C   0  0  0  0  0  3  0  0  0  0  0  0
  -23.5710   -8.3450   22.1450 C   0  0  0  0  0  3  0  0  0  0  0  0
  -22.4080   -8.1020   21.3770 C   0  0  0  0  0  0  0  0  0  0  0  0
  -22.0110   -9.0490   20.4160 C   0  0  0  0  0  3  0  0  0  0  0  0
  -22.7460  -10.2330   20.2330 C   0  0  0  0  0  3  0  0  0  0  0  0
  -21.6480   -6.9600   21.4670 O   0  0  0  0  0  0  0  0  0  0  0  0
  -21.5890   -6.2240   22.6240 C   0  0  0  0  0  0  0  0  0  0  0  0
  -21.1770   -6.7920   23.8490 C   0  0  0  0  0  3  0  0  0  0  0  0
  -21.0630   -5.9840   24.9970 C   0  0  0  0  0  3  0  0  0  0  0  0
  -21.3520   -4.6090   24.9220 C   0  0  0  0  0  0  0  0  0  0  0  0
  -21.7570   -4.0390   23.7020 C   0  0  0  0  0  3  0  0  0  0  0  0
  -21.8720   -4.8450   22.5560 C   0  0  0  0  0  0  0  0  0  0  0  0
  -22.2420   -4.2860   21.3780 F   0  0  0  0  0  0  0  0  0  0  0  0
  -21.2370   -3.8300   26.0230 F   0  0  0  0  0  0  0  0  0  0  0  0
  -22.7320  -13.5800   21.0340 C   0  0  0  0  0  0  0  0  0  0  0  0
  -21.9850  -12.9050   21.8980 N   0  0  0  0  0  0  0  0  0  0  0  0
  -22.3060  -14.5890   20.4710 O   0  0  0  0  0  0  0  0  0  0  0  0
  -22.3430  -12.0910   22.3760 H   0  0  0  0  0  0  0  0  0  0  0  0
  -21.0390  -13.2070   22.0880 H   0  0  0  0  0  0  0  0  0  0  0  0
  -25.3580  -15.2560   20.2690 N   0  0  0  0  0  0  0  0  0  0  0  0
  -24.5830  -15.9060   20.3480 H   0  0  0  0  0  0  0  0  0  0  0  0
  -26.2130  -15.6940   19.9520 H   0  0  0  0  0  0  0  0  0  0  0  0
  -28.0840  -23.4630   19.9180 C   0  0  0  0  0  1  0  0  0  0  0  0
  -28.1950  -25.2910   20.1280 O   0  0  0  0  0  0  0  0  0  0  0  0
  -24.7220  -31.7780   23.0420 C   0  0  0  0  0  0  0  0  0  0  0  0
  -27.2410  -26.5740   20.0620 C   0  0  0  0  0  0  0  0  0  0  0  0
  -23.5360  -30.3700   21.4150 C   0  0  0  0  0  3  0  0  0  0  0  0
  -24.9830  -28.6970   20.0050 C   0  0  0  0  0  0  0  0  0  0  0  0
  -26.1200  -30.4770   21.2980 C   0  0  0  0  0  2  0  0  0  0  0  0
  -26.1830  -29.0280   20.6440 C   0  0  0  0  0  0  0  0  0  0  0  0
  -27.2880  -27.9990   20.6360 C   0  0  0  0  0  3  0  0  0  0  0  0
  -26.0050  -26.4930   19.3610 C   0  0  0  0  0  3  0  0  0  0  0  0
  -24.9420  -27.4570   19.3390 C   0  0  0  0  0  3  0  0  0  0  0  0
  -23.7790  -29.6610   20.0490 C   0  0  0  0  0  2  0  0  0  0  0  0
  -24.8180  -30.9120   21.9700 N   0  0  0  0  0  0  0  0  0  0  0  0
  -23.6270  -32.0800   23.5500 O   0  0  0  0  0  0  0  0  0  0  0  0
  -22.8130  -29.4050   22.3960 C   0  0  0  0  0  0  0  0  0  0  0  0
  -21.4760  -29.2740   22.2960 N   0  0  0  0  0  0  0  0  0  0  0  0
  -23.4720  -28.7680   23.2220 O   0  0  0  0  0  0  0  0  0  0  0  0
  -20.9920  -29.8360   21.6100 H   0  0  0  0  0  0  0  0  0  0  0  0
  -18.0800  -28.1080   22.8820 C   0  0  0  0  0  0  0  0  0  0  0  0
  -20.6510  -28.3420   23.0770 C   0  0  0  0  0  3  0  0  0  0  0  0
  -20.7150  -26.9140   22.4860 C   0  0  0  0  0  2  0  0  0  0  0  0
  -19.5850  -26.6200   21.4950 C   0  0  0  0  0  2  0  0  0  0  0  0
  -18.2230  -26.7700   22.1770 C   0  0  0  0  0  2  0  0  0  0  0  0
  -19.2190  -28.8530   23.2900 C   0  0  0  0  0  0  0  0  0  0  0  0
  -19.0260  -30.1030   23.9180 C   0  0  0  0  0  3  0  0  0  0  0  0
  -17.7310  -30.6090   24.1360 C   0  0  0  0  0  3  0  0  0  0  0  0
  -16.6080  -29.8620   23.7390 C   0  0  0  0  0  3  0  0  0  0  0  0
  -16.7840  -28.6120   23.1180 C   0  0  0  0  0  3  0  0  0  0  0  0
  -25.9790  -32.4410   23.6830 C   0  0  0  0  0  3  0  0  0  0  0  0
  -25.6320  -33.8270   24.0630 N   0  0  0  0  0  0  0  0  0  0  0  0
  -25.9330  -34.9240   23.3550 C   0  0  0  0  0  0  0  0  0  0  0  0
  -26.5860  -34.8790   22.3100 O   0  0  0  0  0  0  0  0  0  0  0  0
  -25.0460  -33.9330   24.8790 H   0  0  0  0  0  0  0  0  0  0  0  0
  -24.1640  -36.7090   23.1370 C   0  0  0  0  0  1  0  0  0  0  0  0
  -25.4380  -36.2880   23.8870 C   0  0  0  0  0  3  0  0  0  0  0  0
  -27.5830  -37.1860   24.6840 C   0  0  0  0  0  1  0  0  0  0  0  0
  -26.4470  -37.3670   23.7840 N   0  0  0  0  0  0  0  0  0  0  0  0
  -26.0280  -38.2720   23.9810 H   0  0  0  0  0  0  0  0  0  0  0  0
  -26.5090  -31.6630   24.9510 C   0  0  1  0  0  0  0  0  0  0  0  0
  -25.4240  -31.4030   26.0240 C   0  0  0  0  0  1  0  0  0  0  0  0
  -27.1050  -30.2940   24.5550 C   0  0  0  0  0  1  0  0  0  0  0  0
  -27.6560  -32.4610   25.6140 C   0  0  0  0  0  1  0  0  0  0  0  0
  2  7  1  0
  3  4  1  0
  3  2  1  0
  5  4  1  0
  5 18  1  0
  5  6  1  0
  7  1  1  0
  7  6  1  0
  8  1  2  0
  9 11  1  0
  9 13  1  0
 10 12  1  0
 11 14  1  0
 13 10  1  0
 14  1  1  0
 14 12  1  0
 15 16  2  0
 16 17  1  0
 16 35  1  0
 17 20  1  0
 18 15  1  0
 18 19  1  0
 19 17  2  0
 20 21  1  0
 21 22  2  0
 23 26  1  0
 23 22  1  0
 24 23  2  0
 25 24  1  0
 25 20  2  0
 26 27  1  0
 27 28  1  0
 28 29  2  0
 30 29  1  0
 30 34  1  0
 31 30  2  0
 32 27  2  0
 32 31  1  0
 33 32  1  0
 35 36  1  0
 36 39  1  0
 36 38  1  0
 37 35  2  0
 40 41  1  0
 40 15  1  0
 42 40  1  0
 43 44  1  0
 45 56  2  0
 46 44  1  0
 46 51  1  0
 47 55  1  0
 47 57  1  0
 48 54  1  0
 48 50  1  0
 49 55  1  0
 50 49  1  0
 51 50  2  0
 52 46  2  0
 53 52  1  0
 53 48  2  0
 54 47  1  0
 55 45  1  0
 57 59  2  0
 58 57  1  0
 60 58  1  0
 61 70  2  0
 61 66  1  0
 62 58  1  0
 62 66  1  0
 63 62  1  0
 64 65  1  0
 64 63  1  0
 65 61  1  0
 66 67  2  0
 67 68  1  0
 69 68  2  0
 70 69  1  0
 71 45  1  0
 71 72  1  0
 71 81  1  0
 72 75  1  0
 73 77  1  0
 73 72  1  0
 74 73  2  0
 77 76  1  0
 79 77  1  0
 79 80  1  0
 79 78  1  0
 81 84  1  1
 81 82  1  0
 83 81  1  0
M  ISO  4   1 100  14 100  43 101  44 101
M  END
>  <TORSDO>  (33) 
F 16

>  <SCORE>  (33) 
-15.898

>  <name>  (33) 
32

>  <ligand_id>  (33) 
32

>  <original_smiles>  (33) 
[H]c1c([H])c([H])c2c(c1[H])C([H])([H])C([H])([H])C([H])([H])C2([H])N([H])C(=O)C1([H])N(C(=O)C([H])(N([H])C(=O)C([H])(N([H])C([H])([H])[H])C([H])([H])[H])C(C([H])([H])[H])(C([H])([H])[H])C([H])([H])[H])C([H])([H])c2c([H])c(OC([H])([H])C3([H])C([H])([H])C([H])([H])N(C(=O)N4C([H])([H])C([H])([H])C([H])([H])C([H])(n5nc(-c6c([H])c([H])c(Oc7c([H])c([H])c(F)c([H])c7F)c([H])c6[H])c(C(=O)N([H])[H])c5N([H])[H])C4([H])[H])C([H])([H])C3([H])[H])c([H])c([H])c2C1([H])[H]

>  <smiles>  (33) 
[H]c1c([H])c([H])c2c(c1[H])C([H])([H])C([H])([H])C([H])([H])C2([H])N([H])C(=O)C1([H])N(C(=O)C([H])(N([H])C(=O)C([H])(N([H])C([H])([H])[H])C([H])([H])[H])C(C([H])([H])[H])(C([H])([H])[H])C([H])([H])[H])C([H])([H])c2c([H])c(OC([H])([H])C3([H])C([H])([H])C([H])([H])N(C(=O)N4C([H])([H])C([H])([H])C([H])([H])C([H])(n5nc(-c6c([H])c([H])c(Oc7c([H])c([H])c(F)c([H])c7F)c([H])c6[H])c(C(=O)N([H])[H])c5N([H])[H])C4([H])[H])C([H])([H])C3([H])[H])c([H])c([H])c2C1([H])[H]

$$$$
33:0:0
     RDKit          3D

 87 94  0  0  1  0  0  0  0  0999 V2000
  -28.9060  -21.0780   19.7250 C   0  0  0  0  0  2  0  0  0  0  0  0
  -29.9170  -18.3460   19.5140 C   0  0  0  0  0  0  0  0  0  0  0  0
  -29.6720  -19.6620   20.1440 N   0  0  0  0  0  0  0  0  0  0  0  0
  -29.5920  -18.2630   18.3290 O   0  0  0  0  0  0  0  0  0  0  0  0
  -29.9880  -19.6750   21.1060 H   0  0  0  0  0  0  0  0  0  0  0  0
  -30.5530  -16.8800   20.2030 C   0  0  0  0  0  3  0  0  0  0  0  0
  -30.9280  -15.3160   19.4810 C   0  0  0  0  0  0  0  0  0  0  0  0
  -30.6270  -12.9320   18.4840 C   0  0  0  0  0  2  0  0  0  0  0  0
  -29.5650  -12.8790   17.3570 C   0  0  0  0  0  2  0  0  0  0  0  0
  -28.1640  -12.6520   17.9450 C   0  0  0  0  0  2  0  0  0  0  0  0
  -27.9060  -13.5540   19.1770 C   0  0  0  0  0  3  0  0  0  0  0  0
  -29.0870  -13.5640   20.1770 C   0  0  0  0  0  2  0  0  0  0  0  0
  -30.2770  -14.0440   19.4510 N   0  0  0  0  0  0  0  0  0  0  0  0
  -32.0340  -15.2440   18.9240 O   0  0  0  0  0  0  0  0  0  0  0  0
  -25.6560  -14.1570   20.2190 C   0  0  0  0  0  0  0  0  0  0  0  0
  -24.6170  -13.4040   20.6840 C   0  0  0  0  0  0  0  0  0  0  0  0
  -25.0160  -12.0410   20.5260 C   0  0  0  0  0  0  0  0  0  0  0  0
  -26.6300  -13.2610   19.8190 N   0  0  0  0  0  0  0  0  0  0  0  0
  -26.2600  -11.9750   20.0630 N   0  0  0  0  0  0  0  0  0  0  0  0
  -24.2540  -10.8010   20.7310 C   0  0  0  0  0  0  0  0  0  0  0  0
  -24.7000   -9.7980   21.6190 C   0  0  0  0  0  3  0  0  0  0  0  0
  -23.9370   -8.6260   21.8170 C   0  0  0  0  0  3  0  0  0  0  0  0
  -22.7130   -8.4500   21.1270 C   0  0  0  0  0  0  0  0  0  0  0  0
  -22.2860   -9.4420   20.2260 C   0  0  0  0  0  3  0  0  0  0  0  0
  -23.0490  -10.6040   20.0270 C   0  0  0  0  0  3  0  0  0  0  0  0
  -21.9200   -7.3330   21.2360 O   0  0  0  0  0  0  0  0  0  0  0  0
  -21.8420   -6.6180   22.4030 C   0  0  0  0  0  0  0  0  0  0  0  0
  -21.4410   -7.2140   23.6180 C   0  0  0  0  0  3  0  0  0  0  0  0
  -21.3070   -6.4260   24.7790 C   0  0  0  0  0  3  0  0  0  0  0  0
  -21.5650   -5.0440   24.7260 C   0  0  0  0  0  0  0  0  0  0  0  0
  -21.9600   -4.4470   23.5150 C   0  0  0  0  0  3  0  0  0  0  0  0
  -22.0940   -5.2310   22.3570 C   0  0  0  0  0  0  0  0  0  0  0  0
  -22.4540   -4.6470   21.1890 F   0  0  0  0  0  0  0  0  0  0  0  0
  -21.4290   -4.2850   25.8390 F   0  0  0  0  0  0  0  0  0  0  0  0
  -23.2870  -13.9220   21.1460 C   0  0  0  0  0  0  0  0  0  0  0  0
  -22.6500  -13.2270   22.0810 N   0  0  0  0  0  0  0  0  0  0  0  0
  -22.8280  -14.9800   20.7150 O   0  0  0  0  0  0  0  0  0  0  0  0
  -23.0370  -12.3710   22.4490 H   0  0  0  0  0  0  0  0  0  0  0  0
  -21.7630  -13.5560   22.4350 H   0  0  0  0  0  0  0  0  0  0  0  0
  -25.8360  -15.5270   20.0690 N   0  0  0  0  0  0  0  0  0  0  0  0
  -25.1060  -16.1930   20.2920 H   0  0  0  0  0  0  0  0  0  0  0  0
  -26.6450  -15.9560   19.6400 H   0  0  0  0  0  0  0  0  0  0  0  0
  -28.7400  -16.7650   22.0840 C   0  0  0  0  0  1  0  0  0  0  0  0
  -30.2280  -16.7770   21.7130 C   0  0  0  0  0  2  0  0  0  0  0  0
  -28.9140  -22.7340   20.4100 C   0  0  0  0  0  3  0  0  0  0  0  0
  -28.0220  -24.2320   19.9870 C   0  0  0  0  0  3  0  0  0  0  0  0
  -28.1450  -25.8180   20.3820 O   0  0  0  0  0  0  0  0  0  0  0  0
  -24.4550  -31.7490   23.1550 C   0  0  0  0  0  0  0  0  0  0  0  0
  -27.1200  -26.8840   20.2520 C   0  0  0  0  0  0  0  0  0  0  0  0
  -23.3060  -30.3220   21.5090 C   0  0  0  0  0  3  0  0  0  0  0  0
  -24.7980  -28.7180   20.1330 C   0  0  0  0  0  0  0  0  0  0  0  0
  -25.8690  -30.5630   21.4100 C   0  0  0  0  0  2  0  0  0  0  0  0
  -25.9660  -29.1490   20.7730 C   0  0  0  0  0  0  0  0  0  0  0  0
  -27.1210  -28.2510   20.8110 C   0  0  0  0  0  3  0  0  0  0  0  0
  -25.9240  -26.5970   19.5560 C   0  0  0  0  0  3  0  0  0  0  0  0
  -24.8000  -27.4620   19.5040 C   0  0  0  0  0  3  0  0  0  0  0  0
  -23.5680  -29.6240   20.1460 C   0  0  0  0  0  2  0  0  0  0  0  0
  -24.5630  -30.9050   22.0780 N   0  0  0  0  0  0  0  0  0  0  0  0
  -23.3530  -32.0350   23.6510 O   0  0  0  0  0  0  0  0  0  0  0  0
  -22.6020  -29.3320   22.4720 C   0  0  0  0  0  0  0  0  0  0  0  0
  -21.2770  -29.1510   22.3180 N   0  0  0  0  0  0  0  0  0  0  0  0
  -23.2540  -28.7260   23.3270 O   0  0  0  0  0  0  0  0  0  0  0  0
  -20.8040  -29.6890   21.6060 H   0  0  0  0  0  0  0  0  0  0  0  0
  -17.9000  -27.9000   22.7490 C   0  0  0  0  0  0  0  0  0  0  0  0
  -20.4460  -28.2140   23.0820 C   0  0  0  0  0  3  0  0  0  0  0  0
  -20.5890  -26.7740   22.5390 C   0  0  0  0  0  2  0  0  0  0  0  0
  -19.5230  -26.4130   21.5000 C   0  0  0  0  0  2  0  0  0  0  0  0
  -18.1210  -26.5440   22.1010 C   0  0  0  0  0  2  0  0  0  0  0  0
  -18.9920  -28.6910   23.1960 C   0  0  0  0  0  0  0  0  0  0  0  0
  -18.7320  -29.9570   23.7650 C   0  0  0  0  0  3  0  0  0  0  0  0
  -17.4130  -30.4340   23.8900 C   0  0  0  0  0  3  0  0  0  0  0  0
  -16.3350  -29.6410   23.4570 C   0  0  0  0  0  3  0  0  0  0  0  0
  -16.5790  -28.3760   22.8940 C   0  0  0  0  0  3  0  0  0  0  0  0
  -25.7080  -32.4070   23.8070 C   0  0  0  0  0  3  0  0  0  0  0  0
  -25.3750  -33.8090   24.1160 N   0  0  0  0  0  0  0  0  0  0  0  0
  -25.7070  -34.8630   23.3580 C   0  0  0  0  0  0  0  0  0  0  0  0
  -26.3890  -34.7580   22.3350 O   0  0  0  0  0  0  0  0  0  0  0  0
  -24.7680  -33.9630   24.9070 H   0  0  0  0  0  0  0  0  0  0  0  0
  -23.9660  -36.6440   22.9800 C   0  0  0  0  0  1  0  0  0  0  0  0
  -25.2050  -36.2530   23.8010 C   0  0  0  0  0  3  0  0  0  0  0  0
  -27.3240  -37.1680   24.6400 C   0  0  0  0  0  1  0  0  0  0  0  0
  -26.2290  -37.3140   23.6860 N   0  0  0  0  0  0  0  0  0  0  0  0
  -25.8140  -38.2320   23.8180 H   0  0  0  0  0  0  0  0  0  0  0  0
  -26.1900  -31.6640   25.1130 C   0  0  1  0  0  0  0  0  0  0  0  0
  -25.0650  -31.4310   26.1490 C   0  0  0  0  0  1  0  0  0  0  0  0
  -26.8020  -30.2870   24.7710 C   0  0  0  0  0  1  0  0  0  0  0  0
  -27.3080  -32.4830   25.7990 C   0  0  0  0  0  1  0  0  0  0  0  0
  1  3  1  0
  1 45  1  0
  2  3  1  0
  2  6  1  0
  3  5  1  0
  4  2  2  0
  6 44  1  0
  7  6  1  0
  8 13  1  0
  9 10  1  0
  9  8  1  0
 11 10  1  0
 11 18  1  0
 11 12  1  0
 13  7  1  0
 13 12  1  0
 14  7  2  0
 15 16  2  0
 16 35  1  0
 17 16  1  0
 17 20  1  0
 18 19  1  0
 18 15  1  0
 19 17  2  0
 20 21  1  0
 21 22  2  0
 23 26  1  0
 23 22  1  0
 24 23  2  0
 25 24  1  0
 25 20  2  0
 26 27  1  0
 27 28  1  0
 28 29  2  0
 30 29  1  0
 30 34  1  0
 31 30  2  0
 32 27  2  0
 32 31  1  0
 33 32  1  0
 35 36  1  0
 36 39  1  0
 36 38  1  0
 37 35  2  0
 40 15  1  0
 40 41  1  0
 42 40  1  0
 44 43  1  0
 46 47  1  0
 46 45  2  0
 48 59  2  0
 49 47  1  0
 49 54  1  0
 50 58  1  0
 50 60  1  0
 51 57  1  0
 51 53  1  0
 52 58  1  0
 53 54  2  0
 53 52  1  0
 55 49  2  0
 56 55  1  0
 56 51  2  0
 57 50  1  0
 58 48  1  0
 60 62  2  0
 61 60  1  0
 63 61  1  0
 64 73  2  0
 64 69  1  0
 65 61  1  0
 65 69  1  0
 66 65  1  0
 67 68  1  0
 67 66  1  0
 68 64  1  0
 69 70  2  0
 70 71  1  0
 72 71  2  0
 73 72  1  0
 74 48  1  0
 74 75  1  0
 74 84  1  0
 75 78  1  0
 76 80  1  0
 76 75  1  0
 77 76  2  0
 80 79  1  0
 82 80  1  0
 82 83  1  0
 82 81  1  0
 84 87  1  1
 84 85  1  0
 86 84  1  0
M  ISO  4   6 100   7 100  46 101  47 101
M  END
>  <TORSDO>  (34) 
F 21

>  <SCORE>  (34) 
-12.022

>  <name>  (34) 
33

>  <ligand_id>  (34) 
33

>  <original_smiles>  (34) 
[H]c1c([H])c([H])c2c(c1[H])C([H])([H])C([H])([H])C([H])([H])C2([H])N([H])C(=O)C1([H])N(C(=O)C([H])(N([H])C(=O)C([H])(N([H])C([H])([H])[H])C([H])([H])[H])C(C([H])([H])[H])(C([H])([H])[H])C([H])([H])[H])C([H])([H])c2c([H])c(OC([H])([H])C([H])([H])C([H])([H])N([H])C(=O)C([H])(C(=O)N3C([H])([H])C([H])([H])C([H])([H])C([H])(n4nc(-c5c([H])c([H])c(Oc6c([H])c([H])c(F)c([H])c6F)c([H])c5[H])c(C(=O)N([H])[H])c4N([H])[H])C3([H])[H])C([H])([H])C([H])([H])[H])c([H])c([H])c2C1([H])[H]

>  <smiles>  (34) 
[H]c1c([H])c([H])c2c(c1[H])C([H])([H])C([H])([H])C([H])([H])C2([H])N([H])C(=O)C1([H])N(C(=O)C([H])(N([H])C(=O)C([H])(N([H])C([H])([H])[H])C([H])([H])[H])C(C([H])([H])[H])(C([H])([H])[H])C([H])([H])[H])C([H])([H])c2c([H])c(OC([H])([H])C([H])([H])C([H])([H])N([H])C(=O)C([H])(C(=O)N3C([H])([H])C([H])([H])C([H])([H])C([H])(n4nc(-c5c([H])c([H])c(Oc6c([H])c([H])c(F)c([H])c6F)c([H])c5[H])c(C(=O)N([H])[H])c4N([H])[H])C3([H])[H])C([H])([H])C([H])([H])[H])c([H])c([H])c2C1([H])[H]

$$$$
34:0:0
     RDKit          3D

 95102  0  0  1  0  0  0  0  0999 V2000
  -26.8190  -20.4040   20.6920 C   0  0  0  0  0  1  0  0  0  0  0  0
  -28.3050  -20.4680   21.1160 C   0  0  0  0  0  3  0  0  0  0  0  0
  -29.0320  -21.6630   20.5670 N   0  0  0  0  0  4  0  0  0  0  0  0
  -30.0160  -21.5460   20.7520 H   0  0  0  0  0  0  0  0  0  0  0  0
  -28.9230  -21.6510   19.5650 H   0  0  0  0  0  0  0  0  0  0  0  0
  -28.6060  -22.9990   21.1230 C   0  0  0  0  0  2  0  0  0  0  0  0
  -28.8510  -24.2650   20.2270 C   0  0  0  0  0  2  0  0  0  0  0  0
  -28.3800  -25.5930   20.9090 C   0  0  0  0  0  2  0  0  0  0  0  0
  -28.4890  -26.8120   20.1250 O   0  0  0  0  0  0  0  0  0  0  0  0
  -24.6600  -31.9590   23.2870 C   0  0  0  0  0  0  0  0  0  0  0  0
  -27.3480  -27.5940   20.1180 C   0  0  0  0  0  0  0  0  0  0  0  0
  -23.4680  -30.5720   21.6230 C   0  0  0  0  0  3  0  0  0  0  0  0
  -24.9410  -29.0900   20.1530 C   0  0  0  0  0  0  0  0  0  0  0  0
  -25.9900  -30.9700   21.4190 C   0  0  0  0  0  2  0  0  0  0  0  0
  -26.0960  -29.6130   20.7470 C   0  0  0  0  0  0  0  0  0  0  0  0
  -27.3070  -28.8760   20.7200 C   0  0  0  0  0  3  0  0  0  0  0  0
  -26.1790  -27.0960   19.5060 C   0  0  0  0  0  3  0  0  0  0  0  0
  -24.9800  -27.8340   19.5240 C   0  0  0  0  0  3  0  0  0  0  0  0
  -23.6820  -29.9280   20.2280 C   0  0  0  0  0  2  0  0  0  0  0  0
  -24.7250  -31.1820   22.1680 N   0  0  0  0  0  0  0  0  0  0  0  0
  -23.5790  -32.2010   23.8400 O   0  0  0  0  0  0  0  0  0  0  0  0
  -22.8370  -29.5210   22.5650 C   0  0  0  0  0  0  0  0  0  0  0  0
  -21.5190  -29.3010   22.4220 N   0  0  0  0  0  0  0  0  0  0  0  0
  -23.5300  -28.9070   23.3810 O   0  0  0  0  0  0  0  0  0  0  0  0
  -21.0190  -29.8500   21.7350 H   0  0  0  0  0  0  0  0  0  0  0  0
  -18.1900  -27.9650   22.8390 C   0  0  0  0  0  0  0  0  0  0  0  0
  -20.7270  -28.3290   23.1740 C   0  0  0  0  0  3  0  0  0  0  0  0
  -20.9030  -26.9020   22.6010 C   0  0  0  0  0  2  0  0  0  0  0  0
  -19.8420  -26.5350   21.5610 C   0  0  0  0  0  2  0  0  0  0  0  0
  -18.4380  -26.6250   22.1670 C   0  0  0  0  0  2  0  0  0  0  0  0
  -19.2640  -28.7720   23.2990 C   0  0  0  0  0  0  0  0  0  0  0  0
  -18.9790  -30.0260   23.8830 C   0  0  0  0  0  3  0  0  0  0  0  0
  -17.6510  -30.4730   24.0170 C   0  0  0  0  0  3  0  0  0  0  0  0
  -16.5900  -29.6620   23.5770 C   0  0  0  0  0  3  0  0  0  0  0  0
  -16.8590  -28.4110   22.9930 C   0  0  0  0  0  3  0  0  0  0  0  0
  -25.9380  -32.5990   23.9130 C   0  0  0  0  0  3  0  0  0  0  0  0
  -26.4560  -31.8310   25.1900 C   0  0  1  0  0  0  0  0  0  0  0  0
  -25.3580  -31.5750   26.2500 C   0  0  0  0  0  1  0  0  0  0  0  0
  -27.0610  -30.4630   24.7990 C   0  0  0  0  0  1  0  0  0  0  0  0
  -27.5910  -32.6400   25.8630 C   0  0  0  0  0  1  0  0  0  0  0  0
  -25.6220  -33.9960   24.2400 N   0  0  0  0  0  0  0  0  0  0  0  0
  -25.9470  -35.0470   23.4750 C   0  0  0  0  0  0  0  0  0  0  0  0
  -26.6140  -34.9420   22.4410 O   0  0  0  0  0  0  0  0  0  0  0  0
  -25.0280  -34.1510   25.0410 H   0  0  0  0  0  0  0  0  0  0  0  0
  -24.1930  -36.8160   23.1300 C   0  0  0  0  0  1  0  0  0  0  0  0
  -25.4500  -36.4350   23.9270 C   0  0  0  0  0  3  0  0  0  0  0  0
  -27.5880  -37.3470   24.7170 C   0  0  0  0  0  1  0  0  0  0  0  0
  -26.4690  -37.4970   23.7890 N   0  0  0  0  0  0  0  0  0  0  0  0
  -26.0560  -38.4140   23.9370 H   0  0  0  0  0  0  0  0  0  0  0  0
  -29.0420  -19.0590   21.1010 C   0  0  0  0  0  2  0  0  0  0  0  0
  -29.7300  -18.4240   19.9370 N   0  0  0  0  0  0  0  0  0  0  0  0
  -30.3210  -20.0740   18.1110 C   0  0  0  0  0  1  0  0  0  0  0  0
  -29.4290  -18.9040   18.5660 C   0  0  0  0  0  3  0  0  0  0  0  0
  -27.9100  -19.0190   18.2460 C   0  0  0  0  0  2  0  0  0  0  0  0
  -26.6450  -21.0020   17.3050 C   0  0  0  0  0  2  0  0  0  0  0  0
  -27.5550  -20.0230   17.1650 C   0  0  0  0  0  3  0  0  0  0  0  0
  -29.5760  -16.9280   19.9020 C   0  0  0  0  0  2  0  0  0  0  0  0
  -31.1000  -16.5610   22.0070 C   0  0  0  0  0  1  0  0  0  0  0  0
  -30.1230  -15.9260   20.9910 C   0  0  0  0  0  3  0  0  0  0  0  0
  -30.7560  -14.6370   20.3420 C   0  0  0  0  0  0  0  0  0  0  0  0
  -30.4380  -12.4730   19.1770 C   0  0  0  0  0  2  0  0  0  0  0  0
  -29.4910  -12.6810   17.9750 C   0  0  0  0  0  2  0  0  0  0  0  0
  -28.0200  -12.5350   18.4100 C   0  0  0  0  0  2  0  0  0  0  0  0
  -27.6900  -13.3650   19.6800 C   0  0  0  0  0  3  0  0  0  0  0  0
  -28.7540  -13.1500   20.7800 C   0  0  0  0  0  2  0  0  0  0  0  0
  -30.0720  -13.4610   20.2130 N   0  0  0  0  0  0  0  0  0  0  0  0
  -31.8830  -14.7600   19.8510 O   0  0  0  0  0  0  0  0  0  0  0  0
  -25.2950  -13.9840   20.3980 C   0  0  0  0  0  0  0  0  0  0  0  0
  -24.2250  -13.2170   20.7740 C   0  0  0  0  0  0  0  0  0  0  0  0
  -24.6830  -11.8650   20.7520 C   0  0  0  0  0  0  0  0  0  0  0  0
  -26.3370  -13.0970   20.1660 N   0  0  0  0  0  0  0  0  0  0  0  0
  -25.9730  -11.8180   20.4400 N   0  0  0  0  0  0  0  0  0  0  0  0
  -23.9530  -10.6080   20.9520 C   0  0  0  0  0  0  0  0  0  0  0  0
  -24.3630   -9.6590   21.9130 C   0  0  0  0  0  3  0  0  0  0  0  0
  -23.6370   -8.4620   22.0940 C   0  0  0  0  0  3  0  0  0  0  0  0
  -22.4840   -8.2080   21.3150 C   0  0  0  0  0  0  0  0  0  0  0  0
  -22.0940   -9.1440   20.3410 C   0  0  0  0  0  3  0  0  0  0  0  0
  -22.8210  -10.3320   20.1580 C   0  0  0  0  0  3  0  0  0  0  0  0
  -21.7260   -7.0670   21.4100 O   0  0  0  0  0  0  0  0  0  0  0  0
  -21.6230   -6.3660   22.5840 C   0  0  0  0  0  0  0  0  0  0  0  0
  -21.1480   -6.9650   23.7710 C   0  0  0  0  0  3  0  0  0  0  0  0
  -20.9950   -6.1900   24.9370 C   0  0  0  0  0  3  0  0  0  0  0  0
  -21.3050   -4.8180   24.9170 C   0  0  0  0  0  0  0  0  0  0  0  0
  -21.7710   -4.2180   23.7340 C   0  0  0  0  0  3  0  0  0  0  0  0
  -21.9280   -4.9900   22.5700 C   0  0  0  0  0  0  0  0  0  0  0  0
  -22.3580   -4.4040   21.4270 F   0  0  0  0  0  0  0  0  0  0  0  0
  -21.1510   -4.0700   26.0350 F   0  0  0  0  0  0  0  0  0  0  0  0
  -22.8290  -13.7030   21.0460 C   0  0  0  0  0  0  0  0  0  0  0  0
  -22.1040  -13.0220   21.9260 N   0  0  0  0  0  0  0  0  0  0  0  0
  -22.3930  -14.7200   20.5120 O   0  0  0  0  0  0  0  0  0  0  0  0
  -22.4680  -12.1960   22.3770 H   0  0  0  0  0  0  0  0  0  0  0  0
  -21.1680  -13.3310   22.1500 H   0  0  0  0  0  0  0  0  0  0  0  0
  -25.4610  -15.3510   20.2140 N   0  0  0  0  0  0  0  0  0  0  0  0
  -24.6910  -16.0010   20.3220 H   0  0  0  0  0  0  0  0  0  0  0  0
  -26.2990  -15.7900   19.8600 H   0  0  0  0  0  0  0  0  0  0  0  0
  2  1  1  0
  3  4  1  0
  3  2  1  0
  3  6  1  0
  5  3  1  0
  7  8  1  0
  7  6  1  0
  9  8  1  0
 10 21  2  0
 11  9  1  0
 11 16  1  0
 12 20  1  0
 12 22  1  0
 13 19  1  0
 13 15  1  0
 14 20  1  0
 15 14  1  0
 16 15  2  0
 17 18  1  0
 17 11  2  0
 18 13  2  0
 19 12  1  0
 20 10  1  0
 22 24  2  0
 23 22  1  0
 25 23  1  0
 26 35  2  0
 26 31  1  0
 27 23  1  0
 27 31  1  0
 28 27  1  0
 29 30  1  0
 29 28  1  0
 30 26  1  0
 31 32  2  0
 32 33  1  0
 34 33  2  0
 35 34  1  0
 36 10  1  0
 36 41  1  0
 36 37  1  0
 37 40  1  1
 37 38  1  0
 39 37  1  0
 41 44  1  0
 42 46  1  0
 42 41  1  0
 43 42  2  0
 46 45  1  0
 48 46  1  0
 48 49  1  0
 48 47  1  0
 50  2  1  0
 51 50  1  0
 53 52  1  0
 53 51  1  0
 54 53  1  0
 56 55  2  0
 56 54  1  0
 57 51  1  0
 57 59  1  0
 59 58  1  0
 60 59  1  0
 61 66  1  0
 62 63  1  0
 62 61  1  0
 64 63  1  0
 64 71  1  0
 64 65  1  0
 66 60  1  0
 66 65  1  0
 67 60  2  0
 68 69  2  0
 69 88  1  0
 70 69  1  0
 70 73  1  0
 71 68  1  0
 71 72  1  0
 72 70  2  0
 73 74  1  0
 74 75  2  0
 76 79  1  0
 76 75  1  0
 77 76  2  0
 78 77  1  0
 78 73  2  0
 79 80  1  0
 80 81  1  0
 81 82  2  0
 83 82  1  0
 83 87  1  0
 84 83  2  0
 85 80  2  0
 85 84  1  0
 86 85  1  0
 88 89  1  0
 89 92  1  0
 89 91  1  0
 90 88  2  0
 93 94  1  0
 93 68  1  0
 95 93  1  0
M  ISO  4   8 101   9 101  59 100  60 100
M  END
>  <TORSDO>  (35) 
F 27

>  <SCORE>  (35) 
-9.904

>  <name>  (35) 
34

>  <ligand_id>  (35) 
34

>  <original_smiles>  (35) 
[H]C([H])=C([H])C([H])([H])C([H])(N(C([H])([H])C([H])(C(=O)N1C([H])([H])C([H])([H])C([H])([H])C([H])(n2nc(-c3c([H])c([H])c(Oc4c([H])c([H])c(F)c([H])c4F)c([H])c3[H])c(C(=O)N([H])[H])c2N([H])[H])C1([H])[H])C([H])([H])[H])C([H])([H])C([H])(C([H])([H])[H])[N+]([H])([H])C([H])([H])C([H])([H])C([H])([H])Oc1c([H])c([H])c2c(c1[H])C([H])([H])N(C(=O)C([H])(N([H])C(=O)C([H])(N([H])C([H])([H])[H])C([H])([H])[H])C(C([H])([H])[H])(C([H])([H])[H])C([H])([H])[H])C([H])(C(=O)N([H])C1([H])c3c([H])c([H])c([H])c([H])c3C([H])([H])C([H])([H])C1([H])[H])C2([H])[H])C([H])([H])[H]

>  <smiles>  (35) 
[H]C([H])=C([H])C([H])([H])C([H])(N(C([H])([H])C([H])(C(=O)N1C([H])([H])C([H])([H])C([H])([H])C([H])(n2nc(-c3c([H])c([H])c(Oc4c([H])c([H])c(F)c([H])c4F)c([H])c3[H])c(C(=O)N([H])[H])c2N([H])[H])C1([H])[H])C([H])([H])[H])C([H])([H])C([H])(C([H])([H])[H])[N+]([H])([H])C([H])([H])C([H])([H])C([H])([H])Oc1c([H])c([H])c2c(c1[H])C([H])([H])N(C(=O)C([H])(N([H])C(=O)C([H])(N([H])C([H])([H])[H])C([H])([H])[H])C(C([H])([H])[H])(C([H])([H])[H])C([H])([H])[H])C([H])(C(=O)N([H])C1([H])c3c([H])c([H])c([H])c([H])c3C([H])([H])C([H])([H])C1([H])[H])C2([H])[H])C([H])([H])[H]

$$$$
35:0:0
     RDKit          3D

 94102  0  0  1  0  0  0  0  0999 V2000
  -29.0510  -20.2860   22.9650 C   0  0  0  0  0  3  0  0  0  0  0  0
  -29.4760  -21.6270   23.0200 C   0  0  0  0  0  3  0  0  0  0  0  0
  -29.4910  -19.4470   21.9240 C   0  0  0  0  0  3  0  0  0  0  0  0
  -30.8060  -21.2880   21.0080 C   0  0  0  0  0  3  0  0  0  0  0  0
  -30.3510  -22.1440   22.0420 C   0  0  0  0  0  0  0  0  0  0  0  0
  -30.3720  -19.9460   20.9450 C   0  0  0  0  0  0  0  0  0  0  0  0
  -30.7990  -19.1100   19.9070 N   0  0  0  0  0  0  0  0  0  0  0  0
  -30.0540  -18.4880   19.6010 H   0  0  0  0  0  0  0  0  0  0  0  0
  -31.9910  -18.3440   20.2410 C   0  0  0  0  0  2  0  0  0  0  0  0
  -31.8970  -16.9330   19.6450 C   0  0  0  0  0  2  0  0  0  0  0  0
  -33.3880  -15.0000   19.3000 C   0  0  0  0  0  0  0  0  0  0  0  0
  -32.7270  -12.7240   18.6020 C   0  0  0  0  0  2  0  0  0  0  0  0
  -31.6670  -12.7870   17.4840 C   0  0  0  0  0  2  0  0  0  0  0  0
  -30.2480  -12.9110   18.0760 C   0  0  0  0  0  2  0  0  0  0  0  0
  -30.1490  -14.0190   19.1560 C   0  0  0  0  0  3  0  0  0  0  0  0
  -31.2980  -13.8710   20.1810 C   0  0  0  0  0  2  0  0  0  0  0  0
  -32.5690  -13.9210   19.4420 N   0  0  0  0  0  0  0  0  0  0  0  0
  -34.4270  -14.9710   18.6360 O   0  0  0  0  0  0  0  0  0  0  0  0
  -33.0650  -16.1170   19.9700 N   0  0  0  0  0  0  0  0  0  0  0  0
  -33.8780  -16.6910   20.1400 H   0  0  0  0  0  0  0  0  0  0  0  0
  -28.1380  -15.0930   20.3530 C   0  0  0  0  0  0  0  0  0  0  0  0
  -26.9400  -14.5740   20.7640 C   0  0  0  0  0  0  0  0  0  0  0  0
  -26.9720  -13.1900   20.4190 C   0  0  0  0  0  0  0  0  0  0  0  0
  -28.8410  -14.0310   19.8010 N   0  0  0  0  0  0  0  0  0  0  0  0
  -28.1460  -12.8700   19.8920 N   0  0  0  0  0  0  0  0  0  0  0  0
  -25.9320  -12.1590   20.5040 C   0  0  0  0  0  0  0  0  0  0  0  0
  -26.1240  -10.9790   21.2550 C   0  0  0  0  0  3  0  0  0  0  0  0
  -25.1030  -10.0090   21.3360 C   0  0  0  0  0  3  0  0  0  0  0  0
  -23.8740  -10.2140   20.6650 C   0  0  0  0  0  0  0  0  0  0  0  0
  -23.6990  -11.3790   19.8970 C   0  0  0  0  0  3  0  0  0  0  0  0
  -24.7180  -12.3420   19.8140 C   0  0  0  0  0  3  0  0  0  0  0  0
  -22.8350   -9.3160   20.6670 O   0  0  0  0  0  0  0  0  0  0  0  0
  -22.4750   -8.6350   21.8010 C   0  0  0  0  0  0  0  0  0  0  0  0
  -22.0460   -9.3030   22.9690 C   0  0  0  0  0  3  0  0  0  0  0  0
  -21.6180   -8.5610   24.0870 C   0  0  0  0  0  3  0  0  0  0  0  0
  -21.6120   -7.1540   24.0390 C   0  0  0  0  0  0  0  0  0  0  0  0
  -22.0340   -6.4860   22.8760 C   0  0  0  0  0  3  0  0  0  0  0  0
  -22.4630   -7.2260   21.7590 C   0  0  0  0  0  0  0  0  0  0  0  0
  -22.8480   -6.5780   20.6340 F   0  0  0  0  0  0  0  0  0  0  0  0
  -21.1950   -6.4410   25.1110 F   0  0  0  0  0  0  0  0  0  0  0  0
  -25.7880  -15.3390   21.3500 C   0  0  0  0  0  0  0  0  0  0  0  0
  -24.9780  -14.6870   22.1780 N   0  0  0  0  0  0  0  0  0  0  0  0
  -25.6250  -16.5340   21.1110 O   0  0  0  0  0  0  0  0  0  0  0  0
  -25.1240  -13.7120   22.3930 H   0  0  0  0  0  0  0  0  0  0  0  0
  -24.2010  -15.1730   22.6040 H   0  0  0  0  0  0  0  0  0  0  0  0
  -28.6760  -16.3770   20.3800 N   0  0  0  0  0  0  0  0  0  0  0  0
  -28.1070  -17.1700   20.6560 H   0  0  0  0  0  0  0  0  0  0  0  0
  -29.5000  -16.6440   19.8590 H   0  0  0  0  0  0  0  0  0  0  0  0
  -30.7300  -23.4940   22.1390 N   0  0  0  0  0  0  0  0  0  0  0  0
  -30.6630  -23.9720   23.0340 H   0  0  0  0  0  0  0  0  0  0  0  0
  -31.2340  -24.2270   20.9820 C   0  0  0  0  0  2  0  0  0  0  0  0
  -31.0310  -25.7440   21.1280 C   0  0  0  0  0  2  0  0  0  0  0  0
  -31.3970  -26.5140   19.8430 C   0  0  0  0  0  2  0  0  0  0  0  0
  -30.9310  -27.8630   19.8920 O   0  0  0  0  0  0  0  0  0  0  0  0
  -25.4890  -30.7550   23.3920 C   0  0  0  0  0  0  0  0  0  0  0  0
  -29.5750  -28.1010   19.8820 C   0  0  0  0  0  0  0  0  0  0  0  0
  -24.8800  -29.3820   21.4250 C   0  0  0  0  0  3  0  0  0  0  0  0
  -26.8130  -28.6990   19.9110 C   0  0  0  0  0  0  0  0  0  0  0  0
  -27.1380  -30.5760   21.5320 C   0  0  0  0  0  2  0  0  0  0  0  0
  -27.7010  -29.4560   20.6850 C   0  0  0  0  0  0  0  0  0  0  0  0
  -29.0820  -29.1680   20.6640 C   0  0  0  0  0  3  0  0  0  0  0  0
  -28.6640  -27.3420   19.1090 C   0  0  0  0  0  3  0  0  0  0  0  0
  -27.2890  -27.6380   19.1220 C   0  0  0  0  0  3  0  0  0  0  0  0
  -25.3530  -29.0830   19.9770 C   0  0  0  0  0  2  0  0  0  0  0  0
  -25.8470  -30.2450   22.1780 N   0  0  0  0  0  0  0  0  0  0  0  0
  -24.3610  -30.5540   23.8620 O   0  0  0  0  0  0  0  0  0  0  0  0
  -24.5770  -28.0410   22.1310 C   0  0  0  0  0  0  0  0  0  0  0  0
  -23.4340  -27.4280   21.7820 N   0  0  0  0  0  0  0  0  0  0  0  0
  -25.3690  -27.5620   22.9460 O   0  0  0  0  0  0  0  0  0  0  0  0
  -22.8340  -27.8920   21.1130 H   0  0  0  0  0  0  0  0  0  0  0  0
  -20.7230  -25.0490   21.5850 C   0  0  0  0  0  0  0  0  0  0  0  0
  -22.9590  -26.1400   22.2850 C   0  0  0  0  0  3  0  0  0  0  0  0
  -23.6450  -24.9670   21.5480 C   0  0  0  0  0  2  0  0  0  0  0  0
  -22.8480  -24.4650   20.3400 C   0  0  0  0  0  2  0  0  0  0  0  0
  -21.4580  -23.9940   20.7740 C   0  0  0  0  0  2  0  0  0  0  0  0
  -21.4280  -26.0660   22.2810 C   0  0  0  0  0  0  0  0  0  0  0  0
  -20.6960  -27.0430   22.9900 C   0  0  0  0  0  3  0  0  0  0  0  0
  -19.2900  -27.0130   23.0140 C   0  0  0  0  0  3  0  0  0  0  0  0
  -18.5980  -25.9950   22.3360 C   0  0  0  0  0  3  0  0  0  0  0  0
  -19.3140  -25.0140   21.6280 C   0  0  0  0  0  3  0  0  0  0  0  0
  -26.4670  -31.6340   24.2310 C   0  0  0  0  0  3  0  0  0  0  0  0
  -25.7660  -32.8820   24.5640 N   0  0  0  0  0  0  0  0  0  0  0  0
  -25.9040  -34.0330   23.8920 C   0  0  0  0  0  0  0  0  0  0  0  0
  -26.7010  -34.1730   22.9610 O   0  0  0  0  0  0  0  0  0  0  0  0
  -25.0580  -32.8260   25.2810 H   0  0  0  0  0  0  0  0  0  0  0  0
  -23.8170  -35.3350   23.3700 C   0  0  0  0  0  1  0  0  0  0  0  0
  -25.0170  -35.2170   24.3220 C   0  0  0  0  0  3  0  0  0  0  0  0
  -26.7500  -36.5590   25.4290 C   0  0  0  0  0  1  0  0  0  0  0  0
  -25.7410  -36.5060   24.3730 N   0  0  0  0  0  0  0  0  0  0  0  0
  -25.0940  -37.2770   24.5150 H   0  0  0  0  0  0  0  0  0  0  0  0
  -26.9830  -30.9170   25.5390 C   0  0  1  0  0  0  0  0  0  0  0  0
  -25.8520  -30.3120   26.4030 C   0  0  0  0  0  1  0  0  0  0  0  0
  -27.9660  -29.7780   25.1820 C   0  0  0  0  0  1  0  0  0  0  0  0
  -27.7670  -31.9220   26.4140 C   0  0  0  0  0  1  0  0  0  0  0  0
  1  2  1  0
  3  1  2  0
  4  5  1  0
  5 49  1  0
  5  2  2  0
  6  4  2  0
  6  3  1  0
  7  9  1  0
  7  6  1  0
  8  7  1  0
 10 19  1  0
 10  9  1  0
 11 17  1  0
 11 19  1  0
 12 17  1  0
 13 14  1  0
 13 12  1  0
 15 14  1  0
 15 24  1  0
 15 16  1  0
 17 16  1  0
 18 11  2  0
 19 20  1  0
 21 46  1  0
 21 22  2  0
 22 41  1  0
 23 26  1  0
 23 22  1  0
 24 25  1  0
 24 21  1  0
 25 23  2  0
 26 27  1  0
 27 28  2  0
 29 32  1  0
 29 28  1  0
 30 29  2  0
 31 30  1  0
 31 26  2  0
 32 33  1  0
 33 34  1  0
 34 35  2  0
 36 35  1  0
 36 40  1  0
 37 36  2  0
 38 33  2  0
 38 37  1  0
 39 38  1  0
 41 42  1  0
 42 44  1  0
 42 45  1  0
 43 41  2  0
 46 47  1  0
 48 46  1  0
 49 50  1  0
 51 52  1  0
 51 49  1  0
 53 54  1  0
 53 52  1  0
 55 66  2  0
 56 54  1  0
 56 61  1  0
 57 67  1  0
 57 65  1  0
 58 64  1  0
 58 60  1  0
 59 65  1  0
 60 59  1  0
 61 60  2  0
 62 63  1  0
 62 56  2  0
 63 58  2  0
 64 57  1  0
 65 55  1  0
 67 69  2  0
 68 67  1  0
 70 68  1  0
 71 80  2  0
 71 76  1  0
 72 68  1  0
 73 72  1  0
 74 75  1  0
 74 73  1  0
 75 71  1  0
 76 72  1  0
 76 77  2  0
 77 78  1  0
 79 78  2  0
 80 79  1  0
 81 55  1  0
 81 82  1  0
 81 91  1  0
 82 85  1  0
 83 87  1  0
 83 82  1  0
 84 83  2  0
 87 86  1  0
 87 89  1  0
 89 90  1  0
 89 88  1  0
 91 92  1  1
 91 94  1  0
 93 91  1  0
M  ISO  4  11 100  19 100  53 101  54 101
M  END
>  <TORSDO>  (36) 
F 23

>  <SCORE>  (36) 
-0.663

>  <name>  (36) 
35

>  <ligand_id>  (36) 
35

>  <original_smiles>  (36) 
[H]c1c([H])c(N([H])C([H])([H])C([H])([H])N([H])C(=O)N2C([H])([H])C([H])([H])C([H])([H])C([H])(n3nc(-c4c([H])c([H])c(Oc5c([H])c([H])c(F)c([H])c5F)c([H])c4[H])c(C(=O)N([H])[H])c3N([H])[H])C2([H])[H])c([H])c(N([H])C([H])([H])C([H])([H])C([H])([H])Oc2c([H])c([H])c3c(c2[H])C([H])([H])N(C(=O)C([H])(N([H])C(=O)C([H])(N([H])C([H])([H])[H])C([H])([H])[H])C(C([H])([H])[H])(C([H])([H])[H])C([H])([H])[H])C([H])(C(=O)N([H])C2([H])c4c([H])c([H])c([H])c([H])c4C([H])([H])C([H])([H])C2([H])[H])C3([H])[H])c1[H]

>  <smiles>  (36) 
[H]c1c([H])c(N([H])C([H])([H])C([H])([H])N([H])C(=O)N2C([H])([H])C([H])([H])C([H])([H])C([H])(n3nc(-c4c([H])c([H])c(Oc5c([H])c([H])c(F)c([H])c5F)c([H])c4[H])c(C(=O)N([H])[H])c3N([H])[H])C2([H])[H])c([H])c(N([H])C([H])([H])C([H])([H])C([H])([H])Oc2c([H])c([H])c3c(c2[H])C([H])([H])N(C(=O)C([H])(N([H])C(=O)C([H])(N([H])C([H])([H])[H])C([H])([H])[H])C(C([H])([H])[H])(C([H])([H])[H])C([H])([H])[H])C([H])(C(=O)N([H])C2([H])c4c([H])c([H])c([H])c([H])c4C([H])([H])C([H])([H])C2([H])[H])C3([H])[H])c1[H]

$$$$
36:0:0
     RDKit          3D

 94101  0  0  1  0  0  0  0  0999 V2000
  -29.1630  -22.1430   21.1280 C   0  0  0  0  0  3  0  0  0  0  0  0
  -29.4870  -23.2900   20.2530 N   0  0  0  0  0  0  0  0  0  0  0  0
  -30.3070  -23.7610   20.6210 H   0  0  0  0  0  0  0  0  0  0  0  0
  -28.4180  -24.2800   20.0070 C   0  0  0  0  0  2  0  0  0  0  0  0
  -28.9200  -25.7380   20.2560 C   0  0  0  0  0  2  0  0  0  0  0  0
  -28.5000  -26.6960   19.2730 O   0  0  0  0  0  0  0  0  0  0  0  0
  -24.9830  -31.4700   23.2830 C   0  0  0  0  0  0  0  0  0  0  0  0
  -27.3490  -27.4090   19.5230 C   0  0  0  0  0  0  0  0  0  0  0  0
  -23.6570  -30.3160   21.5420 C   0  0  0  0  0  3  0  0  0  0  0  0
  -24.9940  -28.9410   19.8580 C   0  0  0  0  0  0  0  0  0  0  0  0
  -26.1750  -30.6510   21.2490 C   0  0  0  0  0  2  0  0  0  0  0  0
  -26.1950  -29.3680   20.4430 C   0  0  0  0  0  0  0  0  0  0  0  0
  -27.3760  -28.6080   20.2720 C   0  0  0  0  0  3  0  0  0  0  0  0
  -26.1360  -26.9970   18.9360 C   0  0  0  0  0  3  0  0  0  0  0  0
  -24.9590  -27.7540   19.1040 C   0  0  0  0  0  3  0  0  0  0  0  0
  -23.7770  -29.8120   20.0780 C   0  0  0  0  0  2  0  0  0  0  0  0
  -24.9600  -30.8200   22.0840 N   0  0  0  0  0  0  0  0  0  0  0  0
  -23.9420  -31.6880   23.9170 O   0  0  0  0  0  0  0  0  0  0  0  0
  -23.0330  -29.1920   22.4010 C   0  0  0  0  0  0  0  0  0  0  0  0
  -21.7130  -28.9910   22.2580 N   0  0  0  0  0  0  0  0  0  0  0  0
  -23.7330  -28.5060   23.1510 O   0  0  0  0  0  0  0  0  0  0  0  0
  -21.2100  -29.6030   21.6320 H   0  0  0  0  0  0  0  0  0  0  0  0
  -18.3880  -27.6100   22.5520 C   0  0  0  0  0  0  0  0  0  0  0  0
  -20.9200  -27.9650   22.9320 C   0  0  0  0  0  3  0  0  0  0  0  0
  -21.1100  -26.5860   22.2590 C   0  0  0  0  0  2  0  0  0  0  0  0
  -20.0560  -26.2870   21.1870 C   0  0  0  0  0  2  0  0  0  0  0  0
  -18.6500  -26.3220   21.7910 C   0  0  0  0  0  2  0  0  0  0  0  0
  -19.4540  -28.3900   23.0730 C   0  0  0  0  0  0  0  0  0  0  0  0
  -19.1560  -29.5960   23.7420 C   0  0  0  0  0  3  0  0  0  0  0  0
  -17.8230  -30.0240   23.8970 C   0  0  0  0  0  3  0  0  0  0  0  0
  -16.7710  -29.2380   23.3940 C   0  0  0  0  0  3  0  0  0  0  0  0
  -17.0540  -28.0340   22.7250 C   0  0  0  0  0  3  0  0  0  0  0  0
  -26.3180  -31.9910   23.9050 C   0  0  0  0  0  3  0  0  0  0  0  0
  -26.9000  -31.0370   25.0190 C   0  0  1  0  0  0  0  0  0  0  0  0
  -25.8750  -30.6610   26.1150 C   0  0  0  0  0  1  0  0  0  0  0  0
  -27.4230  -29.7240   24.3910 C   0  0  0  0  0  1  0  0  0  0  0  0
  -28.1080  -31.7110   25.7090 C   0  0  0  0  0  1  0  0  0  0  0  0
  -26.0600  -33.3290   24.4520 N   0  0  0  0  0  0  0  0  0  0  0  0
  -26.4010  -34.4760   23.8480 C   0  0  0  0  0  0  0  0  0  0  0  0
  -27.0360  -34.5130   22.7910 O   0  0  0  0  0  0  0  0  0  0  0  0
  -25.4950  -33.3760   25.2870 H   0  0  0  0  0  0  0  0  0  0  0  0
  -24.7160  -36.3420   23.8200 C   0  0  0  0  0  1  0  0  0  0  0  0
  -25.9650  -35.7900   24.5250 C   0  0  0  0  0  3  0  0  0  0  0  0
  -28.1440  -36.4830   25.4190 C   0  0  0  0  0  1  0  0  0  0  0  0
  -27.0250  -36.8210   24.5430 N   0  0  0  0  0  0  0  0  0  0  0  0
  -26.6500  -37.7180   24.8410 H   0  0  0  0  0  0  0  0  0  0  0  0
  -31.5230  -21.3100   20.2940 C   0  0  0  0  0  1  0  0  0  0  0  0
  -30.1850  -20.9330   20.9660 C   0  0  0  0  0  3  0  0  0  0  0  0
  -29.6040  -19.7350   20.2830 N   0  0  0  0  0  4  0  0  0  0  0  0
  -29.9300  -19.7330   19.3310 H   0  0  0  0  0  0  0  0  0  0  0  0
  -28.6050  -19.8480   20.2510 H   0  0  0  0  0  0  0  0  0  0  0  0
  -29.9170  -18.4260   20.9430 C   0  0  0  0  0  2  0  0  0  0  0  0
  -29.9980  -17.1810   20.0040 C   0  0  0  0  0  2  0  0  0  0  0  0
  -29.9880  -15.8210   20.7830 C   0  0  0  0  0  2  0  0  0  0  0  0
  -30.6370  -14.6060   20.0550 C   0  0  0  0  0  0  0  0  0  0  0  0
  -30.3600  -12.3950   18.9720 C   0  0  0  0  0  2  0  0  0  0  0  0
  -29.3490  -12.5300   17.8140 C   0  0  0  0  0  2  0  0  0  0  0  0
  -27.9030  -12.3700   18.3260 C   0  0  0  0  0  2  0  0  0  0  0  0
  -27.6130  -13.2310   19.5860 C   0  0  0  0  0  3  0  0  0  0  0  0
  -28.7330  -13.0560   20.6360 C   0  0  0  0  0  2  0  0  0  0  0  0
  -30.0100  -13.3960   19.9930 N   0  0  0  0  0  0  0  0  0  0  0  0
  -31.7100  -14.8030   19.4750 O   0  0  0  0  0  0  0  0  0  0  0  0
  -25.2620  -13.8160   20.4530 C   0  0  0  0  0  0  0  0  0  0  0  0
  -24.2190  -13.0320   20.8660 C   0  0  0  0  0  0  0  0  0  0  0  0
  -24.6780  -11.6830   20.7750 C   0  0  0  0  0  0  0  0  0  0  0  0
  -26.2920  -12.9420   20.1390 N   0  0  0  0  0  0  0  0  0  0  0  0
  -25.9470  -11.6530   20.3880 N   0  0  0  0  0  0  0  0  0  0  0  0
  -23.9650  -10.4160   20.9820 C   0  0  0  0  0  0  0  0  0  0  0  0
  -24.4210   -9.4550   21.9100 C   0  0  0  0  0  3  0  0  0  0  0  0
  -23.7080   -8.2520   22.1040 C   0  0  0  0  0  3  0  0  0  0  0  0
  -22.5250   -8.0020   21.3690 C   0  0  0  0  0  0  0  0  0  0  0  0
  -22.0880   -8.9520   20.4290 C   0  0  0  0  0  3  0  0  0  0  0  0
  -22.8020  -10.1470   20.2350 C   0  0  0  0  0  3  0  0  0  0  0  0
  -21.7820   -6.8500   21.4710 O   0  0  0  0  0  0  0  0  0  0  0  0
  -21.7170   -6.1380   22.6420 C   0  0  0  0  0  0  0  0  0  0  0  0
  -21.2510   -6.7190   23.8410 C   0  0  0  0  0  3  0  0  0  0  0  0
  -21.1350   -5.9340   25.0050 C   0  0  0  0  0  3  0  0  0  0  0  0
  -21.4710   -4.5660   24.9700 C   0  0  0  0  0  0  0  0  0  0  0  0
  -21.9290   -3.9840   23.7740 C   0  0  0  0  0  3  0  0  0  0  0  0
  -22.0480   -4.7680   22.6120 C   0  0  0  0  0  0  0  0  0  0  0  0
  -22.4710   -4.1990   21.4590 F   0  0  0  0  0  0  0  0  0  0  0  0
  -21.3510   -3.8090   26.0840 F   0  0  0  0  0  0  0  0  0  0  0  0
  -22.8420  -13.5020   21.2360 C   0  0  0  0  0  0  0  0  0  0  0  0
  -22.1780  -12.7940   22.1440 N   0  0  0  0  0  0  0  0  0  0  0  0
  -22.3640  -14.5300   20.7570 O   0  0  0  0  0  0  0  0  0  0  0  0
  -22.5780  -11.9630   22.5530 H   0  0  0  0  0  0  0  0  0  0  0  0
  -21.2540  -13.0880   22.4330 H   0  0  0  0  0  0  0  0  0  0  0  0
  -25.4100  -15.1910   20.2980 N   0  0  0  0  0  0  0  0  0  0  0  0
  -24.6430  -15.8310   20.4730 H   0  0  0  0  0  0  0  0  0  0  0  0
  -26.2320  -15.6490   19.9240 H   0  0  0  0  0  0  0  0  0  0  0  0
  -28.9220  -22.6890   22.5820 C   0  0  0  0  0  2  0  0  0  0  0  0
  -29.3260  -22.8440   25.0840 C   0  0  0  0  0  1  0  0  0  0  0  0
  -31.2980  -22.9460   23.5400 C   0  0  0  0  0  1  0  0  0  0  0  0
  -29.8920  -22.3410   23.7450 C   0  0  0  0  0  3  0  0  0  0  0  0
  1 91  1  0
  2  3  1  0
  2  1  1  0
  4  2  1  0
  4  5  1  0
  6  8  1  0
  6  5  1  0
  7 18  2  0
  8 13  1  0
  9 17  1  0
  9 19  1  0
 10 16  1  0
 10 12  1  0
 11 17  1  0
 12 11  1  0
 13 12  2  0
 14 15  1  0
 14  8  2  0
 15 10  2  0
 16  9  1  0
 17  7  1  0
 19 21  2  0
 20 19  1  0
 22 20  1  0
 23 32  2  0
 23 28  1  0
 24 20  1  0
 24 28  1  0
 25 24  1  0
 26 27  1  0
 26 25  1  0
 27 23  1  0
 28 29  2  0
 29 30  1  0
 31 30  2  0
 32 31  1  0
 33  7  1  0
 33 38  1  0
 33 34  1  0
 34 37  1  1
 34 35  1  0
 36 34  1  0
 38 41  1  0
 39 38  1  0
 39 43  1  0
 40 39  2  0
 43 42  1  0
 43 45  1  0
 45 46  1  0
 45 44  1  0
 48 47  1  0
 48  1  1  0
 49 52  1  0
 49 48  1  0
 50 49  1  0
 51 49  1  0
 53 54  1  0
 53 52  1  0
 55 54  1  0
 56 61  1  0
 57 58  1  0
 57 56  1  0
 59 58  1  0
 59 66  1  0
 59 60  1  0
 61 55  1  0
 61 60  1  0
 62 55  2  0
 63 64  2  0
 64 83  1  0
 65 64  1  0
 65 68  1  0
 66 67  1  0
 66 63  1  0
 67 65  2  0
 68 69  1  0
 69 70  2  0
 71 74  1  0
 71 70  1  0
 72 71  2  0
 73 72  1  0
 73 68  2  0
 74 75  1  0
 75 76  1  0
 76 77  2  0
 78 77  1  0
 78 82  1  0
 79 78  2  0
 80 75  2  0
 80 79  1  0
 81 80  1  0
 83 84  1  0
 84 87  1  0
 84 86  1  0
 85 83  2  0
 88 63  1  0
 88 89  1  0
 90 88  1  0
 91 94  1  0
 93 94  1  0
 94 92  1  0
M  ISO  4   5 101   6 101  54 100  55 100
M  END
>  <TORSDO>  (37) 
F 26

>  <SCORE>  (37) 
-8.566

>  <name>  (37) 
36

>  <ligand_id>  (37) 
36

>  <original_smiles>  (37) 
[H]c1c([H])c([H])c2c(c1[H])C([H])([H])C([H])([H])C([H])([H])C2([H])N([H])C(=O)C1([H])N(C(=O)C([H])(N([H])C(=O)C([H])(N([H])C([H])([H])[H])C([H])([H])[H])C(C([H])([H])[H])(C([H])([H])[H])C([H])([H])[H])C([H])([H])c2c([H])c(OC([H])([H])C([H])([H])N([H])C([H])(C([H])([H])C([H])(C([H])([H])[H])C([H])([H])[H])C([H])(C([H])([H])[H])[N+]([H])([H])C([H])([H])C([H])([H])C([H])([H])C(=O)N3C([H])([H])C([H])([H])C([H])([H])C([H])(n4nc(-c5c([H])c([H])c(Oc6c([H])c([H])c(F)c([H])c6F)c([H])c5[H])c(C(=O)N([H])[H])c4N([H])[H])C3([H])[H])c([H])c([H])c2C1([H])[H]

>  <smiles>  (37) 
[H]c1c([H])c([H])c2c(c1[H])C([H])([H])C([H])([H])C([H])([H])C2([H])N([H])C(=O)C1([H])N(C(=O)C([H])(N([H])C(=O)C([H])(N([H])C([H])([H])[H])C([H])([H])[H])C(C([H])([H])[H])(C([H])([H])[H])C([H])([H])[H])C([H])([H])c2c([H])c(OC([H])([H])C([H])([H])N([H])C([H])(C([H])([H])C([H])(C([H])([H])[H])C([H])([H])[H])C([H])(C([H])([H])[H])[N+]([H])([H])C([H])([H])C([H])([H])C([H])([H])C(=O)N3C([H])([H])C([H])([H])C([H])([H])C([H])(n4nc(-c5c([H])c([H])c(Oc6c([H])c([H])c(F)c([H])c6F)c([H])c5[H])c(C(=O)N([H])[H])c4N([H])[H])C3([H])[H])c([H])c([H])c2C1([H])[H]

$$$$
37:0:0
     RDKit          3D

 93100  0  0  1  0  0  0  0  0999 V2000
  -28.5470  -21.0130   20.7450 C   0  0  0  0  0  0  0  0  0  0  0  0
  -27.5320  -19.8800   20.6900 C   0  0  0  0  0  1  0  0  0  0  0  0
  -28.1370  -22.1210   21.2510 N   0  0  0  0  0  0  0  0  0  0  0  0
  -29.9430  -20.7150   20.1160 C   0  0  0  0  0  3  0  0  0  0  0  0
  -30.3280  -19.2650   20.0840 N   0  0  0  0  0  4  0  0  0  0  0  0
  -29.5620  -18.7190   19.7270 H   0  0  0  0  0  0  0  0  0  0  0  0
  -31.0730  -19.2060   19.4080 H   0  0  0  0  0  0  0  0  0  0  0  0
  -30.8620  -18.6430   21.3290 C   0  0  0  0  0  2  0  0  0  0  0  0
  -31.6370  -17.3170   21.0700 C   0  0  0  0  0  2  0  0  0  0  0  0
  -30.8560  -15.9870   21.2920 C   0  0  0  0  0  2  0  0  0  0  0  0
  -31.5760  -14.7360   20.7260 C   0  0  0  0  0  0  0  0  0  0  0  0
  -31.2880  -12.5660   19.5850 C   0  0  0  0  0  2  0  0  0  0  0  0
  -30.4150  -12.7740   18.3280 C   0  0  0  0  0  2  0  0  0  0  0  0
  -28.9150  -12.6930   18.6800 C   0  0  0  0  0  2  0  0  0  0  0  0
  -28.5390  -13.5690   19.9020 C   0  0  0  0  0  3  0  0  0  0  0  0
  -29.5260  -13.3330   21.0690 C   0  0  0  0  0  2  0  0  0  0  0  0
  -30.8870  -13.5750   20.5750 N   0  0  0  0  0  0  0  0  0  0  0  0
  -32.7300  -14.8680   20.3100 O   0  0  0  0  0  0  0  0  0  0  0  0
  -26.1450  -14.2880   20.5180 C   0  0  0  0  0  0  0  0  0  0  0  0
  -25.0240  -13.5640   20.8210 C   0  0  0  0  0  0  0  0  0  0  0  0
  -25.4150  -12.1910   20.7740 C   0  0  0  0  0  0  0  0  0  0  0  0
  -27.1540  -13.3570   20.3140 N   0  0  0  0  0  0  0  0  0  0  0  0
  -26.7150  -12.0910   20.5240 N   0  0  0  0  0  0  0  0  0  0  0  0
  -24.6200  -10.9640   20.8970 C   0  0  0  0  0  0  0  0  0  0  0  0
  -24.9020   -9.9960   21.8860 C   0  0  0  0  0  3  0  0  0  0  0  0
  -24.1120   -8.8330   21.9950 C   0  0  0  0  0  3  0  0  0  0  0  0
  -23.0260   -8.6280   21.1120 C   0  0  0  0  0  0  0  0  0  0  0  0
  -22.7620   -9.5830   20.1150 C   0  0  0  0  0  3  0  0  0  0  0  0
  -23.5520  -10.7390   20.0040 C   0  0  0  0  0  3  0  0  0  0  0  0
  -22.2190   -7.5150   21.1260 O   0  0  0  0  0  0  0  0  0  0  0  0
  -21.9300   -6.8520   22.2920 C   0  0  0  0  0  0  0  0  0  0  0  0
  -21.2580   -7.4820   23.3600 C   0  0  0  0  0  3  0  0  0  0  0  0
  -20.9190   -6.7440   24.5130 C   0  0  0  0  0  3  0  0  0  0  0  0
  -21.2420   -5.3760   24.5920 C   0  0  0  0  0  0  0  0  0  0  0  0
  -21.9080   -4.7450   23.5260 C   0  0  0  0  0  3  0  0  0  0  0  0
  -22.2470   -5.4810   22.3780 C   0  0  0  0  0  0  0  0  0  0  0  0
  -22.8680   -4.8630   21.3440 F   0  0  0  0  0  0  0  0  0  0  0  0
  -20.9100   -4.6640   25.6950 F   0  0  0  0  0  0  0  0  0  0  0  0
  -23.6400  -14.1060   21.0380 C   0  0  0  0  0  0  0  0  0  0  0  0
  -22.8390  -13.4300   21.8560 N   0  0  0  0  0  0  0  0  0  0  0  0
  -23.2770  -15.1630   20.5230 O   0  0  0  0  0  0  0  0  0  0  0  0
  -23.1430  -12.5730   22.2940 H   0  0  0  0  0  0  0  0  0  0  0  0
  -21.9080  -13.7730   22.0440 H   0  0  0  0  0  0  0  0  0  0  0  0
  -26.3870  -15.6520   20.3770 N   0  0  0  0  0  0  0  0  0  0  0  0
  -25.6370  -16.3330   20.4300 H   0  0  0  0  0  0  0  0  0  0  0  0
  -27.2500  -16.0350   20.0170 H   0  0  0  0  0  0  0  0  0  0  0  0
  -29.9910  -21.3070   18.6790 C   0  0  0  0  0  2  0  0  0  0  0  0
  -31.3120  -21.6950   16.5190 C   0  0  0  0  0  1  0  0  0  0  0  0
  -31.3930  -21.4190   18.0310 C   0  0  0  0  0  2  0  0  0  0  0  0
  -28.9550  -23.3240   21.4230 C   0  0  0  0  0  2  0  0  0  0  0  0
  -28.3040  -24.5740   20.7740 C   0  0  0  0  0  2  0  0  0  0  0  0
  -29.0080  -25.8990   21.1770 C   0  0  0  0  0  2  0  0  0  0  0  0
  -28.8430  -26.9730   20.2460 O   0  0  0  0  0  0  0  0  0  0  0  0
  -24.7280  -31.9510   23.3040 C   0  0  0  0  0  0  0  0  0  0  0  0
  -27.6470  -27.6490   20.2880 C   0  0  0  0  0  0  0  0  0  0  0  0
  -23.6400  -30.5340   21.5900 C   0  0  0  0  0  3  0  0  0  0  0  0
  -25.2080  -29.0600   20.2150 C   0  0  0  0  0  0  0  0  0  0  0  0
  -26.1550  -30.9790   21.5080 C   0  0  0  0  0  2  0  0  0  0  0  0
  -26.3180  -29.6170   20.8660 C   0  0  0  0  0  0  0  0  0  0  0  0
  -27.5440  -28.9150   20.9040 C   0  0  0  0  0  3  0  0  0  0  0  0
  -26.5280  -27.1040   19.6290 C   0  0  0  0  0  3  0  0  0  0  0  0
  -25.3050  -27.7990   19.5980 C   0  0  0  0  0  3  0  0  0  0  0  0
  -23.9380  -29.8830   20.2130 C   0  0  0  0  0  2  0  0  0  0  0  0
  -24.8570  -31.1690   22.1950 N   0  0  0  0  0  0  0  0  0  0  0  0
  -23.6160  -32.1800   23.8000 O   0  0  0  0  0  0  0  0  0  0  0  0
  -22.9860  -29.4730   22.5050 C   0  0  0  0  0  0  0  0  0  0  0  0
  -21.6690  -29.2780   22.3400 N   0  0  0  0  0  0  0  0  0  0  0  0
  -23.6620  -28.8370   23.3170 O   0  0  0  0  0  0  0  0  0  0  0  0
  -21.1860  -29.8490   21.6610 H   0  0  0  0  0  0  0  0  0  0  0  0
  -18.2800  -28.1140   22.8310 C   0  0  0  0  0  0  0  0  0  0  0  0
  -20.8490  -28.3060   23.0600 C   0  0  0  0  0  3  0  0  0  0  0  0
  -20.9110  -26.9150   22.3870 C   0  0  0  0  0  2  0  0  0  0  0  0
  -19.7820  -26.6810   21.3790 C   0  0  0  0  0  2  0  0  0  0  0  0
  -18.4140  -26.8100   22.0600 C   0  0  0  0  0  2  0  0  0  0  0  0
  -19.4250  -28.8230   23.2860 C   0  0  0  0  0  0  0  0  0  0  0  0
  -19.2480  -30.0490   23.9650 C   0  0  0  0  0  3  0  0  0  0  0  0
  -17.9600  -30.5680   24.1900 C   0  0  0  0  0  3  0  0  0  0  0  0
  -16.8300  -29.8540   23.7520 C   0  0  0  0  0  3  0  0  0  0  0  0
  -16.9910  -28.6280   23.0790 C   0  0  0  0  0  3  0  0  0  0  0  0
  -25.9650  -32.6130   23.9870 C   0  0  0  0  0  3  0  0  0  0  0  0
  -26.4180  -31.8730   25.3060 C   0  0  1  0  0  0  0  0  0  0  0  0
  -25.2590  -31.5910   26.2900 C   0  0  0  0  0  1  0  0  0  0  0  0
  -27.0900  -30.5210   24.9660 C   0  0  0  0  0  1  0  0  0  0  0  0
  -27.4740  -32.7260   26.0490 C   0  0  0  0  0  1  0  0  0  0  0  0
  -25.6170  -34.0120   24.2680 N   0  0  0  0  0  0  0  0  0  0  0  0
  -25.9550  -35.0500   23.4920 C   0  0  0  0  0  0  0  0  0  0  0  0
  -26.6710  -34.9360   22.4920 O   0  0  0  0  0  0  0  0  0  0  0  0
  -24.9950  -34.1750   25.0460 H   0  0  0  0  0  0  0  0  0  0  0  0
  -24.2020  -36.7900   23.0260 C   0  0  0  0  0  1  0  0  0  0  0  0
  -25.4240  -36.4390   23.8900 C   0  0  0  0  0  3  0  0  0  0  0  0
  -27.5020  -37.4100   24.7720 C   0  0  0  0  0  1  0  0  0  0  0  0
  -26.4350  -37.5130   23.7780 N   0  0  0  0  0  0  0  0  0  0  0  0
  -26.0000  -38.4260   23.8770 H   0  0  0  0  0  0  0  0  0  0  0  0
  1  3  2  0
  2  1  1  0
  3 50  1  0
  4 47  1  0
  4  1  1  0
  5  4  1  0
  5  8  1  0
  6  5  1  0
  7  5  1  0
  9 10  1  0
  9  8  1  0
 11 10  1  0
 12 17  1  0
 13 14  1  0
 13 12  1  0
 15 14  1  0
 15 22  1  0
 15 16  1  0
 17 11  1  0
 17 16  1  0
 18 11  2  0
 19 20  2  0
 20 39  1  0
 21 20  1  0
 21 24  1  0
 22 19  1  0
 22 23  1  0
 23 21  2  0
 24 25  1  0
 25 26  2  0
 27 30  1  0
 27 26  1  0
 28 27  2  0
 29 28  1  0
 29 24  2  0
 30 31  1  0
 31 36  2  0
 31 32  1  0
 32 33  2  0
 33 34  1  0
 34 38  1  0
 35 34  2  0
 36 35  1  0
 37 36  1  0
 39 40  1  0
 40 43  1  0
 40 42  1  0
 41 39  2  0
 44 45  1  0
 44 19  1  0
 46 44  1  0
 48 49  1  0
 49 47  1  0
 51 52  1  0
 51 50  1  0
 53 55  1  0
 53 52  1  0
 54 65  2  0
 55 60  1  0
 56 64  1  0
 56 66  1  0
 57 59  1  0
 58 64  1  0
 59 60  2  0
 59 58  1  0
 61 55  2  0
 62 61  1  0
 62 57  2  0
 63 57  1  0
 63 56  1  0
 64 54  1  0
 66 68  2  0
 67 66  1  0
 69 67  1  0
 70 79  2  0
 70 75  1  0
 71 67  1  0
 71 75  1  0
 72 71  1  0
 73 74  1  0
 73 72  1  0
 74 70  1  0
 75 76  2  0
 76 77  1  0
 78 77  2  0
 79 78  1  0
 80 54  1  0
 80 85  1  0
 80 81  1  0
 81 84  1  1
 81 82  1  0
 83 81  1  0
 85 88  1  0
 86 90  1  0
 86 85  1  0
 87 86  2  0
 90 89  1  0
 92 93  1  0
 92 90  1  0
 92 91  1  0
M  ISO  4  10 100  11 100  52 101  53 101
M  END
>  <TORSDO>  (38) 
F 26

>  <SCORE>  (38) 
-10.693

>  <name>  (38) 
37

>  <ligand_id>  (38) 
37

>  <original_smiles>  (38) 
[H]c1c([H])c([H])c2c(c1[H])C([H])([H])C([H])([H])C([H])([H])C2([H])N([H])C(=O)C1([H])N(C(=O)C([H])(N([H])C(=O)C([H])(N([H])C([H])([H])[H])C([H])([H])[H])C(C([H])([H])[H])(C([H])([H])[H])C([H])([H])[H])C([H])([H])c2c([H])c(OC([H])([H])C([H])([H])C([H])([H])N=C(C([H])([H])[H])C([H])(C([H])([H])C([H])([H])C([H])([H])[H])[N+]([H])([H])C([H])([H])C([H])([H])C([H])([H])C(=O)N3C([H])([H])C([H])([H])C([H])([H])C([H])(n4nc(-c5c([H])c([H])c(Oc6c([H])c([H])c(F)c([H])c6F)c([H])c5[H])c(C(=O)N([H])[H])c4N([H])[H])C3([H])[H])c([H])c([H])c2C1([H])[H]

>  <smiles>  (38) 
[H]c1c([H])c([H])c2c(c1[H])C([H])([H])C([H])([H])C([H])([H])C2([H])N([H])C(=O)C1([H])N(C(=O)C([H])(N([H])C(=O)C([H])(N([H])C([H])([H])[H])C([H])([H])[H])C(C([H])([H])[H])(C([H])([H])[H])C([H])([H])[H])C([H])([H])c2c([H])c(OC([H])([H])C([H])([H])C([H])([H])N=C(C([H])([H])[H])C([H])(C([H])([H])C([H])([H])C([H])([H])[H])[N+]([H])([H])C([H])([H])C([H])([H])C([H])([H])C(=O)N3C([H])([H])C([H])([H])C([H])([H])C([H])(n4nc(-c5c([H])c([H])c(Oc6c([H])c([H])c(F)c([H])c6F)c([H])c5[H])c(C(=O)N([H])[H])c4N([H])[H])C3([H])[H])c([H])c([H])c2C1([H])[H]

$$$$
38:0:0
     RDKit          3D

 93 95  0  0  1  0  0  0  0  0999 V2000
  -24.5030  -15.7510   18.8940 C   0  0  0  0  0 15  0  0  0  0  0  0
  -25.7520  -10.7120   21.6600 C   0  0  0  0  0  3  0  0  0  0  0  0
  -23.8650  -11.2680   21.7990 C   0  0  0  0  0 15  0  0  0  0  0  0
  -25.6350  -12.4410   18.8890 C   0  0  0  0  0  2  0  0  0  0  0  0
  -26.6600  -11.3280   20.0240 C   0  0  0  0  0  3  0  0  0  0  0  0
  -23.2110  -12.4410   20.3180 C   0  0  0  0  0  2  0  0  0  0  0  0
  -24.2570  -13.4950   19.1900 C   0  0  0  0  0  2  0  0  0  0  0  0
  -21.6790  -12.5890   20.1030 C   0  0  0  0  0  1  0  0  0  0  0  0
  -28.5010  -11.5500   19.9490 C   0  0  0  0  0  1  0  0  0  0  0  0
  -30.9510  -13.6490   20.6180 C   0  0  0  0  0  3  0  0  0  0  0  0
  -30.8080  -11.5440   19.0570 C   0  0  0  0  0  2  0  0  0  0  0  0
  -29.5990  -12.3180   17.7830 C   0  0  0  0  0  2  0  0  0  0  0  0
  -28.1310  -13.3590   18.4180 C   0  0  0  0  0  1  0  0  0  0  0  0
  -27.8560  -13.8490   20.4190 C   0  0  0  0  0  2  0  0  0  0  0  0
  -29.0810  -13.0420   21.7290 C   0  0  0  0  0  2  0  0  0  0  0  0
  -30.5160  -12.4460   20.7060 N   0  0  1  0  0  4  0  0  0  0  0  0
  -31.8960  -14.2950   20.1340 O   0  0  0  0  0  1  0  0  0  0  0  0
  -29.9800  -13.3320   19.8300 N   0  0  0  0  0  0  0  0  0  0  0  0
  -29.9010  -13.8870   18.9920 H   0  0  0  0  0  0  0  0  0  0  0  0
  -25.7120  -14.5050   21.6760 C   0  0  0  0  0  3  0  0  0  0  0  0
  -24.8230  -13.6660   22.2700 C   0  0  0  0  0  3  0  0  0  0  0  0
  -25.4840  -12.6020   21.6170 C   0  0  2  0  0  0  0  0  0  0  0  0
  -26.6940  -13.7550   21.1740 N   0  0  1  0  0  4  0  0  0  0  0  0
  -26.6320  -12.9360   22.1280 N   0  0  0  0  0  2  0  0  0  0  0  0
  -24.7840  -10.1840   20.2850 C   0  0  0  0  0  3  0  0  0  0  0  0
  -25.0460   -8.7570   20.8840 C   0  0  0  0  0  2  0  0  0  0  0  0
  -24.2520   -7.9330   21.8130 C   0  0  0  0  0  2  0  0  0  0  0  0
  -22.8910   -7.8040   21.5300 C   0  0  0  0  0  0  0  0  0  0  0  0
  -22.5260   -8.7050   20.4980 C   0  0  0  0  0  3  0  0  0  0  0  0
  -23.4280   -9.6850   19.8880 C   0  0  0  0  0  2  0  0  0  0  0  0
  -22.0660   -6.7000   21.8210 O   0  0  0  0  0  0  0  0  0  0  0  0
  -21.9650   -5.9610   23.0030 C   0  0  0  0  0  0  0  0  0  0  0  0
  -21.3960   -6.5220   24.1690 C   0  0  0  0  0  3  0  0  0  0  0  0
  -21.1260   -5.7260   25.3070 C   0  0  0  0  0  3  0  0  0  0  0  0
  -21.4200   -4.3480   25.3010 C   0  0  0  0  0  0  0  0  0  0  0  0
  -21.9700   -3.7680   24.1470 C   0  0  0  0  0  3  0  0  0  0  0  0
  -22.2300   -4.5610   23.0060 C   0  0  0  0  0  0  0  0  0  0  0  0
  -22.7100   -3.9490   21.8970 F   0  0  0  0  0  0  0  0  0  0  0  0
  -21.1670   -3.5880   26.3980 F   0  0  0  0  0  0  0  0  0  0  0  0
  -23.3450  -13.8920   22.5870 C   0  0  0  0  0  0  0  0  0  0  0  0
  -22.7550  -13.0080   23.4100 N   0  0  0  0  0  0  0  0  0  0  0  0
  -22.6520  -14.5490   21.8080 O   0  0  0  0  0  0  0  0  0  0  0  0
  -23.3180  -12.3430   23.9170 H   0  0  0  0  0  0  0  0  0  0  0  0
  -21.7570  -13.0260   23.5490 H   0  0  0  0  0  0  0  0  0  0  0  0
  -25.8670  -15.8200   21.5440 N   0  0  0  0  0  0  0  0  0  0  0  0
  -25.5330  -16.2670   22.3920 H   0  0  0  0  0  0  0  0  0  0  0  0
  -26.8500  -16.0390   21.4160 H   0  0  0  0  0  0  0  0  0  0  0  0
  -24.8670  -17.7460   19.5200 N   0  0  0  0  0  2  0  0  0  0  0  0
  -25.4160  -17.4370   20.3180 H   0  0  0  0  0  0  0  0  0  0  0  0
  -23.9570  -17.9510   19.9010 H   0  0  0  0  0  0  0  0  0  0  0  0
  -25.6260  -19.7040   19.2790 C   0  0  0  0  0 15  0  0  0  0  0  0
  -25.8200  -22.0400   19.8560 C   0  0  0  0  0 15  0  0  0  0  0  0
  -26.6830  -24.0210   19.9710 O   0  0  0  0  0  1  0  0  0  0  0  0
  -24.5790  -31.5880   22.9920 C   0  0  0  0  0  0  0  0  0  0  0  0
  -26.3690  -25.7270   20.0440 C   0  0  0  0  0  0  0  0  0  0  0  0
  -23.4090  -30.1860   21.3940 C   0  0  0  0  0  3  0  0  0  0  0  0
  -24.7350  -28.4360   19.9540 C   0  0  0  0  0  0  0  0  0  0  0  0
  -25.9890  -29.9880   21.3910 C   0  0  0  0  0  2  0  0  0  0  0  0
  -25.9060  -28.4970   20.7000 C   0  0  0  0  0  0  0  0  0  0  0  0
  -26.7300  -27.1650   20.7100 C   0  0  0  0  0  3  0  0  0  0  0  0
  -25.3620  -26.1290   19.1620 C   0  0  0  0  0  3  0  0  0  0  0  0
  -24.5710  -27.3120   19.1450 C   0  0  0  0  0  3  0  0  0  0  0  0
  -23.6510  -29.5280   20.0100 C   0  0  0  0  0  2  0  0  0  0  0  0
  -24.7060  -30.6500   21.9680 N   0  0  0  0  0  0  0  0  0  0  0  0
  -23.4680  -31.9240   23.4490 O   0  0  0  0  0  0  0  0  0  0  0  0
  -22.6700  -29.2180   22.3610 C   0  0  0  0  0  0  0  0  0  0  0  0
  -21.3350  -29.0770   22.2370 N   0  0  0  0  0  0  0  0  0  0  0  0
  -23.3110  -28.6060   23.2170 O   0  0  0  0  0  0  0  0  0  0  0  0
  -20.8580  -29.6250   21.5350 H   0  0  0  0  0  0  0  0  0  0  0  0
  -17.9530  -27.8460   22.7560 C   0  0  0  0  0  0  0  0  0  0  0  0
  -20.5100  -28.1480   23.0220 C   0  0  0  0  0  3  0  0  0  0  0  0
  -20.6280  -26.7070   22.4740 C   0  0  0  0  0  2  0  0  0  0  0  0
  -19.5370  -26.3590   21.4570 C   0  0  0  0  0  2  0  0  0  0  0  0
  -18.1500  -26.4940   22.0900 C   0  0  0  0  0  2  0  0  0  0  0  0
  -19.0610  -28.6300   23.1800 C   0  0  0  0  0  0  0  0  0  0  0  0
  -18.8190  -29.8890   23.7680 C   0  0  0  0  0  3  0  0  0  0  0  0
  -17.5060  -30.3680   23.9340 C   0  0  0  0  0  3  0  0  0  0  0  0
  -16.4140  -29.5830   23.5240 C   0  0  0  0  0  3  0  0  0  0  0  0
  -16.6390  -28.3230   22.9400 C   0  0  0  0  0  3  0  0  0  0  0  0
  -25.7980  -32.3040   23.6500 C   0  0  0  0  0  3  0  0  0  0  0  0
  -25.4110  -33.6990   23.9860 N   0  0  0  0  0  0  0  0  0  0  0  0
  -25.7270  -34.7990   23.2880 C   0  0  0  0  0  0  0  0  0  0  0  0
  -26.4220  -34.7530   22.2710 O   0  0  0  0  0  0  0  0  0  0  0  0
  -24.7890  -33.8070   24.7730 H   0  0  0  0  0  0  0  0  0  0  0  0
  -23.9530  -36.5740   22.9860 C   0  0  0  0  0  1  0  0  0  0  0  0
  -25.2000  -36.1660   23.7880 C   0  0  0  0  0  3  0  0  0  0  0  0
  -27.3010  -37.1010   24.6630 C   0  0  0  0  0  1  0  0  0  0  0  0
  -26.2020  -37.2560   23.7140 N   0  0  0  0  0  0  0  0  0  0  0  0
  -25.7650  -38.1580   23.8800 H   0  0  0  0  0  0  0  0  0  0  0  0
  -26.2920  -31.5870   24.9690 C   0  0  1  0  0  0  0  0  0  0  0  0
  -25.1740  -31.3510   26.0140 C   0  0  0  0  0  1  0  0  0  0  0  0
  -26.9200  -30.2150   24.6600 C   0  0  0  0  0  1  0  0  0  0  0  0
  -27.4040  -32.4270   25.6400 C   0  0  0  0  0  1  0  0  0  0  0  0
  2  5  1  0
  4  7  1  0
  4  5  1  0
  5  9  1  0
  7  6  1  0
  8  6  1  0
 10 17  1  0
 10 16  1  0
 16 11  1  1
 12 13  1  0
 12 11  1  0
 14 15  1  0
 16 15  1  0
 18 10  1  0
 18 16  1  0
 19 18  1  0
 20 45  1  0
 20 21  1  0
 21 40  1  0
 22  2  1  6
 22 24  1  0
 22 21  1  0
 23 14  1  6
 23 22  1  0
 23 20  1  0
 23 24  1  0
 25 26  1  0
 25  2  1  0
 26 27  1  0
 28 27  1  0
 28 31  1  0
 29 28  2  0
 30 25  1  0
 30 29  1  0
 31 32  1  0
 32 37  2  0
 32 33  1  0
 33 34  2  0
 35 34  1  0
 35 39  1  0
 36 35  2  0
 37 36  1  0
 38 37  1  0
 40 41  1  0
 41 44  1  0
 41 43  1  0
 42 40  2  0
 45 46  1  0
 47 45  1  0
 48 50  1  0
 48 49  1  0
 53 55  1  0
 54 65  2  0
 55 60  1  0
 56 64  1  0
 56 66  1  0
 57 63  1  0
 57 59  1  0
 58 64  1  0
 59 60  2  0
 59 58  1  0
 61 55  2  0
 62 61  1  0
 62 57  2  0
 63 56  1  0
 64 54  1  0
 66 68  2  0
 67 66  1  0
 69 67  1  0
 70 79  2  0
 70 75  1  0
 71 67  1  0
 71 75  1  0
 72 71  1  0
 73 74  1  0
 73 72  1  0
 74 70  1  0
 75 76  2  0
 76 77  1  0
 78 77  2  0
 79 78  1  0
 80 54  1  0
 80 81  1  0
 80 90  1  0
 81 84  1  0
 82 86  1  0
 82 81  1  0
 83 82  2  0
 86 85  1  0
 88 86  1  0
 88 89  1  0
 88 87  1  0
 90 93  1  1
 90 91  1  0
 92 90  1  0
M  ISO  4  10 100  18 100  52 101  53 101
M  END
>  <TORSDO>  (39) 
F 21

>  <SCORE>  (39) 
0.120

>  <name>  (39) 
38

>  <ligand_id>  (39) 
38

>  <original_smiles>  (39) 
[H]c1c([H])c([H])c2c(c1[H])C([H])([H])C([H])([H])C([H])([H])C2([H])N([H])C(=O)C1([H])N(C(=O)C([H])(N([H])C(=O)C([H])(N([H])C([H])([H])[H])C([H])([H])[H])C(C([H])([H])[H])(C([H])([H])[H])C([H])([H])[H])C([H])([H])c2c([H])c(OC([H])([H])C([H])([H])[N+]([H])([H])C([H])([H])c3c([H])c(C([H])([H])N([H])C(=O)N4C([H])([H])C([H])([H])C([H])([H])C([H])(n5nc(-c6c([H])c([H])c(Oc7c([H])c([H])c(F)c([H])c7F)c([H])c6[H])c(C(=O)N([H])[H])c5N([H])[H])C4([H])[H])c([H])c([H])c3C([H])([H])[H])c([H])c([H])c2C1([H])[H]

>  <smiles>  (39) 
[H]c1c([H])c([H])c2c(c1[H])C([H])([H])C([H])([H])C([H])([H])C2([H])N([H])C(=O)C1([H])N(C(=O)C([H])(N([H])C(=O)C([H])(N([H])C([H])([H])[H])C([H])([H])[H])C(C([H])([H])[H])(C([H])([H])[H])C([H])([H])[H])C([H])([H])c2c([H])c(OC([H])([H])C([H])([H])[N+]([H])([H])C([H])([H])c3c([H])c(C([H])([H])N([H])C(=O)N4C([H])([H])C([H])([H])C([H])([H])C([H])(n5nc(-c6c([H])c([H])c(Oc7c([H])c([H])c(F)c([H])c7F)c([H])c6[H])c(C(=O)N([H])[H])c5N([H])[H])C4([H])[H])c([H])c([H])c3C([H])([H])[H])c([H])c([H])c2C1([H])[H]

$$$$
39:0:0
     RDKit          3D

 97104  0  0  1  0  0  0  0  0999 V2000
  -29.4130  -19.6240   20.0280 C   0  0  0  0  0  2  0  0  0  0  0  0
  -30.4440  -18.5340   20.3510 N   0  0  0  0  0  4  0  0  0  0  0  0
  -30.5610  -18.5640   21.3550 H   0  0  0  0  0  0  0  0  0  0  0  0
  -31.3210  -18.7580   19.9110 H   0  0  0  0  0  0  0  0  0  0  0  0
  -30.1260  -17.0440   20.1470 C   0  0  0  0  0  3  0  0  0  0  0  0
  -29.0880  -16.7910   21.2630 C   0  0  0  0  0  0  0  0  0  0  0  0
  -27.9770  -16.1110   21.0330 N   0  0  0  0  0  0  0  0  0  0  0  0
  -29.3020  -17.2440   22.3890 O   0  0  0  0  0  0  0  0  0  0  0  0
  -27.6870  -15.7490   20.1250 H   0  0  0  0  0  0  0  0  0  0  0  0
  -27.3310  -15.9770   21.7960 H   0  0  0  0  0  0  0  0  0  0  0  0
  -32.6800  -16.7800   19.9530 C   0  0  0  0  0  1  0  0  0  0  0  0
  -31.6940  -15.4490   21.7110 C   0  0  0  0  0  1  0  0  0  0  0  0
  -31.3790  -15.9630   20.2660 C   0  0  1  0  0  0  0  0  0  0  0  0
  -31.4240  -14.6700   19.2860 C   0  0  0  0  0  0  0  0  0  0  0  0
  -30.8410  -12.4200   18.3370 C   0  0  0  0  0  2  0  0  0  0  0  0
  -29.7890  -12.5320   17.2130 C   0  0  0  0  0  2  0  0  0  0  0  0
  -28.3750  -12.4560   17.8080 C   0  0  0  0  0  2  0  0  0  0  0  0
  -28.2040  -13.4070   19.0180 C   0  0  0  0  0  3  0  0  0  0  0  0
  -29.3710  -13.3060   20.0250 C   0  0  0  0  0  2  0  0  0  0  0  0
  -30.6360  -13.5320   19.3080 N   0  0  0  0  0  0  0  0  0  0  0  0
  -32.3490  -14.6780   18.4680 O   0  0  0  0  0  0  0  0  0  0  0  0
  -26.0010  -14.1790   20.0800 C   0  0  0  0  0  0  0  0  0  0  0  0
  -24.9330  -13.4930   20.5920 C   0  0  0  0  0  0  0  0  0  0  0  0
  -25.2470  -12.1080   20.4380 C   0  0  0  0  0  0  0  0  0  0  0  0
  -26.9110  -13.2200   19.6700 N   0  0  0  0  0  0  0  0  0  0  0  0
  -26.4710  -11.9650   19.9420 N   0  0  0  0  0  0  0  0  0  0  0  0
  -24.4260  -10.9120   20.6730 C   0  0  0  0  0  0  0  0  0  0  0  0
  -24.8450   -9.8900   21.5540 C   0  0  0  0  0  3  0  0  0  0  0  0
  -24.0300   -8.7600   21.7770 C   0  0  0  0  0  3  0  0  0  0  0  0
  -22.7810   -8.6440   21.1210 C   0  0  0  0  0  0  0  0  0  0  0  0
  -22.3810   -9.6520   20.2260 C   0  0  0  0  0  3  0  0  0  0  0  0
  -23.1950  -10.7740   20.0010 C   0  0  0  0  0  3  0  0  0  0  0  0
  -21.9350   -7.5700   21.2590 O   0  0  0  0  0  0  0  0  0  0  0  0
  -21.8560   -6.8620   22.4320 C   0  0  0  0  0  0  0  0  0  0  0  0
  -21.5390   -7.4860   23.6580 C   0  0  0  0  0  3  0  0  0  0  0  0
  -21.3990   -6.7110   24.8270 C   0  0  0  0  0  3  0  0  0  0  0  0
  -21.5670   -5.3140   24.7710 C   0  0  0  0  0  0  0  0  0  0  0  0
  -21.8770   -4.6900   23.5490 C   0  0  0  0  0  3  0  0  0  0  0  0
  -22.0180   -5.4630   22.3820 C   0  0  0  0  0  0  0  0  0  0  0  0
  -22.2960   -4.8550   21.2040 F   0  0  0  0  0  0  0  0  0  0  0  0
  -21.4250   -4.5690   25.8910 F   0  0  0  0  0  0  0  0  0  0  0  0
  -23.6440  -14.0860   21.0810 C   0  0  0  0  0  0  0  0  0  0  0  0
  -22.9850  -13.4280   22.0280 N   0  0  0  0  0  0  0  0  0  0  0  0
  -23.2390  -15.1670   20.6550 O   0  0  0  0  0  0  0  0  0  0  0  0
  -23.3290  -12.5510   22.3900 H   0  0  0  0  0  0  0  0  0  0  0  0
  -22.1250  -13.8070   22.3970 H   0  0  0  0  0  0  0  0  0  0  0  0
  -26.2620  -15.5300   19.8820 N   0  0  0  0  0  0  0  0  0  0  0  0
  -25.4520  -16.1210   20.0420 H   0  0  0  0  0  0  0  0  0  0  0  0
  -26.6690  -15.7390   18.9780 H   0  0  0  0  0  0  0  0  0  0  0  0
  -29.6750  -21.1350   20.5840 C   0  0  0  0  0  3  0  0  0  0  0  0
  -30.8950  -21.0300   22.8610 C   0  0  0  0  0  1  0  0  0  0  0  0
  -29.5480  -21.1200   22.1310 C   0  0  0  0  0  2  0  0  0  0  0  0
  -28.6450  -22.1680   18.6170 C   0  0  0  0  0  1  0  0  0  0  0  0
  -28.8020  -22.2740   20.0690 N   0  0  0  0  0  0  0  0  0  0  0  0
  -29.1820  -23.7180   20.3840 C   0  0  0  0  0  3  0  0  0  0  0  0
  -28.1100  -24.8720   20.0370 C   0  0  0  0  0  3  0  0  0  0  0  0
  -28.3750  -26.3300   20.2400 O   0  0  0  0  0  0  0  0  0  0  0  0
  -24.7670  -31.8440   23.2320 C   0  0  0  0  0  0  0  0  0  0  0  0
  -27.2810  -27.2210   20.1710 C   0  0  0  0  0  0  0  0  0  0  0  0
  -23.5240  -30.4440   21.6230 C   0  0  0  0  0  3  0  0  0  0  0  0
  -24.9380  -28.8780   20.1780 C   0  0  0  0  0  0  0  0  0  0  0  0
  -26.0650  -30.7360   21.3970 C   0  0  0  0  0  2  0  0  0  0  0  0
  -26.1230  -29.3520   20.7560 C   0  0  0  0  0  0  0  0  0  0  0  0
  -27.2970  -28.5350   20.7440 C   0  0  0  0  0  3  0  0  0  0  0  0
  -26.0730  -26.8170   19.5540 C   0  0  0  0  0  3  0  0  0  0  0  0
  -24.9170  -27.6170   19.5670 C   0  0  0  0  0  3  0  0  0  0  0  0
  -23.7090  -29.7620   20.2430 C   0  0  0  0  0  2  0  0  0  0  0  0
  -24.8060  -31.0250   22.1400 N   0  0  0  0  0  0  0  0  0  0  0  0
  -23.6950  -32.1350   23.7820 O   0  0  0  0  0  0  0  0  0  0  0  0
  -22.8700  -29.4390   22.6010 C   0  0  0  0  0  0  0  0  0  0  0  0
  -21.5470  -29.2380   22.4680 N   0  0  0  0  0  0  0  0  0  0  0  0
  -23.5510  -28.8430   23.4390 O   0  0  0  0  0  0  0  0  0  0  0  0
  -21.0560  -29.7710   21.7650 H   0  0  0  0  0  0  0  0  0  0  0  0
  -18.1920  -27.9660   22.9380 C   0  0  0  0  0  0  0  0  0  0  0  0
  -20.7350  -28.3060   23.2550 C   0  0  0  0  0  3  0  0  0  0  0  0
  -20.8900  -26.8580   22.7350 C   0  0  0  0  0  2  0  0  0  0  0  0
  -19.8200  -26.4690   21.7100 C   0  0  0  0  0  2  0  0  0  0  0  0
  -18.4210  -26.5980   22.3170 C   0  0  0  0  0  2  0  0  0  0  0  0
  -19.2800  -28.7740   23.3640 C   0  0  0  0  0  0  0  0  0  0  0  0
  -19.0130  -30.0510   23.9050 C   0  0  0  0  0  3  0  0  0  0  0  0
  -17.6930  -30.5210   24.0240 C   0  0  0  0  0  3  0  0  0  0  0  0
  -16.6190  -29.7110   23.6160 C   0  0  0  0  0  3  0  0  0  0  0  0
  -16.8690  -28.4360   23.0780 C   0  0  0  0  0  3  0  0  0  0  0  0
  -26.0660  -32.4710   23.8260 C   0  0  0  0  0  3  0  0  0  0  0  0
  -26.6310  -31.6700   25.0620 C   0  0  1  0  0  0  0  0  0  0  0  0
  -25.5720  -31.3750   26.1500 C   0  0  0  0  0  1  0  0  0  0  0  0
  -27.2310  -30.3170   24.6120 C   0  0  0  0  0  1  0  0  0  0  0  0
  -27.7830  -32.4670   25.7200 C   0  0  0  0  0  1  0  0  0  0  0  0
  -25.7550  -33.8560   24.2070 N   0  0  0  0  0  0  0  0  0  0  0  0
  -26.0480  -34.9330   23.4670 C   0  0  0  0  0  0  0  0  0  0  0  0
  -26.6800  -34.8670   22.4090 O   0  0  0  0  0  0  0  0  0  0  0  0
  -25.1890  -33.9820   25.0330 H   0  0  0  0  0  0  0  0  0  0  0  0
  -24.2920  -36.7200   23.2330 C   0  0  0  0  0  1  0  0  0  0  0  0
  -25.5680  -36.3040   23.9830 C   0  0  0  0  0  3  0  0  0  0  0  0
  -27.7260  -37.1840   24.7550 C   0  0  0  0  0  1  0  0  0  0  0  0
  -26.5870  -37.3700   23.8620 N   0  0  0  0  0  0  0  0  0  0  0  0
  -26.1780  -38.2820   24.0540 H   0  0  0  0  0  0  0  0  0  0  0  0
  1  2  1  0
  2  3  1  0
  4  2  1  0
  5 13  1  0
  5  2  1  0
  5  6  1  0
  6  8  2  0
  7  6  1  0
  7 10  1  0
  9  7  1  0
 13 11  1  6
 13 12  1  0
 14 20  1  0
 14 13  1  0
 15 20  1  0
 16 17  1  0
 16 15  1  0
 18 17  1  0
 18 25  1  0
 18 19  1  0
 20 19  1  0
 21 14  2  0
 22 23  2  0
 23 42  1  0
 24 23  1  0
 24 27  1  0
 25 26  1  0
 25 22  1  0
 26 24  2  0
 27 28  1  0
 28 29  2  0
 30 33  1  0
 30 29  1  0
 31 30  2  0
 32 31  1  0
 32 27  2  0
 33 34  1  0
 34 35  1  0
 35 36  2  0
 37 36  1  0
 37 41  1  0
 38 37  2  0
 39 34  2  0
 39 38  1  0
 40 39  1  0
 42 43  1  0
 43 45  1  0
 43 46  1  0
 44 42  2  0
 47 48  1  0
 47 22  1  0
 49 47  1  0
 50  1  1  0
 50 52  1  0
 52 51  1  0
 53 54  1  0
 54 55  1  0
 54 50  1  0
 56 57  1  0
 56 55  2  0
 58 69  2  0
 59 57  1  0
 59 64  1  0
 60 68  1  0
 60 70  1  0
 61 67  1  0
 61 63  1  0
 62 68  1  0
 63 62  1  0
 64 63  2  0
 65 66  1  0
 65 59  2  0
 66 61  2  0
 67 60  1  0
 68 58  1  0
 70 72  2  0
 71 70  1  0
 73 71  1  0
 74 83  2  0
 74 79  1  0
 75 71  1  0
 75 79  1  0
 76 75  1  0
 77 78  1  0
 77 76  1  0
 78 74  1  0
 79 80  2  0
 80 81  1  0
 82 81  2  0
 83 82  1  0
 84 58  1  0
 84 89  1  0
 84 85  1  0
 85 88  1  1
 85 86  1  0
 87 85  1  0
 89 92  1  0
 90 94  1  0
 90 89  1  0
 91 90  2  0
 94 93  1  0
 96 94  1  0
 96 97  1  0
 96 95  1  0
M  ISO  4  13 100  14 100  56 101  57 101
M  END
>  <TORSDO>  (40) 
F 25

>  <SCORE>  (40) 
-9.792

>  <name>  (40) 
39

>  <ligand_id>  (40) 
39

>  <original_smiles>  (40) 
[H]c1c([H])c([H])c2c(c1[H])C([H])([H])C([H])([H])C([H])([H])C2([H])N([H])C(=O)C1([H])N(C(=O)C([H])(N([H])C(=O)C([H])(N([H])C([H])([H])[H])C([H])([H])[H])C(C([H])([H])[H])(C([H])([H])[H])C([H])([H])[H])C([H])([H])c2c([H])c(OC([H])([H])C([H])([H])N(C([H])([H])[H])C([H])(C([H])([H])C([H])([H])[H])C([H])([H])[N+]([H])([H])C([H])(C(=O)N([H])[H])C(C(=O)N3C([H])([H])C([H])([H])C([H])([H])C([H])(n4nc(-c5c([H])c([H])c(Oc6c([H])c([H])c(F)c([H])c6F)c([H])c5[H])c(C(=O)N([H])[H])c4N([H])[H])C3([H])[H])(C([H])([H])[H])C([H])([H])[H])c([H])c([H])c2C1([H])[H]

>  <smiles>  (40) 
[H]c1c([H])c([H])c2c(c1[H])C([H])([H])C([H])([H])C([H])([H])C2([H])N([H])C(=O)C1([H])N(C(=O)C([H])(N([H])C(=O)C([H])(N([H])C([H])([H])[H])C([H])([H])[H])C(C([H])([H])[H])(C([H])([H])[H])C([H])([H])[H])C([H])([H])c2c([H])c(OC([H])([H])C([H])([H])N(C([H])([H])[H])C([H])(C([H])([H])C([H])([H])[H])C([H])([H])[N+]([H])([H])C([H])(C(=O)N([H])[H])C(C(=O)N3C([H])([H])C([H])([H])C([H])([H])C([H])(n4nc(-c5c([H])c([H])c(Oc6c([H])c([H])c(F)c([H])c6F)c([H])c5[H])c(C(=O)N([H])[H])c4N([H])[H])C3([H])[H])(C([H])([H])[H])C([H])([H])[H])c([H])c([H])c2C1([H])[H]

$$$$
40:0:0
     RDKit          3D

 99109  0  0  1  0  0  0  0  0999 V2000
  -25.6040  -20.1940   17.9280 N   0  0  0  0  0  0  0  0  0  0  0  0
  -24.6650  -20.5550   17.7830 H   0  0  0  0  0  0  0  0  0  0  0  0
  -28.6120  -22.1290   19.0340 C   0  0  0  0  0  3  0  0  0  0  0  0
  -27.1930  -23.5500   17.6600 C   0  0  0  0  0  3  0  0  0  0  0  0
  -27.7420  -21.0550   18.8130 C   0  0  0  0  0  3  0  0  0  0  0  0
  -26.3370  -22.4570   17.4100 C   0  0  0  0  0  3  0  0  0  0  0  0
  -28.3020  -23.3970   18.5210 C   0  0  0  0  0  0  0  0  0  0  0  0
  -26.5700  -21.2110   18.0320 C   0  0  0  0  0  0  0  0  0  0  0  0
  -29.0660  -24.5920   19.0560 C   0  0  0  0  0  2  0  0  0  0  0  0
  -28.6780  -24.8090   20.5370 C   0  0  0  0  0  2  0  0  0  0  0  0
  -28.6100  -26.1710   20.9250 O   0  0  0  0  0  0  0  0  0  0  0  0
  -24.6580  -31.5560   23.3110 C   0  0  0  0  0  0  0  0  0  0  0  0
  -27.4040  -26.8300   20.8120 C   0  0  0  0  0  0  0  0  0  0  0  0
  -23.5260  -30.0390   21.7140 C   0  0  0  0  0  3  0  0  0  0  0  0
  -25.0300  -28.3430   20.5510 C   0  0  0  0  0  0  0  0  0  0  0  0
  -26.0670  -30.3290   21.6670 C   0  0  0  0  0  2  0  0  0  0  0  0
  -26.1570  -28.9070   21.1600 C   0  0  0  0  0  0  0  0  0  0  0  0
  -27.3440  -28.1570   21.2840 C   0  0  0  0  0  3  0  0  0  0  0  0
  -26.2450  -26.2620   20.2280 C   0  0  0  0  0  3  0  0  0  0  0  0
  -25.0640  -27.0170   20.0880 C   0  0  0  0  0  3  0  0  0  0  0  0
  -23.8090  -29.2230   20.4240 C   0  0  0  0  0  2  0  0  0  0  0  0
  -24.7650  -30.6610   22.2880 N   0  0  0  0  0  0  0  0  0  0  0  0
  -23.5520  -31.9020   23.7480 O   0  0  0  0  0  0  0  0  0  0  0  0
  -22.7810  -29.1290   22.7150 C   0  0  0  0  0  0  0  0  0  0  0  0
  -21.4620  -28.9790   22.5180 N   0  0  0  0  0  0  0  0  0  0  0  0
  -23.3890  -28.5570   23.6240 O   0  0  0  0  0  0  0  0  0  0  0  0
  -21.0400  -29.4850   21.7510 H   0  0  0  0  0  0  0  0  0  0  0  0
  -18.0070  -28.0280   22.9500 C   0  0  0  0  0  0  0  0  0  0  0  0
  -20.5640  -28.1440   23.3130 C   0  0  0  0  0  3  0  0  0  0  0  0
  -20.5980  -26.6760   22.8270 C   0  0  0  0  0  2  0  0  0  0  0  0
  -19.5180  -26.3620   21.7860 C   0  0  0  0  0  2  0  0  0  0  0  0
  -18.1240  -26.6330   22.3590 C   0  0  0  0  0  2  0  0  0  0  0  0
  -19.1550  -28.7430   23.3830 C   0  0  0  0  0  0  0  0  0  0  0  0
  -18.9950  -30.0520   23.8880 C   0  0  0  0  0  3  0  0  0  0  0  0
  -17.7180  -30.6390   23.9730 C   0  0  0  0  0  3  0  0  0  0  0  0
  -16.5840  -29.9200   23.5600 C   0  0  0  0  0  3  0  0  0  0  0  0
  -16.7290  -28.6160   23.0520 C   0  0  0  0  0  3  0  0  0  0  0  0
  -25.9210  -32.2040   23.9640 C   0  0  0  0  0  3  0  0  0  0  0  0
  -26.4260  -31.4330   25.2450 C   0  0  1  0  0  0  0  0  0  0  0  0
  -25.3090  -31.1290   26.2700 C   0  0  0  0  0  1  0  0  0  0  0  0
  -27.0810  -30.0880   24.8510 C   0  0  0  0  0  1  0  0  0  0  0  0
  -27.5180  -32.2640   25.9580 C   0  0  0  0  0  1  0  0  0  0  0  0
  -25.5820  -33.5950   24.2930 N   0  0  0  0  0  0  0  0  0  0  0  0
  -25.8610  -34.6490   23.5120 C   0  0  0  0  0  0  0  0  0  0  0  0
  -26.5030  -34.5530   22.4630 O   0  0  0  0  0  0  0  0  0  0  0  0
  -25.0050  -33.7440   25.1080 H   0  0  0  0  0  0  0  0  0  0  0  0
  -24.0560  -36.3720   23.2090 C   0  0  0  0  0  1  0  0  0  0  0  0
  -25.3460  -36.0260   23.9710 C   0  0  0  0  0  3  0  0  0  0  0  0
  -27.4780  -37.0010   24.6950 C   0  0  0  0  0  1  0  0  0  0  0  0
  -26.3350  -37.1120   23.7930 N   0  0  0  0  0  0  0  0  0  0  0  0
  -25.9030  -38.0190   23.9400 H   0  0  0  0  0  0  0  0  0  0  0  0
  -24.6930  -17.3660   20.1630 C   0  0  0  0  0  3  0  0  0  0  0  0
  -25.9530  -16.7640   20.3490 C   0  0  0  0  0  3  0  0  0  0  0  0
  -24.5470  -18.4900   19.3240 C   0  0  0  0  0  3  0  0  0  0  0  0
  -26.8940  -18.3030   18.7380 C   0  0  0  0  0  3  0  0  0  0  0  0
  -27.0930  -17.2380   19.6550 C   0  0  0  0  0  0  0  0  0  0  0  0
  -25.6690  -18.9840   18.6340 C   0  0  0  0  0  0  0  0  0  0  0  0
  -31.2620  -13.7950   19.7540 C   0  0  0  0  0  0  0  0  0  0  0  0
  -31.0040  -11.4010   19.2190 C   0  0  0  0  0  2  0  0  0  0  0  0
  -30.0040  -11.2160   18.0580 C   0  0  0  0  0  2  0  0  0  0  0  0
  -28.5610  -11.1230   18.5910 C   0  0  0  0  0  2  0  0  0  0  0  0
  -28.2230  -12.2640   19.5850 C   0  0  0  0  0  3  0  0  0  0  0  0
  -29.3310  -12.3830   20.6510 C   0  0  0  0  0  2  0  0  0  0  0  0
  -30.6140  -12.6120   19.9630 N   0  0  0  0  0  0  0  0  0  0  0  0
  -32.3170  -13.8540   19.1120 O   0  0  0  0  0  0  0  0  0  0  0  0
  -28.6150  -15.8970   21.0910 C   0  0  0  0  0  2  0  0  0  0  0  0
  -29.1950  -16.4440   18.6800 C   0  0  0  0  0  2  0  0  0  0  0  0
  -30.0900  -15.4550   21.2400 C   0  0  0  0  0  2  0  0  0  0  0  0
  -30.6270  -16.0240   18.9910 C   0  0  0  0  0  2  0  0  0  0  0  0
  -28.3930  -16.7120   19.8830 N   0  0  0  0  0  0  0  0  0  0  0  0
  -30.5580  -14.9300   19.9550 N   0  0  0  0  0  0  0  0  0  0  0  0
  -25.9510  -13.0100   20.5440 C   0  0  0  0  0  0  0  0  0  0  0  0
  -24.8800  -12.3010   21.0150 C   0  0  0  0  0  0  0  0  0  0  0  0
  -25.2430  -10.9240   20.9090 C   0  0  0  0  0  0  0  0  0  0  0  0
  -26.9090  -12.0710   20.1950 N   0  0  0  0  0  0  0  0  0  0  0  0
  -26.4880  -10.8090   20.4660 N   0  0  0  0  0  0  0  0  0  0  0  0
  -24.4570   -9.7080   21.1450 C   0  0  0  0  0  0  0  0  0  0  0  0
  -24.8670   -8.7340   22.0810 C   0  0  0  0  0  3  0  0  0  0  0  0
  -24.0860   -7.5820   22.3050 C   0  0  0  0  0  3  0  0  0  0  0  0
  -22.8780   -7.3950   21.5920 C   0  0  0  0  0  0  0  0  0  0  0  0
  -22.4840   -8.3560   20.6440 C   0  0  0  0  0  3  0  0  0  0  0  0
  -23.2670   -9.5010   20.4190 C   0  0  0  0  0  3  0  0  0  0  0  0
  -22.0670   -6.2940   21.7250 O   0  0  0  0  0  0  0  0  0  0  0  0
  -21.9520   -5.6250   22.9160 C   0  0  0  0  0  0  0  0  0  0  0  0
  -21.4320   -6.2440   24.0730 C   0  0  0  0  0  3  0  0  0  0  0  0
  -21.2670   -5.4990   25.2570 C   0  0  0  0  0  3  0  0  0  0  0  0
  -21.6130   -4.1340   25.2850 C   0  0  0  0  0  0  0  0  0  0  0  0
  -22.1240   -3.5140   24.1310 C   0  0  0  0  0  3  0  0  0  0  0  0
  -22.2920   -4.2570   22.9500 C   0  0  0  0  0  0  0  0  0  0  0  0
  -22.7660   -3.6490   21.8360 F   0  0  0  0  0  0  0  0  0  0  0  0
  -21.4470   -3.4150   26.4190 F   0  0  0  0  0  0  0  0  0  0  0  0
  -23.5570  -12.8610   21.4520 C   0  0  0  0  0  0  0  0  0  0  0  0
  -22.8760  -12.1810   22.3680 N   0  0  0  0  0  0  0  0  0  0  0  0
  -23.1400  -13.9340   21.0170 O   0  0  0  0  0  0  0  0  0  0  0  0
  -23.2270  -11.3110   22.7410 H   0  0  0  0  0  0  0  0  0  0  0  0
  -21.9900  -12.5360   22.6990 H   0  0  0  0  0  0  0  0  0  0  0  0
  -26.1830  -14.3690   20.3690 N   0  0  0  0  0  0  0  0  0  0  0  0
  -25.4890  -15.0700   20.6020 H   0  0  0  0  0  0  0  0  0  0  0  0
  -27.0650  -14.7700   20.0760 H   0  0  0  0  0  0  0  0  0  0  0  0
  1  8  1  0
  1 57  1  0
  2  1  1  0
  4  7  1  0
  5  3  1  0
  6  4  2  0
  6  8  1  0
  7  3  2  0
  7  9  1  0
  8  5  2  0
  9 10  1  0
 10 11  1  0
 12 23  2  0
 13 11  1  0
 13 18  1  0
 14 22  1  0
 14 24  1  0
 15 17  1  0
 16 22  1  0
 17 18  2  0
 17 16  1  0
 19 13  2  0
 20 19  1  0
 20 15  2  0
 21 15  1  0
 21 14  1  0
 22 12  1  0
 24 26  2  0
 25 24  1  0
 27 25  1  0
 28 37  2  0
 28 33  1  0
 29 25  1  0
 29 33  1  0
 30 29  1  0
 31 32  1  0
 31 30  1  0
 32 28  1  0
 33 34  2  0
 34 35  1  0
 36 35  2  0
 37 36  1  0
 38 12  1  0
 38 43  1  0
 38 39  1  0
 39 42  1  1
 39 40  1  0
 41 39  1  0
 43 46  1  0
 44 48  1  0
 44 43  1  0
 45 44  2  0
 48 47  1  0
 50 51  1  0
 50 48  1  0
 50 49  1  0
 52 53  1  0
 54 52  2  0
 55 56  1  0
 56 70  1  0
 56 53  2  0
 57 55  2  0
 57 54  1  0
 58 71  1  0
 58 64  1  0
 59 64  1  0
 60 61  1  0
 60 59  1  0
 62 61  1  0
 62 75  1  0
 62 63  1  0
 64 63  1  0
 65 58  2  0
 66 68  1  0
 67 69  1  0
 67 70  1  0
 69 71  1  0
 70 66  1  0
 71 68  1  0
 72 73  2  0
 73 92  1  0
 74 73  1  0
 74 77  1  0
 75 76  1  0
 75 72  1  0
 76 74  2  0
 77 78  1  0
 78 79  2  0
 80 83  1  0
 80 79  1  0
 81 80  2  0
 82 81  1  0
 82 77  2  0
 83 84  1  0
 84 89  2  0
 84 85  1  0
 85 86  2  0
 86 87  1  0
 87 91  1  0
 88 87  2  0
 89 88  1  0
 90 89  1  0
 92 93  1  0
 93 96  1  0
 93 95  1  0
 94 92  2  0
 97 72  1  0
 97 98  1  0
 99 97  1  0
M  ISO  4  10 101  11 101  58 100  71 100
M  END
>  <TORSDO>  (41) 
F 20

>  <SCORE>  (41) 
-9.033

>  <name>  (41) 
40

>  <ligand_id>  (41) 
40

>  <original_smiles>  (41) 
[H]c1c([H])c(N([H])c2c([H])c([H])c(C([H])([H])C([H])([H])Oc3c([H])c([H])c4c(c3[H])C([H])([H])N(C(=O)C([H])(N([H])C(=O)C([H])(N([H])C([H])([H])[H])C([H])([H])[H])C(C([H])([H])[H])(C([H])([H])[H])C([H])([H])[H])C([H])(C(=O)N([H])C3([H])c5c([H])c([H])c([H])c([H])c5C([H])([H])C([H])([H])C3([H])[H])C4([H])[H])c([H])c2[H])c([H])c(N2C([H])([H])C([H])([H])N(C(=O)N3C([H])([H])C([H])([H])C([H])([H])C([H])(n4nc(-c5c([H])c([H])c(Oc6c([H])c([H])c(F)c([H])c6F)c([H])c5[H])c(C(=O)N([H])[H])c4N([H])[H])C3([H])[H])C([H])([H])C2([H])[H])c1[H]

>  <smiles>  (41) 
[H]c1c([H])c(N([H])c2c([H])c([H])c(C([H])([H])C([H])([H])Oc3c([H])c([H])c4c(c3[H])C([H])([H])N(C(=O)C([H])(N([H])C(=O)C([H])(N([H])C([H])([H])[H])C([H])([H])[H])C(C([H])([H])[H])(C([H])([H])[H])C([H])([H])[H])C([H])(C(=O)N([H])C3([H])c5c([H])c([H])c([H])c([H])c5C([H])([H])C([H])([H])C3([H])[H])C4([H])[H])c([H])c2[H])c([H])c(N2C([H])([H])C([H])([H])N(C(=O)N3C([H])([H])C([H])([H])C([H])([H])C([H])(n4nc(-c5c([H])c([H])c(Oc6c([H])c([H])c(F)c([H])c6F)c([H])c5[H])c(C(=O)N([H])[H])c4N([H])[H])C3([H])[H])C([H])([H])C2([H])[H])c1[H]

$$$$
41:0:0
     RDKit          3D

 96104  0  0  1  0  0  0  0  0999 V2000
  -28.6430  -20.4710   22.1250 C   0  0  0  0  0  3  0  0  0  0  0  0
  -29.2940  -19.3180   21.6410 C   0  0  0  0  0  3  0  0  0  0  0  0
  -28.9130  -21.7480   21.6010 C   0  0  0  0  0  3  0  0  0  0  0  0
  -30.5410  -20.7210   20.1080 C   0  0  0  0  0  3  0  0  0  0  0  0
  -30.2650  -19.3810   20.6140 C   0  0  0  0  0  0  0  0  0  0  0  0
  -29.8570  -21.9190   20.5700 C   0  0  0  0  0  0  0  0  0  0  0  0
  -30.0170  -23.2250   19.9800 N   0  0  0  0  0  0  0  0  0  0  0  0
  -30.5210  -23.2660   19.0980 H   0  0  0  0  0  0  0  0  0  0  0  0
  -29.7930  -24.5740   20.6300 C   0  0  0  0  0  2  0  0  0  0  0  0
  -28.7330  -25.5700   19.9570 C   0  0  0  0  0  2  0  0  0  0  0  0
  -28.8490  -27.0490   20.1130 O   0  0  0  0  0  0  0  0  0  0  0  0
  -24.5840  -31.8890   23.3220 C   0  0  0  0  0  0  0  0  0  0  0  0
  -27.6640  -27.8100   20.0490 C   0  0  0  0  0  0  0  0  0  0  0  0
  -23.5380  -30.4520   21.6120 C   0  0  0  0  0  3  0  0  0  0  0  0
  -25.1420  -29.1640   20.0930 C   0  0  0  0  0  0  0  0  0  0  0  0
  -26.0220  -31.0700   21.4370 C   0  0  0  0  0  2  0  0  0  0  0  0
  -26.2510  -29.7450   20.7180 C   0  0  0  0  0  0  0  0  0  0  0  0
  -27.5170  -29.0840   20.6840 C   0  0  0  0  0  3  0  0  0  0  0  0
  -26.5290  -27.2970   19.3790 C   0  0  0  0  0  3  0  0  0  0  0  0
  -25.2830  -27.9470   19.4120 C   0  0  0  0  0  3  0  0  0  0  0  0
  -23.8140  -29.8860   20.1940 C   0  0  0  0  0  2  0  0  0  0  0  0
  -24.7330  -31.1530   22.1810 N   0  0  0  0  0  0  0  0  0  0  0  0
  -23.4780  -32.0150   23.8670 O   0  0  0  0  0  0  0  0  0  0  0  0
  -23.0020  -29.3160   22.5140 C   0  0  0  0  0  0  0  0  0  0  0  0
  -21.7500  -28.8910   22.2690 N   0  0  0  0  0  0  0  0  0  0  0  0
  -23.7120  -28.8190   23.3910 O   0  0  0  0  0  0  0  0  0  0  0  0
  -21.2280  -29.3560   21.5390 H   0  0  0  0  0  0  0  0  0  0  0  0
  -18.6720  -26.9970   22.3980 C   0  0  0  0  0  0  0  0  0  0  0  0
  -21.0610  -27.8070   22.9690 C   0  0  0  0  0  3  0  0  0  0  0  0
  -21.5400  -26.4260   22.4660 C   0  0  0  0  0  2  0  0  0  0  0  0
  -20.6700  -25.8610   21.3380 C   0  0  0  0  0  2  0  0  0  0  0  0
  -19.2180  -25.7100   21.8020 C   0  0  0  0  0  2  0  0  0  0  0  0
  -19.5390  -27.9860   22.9320 C   0  0  0  0  0  0  0  0  0  0  0  0
  -18.9800  -29.1780   23.4450 C   0  0  0  0  0  3  0  0  0  0  0  0
  -17.5890  -29.3860   23.4350 C   0  0  0  0  0  3  0  0  0  0  0  0
  -16.7360  -28.3960   22.9180 C   0  0  0  0  0  3  0  0  0  0  0  0
  -17.2760  -27.2040   22.4050 C   0  0  0  0  0  3  0  0  0  0  0  0
  -25.7890  -32.6250   23.9800 C   0  0  0  0  0  3  0  0  0  0  0  0
  -25.3660  -34.0040   24.2630 N   0  0  0  0  0  0  0  0  0  0  0  0
  -25.6640  -35.0650   23.4990 C   0  0  0  0  0  0  0  0  0  0  0  0
  -26.3940  -34.9910   22.5080 O   0  0  0  0  0  0  0  0  0  0  0  0
  -24.7130  -34.1290   25.0210 H   0  0  0  0  0  0  0  0  0  0  0  0
  -23.8410  -36.7300   23.0130 C   0  0  0  0  0  1  0  0  0  0  0  0
  -25.0580  -36.4240   23.9010 C   0  0  0  0  0  3  0  0  0  0  0  0
  -27.0840  -37.4590   24.8270 C   0  0  0  0  0  1  0  0  0  0  0  0
  -26.0210  -37.5440   23.8280 N   0  0  0  0  0  0  0  0  0  0  0  0
  -25.5470  -38.4350   23.9500 H   0  0  0  0  0  0  0  0  0  0  0  0
  -26.3070  -31.9230   25.2950 C   0  0  1  0  0  0  0  0  0  0  0  0
  -25.1820  -31.5820   26.3010 C   0  0  0  0  0  1  0  0  0  0  0  0
  -27.0520  -30.6130   24.9560 C   0  0  0  0  0  1  0  0  0  0  0  0
  -27.3280  -32.8390   26.0110 C   0  0  0  0  0  1  0  0  0  0  0  0
  -30.7370  -17.9760   19.9750 C   0  0  0  0  0  3  0  0  0  0  0  0
  -30.9360  -18.0860   18.5090 N   0  0  0  0  0  4  0  0  0  0  0  0
  -31.8320  -18.5090   18.3210 H   0  0  0  0  0  0  0  0  0  0  0  0
  -30.9610  -17.1590   18.1250 H   0  0  0  0  0  0  0  0  0  0  0  0
  -29.7290  -18.4350   16.3300 C   0  0  0  0  0  1  0  0  0  0  0  0
  -29.8550  -18.8330   17.8040 C   0  0  0  0  0  2  0  0  0  0  0  0
  -31.0740  -16.5620   22.1670 C   0  0  0  0  0  1  0  0  0  0  0  0
  -32.9900  -17.5910   21.1790 C   0  0  0  0  0  1  0  0  0  0  0  0
  -31.6850  -16.8670   20.7530 C   0  0  2  0  0  0  0  0  0  0  0  0
  -32.1480  -15.4820   19.9780 C   0  0  0  0  0  0  0  0  0  0  0  0
  -31.8610  -13.1680   18.9940 C   0  0  0  0  0  2  0  0  0  0  0  0
  -30.9200  -13.1620   17.7640 C   0  0  0  0  0  2  0  0  0  0  0  0
  -29.4450  -13.0550   18.1940 C   0  0  0  0  0  2  0  0  0  0  0  0
  -29.1140  -14.0430   19.3370 C   0  0  0  0  0  3  0  0  0  0  0  0
  -30.1450  -13.9650   20.4700 C   0  0  0  0  0  2  0  0  0  0  0  0
  -31.4640  -14.2790   19.9080 N   0  0  0  0  0  0  0  0  0  0  0  0
  -33.2340  -15.5240   19.3830 O   0  0  0  0  0  0  0  0  0  0  0  0
  -26.8290  -14.8370   20.1860 C   0  0  0  0  0  0  0  0  0  0  0  0
  -25.7200  -14.1580   20.5930 C   0  0  0  0  0  0  0  0  0  0  0  0
  -26.0510  -12.7700   20.4990 C   0  0  0  0  0  0  0  0  0  0  0  0
  -27.7660  -13.8730   19.8580 N   0  0  0  0  0  0  0  0  0  0  0  0
  -27.3120  -12.6230   20.1150 N   0  0  0  0  0  0  0  0  0  0  0  0
  -25.2210  -11.5760   20.6840 C   0  0  0  0  0  0  0  0  0  0  0  0
  -25.5370  -10.5960   21.6500 C   0  0  0  0  0  3  0  0  0  0  0  0
  -24.7120   -9.4650   21.8160 C   0  0  0  0  0  3  0  0  0  0  0  0
  -23.5540   -9.3070   21.0170 C   0  0  0  0  0  0  0  0  0  0  0  0
  -23.2590  -10.2730   20.0380 C   0  0  0  0  0  3  0  0  0  0  0  0
  -24.0850  -11.3960   19.8690 C   0  0  0  0  0  3  0  0  0  0  0  0
  -22.7060   -8.2280   21.0930 O   0  0  0  0  0  0  0  0  0  0  0  0
  -22.4410   -7.6070   22.2860 C   0  0  0  0  0  0  0  0  0  0  0  0
  -21.9030   -8.3070   23.3880 C   0  0  0  0  0  3  0  0  0  0  0  0
  -21.5760   -7.6130   24.5700 C   0  0  0  0  0  3  0  0  0  0  0  0
  -21.7770   -6.2220   24.6490 C   0  0  0  0  0  0  0  0  0  0  0  0
  -22.3090   -5.5230   23.5510 C   0  0  0  0  0  3  0  0  0  0  0  0
  -22.6350   -6.2140   22.3700 C   0  0  0  0  0  0  0  0  0  0  0  0
  -23.1250   -5.5320   21.3080 F   0  0  0  0  0  0  0  0  0  0  0  0
  -21.4570   -5.5540   25.7820 F   0  0  0  0  0  0  0  0  0  0  0  0
  -24.3860  -14.7490   20.9480 C   0  0  0  0  0  0  0  0  0  0  0  0
  -23.6550  -14.1040   21.8460 N   0  0  0  0  0  0  0  0  0  0  0  0
  -24.0130  -15.8170   20.4620 O   0  0  0  0  0  0  0  0  0  0  0  0
  -23.9790  -13.2360   22.2530 H   0  0  0  0  0  0  0  0  0  0  0  0
  -22.7570  -14.4710   22.1280 H   0  0  0  0  0  0  0  0  0  0  0  0
  -27.1120  -16.1920   20.0300 N   0  0  0  0  0  0  0  0  0  0  0  0
  -26.3340  -16.8380   20.1020 H   0  0  0  0  0  0  0  0  0  0  0  0
  -27.7660  -16.4660   19.3160 H   0  0  0  0  0  0  0  0  0  0  0  0
  2  1  1  0
  3  1  2  0
  4  6  2  0
  4  5  1  0
  5  2  2  0
  6  3  1  0
  7  6  1  0
  7  9  1  0
  8  7  1  0
 10 11  1  0
 10  9  1  0
 12 23  2  0
 13 11  1  0
 13 18  1  0
 14 22  1  0
 14 24  1  0
 15 21  1  0
 15 17  1  0
 16 22  1  0
 17 16  1  0
 18 17  2  0
 19 20  1  0
 19 13  2  0
 20 15  2  0
 21 14  1  0
 22 12  1  0
 24 26  2  0
 25 24  1  0
 27 25  1  0
 28 37  2  0
 28 33  1  0
 29 25  1  0
 30 29  1  0
 31 32  1  0
 31 30  1  0
 32 28  1  0
 33 29  1  0
 33 34  2  0
 35 34  1  0
 36 35  2  0
 37 36  1  0
 38 12  1  0
 38 39  1  0
 38 48  1  0
 39 42  1  0
 40 44  1  0
 40 39  1  0
 41 40  2  0
 44 43  1  0
 46 44  1  0
 46 47  1  0
 46 45  1  0
 48 51  1  1
 48 49  1  0
 50 48  1  0
 52  5  1  0
 52 60  1  0
 53 52  1  0
 54 53  1  0
 55 53  1  0
 56 57  1  0
 57 53  1  0
 60 59  1  1
 60 58  1  0
 61 60  1  0
 62 67  1  0
 63 64  1  0
 63 62  1  0
 65 64  1  0
 65 72  1  0
 65 66  1  0
 67 61  1  0
 67 66  1  0
 68 61  2  0
 69 70  2  0
 70 89  1  0
 71 70  1  0
 71 74  1  0
 72 73  1  0
 72 69  1  0
 73 71  2  0
 74 75  1  0
 75 76  2  0
 77 80  1  0
 77 76  1  0
 78 77  2  0
 79 78  1  0
 79 74  2  0
 80 81  1  0
 81 86  2  0
 81 82  1  0
 82 83  2  0
 83 84  1  0
 84 88  1  0
 85 84  2  0
 86 85  1  0
 87 86  1  0
 89 90  1  0
 90 93  1  0
 90 92  1  0
 91 89  2  0
 94 95  1  0
 94 69  1  0
 96 94  1  0
M  ISO  4  10 101  11 101  60 100  61 100
M  END
>  <TORSDO>  (42) 
F 23

>  <SCORE>  (42) 
-7.152

>  <name>  (42) 
41

>  <ligand_id>  (42) 
41

>  <original_smiles>  (42) 
[H]c1c([H])c([H])c2c(c1[H])C([H])([H])C([H])([H])C([H])([H])C2([H])N([H])C(=O)C1([H])N(C(=O)C([H])(N([H])C(=O)C([H])(N([H])C([H])([H])[H])C([H])([H])[H])C(C([H])([H])[H])(C([H])([H])[H])C([H])([H])[H])C([H])([H])c2c([H])c(OC([H])([H])C([H])([H])N([H])c3c([H])c([H])c([H])c(C([H])(C(C(=O)N4C([H])([H])C([H])([H])C([H])([H])C([H])(n5nc(-c6c([H])c([H])c(Oc7c([H])c([H])c(F)c([H])c7F)c([H])c6[H])c(C(=O)N([H])[H])c5N([H])[H])C4([H])[H])(C([H])([H])[H])C([H])([H])[H])[N+]([H])([H])C([H])([H])C([H])([H])[H])c3[H])c([H])c([H])c2C1([H])[H]

>  <smiles>  (42) 
[H]c1c([H])c([H])c2c(c1[H])C([H])([H])C([H])([H])C([H])([H])C2([H])N([H])C(=O)C1([H])N(C(=O)C([H])(N([H])C(=O)C([H])(N([H])C([H])([H])[H])C([H])([H])[H])C(C([H])([H])[H])(C([H])([H])[H])C([H])([H])[H])C([H])([H])c2c([H])c(OC([H])([H])C([H])([H])N([H])c3c([H])c([H])c([H])c(C([H])(C(C(=O)N4C([H])([H])C([H])([H])C([H])([H])C([H])(n5nc(-c6c([H])c([H])c(Oc7c([H])c([H])c(F)c([H])c7F)c([H])c6[H])c(C(=O)N([H])[H])c5N([H])[H])C4([H])[H])(C([H])([H])[H])C([H])([H])[H])[N+]([H])([H])C([H])([H])C([H])([H])[H])c3[H])c([H])c([H])c2C1([H])[H]

$$$$
43:0:0
     RDKit          3D

 91 99  0  0  1  0  0  0  0  0999 V2000
  -29.2870  -23.1400   20.0400 C   0  0  0  0  0  0  0  0  0  0  0  0
  -30.3120  -22.8780   17.2250 C   0  0  0  0  0  2  0  0  0  0  0  0
  -28.9070  -23.4810   17.0270 C   0  0  0  0  0  2  0  0  0  0  0  0
  -30.3530  -21.5690   18.0330 C   0  0  0  0  0  2  0  0  0  0  0  0
  -28.6450  -24.7120   17.9200 C   0  0  0  0  0  2  0  0  0  0  0  0
  -29.5190  -21.4980   19.3330 C   0  0  0  0  0  3  0  0  0  0  0  0
  -28.3860  -24.4970   19.4320 C   0  0  0  0  0  3  0  0  0  0  0  0
  -29.8750  -23.3630   21.1020 O   0  0  0  0  0  0  0  0  0  0  0  0
  -29.8010  -19.9960   21.4020 C   0  0  0  0  0  0  0  0  0  0  0  0
  -28.9130  -20.9830   22.1580 C   0  0  0  0  0  1  0  0  0  0  0  0
  -29.8650  -20.0360   20.0510 N   0  0  0  0  0  0  0  0  0  0  0  0
  -30.3690  -19.1310   22.0730 O   0  0  0  0  0  0  0  0  0  0  0  0
  -30.2480  -18.5700   19.3540 C   0  0  0  0  0  2  0  0  0  0  0  0
  -30.0640  -16.8910   19.9500 C   0  0  0  0  0  2  0  0  0  0  0  0
  -30.8680  -15.3810   19.6350 C   0  0  0  0  0  0  0  0  0  0  0  0
  -30.7730  -12.9210   18.8310 C   0  0  0  0  0  2  0  0  0  0  0  0
  -29.7660  -12.7630   17.6620 C   0  0  0  0  0  2  0  0  0  0  0  0
  -28.3330  -12.5540   18.1880 C   0  0  0  0  0  2  0  0  0  0  0  0
  -27.9880  -13.5290   19.3400 C   0  0  0  0  0  3  0  0  0  0  0  0
  -29.1100  -13.6290   20.3930 C   0  0  0  0  0  2  0  0  0  0  0  0
  -30.3260  -14.0710   19.6930 N   0  0  0  0  0  0  0  0  0  0  0  0
  -32.0470  -15.3930   19.2520 O   0  0  0  0  0  0  0  0  0  0  0  0
  -25.6960  -14.1460   20.2840 C   0  0  0  0  0  0  0  0  0  0  0  0
  -24.6370  -13.3960   20.7100 C   0  0  0  0  0  0  0  0  0  0  0  0
  -25.0520  -12.0310   20.6080 C   0  0  0  0  0  0  0  0  0  0  0  0
  -26.6880  -13.2450   19.9370 N   0  0  0  0  0  0  0  0  0  0  0  0
  -26.3150  -11.9630   20.1990 N   0  0  0  0  0  0  0  0  0  0  0  0
  -24.2970  -10.7890   20.8180 C   0  0  0  0  0  0  0  0  0  0  0  0
  -24.6790   -9.8430   21.7940 C   0  0  0  0  0  3  0  0  0  0  0  0
  -23.9220   -8.6680   21.9900 C   0  0  0  0  0  3  0  0  0  0  0  0
  -22.7650   -8.4310   21.2100 C   0  0  0  0  0  0  0  0  0  0  0  0
  -22.4010   -9.3630   20.2220 C   0  0  0  0  0  3  0  0  0  0  0  0
  -23.1610  -10.5290   20.0250 C   0  0  0  0  0  3  0  0  0  0  0  0
  -21.9820   -7.3070   21.3120 O   0  0  0  0  0  0  0  0  0  0  0  0
  -21.7850   -6.6730   22.5130 C   0  0  0  0  0  0  0  0  0  0  0  0
  -21.2120   -7.3370   23.6200 C   0  0  0  0  0  3  0  0  0  0  0  0
  -20.9640   -6.6310   24.8140 C   0  0  0  0  0  3  0  0  0  0  0  0
  -21.2780   -5.2610   24.8990 C   0  0  0  0  0  0  0  0  0  0  0  0
  -21.8440   -4.5970   23.7970 C   0  0  0  0  0  3  0  0  0  0  0  0
  -22.0930   -5.3010   22.6060 C   0  0  0  0  0  0  0  0  0  0  0  0
  -22.6170   -4.6500   21.5390 F   0  0  0  0  0  0  0  0  0  0  0  0
  -21.0330   -4.5800   26.0430 F   0  0  0  0  0  0  0  0  0  0  0  0
  -23.2820  -13.9090   21.0960 C   0  0  0  0  0  0  0  0  0  0  0  0
  -22.6140  -13.2390   22.0280 N   0  0  0  0  0  0  0  0  0  0  0  0
  -22.8290  -14.9430   20.6040 O   0  0  0  0  0  0  0  0  0  0  0  0
  -22.9960  -12.4020   22.4420 H   0  0  0  0  0  0  0  0  0  0  0  0
  -21.7090  -13.5680   22.3310 H   0  0  0  0  0  0  0  0  0  0  0  0
  -25.8950  -15.5170   20.1320 N   0  0  0  0  0  0  0  0  0  0  0  0
  -25.1660  -16.1950   20.3300 H   0  0  0  0  0  0  0  0  0  0  0  0
  -26.7320  -15.9360   19.7500 H   0  0  0  0  0  0  0  0  0  0  0  0
  -28.4030  -26.0310   19.9860 O   0  0  0  0  0  0  0  0  0  0  0  0
  -24.5260  -31.7350   22.9450 C   0  0  0  0  0  0  0  0  0  0  0  0
  -27.3300  -27.0500   19.8880 C   0  0  0  0  0  0  0  0  0  0  0  0
  -23.3950  -30.2660   21.3260 C   0  0  0  0  0  3  0  0  0  0  0  0
  -24.9170  -28.7590   19.8800 C   0  0  0  0  0  0  0  0  0  0  0  0
  -25.9390  -30.6420   21.1400 C   0  0  0  0  0  2  0  0  0  0  0  0
  -26.0840  -29.2430   20.4820 C   0  0  0  0  0  0  0  0  0  0  0  0
  -27.2840  -28.4070   20.4670 C   0  0  0  0  0  3  0  0  0  0  0  0
  -26.1250  -26.7100   19.2330 C   0  0  0  0  0  3  0  0  0  0  0  0
  -24.9590  -27.5140   19.2340 C   0  0  0  0  0  3  0  0  0  0  0  0
  -23.6430  -29.5970   19.9460 C   0  0  0  0  0  2  0  0  0  0  0  0
  -24.6400  -30.9090   21.8570 N   0  0  0  0  0  0  0  0  0  0  0  0
  -23.4300  -31.9600   23.4830 O   0  0  0  0  0  0  0  0  0  0  0  0
  -22.7770  -29.2310   22.3020 C   0  0  0  0  0  0  0  0  0  0  0  0
  -21.4560  -28.9940   22.2020 N   0  0  0  0  0  0  0  0  0  0  0  0
  -23.4920  -28.6420   23.1160 O   0  0  0  0  0  0  0  0  0  0  0  0
  -20.9280  -29.5210   21.5200 H   0  0  0  0  0  0  0  0  0  0  0  0
  -18.1550  -27.5990   22.7680 C   0  0  0  0  0  0  0  0  0  0  0  0
  -20.7000  -28.0140   22.9890 C   0  0  0  0  0  3  0  0  0  0  0  0
  -20.8740  -26.5860   22.4170 C   0  0  0  0  0  2  0  0  0  0  0  0
  -19.7750  -26.1990   21.4210 C   0  0  0  0  0  2  0  0  0  0  0  0
  -18.3980  -26.2630   22.0880 C   0  0  0  0  0  2  0  0  0  0  0  0
  -19.2340  -28.4290   23.1770 C   0  0  0  0  0  0  0  0  0  0  0  0
  -18.9480  -29.6740   23.7770 C   0  0  0  0  0  3  0  0  0  0  0  0
  -17.6180  -30.0930   23.9700 C   0  0  0  0  0  3  0  0  0  0  0  0
  -16.5550  -29.2640   23.5740 C   0  0  0  0  0  3  0  0  0  0  0  0
  -16.8240  -28.0180   22.9790 C   0  0  0  0  0  3  0  0  0  0  0  0
  -25.7670  -32.4520   23.5590 C   0  0  0  0  0  3  0  0  0  0  0  0
  -26.3890  -31.6720   24.7830 C   0  0  1  0  0  0  0  0  0  0  0  0
  -25.3540  -31.2810   25.8660 C   0  0  0  0  0  1  0  0  0  0  0  0
  -27.0890  -30.3750   24.3160 C   0  0  0  0  0  1  0  0  0  0  0  0
  -27.4790  -32.5400   25.4560 C   0  0  0  0  0  1  0  0  0  0  0  0
  -25.3490  -33.8020   23.9770 N   0  0  0  0  0  0  0  0  0  0  0  0
  -25.5860  -34.9260   23.2850 C   0  0  0  0  0  0  0  0  0  0  0  0
  -26.2420  -34.9380   22.2410 O   0  0  0  0  0  0  0  0  0  0  0  0
  -24.7600  -33.8590   24.7940 H   0  0  0  0  0  0  0  0  0  0  0  0
  -23.7280  -36.6110   23.0690 C   0  0  0  0  0  1  0  0  0  0  0  0
  -25.0060  -36.2440   23.8390 C   0  0  0  0  0  3  0  0  0  0  0  0
  -27.0800  -37.2310   24.7130 C   0  0  0  0  0  1  0  0  0  0  0  0
  -25.9580  -37.3750   23.7870 N   0  0  0  0  0  0  0  0  0  0  0  0
  -25.4880  -38.2520   23.9940 H   0  0  0  0  0  0  0  0  0  0  0  0
  1  8  2  0
  2  4  1  0
  3  2  1  0
  3  5  1  0
  4  6  1  0
  5  7  1  0
  6  1  1  0
  6 11  1  0
  7 51  1  0
  7  1  1  0
  9 12  2  0
  9 10  1  0
 11  9  1  0
 13 14  1  0
 13 11  1  0
 15 21  1  0
 15 14  1  0
 16 21  1  0
 17 18  1  0
 17 16  1  0
 19 18  1  0
 19 26  1  0
 19 20  1  0
 21 20  1  0
 22 15  2  0
 23 24  2  0
 24 43  1  0
 25 24  1  0
 25 28  1  0
 26 27  1  0
 26 23  1  0
 27 25  2  0
 28 29  1  0
 29 30  2  0
 31 34  1  0
 31 30  1  0
 32 31  2  0
 33 32  1  0
 33 28  2  0
 34 35  1  0
 35 40  2  0
 35 36  1  0
 36 37  2  0
 37 38  1  0
 38 42  1  0
 39 38  2  0
 40 39  1  0
 41 40  1  0
 43 44  1  0
 44 47  1  0
 44 46  1  0
 45 43  2  0
 48 23  1  0
 48 49  1  0
 50 48  1  0
 52 63  2  0
 53 51  1  0
 53 58  1  0
 54 62  1  0
 54 64  1  0
 55 61  1  0
 55 57  1  0
 56 62  1  0
 57 56  1  0
 58 57  2  0
 59 60  1  0
 59 53  2  0
 60 55  2  0
 61 54  1  0
 62 52  1  0
 64 66  2  0
 65 64  1  0
 67 65  1  0
 68 77  2  0
 68 73  1  0
 69 65  1  0
 69 73  1  0
 70 69  1  0
 71 72  1  0
 71 70  1  0
 72 68  1  0
 73 74  2  0
 74 75  1  0
 76 75  2  0
 77 76  1  0
 78 52  1  0
 78 83  1  0
 78 79  1  0
 79 82  1  1
 79 80  1  0
 81 79  1  0
 83 86  1  0
 84 88  1  0
 84 83  1  0
 85 84  2  0
 88 87  1  0
 90 88  1  0
 90 91  1  0
 90 89  1  0
M  ISO  4   7 101  14 100  15 100  51 101
M  END
>  <TORSDO>  (43) 
F 19

>  <SCORE>  (43) 
-13.281

>  <name>  (43) 
43

>  <ligand_id>  (43) 
43

>  <original_smiles>  (43) 
[H]c1c([H])c([H])c2c(c1[H])C([H])([H])C([H])([H])C([H])([H])C2([H])N([H])C(=O)C1([H])N(C(=O)C([H])(N([H])C(=O)C([H])(N([H])C([H])([H])[H])C([H])([H])[H])C(C([H])([H])[H])(C([H])([H])[H])C([H])([H])[H])C([H])([H])c2c([H])c(OC3([H])C(=O)C([H])(N(C(=O)C([H])([H])[H])C([H])([H])C([H])([H])C(=O)N4C([H])([H])C([H])([H])C([H])([H])C([H])(n5nc(-c6c([H])c([H])c(Oc7c([H])c([H])c(F)c([H])c7F)c([H])c6[H])c(C(=O)N([H])[H])c5N([H])[H])C4([H])[H])C([H])([H])C([H])([H])C([H])([H])C3([H])[H])c([H])c([H])c2C1([H])[H]

>  <smiles>  (43) 
[H]c1c([H])c([H])c2c(c1[H])C([H])([H])C([H])([H])C([H])([H])C2([H])N([H])C(=O)C1([H])N(C(=O)C([H])(N([H])C(=O)C([H])(N([H])C([H])([H])[H])C([H])([H])[H])C(C([H])([H])[H])(C([H])([H])[H])C([H])([H])[H])C([H])([H])c2c([H])c(OC3([H])C(=O)C([H])(N(C(=O)C([H])([H])[H])C([H])([H])C([H])([H])C(=O)N4C([H])([H])C([H])([H])C([H])([H])C([H])(n5nc(-c6c([H])c([H])c(Oc7c([H])c([H])c(F)c([H])c7F)c([H])c6[H])c(C(=O)N([H])[H])c5N([H])[H])C4([H])[H])C([H])([H])C([H])([H])C([H])([H])C3([H])[H])c([H])c([H])c2C1([H])[H]

$$$$
44:0:0
     RDKit          3D

 88 92  0  0  1  0  0  0  0  0999 V2000
  -28.4300  -21.4780   20.3120 C   0  0  0  0  0  1  0  0  0  0  0  0
  -27.1070  -21.0530   19.8540 N   0  0  0  0  0  0  0  0  0  0  0  0
  -26.7710  -20.2360   20.3660 H   0  0  0  0  0  0  0  0  0  0  0  0
  -26.4070  -21.7620   20.0470 H   0  0  0  0  0  0  0  0  0  0  0  0
  -28.3100  -23.4950   19.8730 C   0  0  0  0  0  1  0  0  0  0  0  0
  -28.1070  -25.2820   20.3480 O   0  0  0  0  0  0  0  0  0  0  0  0
  -24.6230  -31.8300   23.1250 C   0  0  0  0  0  0  0  0  0  0  0  0
  -27.1800  -26.5850   20.1990 C   0  0  0  0  0  0  0  0  0  0  0  0
  -23.4690  -30.4040   21.4870 C   0  0  0  0  0  3  0  0  0  0  0  0
  -24.9430  -28.7300   20.0980 C   0  0  0  0  0  0  0  0  0  0  0  0
  -26.0590  -30.5030   21.4370 C   0  0  0  0  0  2  0  0  0  0  0  0
  -26.1250  -29.0530   20.7700 C   0  0  0  0  0  0  0  0  0  0  0  0
  -27.2110  -28.0060   20.7940 C   0  0  0  0  0  3  0  0  0  0  0  0
  -25.9710  -26.5280   19.4430 C   0  0  0  0  0  3  0  0  0  0  0  0
  -24.9170  -27.5010   19.4100 C   0  0  0  0  0  3  0  0  0  0  0  0
  -23.7430  -29.6950   20.1270 C   0  0  0  0  0  2  0  0  0  0  0  0
  -24.7410  -30.9540   22.0650 N   0  0  0  0  0  0  0  0  0  0  0  0
  -23.5180  -32.1380   23.6040 O   0  0  0  0  0  0  0  0  0  0  0  0
  -22.7300  -29.4510   22.4670 C   0  0  0  0  0  0  0  0  0  0  0  0
  -21.3960  -29.3220   22.3490 N   0  0  0  0  0  0  0  0  0  0  0  0
  -23.3770  -28.8210   23.3050 O   0  0  0  0  0  0  0  0  0  0  0  0
  -20.9260  -29.8930   21.6590 H   0  0  0  0  0  0  0  0  0  0  0  0
  -17.9830  -28.1690   22.9030 C   0  0  0  0  0  0  0  0  0  0  0  0
  -20.5550  -28.3940   23.1220 C   0  0  0  0  0  3  0  0  0  0  0  0
  -20.6190  -26.9630   22.5410 C   0  0  0  0  0  2  0  0  0  0  0  0
  -19.4960  -26.6710   21.5360 C   0  0  0  0  0  2  0  0  0  0  0  0
  -18.1260  -26.8270   22.2020 C   0  0  0  0  0  2  0  0  0  0  0  0
  -19.1230  -28.9110   23.3200 C   0  0  0  0  0  0  0  0  0  0  0  0
  -18.9300  -30.1620   23.9400 C   0  0  0  0  0  3  0  0  0  0  0  0
  -17.6350  -30.6740   24.1490 C   0  0  0  0  0  3  0  0  0  0  0  0
  -16.5120  -29.9280   23.7490 C   0  0  0  0  0  3  0  0  0  0  0  0
  -16.6870  -28.6790   23.1310 C   0  0  0  0  0  3  0  0  0  0  0  0
  -25.8630  -32.5110   23.7800 C   0  0  0  0  0  3  0  0  0  0  0  0
  -25.5130  -33.9070   24.1070 N   0  0  0  0  0  0  0  0  0  0  0  0
  -25.8430  -34.9840   23.3820 C   0  0  0  0  0  0  0  0  0  0  0  0
  -26.5240  -34.9030   22.3570 O   0  0  0  0  0  0  0  0  0  0  0  0
  -24.9130  -34.0410   24.9090 H   0  0  0  0  0  0  0  0  0  0  0  0
  -24.1000  -36.7800   23.0480 C   0  0  0  0  0  1  0  0  0  0  0  0
  -25.3360  -36.3660   23.8610 C   0  0  0  0  0  3  0  0  0  0  0  0
  -27.4550  -37.2620   24.7230 C   0  0  0  0  0  1  0  0  0  0  0  0
  -26.3560  -37.4350   23.7780 N   0  0  0  0  0  0  0  0  0  0  0  0
  -25.9390  -38.3460   23.9440 H   0  0  0  0  0  0  0  0  0  0  0  0
  -26.3540  -31.7750   25.0900 C   0  0  1  0  0  0  0  0  0  0  0  0
  -25.2380  -31.5430   26.1380 C   0  0  0  0  0  1  0  0  0  0  0  0
  -26.9720  -30.3960   24.7670 C   0  0  0  0  0  1  0  0  0  0  0  0
  -27.4780  -32.5990   25.7670 C   0  0  0  0  0  1  0  0  0  0  0  0
  -29.3250  -19.6880   19.8840 C   0  0  0  0  0  1  0  0  0  0  0  0
  -30.2460  -20.5500   17.5980 C   0  0  0  0  0  1  0  0  0  0  0  0
  -29.3280  -19.7020   18.3990 N   0  0  0  0  0  4  0  0  0  0  0  0
  -30.1780  -19.2260   18.6500 H   0  0  0  0  0  0  0  0  0  0  0  0
  -28.8500  -20.5620   18.6360 H   0  0  0  0  0  0  0  0  0  0  0  0
  -29.3020  -17.6870   20.3100 C   0  0  0  0  0  1  0  0  0  0  0  0
  -30.1720  -15.9400   20.0810 C   0  0  0  0  0  0  0  0  0  0  0  0
  -30.4150  -13.3280   19.2960 C   0  0  0  0  0  2  0  0  0  0  0  0
  -29.5340  -12.8320   18.1010 C   0  0  0  0  0  2  0  0  0  0  0  0
  -28.1130  -12.4680   18.5550 C   0  0  0  0  0  2  0  0  0  0  0  0
  -27.5940  -13.4520   19.6270 C   0  0  0  0  0  3  0  0  0  0  0  0
  -28.6310  -13.7940   20.7200 C   0  0  0  0  0  2  0  0  0  0  0  0
  -29.7590  -14.5060   20.0610 N   0  0  0  0  0  0  0  0  0  0  0  0
  -31.4000  -15.8730   19.8550 O   0  0  0  0  0  0  0  0  0  0  0  0
  -25.2500  -13.9590   20.4330 C   0  0  0  0  0  0  0  0  0  0  0  0
  -24.2030  -13.1660   20.8190 C   0  0  0  0  0  0  0  0  0  0  0  0
  -24.6850  -11.8230   20.7710 C   0  0  0  0  0  0  0  0  0  0  0  0
  -26.2930  -13.0920   20.1690 N   0  0  0  0  0  0  0  0  0  0  0  0
  -25.9720  -11.7990   20.4400 N   0  0  0  0  0  0  0  0  0  0  0  0
  -23.9680  -10.5530   20.9610 C   0  0  0  0  0  0  0  0  0  0  0  0
  -24.4030   -9.5890   21.8970 C   0  0  0  0  0  3  0  0  0  0  0  0
  -23.6790   -8.3910   22.0820 C   0  0  0  0  0  3  0  0  0  0  0  0
  -22.5060   -8.1470   21.3280 C   0  0  0  0  0  0  0  0  0  0  0  0
  -22.0870   -9.1020   20.3870 C   0  0  0  0  0  3  0  0  0  0  0  0
  -22.8110  -10.2920   20.1980 C   0  0  0  0  0  3  0  0  0  0  0  0
  -21.7500   -7.0020   21.4230 O   0  0  0  0  0  0  0  0  0  0  0  0
  -21.6980   -6.2650   22.5790 C   0  0  0  0  0  0  0  0  0  0  0  0
  -21.2510   -6.8240   23.7960 C   0  0  0  0  0  3  0  0  0  0  0  0
  -21.1440   -6.0140   24.9440 C   0  0  0  0  0  3  0  0  0  0  0  0
  -21.4760   -4.6470   24.8760 C   0  0  0  0  0  0  0  0  0  0  0  0
  -21.9190   -4.0890   23.6630 C   0  0  0  0  0  3  0  0  0  0  0  0
  -22.0260   -4.8970   22.5160 C   0  0  0  0  0  0  0  0  0  0  0  0
  -22.4290   -4.3450   21.3440 F   0  0  0  0  0  0  0  0  0  0  0  0
  -21.3710   -3.8660   25.9790 F   0  0  0  0  0  0  0  0  0  0  0  0
  -22.8060  -13.6290   21.0910 C   0  0  0  0  0  0  0  0  0  0  0  0
  -22.0830  -12.9240   21.9560 N   0  0  0  0  0  0  0  0  0  0  0  0
  -22.3610  -14.6510   20.5740 O   0  0  0  0  0  0  0  0  0  0  0  0
  -22.4640  -12.1030   22.4000 H   0  0  0  0  0  0  0  0  0  0  0  0
  -21.1400  -13.2130   22.1760 H   0  0  0  0  0  0  0  0  0  0  0  0
  -25.3990  -15.3280   20.2480 N   0  0  0  0  0  0  0  0  0  0  0  0
  -24.6350  -15.9760   20.3950 H   0  0  0  0  0  0  0  0  0  0  0  0
  -26.2150  -15.7660   19.8350 H   0  0  0  0  0  0  0  0  0  0  0  0
  2  4  1  0
  2  1  1  0
  2  3  1  0
  5  6  1  0
  7 18  2  0
  8  6  1  0
  8 13  1  0
  9 17  1  0
  9 19  1  0
 10 16  1  0
 10 12  1  0
 11 17  1  0
 12 13  2  0
 12 11  1  0
 14  8  2  0
 15 14  1  0
 15 10  2  0
 16  9  1  0
 17  7  1  0
 19 21  2  0
 20 19  1  0
 22 20  1  0
 23 32  2  0
 23 28  1  0
 24 20  1  0
 24 28  1  0
 25 24  1  0
 26 27  1  0
 26 25  1  0
 27 23  1  0
 28 29  2  0
 29 30  1  0
 31 30  2  0
 32 31  1  0
 33  7  1  0
 33 34  1  0
 33 43  1  0
 34 37  1  0
 35 39  1  0
 35 34  1  0
 36 35  2  0
 39 38  1  0
 41 39  1  0
 41 42  1  0
 41 40  1  0
 43 46  1  1
 43 44  1  0
 45 43  1  0
 48 49  1  0
 49 51  1  0
 49 50  1  0
 49 47  1  0
 53 52  1  0
 54 59  1  0
 55 56  1  0
 55 54  1  0
 57 56  1  0
 57 64  1  0
 57 58  1  0
 59 53  1  0
 59 58  1  0
 60 53  2  0
 61 62  2  0
 62 81  1  0
 63 62  1  0
 63 66  1  0
 64 61  1  0
 64 65  1  0
 65 63  2  0
 66 67  1  0
 67 68  2  0
 69 72  1  0
 69 68  1  0
 70 69  2  0
 71 70  1  0
 71 66  2  0
 72 73  1  0
 73 74  1  0
 74 75  2  0
 76 75  1  0
 76 80  1  0
 77 76  2  0
 78 73  2  0
 78 77  1  0
 79 78  1  0
 81 82  1  0
 82 85  1  0
 82 84  1  0
 83 81  2  0
 86 87  1  0
 86 61  1  0
 88 86  1  0
M  ISO  4   5 101   6 101  52 100  53 100
M  END
>  <TORSDO>  (44) 
F 21

>  <SCORE>  (44) 
-16.150

>  <name>  (44) 
44

>  <ligand_id>  (44) 
44

>  <original_smiles>  (44) 
[H]c1c([H])c([H])c2c(c1[H])C([H])([H])C([H])([H])C([H])([H])C2([H])N([H])C(=O)C1([H])N(C(=O)C([H])(N([H])C(=O)C([H])(N([H])C([H])([H])[H])C([H])([H])[H])C(C([H])([H])[H])(C([H])([H])[H])C([H])([H])[H])C([H])([H])c2c([H])c(OC([H])([H])C([H])(N([H])[H])C([H])(C([H])([H])C(=O)N3C([H])([H])C([H])([H])C([H])([H])C([H])(n4nc(-c5c([H])c([H])c(Oc6c([H])c([H])c(F)c([H])c6F)c([H])c5[H])c(C(=O)N([H])[H])c4N([H])[H])C3([H])[H])[N+]([H])([H])C([H])([H])[H])c([H])c([H])c2C1([H])[H]

>  <smiles>  (44) 
[H]c1c([H])c([H])c2c(c1[H])C([H])([H])C([H])([H])C([H])([H])C2([H])N([H])C(=O)C1([H])N(C(=O)C([H])(N([H])C(=O)C([H])(N([H])C([H])([H])[H])C([H])([H])[H])C(C([H])([H])[H])(C([H])([H])[H])C([H])([H])[H])C([H])([H])c2c([H])c(OC([H])([H])C([H])(N([H])[H])C([H])(C([H])([H])C(=O)N3C([H])([H])C([H])([H])C([H])([H])C([H])(n4nc(-c5c([H])c([H])c(Oc6c([H])c([H])c(F)c([H])c6F)c([H])c5[H])c(C(=O)N([H])[H])c4N([H])[H])C3([H])[H])[N+]([H])([H])C([H])([H])[H])c([H])c([H])c2C1([H])[H]

$$$$
45:0:0
     RDKit          3D

 93101  0  0  1  0  0  0  0  0999 V2000
  -29.2690  -23.1870   19.6550 C   0  0  0  0  0  3  0  0  0  0  0  0
  -27.4060  -22.2210   20.8560 C   0  0  0  0  0  3  0  0  0  0  0  0
  -27.2240  -24.4840   19.9340 C   0  0  0  0  0  3  0  0  0  0  0  0
  -28.7130  -22.0450   20.3490 C   0  0  0  0  0  0  0  0  0  0  0  0
  -28.5500  -24.4320   19.4640 C   0  0  0  0  0  0  0  0  0  0  0  0
  -26.6480  -23.3910   20.6190 C   0  0  0  0  0  0  0  0  0  0  0  0
  -24.8420  -22.5310   22.2280 C   0  0  0  0  0  1  0  0  0  0  0  0
  -24.2530  -23.2370   19.8690 C   0  0  0  0  0  1  0  0  0  0  0  0
  -25.1890  -23.4740   21.0620 C   0  0  0  0  0  3  0  0  0  0  0  0
  -29.5160  -20.7140   20.7100 C   0  0  0  0  0  2  0  0  0  0  0  0
  -27.6270  -19.0350   20.4420 C   0  0  0  0  0  1  0  0  0  0  0  0
  -29.0740  -19.3040   20.2660 N   0  0  2  0  0  4  0  0  0  0  0  0
  -29.1870  -19.3300   19.2640 H   0  0  0  0  0  0  0  0  0  0  0  0
  -29.9590  -18.1280   20.7380 C   0  0  0  0  0  2  0  0  0  0  0  0
  -29.4150  -16.6180   20.5690 C   0  0  0  0  0  2  0  0  0  0  0  0
  -30.3820  -15.3680   20.3450 C   0  0  0  0  0  0  0  0  0  0  0  0
  -30.3420  -13.0860   19.3430 C   0  0  0  0  0  2  0  0  0  0  0  0
  -29.3980  -13.1290   18.1170 C   0  0  0  0  0  2  0  0  0  0  0  0
  -27.9340  -12.8840   18.5370 C   0  0  0  0  0  2  0  0  0  0  0  0
  -27.5120  -13.7480   19.7540 C   0  0  0  0  0  3  0  0  0  0  0  0
  -28.5700  -13.6870   20.8760 C   0  0  0  0  0  2  0  0  0  0  0  0
  -29.8640  -14.0960   20.3090 N   0  0  0  0  0  0  0  0  0  0  0  0
  -31.5540  -15.5680   20.0140 O   0  0  0  0  0  0  0  0  0  0  0  0
  -25.1160  -14.2440   20.5380 C   0  0  0  0  0  0  0  0  0  0  0  0
  -24.0750  -13.4210   20.8770 C   0  0  0  0  0  0  0  0  0  0  0  0
  -24.5720  -12.0880   20.7620 C   0  0  0  0  0  0  0  0  0  0  0  0
  -26.1780  -13.4050   20.2400 N   0  0  0  0  0  0  0  0  0  0  0  0
  -25.8580  -12.1010   20.4390 N   0  0  0  0  0  0  0  0  0  0  0  0
  -23.8830  -10.7970   20.8830 C   0  0  0  0  0  0  0  0  0  0  0  0
  -24.3490   -9.7900   21.7540 C   0  0  0  0  0  3  0  0  0  0  0  0
  -23.6580   -8.5650   21.8690 C   0  0  0  0  0  3  0  0  0  0  0  0
  -22.4860   -8.3380   21.1080 C   0  0  0  0  0  0  0  0  0  0  0  0
  -22.0400   -9.3350   20.2230 C   0  0  0  0  0  3  0  0  0  0  0  0
  -22.7320  -10.5520   20.1070 C   0  0  0  0  0  3  0  0  0  0  0  0
  -21.7650   -7.1690   21.1340 O   0  0  0  0  0  0  0  0  0  0  0  0
  -21.7440   -6.3610   22.2430 C   0  0  0  0  0  0  0  0  0  0  0  0
  -21.3170   -6.8340   23.5030 C   0  0  0  0  0  3  0  0  0  0  0  0
  -21.2430   -5.9500   24.5970 C   0  0  0  0  0  3  0  0  0  0  0  0
  -21.5880   -4.5950   24.4340 C   0  0  0  0  0  0  0  0  0  0  0  0
  -22.0100   -4.1220   23.1800 C   0  0  0  0  0  3  0  0  0  0  0  0
  -22.0850   -5.0020   22.0860 C   0  0  0  0  0  0  0  0  0  0  0  0
  -22.4700   -4.5360   20.8740 F   0  0  0  0  0  0  0  0  0  0  0  0
  -21.5100   -3.7440   25.4850 F   0  0  0  0  0  0  0  0  0  0  0  0
  -22.6700  -13.8450   21.1900 C   0  0  0  0  0  0  0  0  0  0  0  0
  -21.9770  -13.0930   22.0400 N   0  0  0  0  0  0  0  0  0  0  0  0
  -22.1930  -14.8760   20.7180 O   0  0  0  0  0  0  0  0  0  0  0  0
  -22.3760  -12.2590   22.4420 H   0  0  0  0  0  0  0  0  0  0  0  0
  -21.0340  -13.3580   22.2910 H   0  0  0  0  0  0  0  0  0  0  0  0
  -25.2410  -15.6260   20.4280 N   0  0  0  0  0  0  0  0  0  0  0  0
  -24.4420  -16.2400   20.5370 H   0  0  0  0  0  0  0  0  0  0  0  0
  -26.0400  -16.0850   20.0130 H   0  0  0  0  0  0  0  0  0  0  0  0
  -29.1320  -25.6710   18.6820 C   0  0  0  0  0  2  0  0  0  0  0  0
  -28.9640  -27.0530   19.2020 O   0  0  0  0  0  0  0  0  0  0  0  0
  -24.7650  -31.6360   22.8560 C   0  0  0  0  0  0  0  0  0  0  0  0
  -27.7420  -27.7470   19.2410 C   0  0  0  0  0  0  0  0  0  0  0  0
  -23.6680  -30.3340   21.0660 C   0  0  0  0  0  3  0  0  0  0  0  0
  -25.2290  -29.1100   19.4470 C   0  0  0  0  0  0  0  0  0  0  0  0
  -26.1590  -30.9140   20.9030 C   0  0  0  0  0  2  0  0  0  0  0  0
  -26.3540  -29.6360   20.0920 C   0  0  0  0  0  0  0  0  0  0  0  0
  -27.6080  -28.9650   19.9810 C   0  0  0  0  0  3  0  0  0  0  0  0
  -26.5830  -27.2620   18.5950 C   0  0  0  0  0  3  0  0  0  0  0  0
  -25.3440  -27.9290   18.6940 C   0  0  0  0  0  3  0  0  0  0  0  0
  -23.9160  -29.8460   19.6130 C   0  0  0  0  0  2  0  0  0  0  0  0
  -24.8820  -30.9750   21.6670 N   0  0  0  0  0  0  0  0  0  0  0  0
  -23.6710  -31.7420   23.4310 O   0  0  0  0  0  0  0  0  0  0  0  0
  -23.1220  -29.1530   21.9050 C   0  0  0  0  0  0  0  0  0  0  0  0
  -21.8110  -28.8810   21.7850 N   0  0  0  0  0  0  0  0  0  0  0  0
  -23.8750  -28.4890   22.6210 O   0  0  0  0  0  0  0  0  0  0  0  0
  -21.2590  -29.4780   21.1850 H   0  0  0  0  0  0  0  0  0  0  0  0
  -18.5520  -27.3750   22.2280 C   0  0  0  0  0  0  0  0  0  0  0  0
  -21.0950  -27.7870   22.4440 C   0  0  0  0  0  3  0  0  0  0  0  0
  -21.2710  -26.4600   21.6710 C   0  0  0  0  0  2  0  0  0  0  0  0
  -20.1500  -26.1980   20.6600 C   0  0  0  0  0  2  0  0  0  0  0  0
  -18.7920  -26.1490   21.3650 C   0  0  0  0  0  2  0  0  0  0  0  0
  -19.6330  -28.1530   22.7220 C   0  0  0  0  0  0  0  0  0  0  0  0
  -19.3530  -29.3030   23.4920 C   0  0  0  0  0  3  0  0  0  0  0  0
  -18.0250  -29.6750   23.7740 C   0  0  0  0  0  3  0  0  0  0  0  0
  -16.9600  -28.8920   23.2970 C   0  0  0  0  0  3  0  0  0  0  0  0
  -17.2230  -27.7430   22.5300 C   0  0  0  0  0  3  0  0  0  0  0  0
  -25.9950  -32.3080   23.5420 C   0  0  0  0  0  3  0  0  0  0  0  0
  -25.5620  -33.6190   24.0480 N   0  0  0  0  0  0  0  0  0  0  0  0
  -25.8070  -34.7890   23.4420 C   0  0  0  0  0  0  0  0  0  0  0  0
  -26.4920  -34.8820   22.4190 O   0  0  0  0  0  0  0  0  0  0  0  0
  -24.9500  -33.6130   24.8490 H   0  0  0  0  0  0  0  0  0  0  0  0
  -23.9360  -36.4640   23.2920 C   0  0  0  0  0  1  0  0  0  0  0  0
  -25.1980  -36.0570   24.0710 C   0  0  0  0  0  3  0  0  0  0  0  0
  -27.2410  -36.9950   25.0570 C   0  0  0  0  0  1  0  0  0  0  0  0
  -26.1370  -37.1980   24.1230 N   0  0  0  0  0  0  0  0  0  0  0  0
  -25.6540  -38.0520   24.3850 H   0  0  0  0  0  0  0  0  0  0  0  0
  -26.6090  -31.4400   24.7090 C   0  0  1  0  0  0  0  0  0  0  0  0
  -25.5660  -30.9790   25.7550 C   0  0  0  0  0  1  0  0  0  0  0  0
  -27.3030  -30.1780   24.1470 C   0  0  0  0  0  1  0  0  0  0  0  0
  -27.7000  -32.2510   25.4470 C   0  0  0  0  0  1  0  0  0  0  0  0
  1  4  1  0
  3  6  2  0
  4 10  1  0
  4  2  2  0
  5  1  2  0
  5  3  1  0
  6  2  1  0
  6  9  1  0
  8  9  1  0
  9  7  1  0
 12 11  1  0
 12 10  1  0
 12 14  1  0
 12 13  1  6
 15 14  1  0
 16 15  1  0
 17 22  1  0
 18 19  1  0
 18 17  1  0
 20 19  1  0
 20 27  1  0
 20 21  1  0
 22 16  1  0
 22 21  1  0
 23 16  2  0
 24 25  2  0
 25 44  1  0
 26 25  1  0
 26 29  1  0
 27 28  1  0
 27 24  1  0
 28 26  2  0
 29 30  1  0
 30 31  2  0
 32 35  1  0
 32 31  1  0
 33 32  2  0
 34 33  1  0
 34 29  2  0
 35 36  1  0
 36 37  1  0
 37 38  2  0
 39 38  1  0
 39 43  1  0
 40 39  2  0
 41 36  2  0
 41 40  1  0
 42 41  1  0
 44 45  1  0
 45 48  1  0
 45 47  1  0
 46 44  2  0
 49 50  1  0
 49 24  1  0
 51 49  1  0
 52 53  1  0
 52  5  1  0
 53 55  1  0
 54 65  2  0
 55 60  1  0
 56 64  1  0
 56 66  1  0
 57 63  1  0
 57 59  1  0
 58 64  1  0
 59 58  1  0
 60 59  2  0
 61 62  1  0
 61 55  2  0
 62 57  2  0
 63 56  1  0
 64 54  1  0
 66 68  2  0
 67 66  1  0
 69 67  1  0
 70 79  2  0
 70 75  1  0
 71 67  1  0
 71 75  1  0
 72 71  1  0
 73 74  1  0
 73 72  1  0
 74 70  1  0
 75 76  2  0
 76 77  1  0
 78 77  2  0
 79 78  1  0
 80 54  1  0
 80 81  1  0
 80 90  1  0
 81 84  1  0
 82 81  1  0
 82 86  1  0
 83 82  2  0
 86 85  1  0
 86 88  1  0
 88 89  1  0
 88 87  1  0
 90 93  1  1
 90 91  1  0
 92 90  1  0
M  ISO  4  15 100  16 100  52 101  53 101
M  END
>  <TORSDO>  (45) 
F 22

>  <SCORE>  (45) 
-8.766

>  <name>  (45) 
45

>  <ligand_id>  (45) 
45

>  <original_smiles>  (45) 
[H]c1c([H])c([H])c2c(c1[H])C([H])([H])C([H])([H])C([H])([H])C2([H])N([H])C(=O)C1([H])N(C(=O)C([H])(N([H])C(=O)C([H])(N([H])C([H])([H])[H])C([H])([H])[H])C(C([H])([H])[H])(C([H])([H])[H])C([H])([H])[H])C([H])([H])c2c([H])c(OC([H])([H])c3c([H])c(C([H])(C([H])([H])[H])C([H])([H])[H])c([H])c(C([H])([H])[N+]([H])(C([H])([H])[H])C([H])([H])C([H])([H])C(=O)N4C([H])([H])C([H])([H])C([H])([H])C([H])(n5nc(-c6c([H])c([H])c(Oc7c([H])c([H])c(F)c([H])c7F)c([H])c6[H])c(C(=O)N([H])[H])c5N([H])[H])C4([H])[H])c3[H])c([H])c([H])c2C1([H])[H]

>  <smiles>  (45) 
[H]c1c([H])c([H])c2c(c1[H])C([H])([H])C([H])([H])C([H])([H])C2([H])N([H])C(=O)C1([H])N(C(=O)C([H])(N([H])C(=O)C([H])(N([H])C([H])([H])[H])C([H])([H])[H])C(C([H])([H])[H])(C([H])([H])[H])C([H])([H])[H])C([H])([H])c2c([H])c(OC([H])([H])c3c([H])c(C([H])(C([H])([H])[H])C([H])([H])[H])c([H])c(C([H])([H])[N+]([H])(C([H])([H])[H])C([H])([H])C([H])([H])C(=O)N4C([H])([H])C([H])([H])C([H])([H])C([H])(n5nc(-c6c([H])c([H])c(Oc7c([H])c([H])c(F)c([H])c7F)c([H])c6[H])c(C(=O)N([H])[H])c5N([H])[H])C4([H])[H])c3[H])c([H])c([H])c2C1([H])[H]

$$$$
46:0:0
     RDKit          3D

 96104  0  0  1  0  0  0  0  0999 V2000
  -30.5920  -21.1720   20.2450 C   0  0  0  0  0  2  0  0  0  0  0  0
  -30.1610  -18.8390   19.3820 C   0  0  0  0  0  3  0  0  0  0  0  0
  -30.4380  -17.7050   21.9280 C   0  0  0  0  0  3  0  0  0  0  0  0
  -30.0030  -17.4500   19.5390 C   0  0  0  0  0  0  0  0  0  0  0  0
  -30.4330  -19.6720   20.4870 C   0  0  0  0  0  0  0  0  0  0  0  0
  -30.1900  -16.8660   20.8210 C   0  0  0  0  0  0  0  0  0  0  0  0
  -30.5560  -19.1120   21.7790 C   0  0  0  0  0  0  0  0  0  0  0  0
  -29.5920  -16.6430   18.3170 C   0  0  0  0  0  1  0  0  0  0  0  0
  -30.7860  -14.4840   20.5260 C   0  0  0  0  0  0  0  0  0  0  0  0
  -30.5110  -12.3370   19.3650 C   0  0  0  0  0  2  0  0  0  0  0  0
  -29.5710  -12.5580   18.1610 C   0  0  0  0  0  2  0  0  0  0  0  0
  -28.0920  -12.4270   18.5850 C   0  0  0  0  0  2  0  0  0  0  0  0
  -27.7530  -13.2480   19.8590 C   0  0  0  0  0  3  0  0  0  0  0  0
  -28.8030  -12.9980   20.9650 C   0  0  0  0  0  2  0  0  0  0  0  0
  -30.1350  -13.2990   20.4100 N   0  0  0  0  0  0  0  0  0  0  0  0
  -31.9140  -14.6870   20.0650 O   0  0  0  0  0  0  0  0  0  0  0  0
  -30.0500  -15.4710   21.0620 N   0  0  0  0  0  0  0  0  0  0  0  0
  -29.2220  -15.1840   21.5620 H   0  0  0  0  0  0  0  0  0  0  0  0
  -25.3500  -13.8560   20.5620 C   0  0  0  0  0  0  0  0  0  0  0  0
  -24.2810  -13.0810   20.9230 C   0  0  0  0  0  0  0  0  0  0  0  0
  -24.7420  -11.7300   20.8850 C   0  0  0  0  0  0  0  0  0  0  0  0
  -26.3960  -12.9750   20.3290 N   0  0  0  0  0  0  0  0  0  0  0  0
  -26.0320  -11.6920   20.5790 N   0  0  0  0  0  0  0  0  0  0  0  0
  -24.0160  -10.4670   21.0660 C   0  0  0  0  0  0  0  0  0  0  0  0
  -24.4410   -9.4990   22.0020 C   0  0  0  0  0  3  0  0  0  0  0  0
  -23.7160   -8.2990   22.1710 C   0  0  0  0  0  3  0  0  0  0  0  0
  -22.5500   -8.0610   21.4040 C   0  0  0  0  0  0  0  0  0  0  0  0
  -22.1450   -9.0180   20.4570 C   0  0  0  0  0  3  0  0  0  0  0  0
  -22.8720  -10.2080   20.2870 C   0  0  0  0  0  3  0  0  0  0  0  0
  -21.7960   -6.9150   21.4810 O   0  0  0  0  0  0  0  0  0  0  0  0
  -21.7210   -6.1800   22.6370 C   0  0  0  0  0  0  0  0  0  0  0  0
  -21.2720   -6.7460   23.8500 C   0  0  0  0  0  3  0  0  0  0  0  0
  -21.1430   -5.9370   24.9980 C   0  0  0  0  0  3  0  0  0  0  0  0
  -21.4530   -4.5650   24.9310 C   0  0  0  0  0  0  0  0  0  0  0  0
  -21.8960   -4.0000   23.7230 C   0  0  0  0  0  3  0  0  0  0  0  0
  -22.0280   -4.8070   22.5780 C   0  0  0  0  0  0  0  0  0  0  0  0
  -22.4350   -4.2530   21.4100 F   0  0  0  0  0  0  0  0  0  0  0  0
  -21.3230   -3.7860   26.0320 F   0  0  0  0  0  0  0  0  0  0  0  0
  -22.8820  -13.5590   21.1940 C   0  0  0  0  0  0  0  0  0  0  0  0
  -22.1510  -12.8640   22.0590 N   0  0  0  0  0  0  0  0  0  0  0  0
  -22.4460  -14.5850   20.6750 O   0  0  0  0  0  0  0  0  0  0  0  0
  -22.5160  -12.0400   22.5120 H   0  0  0  0  0  0  0  0  0  0  0  0
  -21.2120  -13.1680   22.2740 H   0  0  0  0  0  0  0  0  0  0  0  0
  -25.5110  -15.2280   20.3930 N   0  0  0  0  0  0  0  0  0  0  0  0
  -24.7380  -15.8750   20.4990 H   0  0  0  0  0  0  0  0  0  0  0  0
  -26.3620  -15.6760   20.0790 H   0  0  0  0  0  0  0  0  0  0  0  0
  -30.9670  -19.4250   24.1260 C   0  0  0  0  0  1  0  0  0  0  0  0
  -30.7870  -19.9770   22.8290 O   0  0  0  0  0  0  0  0  0  0  0  0
  -28.1320  -21.3140   19.4650 C   0  0  0  0  0  1  0  0  0  0  0  0
  -29.2740  -21.9920   20.2500 C   0  0  0  0  0  3  0  0  0  0  0  0
  -29.5280  -23.3580   19.7290 N   0  0  0  0  0  4  0  0  0  0  0  0
  -30.4520  -23.6320   20.0260 H   0  0  0  0  0  0  0  0  0  0  0  0
  -29.5440  -23.3200   18.7200 H   0  0  0  0  0  0  0  0  0  0  0  0
  -28.5930  -24.4200   20.1870 C   0  0  0  0  0  2  0  0  0  0  0  0
  -28.7600  -25.7210   19.3710 C   0  0  0  0  0  2  0  0  0  0  0  0
  -28.5150  -26.8710   20.1800 O   0  0  0  0  0  0  0  0  0  0  0  0
  -24.6130  -31.9360   23.2420 C   0  0  0  0  0  0  0  0  0  0  0  0
  -27.2930  -27.5060   20.1690 C   0  0  0  0  0  0  0  0  0  0  0  0
  -23.4110  -30.5130   21.6110 C   0  0  0  0  0  3  0  0  0  0  0  0
  -24.8690  -28.9700   20.1970 C   0  0  0  0  0  0  0  0  0  0  0  0
  -25.9320  -30.8870   21.4060 C   0  0  0  0  0  2  0  0  0  0  0  0
  -26.0210  -29.5110   20.7790 C   0  0  0  0  0  0  0  0  0  0  0  0
  -27.2280  -28.7830   20.7690 C   0  0  0  0  0  3  0  0  0  0  0  0
  -26.1180  -26.9660   19.5930 C   0  0  0  0  0  3  0  0  0  0  0  0
  -24.9120  -27.6950   19.6050 C   0  0  0  0  0  3  0  0  0  0  0  0
  -23.6190  -29.8170   20.2390 C   0  0  0  0  0  2  0  0  0  0  0  0
  -24.6700  -31.1280   22.1440 N   0  0  0  0  0  0  0  0  0  0  0  0
  -23.5320  -32.2080   23.7810 O   0  0  0  0  0  0  0  0  0  0  0  0
  -22.7670  -29.4990   22.5830 C   0  0  0  0  0  0  0  0  0  0  0  0
  -21.4480  -29.2940   22.4450 N   0  0  0  0  0  0  0  0  0  0  0  0
  -23.4510  -28.8960   23.4150 O   0  0  0  0  0  0  0  0  0  0  0  0
  -20.9580  -29.8310   21.7440 H   0  0  0  0  0  0  0  0  0  0  0  0
  -18.0920  -28.0390   22.8920 C   0  0  0  0  0  0  0  0  0  0  0  0
  -20.6350  -28.3560   23.2170 C   0  0  0  0  0  3  0  0  0  0  0  0
  -20.7820  -26.9170   22.6700 C   0  0  0  0  0  2  0  0  0  0  0  0
  -19.7100  -26.5500   21.6400 C   0  0  0  0  0  2  0  0  0  0  0  0
  -18.3120  -26.6800   22.2500 C   0  0  0  0  0  2  0  0  0  0  0  0
  -19.1830  -28.8330   23.3300 C   0  0  0  0  0  0  0  0  0  0  0  0
  -18.9260  -30.1060   23.8860 C   0  0  0  0  0  3  0  0  0  0  0  0
  -17.6070  -30.5820   24.0120 C   0  0  0  0  0  3  0  0  0  0  0  0
  -16.5280  -29.7830   23.5930 C   0  0  0  0  0  3  0  0  0  0  0  0
  -16.7720  -28.5150   23.0380 C   0  0  0  0  0  3  0  0  0  0  0  0
  -25.8980  -32.5760   23.8550 C   0  0  0  0  0  3  0  0  0  0  0  0
  -25.5840  -33.9720   24.1850 N   0  0  0  0  0  0  0  0  0  0  0  0
  -25.9100  -35.0250   23.4250 C   0  0  0  0  0  0  0  0  0  0  0  0
  -26.5800  -34.9240   22.3930 O   0  0  0  0  0  0  0  0  0  0  0  0
  -24.9910  -34.1230   24.9890 H   0  0  0  0  0  0  0  0  0  0  0  0
  -24.1700  -36.8040   23.0680 C   0  0  0  0  0  1  0  0  0  0  0  0
  -25.4130  -36.4110   23.8800 C   0  0  0  0  0  3  0  0  0  0  0  0
  -27.5430  -37.3070   24.7090 C   0  0  0  0  0  1  0  0  0  0  0  0
  -26.4400  -37.4680   23.7660 N   0  0  0  0  0  0  0  0  0  0  0  0
  -26.0290  -38.3870   23.9120 H   0  0  0  0  0  0  0  0  0  0  0  0
  -26.4270  -31.8090   25.1290 C   0  0  1  0  0  0  0  0  0  0  0  0
  -25.3420  -31.5630   26.2030 C   0  0  0  0  0  1  0  0  0  0  0  0
  -27.0180  -30.4370   24.7310 C   0  0  0  0  0  1  0  0  0  0  0  0
  -27.5760  -32.6120   25.7850 C   0  0  0  0  0  1  0  0  0  0  0  0
  1 50  1  0
  1  5  1  0
  2  4  2  0
  2  5  1  0
  4  6  1  0
  5  7  2  0
  6 17  1  0
  6  3  2  0
  7  3  1  0
  7 48  1  0
  8  4  1  0
  9 17  1  0
 10 15  1  0
 11 12  1  0
 11 10  1  0
 13 12  1  0
 13 22  1  0
 13 14  1  0
 15  9  1  0
 15 14  1  0
 16  9  2  0
 17 18  1  0
 19 20  2  0
 20 39  1  0
 21 20  1  0
 21 24  1  0
 22 19  1  0
 22 23  1  0
 23 21  2  0
 24 25  1  0
 25 26  2  0
 27 30  1  0
 27 26  1  0
 28 27  2  0
 29 28  1  0
 29 24  2  0
 30 31  1  0
 31 32  1  0
 32 33  2  0
 34 33  1  0
 34 38  1  0
 35 34  2  0
 36 31  2  0
 36 35  1  0
 37 36  1  0
 39 40  1  0
 40 43  1  0
 40 42  1  0
 41 39  2  0
 44 45  1  0
 44 19  1  0
 46 44  1  0
 48 47  1  0
 50 49  1  0
 51 52  1  0
 51 54  1  0
 51 50  1  0
 53 51  1  0
 55 56  1  0
 55 54  1  0
 57 68  2  0
 58 56  1  0
 58 63  1  0
 59 67  1  0
 59 69  1  0
 60 66  1  0
 60 62  1  0
 61 67  1  0
 62 61  1  0
 63 62  2  0
 64 65  1  0
 64 58  2  0
 65 60  2  0
 66 59  1  0
 67 57  1  0
 69 71  2  0
 70 69  1  0
 72 70  1  0
 73 82  2  0
 73 78  1  0
 74 70  1  0
 74 78  1  0
 75 74  1  0
 76 77  1  0
 76 75  1  0
 77 73  1  0
 78 79  2  0
 79 80  1  0
 81 80  2  0
 82 81  1  0
 83 57  1  0
 83 84  1  0
 83 93  1  0
 84 87  1  0
 85 89  1  0
 85 84  1  0
 86 85  2  0
 89 88  1  0
 91 89  1  0
 91 92  1  0
 91 90  1  0
 93 96  1  1
 93 94  1  0
 95 93  1  0
M  ISO  4   9 100  17 100  55 101  56 101
M  END
>  <TORSDO>  (46) 
F 22

>  <SCORE>  (46) 
-12.550

>  <name>  (46) 
46

>  <ligand_id>  (46) 
46

>  <original_smiles>  (46) 
[H]c1c([H])c([H])c2c(c1[H])C([H])([H])C([H])([H])C([H])([H])C2([H])N([H])C(=O)C1([H])N(C(=O)C([H])(N([H])C(=O)C([H])(N([H])C([H])([H])[H])C([H])([H])[H])C(C([H])([H])[H])(C([H])([H])[H])C([H])([H])[H])C([H])([H])c2c([H])c(OC([H])([H])C([H])([H])[N+]([H])([H])C([H])(C([H])([H])[H])C([H])([H])c3c([H])c(C([H])([H])[H])c(N([H])C(=O)N4C([H])([H])C([H])([H])C([H])([H])C([H])(n5nc(-c6c([H])c([H])c(Oc7c([H])c([H])c(F)c([H])c7F)c([H])c6[H])c(C(=O)N([H])[H])c5N([H])[H])C4([H])[H])c([H])c3OC([H])([H])[H])c([H])c([H])c2C1([H])[H]

>  <smiles>  (46) 
[H]c1c([H])c([H])c2c(c1[H])C([H])([H])C([H])([H])C([H])([H])C2([H])N([H])C(=O)C1([H])N(C(=O)C([H])(N([H])C(=O)C([H])(N([H])C([H])([H])[H])C([H])([H])[H])C(C([H])([H])[H])(C([H])([H])[H])C([H])([H])[H])C([H])([H])c2c([H])c(OC([H])([H])C([H])([H])[N+]([H])([H])C([H])(C([H])([H])[H])C([H])([H])c3c([H])c(C([H])([H])[H])c(N([H])C(=O)N4C([H])([H])C([H])([H])C([H])([H])C([H])(n5nc(-c6c([H])c([H])c(Oc7c([H])c([H])c(F)c([H])c7F)c([H])c6[H])c(C(=O)N([H])[H])c5N([H])[H])C4([H])[H])c([H])c3OC([H])([H])[H])c([H])c([H])c2C1([H])[H]

$$$$
47:0:0
     RDKit          3D

 96105  0  0  1  0  0  0  0  0999 V2000
  -30.6700  -14.6590   20.4440 C   0  0  0  0  0  0  0  0  0  0  0  0
  -30.3840  -12.4230   19.4120 C   0  0  0  0  0  2  0  0  0  0  0  0
  -29.4690  -12.5520   18.1770 C   0  0  0  0  0  2  0  0  0  0  0  0
  -27.9870  -12.4190   18.5850 C   0  0  0  0  0  2  0  0  0  0  0  0
  -27.6190  -13.2910   19.8180 C   0  0  0  0  0  3  0  0  0  0  0  0
  -28.6670  -13.1850   20.9460 C   0  0  0  0  0  2  0  0  0  0  0  0
  -29.9800  -13.4810   20.3570 N   0  0  0  0  0  0  0  0  0  0  0  0
  -31.8700  -14.7190   20.1600 O   0  0  0  0  0  0  0  0  0  0  0  0
  -32.2750  -20.3140   18.2190 C   0  0  0  0  0  2  0  0  0  0  0  0
  -30.9000  -20.9150   18.5400 C   0  0  0  0  0  2  0  0  0  0  0  0
  -30.1320  -18.3280   21.5240 C   0  0  0  0  0  2  0  0  0  0  0  0
  -29.4200  -18.0910   19.2480 C   0  0  0  0  0  2  0  0  0  0  0  0
  -30.2920  -16.7600   21.6920 C   0  0  0  0  0  2  0  0  0  0  0  0
  -29.5940  -16.5310   19.2700 C   0  0  0  0  0  2  0  0  0  0  0  0
  -32.2860  -18.7960   18.4120 C   0  0  0  0  0  2  0  0  0  0  0  0
  -30.3880  -20.5080   19.9490 C   0  0  0  0  0  3  0  0  0  0  0  0
  -30.4320  -18.8860   20.1110 C   0  0  1  0  0  0  0  0  0  0  0  0
  -29.9680  -15.8490   20.5490 N   0  0  0  0  0  0  0  0  0  0  0  0
  -31.8160  -18.4460   19.7700 N   0  0  0  0  0  4  0  0  0  0  0  0
  -32.4660  -18.8340   20.4350 H   0  0  0  0  0  0  0  0  0  0  0  0
  -31.8580  -17.4440   19.8650 H   0  0  0  0  0  0  0  0  0  0  0  0
  -25.2270  -13.9100   20.5040 C   0  0  0  0  0  0  0  0  0  0  0  0
  -24.1490  -13.1480   20.8600 C   0  0  0  0  0  0  0  0  0  0  0  0
  -24.6000  -11.7930   20.8470 C   0  0  0  0  0  0  0  0  0  0  0  0
  -26.2670  -13.0200   20.2930 N   0  0  0  0  0  0  0  0  0  0  0  0
  -25.8960  -11.7420   20.5650 N   0  0  0  0  0  0  0  0  0  0  0  0
  -23.8600  -10.5390   21.0350 C   0  0  0  0  0  0  0  0  0  0  0  0
  -24.2810   -9.5700   21.9720 C   0  0  0  0  0  3  0  0  0  0  0  0
  -23.5500   -8.3760   22.1480 C   0  0  0  0  0  3  0  0  0  0  0  0
  -22.3810   -8.1430   21.3840 C   0  0  0  0  0  0  0  0  0  0  0  0
  -21.9780   -9.1010   20.4370 C   0  0  0  0  0  3  0  0  0  0  0  0
  -22.7100  -10.2870   20.2580 C   0  0  0  0  0  3  0  0  0  0  0  0
  -21.6150   -7.0060   21.4730 O   0  0  0  0  0  0  0  0  0  0  0  0
  -21.5590   -6.2630   22.6250 C   0  0  0  0  0  0  0  0  0  0  0  0
  -21.1430   -6.8220   23.8520 C   0  0  0  0  0  3  0  0  0  0  0  0
  -21.0320   -6.0060   24.9950 C   0  0  0  0  0  3  0  0  0  0  0  0
  -21.3270   -4.6320   24.9130 C   0  0  0  0  0  0  0  0  0  0  0  0
  -21.7360   -4.0720   23.6890 C   0  0  0  0  0  3  0  0  0  0  0  0
  -21.8490   -4.8860   22.5480 C   0  0  0  0  0  0  0  0  0  0  0  0
  -22.2220   -4.3370   21.3670 F   0  0  0  0  0  0  0  0  0  0  0  0
  -21.2130   -3.8450   26.0080 F   0  0  0  0  0  0  0  0  0  0  0  0
  -22.7510  -13.6380   21.1020 C   0  0  0  0  0  0  0  0  0  0  0  0
  -22.0030  -12.9560   21.9630 N   0  0  0  0  0  0  0  0  0  0  0  0
  -22.3280  -14.6590   20.5630 O   0  0  0  0  0  0  0  0  0  0  0  0
  -22.3570  -12.1310   22.4230 H   0  0  0  0  0  0  0  0  0  0  0  0
  -21.0600  -13.2620   22.1600 H   0  0  0  0  0  0  0  0  0  0  0  0
  -25.4080  -15.2790   20.3220 N   0  0  0  0  0  0  0  0  0  0  0  0
  -24.6500  -15.9450   20.4320 H   0  0  0  0  0  0  0  0  0  0  0  0
  -26.2820  -15.7130   20.0550 H   0  0  0  0  0  0  0  0  0  0  0  0
  -29.1380  -21.2510   20.3120 N   0  0  0  0  0  0  0  0  0  0  0  0
  -28.9860  -21.2410   21.3180 H   0  0  0  0  0  0  0  0  0  0  0  0
  -27.1960  -22.3270   19.4190 C   0  0  0  0  0  1  0  0  0  0  0  0
  -28.6940  -22.5480   19.6800 C   0  0  0  0  0  3  0  0  0  0  0  0
  -28.8940  -23.9370   20.4430 C   0  0  0  0  0  3  0  0  0  0  0  0
  -28.6200  -25.2640   19.5950 C   0  0  0  0  0  3  0  0  0  0  0  0
  -28.4680  -26.5710   20.2750 O   0  0  0  0  0  0  0  0  0  0  0  0
  -24.6130  -31.8860   23.2390 C   0  0  0  0  0  0  0  0  0  0  0  0
  -27.2970  -27.3440   20.2150 C   0  0  0  0  0  0  0  0  0  0  0  0
  -23.4310  -30.4680   21.5980 C   0  0  0  0  0  3  0  0  0  0  0  0
  -24.9050  -28.9230   20.1930 C   0  0  0  0  0  0  0  0  0  0  0  0
  -25.9670  -30.8120   21.4260 C   0  0  0  0  0  2  0  0  0  0  0  0
  -26.0640  -29.4300   20.7900 C   0  0  0  0  0  0  0  0  0  0  0  0
  -27.2580  -28.6530   20.7910 C   0  0  0  0  0  3  0  0  0  0  0  0
  -26.0990  -26.8740   19.6270 C   0  0  0  0  0  3  0  0  0  0  0  0
  -24.9230  -27.6470   19.6080 C   0  0  0  0  0  3  0  0  0  0  0  0
  -23.6600  -29.7870   20.2240 C   0  0  0  0  0  2  0  0  0  0  0  0
  -24.6890  -31.0740   22.1430 N   0  0  0  0  0  0  0  0  0  0  0  0
  -23.5240  -32.1570   23.7650 O   0  0  0  0  0  0  0  0  0  0  0  0
  -22.7720  -29.4510   22.5600 C   0  0  0  0  0  0  0  0  0  0  0  0
  -21.4460  -29.2730   22.4360 N   0  0  0  0  0  0  0  0  0  0  0  0
  -23.4530  -28.8250   23.3780 O   0  0  0  0  0  0  0  0  0  0  0  0
  -20.9550  -29.8290   21.7490 H   0  0  0  0  0  0  0  0  0  0  0  0
  -18.0670  -28.0910   22.9530 C   0  0  0  0  0  0  0  0  0  0  0  0
  -20.6280  -28.3370   23.2110 C   0  0  0  0  0  3  0  0  0  0  0  0
  -20.7190  -26.9060   22.6320 C   0  0  0  0  0  2  0  0  0  0  0  0
  -19.6120  -26.5910   21.6210 C   0  0  0  0  0  2  0  0  0  0  0  0
  -18.2340  -26.7430   22.2720 C   0  0  0  0  0  2  0  0  0  0  0  0
  -19.1920  -28.8460   23.3790 C   0  0  0  0  0  0  0  0  0  0  0  0
  -18.9810  -30.1100   23.9730 C   0  0  0  0  0  3  0  0  0  0  0  0
  -17.6800  -30.6170   24.1450 C   0  0  0  0  0  3  0  0  0  0  0  0
  -16.5700  -29.8570   23.7380 C   0  0  0  0  0  3  0  0  0  0  0  0
  -16.7640  -28.5960   23.1470 C   0  0  0  0  0  3  0  0  0  0  0  0
  -25.8870  -32.5340   23.8640 C   0  0  0  0  0  3  0  0  0  0  0  0
  -26.4070  -31.7720   25.1450 C   0  0  1  0  0  0  0  0  0  0  0  0
  -25.3130  -31.5240   26.2100 C   0  0  0  0  0  1  0  0  0  0  0  0
  -27.0000  -30.3970   24.7570 C   0  0  0  0  0  1  0  0  0  0  0  0
  -27.5510  -32.5740   25.8080 C   0  0  0  0  0  1  0  0  0  0  0  0
  -25.5640  -33.9300   24.1900 N   0  0  0  0  0  0  0  0  0  0  0  0
  -25.8890  -34.9840   23.4290 C   0  0  0  0  0  0  0  0  0  0  0  0
  -26.5640  -34.8840   22.4010 O   0  0  0  0  0  0  0  0  0  0  0  0
  -24.9730  -34.0830   24.9940 H   0  0  0  0  0  0  0  0  0  0  0  0
  -24.1480  -36.7600   23.0570 C   0  0  0  0  0  1  0  0  0  0  0  0
  -25.3860  -36.3700   23.8790 C   0  0  0  0  0  3  0  0  0  0  0  0
  -27.5070  -37.2760   24.7210 C   0  0  0  0  0  1  0  0  0  0  0  0
  -26.4100  -37.4320   23.7690 N   0  0  0  0  0  0  0  0  0  0  0  0
  -25.9940  -38.3490   23.9120 H   0  0  0  0  0  0  0  0  0  0  0  0
  1 18  1  0
  2  7  1  0
  3  4  1  0
  3  2  1  0
  5  4  1  0
  5 25  1  0
  5  6  1  0
  7  1  1  0
  7  6  1  0
  8  1  2  0
  9 15  1  0
  9 10  1  0
 10 16  1  0
 11 13  1  0
 12 14  1  0
 14 18  1  0
 15 19  1  0
 16 17  1  0
 16 50  1  0
 17 12  1  6
 17 11  1  0
 18 13  1  0
 19 21  1  0
 19 17  1  0
 19 20  1  0
 22 23  2  0
 23 42  1  0
 24 23  1  0
 24 27  1  0
 25 22  1  0
 25 26  1  0
 26 24  2  0
 27 28  1  0
 28 29  2  0
 30 33  1  0
 30 29  1  0
 31 30  2  0
 32 31  1  0
 32 27  2  0
 33 34  1  0
 34 35  1  0
 35 36  2  0
 37 36  1  0
 37 41  1  0
 38 37  2  0
 39 34  2  0
 39 38  1  0
 40 39  1  0
 42 43  1  0
 43 46  1  0
 43 45  1  0
 44 42  2  0
 47 48  1  0
 47 22  1  0
 49 47  1  0
 50 51  1  0
 53 52  1  0
 53 50  1  0
 53 54  1  0
 55 56  1  0
 55 54  2  0
 57 68  2  0
 58 56  1  0
 58 63  1  0
 59 67  1  0
 59 69  1  0
 60 66  1  0
 60 62  1  0
 61 67  1  0
 62 63  2  0
 62 61  1  0
 64 58  2  0
 65 64  1  0
 65 60  2  0
 66 59  1  0
 67 57  1  0
 69 71  2  0
 70 69  1  0
 72 70  1  0
 73 82  2  0
 73 78  1  0
 74 70  1  0
 74 78  1  0
 75 74  1  0
 76 77  1  0
 76 75  1  0
 77 73  1  0
 78 79  2  0
 79 80  1  0
 81 80  2  0
 82 81  1  0
 83 57  1  0
 83 88  1  0
 83 84  1  0
 84 87  1  1
 84 85  1  0
 86 84  1  0
 88 91  1  0
 89 93  1  0
 89 88  1  0
 90 89  2  0
 93 92  1  0
 95 93  1  0
 95 96  1  0
 95 94  1  0
M  ISO  4   1 100  18 100  55 101  56 101
M  END
>  <TORSDO>  (47) 
F 19

>  <SCORE>  (47) 
-14.355

>  <name>  (47) 
47

>  <ligand_id>  (47) 
47

>  <original_smiles>  (47) 
[H]c1c([H])c([H])c2c(c1[H])C([H])([H])C([H])([H])C([H])([H])C2([H])N([H])C(=O)C1([H])N(C(=O)C([H])(N([H])C(=O)C([H])(N([H])C([H])([H])[H])C([H])([H])[H])C(C([H])([H])[H])(C([H])([H])[H])C([H])([H])[H])C([H])([H])c2c([H])c(OC([H])([H])C([H])([H])C([H])(N([H])C3([H])C([H])([H])C([H])([H])C([H])([H])[N+]([H])([H])C34C([H])([H])C([H])([H])N(C(=O)N3C([H])([H])C([H])([H])C([H])([H])C([H])(n5nc(-c6c([H])c([H])c(Oc7c([H])c([H])c(F)c([H])c7F)c([H])c6[H])c(C(=O)N([H])[H])c5N([H])[H])C3([H])[H])C([H])([H])C4([H])[H])C([H])([H])[H])c([H])c([H])c2C1([H])[H]

>  <smiles>  (47) 
[H]c1c([H])c([H])c2c(c1[H])C([H])([H])C([H])([H])C([H])([H])C2([H])N([H])C(=O)C1([H])N(C(=O)C([H])(N([H])C(=O)C([H])(N([H])C([H])([H])[H])C([H])([H])[H])C(C([H])([H])[H])(C([H])([H])[H])C([H])([H])[H])C([H])([H])c2c([H])c(OC([H])([H])C([H])([H])C([H])(N([H])C3([H])C([H])([H])C([H])([H])C([H])([H])[N+]([H])([H])C34C([H])([H])C([H])([H])N(C(=O)N3C([H])([H])C([H])([H])C([H])([H])C([H])(n5nc(-c6c([H])c([H])c(Oc7c([H])c([H])c(F)c([H])c7F)c([H])c6[H])c(C(=O)N([H])[H])c5N([H])[H])C3([H])[H])C([H])([H])C4([H])[H])C([H])([H])[H])c([H])c([H])c2C1([H])[H]

$$$$
48:0:0
     RDKit          3D

 96105  0  0  1  0  0  0  0  0999 V2000
  -27.7760  -23.2600   20.9030 C   0  0  0  0  0  2  0  0  0  0  0  0
  -30.1550  -23.5370   20.8430 C   0  0  0  0  0  2  0  0  0  0  0  0
  -29.0720  -22.5600   21.3230 C   0  0  0  0  0  3  0  0  0  0  0  0
  -28.1750  -24.3540   19.8750 C   0  0  0  0  0  3  0  0  0  0  0  0
  -29.1360  -22.1760   22.8110 C   0  0  0  0  0  1  0  0  0  0  0  0
  -29.6190  -24.1290   19.5950 N   0  0  2  0  0  4  0  0  0  0  0  0
  -30.0670  -25.0140   19.4100 H   0  0  0  0  0  0  0  0  0  0  0  0
  -27.8910  -25.7910   20.4060 C   0  0  0  0  0  2  0  0  0  0  0  0
  -26.3910  -26.0350   20.6450 C   0  0  0  0  0  2  0  0  0  0  0  0
  -26.0370  -27.4310   20.6420 O   0  0  0  0  0  0  0  0  0  0  0  0
  -27.5000  -31.8920   26.0120 C   0  0  0  0  0  0  0  0  0  0  0  0
  -25.6020  -27.9800   21.8380 C   0  0  0  0  0  0  0  0  0  0  0  0
  -25.6320  -30.3200   26.3840 C   0  0  0  0  0  3  0  0  0  0  0  0
  -24.8000  -29.0810   24.3230 C   0  0  0  0  0  0  0  0  0  0  0  0
  -26.2370  -31.0950   24.0170 C   0  0  0  0  0  2  0  0  0  0  0  0
  -25.7130  -29.7680   23.5130 C   0  0  0  0  0  0  0  0  0  0  0  0
  -26.1220  -29.2220   22.2730 C   0  0  0  0  0  3  0  0  0  0  0  0
  -24.6310  -27.3450   22.6520 C   0  0  0  0  0  3  0  0  0  0  0  0
  -24.2560  -27.8650   23.8950 C   0  0  0  0  0  3  0  0  0  0  0  0
  -24.4160  -29.7180   25.6370 C   0  0  0  0  0  2  0  0  0  0  0  0
  -26.5160  -31.1200   25.4750 N   0  0  0  0  0  0  0  0  0  0  0  0
  -27.6550  -31.9730   27.2380 O   0  0  0  0  0  0  0  0  0  0  0  0
  -26.3820  -29.1870   27.1230 C   0  0  0  0  0  0  0  0  0  0  0  0
  -25.8880  -28.8170   28.3150 N   0  0  0  0  0  0  0  0  0  0  0  0
  -27.3670  -28.6470   26.6140 O   0  0  0  0  0  0  0  0  0  0  0  0
  -25.0840  -29.3140   28.6650 H   0  0  0  0  0  0  0  0  0  0  0  0
  -25.4680  -27.1900   31.5120 C   0  0  0  0  0  0  0  0  0  0  0  0
  -26.4140  -27.7550   29.1730 C   0  0  0  0  0  3  0  0  0  0  0  0
  -25.8840  -26.3690   28.7360 C   0  0  0  0  0  2  0  0  0  0  0  0
  -24.6160  -25.9450   29.4810 C   0  0  0  0  0  2  0  0  0  0  0  0
  -24.8670  -25.8970   30.9910 C   0  0  0  0  0  2  0  0  0  0  0  0
  -26.1820  -28.0690   30.6560 C   0  0  0  0  0  0  0  0  0  0  0  0
  -26.6890  -29.2750   31.1860 C   0  0  0  0  0  3  0  0  0  0  0  0
  -26.5000  -29.6020   32.5420 C   0  0  0  0  0  3  0  0  0  0  0  0
  -25.8070  -28.7170   33.3880 C   0  0  0  0  0  3  0  0  0  0  0  0
  -25.2940  -27.5150   32.8730 C   0  0  0  0  0  3  0  0  0  0  0  0
  -28.4590  -32.7300   25.1100 C   0  0  0  0  0  3  0  0  0  0  0  0
  -28.0030  -34.1240   25.1610 N   0  0  0  0  0  0  0  0  0  0  0  0
  -27.4470  -34.7800   24.1350 C   0  0  0  0  0  0  0  0  0  0  0  0
  -27.3300  -34.2880   23.0080 O   0  0  0  0  0  0  0  0  0  0  0  0
  -28.0290  -34.5740   26.0640 H   0  0  0  0  0  0  0  0  0  0  0  0
  -25.4020  -36.2030   24.4610 C   0  0  0  0  0  1  0  0  0  0  0  0
  -26.9360  -36.2080   24.4010 C   0  0  0  0  0  3  0  0  0  0  0  0
  -28.8270  -37.4630   23.4650 C   0  0  0  0  0  1  0  0  0  0  0  0
  -27.3930  -37.1900   23.3950 N   0  0  0  0  0  0  0  0  0  0  0  0
  -26.9010  -38.0730   23.5050 H   0  0  0  0  0  0  0  0  0  0  0  0
  -29.9720  -32.6190   25.5420 C   0  0  1  0  0  0  0  0  0  0  0  0
  -30.2190  -32.9590   27.0300 C   0  0  0  0  0  1  0  0  0  0  0  0
  -30.5090  -31.1910   25.2890 C   0  0  0  0  0  1  0  0  0  0  0  0
  -30.8340  -33.5710   24.6780 C   0  0  0  0  0  1  0  0  0  0  0  0
  -29.8420  -23.2690   18.3950 C   0  0  0  0  0  2  0  0  0  0  0  0
  -30.7920  -23.8600   17.3260 C   0  0  0  0  0  2  0  0  0  0  0  0
  -30.8440  -22.9520   16.0820 C   0  0  0  0  0  2  0  0  0  0  0  0
  -31.0500  -23.6860   14.7430 C   0  0  0  0  0  2  0  0  0  0  0  0
  -30.7110  -22.2240   11.8220 C   0  0  0  0  0  0  0  0  0  0  0  0
  -30.5240  -20.5410   10.0320 C   0  0  0  0  0  2  0  0  0  0  0  0
  -29.9710  -19.1880   10.5040 C   0  0  0  0  0  2  0  0  0  0  0  0
  -31.1070  -18.2960   11.0290 C   0  0  0  0  0  2  0  0  0  0  0  0
  -31.9720  -19.0200   12.0890 C   0  0  0  0  0  3  0  0  0  0  0  0
  -32.4300  -20.3940   11.5500 C   0  0  0  0  0  2  0  0  0  0  0  0
  -31.2440  -21.1750   11.1440 N   0  0  0  0  0  0  0  0  0  0  0  0
  -29.5510  -22.6220   11.6660 O   0  0  0  0  0  0  0  0  0  0  0  0
  -33.8390  -24.6430   13.3280 C   0  0  0  0  0  2  0  0  0  0  0  0
  -33.3220  -24.7450   11.8840 C   0  0  0  0  0  2  0  0  0  0  0  0
  -33.4960  -23.2820   13.9680 C   0  0  0  0  0  2  0  0  0  0  0  0
  -31.8390  -24.3620   11.8060 C   0  0  0  0  0  2  0  0  0  0  0  0
  -32.0030  -22.9020   13.7990 C   0  0  0  0  0  3  0  0  0  0  0  0
  -31.6350  -23.0300   12.3800 N   0  0  0  0  0  0  0  0  0  0  0  0
  -33.4320  -17.6930   13.7480 C   0  0  0  0  0  0  0  0  0  0  0  0
  -34.5360  -16.9040   13.5710 C   0  0  0  0  0  0  0  0  0  0  0  0
  -34.8310  -16.9550   12.1730 C   0  0  0  0  0  0  0  0  0  0  0  0
  -33.1040  -18.1870   12.4960 N   0  0  0  0  0  0  0  0  0  0  0  0
  -33.9910  -17.7750   11.5530 N   0  0  0  0  0  0  0  0  0  0  0  0
  -35.8290  -16.2210   11.3840 C   0  0  0  0  0  0  0  0  0  0  0  0
  -36.7450  -16.8910   10.5440 C   0  0  0  0  0  3  0  0  0  0  0  0
  -37.7080  -16.1630    9.8120 C   0  0  0  0  0  3  0  0  0  0  0  0
  -37.7570  -14.7530    9.9130 C   0  0  0  0  0  0  0  0  0  0  0  0
  -36.8260  -14.0870   10.7310 C   0  0  0  0  0  3  0  0  0  0  0  0
  -35.8690  -14.8140   11.4580 C   0  0  0  0  0  3  0  0  0  0  0  0
  -38.6420  -13.9640    9.2160 O   0  0  0  0  0  0  0  0  0  0  0  0
  -39.8710  -14.4300    8.8280 C   0  0  0  0  0  0  0  0  0  0  0  0
  -40.8180  -14.8990    9.7650 C   0  0  0  0  0  3  0  0  0  0  0  0
  -42.0940  -15.3070    9.3320 C   0  0  0  0  0  3  0  0  0  0  0  0
  -42.4320  -15.2350    7.9660 C   0  0  0  0  0  0  0  0  0  0  0  0
  -41.4920  -14.7630    7.0340 C   0  0  0  0  0  3  0  0  0  0  0  0
  -40.2170  -14.3600    7.4620 C   0  0  0  0  0  0  0  0  0  0  0  0
  -39.3200  -13.8850    6.5640 F   0  0  0  0  0  0  0  0  0  0  0  0
  -43.6600  -15.6170    7.5480 F   0  0  0  0  0  0  0  0  0  0  0  0
  -35.2300  -16.0820   14.6190 C   0  0  0  0  0  0  0  0  0  0  0  0
  -36.5450  -15.9290   14.5160 N   0  0  0  0  0  0  0  0  0  0  0  0
  -34.6070  -15.6060   15.5680 O   0  0  0  0  0  0  0  0  0  0  0  0
  -37.0590  -16.3190   13.7410 H   0  0  0  0  0  0  0  0  0  0  0  0
  -37.0460  -15.3960   15.2150 H   0  0  0  0  0  0  0  0  0  0  0  0
  -32.6750  -18.0180   14.8710 N   0  0  0  0  0  0  0  0  0  0  0  0
  -32.8590  -17.5960   15.7740 H   0  0  0  0  0  0  0  0  0  0  0  0
  -31.8560  -18.6090   14.8760 H   0  0  0  0  0  0  0  0  0  0  0  0
  1  3  1  0
  2  3  1  0
  3  5  1  0
  4  8  1  0
  4  1  1  0
  6  4  1  0
  6  2  1  0
  6  7  1  6
  8  9  1  0
 10  9  1  0
 10 12  1  0
 11 22  2  0
 12 17  2  0
 12 18  1  0
 13 23  1  0
 14 20  1  0
 15 21  1  0
 16 15  1  0
 16 14  2  0
 17 16  1  0
 18 19  2  0
 19 14  1  0
 20 13  1  0
 21 11  1  0
 21 13  1  0
 23 24  1  0
 24 26  1  0
 25 23  2  0
 27 36  1  0
 28 24  1  0
 28 32  1  0
 29 28  1  0
 29 30  1  0
 30 31  1  0
 31 27  1  0
 32 33  1  0
 32 27  2  0
 33 34  2  0
 34 35  1  0
 36 35  2  0
 37 38  1  0
 37 47  1  0
 37 11  1  0
 38 41  1  0
 39 43  1  0
 39 38  1  0
 40 39  2  0
 43 42  1  0
 45 44  1  0
 45 46  1  0
 45 43  1  0
 47 48  1  1
 49 47  1  0
 50 47  1  0
 51  6  1  0
 52 51  1  0
 53 52  1  0
 54 53  1  0
 55 68  1  0
 56 57  1  0
 56 61  1  0
 57 58  1  0
 59 58  1  0
 59 72  1  0
 60 59  1  0
 61 60  1  0
 61 55  1  0
 62 55  2  0
 63 65  1  0
 64 63  1  0
 66 64  1  0
 66 68  1  0
 67 65  1  0
 67 54  1  0
 68 67  1  0
 69 94  1  0
 70 69  2  0
 70 89  1  0
 71 70  1  0
 72 69  1  0
 73 71  2  0
 73 72  1  0
 74 79  1  0
 74 71  1  0
 75 74  2  0
 76 77  2  0
 76 75  1  0
 77 78  1  0
 78 79  2  0
 80 77  1  0
 81 80  1  0
 81 82  1  0
 83 82  2  0
 84 83  1  0
 85 86  1  0
 85 84  2  0
 86 81  2  0
 87 86  1  0
 88 84  1  0
 89 91  2  0
 90 89  1  0
 90 93  1  0
 92 90  1  0
 94 96  1  0
 94 95  1  0
M  ISO  4   9 101  10 101  55 100  68 100
M  END
>  <TORSDO>  (48) 
F 22

>  <SCORE>  (48) 
-4.513

>  <name>  (48) 
48

>  <ligand_id>  (48) 
48

>  <original_smiles>  (48) 
[H]c1c([H])c([H])c2c(c1[H])C([H])([H])C([H])([H])C([H])([H])C2([H])N([H])C(=O)C1([H])N(C(=O)C([H])(N([H])C(=O)C([H])(N([H])C([H])([H])[H])C([H])([H])[H])C(C([H])([H])[H])(C([H])([H])[H])C([H])([H])[H])C([H])([H])c2c([H])c(OC([H])([H])C([H])([H])C3([H])C([H])([H])C([H])(C([H])([H])[H])C([H])([H])[N+]3([H])C([H])([H])C([H])([H])C([H])([H])C([H])([H])C3([H])N(C(=O)N4C([H])([H])C([H])([H])C([H])([H])C([H])(n5nc(-c6c([H])c([H])c(Oc7c([H])c([H])c(F)c([H])c7F)c([H])c6[H])c(C(=O)N([H])[H])c5N([H])[H])C4([H])[H])C([H])([H])C([H])([H])C([H])([H])C3([H])[H])c([H])c([H])c2C1([H])[H]

>  <smiles>  (48) 
[H]c1c([H])c([H])c2c(c1[H])C([H])([H])C([H])([H])C([H])([H])C2([H])N([H])C(=O)C1([H])N(C(=O)C([H])(N([H])C(=O)C([H])(N([H])C([H])([H])[H])C([H])([H])[H])C(C([H])([H])[H])(C([H])([H])[H])C([H])([H])[H])C([H])([H])c2c([H])c(OC([H])([H])C([H])([H])C3([H])C([H])([H])C([H])(C([H])([H])[H])C([H])([H])[N+]3([H])C([H])([H])C([H])([H])C([H])([H])C([H])([H])C3([H])N(C(=O)N4C([H])([H])C([H])([H])C([H])([H])C([H])(n5nc(-c6c([H])c([H])c(Oc7c([H])c([H])c(F)c([H])c7F)c([H])c6[H])c(C(=O)N([H])[H])c5N([H])[H])C4([H])[H])C([H])([H])C([H])([H])C([H])([H])C3([H])[H])c([H])c([H])c2C1([H])[H]

$$$$
49:0:0
     RDKit          3D

 96104  0  0  1  0  0  0  0  0999 V2000
  -29.3200  -22.5920   20.7680 C   0  0  0  0  0  2  0  0  0  0  0  0
  -28.2780  -23.8220   20.6050 C   0  0  0  0  0  3  0  0  0  0  0  0
  -27.0070  -23.4120   21.2410 N   0  0  0  0  0  4  0  0  0  0  0  0
  -27.0940  -23.3860   22.2440 H   0  0  0  0  0  0  0  0  0  0  0  0
  -26.7960  -22.4780   20.9360 H   0  0  0  0  0  0  0  0  0  0  0  0
  -26.2410  -24.0180   20.9980 H   0  0  0  0  0  0  0  0  0  0  0  0
  -28.7230  -25.2840   21.1360 C   0  0  0  0  0  2  0  0  0  0  0  0
  -28.6090  -26.5500   20.3610 O   0  0  0  0  0  0  0  0  0  0  0  0
  -24.6060  -31.8560   23.2770 C   0  0  0  0  0  0  0  0  0  0  0  0
  -27.4480  -27.3310   20.3820 C   0  0  0  0  0  0  0  0  0  0  0  0
  -23.5050  -30.4180   21.5980 C   0  0  0  0  0  3  0  0  0  0  0  0
  -25.0490  -28.8830   20.2560 C   0  0  0  0  0  0  0  0  0  0  0  0
  -26.0410  -30.7940   21.5180 C   0  0  0  0  0  2  0  0  0  0  0  0
  -26.1810  -29.4100   20.8920 C   0  0  0  0  0  0  0  0  0  0  0  0
  -27.3860  -28.6480   20.9390 C   0  0  0  0  0  3  0  0  0  0  0  0
  -26.2970  -26.8520   19.7260 C   0  0  0  0  0  3  0  0  0  0  0  0
  -25.1100  -27.6100   19.6640 C   0  0  0  0  0  3  0  0  0  0  0  0
  -23.7950  -29.7340   20.2360 C   0  0  0  0  0  2  0  0  0  0  0  0
  -24.7330  -31.0420   22.1880 N   0  0  0  0  0  0  0  0  0  0  0  0
  -23.4950  -32.1100   23.7650 O   0  0  0  0  0  0  0  0  0  0  0  0
  -22.8270  -29.3930   22.5380 C   0  0  0  0  0  0  0  0  0  0  0  0
  -21.5060  -29.2030   22.3750 N   0  0  0  0  0  0  0  0  0  0  0  0
  -23.4890  -28.7710   23.3740 O   0  0  0  0  0  0  0  0  0  0  0  0
  -21.0320  -29.7540   21.6720 H   0  0  0  0  0  0  0  0  0  0  0  0
  -18.1150  -28.0360   22.8470 C   0  0  0  0  0  0  0  0  0  0  0  0
  -20.6780  -28.2550   23.1200 C   0  0  0  0  0  3  0  0  0  0  0  0
  -20.7610  -26.8390   22.5050 C   0  0  0  0  0  2  0  0  0  0  0  0
  -19.6530  -26.5590   21.4840 C   0  0  0  0  0  2  0  0  0  0  0  0
  -18.2740  -26.7040   22.1340 C   0  0  0  0  0  2  0  0  0  0  0  0
  -19.2450  -28.7710   23.2980 C   0  0  0  0  0  0  0  0  0  0  0  0
  -19.0440  -30.0190   23.9260 C   0  0  0  0  0  3  0  0  0  0  0  0
  -17.7480  -30.5340   24.1080 C   0  0  0  0  0  3  0  0  0  0  0  0
  -16.6320  -29.7950   23.6740 C   0  0  0  0  0  3  0  0  0  0  0  0
  -16.8170  -28.5480   23.0500 C   0  0  0  0  0  3  0  0  0  0  0  0
  -25.8470  -32.5230   23.9480 C   0  0  0  0  0  3  0  0  0  0  0  0
  -26.2950  -31.8040   25.2790 C   0  0  1  0  0  0  0  0  0  0  0  0
  -25.1400  -31.5830   26.2830 C   0  0  0  0  0  1  0  0  0  0  0  0
  -26.9240  -30.4250   24.9730 C   0  0  0  0  0  1  0  0  0  0  0  0
  -27.3880  -32.6410   25.9840 C   0  0  0  0  0  1  0  0  0  0  0  0
  -25.5070  -33.9290   24.2100 N   0  0  0  0  0  0  0  0  0  0  0  0
  -25.8470  -34.9560   23.4190 C   0  0  0  0  0  0  0  0  0  0  0  0
  -26.5490  -34.8210   22.4140 O   0  0  0  0  0  0  0  0  0  0  0  0
  -24.8870  -34.1060   24.9860 H   0  0  0  0  0  0  0  0  0  0  0  0
  -24.1290  -36.7240   22.9170 C   0  0  0  0  0  1  0  0  0  0  0  0
  -25.3270  -36.3530   23.8060 C   0  0  0  0  0  3  0  0  0  0  0  0
  -27.3890  -37.3010   24.7430 C   0  0  0  0  0  1  0  0  0  0  0  0
  -26.3580  -37.4120   23.7160 N   0  0  0  0  0  0  0  0  0  0  0  0
  -25.9350  -38.3320   23.7880 H   0  0  0  0  0  0  0  0  0  0  0  0
  -28.8450  -21.1520   20.6290 N   0  0  0  0  0  0  0  0  0  0  0  0
  -26.4810  -20.4450   17.1860 C   0  0  0  0  0  3  0  0  0  0  0  0
  -25.9720  -20.1760   18.4720 C   0  0  0  0  0  3  0  0  0  0  0  0
  -27.8010  -20.9150   17.0420 C   0  0  0  0  0  3  0  0  0  0  0  0
  -26.7770  -20.3920   19.6080 C   0  0  0  0  0  3  0  0  0  0  0  0
  -28.6080  -21.1230   18.1780 C   0  0  0  0  0  3  0  0  0  0  0  0
  -28.0950  -20.8800   19.4710 C   0  0  0  0  0  0  0  0  0  0  0  0
  -29.7700  -20.0050   20.9900 C   0  0  0  0  0  3  0  0  0  0  0  0
  -29.3090  -18.4680   20.7960 C   0  0  0  0  0  3  0  0  0  0  0  0
  -30.3770  -17.3100   21.1170 C   0  0  0  0  0  2  0  0  0  0  0  0
  -30.7590  -14.7710   20.6520 C   0  0  0  0  0  0  0  0  0  0  0  0
  -30.5700  -12.5990   19.4520 C   0  0  0  0  0  2  0  0  0  0  0  0
  -29.6130  -12.7750   18.2510 C   0  0  0  0  0  2  0  0  0  0  0  0
  -28.1490  -12.5620   18.6860 C   0  0  0  0  0  2  0  0  0  0  0  0
  -27.7870  -13.3400   19.9800 C   0  0  0  0  0  3  0  0  0  0  0  0
  -28.8570  -13.1490   21.0750 C   0  0  0  0  0  2  0  0  0  0  0  0
  -30.1440  -13.5530   20.4980 N   0  0  0  0  0  0  0  0  0  0  0  0
  -31.9340  -14.9320   20.3120 O   0  0  0  0  0  0  0  0  0  0  0  0
  -29.9730  -15.8510   20.9960 N   0  0  0  0  0  0  0  0  0  0  0  0
  -29.0120  -15.6310   21.2080 H   0  0  0  0  0  0  0  0  0  0  0  0
  -25.3760  -13.8460   20.7020 C   0  0  0  0  0  0  0  0  0  0  0  0
  -24.3330  -13.0320   21.0460 C   0  0  0  0  0  0  0  0  0  0  0  0
  -24.8360  -11.6950   20.9840 C   0  0  0  0  0  0  0  0  0  0  0  0
  -26.4480  -13.0040   20.4520 N   0  0  0  0  0  0  0  0  0  0  0  0
  -26.1300  -11.7040   20.6830 N   0  0  0  0  0  0  0  0  0  0  0  0
  -24.1470  -10.4090   21.1390 C   0  0  0  0  0  0  0  0  0  0  0  0
  -24.5630   -9.4570   22.0970 C   0  0  0  0  0  3  0  0  0  0  0  0
  -23.8720   -8.2350   22.2390 C   0  0  0  0  0  3  0  0  0  0  0  0
  -22.7490   -7.9550   21.4240 C   0  0  0  0  0  0  0  0  0  0  0  0
  -22.3530   -8.8950   20.4560 C   0  0  0  0  0  3  0  0  0  0  0  0
  -23.0450  -10.1090   20.3130 C   0  0  0  0  0  3  0  0  0  0  0  0
  -22.0340   -6.7830   21.4760 O   0  0  0  0  0  0  0  0  0  0  0  0
  -21.8860   -6.0820   22.6450 C   0  0  0  0  0  0  0  0  0  0  0  0
  -21.1880   -6.6150   23.7520 C   0  0  0  0  0  3  0  0  0  0  0  0
  -21.0000   -5.8320   24.9080 C   0  0  0  0  0  3  0  0  0  0  0  0
  -21.4990   -4.5170   24.9570 C   0  0  0  0  0  0  0  0  0  0  0  0
  -22.1860   -3.9820   23.8540 C   0  0  0  0  0  3  0  0  0  0  0  0
  -22.3770   -4.7620   22.7000 C   0  0  0  0  0  0  0  0  0  0  0  0
  -23.0230   -4.2350   21.6330 F   0  0  0  0  0  0  0  0  0  0  0  0
  -21.3100   -3.7610   26.0640 F   0  0  0  0  0  0  0  0  0  0  0  0
  -22.9200  -13.4600   21.3190 C   0  0  0  0  0  0  0  0  0  0  0  0
  -22.2080  -12.7200   22.1620 N   0  0  0  0  0  0  0  0  0  0  0  0
  -22.4540  -14.4850   20.8240 O   0  0  0  0  0  0  0  0  0  0  0  0
  -22.5960  -11.8930   22.5910 H   0  0  0  0  0  0  0  0  0  0  0  0
  -21.2580  -12.9850   22.3850 H   0  0  0  0  0  0  0  0  0  0  0  0
  -25.4970  -15.2230   20.5540 N   0  0  0  0  0  0  0  0  0  0  0  0
  -24.7080  -15.8470   20.6810 H   0  0  0  0  0  0  0  0  0  0  0  0
  -26.3240  -15.6970   20.2110 H   0  0  0  0  0  0  0  0  0  0  0  0
  2  1  1  0
  2  7  1  0
  2  3  1  0
  3  4  1  0
  5  3  1  0
  6  3  1  0
  8 10  1  0
  8  7  1  0
  9 20  2  0
 10 15  1  0
 11 19  1  0
 11 21  1  0
 12 14  1  0
 13 19  1  0
 14 15  2  0
 14 13  1  0
 16 10  2  0
 17 16  1  0
 17 12  2  0
 18 12  1  0
 18 11  1  0
 19  9  1  0
 21 23  2  0
 22 21  1  0
 24 22  1  0
 25 34  2  0
 25 30  1  0
 26 22  1  0
 26 30  1  0
 27 26  1  0
 28 29  1  0
 28 27  1  0
 29 25  1  0
 30 31  2  0
 31 32  1  0
 33 32  2  0
 34 33  1  0
 35  9  1  0
 35 40  1  0
 35 36  1  0
 36 39  1  1
 36 37  1  0
 38 36  1  0
 40 43  1  0
 41 45  1  0
 41 40  1  0
 42 41  2  0
 45 44  1  0
 47 48  1  0
 47 45  1  0
 47 46  1  0
 49  1  1  0
 49 56  1  0
 50 51  1  0
 51 53  2  0
 52 50  2  0
 52 54  1  0
 54 55  2  0
 55 53  1  0
 55 49  1  0
 57 56  2  0
 57 58  1  0
 59 67  1  0
 60 65  1  0
 61 62  1  0
 61 60  1  0
 63 62  1  0
 63 72  1  0
 63 64  1  0
 65 59  1  0
 65 64  1  0
 66 59  2  0
 67 58  1  0
 67 68  1  0
 69 70  2  0
 70 89  1  0
 71 70  1  0
 71 74  1  0
 72 73  1  0
 72 69  1  0
 73 71  2  0
 74 75  1  0
 75 76  2  0
 77 80  1  0
 77 76  1  0
 78 77  2  0
 79 78  1  0
 79 74  2  0
 80 81  1  0
 81 86  2  0
 81 82  1  0
 82 83  2  0
 83 84  1  0
 84 88  1  0
 85 84  2  0
 86 85  1  0
 87 86  1  0
 89 90  1  0
 90 93  1  0
 90 92  1  0
 91 89  2  0
 94 95  1  0
 94 69  1  0
 96 94  1  0
M  ISO  4   7 101   8 101  59 100  67 100
M  END
>  <TORSDO>  (49) 
F 24

>  <SCORE>  (49) 
-11.812

>  <name>  (49) 
49

>  <ligand_id>  (49) 
49

>  <original_smiles>  (49) 
[H]c1c([H])c([H])c(N(C([H])([H])C([H])([H])C([H])([H])N([H])C(=O)N2C([H])([H])C([H])([H])C([H])([H])C([H])(n3nc(-c4c([H])c([H])c(Oc5c([H])c([H])c(F)c([H])c5F)c([H])c4[H])c(C(=O)N([H])[H])c3N([H])[H])C2([H])[H])C([H])([H])C([H])(C([H])([H])Oc2c([H])c([H])c3c(c2[H])C([H])([H])N(C(=O)C([H])(N([H])C(=O)C([H])(N([H])C([H])([H])[H])C([H])([H])[H])C(C([H])([H])[H])(C([H])([H])[H])C([H])([H])[H])C([H])(C(=O)N([H])C2([H])c4c([H])c([H])c([H])c([H])c4C([H])([H])C([H])([H])C2([H])[H])C3([H])[H])[N+]([H])([H])[H])c([H])c1[H]

>  <smiles>  (49) 
[H]c1c([H])c([H])c(N(C([H])([H])C([H])([H])C([H])([H])N([H])C(=O)N2C([H])([H])C([H])([H])C([H])([H])C([H])(n3nc(-c4c([H])c([H])c(Oc5c([H])c([H])c(F)c([H])c5F)c([H])c4[H])c(C(=O)N([H])[H])c3N([H])[H])C2([H])[H])C([H])([H])C([H])(C([H])([H])Oc2c([H])c([H])c3c(c2[H])C([H])([H])N(C(=O)C([H])(N([H])C(=O)C([H])(N([H])C([H])([H])[H])C([H])([H])[H])C(C([H])([H])[H])(C([H])([H])[H])C([H])([H])[H])C([H])(C(=O)N([H])C2([H])c4c([H])c([H])c([H])c([H])c4C([H])([H])C([H])([H])C2([H])[H])C3([H])[H])[N+]([H])([H])[H])c([H])c1[H]

$$$$
51:0:0
     RDKit          3D

 86 94  0  0  1  0  0  0  0  0999 V2000
  -28.7030  -18.7250   20.0290 C   0  0  0  0  0  3  0  0  0  0  0  0
  -28.3280  -20.2250   19.9970 C   0  0  0  0  0  3  0  0  0  0  0  0
  -30.7450  -18.5790   20.9070 C   0  0  0  0  0  3  0  0  0  0  0  0
  -29.9850  -21.4640   20.8550 C   0  0  0  0  0  3  0  0  0  0  0  0
  -29.7600  -17.7240   20.4230 C   0  0  0  0  0  0  0  0  0  0  0  0
  -28.7340  -21.6570   20.3020 C   0  0  0  0  0  0  0  0  0  0  0  0
  -30.8550  -20.1550   21.1200 C   0  0  0  0  0  0  0  0  0  0  0  0
  -31.9370  -20.4520   21.6340 O   0  0  0  0  0  0  0  0  0  0  0  0
  -30.2590  -15.9840   20.3080 C   0  0  0  0  0  0  0  0  0  0  0  0
  -30.3780  -13.3590   19.5540 C   0  0  0  0  0  2  0  0  0  0  0  0
  -29.5380  -12.7850   18.3720 C   0  0  0  0  0  2  0  0  0  0  0  0
  -28.1510  -12.3540   18.8480 C   0  0  0  0  0  2  0  0  0  0  0  0
  -27.5730  -13.4000   19.8200 C   0  0  0  0  0  3  0  0  0  0  0  0
  -28.5620  -13.8970   20.9100 C   0  0  0  0  0  2  0  0  0  0  0  0
  -29.7000  -14.5930   20.2330 N   0  0  0  0  0  0  0  0  0  0  0  0
  -31.4830  -15.7390   20.1970 O   0  0  0  0  0  0  0  0  0  0  0  0
  -25.2100  -13.8810   20.5840 C   0  0  0  0  0  0  0  0  0  0  0  0
  -24.1590  -13.0850   20.9380 C   0  0  0  0  0  0  0  0  0  0  0  0
  -24.6460  -11.7410   20.9040 C   0  0  0  0  0  0  0  0  0  0  0  0
  -26.2680  -13.0270   20.3470 N   0  0  0  0  0  0  0  0  0  0  0  0
  -25.9440  -11.7300   20.6030 N   0  0  0  0  0  0  0  0  0  0  0  0
  -23.9280  -10.4700   21.0830 C   0  0  0  0  0  0  0  0  0  0  0  0
  -24.3620   -9.4990   22.0120 C   0  0  0  0  0  3  0  0  0  0  0  0
  -23.6380   -8.2980   22.1840 C   0  0  0  0  0  3  0  0  0  0  0  0
  -22.4670   -8.0590   21.4250 C   0  0  0  0  0  0  0  0  0  0  0  0
  -22.0510   -9.0200   20.4860 C   0  0  0  0  0  3  0  0  0  0  0  0
  -22.7750  -10.2120   20.3140 C   0  0  0  0  0  3  0  0  0  0  0  0
  -21.7150   -6.9130   21.5060 O   0  0  0  0  0  0  0  0  0  0  0  0
  -21.6690   -6.1600   22.6520 C   0  0  0  0  0  0  0  0  0  0  0  0
  -21.2420   -6.7030   23.8840 C   0  0  0  0  0  3  0  0  0  0  0  0
  -21.1440   -5.8790   25.0210 C   0  0  0  0  0  3  0  0  0  0  0  0
  -21.4650   -4.5100   24.9290 C   0  0  0  0  0  0  0  0  0  0  0  0
  -21.8860   -3.9660   23.7040 C   0  0  0  0  0  3  0  0  0  0  0  0
  -21.9840   -4.7880   22.5670 C   0  0  0  0  0  0  0  0  0  0  0  0
  -22.3700   -4.2540   21.3830 F   0  0  0  0  0  0  0  0  0  0  0  0
  -21.3630   -3.7160   26.0200 F   0  0  0  0  0  0  0  0  0  0  0  0
  -22.7550  -13.5460   21.1880 C   0  0  0  0  0  0  0  0  0  0  0  0
  -22.0290  -12.8480   22.0530 N   0  0  0  0  0  0  0  0  0  0  0  0
  -22.3120  -14.5620   20.6540 O   0  0  0  0  0  0  0  0  0  0  0  0
  -22.4010  -12.0250   22.5040 H   0  0  0  0  0  0  0  0  0  0  0  0
  -21.0850  -13.1390   22.2710 H   0  0  0  0  0  0  0  0  0  0  0  0
  -25.3550  -15.2550   20.4100 N   0  0  0  0  0  0  0  0  0  0  0  0
  -24.5750  -15.8950   20.5230 H   0  0  0  0  0  0  0  0  0  0  0  0
  -26.2010  -15.7090   20.0970 H   0  0  0  0  0  0  0  0  0  0  0  0
  -27.8930  -23.4230   20.0820 C   0  0  0  0  0  2  0  0  0  0  0  0
  -28.0880  -25.2550   20.2930 O   0  0  0  0  0  0  0  0  0  0  0  0
  -24.6210  -31.8240   23.1250 C   0  0  0  0  0  0  0  0  0  0  0  0
  -27.1520  -26.5620   20.2160 C   0  0  0  0  0  0  0  0  0  0  0  0
  -23.4480  -30.4050   21.4990 C   0  0  0  0  0  3  0  0  0  0  0  0
  -24.9040  -28.7100   20.1170 C   0  0  0  0  0  0  0  0  0  0  0  0
  -26.0340  -30.4970   21.4060 C   0  0  0  0  0  2  0  0  0  0  0  0
  -26.0990  -29.0380   20.7660 C   0  0  0  0  0  0  0  0  0  0  0  0
  -27.1990  -27.9970   20.7790 C   0  0  0  0  0  3  0  0  0  0  0  0
  -25.9220  -26.4960   19.5010 C   0  0  0  0  0  3  0  0  0  0  0  0
  -24.8660  -27.4680   19.4580 C   0  0  0  0  0  3  0  0  0  0  0  0
  -23.7020  -29.6810   20.1410 C   0  0  0  0  0  2  0  0  0  0  0  0
  -24.7270  -30.9480   22.0620 N   0  0  0  0  0  0  0  0  0  0  0  0
  -23.5220  -32.1360   23.6180 O   0  0  0  0  0  0  0  0  0  0  0  0
  -22.7130  -29.4510   22.4820 C   0  0  0  0  0  0  0  0  0  0  0  0
  -21.3760  -29.3180   22.3680 N   0  0  0  0  0  0  0  0  0  0  0  0
  -23.3610  -28.8270   23.3240 O   0  0  0  0  0  0  0  0  0  0  0  0
  -20.9010  -29.8730   21.6700 H   0  0  0  0  0  0  0  0  0  0  0  0
  -17.9780  -28.1450   22.9190 C   0  0  0  0  0  0  0  0  0  0  0  0
  -20.5440  -28.3930   23.1490 C   0  0  0  0  0  3  0  0  0  0  0  0
  -20.6230  -26.9580   22.5770 C   0  0  0  0  0  2  0  0  0  0  0  0
  -19.5080  -26.6450   21.5750 C   0  0  0  0  0  2  0  0  0  0  0  0
  -18.1350  -26.7970   22.2350 C   0  0  0  0  0  2  0  0  0  0  0  0
  -19.1060  -28.9010   23.3340 C   0  0  0  0  0  0  0  0  0  0  0  0
  -18.9000  -30.1580   23.9430 C   0  0  0  0  0  3  0  0  0  0  0  0
  -17.5990  -30.6610   24.1350 C   0  0  0  0  0  3  0  0  0  0  0  0
  -16.4850  -29.9050   23.7300 C   0  0  0  0  0  3  0  0  0  0  0  0
  -16.6750  -28.6470   23.1300 C   0  0  0  0  0  3  0  0  0  0  0  0
  -25.8740  -32.4920   23.7700 C   0  0  0  0  0  3  0  0  0  0  0  0
  -25.5330  -33.8900   24.1100 N   0  0  0  0  0  0  0  0  0  0  0  0
  -25.8510  -34.9670   23.3790 C   0  0  0  0  0  0  0  0  0  0  0  0
  -26.5150  -34.8890   22.3430 O   0  0  0  0  0  0  0  0  0  0  0  0
  -24.9380  -34.0200   24.9150 H   0  0  0  0  0  0  0  0  0  0  0  0
  -24.1010  -36.7620   23.0960 C   0  0  0  0  0  1  0  0  0  0  0  0
  -25.3630  -36.3480   23.8710 C   0  0  0  0  0  3  0  0  0  0  0  0
  -27.5040  -37.2550   24.6710 C   0  0  0  0  0  1  0  0  0  0  0  0
  -26.3820  -37.4140   23.7490 N   0  0  0  0  0  0  0  0  0  0  0  0
  -25.9690  -38.3300   23.9050 H   0  0  0  0  0  0  0  0  0  0  0  0
  -26.3730  -31.7400   25.0670 C   0  0  1  0  0  0  0  0  0  0  0  0
  -25.2660  -31.5130   26.1260 C   0  0  0  0  0  1  0  0  0  0  0  0
  -26.9660  -30.3580   24.7170 C   0  0  0  0  0  1  0  0  0  0  0  0
  -27.5100  -32.5480   25.7360 C   0  0  0  0  0  1  0  0  0  0  0  0
  1  5  1  0
  2  1  2  0
  2  6  1  0
  3  7  1  0
  4  7  1  0
  5  3  2  0
  6  4  2  0
  7  8  2  0
  9  5  1  0
 10 15  1  0
 11 12  1  0
 11 10  1  0
 13 12  1  0
 13 20  1  0
 13 14  1  0
 15  9  1  0
 15 14  1  0
 16  9  2  0
 17 18  2  0
 18 37  1  0
 19 18  1  0
 19 22  1  0
 20 17  1  0
 20 21  1  0
 21 19  2  0
 22 23  1  0
 23 24  2  0
 25 28  1  0
 25 24  1  0
 26 25  2  0
 27 26  1  0
 27 22  2  0
 28 29  1  0
 29 30  1  0
 30 31  2  0
 32 31  1  0
 32 36  1  0
 33 32  2  0
 34 29  2  0
 34 33  1  0
 35 34  1  0
 37 38  1  0
 38 41  1  0
 38 40  1  0
 39 37  2  0
 42 43  1  0
 42 17  1  0
 44 42  1  0
 45 46  1  0
 45  6  1  0
 47 58  2  0
 48 46  1  0
 48 53  1  0
 49 57  1  0
 49 59  1  0
 50 56  1  0
 50 52  1  0
 51 57  1  0
 52 53  2  0
 52 51  1  0
 54 48  2  0
 55 54  1  0
 55 50  2  0
 56 49  1  0
 57 47  1  0
 59 61  2  0
 60 59  1  0
 62 60  1  0
 63 72  2  0
 63 68  1  0
 64 60  1  0
 64 68  1  0
 65 64  1  0
 66 67  1  0
 66 65  1  0
 67 63  1  0
 68 69  2  0
 69 70  1  0
 71 70  2  0
 72 71  1  0
 73 47  1  0
 73 74  1  0
 73 83  1  0
 74 77  1  0
 75 79  1  0
 75 74  1  0
 76 75  2  0
 79 78  1  0
 81 79  1  0
 81 82  1  0
 81 80  1  0
 83 86  1  1
 83 84  1  0
 85 83  1  0
M  ISO  4   5 100   9 100  45 101  46 101
M  END
>  <TORSDO>  (50) 
F 17

>  <SCORE>  (50) 
-16.697

>  <name>  (50) 
51

>  <ligand_id>  (50) 
51

>  <original_smiles>  (50) 
[H]c1c([H])c([H])c2c(c1[H])C([H])([H])C([H])([H])C([H])([H])C2([H])N([H])C(=O)C1([H])N(C(=O)C([H])(N([H])C(=O)C([H])(N([H])C([H])([H])[H])C([H])([H])[H])C(C([H])([H])[H])(C([H])([H])[H])C([H])([H])[H])C([H])([H])c2c([H])c(OC([H])([H])c3c([H])c([H])c(C(=O)N4C([H])([H])C([H])([H])C([H])([H])C([H])(n5nc(-c6c([H])c([H])c(Oc7c([H])c([H])c(F)c([H])c7F)c([H])c6[H])c(C(=O)N([H])[H])c5N([H])[H])C4([H])[H])c([H])c(=O)c3[H])c([H])c([H])c2C1([H])[H]

>  <smiles>  (50) 
[H]c1c([H])c([H])c2c(c1[H])C([H])([H])C([H])([H])C([H])([H])C2([H])N([H])C(=O)C1([H])N(C(=O)C([H])(N([H])C(=O)C([H])(N([H])C([H])([H])[H])C([H])([H])[H])C(C([H])([H])[H])(C([H])([H])[H])C([H])([H])[H])C([H])([H])c2c([H])c(OC([H])([H])c3c([H])c([H])c(C(=O)N4C([H])([H])C([H])([H])C([H])([H])C([H])(n5nc(-c6c([H])c([H])c(Oc7c([H])c([H])c(F)c([H])c7F)c([H])c6[H])c(C(=O)N([H])[H])c5N([H])[H])C4([H])[H])c([H])c(=O)c3[H])c([H])c([H])c2C1([H])[H]

$$$$
52:0:0
     RDKit          3D

 91 99  0  0  1  0  0  0  0  0999 V2000
  -29.1390  -21.3040   20.4910 N   0  0  0  0  0  0  0  0  0  0  0  0
  -28.1450  -21.0860   20.4470 H   0  0  0  0  0  0  0  0  0  0  0  0
  -32.2340  -19.1410   20.7940 C   0  0  0  0  0  3  0  0  0  0  0  0
  -31.7180  -17.8310   20.6570 C   0  0  0  0  0  3  0  0  0  0  0  0
  -31.4070  -20.2870   20.7110 C   0  0  0  0  0  3  0  0  0  0  0  0
  -29.5260  -18.8220   20.3500 C   0  0  0  0  0  3  0  0  0  0  0  0
  -30.3430  -17.6210   20.4100 C   0  0  0  0  0  0  0  0  0  0  0  0
  -30.0160  -20.1640   20.5020 C   0  0  0  0  0  0  0  0  0  0  0  0
  -28.6550  -16.0730   21.3400 C   0  0  0  0  0  1  0  0  0  0  0  0
  -28.9920  -16.3810   18.7980 C   0  0  0  0  0  1  0  0  0  0  0  0
  -29.6790  -16.1820   20.1800 C   0  0  1  0  0  0  0  0  0  0  0  0
  -30.5440  -14.7890   20.0720 C   0  0  0  0  0  0  0  0  0  0  0  0
  -30.3710  -12.5010   19.0680 C   0  0  0  0  0  2  0  0  0  0  0  0
  -29.3720  -12.5480   17.8850 C   0  0  0  0  0  2  0  0  0  0  0  0
  -27.9090  -12.3820   18.3570 C   0  0  0  0  0  2  0  0  0  0  0  0
  -27.5770  -13.2320   19.6120 C   0  0  0  0  0  3  0  0  0  0  0  0
  -28.6940  -13.0830   20.6710 C   0  0  0  0  0  2  0  0  0  0  0  0
  -29.9600  -13.5280   20.0570 N   0  0  0  0  0  0  0  0  0  0  0  0
  -31.7320  -14.8650   19.7450 O   0  0  0  0  0  0  0  0  0  0  0  0
  -25.2110  -13.8580   20.3870 C   0  0  0  0  0  0  0  0  0  0  0  0
  -24.1530  -13.0920   20.7870 C   0  0  0  0  0  0  0  0  0  0  0  0
  -24.6110  -11.7400   20.7480 C   0  0  0  0  0  0  0  0  0  0  0  0
  -26.2470  -12.9670   20.1380 N   0  0  0  0  0  0  0  0  0  0  0  0
  -25.8910  -11.6910   20.4100 N   0  0  0  0  0  0  0  0  0  0  0  0
  -23.8880  -10.4820   20.9540 C   0  0  0  0  0  0  0  0  0  0  0  0
  -24.3410   -9.5160   21.8780 C   0  0  0  0  0  3  0  0  0  0  0  0
  -23.6180   -8.3200   22.0720 C   0  0  0  0  0  3  0  0  0  0  0  0
  -22.4280   -8.0840   21.3420 C   0  0  0  0  0  0  0  0  0  0  0  0
  -21.9960   -9.0410   20.4050 C   0  0  0  0  0  3  0  0  0  0  0  0
  -22.7200  -10.2280   20.2090 C   0  0  0  0  0  3  0  0  0  0  0  0
  -21.6750   -6.9410   21.4480 O   0  0  0  0  0  0  0  0  0  0  0  0
  -21.6440   -6.2080   22.6050 C   0  0  0  0  0  0  0  0  0  0  0  0
  -21.2490   -6.7750   23.8370 C   0  0  0  0  0  3  0  0  0  0  0  0
  -21.1660   -5.9680   24.9880 C   0  0  0  0  0  3  0  0  0  0  0  0
  -21.4660   -4.5950   24.9100 C   0  0  0  0  0  0  0  0  0  0  0  0
  -21.8560   -4.0290   23.6850 C   0  0  0  0  0  3  0  0  0  0  0  0
  -21.9430   -4.8320   22.5350 C   0  0  0  0  0  0  0  0  0  0  0  0
  -22.2990   -4.2780   21.3510 F   0  0  0  0  0  0  0  0  0  0  0  0
  -21.3780   -3.8170   26.0140 F   0  0  0  0  0  0  0  0  0  0  0  0
  -22.7650  -13.5770   21.0950 C   0  0  0  0  0  0  0  0  0  0  0  0
  -22.0600  -12.8860   21.9830 N   0  0  0  0  0  0  0  0  0  0  0  0
  -22.3180  -14.6040   20.5850 O   0  0  0  0  0  0  0  0  0  0  0  0
  -22.4380  -12.0570   22.4170 H   0  0  0  0  0  0  0  0  0  0  0  0
  -21.1330  -13.1940   22.2380 H   0  0  0  0  0  0  0  0  0  0  0  0
  -25.3620  -15.2280   20.1920 N   0  0  0  0  0  0  0  0  0  0  0  0
  -24.5930  -15.8750   20.3250 H   0  0  0  0  0  0  0  0  0  0  0  0
  -26.2000  -15.6720   19.8420 H   0  0  0  0  0  0  0  0  0  0  0  0
  -29.4930  -22.6880   20.0240 C   0  0  0  0  0  3  0  0  0  0  0  0
  -28.5500  -23.9060   20.4800 C   0  0  0  0  0  3  0  0  0  0  0  0
  -28.6320  -25.2700   19.6470 C   0  0  0  0  0  2  0  0  0  0  0  0
  -28.4220  -26.5850   20.2880 O   0  0  0  0  0  0  0  0  0  0  0  0
  -24.6060  -31.8980   23.2460 C   0  0  0  0  0  0  0  0  0  0  0  0
  -27.2510  -27.3520   20.2050 C   0  0  0  0  0  0  0  0  0  0  0  0
  -23.4030  -30.4910   21.6060 C   0  0  0  0  0  3  0  0  0  0  0  0
  -24.8600  -28.9310   20.1870 C   0  0  0  0  0  0  0  0  0  0  0  0
  -25.9380  -30.8200   21.4200 C   0  0  0  0  0  2  0  0  0  0  0  0
  -26.0220  -29.4390   20.7820 C   0  0  0  0  0  0  0  0  0  0  0  0
  -27.2130  -28.6580   20.7810 C   0  0  0  0  0  3  0  0  0  0  0  0
  -26.0650  -26.8840   19.5960 C   0  0  0  0  0  3  0  0  0  0  0  0
  -24.8830  -27.6590   19.5870 C   0  0  0  0  0  3  0  0  0  0  0  0
  -23.6180  -29.8010   20.2320 C   0  0  0  0  0  2  0  0  0  0  0  0
  -24.6670  -31.0870   22.1480 N   0  0  0  0  0  0  0  0  0  0  0  0
  -23.5220  -32.1760   23.7800 O   0  0  0  0  0  0  0  0  0  0  0  0
  -22.7410  -29.4810   22.5720 C   0  0  0  0  0  0  0  0  0  0  0  0
  -21.4140  -29.3090   22.4490 N   0  0  0  0  0  0  0  0  0  0  0  0
  -23.4190  -28.8540   23.3900 O   0  0  0  0  0  0  0  0  0  0  0  0
  -20.9250  -29.8650   21.7610 H   0  0  0  0  0  0  0  0  0  0  0  0
  -18.0360  -28.1280   22.9550 C   0  0  0  0  0  0  0  0  0  0  0  0
  -20.5950  -28.3740   23.2210 C   0  0  0  0  0  3  0  0  0  0  0  0
  -20.6900  -26.9430   22.6460 C   0  0  0  0  0  2  0  0  0  0  0  0
  -19.5850  -26.6250   21.6330 C   0  0  0  0  0  2  0  0  0  0  0  0
  -18.2050  -26.7760   22.2790 C   0  0  0  0  0  2  0  0  0  0  0  0
  -19.1580  -28.8840   23.3830 C   0  0  0  0  0  0  0  0  0  0  0  0
  -18.9460  -30.1480   23.9740 C   0  0  0  0  0  3  0  0  0  0  0  0
  -17.6430  -30.6550   24.1410 C   0  0  0  0  0  3  0  0  0  0  0  0
  -16.5350  -29.8950   23.7290 C   0  0  0  0  0  3  0  0  0  0  0  0
  -16.7330  -28.6330   23.1430 C   0  0  0  0  0  3  0  0  0  0  0  0
  -25.8890  -32.5310   23.8680 C   0  0  0  0  0  3  0  0  0  0  0  0
  -25.5790  -33.9290   24.1970 N   0  0  0  0  0  0  0  0  0  0  0  0
  -25.9120  -34.9830   23.4400 C   0  0  0  0  0  0  0  0  0  0  0  0
  -26.5820  -34.8790   22.4080 O   0  0  0  0  0  0  0  0  0  0  0  0
  -24.9840  -34.0820   24.9990 H   0  0  0  0  0  0  0  0  0  0  0  0
  -24.1810  -36.7760   23.0890 C   0  0  0  0  0  1  0  0  0  0  0  0
  -25.4240  -36.3710   23.8980 C   0  0  0  0  0  3  0  0  0  0  0  0
  -27.5610  -37.2580   24.7220 C   0  0  0  0  0  1  0  0  0  0  0  0
  -26.4550  -37.4260   23.7830 N   0  0  0  0  0  0  0  0  0  0  0  0
  -26.0490  -38.3450   23.9320 H   0  0  0  0  0  0  0  0  0  0  0  0
  -26.4070  -31.7610   25.1460 C   0  0  1  0  0  0  0  0  0  0  0  0
  -25.3140  -31.5260   26.2150 C   0  0  0  0  0  1  0  0  0  0  0  0
  -26.9890  -30.3820   24.7570 C   0  0  0  0  0  1  0  0  0  0  0  0
  -27.5570  -32.5560   25.8080 C   0  0  0  0  0  1  0  0  0  0  0  0
  1  8  1  0
  2  1  1  0
  4  3  2  0
  5  3  1  0
  6  7  2  0
  6  8  1  0
  7  4  1  0
  8  5  2  0
 11 10  1  6
 11  7  1  0
 11  9  1  0
 12 11  1  0
 13 18  1  0
 14 15  1  0
 14 13  1  0
 16 15  1  0
 16 23  1  0
 16 17  1  0
 18 12  1  0
 18 17  1  0
 19 12  2  0
 20 21  2  0
 21 40  1  0
 22 21  1  0
 22 25  1  0
 23 20  1  0
 23 24  1  0
 24 22  2  0
 25 26  1  0
 26 27  2  0
 28 31  1  0
 28 27  1  0
 29 28  2  0
 30 29  1  0
 30 25  2  0
 31 32  1  0
 32 33  1  0
 33 34  2  0
 35 34  1  0
 35 39  1  0
 36 35  2  0
 37 32  2  0
 37 36  1  0
 38 37  1  0
 40 41  1  0
 41 44  1  0
 41 43  1  0
 42 40  2  0
 45 46  1  0
 45 20  1  0
 47 45  1  0
 48 49  2  0
 48  1  1  0
 50 51  1  0
 50 49  1  0
 52 63  2  0
 53 51  1  0
 53 58  1  0
 54 62  1  0
 54 64  1  0
 55 61  1  0
 55 57  1  0
 56 62  1  0
 57 56  1  0
 58 57  2  0
 59 53  2  0
 60 59  1  0
 60 55  2  0
 61 54  1  0
 62 52  1  0
 64 66  2  0
 65 64  1  0
 67 65  1  0
 68 77  2  0
 68 73  1  0
 69 65  1  0
 69 73  1  0
 70 69  1  0
 71 72  1  0
 71 70  1  0
 72 68  1  0
 73 74  2  0
 74 75  1  0
 76 75  2  0
 77 76  1  0
 78 52  1  0
 78 79  1  0
 78 88  1  0
 79 82  1  0
 80 84  1  0
 80 79  1  0
 81 80  2  0
 84 83  1  0
 86 84  1  0
 86 87  1  0
 86 85  1  0
 88 91  1  1
 88 89  1  0
 90 88  1  0
M  ISO  4  11 100  12 100  50 101  51 101
M  END
>  <TORSDO>  (51) 
F 21

>  <SCORE>  (51) 
-13.052

>  <name>  (51) 
52

>  <ligand_id>  (51) 
52

>  <original_smiles>  (51) 
[H]c1c([H])c([H])c2c(c1[H])C([H])([H])C([H])([H])C([H])([H])C2([H])N([H])C(=O)C1([H])N(C(=O)C([H])(N([H])C(=O)C([H])(N([H])C([H])([H])[H])C([H])([H])[H])C(C([H])([H])[H])(C([H])([H])[H])C([H])([H])[H])C([H])([H])c2c([H])c(OC([H])([H])C([H])([H])C([H])([H])N([H])c3c([H])c([H])c([H])c(C(C(=O)N4C([H])([H])C([H])([H])C([H])([H])C([H])(n5nc(-c6c([H])c([H])c(Oc7c([H])c([H])c(F)c([H])c7F)c([H])c6[H])c(C(=O)N([H])[H])c5N([H])[H])C4([H])[H])(C([H])([H])[H])C([H])([H])[H])c3[H])c([H])c([H])c2C1([H])[H]

>  <smiles>  (51) 
[H]c1c([H])c([H])c2c(c1[H])C([H])([H])C([H])([H])C([H])([H])C2([H])N([H])C(=O)C1([H])N(C(=O)C([H])(N([H])C(=O)C([H])(N([H])C([H])([H])[H])C([H])([H])[H])C(C([H])([H])[H])(C([H])([H])[H])C([H])([H])[H])C([H])([H])c2c([H])c(OC([H])([H])C([H])([H])C([H])([H])N([H])c3c([H])c([H])c([H])c(C(C(=O)N4C([H])([H])C([H])([H])C([H])([H])C([H])(n5nc(-c6c([H])c([H])c(Oc7c([H])c([H])c(F)c([H])c7F)c([H])c6[H])c(C(=O)N([H])[H])c5N([H])[H])C4([H])[H])(C([H])([H])[H])C([H])([H])[H])c3[H])c([H])c([H])c2C1([H])[H]

$$$$
53:0:0
     RDKit          3D

 89 96  0  0  1  0  0  0  0  0999 V2000
  -29.1410  -22.5750   21.3080 C   0  0  0  0  0  0  0  0  0  0  0  0
  -29.3700  -23.0890   22.7190 C   0  0  0  0  0  1  0  0  0  0  0  0
  -29.3150  -21.2710   21.2180 N   0  0  0  0  0  0  0  0  0  0  0  0
  -28.8020  -23.7630   20.2860 C   0  0  0  0  0  2  0  0  0  0  0  0
  -28.2340  -25.1640   20.8830 C   0  0  0  0  0  2  0  0  0  0  0  0
  -28.3520  -26.4710   20.1800 O   0  0  0  0  0  0  0  0  0  0  0  0
  -24.6140  -31.8810   23.2410 C   0  0  0  0  0  0  0  0  0  0  0  0
  -27.2390  -27.3250   20.1910 C   0  0  0  0  0  0  0  0  0  0  0  0
  -23.4110  -30.4730   21.6040 C   0  0  0  0  0  3  0  0  0  0  0  0
  -24.8670  -28.9240   20.1740 C   0  0  0  0  0  0  0  0  0  0  0  0
  -25.9470  -30.8020   21.4130 C   0  0  0  0  0  2  0  0  0  0  0  0
  -26.0320  -29.4200   20.7730 C   0  0  0  0  0  0  0  0  0  0  0  0
  -27.2250  -28.6340   20.7690 C   0  0  0  0  0  3  0  0  0  0  0  0
  -26.0560  -26.8820   19.5670 C   0  0  0  0  0  3  0  0  0  0  0  0
  -24.8830  -27.6630   19.5550 C   0  0  0  0  0  3  0  0  0  0  0  0
  -23.6220  -29.7880   20.2270 C   0  0  0  0  0  2  0  0  0  0  0  0
  -24.6760  -31.0710   22.1430 N   0  0  0  0  0  0  0  0  0  0  0  0
  -23.5310  -32.1550   23.7790 O   0  0  0  0  0  0  0  0  0  0  0  0
  -22.7530  -29.4620   22.5710 C   0  0  0  0  0  0  0  0  0  0  0  0
  -21.4280  -29.2810   22.4460 N   0  0  0  0  0  0  0  0  0  0  0  0
  -23.4360  -28.8400   23.3900 O   0  0  0  0  0  0  0  0  0  0  0  0
  -20.9380  -29.8320   21.7560 H   0  0  0  0  0  0  0  0  0  0  0  0
  -18.0580  -28.0590   22.9360 C   0  0  0  0  0  0  0  0  0  0  0  0
  -20.6130  -28.3420   23.2190 C   0  0  0  0  0  3  0  0  0  0  0  0
  -20.7300  -26.9090   22.6510 C   0  0  0  0  0  2  0  0  0  0  0  0
  -19.6360  -26.5700   21.6340 C   0  0  0  0  0  2  0  0  0  0  0  0
  -18.2500  -26.7070   22.2690 C   0  0  0  0  0  2  0  0  0  0  0  0
  -19.1680  -28.8340   23.3680 C   0  0  0  0  0  0  0  0  0  0  0  0
  -18.9360  -30.0980   23.9510 C   0  0  0  0  0  3  0  0  0  0  0  0
  -17.6260  -30.5890   24.1070 C   0  0  0  0  0  3  0  0  0  0  0  0
  -16.5300  -29.8120   23.6940 C   0  0  0  0  0  3  0  0  0  0  0  0
  -16.7480  -28.5490   23.1140 C   0  0  0  0  0  3  0  0  0  0  0  0
  -25.8960  -32.5170   23.8600 C   0  0  0  0  0  3  0  0  0  0  0  0
  -25.5850  -33.9140   24.1930 N   0  0  0  0  0  0  0  0  0  0  0  0
  -25.9120  -34.9700   23.4340 C   0  0  0  0  0  0  0  0  0  0  0  0
  -26.5780  -34.8680   22.4000 O   0  0  0  0  0  0  0  0  0  0  0  0
  -24.9930  -34.0660   24.9960 H   0  0  0  0  0  0  0  0  0  0  0  0
  -24.1780  -36.7600   23.0890 C   0  0  0  0  0  1  0  0  0  0  0  0
  -25.4240  -36.3570   23.8950 C   0  0  0  0  0  3  0  0  0  0  0  0
  -27.5610  -37.2490   24.7110 C   0  0  0  0  0  1  0  0  0  0  0  0
  -26.4530  -37.4130   23.7730 N   0  0  0  0  0  0  0  0  0  0  0  0
  -26.0460  -38.3320   23.9210 H   0  0  0  0  0  0  0  0  0  0  0  0
  -26.4160  -31.7470   25.1360 C   0  0  1  0  0  0  0  0  0  0  0  0
  -25.3270  -31.5070   26.2070 C   0  0  0  0  0  1  0  0  0  0  0  0
  -27.0000  -30.3680   24.7450 C   0  0  0  0  0  1  0  0  0  0  0  0
  -27.5680  -32.5410   25.7950 C   0  0  0  0  0  1  0  0  0  0  0  0
  -29.2310  -20.2380   20.1350 C   0  0  0  0  0  3  0  0  0  0  0  0
  -31.4680  -20.8420   18.9520 C   0  0  0  0  0  1  0  0  0  0  0  0
  -29.9370  -20.7400   18.8540 C   0  0  0  0  0  2  0  0  0  0  0  0
  -29.7600  -18.8030   20.6980 C   0  0  0  0  0  2  0  0  0  0  0  0
  -30.5530  -17.3340   18.6650 C   0  0  0  0  0  1  0  0  0  0  0  0
  -29.6730  -17.3760   19.9290 C   0  0  0  0  0  3  0  0  0  0  0  0
  -29.8910  -16.0520   20.8490 C   0  0  0  0  0  2  0  0  0  0  0  0
  -30.5890  -14.7060   20.3200 C   0  0  0  0  0  0  0  0  0  0  0  0
  -30.3570  -12.4610   19.2590 C   0  0  0  0  0  2  0  0  0  0  0  0
  -29.4100  -12.6080   18.0490 C   0  0  0  0  0  2  0  0  0  0  0  0
  -27.9390  -12.4510   18.4840 C   0  0  0  0  0  2  0  0  0  0  0  0
  -27.5950  -13.3010   19.7350 C   0  0  0  0  0  3  0  0  0  0  0  0
  -28.6600  -13.1400   20.8390 C   0  0  0  0  0  2  0  0  0  0  0  0
  -29.9600  -13.4850   20.2530 N   0  0  0  0  0  0  0  0  0  0  0  0
  -31.7460  -14.7990   19.9010 O   0  0  0  0  0  0  0  0  0  0  0  0
  -25.2090  -13.8980   20.4650 C   0  0  0  0  0  0  0  0  0  0  0  0
  -24.1440  -13.1260   20.8420 C   0  0  0  0  0  0  0  0  0  0  0  0
  -24.6060  -11.7750   20.8170 C   0  0  0  0  0  0  0  0  0  0  0  0
  -26.2510  -13.0170   20.2290 N   0  0  0  0  0  0  0  0  0  0  0  0
  -25.8940  -11.7350   20.4990 N   0  0  0  0  0  0  0  0  0  0  0  0
  -23.8790  -10.5150   21.0200 C   0  0  0  0  0  0  0  0  0  0  0  0
  -24.3230   -9.5450   21.9450 C   0  0  0  0  0  3  0  0  0  0  0  0
  -23.5950   -8.3490   22.1370 C   0  0  0  0  0  3  0  0  0  0  0  0
  -22.4100   -8.1150   21.3990 C   0  0  0  0  0  0  0  0  0  0  0  0
  -21.9840   -9.0750   20.4610 C   0  0  0  0  0  3  0  0  0  0  0  0
  -22.7130  -10.2600   20.2710 C   0  0  0  0  0  3  0  0  0  0  0  0
  -21.6540   -6.9720   21.4990 O   0  0  0  0  0  0  0  0  0  0  0  0
  -21.6330   -6.2190   22.6460 C   0  0  0  0  0  0  0  0  0  0  0  0
  -21.2520   -6.7700   23.8900 C   0  0  0  0  0  3  0  0  0  0  0  0
  -21.1750   -5.9460   25.0290 C   0  0  0  0  0  3  0  0  0  0  0  0
  -21.4710   -4.5730   24.9280 C   0  0  0  0  0  0  0  0  0  0  0  0
  -21.8470   -4.0230   23.6900 C   0  0  0  0  0  3  0  0  0  0  0  0
  -21.9250   -4.8440   22.5520 C   0  0  0  0  0  0  0  0  0  0  0  0
  -22.2660   -4.3040   21.3570 F   0  0  0  0  0  0  0  0  0  0  0  0
  -21.3900   -3.7800   26.0210 F   0  0  0  0  0  0  0  0  0  0  0  0
  -22.7470  -13.6050   21.1190 C   0  0  0  0  0  0  0  0  0  0  0  0
  -22.0260  -12.9130   21.9910 N   0  0  0  0  0  0  0  0  0  0  0  0
  -22.3060  -14.6290   20.5950 O   0  0  0  0  0  0  0  0  0  0  0  0
  -22.3990  -12.0860   22.4320 H   0  0  0  0  0  0  0  0  0  0  0  0
  -21.0910  -13.2160   22.2220 H   0  0  0  0  0  0  0  0  0  0  0  0
  -25.3750  -15.2680   20.2800 N   0  0  0  0  0  0  0  0  0  0  0  0
  -24.6130  -15.9290   20.3800 H   0  0  0  0  0  0  0  0  0  0  0  0
  -26.2330  -15.7020   19.9660 H   0  0  0  0  0  0  0  0  0  0  0  0
  1  2  1  0
  3  1  2  0
  4  5  1  0
  4  1  1  0
  6  8  1  0
  6  5  1  0
  7 18  2  0
  8 13  1  0
  9 17  1  0
  9 19  1  0
 10 16  1  0
 10 12  1  0
 11 17  1  0
 12 11  1  0
 13 12  2  0
 14  8  2  0
 15 14  1  0
 15 10  2  0
 16  9  1  0
 17  7  1  0
 19 21  2  0
 20 19  1  0
 22 20  1  0
 23 32  2  0
 23 28  1  0
 24 20  1  0
 24 28  1  0
 25 24  1  0
 26 27  1  0
 26 25  1  0
 27 23  1  0
 28 29  2  0
 29 30  1  0
 31 30  2  0
 32 31  1  0
 33  7  1  0
 33 34  1  0
 33 43  1  0
 34 37  1  0
 35 39  1  0
 35 34  1  0
 36 35  2  0
 39 38  1  0
 41 39  1  0
 41 42  1  0
 41 40  1  0
 43 46  1  1
 43 44  1  0
 45 43  1  0
 47 49  1  0
 47 50  1  0
 47  3  1  0
 49 48  1  0
 52 51  1  0
 52 50  1  0
 52 53  1  0
 54 53  1  0
 55 60  1  0
 56 57  1  0
 56 55  1  0
 58 57  1  0
 58 65  1  0
 58 59  1  0
 60 54  1  0
 60 59  1  0
 61 54  2  0
 62 63  2  0
 63 82  1  0
 64 63  1  0
 64 67  1  0
 65 62  1  0
 65 66  1  0
 66 64  2  0
 67 68  1  0
 68 69  2  0
 70 73  1  0
 70 69  1  0
 71 70  2  0
 72 71  1  0
 72 67  2  0
 73 74  1  0
 74 75  1  0
 75 76  2  0
 77 76  1  0
 77 81  1  0
 78 77  2  0
 79 74  2  0
 79 78  1  0
 80 79  1  0
 82 83  1  0
 83 86  1  0
 83 85  1  0
 84 82  2  0
 87 88  1  0
 87 62  1  0
 89 87  1  0
M  ISO  4   5 101   6 101  53 100  54 100
M  END
>  <TORSDO>  (52) 
F 23

>  <SCORE>  (52) 
-12.830

>  <name>  (52) 
53

>  <ligand_id>  (52) 
53

>  <original_smiles>  (52) 
[H]c1c([H])c([H])c2c(c1[H])C([H])([H])C([H])([H])C([H])([H])C2([H])N([H])C(=O)C1([H])N(C(=O)C([H])(N([H])C(=O)C([H])(N([H])C([H])([H])[H])C([H])([H])[H])C(C([H])([H])[H])(C([H])([H])[H])C([H])([H])[H])C([H])([H])c2c([H])c(OC([H])([H])C([H])([H])C(=NC([H])(C([H])([H])C([H])([H])[H])C([H])([H])C([H])(C([H])([H])[H])C([H])([H])C(=O)N3C([H])([H])C([H])([H])C([H])([H])C([H])(n4nc(-c5c([H])c([H])c(Oc6c([H])c([H])c(F)c([H])c6F)c([H])c5[H])c(C(=O)N([H])[H])c4N([H])[H])C3([H])[H])C([H])([H])[H])c([H])c([H])c2C1([H])[H]

>  <smiles>  (52) 
[H]c1c([H])c([H])c2c(c1[H])C([H])([H])C([H])([H])C([H])([H])C2([H])N([H])C(=O)C1([H])N(C(=O)C([H])(N([H])C(=O)C([H])(N([H])C([H])([H])[H])C([H])([H])[H])C(C([H])([H])[H])(C([H])([H])[H])C([H])([H])[H])C([H])([H])c2c([H])c(OC([H])([H])C([H])([H])C(=NC([H])(C([H])([H])C([H])([H])[H])C([H])([H])C([H])(C([H])([H])[H])C([H])([H])C(=O)N3C([H])([H])C([H])([H])C([H])([H])C([H])(n4nc(-c5c([H])c([H])c(Oc6c([H])c([H])c(F)c([H])c6F)c([H])c5[H])c(C(=O)N([H])[H])c4N([H])[H])C3([H])[H])C([H])([H])[H])c([H])c([H])c2C1([H])[H]

$$$$
54:0:0
     RDKit          3D

 94102  0  0  1  0  0  0  0  0999 V2000
  -27.6920  -22.4640   20.1360 C   0  0  0  0  0  3  0  0  0  0  0  0
  -27.4210  -23.8920   20.1960 C   0  0  0  0  0  3  0  0  0  0  0  0
  -30.0140  -22.9030   20.1430 C   0  0  0  0  0  3  0  0  0  0  0  0
  -29.0090  -21.8900   20.0800 C   0  0  0  0  0  0  0  0  0  0  0  0
  -29.7550  -24.3310   20.1850 C   0  0  0  0  0  0  0  0  0  0  0  0
  -28.4400  -24.9070   20.1820 C   0  0  0  0  0  0  0  0  0  0  0  0
  -32.2090  -24.8210   20.3170 C   0  0  0  0  0  1  0  0  0  0  0  0
  -30.8210  -25.2440   20.1960 N   0  0  0  0  0  0  0  0  0  0  0  0
  -30.5960  -26.2350   20.2860 H   0  0  0  0  0  0  0  0  0  0  0  0
  -28.3180  -26.3640   20.1550 O   0  0  0  0  0  0  0  0  0  0  0  0
  -24.5940  -31.8750   23.1990 C   0  0  0  0  0  0  0  0  0  0  0  0
  -27.1760  -27.2190   20.1500 C   0  0  0  0  0  0  0  0  0  0  0  0
  -23.3840  -30.4730   21.5680 C   0  0  0  0  0  3  0  0  0  0  0  0
  -24.8260  -28.9040   20.1340 C   0  0  0  0  0  0  0  0  0  0  0  0
  -25.9280  -30.7620   21.3810 C   0  0  0  0  0  2  0  0  0  0  0  0
  -25.9980  -29.3710   20.7380 C   0  0  0  0  0  0  0  0  0  0  0  0
  -27.1690  -28.5390   20.7360 C   0  0  0  0  0  3  0  0  0  0  0  0
  -25.9860  -26.8400   19.4970 C   0  0  0  0  0  3  0  0  0  0  0  0
  -24.8270  -27.6480   19.5030 C   0  0  0  0  0  3  0  0  0  0  0  0
  -23.5940  -29.7920   20.1880 C   0  0  0  0  0  2  0  0  0  0  0  0
  -24.6560  -31.0580   22.1040 N   0  0  0  0  0  0  0  0  0  0  0  0
  -23.5130  -32.1560   23.7370 O   0  0  0  0  0  0  0  0  0  0  0  0
  -22.7210  -29.4630   22.5350 C   0  0  0  0  0  0  0  0  0  0  0  0
  -21.3930  -29.2870   22.4160 N   0  0  0  0  0  0  0  0  0  0  0  0
  -23.4020  -28.8400   23.3530 O   0  0  0  0  0  0  0  0  0  0  0  0
  -20.9020  -29.8410   21.7280 H   0  0  0  0  0  0  0  0  0  0  0  0
  -18.0210  -28.0750   22.9310 C   0  0  0  0  0  0  0  0  0  0  0  0
  -20.5800  -28.3500   23.1930 C   0  0  0  0  0  3  0  0  0  0  0  0
  -20.6870  -26.9170   22.6230 C   0  0  0  0  0  2  0  0  0  0  0  0
  -19.5840  -26.5860   21.6130 C   0  0  0  0  0  2  0  0  0  0  0  0
  -18.2030  -26.7260   22.2580 C   0  0  0  0  0  2  0  0  0  0  0  0
  -19.1370  -28.8450   23.3550 C   0  0  0  0  0  0  0  0  0  0  0  0
  -18.9130  -30.1080   23.9450 C   0  0  0  0  0  3  0  0  0  0  0  0
  -17.6050  -30.6020   24.1140 C   0  0  0  0  0  3  0  0  0  0  0  0
  -16.5050  -29.8300   23.7050 C   0  0  0  0  0  3  0  0  0  0  0  0
  -16.7130  -28.5680   23.1200 C   0  0  0  0  0  3  0  0  0  0  0  0
  -25.8780  -32.5120   23.8160 C   0  0  0  0  0  3  0  0  0  0  0  0
  -25.5650  -33.9080   24.1560 N   0  0  0  0  0  0  0  0  0  0  0  0
  -25.8930  -34.9690   23.4070 C   0  0  0  0  0  0  0  0  0  0  0  0
  -26.5590  -34.8750   22.3720 O   0  0  0  0  0  0  0  0  0  0  0  0
  -24.9730  -34.0560   24.9610 H   0  0  0  0  0  0  0  0  0  0  0  0
  -24.1640  -36.7670   23.0710 C   0  0  0  0  0  1  0  0  0  0  0  0
  -25.4060  -36.3540   23.8780 C   0  0  0  0  0  3  0  0  0  0  0  0
  -27.5410  -37.2310   24.7160 C   0  0  0  0  0  1  0  0  0  0  0  0
  -26.4390  -37.4090   23.7750 N   0  0  0  0  0  0  0  0  0  0  0  0
  -26.0330  -38.3260   23.9310 H   0  0  0  0  0  0  0  0  0  0  0  0
  -26.4040  -31.7390   25.0870 C   0  0  1  0  0  0  0  0  0  0  0  0
  -25.3190  -31.4990   26.1630 C   0  0  0  0  0  1  0  0  0  0  0  0
  -26.9860  -30.3610   24.6930 C   0  0  0  0  0  1  0  0  0  0  0  0
  -27.5570  -32.5340   25.7430 C   0  0  0  0  0  1  0  0  0  0  0  0
  -29.3810  -20.3490   19.6450 C   0  0  0  0  0  3  0  0  0  0  0  0
  -29.3130  -19.0750   20.5520 N   0  0  0  0  0  4  0  0  0  0  0  0
  -29.6740  -19.3450   21.4530 H   0  0  0  0  0  0  0  0  0  0  0  0
  -28.3390  -18.8670   20.6870 H   0  0  0  0  0  0  0  0  0  0  0  0
  -30.0580  -17.7440   20.1410 C   0  0  0  0  0  3  0  0  0  0  0  0
  -29.7410  -16.2660   20.8260 C   0  0  0  0  0  3  0  0  0  0  0  0
  -30.5470  -14.8930   20.4290 C   0  0  0  0  0  0  0  0  0  0  0  0
  -30.4280  -12.5790   19.4270 C   0  0  0  0  0  2  0  0  0  0  0  0
  -29.5120  -12.6160   18.1820 C   0  0  0  0  0  2  0  0  0  0  0  0
  -28.0370  -12.4160   18.5830 C   0  0  0  0  0  2  0  0  0  0  0  0
  -27.6280  -13.3150   19.7800 C   0  0  0  0  0  3  0  0  0  0  0  0
  -28.6630  -13.2550   20.9230 C   0  0  0  0  0  2  0  0  0  0  0  0
  -29.9640  -13.6350   20.3650 N   0  0  0  0  0  0  0  0  0  0  0  0
  -31.7280  -14.9900   20.0770 O   0  0  0  0  0  0  0  0  0  0  0  0
  -25.2270  -13.9050   20.4510 C   0  0  0  0  0  0  0  0  0  0  0  0
  -24.1570  -13.1340   20.8110 C   0  0  0  0  0  0  0  0  0  0  0  0
  -24.6250  -11.7840   20.8140 C   0  0  0  0  0  0  0  0  0  0  0  0
  -26.2770  -13.0260   20.2480 N   0  0  0  0  0  0  0  0  0  0  0  0
  -25.9230  -11.7440   20.5310 N   0  0  0  0  0  0  0  0  0  0  0  0
  -23.8990  -10.5230   21.0090 C   0  0  0  0  0  0  0  0  0  0  0  0
  -24.3190   -9.5660   21.9590 C   0  0  0  0  0  3  0  0  0  0  0  0
  -23.5920   -8.3710   22.1410 C   0  0  0  0  0  3  0  0  0  0  0  0
  -22.4300   -8.1220   21.3720 C   0  0  0  0  0  0  0  0  0  0  0  0
  -22.0290   -9.0660   20.4100 C   0  0  0  0  0  3  0  0  0  0  0  0
  -22.7570  -10.2540   20.2270 C   0  0  0  0  0  3  0  0  0  0  0  0
  -21.6750   -6.9770   21.4630 O   0  0  0  0  0  0  0  0  0  0  0  0
  -21.6180   -6.2420   22.6200 C   0  0  0  0  0  0  0  0  0  0  0  0
  -21.1920   -6.8080   23.8420 C   0  0  0  0  0  3  0  0  0  0  0  0
  -21.0830   -5.9990   24.9910 C   0  0  0  0  0  3  0  0  0  0  0  0
  -21.3890   -4.6270   24.9200 C   0  0  0  0  0  0  0  0  0  0  0  0
  -21.8080   -4.0610   23.7030 C   0  0  0  0  0  3  0  0  0  0  0  0
  -21.9190   -4.8660   22.5550 C   0  0  0  0  0  0  0  0  0  0  0  0
  -22.3030   -4.3120   21.3800 F   0  0  0  0  0  0  0  0  0  0  0  0
  -21.2750   -3.8480   26.0210 F   0  0  0  0  0  0  0  0  0  0  0  0
  -22.7520  -13.6100   21.0400 C   0  0  0  0  0  0  0  0  0  0  0  0
  -22.0060  -12.9260   21.8990 N   0  0  0  0  0  0  0  0  0  0  0  0
  -22.3230  -14.6250   20.4930 O   0  0  0  0  0  0  0  0  0  0  0  0
  -22.3630  -12.1060   22.3660 H   0  0  0  0  0  0  0  0  0  0  0  0
  -21.0620  -13.2280   22.0960 H   0  0  0  0  0  0  0  0  0  0  0  0
  -25.3930  -15.2730   20.2530 N   0  0  0  0  0  0  0  0  0  0  0  0
  -24.6240  -15.9300   20.3270 H   0  0  0  0  0  0  0  0  0  0  0  0
  -26.2430  -15.6980   19.9060 H   0  0  0  0  0  0  0  0  0  0  0  0
  -29.0360  -21.0760   17.1680 C   0  0  0  0  0  1  0  0  0  0  0  0
  -28.7090  -20.0590   18.2760 C   0  0  0  0  0  2  0  0  0  0  0  0
  1  2  1  0
  3  5  2  0
  4  1  2  0
  4  3  1  0
  5  8  1  0
  6  5  1  0
  6  2  2  0
  8  9  1  0
  8  7  1  0
 10  6  1  0
 11 22  2  0
 12 10  1  0
 12 17  1  0
 13 21  1  0
 13 23  1  0
 14 20  1  0
 14 16  1  0
 15 21  1  0
 16 15  1  0
 17 16  2  0
 18 19  1  0
 18 12  2  0
 19 14  2  0
 20 13  1  0
 21 11  1  0
 23 25  2  0
 24 23  1  0
 26 24  1  0
 27 36  2  0
 27 32  1  0
 28 24  1  0
 28 32  1  0
 29 28  1  0
 30 31  1  0
 30 29  1  0
 31 27  1  0
 32 33  2  0
 33 34  1  0
 35 34  2  0
 36 35  1  0
 37 11  1  0
 37 38  1  0
 37 47  1  0
 38 41  1  0
 39 43  1  0
 39 38  1  0
 40 39  2  0
 43 42  1  0
 45 43  1  0
 45 46  1  0
 45 44  1  0
 47 50  1  1
 47 48  1  0
 49 47  1  0
 51 94  1  0
 51  4  1  0
 51 52  1  0
 52 54  1  0
 52 53  1  0
 55 52  1  0
 55 56  2  0
 57 56  1  0
 58 63  1  0
 59 60  1  0
 59 58  1  0
 61 60  1  0
 61 68  1  0
 61 62  1  0
 63 57  1  0
 63 62  1  0
 64 57  2  0
 65 66  2  0
 66 67  1  0
 66 85  1  0
 67 70  1  0
 68 65  1  0
 68 69  1  0
 69 67  2  0
 70 71  1  0
 71 72  2  0
 73 76  1  0
 73 72  1  0
 74 73  2  0
 75 74  1  0
 75 70  2  0
 76 77  1  0
 77 78  1  0
 78 79  2  0
 80 79  1  0
 80 84  1  0
 81 80  2  0
 82 77  2  0
 82 81  1  0
 83 82  1  0
 85 86  1  0
 86 89  1  0
 86 88  1  0
 87 85  2  0
 90 91  1  0
 90 65  1  0
 92 90  1  0
 93 94  1  0
M  ISO  4   6 101  10 101  56 100  57 100
M  END
>  <TORSDO>  (53) 
F 22

>  <SCORE>  (53) 
-13.150

>  <name>  (53) 
54

>  <ligand_id>  (53) 
54

>  <original_smiles>  (53) 
[H]c1c([H])c([H])c2c(c1[H])C([H])([H])C([H])([H])C([H])([H])C2([H])N([H])C(=O)C1([H])N(C(=O)C([H])(N([H])C(=O)C([H])(N([H])C([H])([H])[H])C([H])([H])[H])C(C([H])([H])[H])(C([H])([H])[H])C([H])([H])[H])C([H])([H])c2c([H])c(Oc3c([H])c([H])c(C([H])(C([H])([H])C([H])([H])[H])[N+]([H])([H])C([H])([H])C([H])([H])C(=O)N4C([H])([H])C([H])([H])C([H])([H])C([H])(n5nc(-c6c([H])c([H])c(Oc7c([H])c([H])c(F)c([H])c7F)c([H])c6[H])c(C(=O)N([H])[H])c5N([H])[H])C4([H])[H])c([H])c3N([H])C([H])([H])[H])c([H])c([H])c2C1([H])[H]

>  <smiles>  (53) 
[H]c1c([H])c([H])c2c(c1[H])C([H])([H])C([H])([H])C([H])([H])C2([H])N([H])C(=O)C1([H])N(C(=O)C([H])(N([H])C(=O)C([H])(N([H])C([H])([H])[H])C([H])([H])[H])C(C([H])([H])[H])(C([H])([H])[H])C([H])([H])[H])C([H])([H])c2c([H])c(Oc3c([H])c([H])c(C([H])(C([H])([H])C([H])([H])[H])[N+]([H])([H])C([H])([H])C([H])([H])C(=O)N4C([H])([H])C([H])([H])C([H])([H])C([H])(n5nc(-c6c([H])c([H])c(Oc7c([H])c([H])c(F)c([H])c7F)c([H])c6[H])c(C(=O)N([H])[H])c5N([H])[H])C4([H])[H])c([H])c3N([H])C([H])([H])[H])c([H])c([H])c2C1([H])[H]

$$$$
55:0:0
     RDKit          3D

 93101  0  0  1  0  0  0  0  0999 V2000
  -29.3120  -19.9890   20.4980 C   0  0  0  0  0  0  0  0  0  0  0  0
  -29.6150  -21.3120   20.2660 N   0  0  0  0  0  0  0  0  0  0  0  0
  -28.2570  -19.6920   21.0610 O   0  0  0  0  0  0  0  0  0  0  0  0
  -30.4920  -21.5210   19.8050 H   0  0  0  0  0  0  0  0  0  0  0  0
  -31.5360  -16.4750   21.5490 C   0  0  0  0  0  2  0  0  0  0  0  0
  -29.7390  -17.3130   19.8950 C   0  0  0  0  0  2  0  0  0  0  0  0
  -32.3220  -17.6260   20.8950 C   0  0  0  0  0  2  0  0  0  0  0  0
  -30.3060  -18.8170   20.0940 C   0  0  0  0  0  3  0  0  0  0  0  0
  -30.2250  -16.0610   20.7960 C   0  0  2  0  0  0  0  0  0  0  0  0
  -29.1530  -15.8470   21.8860 C   0  0  0  0  0  1  0  0  0  0  0  0
  -31.5150  -18.8590   20.9410 N   0  0  0  0  0  4  0  0  0  0  0  0
  -32.0830  -19.6490   20.6730 H   0  0  0  0  0  0  0  0  0  0  0  0
  -31.2240  -19.0260   21.8900 H   0  0  0  0  0  0  0  0  0  0  0  0
  -30.5920  -14.7340   19.9470 C   0  0  0  0  0  0  0  0  0  0  0  0
  -30.2050  -12.5680   18.7580 C   0  0  0  0  0  2  0  0  0  0  0  0
  -29.1550  -12.7480   17.6360 C   0  0  0  0  0  2  0  0  0  0  0  0
  -27.7220  -12.5870   18.1840 C   0  0  0  0  0  2  0  0  0  0  0  0
  -27.4950  -13.3690   19.5040 C   0  0  0  0  0  3  0  0  0  0  0  0
  -28.6490  -13.0960   20.4900 C   0  0  0  0  0  2  0  0  0  0  0  0
  -29.9000  -13.5360   19.8450 N   0  0  0  0  0  0  0  0  0  0  0  0
  -31.6280  -14.8500   19.2860 O   0  0  0  0  0  0  0  0  0  0  0  0
  -25.1780  -13.9490   20.4550 C   0  0  0  0  0  0  0  0  0  0  0  0
  -24.1430  -13.1650   20.8880 C   0  0  0  0  0  0  0  0  0  0  0  0
  -24.5880  -11.8120   20.7620 C   0  0  0  0  0  0  0  0  0  0  0  0
  -26.1890  -13.0740   20.0910 N   0  0  0  0  0  0  0  0  0  0  0  0
  -25.8440  -11.7820   20.3310 N   0  0  0  0  0  0  0  0  0  0  0  0
  -23.8720  -10.5450   20.9690 C   0  0  0  0  0  0  0  0  0  0  0  0
  -24.3530   -9.5620   21.8630 C   0  0  0  0  0  3  0  0  0  0  0  0
  -23.6370   -8.3610   22.0550 C   0  0  0  0  0  3  0  0  0  0  0  0
  -22.4250   -8.1370   21.3570 C   0  0  0  0  0  0  0  0  0  0  0  0
  -21.9630   -9.1100   20.4530 C   0  0  0  0  0  3  0  0  0  0  0  0
  -22.6810  -10.3030   20.2560 C   0  0  0  0  0  3  0  0  0  0  0  0
  -21.6770   -6.9900   21.4610 O   0  0  0  0  0  0  0  0  0  0  0  0
  -21.6510   -6.2500   22.6190 C   0  0  0  0  0  0  0  0  0  0  0  0
  -21.2480   -6.8100   23.8510 C   0  0  0  0  0  3  0  0  0  0  0  0
  -21.1660   -5.9990   25.0000 C   0  0  0  0  0  3  0  0  0  0  0  0
  -21.4800   -4.6280   24.9190 C   0  0  0  0  0  0  0  0  0  0  0  0
  -21.8770   -4.0680   23.6920 C   0  0  0  0  0  3  0  0  0  0  0  0
  -21.9580   -4.8770   22.5430 C   0  0  0  0  0  0  0  0  0  0  0  0
  -22.3210   -4.3260   21.3600 F   0  0  0  0  0  0  0  0  0  0  0  0
  -21.3950   -3.8460   26.0210 F   0  0  0  0  0  0  0  0  0  0  0  0
  -22.7780  -13.6360   21.3050 C   0  0  0  0  0  0  0  0  0  0  0  0
  -22.1320  -12.9160   22.2130 N   0  0  0  0  0  0  0  0  0  0  0  0
  -22.2990  -14.6820   20.8650 O   0  0  0  0  0  0  0  0  0  0  0  0
  -22.5290  -12.0700   22.5910 H   0  0  0  0  0  0  0  0  0  0  0  0
  -21.2190  -13.2120   22.5310 H   0  0  0  0  0  0  0  0  0  0  0  0
  -25.3360  -15.3250   20.3170 N   0  0  0  0  0  0  0  0  0  0  0  0
  -24.5980  -15.9830   20.5420 H   0  0  0  0  0  0  0  0  0  0  0  0
  -26.1530  -15.7700   19.9200 H   0  0  0  0  0  0  0  0  0  0  0  0
  -28.6820  -22.4810   20.4800 C   0  0  0  0  0  2  0  0  0  0  0  0
  -29.1950  -23.9890   20.2970 C   0  0  0  0  0  2  0  0  0  0  0  0
  -28.0300  -25.0700   20.1430 C   0  0  0  0  0  2  0  0  0  0  0  0
  -28.2630  -26.5380   20.1630 O   0  0  0  0  0  0  0  0  0  0  0  0
  -24.5260  -31.9240   23.2190 C   0  0  0  0  0  0  0  0  0  0  0  0
  -27.1290  -27.3770   20.1290 C   0  0  0  0  0  0  0  0  0  0  0  0
  -23.3060  -30.5160   21.5960 C   0  0  0  0  0  3  0  0  0  0  0  0
  -24.7450  -28.9710   20.1520 C   0  0  0  0  0  0  0  0  0  0  0  0
  -25.8390  -30.8490   21.3760 C   0  0  0  0  0  2  0  0  0  0  0  0
  -25.9190  -29.4680   20.7320 C   0  0  0  0  0  0  0  0  0  0  0  0
  -27.1130  -28.6830   20.7080 C   0  0  0  0  0  3  0  0  0  0  0  0
  -25.9280  -26.9390   19.5200 C   0  0  0  0  0  3  0  0  0  0  0  0
  -24.7530  -27.7140   19.5300 C   0  0  0  0  0  3  0  0  0  0  0  0
  -23.5050  -29.8420   20.2140 C   0  0  0  0  0  2  0  0  0  0  0  0
  -24.5770  -31.1120   22.1230 N   0  0  0  0  0  0  0  0  0  0  0  0
  -23.4480  -32.1980   23.7660 O   0  0  0  0  0  0  0  0  0  0  0  0
  -22.6600  -29.5000   22.5690 C   0  0  0  0  0  0  0  0  0  0  0  0
  -21.3360  -29.3080   22.4500 N   0  0  0  0  0  0  0  0  0  0  0  0
  -23.3490  -28.8910   23.3930 O   0  0  0  0  0  0  0  0  0  0  0  0
  -20.8360  -29.8510   21.7600 H   0  0  0  0  0  0  0  0  0  0  0  0
  -17.9780  -28.0580   22.9680 C   0  0  0  0  0  0  0  0  0  0  0  0
  -20.5320  -28.3680   23.2350 C   0  0  0  0  0  3  0  0  0  0  0  0
  -20.6600  -26.9310   22.6790 C   0  0  0  0  0  2  0  0  0  0  0  0
  -19.5630  -26.5720   21.6710 C   0  0  0  0  0  2  0  0  0  0  0  0
  -18.1790  -26.7030   22.3110 C   0  0  0  0  0  2  0  0  0  0  0  0
  -19.0830  -28.8450   23.3880 C   0  0  0  0  0  0  0  0  0  0  0  0
  -18.8400  -30.1120   23.9660 C   0  0  0  0  0  3  0  0  0  0  0  0
  -17.5270  -30.5910   24.1270 C   0  0  0  0  0  3  0  0  0  0  0  0
  -16.4370  -29.8010   23.7220 C   0  0  0  0  0  3  0  0  0  0  0  0
  -16.6630  -28.5370   23.1480 C   0  0  0  0  0  3  0  0  0  0  0  0
  -25.8150  -32.5670   23.8190 C   0  0  0  0  0  3  0  0  0  0  0  0
  -26.3610  -31.7900   25.0800 C   0  0  1  0  0  0  0  0  0  0  0  0
  -25.2910  -31.5260   26.1680 C   0  0  0  0  0  1  0  0  0  0  0  0
  -26.9530  -30.4220   24.6670 C   0  0  0  0  0  1  0  0  0  0  0  0
  -27.5170  -32.5880   25.7280 C   0  0  0  0  0  1  0  0  0  0  0  0
  -25.5000  -33.9590   24.1680 N   0  0  0  0  0  0  0  0  0  0  0  0
  -25.7860  -35.0190   23.3980 C   0  0  0  0  0  0  0  0  0  0  0  0
  -26.4190  -34.9250   22.3430 O   0  0  0  0  0  0  0  0  0  0  0  0
  -24.9470  -34.1060   24.9980 H   0  0  0  0  0  0  0  0  0  0  0  0
  -24.0170  -36.7850   23.1310 C   0  0  0  0  0  1  0  0  0  0  0  0
  -25.3040  -36.4010   23.8790 C   0  0  0  0  0  3  0  0  0  0  0  0
  -27.4630  -37.3230   24.5990 C   0  0  0  0  0  1  0  0  0  0  0  0
  -26.3130  -37.4690   23.7090 N   0  0  0  0  0  0  0  0  0  0  0  0
  -25.8990  -38.3830   23.8720 H   0  0  0  0  0  0  0  0  0  0  0  0
  1  3  2  0
  2 50  1  0
  2  1  1  0
  4  2  1  0
  6  8  1  0
  6  9  1  0
  7 11  1  0
  7  5  1  0
  8  1  1  0
  8 11  1  0
  9  5  1  0
  9 10  1  1
 11 13  1  0
 12 11  1  0
 14  9  1  0
 15 20  1  0
 16 17  1  0
 16 15  1  0
 18 17  1  0
 18 25  1  0
 18 19  1  0
 20 14  1  0
 20 19  1  0
 21 14  2  0
 22 23  2  0
 23 42  1  0
 24 23  1  0
 24 27  1  0
 25 26  1  0
 25 22  1  0
 26 24  2  0
 27 28  1  0
 28 29  2  0
 30 33  1  0
 30 29  1  0
 31 30  2  0
 32 31  1  0
 32 27  2  0
 33 34  1  0
 34 35  1  0
 35 36  2  0
 37 36  1  0
 37 41  1  0
 38 37  2  0
 39 34  2  0
 39 38  1  0
 40 39  1  0
 42 43  1  0
 43 46  1  0
 43 45  1  0
 44 42  2  0
 47 22  1  0
 47 48  1  0
 49 47  1  0
 51 50  1  0
 52 53  1  0
 52 51  1  0
 54 65  2  0
 55 53  1  0
 55 60  1  0
 56 64  1  0
 56 66  1  0
 57 63  1  0
 57 59  1  0
 58 64  1  0
 59 58  1  0
 60 59  2  0
 61 62  1  0
 61 55  2  0
 62 57  2  0
 63 56  1  0
 64 54  1  0
 66 68  2  0
 67 66  1  0
 69 67  1  0
 70 79  2  0
 70 75  1  0
 71 67  1  0
 71 75  1  0
 72 71  1  0
 73 74  1  0
 73 72  1  0
 74 70  1  0
 75 76  2  0
 76 77  1  0
 78 77  2  0
 79 78  1  0
 80 54  1  0
 80 85  1  0
 80 81  1  0
 81 84  1  1
 81 82  1  0
 83 81  1  0
 85 88  1  0
 86 90  1  0
 86 85  1  0
 87 86  2  0
 90 89  1  0
 92 93  1  0
 92 90  1  0
 92 91  1  0
M  ISO  4   9 100  14 100  52 101  53 101
M  END
>  <TORSDO>  (54) 
F 20

>  <SCORE>  (54) 
-12.296

>  <name>  (54) 
55

>  <ligand_id>  (54) 
55

>  <original_smiles>  (54) 
[H]c1c([H])c([H])c2c(c1[H])C([H])([H])C([H])([H])C([H])([H])C2([H])N([H])C(=O)C1([H])N(C(=O)C([H])(N([H])C(=O)C([H])(N([H])C([H])([H])[H])C([H])([H])[H])C(C([H])([H])[H])(C([H])([H])[H])C([H])([H])[H])C([H])([H])c2c([H])c(OC([H])([H])C([H])([H])C([H])([H])N([H])C(=O)C3([H])C([H])([H])C(C(=O)N4C([H])([H])C([H])([H])C([H])([H])C([H])(n5nc(-c6c([H])c([H])c(Oc7c([H])c([H])c(F)c([H])c7F)c([H])c6[H])c(C(=O)N([H])[H])c5N([H])[H])C4([H])[H])(C([H])([H])[H])C([H])([H])C([H])([H])[N+]3([H])[H])c([H])c([H])c2C1([H])[H]

>  <smiles>  (54) 
[H]c1c([H])c([H])c2c(c1[H])C([H])([H])C([H])([H])C([H])([H])C2([H])N([H])C(=O)C1([H])N(C(=O)C([H])(N([H])C(=O)C([H])(N([H])C([H])([H])[H])C([H])([H])[H])C(C([H])([H])[H])(C([H])([H])[H])C([H])([H])[H])C([H])([H])c2c([H])c(OC([H])([H])C([H])([H])C([H])([H])N([H])C(=O)C3([H])C([H])([H])C(C(=O)N4C([H])([H])C([H])([H])C([H])([H])C([H])(n5nc(-c6c([H])c([H])c(Oc7c([H])c([H])c(F)c([H])c7F)c([H])c6[H])c(C(=O)N([H])[H])c5N([H])[H])C4([H])[H])(C([H])([H])[H])C([H])([H])C([H])([H])[N+]3([H])[H])c([H])c([H])c2C1([H])[H]

$$$$
56:0:0
     RDKit          3D

 95103  0  0  1  0  0  0  0  0999 V2000
  -32.1910  -23.8600   21.2550 C   0  0  0  0  0  3  0  0  0  0  0  0
  -32.5020  -22.4930   21.1370 C   0  0  0  0  0  3  0  0  0  0  0  0
  -31.4840  -24.5120   20.2300 C   0  0  0  0  0  3  0  0  0  0  0  0
  -31.4610  -22.4500   18.9330 C   0  0  0  0  0  3  0  0  0  0  0  0
  -32.1220  -21.7730   19.9830 C   0  0  0  0  0  0  0  0  0  0  0  0
  -31.0950  -23.8060   19.0640 C   0  0  0  0  0  0  0  0  0  0  0  0
  -32.4450  -20.2850   19.8830 C   0  0  0  0  0  2  0  0  0  0  0  0
  -31.2900  -19.3500   20.0560 N   0  0  2  0  0  4  0  0  0  0  0  0
  -30.8110  -19.3630   19.1680 H   0  0  0  0  0  0  0  0  0  0  0  0
  -29.1410  -20.6070   20.5470 C   0  0  0  0  0  1  0  0  0  0  0  0
  -30.8430  -20.2330   22.4240 C   0  0  0  0  0  1  0  0  0  0  0  0
  -30.2640  -19.7070   21.0960 C   0  0  0  0  0  3  0  0  0  0  0  0
  -31.7650  -17.9430   20.2060 C   0  0  0  0  0  2  0  0  0  0  0  0
  -30.6880  -16.8990   19.8240 C   0  0  0  0  0  2  0  0  0  0  0  0
  -30.7340  -15.6060   20.6740 C   0  0  0  0  0  2  0  0  0  0  0  0
  -31.3340  -14.3850   19.9460 C   0  0  0  0  0  0  0  0  0  0  0  0
  -31.0030  -12.1320   18.9880 C   0  0  0  0  0  2  0  0  0  0  0  0
  -30.0110  -12.2210   17.8100 C   0  0  0  0  0  2  0  0  0  0  0  0
  -28.5490  -12.1490   18.3010 C   0  0  0  0  0  2  0  0  0  0  0  0
  -28.2710  -13.1080   19.4910 C   0  0  0  0  0  3  0  0  0  0  0  0
  -29.3640  -12.9420   20.5720 C   0  0  0  0  0  2  0  0  0  0  0  0
  -30.6650  -13.2010   19.9370 N   0  0  0  0  0  0  0  0  0  0  0  0
  -32.3950  -14.5460   19.3330 O   0  0  0  0  0  0  0  0  0  0  0  0
  -25.9520  -13.8520   20.3380 C   0  0  0  0  0  0  0  0  0  0  0  0
  -24.8590  -13.1410   20.7510 C   0  0  0  0  0  0  0  0  0  0  0  0
  -25.2320  -11.7630   20.6690 C   0  0  0  0  0  0  0  0  0  0  0  0
  -26.9270  -12.9130   20.0350 N   0  0  0  0  0  0  0  0  0  0  0  0
  -26.4970  -11.6510   20.2880 N   0  0  0  0  0  0  0  0  0  0  0  0
  -24.4390  -10.5450   20.8780 C   0  0  0  0  0  0  0  0  0  0  0  0
  -24.7880   -9.6020   21.8710 C   0  0  0  0  0  3  0  0  0  0  0  0
  -24.0020   -8.4450   22.0660 C   0  0  0  0  0  3  0  0  0  0  0  0
  -22.8540   -8.2240   21.2690 C   0  0  0  0  0  0  0  0  0  0  0  0
  -22.5250   -9.1550   20.2670 C   0  0  0  0  0  3  0  0  0  0  0  0
  -23.3120  -10.3030   20.0700 C   0  0  0  0  0  3  0  0  0  0  0  0
  -22.0480   -7.1170   21.3680 O   0  0  0  0  0  0  0  0  0  0  0  0
  -21.8240   -6.4950   22.5690 C   0  0  0  0  0  0  0  0  0  0  0  0
  -21.2070   -7.1630   23.6500 C   0  0  0  0  0  3  0  0  0  0  0  0
  -20.9330   -6.4660   24.8440 C   0  0  0  0  0  3  0  0  0  0  0  0
  -21.2670   -5.1020   24.9570 C   0  0  0  0  0  0  0  0  0  0  0  0
  -21.8760   -4.4350   23.8800 C   0  0  0  0  0  3  0  0  0  0  0  0
  -22.1510   -5.1290   22.6890 C   0  0  0  0  0  0  0  0  0  0  0  0
  -22.7200   -4.4750   21.6460 F   0  0  0  0  0  0  0  0  0  0  0  0
  -20.9960   -4.4310   26.1010 F   0  0  0  0  0  0  0  0  0  0  0  0
  -23.5120  -13.6960   21.1140 C   0  0  0  0  0  0  0  0  0  0  0  0
  -22.7930  -13.0270   22.0090 N   0  0  0  0  0  0  0  0  0  0  0  0
  -23.1080  -14.7570   20.6400 O   0  0  0  0  0  0  0  0  0  0  0  0
  -23.1330  -12.1690   22.4150 H   0  0  0  0  0  0  0  0  0  0  0  0
  -21.8910  -13.3810   22.2940 H   0  0  0  0  0  0  0  0  0  0  0  0
  -26.1950  -15.2140   20.1760 N   0  0  0  0  0  0  0  0  0  0  0  0
  -25.4790  -15.9150   20.3350 H   0  0  0  0  0  0  0  0  0  0  0  0
  -27.0570  -15.6010   19.8120 H   0  0  0  0  0  0  0  0  0  0  0  0
  -30.3500  -24.3530   18.0400 O   0  0  0  0  0  0  0  0  0  0  0  0
  -29.7590  -25.6400   18.2240 C   0  0  0  0  0  2  0  0  0  0  0  0
  -28.6230  -25.6260   19.2670 C   0  0  0  0  0  2  0  0  0  0  0  0
  -28.4810  -26.9490   19.7760 O   0  0  0  0  0  0  0  0  0  0  0  0
  -24.6590  -31.7390   23.3070 C   0  0  0  0  0  0  0  0  0  0  0  0
  -27.2590  -27.5800   19.8330 C   0  0  0  0  0  0  0  0  0  0  0  0
  -23.4270  -30.4830   21.5660 C   0  0  0  0  0  3  0  0  0  0  0  0
  -24.8560  -29.0630   20.0050 C   0  0  0  0  0  0  0  0  0  0  0  0
  -25.9480  -30.8520   21.3700 C   0  0  0  0  0  2  0  0  0  0  0  0
  -26.0180  -29.5390   20.6210 C   0  0  0  0  0  0  0  0  0  0  0  0
  -27.2160  -28.8040   20.5350 C   0  0  0  0  0  3  0  0  0  0  0  0
  -26.0770  -27.1100   19.2140 C   0  0  0  0  0  3  0  0  0  0  0  0
  -24.8790  -27.8450   19.3040 C   0  0  0  0  0  3  0  0  0  0  0  0
  -23.6150  -29.9150   20.1350 C   0  0  0  0  0  2  0  0  0  0  0  0
  -24.6970  -31.0350   22.1400 N   0  0  0  0  0  0  0  0  0  0  0  0
  -23.5850  -31.9680   23.8800 O   0  0  0  0  0  0  0  0  0  0  0  0
  -22.7820  -29.3900   22.4450 C   0  0  0  0  0  0  0  0  0  0  0  0
  -21.4560  -29.2250   22.3130 N   0  0  0  0  0  0  0  0  0  0  0  0
  -23.4700  -28.6930   23.1970 O   0  0  0  0  0  0  0  0  0  0  0  0
  -20.9660  -29.8380   21.6760 H   0  0  0  0  0  0  0  0  0  0  0  0
  -18.0720  -28.0410   22.7590 C   0  0  0  0  0  0  0  0  0  0  0  0
  -20.6380  -28.2320   23.0070 C   0  0  0  0  0  3  0  0  0  0  0  0
  -20.7080  -26.8610   22.2960 C   0  0  0  0  0  2  0  0  0  0  0  0
  -19.5830  -26.6510   21.2770 C   0  0  0  0  0  2  0  0  0  0  0  0
  -18.2160  -26.7560   21.9580 C   0  0  0  0  0  2  0  0  0  0  0  0
  -19.2110  -28.7410   23.2380 C   0  0  0  0  0  0  0  0  0  0  0  0
  -19.0250  -29.9470   23.9460 C   0  0  0  0  0  3  0  0  0  0  0  0
  -17.7320  -30.4530   24.1810 C   0  0  0  0  0  3  0  0  0  0  0  0
  -16.6080  -29.7460   23.7190 C   0  0  0  0  0  3  0  0  0  0  0  0
  -16.7800  -28.5410   23.0150 C   0  0  0  0  0  3  0  0  0  0  0  0
  -25.9560  -32.3040   23.9650 C   0  0  0  0  0  3  0  0  0  0  0  0
  -26.4080  -31.4970   25.2420 C   0  0  1  0  0  0  0  0  0  0  0  0
  -25.2780  -31.2900   26.2780 C   0  0  0  0  0  1  0  0  0  0  0  0
  -26.9450  -30.1030   24.8440 C   0  0  0  0  0  1  0  0  0  0  0  0
  -27.5710  -32.2370   25.9460 C   0  0  0  0  0  1  0  0  0  0  0  0
  -25.7030  -33.7110   24.3020 N   0  0  0  0  0  0  0  0  0  0  0  0
  -26.1160  -34.7540   23.5700 C   0  0  0  0  0  0  0  0  0  0  0  0
  -26.8230  -34.6280   22.5650 O   0  0  0  0  0  0  0  0  0  0  0  0
  -25.0890  -33.8870   25.0840 H   0  0  0  0  0  0  0  0  0  0  0  0
  -24.5040  -36.6360   23.1470 C   0  0  0  0  0  1  0  0  0  0  0  0
  -25.6750  -36.1590   24.0210 C   0  0  0  0  0  3  0  0  0  0  0  0
  -27.7940  -36.9270   24.9960 C   0  0  0  0  0  1  0  0  0  0  0  0
  -26.7660  -37.1580   23.9840 N   0  0  0  0  0  0  0  0  0  0  0  0
  -26.3990  -38.0980   24.1120 H   0  0  0  0  0  0  0  0  0  0  0  0
  2  1  1  0
  3  1  2  0
  4  6  2  0
  4  5  1  0
  5  2  2  0
  6  3  1  0
  7  5  1  0
  7  8  1  0
  8 13  1  0
  8 12  1  0
  8  9  1  6
 10 12  1  0
 12 11  1  0
 14 13  1  0
 14 15  1  0
 16 15  1  0
 17 22  1  0
 18 19  1  0
 18 17  1  0
 20 19  1  0
 20 27  1  0
 20 21  1  0
 22 16  1  0
 22 21  1  0
 23 16  2  0
 24 25  2  0
 25 44  1  0
 26 25  1  0
 26 29  1  0
 27 28  1  0
 27 24  1  0
 28 26  2  0
 29 30  1  0
 30 31  2  0
 32 35  1  0
 32 31  1  0
 33 32  2  0
 34 33  1  0
 34 29  2  0
 35 36  1  0
 36 41  2  0
 36 37  1  0
 37 38  2  0
 38 39  1  0
 39 43  1  0
 40 39  2  0
 41 40  1  0
 42 41  1  0
 44 45  1  0
 45 48  1  0
 45 47  1  0
 46 44  2  0
 49 50  1  0
 49 24  1  0
 51 49  1  0
 52 53  1  0
 52  6  1  0
 53 54  1  0
 54 55  1  0
 55 57  1  0
 56 67  2  0
 57 62  1  0
 58 66  1  0
 58 68  1  0
 59 65  1  0
 59 61  1  0
 60 66  1  0
 61 60  1  0
 62 61  2  0
 63 64  1  0
 63 57  2  0
 64 59  2  0
 65 58  1  0
 66 56  1  0
 68 70  2  0
 69 68  1  0
 71 69  1  0
 72 81  2  0
 72 77  1  0
 73 69  1  0
 73 77  1  0
 74 73  1  0
 75 76  1  0
 75 74  1  0
 76 72  1  0
 77 78  2  0
 78 79  1  0
 80 79  2  0
 81 80  1  0
 82 56  1  0
 82 87  1  0
 82 83  1  0
 83 86  1  1
 83 84  1  0
 85 83  1  0
 87 90  1  0
 88 92  1  0
 88 87  1  0
 89 88  2  0
 92 91  1  0
 94 92  1  0
 94 95  1  0
 94 93  1  0
M  ISO  4  15 100  16 100  54 101  55 101
M  END
>  <TORSDO>  (55) 
F 25

>  <SCORE>  (55) 
-10.253

>  <name>  (55) 
56

>  <ligand_id>  (55) 
56

>  <original_smiles>  (55) 
[H]c1c([H])c([H])c2c(c1[H])C([H])([H])C([H])([H])C([H])([H])C2([H])N([H])C(=O)C1([H])N(C(=O)C([H])(N([H])C(=O)C([H])(N([H])C([H])([H])[H])C([H])([H])[H])C(C([H])([H])[H])(C([H])([H])[H])C([H])([H])[H])C([H])([H])c2c([H])c(OC([H])([H])C([H])([H])Oc3c([H])c([H])c([H])c(C([H])([H])[N+]([H])(C([H])([H])C([H])([H])C([H])([H])C(=O)N4C([H])([H])C([H])([H])C([H])([H])C([H])(n5nc(-c6c([H])c([H])c(Oc7c([H])c([H])c(F)c([H])c7F)c([H])c6[H])c(C(=O)N([H])[H])c5N([H])[H])C4([H])[H])C([H])(C([H])([H])[H])C([H])([H])[H])c3[H])c([H])c([H])c2C1([H])[H]

>  <smiles>  (55) 
[H]c1c([H])c([H])c2c(c1[H])C([H])([H])C([H])([H])C([H])([H])C2([H])N([H])C(=O)C1([H])N(C(=O)C([H])(N([H])C(=O)C([H])(N([H])C([H])([H])[H])C([H])([H])[H])C(C([H])([H])[H])(C([H])([H])[H])C([H])([H])[H])C([H])([H])c2c([H])c(OC([H])([H])C([H])([H])Oc3c([H])c([H])c([H])c(C([H])([H])[N+]([H])(C([H])([H])C([H])([H])C([H])([H])C(=O)N4C([H])([H])C([H])([H])C([H])([H])C([H])(n5nc(-c6c([H])c([H])c(Oc7c([H])c([H])c(F)c([H])c7F)c([H])c6[H])c(C(=O)N([H])[H])c5N([H])[H])C4([H])[H])C([H])(C([H])([H])[H])C([H])([H])[H])c3[H])c([H])c([H])c2C1([H])[H]

$$$$
57:0:0
     RDKit          3D

 99106  0  0  1  0  0  0  0  0999 V2000
  -30.3190  -20.8220   20.0770 C   0  0  0  0  0  2  0  0  0  0  0  0
  -29.2330  -21.8640   20.5280 C   0  0  0  0  0  2  0  0  0  0  0  0
  -29.7300  -23.1140   21.3410 C   0  0  0  0  0  3  0  0  0  0  0  0
  -29.0850  -23.1970   22.6720 N   0  0  0  0  0  4  0  0  0  0  0  0
  -28.0930  -23.3440   22.6000 H   0  0  0  0  0  0  0  0  0  0  0  0
  -29.4750  -23.9550   23.2080 H   0  0  0  0  0  0  0  0  0  0  0  0
  -29.2250  -22.3590   23.2050 H   0  0  0  0  0  0  0  0  0  0  0  0
  -29.7210  -24.5090   20.6110 C   0  0  0  0  0  2  0  0  0  0  0  0
  -28.3560  -25.1990   20.3060 C   0  0  0  0  0  2  0  0  0  0  0  0
  -28.4870  -26.6260   20.0850 O   0  0  0  0  0  0  0  0  0  0  0  0
  -24.6020  -31.7810   23.1330 C   0  0  0  0  0  0  0  0  0  0  0  0
  -27.3130  -27.3650   20.0490 C   0  0  0  0  0  0  0  0  0  0  0  0
  -23.4190  -30.3710   21.4830 C   0  0  0  0  0  3  0  0  0  0  0  0
  -24.8980  -28.8610   20.0520 C   0  0  0  0  0  0  0  0  0  0  0  0
  -25.9420  -30.7610   21.2920 C   0  0  0  0  0  2  0  0  0  0  0  0
  -26.0500  -29.3950   20.6410 C   0  0  0  0  0  0  0  0  0  0  0  0
  -27.2630  -28.6610   20.6260 C   0  0  0  0  0  3  0  0  0  0  0  0
  -26.1390  -26.8540   19.4510 C   0  0  0  0  0  3  0  0  0  0  0  0
  -24.9390  -27.5920   19.4490 C   0  0  0  0  0  3  0  0  0  0  0  0
  -23.6400  -29.7010   20.1010 C   0  0  0  0  0  2  0  0  0  0  0  0
  -24.6720  -30.9870   22.0270 N   0  0  0  0  0  0  0  0  0  0  0  0
  -23.5160  -32.0360   23.6730 O   0  0  0  0  0  0  0  0  0  0  0  0
  -22.7790  -29.3370   22.4380 C   0  0  0  0  0  0  0  0  0  0  0  0
  -21.4590  -29.1300   22.3000 N   0  0  0  0  0  0  0  0  0  0  0  0
  -23.4680  -28.7230   23.2580 O   0  0  0  0  0  0  0  0  0  0  0  0
  -20.9630  -29.6790   21.6130 H   0  0  0  0  0  0  0  0  0  0  0  0
  -18.1110  -27.8450   22.7490 C   0  0  0  0  0  0  0  0  0  0  0  0
  -20.6550  -28.1740   23.0630 C   0  0  0  0  0  3  0  0  0  0  0  0
  -20.8070  -26.7420   22.5000 C   0  0  0  0  0  2  0  0  0  0  0  0
  -19.7330  -26.3820   21.4690 C   0  0  0  0  0  2  0  0  0  0  0  0
  -18.3360  -26.4950   22.0860 C   0  0  0  0  0  2  0  0  0  0  0  0
  -19.2010  -28.6400   23.1940 C   0  0  0  0  0  0  0  0  0  0  0  0
  -18.9400  -29.9010   23.7690 C   0  0  0  0  0  3  0  0  0  0  0  0
  -17.6200  -30.3690   23.9100 C   0  0  0  0  0  3  0  0  0  0  0  0
  -16.5440  -29.5720   23.4840 C   0  0  0  0  0  3  0  0  0  0  0  0
  -16.7890  -28.3130   22.9080 C   0  0  0  0  0  3  0  0  0  0  0  0
  -25.8780  -32.4270   23.7580 C   0  0  0  0  0  3  0  0  0  0  0  0
  -25.5410  -33.8120   24.1220 N   0  0  0  0  0  0  0  0  0  0  0  0
  -25.8530  -34.8880   23.3890 C   0  0  0  0  0  0  0  0  0  0  0  0
  -26.5270  -34.8240   22.3570 O   0  0  0  0  0  0  0  0  0  0  0  0
  -24.9430  -33.9350   24.9250 H   0  0  0  0  0  0  0  0  0  0  0  0
  -24.0880  -36.6530   23.0770 C   0  0  0  0  0  1  0  0  0  0  0  0
  -25.3360  -36.2540   23.8800 C   0  0  0  0  0  3  0  0  0  0  0  0
  -27.4520  -37.1620   24.7340 C   0  0  0  0  0  1  0  0  0  0  0  0
  -26.3470  -37.3310   23.7940 N   0  0  0  0  0  0  0  0  0  0  0  0
  -25.9210  -38.2370   23.9650 H   0  0  0  0  0  0  0  0  0  0  0  0
  -26.4250  -31.6410   25.0120 C   0  0  1  0  0  0  0  0  0  0  0  0
  -25.3490  -31.3560   26.0860 C   0  0  0  0  0  1  0  0  0  0  0  0
  -27.0350  -30.2860   24.5820 C   0  0  0  0  0  1  0  0  0  0  0  0
  -27.5650  -32.4450   25.6780 C   0  0  0  0  0  1  0  0  0  0  0  0
  -31.0200  -19.9640   21.1860 C   0  0  0  0  0  3  0  0  0  0  0  0
  -32.4800  -19.8690   20.9390 N   0  0  0  0  0  4  0  0  0  0  0  0
  -32.7890  -18.9780   21.2930 H   0  0  0  0  0  0  0  0  0  0  0  0
  -32.6270  -19.8530   19.9410 H   0  0  0  0  0  0  0  0  0  0  0  0
  -33.5570  -20.7410   23.0380 C   0  0  0  0  0  1  0  0  0  0  0  0
  -33.3410  -20.9300   21.5200 C   0  0  0  0  0  3  0  0  0  0  0  0
  -35.5610  -19.7570   20.8610 C   0  0  0  0  0  1  0  0  0  0  0  0
  -34.5140  -21.4530   19.2940 C   0  0  0  0  0  1  0  0  0  0  0  0
  -34.6920  -21.0260   20.7620 C   0  0  0  0  0  3  0  0  0  0  0  0
  -30.3050  -18.3060   22.9950 C   0  0  0  0  0  1  0  0  0  0  0  0
  -30.4270  -18.5250   21.4710 C   0  0  0  0  0  3  0  0  0  0  0  0
  -31.1660  -17.3050   20.7900 C   0  0  0  0  0  3  0  0  0  0  0  0
  -30.6020  -15.8810   21.1200 C   0  0  0  0  0  3  0  0  0  0  0  0
  -31.3070  -14.6780   20.4310 C   0  0  0  0  0  0  0  0  0  0  0  0
  -30.9670  -12.5630   19.1890 C   0  0  0  0  0  2  0  0  0  0  0  0
  -30.0430  -12.8450   17.9850 C   0  0  0  0  0  2  0  0  0  0  0  0
  -28.5590  -12.7480   18.3950 C   0  0  0  0  0  2  0  0  0  0  0  0
  -28.2430  -13.5590   19.6800 C   0  0  0  0  0  3  0  0  0  0  0  0
  -29.2750  -13.2510   20.7880 C   0  0  0  0  0  2  0  0  0  0  0  0
  -30.6160  -13.5190   20.2500 N   0  0  0  0  0  0  0  0  0  0  0  0
  -32.4410  -14.8400   19.9690 O   0  0  0  0  0  0  0  0  0  0  0  0
  -25.8530  -14.2510   20.3430 C   0  0  0  0  0  0  0  0  0  0  0  0
  -24.7540  -13.5170   20.6990 C   0  0  0  0  0  0  0  0  0  0  0  0
  -25.1730  -12.1500   20.6880 C   0  0  0  0  0  0  0  0  0  0  0  0
  -26.8730  -13.3350   20.1380 N   0  0  0  0  0  0  0  0  0  0  0  0
  -26.4660  -12.0670   20.4040 N   0  0  0  0  0  0  0  0  0  0  0  0
  -24.4040  -10.9130   20.8750 C   0  0  0  0  0  0  0  0  0  0  0  0
  -24.7640   -9.9610   21.8540 C   0  0  0  0  0  3  0  0  0  0  0  0
  -23.9990   -8.7890   22.0260 C   0  0  0  0  0  3  0  0  0  0  0  0
  -22.8600   -8.5590   21.2190 C   0  0  0  0  0  0  0  0  0  0  0  0
  -22.5180   -9.5000   20.2310 C   0  0  0  0  0  3  0  0  0  0  0  0
  -23.2840  -10.6630   20.0560 C   0  0  0  0  0  3  0  0  0  0  0  0
  -22.0710   -7.4360   21.2990 O   0  0  0  0  0  0  0  0  0  0  0  0
  -21.8950   -6.7640   22.4810 C   0  0  0  0  0  0  0  0  0  0  0  0
  -21.3900   -7.4030   23.6340 C   0  0  0  0  0  3  0  0  0  0  0  0
  -21.1590   -6.6580   24.8070 C   0  0  0  0  0  3  0  0  0  0  0  0
  -21.4210   -5.2750   24.8290 C   0  0  0  0  0  0  0  0  0  0  0  0
  -21.9190   -4.6360   23.6800 C   0  0  0  0  0  3  0  0  0  0  0  0
  -22.1520   -5.3780   22.5080 C   0  0  0  0  0  0  0  0  0  0  0  0
  -22.6120   -4.7530   21.3970 F   0  0  0  0  0  0  0  0  0  0  0  0
  -21.1920   -4.5580   25.9530 F   0  0  0  0  0  0  0  0  0  0  0  0
  -23.3680  -14.0400   20.9410 C   0  0  0  0  0  0  0  0  0  0  0  0
  -22.6080  -13.3820   21.8100 N   0  0  0  0  0  0  0  0  0  0  0  0
  -22.9670  -15.0670   20.3960 O   0  0  0  0  0  0  0  0  0  0  0  0
  -22.9430  -12.5490   22.2730 H   0  0  0  0  0  0  0  0  0  0  0  0
  -21.6760  -13.7160   22.0160 H   0  0  0  0  0  0  0  0  0  0  0  0
  -26.0650  -15.6140   20.1580 N   0  0  0  0  0  0  0  0  0  0  0  0
  -25.3180  -16.2940   20.2500 H   0  0  0  0  0  0  0  0  0  0  0  0
  -26.9380  -16.0240   19.8540 H   0  0  0  0  0  0  0  0  0  0  0  0
  1  2  1  0
  3  2  1  0
  3  4  1  0
  4  7  1  0
  4  6  1  0
  5  4  1  0
  8  3  1  0
  9  8  1  0
 10  9  1  0
 11 22  2  0
 12 10  1  0
 12 17  1  0
 13 21  1  0
 13 23  1  0
 14 20  1  0
 14 16  1  0
 15 21  1  0
 16 15  1  0
 17 16  2  0
 18 12  2  0
 19 18  1  0
 19 14  2  0
 20 13  1  0
 21 11  1  0
 23 25  2  0
 24 23  1  0
 26 24  1  0
 27 36  2  0
 27 32  1  0
 28 24  1  0
 28 32  1  0
 29 28  1  0
 30 31  1  0
 30 29  1  0
 31 27  1  0
 32 33  2  0
 33 34  1  0
 35 34  2  0
 36 35  1  0
 37 11  1  0
 37 38  1  0
 37 47  1  0
 38 41  1  0
 39 43  1  0
 39 38  1  0
 40 39  2  0
 43 42  1  0
 45 43  1  0
 45 46  1  0
 45 44  1  0
 47 50  1  1
 47 48  1  0
 49 47  1  0
 51  1  1  0
 51 61  1  0
 52 51  1  0
 52 53  1  0
 52 56  1  0
 54 52  1  0
 56 55  1  0
 58 59  1  0
 59 57  1  0
 59 56  1  0
 61 60  1  0
 62 63  2  0
 62 61  1  0
 64 63  1  0
 65 70  1  0
 66 67  1  0
 66 65  1  0
 68 67  1  0
 68 75  1  0
 68 69  1  0
 70 64  1  0
 70 69  1  0
 71 64  2  0
 72 73  2  0
 73 92  1  0
 74 73  1  0
 74 77  1  0
 75 72  1  0
 75 76  1  0
 76 74  2  0
 77 78  1  0
 78 79  2  0
 80 83  1  0
 80 79  1  0
 81 80  2  0
 82 81  1  0
 82 77  2  0
 83 84  1  0
 84 89  2  0
 84 85  1  0
 85 86  2  0
 86 87  1  0
 87 91  1  0
 88 87  2  0
 89 88  1  0
 90 89  1  0
 92 93  1  0
 93 96  1  0
 93 95  1  0
 94 92  2  0
 97 98  1  0
 97 72  1  0
 99 97  1  0
M  ISO  4   9 101  10 101  63 100  64 100
M  END
>  <TORSDO>  (56) 
F 28

>  <SCORE>  (56) 
-10.778

>  <name>  (56) 
57

>  <ligand_id>  (56) 
57

>  <original_smiles>  (56) 
[H]c1c([H])c([H])c2c(c1[H])C([H])([H])C([H])([H])C([H])([H])C2([H])N([H])C(=O)C1([H])N(C(=O)C([H])(N([H])C(=O)C([H])(N([H])C([H])([H])[H])C([H])([H])[H])C(C([H])([H])[H])(C([H])([H])[H])C([H])([H])[H])C([H])([H])c2c([H])c(OC([H])([H])C([H])([H])C([H])(C([H])([H])C([H])([H])C([H])(C([H])(C([H])([H])[H])C([H])([H])C([H])([H])C(=O)N3C([H])([H])C([H])([H])C([H])([H])C([H])(n4nc(-c5c([H])c([H])c(Oc6c([H])c([H])c(F)c([H])c6F)c([H])c5[H])c(C(=O)N([H])[H])c4N([H])[H])C3([H])[H])[N+]([H])([H])C([H])(C([H])([H])[H])C([H])(C([H])([H])[H])C([H])([H])[H])[N+]([H])([H])[H])c([H])c([H])c2C1([H])[H]

>  <smiles>  (56) 
[H]c1c([H])c([H])c2c(c1[H])C([H])([H])C([H])([H])C([H])([H])C2([H])N([H])C(=O)C1([H])N(C(=O)C([H])(N([H])C(=O)C([H])(N([H])C([H])([H])[H])C([H])([H])[H])C(C([H])([H])[H])(C([H])([H])[H])C([H])([H])[H])C([H])([H])c2c([H])c(OC([H])([H])C([H])([H])C([H])(C([H])([H])C([H])([H])C([H])(C([H])(C([H])([H])[H])C([H])([H])C([H])([H])C(=O)N3C([H])([H])C([H])([H])C([H])([H])C([H])(n4nc(-c5c([H])c([H])c(Oc6c([H])c([H])c(F)c([H])c6F)c([H])c5[H])c(C(=O)N([H])[H])c4N([H])[H])C3([H])[H])[N+]([H])([H])C([H])(C([H])([H])[H])C([H])(C([H])([H])[H])C([H])([H])[H])[N+]([H])([H])[H])c([H])c([H])c2C1([H])[H]

$$$$
58:0:0
     RDKit          3D

 93101  0  0  1  0  0  0  0  0999 V2000
  -29.1390  -22.2350   22.0640 N   0  0  0  0  0  4  0  0  0  0  0  0
  -28.2670  -21.9210   22.4590 H   0  0  0  0  0  0  0  0  0  0  0  0
  -29.1720  -21.9000   21.1170 H   0  0  0  0  0  0  0  0  0  0  0  0
  -30.2500  -21.5530   22.7710 C   0  0  0  0  0  2  0  0  0  0  0  0
  -30.2770  -17.7020   22.4460 C   0  0  0  0  0  3  0  0  0  0  0  0
  -30.8460  -18.6720   20.2860 C   0  0  0  0  0  3  0  0  0  0  0  0
  -30.2030  -18.9970   23.0080 C   0  0  0  0  0  3  0  0  0  0  0  0
  -30.8010  -19.9630   20.8560 C   0  0  0  0  0  3  0  0  0  0  0  0
  -30.5500  -17.5340   21.0680 C   0  0  0  0  0  0  0  0  0  0  0  0
  -30.4310  -20.1400   22.2090 C   0  0  0  0  0  0  0  0  0  0  0  0
  -30.4350  -16.1500   20.4230 C   0  0  0  0  0  2  0  0  0  0  0  0
  -31.9090  -14.2290   19.9020 C   0  0  0  0  0  0  0  0  0  0  0  0
  -31.3750  -12.0130   18.9230 C   0  0  0  0  0  2  0  0  0  0  0  0
  -30.4090  -12.1580   17.7300 C   0  0  0  0  0  2  0  0  0  0  0  0
  -28.9450  -12.1670   18.2180 C   0  0  0  0  0  2  0  0  0  0  0  0
  -28.7130  -13.1580   19.3930 C   0  0  0  0  0  3  0  0  0  0  0  0
  -29.7910  -12.9650   20.4880 C   0  0  0  0  0  2  0  0  0  0  0  0
  -31.1120  -13.1220   19.8580 N   0  0  0  0  0  0  0  0  0  0  0  0
  -32.9770  -14.2980   19.2940 O   0  0  0  0  0  0  0  0  0  0  0  0
  -31.5510  -15.2430   20.7140 N   0  0  0  0  0  0  0  0  0  0  0  0
  -32.3570  -15.7810   20.9960 H   0  0  0  0  0  0  0  0  0  0  0  0
  -26.4510  -14.0410   20.2540 C   0  0  0  0  0  0  0  0  0  0  0  0
  -25.3140  -13.3990   20.6590 C   0  0  0  0  0  0  0  0  0  0  0  0
  -25.5910  -12.0000   20.5540 C   0  0  0  0  0  0  0  0  0  0  0  0
  -27.3610  -13.0430   19.9370 N   0  0  0  0  0  0  0  0  0  0  0  0
  -26.8470  -11.8090   20.1720 N   0  0  0  0  0  0  0  0  0  0  0  0
  -24.7180  -10.8370   20.7440 C   0  0  0  0  0  0  0  0  0  0  0  0
  -25.1370   -9.7120   21.4900 C   0  0  0  0  0  3  0  0  0  0  0  0
  -24.2710   -8.6130   21.6740 C   0  0  0  0  0  3  0  0  0  0  0  0
  -22.9720   -8.6320   21.1150 C   0  0  0  0  0  0  0  0  0  0  0  0
  -22.5670   -9.7450   20.3570 C   0  0  0  0  0  3  0  0  0  0  0  0
  -23.4310  -10.8350   20.1710 C   0  0  0  0  0  3  0  0  0  0  0  0
  -22.0710   -7.5990   21.2210 O   0  0  0  0  0  0  0  0  0  0  0  0
  -21.7980   -7.0030   22.4260 C   0  0  0  0  0  0  0  0  0  0  0  0
  -21.4730   -7.7600   23.5730 C   0  0  0  0  0  3  0  0  0  0  0  0
  -21.1310   -7.1080   24.7750 C   0  0  0  0  0  3  0  0  0  0  0  0
  -21.1050   -5.7020   24.8300 C   0  0  0  0  0  0  0  0  0  0  0  0
  -21.4230   -4.9450   23.6880 C   0  0  0  0  0  3  0  0  0  0  0  0
  -21.7670   -5.5950   22.4880 C   0  0  0  0  0  0  0  0  0  0  0  0
  -22.0520   -4.8620   21.3850 F   0  0  0  0  0  0  0  0  0  0  0  0
  -20.7680   -5.0740   25.9800 F   0  0  0  0  0  0  0  0  0  0  0  0
  -24.0110  -14.0390   21.0310 C   0  0  0  0  0  0  0  0  0  0  0  0
  -23.2970  -13.4700   21.9960 N   0  0  0  0  0  0  0  0  0  0  0  0
  -23.6410  -15.0880   20.5010 O   0  0  0  0  0  0  0  0  0  0  0  0
  -23.6080  -12.6240   22.4500 H   0  0  0  0  0  0  0  0  0  0  0  0
  -22.4220  -13.8860   22.2830 H   0  0  0  0  0  0  0  0  0  0  0  0
  -26.7750  -15.3870   20.1060 N   0  0  0  0  0  0  0  0  0  0  0  0
  -26.0800  -16.1120   20.2500 H   0  0  0  0  0  0  0  0  0  0  0  0
  -27.6310  -15.7330   19.6920 H   0  0  0  0  0  0  0  0  0  0  0  0
  -29.2120  -23.7190   22.0280 C   0  0  0  0  0  2  0  0  0  0  0  0
  -28.2840  -24.3760   20.9690 C   0  0  0  0  0  2  0  0  0  0  0  0
  -28.6720  -25.8500   20.6870 C   0  0  0  0  0  2  0  0  0  0  0  0
  -28.1260  -26.3650   19.4640 O   0  0  0  0  0  0  0  0  0  0  0  0
  -24.7280  -31.2780   23.3250 C   0  0  0  0  0  0  0  0  0  0  0  0
  -27.0320  -27.1800   19.6120 C   0  0  0  0  0  0  0  0  0  0  0  0
  -23.4110  -30.2060   21.5220 C   0  0  0  0  0  3  0  0  0  0  0  0
  -24.7420  -28.8090   19.8560 C   0  0  0  0  0  0  0  0  0  0  0  0
  -25.9450  -30.4460   21.3140 C   0  0  0  0  0  2  0  0  0  0  0  0
  -25.9350  -29.1740   20.4940 C   0  0  0  0  0  0  0  0  0  0  0  0
  -27.0850  -28.3660   20.3750 C   0  0  0  0  0  3  0  0  0  0  0  0
  -25.8380  -26.8300   18.9580 C   0  0  0  0  0  3  0  0  0  0  0  0
  -24.6890  -27.6370   19.0770 C   0  0  0  0  0  3  0  0  0  0  0  0
  -23.5570  -29.7290   20.0520 C   0  0  0  0  0  2  0  0  0  0  0  0
  -24.7140  -30.6530   22.1120 N   0  0  0  0  0  0  0  0  0  0  0  0
  -23.6750  -31.5280   23.9270 O   0  0  0  0  0  0  0  0  0  0  0  0
  -22.7110  -29.0980   22.3430 C   0  0  0  0  0  0  0  0  0  0  0  0
  -21.3830  -28.9850   22.1840 N   0  0  0  0  0  0  0  0  0  0  0  0
  -23.3610  -28.3510   23.0810 O   0  0  0  0  0  0  0  0  0  0  0  0
  -20.9270  -29.6480   21.5730 H   0  0  0  0  0  0  0  0  0  0  0  0
  -17.9620  -27.8280   22.4270 C   0  0  0  0  0  0  0  0  0  0  0  0
  -20.5140  -27.9880   22.8140 C   0  0  0  0  0  3  0  0  0  0  0  0
  -20.6080  -26.6260   22.0910 C   0  0  0  0  0  2  0  0  0  0  0  0
  -19.5360  -26.4440   21.0120 C   0  0  0  0  0  2  0  0  0  0  0  0
  -18.1340  -26.5530   21.6170 C   0  0  0  0  0  2  0  0  0  0  0  0
  -19.0810  -28.5070   22.9760 C   0  0  0  0  0  0  0  0  0  0  0  0
  -18.8730  -29.7040   23.6920 C   0  0  0  0  0  3  0  0  0  0  0  0
  -17.5770  -30.2230   23.8650 C   0  0  0  0  0  3  0  0  0  0  0  0
  -16.4700  -29.5360   23.3380 C   0  0  0  0  0  3  0  0  0  0  0  0
  -16.6630  -28.3420   22.6230 C   0  0  0  0  0  3  0  0  0  0  0  0
  -26.0620  -31.7270   23.9970 C   0  0  0  0  0  3  0  0  0  0  0  0
  -25.8890  -33.1170   24.4370 N   0  0  0  0  0  0  0  0  0  0  0  0
  -26.3500  -34.1880   23.7760 C   0  0  0  0  0  0  0  0  0  0  0  0
  -27.0380  -34.0990   22.7550 O   0  0  0  0  0  0  0  0  0  0  0  0
  -25.2840  -33.2600   25.2300 H   0  0  0  0  0  0  0  0  0  0  0  0
  -24.8190  -36.1670   23.5330 C   0  0  0  0  0  1  0  0  0  0  0  0
  -25.9900  -35.5780   24.3350 C   0  0  0  0  0  3  0  0  0  0  0  0
  -28.1670  -36.1910   25.2890 C   0  0  0  0  0  1  0  0  0  0  0  0
  -27.1250  -36.5270   24.3240 N   0  0  0  0  0  0  0  0  0  0  0  0
  -26.8080  -37.4750   24.5080 H   0  0  0  0  0  0  0  0  0  0  0  0
  -26.4850  -30.8070   25.2090 C   0  0  1  0  0  0  0  0  0  0  0  0
  -25.3780  -30.6220   26.2740 C   0  0  0  0  0  1  0  0  0  0  0  0
  -26.8980  -29.4040   24.7070 C   0  0  0  0  0  1  0  0  0  0  0  0
  -27.7210  -31.4100   25.9140 C   0  0  0  0  0  1  0  0  0  0  0  0
  1  2  1  0
  1  4  1  0
  3  1  1  0
  5  7  1  0
  6  8  2  0
  6  9  1  0
  8 10  1  0
  9  5  2  0
 10  4  1  0
 10  7  2  0
 11 20  1  0
 11  9  1  0
 12 20  1  0
 13 18  1  0
 14 15  1  0
 14 13  1  0
 16 15  1  0
 16 25  1  0
 16 17  1  0
 18 12  1  0
 18 17  1  0
 19 12  2  0
 20 21  1  0
 22 23  2  0
 23 42  1  0
 24 23  1  0
 24 27  1  0
 25 26  1  0
 25 22  1  0
 26 24  2  0
 27 28  1  0
 28 29  2  0
 30 33  1  0
 30 29  1  0
 31 30  2  0
 32 31  1  0
 32 27  2  0
 33 34  1  0
 34 39  2  0
 34 35  1  0
 35 36  2  0
 36 37  1  0
 37 41  1  0
 38 37  2  0
 39 38  1  0
 40 39  1  0
 42 43  1  0
 43 46  1  0
 43 45  1  0
 44 42  2  0
 47 48  1  0
 47 22  1  0
 49 47  1  0
 50  1  1  0
 51 50  1  0
 52 51  1  0
 53 55  1  0
 53 52  1  0
 54 65  2  0
 55 60  1  0
 56 64  1  0
 56 66  1  0
 57 63  1  0
 57 59  1  0
 58 64  1  0
 59 58  1  0
 60 59  2  0
 61 62  1  0
 61 55  2  0
 62 57  2  0
 63 56  1  0
 64 54  1  0
 66 68  2  0
 67 66  1  0
 69 67  1  0
 70 79  2  0
 70 75  1  0
 71 67  1  0
 71 75  1  0
 72 71  1  0
 73 74  1  0
 73 72  1  0
 74 70  1  0
 75 76  2  0
 76 77  1  0
 78 77  2  0
 79 78  1  0
 80 54  1  0
 80 81  1  0
 80 90  1  0
 81 84  1  0
 82 86  1  0
 82 81  1  0
 83 82  2  0
 86 85  1  0
 88 86  1  0
 88 89  1  0
 88 87  1  0
 90 93  1  1
 90 91  1  0
 92 90  1  0
M  ISO  4  12 100  20 100  52 101  53 101
M  END
>  <TORSDO>  (57) 
F 22

>  <SCORE>  (57) 
-10.198

>  <name>  (57) 
58

>  <ligand_id>  (57) 
58

>  <original_smiles>  (57) 
[H]c1c([H])c([H])c2c(c1[H])C([H])([H])C([H])([H])C([H])([H])C2([H])N([H])C(=O)C1([H])N(C(=O)C([H])(N([H])C(=O)C([H])(N([H])C([H])([H])[H])C([H])([H])[H])C(C([H])([H])[H])(C([H])([H])[H])C([H])([H])[H])C([H])([H])c2c([H])c(OC([H])([H])C([H])([H])C([H])([H])[N+]([H])([H])C([H])([H])c3c([H])c([H])c(C([H])([H])N([H])C(=O)N4C([H])([H])C([H])([H])C([H])([H])C([H])(n5nc(-c6c([H])c([H])c(Oc7c([H])c([H])c(F)c([H])c7F)c([H])c6[H])c(C(=O)N([H])[H])c5N([H])[H])C4([H])[H])c([H])c3[H])c([H])c([H])c2C1([H])[H]

>  <smiles>  (57) 
[H]c1c([H])c([H])c2c(c1[H])C([H])([H])C([H])([H])C([H])([H])C2([H])N([H])C(=O)C1([H])N(C(=O)C([H])(N([H])C(=O)C([H])(N([H])C([H])([H])[H])C([H])([H])[H])C(C([H])([H])[H])(C([H])([H])[H])C([H])([H])[H])C([H])([H])c2c([H])c(OC([H])([H])C([H])([H])C([H])([H])[N+]([H])([H])C([H])([H])c3c([H])c([H])c(C([H])([H])N([H])C(=O)N4C([H])([H])C([H])([H])C([H])([H])C([H])(n5nc(-c6c([H])c([H])c(Oc7c([H])c([H])c(F)c([H])c7F)c([H])c6[H])c(C(=O)N([H])[H])c5N([H])[H])C4([H])[H])c([H])c3[H])c([H])c([H])c2C1([H])[H]

$$$$
59:0:0
     RDKit          3D

 94102  0  0  1  0  0  0  0  0999 V2000
  -27.6350  -25.4880   21.8850 C   0  0  0  0  0  2  0  0  0  0  0  0
  -28.7940  -24.7080   19.7750 C   0  0  0  0  0  2  0  0  0  0  0  0
  -27.7810  -24.0590   22.4420 C   0  0  0  0  0  2  0  0  0  0  0  0
  -28.9750  -23.3330   20.4350 C   0  0  0  0  0  2  0  0  0  0  0  0
  -28.7320  -25.8100   20.8390 C   0  0  0  0  0  3  0  0  0  0  0  0
  -27.8440  -23.0380   21.3570 N   0  0  1  0  0  4  0  0  0  0  0  0
  -27.0060  -23.1540   20.8050 H   0  0  0  0  0  0  0  0  0  0  0  0
  -28.6850  -27.1130   20.2410 O   0  0  0  0  0  0  0  0  0  0  0  0
  -24.7010  -32.0310   23.4090 C   0  0  0  0  0  0  0  0  0  0  0  0
  -27.4830  -27.7770   20.2270 C   0  0  0  0  0  0  0  0  0  0  0  0
  -23.5430  -30.6490   21.7130 C   0  0  0  0  0  3  0  0  0  0  0  0
  -25.0450  -29.1890   20.2600 C   0  0  0  0  0  0  0  0  0  0  0  0
  -26.0540  -31.0840   21.5440 C   0  0  0  0  0  2  0  0  0  0  0  0
  -26.1800  -29.7370   20.8690 C   0  0  0  0  0  0  0  0  0  0  0  0
  -27.4020  -29.0370   20.8490 C   0  0  0  0  0  3  0  0  0  0  0  0
  -26.3400  -27.2370   19.5970 C   0  0  0  0  0  3  0  0  0  0  0  0
  -25.1190  -27.9370   19.6200 C   0  0  0  0  0  3  0  0  0  0  0  0
  -23.7780  -30.0100   20.3180 C   0  0  0  0  0  2  0  0  0  0  0  0
  -24.7840  -31.2680   22.2820 N   0  0  0  0  0  0  0  0  0  0  0  0
  -23.6110  -32.2590   23.9500 O   0  0  0  0  0  0  0  0  0  0  0  0
  -22.9120  -29.5860   22.6380 C   0  0  0  0  0  0  0  0  0  0  0  0
  -21.5960  -29.3670   22.4870 N   0  0  0  0  0  0  0  0  0  0  0  0
  -23.6030  -28.9620   23.4470 O   0  0  0  0  0  0  0  0  0  0  0  0
  -21.0980  -29.9260   21.8090 H   0  0  0  0  0  0  0  0  0  0  0  0
  -18.2650  -28.0270   22.8630 C   0  0  0  0  0  0  0  0  0  0  0  0
  -20.7980  -28.3860   23.2200 C   0  0  0  0  0  3  0  0  0  0  0  0
  -20.9790  -26.9680   22.6280 C   0  0  0  0  0  2  0  0  0  0  0  0
  -19.9230  -26.6130   21.5760 C   0  0  0  0  0  2  0  0  0  0  0  0
  -18.5170  -26.6950   22.1780 C   0  0  0  0  0  2  0  0  0  0  0  0
  -19.3360  -28.8290   23.3380 C   0  0  0  0  0  0  0  0  0  0  0  0
  -19.0470  -30.0760   23.9350 C   0  0  0  0  0  3  0  0  0  0  0  0
  -17.7190  -30.5220   24.0610 C   0  0  0  0  0  3  0  0  0  0  0  0
  -16.6610  -29.7180   23.6020 C   0  0  0  0  0  3  0  0  0  0  0  0
  -16.9340  -28.4720   23.0100 C   0  0  0  0  0  3  0  0  0  0  0  0
  -25.9690  -32.6720   24.0570 C   0  0  0  0  0  3  0  0  0  0  0  0
  -25.6420  -34.0670   24.3810 N   0  0  0  0  0  0  0  0  0  0  0  0
  -25.9910  -35.1230   23.6320 C   0  0  0  0  0  0  0  0  0  0  0  0
  -26.6940  -35.0260   22.6220 O   0  0  0  0  0  0  0  0  0  0  0  0
  -25.0190  -34.2180   25.1610 H   0  0  0  0  0  0  0  0  0  0  0  0
  -24.2570  -36.9000   23.2250 C   0  0  0  0  0  1  0  0  0  0  0  0
  -25.4770  -36.5070   24.0730 C   0  0  0  0  0  3  0  0  0  0  0  0
  -27.5830  -37.4050   24.9590 C   0  0  0  0  0  1  0  0  0  0  0  0
  -26.5030  -37.5680   23.9900 N   0  0  0  0  0  0  0  0  0  0  0  0
  -26.0860  -38.4850   24.1280 H   0  0  0  0  0  0  0  0  0  0  0  0
  -26.4690  -31.9030   25.3410 C   0  0  1  0  0  0  0  0  0  0  0  0
  -25.3570  -31.6480   26.3830 C   0  0  0  0  0  1  0  0  0  0  0  0
  -27.0770  -30.5340   24.9530 C   0  0  0  0  0  1  0  0  0  0  0  0
  -27.5950  -32.7090   26.0300 C   0  0  0  0  0  1  0  0  0  0  0  0
  -27.7610  -21.6450   21.8990 C   0  0  0  0  0  2  0  0  0  0  0  0
  -28.5550  -20.5470   21.1480 C   0  0  0  0  0  2  0  0  0  0  0  0
  -28.0340  -20.1470   19.7450 C   0  0  0  0  0  2  0  0  0  0  0  0
  -29.1330  -19.4810   18.8910 C   0  0  0  0  0  2  0  0  0  0  0  0
  -29.4820  -18.0600   19.3690 C   0  0  0  0  0  2  0  0  0  0  0  0
  -31.4240  -17.1130   18.1440 C   0  0  0  0  0  1  0  0  0  0  0  0
  -30.9450  -17.8110   19.3630 N   0  0  2  0  0  4  0  0  0  0  0  0
  -31.3590  -18.7290   19.2970 H   0  0  0  0  0  0  0  0  0  0  0  0
  -31.4680  -17.2830   20.6570 C   0  0  0  0  0  2  0  0  0  0  0  0
  -30.8500  -15.9410   21.1450 C   0  0  0  0  0  2  0  0  0  0  0  0
  -31.3980  -14.7030   20.4170 C   0  0  0  0  0  0  0  0  0  0  0  0
  -30.9800  -12.5380   19.3120 C   0  0  0  0  0  2  0  0  0  0  0  0
  -30.1020  -12.7500   18.0640 C   0  0  0  0  0  2  0  0  0  0  0  0
  -28.6070  -12.7110   18.4400 C   0  0  0  0  0  2  0  0  0  0  0  0
  -28.2730  -13.6260   19.6480 C   0  0  0  0  0  3  0  0  0  0  0  0
  -29.2750  -13.3960   20.8050 C   0  0  0  0  0  2  0  0  0  0  0  0
  -30.6380  -13.5860   20.2820 N   0  0  0  0  0  0  0  0  0  0  0  0
  -32.5090  -14.8090   19.8890 O   0  0  0  0  0  0  0  0  0  0  0  0
  -25.8910  -14.3840   20.2700 C   0  0  0  0  0  0  0  0  0  0  0  0
  -24.7710  -13.6820   20.6250 C   0  0  0  0  0  0  0  0  0  0  0  0
  -25.1540  -12.3070   20.6370 C   0  0  0  0  0  0  0  0  0  0  0  0
  -26.8910  -13.4420   20.0880 N   0  0  0  0  0  0  0  0  0  0  0  0
  -26.4480  -12.1880   20.3650 N   0  0  0  0  0  0  0  0  0  0  0  0
  -24.3510  -11.0930   20.8330 C   0  0  0  0  0  0  0  0  0  0  0  0
  -24.7220  -10.1110   21.7790 C   0  0  0  0  0  3  0  0  0  0  0  0
  -23.9280   -8.9580   21.9620 C   0  0  0  0  0  3  0  0  0  0  0  0
  -22.7500   -8.7770   21.1980 C   0  0  0  0  0  0  0  0  0  0  0  0
  -22.3980   -9.7470   20.2430 C   0  0  0  0  0  3  0  0  0  0  0  0
  -23.1900  -10.8930   20.0600 C   0  0  0  0  0  3  0  0  0  0  0  0
  -21.9310   -7.6790   21.2880 O   0  0  0  0  0  0  0  0  0  0  0  0
  -21.8320   -6.9480   22.4420 C   0  0  0  0  0  0  0  0  0  0  0  0
  -21.4660   -7.5400   23.6720 C   0  0  0  0  0  3  0  0  0  0  0  0
  -21.3140   -6.7380   24.8200 C   0  0  0  0  0  3  0  0  0  0  0  0
  -21.5140   -5.3470   24.7400 C   0  0  0  0  0  0  0  0  0  0  0  0
  -21.8720   -4.7540   23.5140 C   0  0  0  0  0  3  0  0  0  0  0  0
  -22.0300   -5.5540   22.3700 C   0  0  0  0  0  0  0  0  0  0  0  0
  -22.3540   -4.9770   21.1870 F   0  0  0  0  0  0  0  0  0  0  0  0
  -21.3580   -4.5760   25.8400 F   0  0  0  0  0  0  0  0  0  0  0  0
  -23.3950  -14.2420   20.8440 C   0  0  0  0  0  0  0  0  0  0  0  0
  -22.6080  -13.6220   21.7130 N   0  0  0  0  0  0  0  0  0  0  0  0
  -23.0260  -15.2690   20.2760 O   0  0  0  0  0  0  0  0  0  0  0  0
  -22.9120  -12.7860   22.1930 H   0  0  0  0  0  0  0  0  0  0  0  0
  -21.6840  -13.9870   21.9010 H   0  0  0  0  0  0  0  0  0  0  0  0
  -26.1450  -15.7380   20.0670 N   0  0  0  0  0  0  0  0  0  0  0  0
  -25.4090  -16.4330   20.1100 H   0  0  0  0  0  0  0  0  0  0  0  0
  -27.0190  -16.1060   19.7240 H   0  0  0  0  0  0  0  0  0  0  0  0
  1  3  1  0
  2  4  1  0
  2  5  1  0
  4  6  1  0
  5  8  1  0
  5  1  1  0
  6 49  1  0
  6  3  1  0
  6  7  1  6
  9 20  2  0
 10  8  1  0
 10 15  1  0
 11 19  1  0
 11 21  1  0
 12 18  1  0
 12 14  1  0
 13 19  1  0
 14 13  1  0
 15 14  2  0
 16 17  1  0
 16 10  2  0
 17 12  2  0
 18 11  1  0
 19  9  1  0
 21 23  2  0
 22 21  1  0
 24 22  1  0
 25 34  2  0
 25 30  1  0
 26 22  1  0
 26 30  1  0
 27 26  1  0
 28 29  1  0
 28 27  1  0
 29 25  1  0
 30 31  2  0
 31 32  1  0
 33 32  2  0
 34 33  1  0
 35  9  1  0
 35 36  1  0
 35 45  1  0
 36 39  1  0
 37 41  1  0
 37 36  1  0
 38 37  2  0
 41 40  1  0
 43 41  1  0
 43 44  1  0
 43 42  1  0
 45 48  1  1
 45 46  1  0
 47 45  1  0
 50 49  1  0
 51 50  1  0
 52 53  1  0
 52 51  1  0
 54 55  1  0
 55 53  1  0
 55 57  1  0
 55 56  1  6
 57 58  1  0
 59 58  1  0
 60 65  1  0
 61 62  1  0
 61 60  1  0
 63 62  1  0
 63 70  1  0
 63 64  1  0
 65 59  1  0
 65 64  1  0
 66 59  2  0
 67 68  2  0
 68 69  1  0
 68 87  1  0
 69 72  1  0
 70 67  1  0
 70 71  1  0
 71 69  2  0
 72 73  1  0
 73 74  2  0
 75 78  1  0
 75 74  1  0
 76 75  2  0
 77 76  1  0
 77 72  2  0
 78 79  1  0
 79 80  1  0
 80 81  2  0
 82 81  1  0
 82 86  1  0
 83 82  2  0
 84 79  2  0
 84 83  1  0
 85 84  1  0
 87 88  1  0
 88 91  1  0
 88 90  1  0
 89 87  2  0
 92 93  1  0
 92 67  1  0
 94 92  1  0
M  ISO  4   5 101   8 101  58 100  59 100
M  END
>  <TORSDO>  (58) 
F 24

>  <SCORE>  (58) 
-11.028

>  <name>  (58) 
59

>  <ligand_id>  (58) 
59

>  <original_smiles>  (58) 
[H]c1c([H])c([H])c2c(c1[H])C([H])([H])C([H])([H])C([H])([H])C2([H])N([H])C(=O)C1([H])N(C(=O)C([H])(N([H])C(=O)C([H])(N([H])C([H])([H])[H])C([H])([H])[H])C(C([H])([H])[H])(C([H])([H])[H])C([H])([H])[H])C([H])([H])c2c([H])c(OC3([H])C([H])([H])C([H])([H])[N+]([H])(C([H])([H])C([H])([H])C([H])([H])C([H])([H])C([H])([H])[N+]([H])(C([H])([H])[H])C([H])([H])C([H])([H])C(=O)N4C([H])([H])C([H])([H])C([H])([H])C([H])(n5nc(-c6c([H])c([H])c(Oc7c([H])c([H])c(F)c([H])c7F)c([H])c6[H])c(C(=O)N([H])[H])c5N([H])[H])C4([H])[H])C([H])([H])C3([H])[H])c([H])c([H])c2C1([H])[H]

>  <smiles>  (58) 
[H]c1c([H])c([H])c2c(c1[H])C([H])([H])C([H])([H])C([H])([H])C2([H])N([H])C(=O)C1([H])N(C(=O)C([H])(N([H])C(=O)C([H])(N([H])C([H])([H])[H])C([H])([H])[H])C(C([H])([H])[H])(C([H])([H])[H])C([H])([H])[H])C([H])([H])c2c([H])c(OC3([H])C([H])([H])C([H])([H])[N+]([H])(C([H])([H])C([H])([H])C([H])([H])C([H])([H])C([H])([H])[N+]([H])(C([H])([H])[H])C([H])([H])C([H])([H])C(=O)N4C([H])([H])C([H])([H])C([H])([H])C([H])(n5nc(-c6c([H])c([H])c(Oc7c([H])c([H])c(F)c([H])c7F)c([H])c6[H])c(C(=O)N([H])[H])c5N([H])[H])C4([H])[H])C([H])([H])C3([H])[H])c([H])c([H])c2C1([H])[H]

$$$$
60:0:0
     RDKit          3D

 96103  0  0  1  0  0  0  0  0999 V2000
  -26.0200  -22.8830   20.8510 C   0  0  0  0  0  2  0  0  0  0  0  0
  -26.2820  -23.5840   22.1330 N   0  0  0  0  0  4  0  0  0  0  0  0
  -26.8750  -23.0110   22.7150 H   0  0  0  0  0  0  0  0  0  0  0  0
  -25.3910  -23.6490   22.6010 H   0  0  0  0  0  0  0  0  0  0  0  0
  -26.7280  -25.6700   23.3980 C   0  0  0  0  0  1  0  0  0  0  0  0
  -26.8150  -24.9680   22.0290 C   0  0  0  0  0  3  0  0  0  0  0  0
  -28.2570  -24.9950   21.4510 C   0  0  0  0  0  2  0  0  0  0  0  0
  -28.8560  -26.3930   21.1670 C   0  0  0  0  0  2  0  0  0  0  0  0
  -28.3630  -26.9440   19.9460 O   0  0  0  0  0  0  0  0  0  0  0  0
  -24.5320  -31.9840   23.2420 C   0  0  0  0  0  0  0  0  0  0  0  0
  -27.2010  -27.6630   20.0370 C   0  0  0  0  0  0  0  0  0  0  0  0
  -23.3220  -30.5920   21.5920 C   0  0  0  0  0  3  0  0  0  0  0  0
  -24.7780  -29.1000   20.1260 C   0  0  0  0  0  0  0  0  0  0  0  0
  -25.8360  -30.9950   21.3670 C   0  0  0  0  0  2  0  0  0  0  0  0
  -25.9330  -29.6370   20.7110 C   0  0  0  0  0  0  0  0  0  0  0  0
  -27.1460  -28.9200   20.6810 C   0  0  0  0  0  3  0  0  0  0  0  0
  -26.0410  -27.1440   19.4320 C   0  0  0  0  0  3  0  0  0  0  0  0
  -24.8230  -27.8450   19.4910 C   0  0  0  0  0  3  0  0  0  0  0  0
  -23.5230  -29.9380   20.2000 C   0  0  0  0  0  2  0  0  0  0  0  0
  -24.5810  -31.2040   22.1250 N   0  0  0  0  0  0  0  0  0  0  0  0
  -23.4560  -32.2310   23.8030 O   0  0  0  0  0  0  0  0  0  0  0  0
  -22.7030  -29.5450   22.5400 C   0  0  0  0  0  0  0  0  0  0  0  0
  -21.3790  -29.3480   22.4220 N   0  0  0  0  0  0  0  0  0  0  0  0
  -23.4030  -28.9130   23.3360 O   0  0  0  0  0  0  0  0  0  0  0  0
  -20.8770  -29.9200   21.7550 H   0  0  0  0  0  0  0  0  0  0  0  0
  -18.0350  -28.0710   22.9330 C   0  0  0  0  0  0  0  0  0  0  0  0
  -20.5880  -28.3790   23.1810 C   0  0  0  0  0  3  0  0  0  0  0  0
  -20.7250  -26.9590   22.5860 C   0  0  0  0  0  2  0  0  0  0  0  0
  -19.6120  -26.6090   21.5930 C   0  0  0  0  0  2  0  0  0  0  0  0
  -18.2330  -26.7280   22.2500 C   0  0  0  0  0  2  0  0  0  0  0  0
  -19.1410  -28.8520   23.3590 C   0  0  0  0  0  0  0  0  0  0  0  0
  -18.9040  -30.1020   23.9670 C   0  0  0  0  0  3  0  0  0  0  0  0
  -17.5920  -30.5780   24.1490 C   0  0  0  0  0  3  0  0  0  0  0  0
  -16.4980  -29.7980   23.7330 C   0  0  0  0  0  3  0  0  0  0  0  0
  -16.7200  -28.5460   23.1300 C   0  0  0  0  0  3  0  0  0  0  0  0
  -25.8200  -32.6220   23.8510 C   0  0  0  0  0  3  0  0  0  0  0  0
  -25.5090  -34.0180   24.1800 N   0  0  0  0  0  0  0  0  0  0  0  0
  -25.8390  -35.0700   23.4200 C   0  0  0  0  0  0  0  0  0  0  0  0
  -26.5110  -34.9680   22.3900 O   0  0  0  0  0  0  0  0  0  0  0  0
  -24.9170  -34.1740   24.9830 H   0  0  0  0  0  0  0  0  0  0  0  0
  -24.1040  -36.8530   23.0570 C   0  0  0  0  0  1  0  0  0  0  0  0
  -25.3470  -36.4580   23.8730 C   0  0  0  0  0  3  0  0  0  0  0  0
  -27.4790  -37.3490   24.7030 C   0  0  0  0  0  1  0  0  0  0  0  0
  -26.3760  -37.5160   23.7600 N   0  0  0  0  0  0  0  0  0  0  0  0
  -25.9670  -38.4340   23.9130 H   0  0  0  0  0  0  0  0  0  0  0  0
  -26.3530  -31.8540   25.1210 C   0  0  1  0  0  0  0  0  0  0  0  0
  -25.2700  -31.6090   26.1960 C   0  0  0  0  0  1  0  0  0  0  0  0
  -26.9390  -30.4790   24.7230 C   0  0  0  0  0  1  0  0  0  0  0  0
  -27.5050  -32.6540   25.7750 C   0  0  0  0  0  1  0  0  0  0  0  0
  -27.1860  -21.9630   20.4350 C   0  0  0  0  0  2  0  0  0  0  0  0
  -26.7940  -20.4810   20.2260 C   0  0  0  0  0  2  0  0  0  0  0  0
  -28.0050  -19.5260   20.1050 C   0  0  0  0  0  2  0  0  0  0  0  0
  -28.7140  -20.5260   17.8050 C   0  0  0  0  0  1  0  0  0  0  0  0
  -28.5880  -19.2720   18.6850 C   0  0  0  0  0  3  0  0  0  0  0  0
  -29.9140  -18.6110   18.7520 N   0  0  0  0  0  4  0  0  0  0  0  0
  -30.2280  -18.4980   17.8000 H   0  0  0  0  0  0  0  0  0  0  0  0
  -30.5850  -19.2100   19.2060 H   0  0  0  0  0  0  0  0  0  0  0  0
  -29.9540  -17.2680   19.3670 C   0  0  0  0  0  2  0  0  0  0  0  0
  -30.6420  -17.2750   20.7520 C   0  0  0  0  0  2  0  0  0  0  0  0
  -30.5300  -15.9310   21.5000 C   0  0  0  0  0  2  0  0  0  0  0  0
  -31.1720  -14.7560   20.7380 C   0  0  0  0  0  0  0  0  0  0  0  0
  -30.9200  -12.5990   19.5710 C   0  0  0  0  0  2  0  0  0  0  0  0
  -30.0540  -12.8020   18.3110 C   0  0  0  0  0  2  0  0  0  0  0  0
  -28.5520  -12.7010   18.6520 C   0  0  0  0  0  2  0  0  0  0  0  0
  -28.1550  -13.5560   19.8870 C   0  0  0  0  0  3  0  0  0  0  0  0
  -29.1360  -13.2960   21.0520 C   0  0  0  0  0  2  0  0  0  0  0  0
  -30.4950  -13.5900   20.5680 N   0  0  0  0  0  0  0  0  0  0  0  0
  -32.2790  -14.9540   20.2270 O   0  0  0  0  0  0  0  0  0  0  0  0
  -25.7200  -14.2160   20.4100 C   0  0  0  0  0  0  0  0  0  0  0  0
  -24.6190  -13.4700   20.7360 C   0  0  0  0  0  0  0  0  0  0  0  0
  -25.0610  -12.1110   20.7720 C   0  0  0  0  0  0  0  0  0  0  0  0
  -26.7670  -13.3160   20.2790 N   0  0  0  0  0  0  0  0  0  0  0  0
  -26.3670  -12.0480   20.5470 N   0  0  0  0  0  0  0  0  0  0  0  0
  -24.3070  -10.8650   20.9500 C   0  0  0  0  0  0  0  0  0  0  0  0
  -24.6560   -9.9260   21.9460 C   0  0  0  0  0  3  0  0  0  0  0  0
  -23.9040   -8.7440   22.1090 C   0  0  0  0  0  3  0  0  0  0  0  0
  -22.7890   -8.4910   21.2750 C   0  0  0  0  0  0  0  0  0  0  0  0
  -22.4590   -9.4180   20.2690 C   0  0  0  0  0  3  0  0  0  0  0  0
  -23.2140  -10.5910   20.1050 C   0  0  0  0  0  3  0  0  0  0  0  0
  -22.0150   -7.3580   21.3460 O   0  0  0  0  0  0  0  0  0  0  0  0
  -21.8440   -6.6760   22.5240 C   0  0  0  0  0  0  0  0  0  0  0  0
  -21.3220   -7.3000   23.6770 C   0  0  0  0  0  3  0  0  0  0  0  0
  -21.1000   -6.5460   24.8470 C   0  0  0  0  0  3  0  0  0  0  0  0
  -21.3870   -5.1680   24.8620 C   0  0  0  0  0  0  0  0  0  0  0  0
  -21.9010   -4.5430   23.7130 C   0  0  0  0  0  3  0  0  0  0  0  0
  -22.1270   -5.2950   22.5460 C   0  0  0  0  0  0  0  0  0  0  0  0
  -22.6030   -4.6830   21.4350 F   0  0  0  0  0  0  0  0  0  0  0  0
  -21.1660   -4.4410   25.9830 F   0  0  0  0  0  0  0  0  0  0  0  0
  -23.2160  -13.9740   20.9090 C   0  0  0  0  0  0  0  0  0  0  0  0
  -22.4260  -13.3180   21.7510 N   0  0  0  0  0  0  0  0  0  0  0  0
  -22.8240  -14.9870   20.3290 O   0  0  0  0  0  0  0  0  0  0  0  0
  -22.7490  -12.5000   22.2460 H   0  0  0  0  0  0  0  0  0  0  0  0
  -21.4820  -13.6430   21.9080 H   0  0  0  0  0  0  0  0  0  0  0  0
  -25.9120  -15.5790   20.2010 N   0  0  0  0  0  0  0  0  0  0  0  0
  -25.1420  -16.2400   20.2330 H   0  0  0  0  0  0  0  0  0  0  0  0
  -26.7840  -15.9940   19.9020 H   0  0  0  0  0  0  0  0  0  0  0  0
  1  2  1  0
  2  4  1  0
  2  3  1  0
  6  2  1  0
  6  5  1  0
  7  6  1  0
  8  7  1  0
  9 11  1  0
  9  8  1  0
 10 21  2  0
 11 16  1  0
 12 20  1  0
 12 22  1  0
 13 19  1  0
 13 15  1  0
 14 20  1  0
 15 14  1  0
 16 15  2  0
 17 18  1  0
 17 11  2  0
 18 13  2  0
 19 12  1  0
 20 10  1  0
 22 24  2  0
 23 22  1  0
 25 23  1  0
 26 35  2  0
 26 31  1  0
 27 23  1  0
 27 31  1  0
 28 27  1  0
 29 30  1  0
 29 28  1  0
 30 26  1  0
 31 32  2  0
 32 33  1  0
 34 33  2  0
 35 34  1  0
 36 10  1  0
 36 37  1  0
 36 46  1  0
 37 40  1  0
 38 42  1  0
 38 37  1  0
 39 38  2  0
 42 41  1  0
 44 42  1  0
 44 45  1  0
 44 43  1  0
 46 49  1  1
 46 47  1  0
 48 46  1  0
 50  1  1  0
 51 50  1  0
 52 51  1  0
 54 53  1  0
 54 55  1  0
 54 52  1  0
 55 57  1  0
 55 58  1  0
 56 55  1  0
 58 59  1  0
 59 60  1  0
 61 60  1  0
 62 67  1  0
 63 64  1  0
 63 62  1  0
 65 64  1  0
 65 72  1  0
 65 66  1  0
 67 61  1  0
 67 66  1  0
 68 61  2  0
 69 70  2  0
 70 71  1  0
 70 89  1  0
 71 74  1  0
 72 69  1  0
 72 73  1  0
 73 71  2  0
 74 75  1  0
 75 76  2  0
 77 80  1  0
 77 76  1  0
 78 77  2  0
 79 78  1  0
 79 74  2  0
 80 81  1  0
 81 86  2  0
 81 82  1  0
 82 83  2  0
 83 84  1  0
 84 88  1  0
 85 84  2  0
 86 85  1  0
 87 86  1  0
 89 90  1  0
 90 93  1  0
 90 92  1  0
 91 89  2  0
 94 95  1  0
 94 69  1  0
 96 94  1  0
M  ISO  4   8 101   9 101  60 100  61 100
M  END
>  <TORSDO>  (59) 
F 28

>  <SCORE>  (59) 
-10.032

>  <name>  (59) 
60

>  <ligand_id>  (59) 
60

>  <original_smiles>  (59) 
[H]c1c([H])c([H])c2c(c1[H])C([H])([H])C([H])([H])C([H])([H])C2([H])N([H])C(=O)C1([H])N(C(=O)C([H])(N([H])C(=O)C([H])(N([H])C([H])([H])[H])C([H])([H])[H])C(C([H])([H])[H])(C([H])([H])[H])C([H])([H])[H])C([H])([H])c2c([H])c(OC([H])([H])C([H])([H])C([H])(C([H])([H])[H])[N+]([H])([H])C([H])([H])C([H])([H])C([H])([H])C([H])([H])C([H])(C([H])([H])[H])[N+]([H])([H])C([H])([H])C([H])([H])C([H])([H])C(=O)N3C([H])([H])C([H])([H])C([H])([H])C([H])(n4nc(-c5c([H])c([H])c(Oc6c([H])c([H])c(F)c([H])c6F)c([H])c5[H])c(C(=O)N([H])[H])c4N([H])[H])C3([H])[H])c([H])c([H])c2C1([H])[H]

>  <smiles>  (59) 
[H]c1c([H])c([H])c2c(c1[H])C([H])([H])C([H])([H])C([H])([H])C2([H])N([H])C(=O)C1([H])N(C(=O)C([H])(N([H])C(=O)C([H])(N([H])C([H])([H])[H])C([H])([H])[H])C(C([H])([H])[H])(C([H])([H])[H])C([H])([H])[H])C([H])([H])c2c([H])c(OC([H])([H])C([H])([H])C([H])(C([H])([H])[H])[N+]([H])([H])C([H])([H])C([H])([H])C([H])([H])C([H])([H])C([H])(C([H])([H])[H])[N+]([H])([H])C([H])([H])C([H])([H])C([H])([H])C(=O)N3C([H])([H])C([H])([H])C([H])([H])C([H])(n4nc(-c5c([H])c([H])c(Oc6c([H])c([H])c(F)c([H])c6F)c([H])c5[H])c(C(=O)N([H])[H])c4N([H])[H])C3([H])[H])c([H])c([H])c2C1([H])[H]

$$$$
61:0:0
     RDKit          3D

 93 97  0  0  1  0  0  0  0  0999 V2000
  -28.4760  -18.0010   19.2080 C   0  0  0  0  0  3  0  0  0  0  0  0
  -28.9070  -19.6500   19.8290 C   0  0  0  0  0  3  0  0  0  0  0  0
  -28.4040  -21.3460   19.5760 C   0  0  0  0  0  3  0  0  0  0  0  0
  -28.5710  -22.8410   20.5040 C   0  0  0  0  0  3  0  0  0  0  0  0
  -28.5160  -24.5570   20.0220 C   0  0  0  0  0  3  0  0  0  0  0  0
  -28.4660  -26.0390   20.7380 O   0  0  0  0  0  0  0  0  0  0  0  0
  -24.7260  -32.0100   23.4300 C   0  0  0  0  0  0  0  0  0  0  0  0
  -27.4670  -27.1220   20.5930 C   0  0  0  0  0  0  0  0  0  0  0  0
  -23.6300  -30.5520   21.7850 C   0  0  0  0  0  3  0  0  0  0  0  0
  -25.1490  -28.9450   20.4620 C   0  0  0  0  0  0  0  0  0  0  0  0
  -26.1980  -30.8010   21.7410 C   0  0  0  0  0  2  0  0  0  0  0  0
  -26.3100  -29.3870   21.1080 C   0  0  0  0  0  0  0  0  0  0  0  0
  -27.4730  -28.4950   21.1460 C   0  0  0  0  0  3  0  0  0  0  0  0
  -26.2790  -26.8300   19.8950 C   0  0  0  0  0  3  0  0  0  0  0  0
  -25.1580  -27.6840   19.8430 C   0  0  0  0  0  3  0  0  0  0  0  0
  -23.9240  -29.8530   20.4370 C   0  0  0  0  0  2  0  0  0  0  0  0
  -24.8710  -31.1500   22.3690 N   0  0  0  0  0  0  0  0  0  0  0  0
  -23.6070  -32.2870   23.8930 O   0  0  0  0  0  0  0  0  0  0  0  0
  -22.9180  -29.5570   22.7400 C   0  0  0  0  0  0  0  0  0  0  0  0
  -21.6030  -29.3530   22.5500 N   0  0  0  0  0  0  0  0  0  0  0  0
  -23.5570  -28.9750   23.6190 O   0  0  0  0  0  0  0  0  0  0  0  0
  -21.1450  -29.8720   21.8120 H   0  0  0  0  0  0  0  0  0  0  0  0
  -18.2150  -28.1180   22.9600 C   0  0  0  0  0  0  0  0  0  0  0  0
  -20.7590  -28.4240   23.3080 C   0  0  0  0  0  3  0  0  0  0  0  0
  -20.8980  -26.9810   22.7670 C   0  0  0  0  0  2  0  0  0  0  0  0
  -19.8370  -26.6230   21.7220 C   0  0  0  0  0  2  0  0  0  0  0  0
  -18.4320  -26.7610   22.3130 C   0  0  0  0  0  2  0  0  0  0  0  0
  -19.3070  -28.9070   23.4100 C   0  0  0  0  0  0  0  0  0  0  0  0
  -19.0470  -30.1750   23.9730 C   0  0  0  0  0  3  0  0  0  0  0  0
  -17.7280  -30.6530   24.0900 C   0  0  0  0  0  3  0  0  0  0  0  0
  -16.6490  -29.8650   23.6510 C   0  0  0  0  0  3  0  0  0  0  0  0
  -16.8950  -28.6000   23.0890 C   0  0  0  0  0  3  0  0  0  0  0  0
  -25.9510  -32.6960   24.0980 C   0  0  0  0  0  3  0  0  0  0  0  0
  -26.3910  -32.0010   25.4470 C   0  0  1  0  0  0  0  0  0  0  0  0
  -25.2260  -31.7580   26.4380 C   0  0  0  0  0  1  0  0  0  0  0  0
  -27.0650  -30.6390   25.1660 C   0  0  0  0  0  1  0  0  0  0  0  0
  -27.4440  -32.8770   26.1680 C   0  0  0  0  0  1  0  0  0  0  0  0
  -25.5910  -34.1010   24.3570 N   0  0  0  0  0  0  0  0  0  0  0  0
  -25.9180  -35.1380   23.5750 C   0  0  0  0  0  0  0  0  0  0  0  0
  -26.6230  -35.0150   22.5700 O   0  0  0  0  0  0  0  0  0  0  0  0
  -24.9750  -34.2670   25.1380 H   0  0  0  0  0  0  0  0  0  0  0  0
  -24.1470  -36.8740   23.1240 C   0  0  0  0  0  1  0  0  0  0  0  0
  -25.3830  -36.5300   23.9700 C   0  0  0  0  0  3  0  0  0  0  0  0
  -27.4740  -37.5080   24.8070 C   0  0  0  0  0  1  0  0  0  0  0  0
  -26.3860  -37.6090   23.8400 N   0  0  0  0  0  0  0  0  0  0  0  0
  -25.9500  -38.5200   23.9460 H   0  0  0  0  0  0  0  0  0  0  0  0
  -27.3690  -18.1820   18.1550 C   0  0  0  0  0  2  0  0  0  0  0  0
  -27.6210  -18.9380   15.7050 C   0  0  0  0  0  1  0  0  0  0  0  0
  -27.5730  -19.3660   17.1810 C   0  0  0  0  0  3  0  0  0  0  0  0
  -26.4780  -20.2490   17.3290 O   0  0  0  0  0  0  0  0  0  0  0  0
  -26.6470  -21.0470   16.8380 H   0  0  0  0  0  0  0  0  0  0  0  0
  -29.4150  -16.4940   18.7040 C   0  0  0  0  0  2  0  0  0  0  0  0
  -29.5160  -12.5230   19.0980 C   0  0  0  0  0  2  0  0  0  0  0  0
  -29.5590  -14.9920   19.4920 N   0  0  0  0  0  0  0  0  0  0  0  0
  -28.5610  -14.8940   19.4030 H   0  0  0  0  0  0  0  0  0  0  0  0
  -29.5600  -15.7970   20.8810 C   0  0  0  0  0  2  0  0  0  0  0  0
  -30.4420  -15.4100   22.0720 C   0  0  0  0  0  2  0  0  0  0  0  0
  -31.2900  -14.3870   21.4510 C   0  0  0  0  0  0  0  0  0  0  0  0
  -31.1290  -13.1570   19.3270 C   0  0  0  0  0  2  0  0  0  0  0  0
  -29.7560  -13.2440   17.8540 C   0  0  0  0  0  1  0  0  0  0  0  0
  -27.7680  -13.2660   18.3690 C   0  0  0  0  0 15  0  0  0  0  0  0
  -27.3440  -13.3910   20.3540 C   0  0  0  0  0  1  0  0  0  0  0  0
  -28.8350  -13.2000   21.7190 C   0  0  0  0  0  1  0  0  0  0  0  0
  -30.6180  -13.2950   21.1070 N   0  0  0  0  0  0  0  0  0  0  0  0
  -32.3250  -14.7730   20.9250 O   0  0  0  0  0  0  0  0  0  0  0  0
  -25.0500  -13.7470   20.8290 C   0  0  0  0  0  0  0  0  0  0  0  0
  -24.0630  -12.9040   21.1490 C   0  0  0  0  0  0  0  0  0  0  0  0
  -24.6020  -11.5790   21.1070 C   0  0  0  0  0  0  0  0  0  0  0  0
  -26.1170  -12.9120   20.6770 N   0  0  0  0  0  0  0  0  0  0  0  0
  -25.8970  -11.5980   20.8330 N   0  0  0  0  0  0  0  0  0  0  0  0
  -23.9320  -10.3040   21.2560 C   0  0  0  0  0  0  0  0  0  0  0  0
  -24.3680   -9.3360   22.1840 C   0  0  0  0  0  3  0  0  0  0  0  0
  -23.6430   -8.1360   22.3340 C   0  0  0  0  0  3  0  0  0  0  0  0
  -22.4830   -7.9120   21.5560 C   0  0  0  0  0  0  0  0  0  0  0  0
  -22.0820   -8.8700   20.6100 C   0  0  0  0  0  3  0  0  0  0  0  0
  -22.8040  -10.0570   20.4550 C   0  0  0  0  0  3  0  0  0  0  0  0
  -21.7200   -6.7740   21.6210 O   0  0  0  0  0  0  0  0  0  0  0  0
  -21.6550   -6.0260   22.7640 C   0  0  0  0  0  0  0  0  0  0  0  0
  -21.1830   -6.5610   23.9840 C   0  0  0  0  0  3  0  0  0  0  0  0
  -21.0690   -5.7320   25.1170 C   0  0  0  0  0  3  0  0  0  0  0  0
  -21.4150   -4.3720   25.0320 C   0  0  0  0  0  0  0  0  0  0  0  0
  -21.8790   -3.8360   23.8190 C   0  0  0  0  0  3  0  0  0  0  0  0
  -21.9960   -4.6610   22.6870 C   0  0  0  0  0  0  0  0  0  0  0  0
  -22.4250   -4.1400   21.5150 F   0  0  0  0  0  0  0  0  0  0  0  0
  -21.2930   -3.5730   26.1190 F   0  0  0  0  0  0  0  0  0  0  0  0
  -22.6780  -13.3620   21.3830 C   0  0  0  0  0  0  0  0  0  0  0  0
  -21.9650  -12.6710   22.2540 N   0  0  0  0  0  0  0  0  0  0  0  0
  -22.2590  -14.3970   20.8620 O   0  0  0  0  0  0  0  0  0  0  0  0
  -22.3430  -11.8500   22.7050 H   0  0  0  0  0  0  0  0  0  0  0  0
  -21.0230  -12.9620   22.4710 H   0  0  0  0  0  0  0  0  0  0  0  0
  -25.0990  -15.1320   20.6660 N   0  0  0  0  0  0  0  0  0  0  0  0
  -24.2680  -15.6930   20.8130 H   0  0  0  0  0  0  0  0  0  0  0  0
  -25.8750  -15.6800   20.3320 H   0  0  0  0  0  0  0  0  0  0  0  0
  1 47  1  0
  1  2  1  0
  3  2  2  0
  3  4  1  0
  5  4  2  0
  5  6  1  0
  7 18  2  0
  8  6  1  0
  8 13  1  0
  9 17  1  0
  9 19  1  0
 10 12  1  0
 11 17  1  0
 12 13  2  0
 12 11  1  0
 14  8  2  0
 15 14  1  0
 15 10  2  0
 16 10  1  0
 16  9  1  0
 17  7  1  0
 19 21  2  0
 20 19  1  0
 22 20  1  0
 23 32  2  0
 23 28  1  0
 24 20  1  0
 24 28  1  0
 25 24  1  0
 26 27  1  0
 26 25  1  0
 27 23  1  0
 28 29  2  0
 29 30  1  0
 31 30  2  0
 32 31  1  0
 33  7  1  0
 33 38  1  0
 33 34  1  0
 34 37  1  1
 34 35  1  0
 36 34  1  0
 38 41  1  0
 39 43  1  0
 39 38  1  0
 40 39  2  0
 43 42  1  0
 45 46  1  0
 45 43  1  0
 45 44  1  0
 49 48  1  0
 49 50  1  0
 49 47  1  0
 51 50  1  0
 52  1  1  0
 52 54  1  0
 53 59  1  0
 54 56  1  0
 55 54  1  0
 56 57  1  0
 58 57  1  0
 59 64  1  0
 60 53  1  0
 62 69  1  0
 64 58  1  0
 64 63  1  0
 65 58  2  0
 66 67  2  0
 67 86  1  0
 68 67  1  0
 68 71  1  0
 69 66  1  0
 69 70  1  0
 70 68  2  0
 71 72  1  0
 72 73  2  0
 74 77  1  0
 74 73  1  0
 75 74  2  0
 76 75  1  0
 76 71  2  0
 77 78  1  0
 78 79  1  0
 79 80  2  0
 81 80  1  0
 81 85  1  0
 82 81  2  0
 83 78  2  0
 83 82  1  0
 84 83  1  0
 86 87  1  0
 87 90  1  0
 87 89  1  0
 88 86  2  0
 91 92  1  0
 91 66  1  0
 93 91  1  0
M  ISO  4   5 101   6 101  57 100  58 100
M  END
>  <TORSDO>  (60) 
F 27

>  <SCORE>  (60) 
-12.944

>  <name>  (60) 
61

>  <ligand_id>  (60) 
61

>  <original_smiles>  (60) 
[H]OC([H])(C([H])([H])[H])C([H])([H])C([H])(C([H])([H])C([H])([H])C([H])([H])C([H])([H])Oc1c([H])c([H])c2c(c1[H])C([H])([H])N(C(=O)C([H])(N([H])C(=O)C([H])(N([H])C([H])([H])[H])C([H])([H])[H])C(C([H])([H])[H])(C([H])([H])[H])C([H])([H])[H])C([H])(C(=O)N([H])C1([H])c3c([H])c([H])c([H])c([H])c3C([H])([H])C([H])([H])C1([H])[H])C2([H])[H])C([H])([H])[N+]([H])(C([H])([H])[H])C([H])([H])C([H])([H])C(=O)N1C([H])([H])C([H])([H])C([H])([H])C([H])(n2nc(-c3c([H])c([H])c(Oc4c([H])c([H])c(F)c([H])c4F)c([H])c3[H])c(C(=O)N([H])[H])c2N([H])[H])C1([H])[H]

>  <smiles>  (60) 
[H]OC([H])(C([H])([H])[H])C([H])([H])C([H])(C([H])([H])C([H])([H])C([H])([H])C([H])([H])Oc1c([H])c([H])c2c(c1[H])C([H])([H])N(C(=O)C([H])(N([H])C(=O)C([H])(N([H])C([H])([H])[H])C([H])([H])[H])C(C([H])([H])[H])(C([H])([H])[H])C([H])([H])[H])C([H])(C(=O)N([H])C1([H])c3c([H])c([H])c([H])c([H])c3C([H])([H])C([H])([H])C1([H])[H])C2([H])[H])C([H])([H])[N+]([H])(C([H])([H])[H])C([H])([H])C([H])([H])C(=O)N1C([H])([H])C([H])([H])C([H])([H])C([H])(n2nc(-c3c([H])c([H])c(Oc4c([H])c([H])c(F)c([H])c4F)c([H])c3[H])c(C(=O)N([H])[H])c2N([H])[H])C1([H])[H]

$$$$
62:0:0
     RDKit          3D

 96103  0  0  1  0  0  0  0  0999 V2000
  -28.0500  -23.2940   21.1190 N   0  0  0  0  0  0  0  0  0  0  0  0
  -28.0950  -23.1020   22.1150 H   0  0  0  0  0  0  0  0  0  0  0  0
  -27.4640  -24.6300   20.9330 C   0  0  0  0  0  3  0  0  0  0  0  0
  -28.6050  -25.6820   20.8230 C   0  0  0  0  0  2  0  0  0  0  0  0
  -28.3880  -26.8430   20.0090 O   0  0  0  0  0  0  0  0  0  0  0  0
  -24.5290  -31.9120   23.2630 C   0  0  0  0  0  0  0  0  0  0  0  0
  -27.2100  -27.5420   20.1190 C   0  0  0  0  0  0  0  0  0  0  0  0
  -23.3400  -30.5400   21.5840 C   0  0  0  0  0  3  0  0  0  0  0  0
  -24.8090  -29.0330   20.1460 C   0  0  0  0  0  0  0  0  0  0  0  0
  -25.8660  -30.9050   21.4180 C   0  0  0  0  0  2  0  0  0  0  0  0
  -25.9590  -29.5440   20.7630 C   0  0  0  0  0  0  0  0  0  0  0  0
  -27.1640  -28.8020   20.7540 C   0  0  0  0  0  3  0  0  0  0  0  0
  -26.0530  -27.0600   19.4720 C   0  0  0  0  0  3  0  0  0  0  0  0
  -24.8500  -27.7870   19.4990 C   0  0  0  0  0  3  0  0  0  0  0  0
  -23.5640  -29.8880   20.1940 C   0  0  0  0  0  2  0  0  0  0  0  0
  -24.5950  -31.1340   22.1470 N   0  0  0  0  0  0  0  0  0  0  0  0
  -23.4430  -32.1690   23.8020 O   0  0  0  0  0  0  0  0  0  0  0  0
  -22.6840  -29.4970   22.5180 C   0  0  0  0  0  0  0  0  0  0  0  0
  -21.3590  -29.3180   22.3810 N   0  0  0  0  0  0  0  0  0  0  0  0
  -23.3640  -28.8520   23.3200 O   0  0  0  0  0  0  0  0  0  0  0  0
  -20.8700  -29.8900   21.7070 H   0  0  0  0  0  0  0  0  0  0  0  0
  -17.9770  -28.1430   22.8650 C   0  0  0  0  0  0  0  0  0  0  0  0
  -20.5420  -28.3600   23.1240 C   0  0  0  0  0  3  0  0  0  0  0  0
  -20.6250  -26.9530   22.4900 C   0  0  0  0  0  2  0  0  0  0  0  0
  -19.5090  -26.6820   21.4760 C   0  0  0  0  0  2  0  0  0  0  0  0
  -18.1350  -26.8160   22.1400 C   0  0  0  0  0  2  0  0  0  0  0  0
  -19.1090  -28.8750   23.3120 C   0  0  0  0  0  0  0  0  0  0  0  0
  -18.9110  -30.1200   23.9480 C   0  0  0  0  0  3  0  0  0  0  0  0
  -17.6150  -30.6340   24.1370 C   0  0  0  0  0  3  0  0  0  0  0  0
  -16.4980  -29.8990   23.7040 C   0  0  0  0  0  3  0  0  0  0  0  0
  -16.6800  -28.6530   23.0760 C   0  0  0  0  0  3  0  0  0  0  0  0
  -25.8090  -32.5330   23.9030 C   0  0  0  0  0  3  0  0  0  0  0  0
  -26.2970  -31.7620   25.1910 C   0  0  1  0  0  0  0  0  0  0  0  0
  -25.1830  -31.5380   26.2390 C   0  0  0  0  0  1  0  0  0  0  0  0
  -26.8750  -30.3780   24.8120 C   0  0  0  0  0  1  0  0  0  0  0  0
  -27.4410  -32.5500   25.8710 C   0  0  0  0  0  1  0  0  0  0  0  0
  -25.5070  -33.9360   24.2190 N   0  0  0  0  0  0  0  0  0  0  0  0
  -25.8600  -34.9800   23.4580 C   0  0  0  0  0  0  0  0  0  0  0  0
  -26.5480  -34.8640   22.4400 O   0  0  0  0  0  0  0  0  0  0  0  0
  -24.9010  -34.0990   25.0100 H   0  0  0  0  0  0  0  0  0  0  0  0
  -24.1500  -36.7810   23.0640 C   0  0  0  0  0  1  0  0  0  0  0  0
  -25.3750  -36.3750   23.8960 C   0  0  0  0  0  3  0  0  0  0  0  0
  -27.5050  -37.2530   24.7480 C   0  0  0  0  0  1  0  0  0  0  0  0
  -26.4170  -37.4190   23.7880 N   0  0  0  0  0  0  0  0  0  0  0  0
  -26.0140  -38.3420   23.9220 H   0  0  0  0  0  0  0  0  0  0  0  0
  -26.5400  -24.9960   22.1210 C   0  0  0  0  0  2  0  0  0  0  0  0
  -24.3260  -24.5670   20.9070 C   0  0  0  0  0  1  0  0  0  0  0  0
  -24.3750  -24.8270   23.4020 C   0  0  0  0  0  1  0  0  0  0  0  0
  -25.1530  -24.3240   22.1790 C   0  0  0  0  0  3  0  0  0  0  0  0
  -27.3150  -22.2420   20.4000 C   0  0  0  0  0  2  0  0  0  0  0  0
  -27.5090  -20.1640   18.9560 C   0  0  0  0  0  1  0  0  0  0  0  0
  -28.2600  -21.1290   19.8940 C   0  0  0  0  0  3  0  0  0  0  0  0
  -28.8670  -20.4210   21.0420 N   0  0  0  0  0  4  0  0  0  0  0  0
  -29.3120  -21.1520   21.5750 H   0  0  0  0  0  0  0  0  0  0  0  0
  -28.1600  -20.0160   21.6330 H   0  0  0  0  0  0  0  0  0  0  0  0
  -29.9200  -19.4260   20.7330 C   0  0  0  0  0  2  0  0  0  0  0  0
  -29.4420  -17.9650   20.9000 C   0  0  0  0  0  2  0  0  0  0  0  0
  -30.5900  -16.9590   20.6840 C   0  0  0  0  0  2  0  0  0  0  0  0
  -30.8680  -14.5250   20.3610 C   0  0  0  0  0  0  0  0  0  0  0  0
  -30.5470  -12.3680   19.2440 C   0  0  0  0  0  2  0  0  0  0  0  0
  -29.6080  -12.5790   18.0390 C   0  0  0  0  0  2  0  0  0  0  0  0
  -28.1350  -12.4580   18.4710 C   0  0  0  0  0  2  0  0  0  0  0  0
  -27.8020  -13.3080   19.7270 C   0  0  0  0  0  3  0  0  0  0  0  0
  -28.8540  -13.0890   20.8380 C   0  0  0  0  0  2  0  0  0  0  0  0
  -30.1830  -13.3590   20.2640 N   0  0  0  0  0  0  0  0  0  0  0  0
  -32.0020  -14.6910   19.9040 O   0  0  0  0  0  0  0  0  0  0  0  0
  -30.1540  -15.5680   20.8110 N   0  0  0  0  0  0  0  0  0  0  0  0
  -29.2180  -15.3800   21.1340 H   0  0  0  0  0  0  0  0  0  0  0  0
  -25.4060  -13.9320   20.4320 C   0  0  0  0  0  0  0  0  0  0  0  0
  -24.3340  -13.1640   20.8050 C   0  0  0  0  0  0  0  0  0  0  0  0
  -24.7900  -11.8110   20.7820 C   0  0  0  0  0  0  0  0  0  0  0  0
  -26.4470  -13.0450   20.2080 N   0  0  0  0  0  0  0  0  0  0  0  0
  -26.0800  -11.7640   20.4760 N   0  0  0  0  0  0  0  0  0  0  0  0
  -24.0600  -10.5520   20.9770 C   0  0  0  0  0  0  0  0  0  0  0  0
  -24.4820   -9.5910   21.9220 C   0  0  0  0  0  3  0  0  0  0  0  0
  -23.7510   -8.3980   22.1050 C   0  0  0  0  0  3  0  0  0  0  0  0
  -22.5850   -8.1550   21.3430 C   0  0  0  0  0  0  0  0  0  0  0  0
  -22.1820   -9.1040   20.3880 C   0  0  0  0  0  3  0  0  0  0  0  0
  -22.9130  -10.2890   20.2030 C   0  0  0  0  0  3  0  0  0  0  0  0
  -21.8270   -7.0130   21.4370 O   0  0  0  0  0  0  0  0  0  0  0  0
  -21.7590   -6.2870   22.5990 C   0  0  0  0  0  0  0  0  0  0  0  0
  -21.3190   -6.8600   23.8110 C   0  0  0  0  0  3  0  0  0  0  0  0
  -21.1950   -6.0600   24.9650 C   0  0  0  0  0  3  0  0  0  0  0  0
  -21.5040   -4.6870   24.9080 C   0  0  0  0  0  0  0  0  0  0  0  0
  -21.9380   -4.1140   23.6990 C   0  0  0  0  0  3  0  0  0  0  0  0
  -22.0620   -4.9110   22.5490 C   0  0  0  0  0  0  0  0  0  0  0  0
  -22.4600   -4.3490   21.3820 F   0  0  0  0  0  0  0  0  0  0  0  0
  -21.3800   -3.9160   26.0130 F   0  0  0  0  0  0  0  0  0  0  0  0
  -22.9370  -13.6490   21.0710 C   0  0  0  0  0  0  0  0  0  0  0  0
  -22.2070  -12.9600   21.9410 N   0  0  0  0  0  0  0  0  0  0  0  0
  -22.5030  -14.6710   20.5430 O   0  0  0  0  0  0  0  0  0  0  0  0
  -22.5730  -12.1320   22.3880 H   0  0  0  0  0  0  0  0  0  0  0  0
  -21.2700  -13.2680   22.1640 H   0  0  0  0  0  0  0  0  0  0  0  0
  -25.5760  -15.2990   20.2430 N   0  0  0  0  0  0  0  0  0  0  0  0
  -24.8070  -15.9550   20.3460 H   0  0  0  0  0  0  0  0  0  0  0  0
  -26.4240  -15.7320   19.8960 H   0  0  0  0  0  0  0  0  0  0  0  0
  1  2  1  0
  3  4  1  0
  3  1  1  0
  3 46  1  0
  5  7  1  0
  5  4  1  0
  6 17  2  0
  7 12  1  0
  8 16  1  0
  8 18  1  0
  9 15  1  0
  9 11  1  0
 10 16  1  0
 11 10  1  0
 12 11  2  0
 13 14  1  0
 13  7  2  0
 14  9  2  0
 15  8  1  0
 16  6  1  0
 18 20  2  0
 19 18  1  0
 21 19  1  0
 22 31  2  0
 22 27  1  0
 23 19  1  0
 23 27  1  0
 24 23  1  0
 25 26  1  0
 25 24  1  0
 26 22  1  0
 27 28  2  0
 28 29  1  0
 30 29  2  0
 31 30  1  0
 32  6  1  0
 32 37  1  0
 32 33  1  0
 33 36  1  1
 33 34  1  0
 35 33  1  0
 37 40  1  0
 38 42  1  0
 38 37  1  0
 39 38  2  0
 42 41  1  0
 44 42  1  0
 44 45  1  0
 44 43  1  0
 46 49  1  0
 47 49  1  0
 49 48  1  0
 50  1  1  0
 52 51  1  0
 52 50  1  0
 52 53  1  0
 53 54  1  0
 53 55  1  0
 56 57  1  0
 56 53  1  0
 58 67  1  0
 58 57  1  0
 59 67  1  0
 60 65  1  0
 61 62  1  0
 61 60  1  0
 63 62  1  0
 63 72  1  0
 63 64  1  0
 65 59  1  0
 65 64  1  0
 66 59  2  0
 67 68  1  0
 69 70  2  0
 70 89  1  0
 71 70  1  0
 71 74  1  0
 72 69  1  0
 72 73  1  0
 73 71  2  0
 74 75  1  0
 75 76  2  0
 77 80  1  0
 77 76  1  0
 78 77  2  0
 79 78  1  0
 79 74  2  0
 80 81  1  0
 81 82  1  0
 82 83  2  0
 84 83  1  0
 84 88  1  0
 85 84  2  0
 86 81  2  0
 86 85  1  0
 87 86  1  0
 89 90  1  0
 90 93  1  0
 90 92  1  0
 91 89  2  0
 94 95  1  0
 94 69  1  0
 96 94  1  0
M  ISO  4   4 101   5 101  59 100  67 100
M  END
>  <TORSDO>  (61) 
F 26

>  <SCORE>  (61) 
-12.356

>  <name>  (61) 
62

>  <ligand_id>  (61) 
62

>  <original_smiles>  (61) 
[H]c1c([H])c([H])c2c(c1[H])C([H])([H])C([H])([H])C([H])([H])C2([H])N([H])C(=O)C1([H])N(C(=O)C([H])(N([H])C(=O)C([H])(N([H])C([H])([H])[H])C([H])([H])[H])C(C([H])([H])[H])(C([H])([H])[H])C([H])([H])[H])C([H])([H])c2c([H])c(OC([H])([H])C([H])(N([H])C([H])([H])C([H])(C([H])([H])[H])[N+]([H])([H])C([H])([H])C([H])([H])C([H])([H])N([H])C(=O)N3C([H])([H])C([H])([H])C([H])([H])C([H])(n4nc(-c5c([H])c([H])c(Oc6c([H])c([H])c(F)c([H])c6F)c([H])c5[H])c(C(=O)N([H])[H])c4N([H])[H])C3([H])[H])C([H])([H])C([H])(C([H])([H])[H])C([H])([H])[H])c([H])c([H])c2C1([H])[H]

>  <smiles>  (61) 
[H]c1c([H])c([H])c2c(c1[H])C([H])([H])C([H])([H])C([H])([H])C2([H])N([H])C(=O)C1([H])N(C(=O)C([H])(N([H])C(=O)C([H])(N([H])C([H])([H])[H])C([H])([H])[H])C(C([H])([H])[H])(C([H])([H])[H])C([H])([H])[H])C([H])([H])c2c([H])c(OC([H])([H])C([H])(N([H])C([H])([H])C([H])(C([H])([H])[H])[N+]([H])([H])C([H])([H])C([H])([H])C([H])([H])N([H])C(=O)N3C([H])([H])C([H])([H])C([H])([H])C([H])(n4nc(-c5c([H])c([H])c(Oc6c([H])c([H])c(F)c([H])c6F)c([H])c5[H])c(C(=O)N([H])[H])c4N([H])[H])C3([H])[H])C([H])([H])C([H])(C([H])([H])[H])C([H])([H])[H])c([H])c([H])c2C1([H])[H]

$$$$
63:0:0
     RDKit          3D

 91 99  0  0  1  0  0  0  0  0999 V2000
  -29.3990  -20.8790   19.7310 N   0  0  0  0  0  0  0  0  0  0  0  0
  -29.0470  -20.6040   18.8150 H   0  0  0  0  0  0  0  0  0  0  0  0
  -30.6250  -20.1780   21.6780 C   0  0  0  0  0  3  0  0  0  0  0  0
  -31.3080  -17.8860   22.1550 C   0  0  0  0  0  3  0  0  0  0  0  0
  -30.0020  -18.3360   20.1770 C   0  0  0  0  0  3  0  0  0  0  0  0
  -31.2850  -19.2520   22.4900 C   0  0  0  0  0  0  0  0  0  0  0  0
  -29.9760  -19.7830   20.4990 C   0  0  0  0  0  0  0  0  0  0  0  0
  -30.6550  -17.3170   21.0180 C   0  0  0  0  0  0  0  0  0  0  0  0
  -31.9550  -19.7370   23.7620 C   0  0  0  0  0  1  0  0  0  0  0  0
  -31.0370  -14.8700   19.9590 C   0  0  0  0  0  0  0  0  0  0  0  0
  -30.7080  -12.6300   18.8170 C   0  0  0  0  0  2  0  0  0  0  0  0
  -29.6830  -12.6870   17.6600 C   0  0  0  0  0  2  0  0  0  0  0  0
  -28.2500  -12.4870   18.1870 C   0  0  0  0  0  2  0  0  0  0  0  0
  -27.9560  -13.3810   19.4130 C   0  0  0  0  0  3  0  0  0  0  0  0
  -29.0750  -13.2870   20.4610 C   0  0  0  0  0  2  0  0  0  0  0  0
  -30.3550  -13.6620   19.8280 N   0  0  0  0  0  0  0  0  0  0  0  0
  -32.0400  -15.0680   19.2660 O   0  0  0  0  0  0  0  0  0  0  0  0
  -30.8200  -15.1220   22.2800 C   0  0  0  0  0  1  0  0  0  0  0  0
  -30.6600  -15.7830   20.9550 N   0  0  0  0  0  0  0  0  0  0  0  0
  -25.6470  -13.9920   20.3520 C   0  0  0  0  0  0  0  0  0  0  0  0
  -24.6010  -13.2260   20.7920 C   0  0  0  0  0  0  0  0  0  0  0  0
  -25.0380  -11.8690   20.6940 C   0  0  0  0  0  0  0  0  0  0  0  0
  -26.6490  -13.1010   20.0040 N   0  0  0  0  0  0  0  0  0  0  0  0
  -26.2970  -11.8180   20.2750 N   0  0  0  0  0  0  0  0  0  0  0  0
  -24.3080  -10.6140   20.9160 C   0  0  0  0  0  0  0  0  0  0  0  0
  -24.7190   -9.6810   21.8930 C   0  0  0  0  0  3  0  0  0  0  0  0
  -23.9890   -8.4900   22.1000 C   0  0  0  0  0  3  0  0  0  0  0  0
  -22.8330   -8.2240   21.3280 C   0  0  0  0  0  0  0  0  0  0  0  0
  -22.4420   -9.1450   20.3400 C   0  0  0  0  0  3  0  0  0  0  0  0
  -23.1720  -10.3270   20.1330 C   0  0  0  0  0  3  0  0  0  0  0  0
  -22.0770   -7.0820   21.4390 O   0  0  0  0  0  0  0  0  0  0  0  0
  -21.9160   -6.4410   22.6420 C   0  0  0  0  0  0  0  0  0  0  0  0
  -21.3530   -7.0900   23.7620 C   0  0  0  0  0  3  0  0  0  0  0  0
  -21.1400   -6.3730   24.9560 C   0  0  0  0  0  3  0  0  0  0  0  0
  -21.4800   -5.0090   25.0300 C   0  0  0  0  0  0  0  0  0  0  0  0
  -22.0360   -4.3600   23.9140 C   0  0  0  0  0  3  0  0  0  0  0  0
  -22.2510   -5.0740   22.7220 C   0  0  0  0  0  0  0  0  0  0  0  0
  -22.7660   -4.4390   21.6420 F   0  0  0  0  0  0  0  0  0  0  0  0
  -21.2690   -4.3180   26.1760 F   0  0  0  0  0  0  0  0  0  0  0  0
  -23.2390  -13.7180   21.1840 C   0  0  0  0  0  0  0  0  0  0  0  0
  -22.5850  -13.0360   22.1190 N   0  0  0  0  0  0  0  0  0  0  0  0
  -22.7630  -14.7430   20.6960 O   0  0  0  0  0  0  0  0  0  0  0  0
  -22.9840  -12.2080   22.5350 H   0  0  0  0  0  0  0  0  0  0  0  0
  -21.6750  -13.3480   22.4240 H   0  0  0  0  0  0  0  0  0  0  0  0
  -25.8230  -15.3640   20.1970 N   0  0  0  0  0  0  0  0  0  0  0  0
  -25.0890  -16.0320   20.4010 H   0  0  0  0  0  0  0  0  0  0  0  0
  -26.6640  -15.7960   19.8340 H   0  0  0  0  0  0  0  0  0  0  0  0
  -28.7000  -22.1230   20.3050 C   0  0  0  0  0  2  0  0  0  0  0  0
  -29.2250  -23.6610   20.0690 C   0  0  0  0  0  3  0  0  0  0  0  0
  -28.1560  -24.9040   20.1510 C   0  0  0  0  0  3  0  0  0  0  0  0
  -28.4680  -26.3970   20.1550 O   0  0  0  0  0  0  0  0  0  0  0  0
  -24.8120  -31.8790   23.3320 C   0  0  0  0  0  0  0  0  0  0  0  0
  -27.3880  -27.3310   20.1380 C   0  0  0  0  0  0  0  0  0  0  0  0
  -23.6050  -30.5390   21.6530 C   0  0  0  0  0  3  0  0  0  0  0  0
  -25.0470  -29.0230   20.1780 C   0  0  0  0  0  0  0  0  0  0  0  0
  -26.1550  -30.8270   21.4860 C   0  0  0  0  0  2  0  0  0  0  0  0
  -26.2260  -29.4640   20.7920 C   0  0  0  0  0  0  0  0  0  0  0  0
  -27.3990  -28.6330   20.7560 C   0  0  0  0  0  3  0  0  0  0  0  0
  -26.1800  -26.9770   19.4910 C   0  0  0  0  0  3  0  0  0  0  0  0
  -25.0320  -27.7890   19.5150 C   0  0  0  0  0  3  0  0  0  0  0  0
  -23.8190  -29.9100   20.2520 C   0  0  0  0  0  2  0  0  0  0  0  0
  -24.8770  -31.0980   22.2130 N   0  0  0  0  0  0  0  0  0  0  0  0
  -23.7280  -32.1450   23.8730 O   0  0  0  0  0  0  0  0  0  0  0  0
  -22.9320  -29.4970   22.5790 C   0  0  0  0  0  0  0  0  0  0  0  0
  -21.6090  -29.3090   22.4260 N   0  0  0  0  0  0  0  0  0  0  0  0
  -23.6020  -28.8610   23.3980 O   0  0  0  0  0  0  0  0  0  0  0  0
  -21.1270  -29.8740   21.7420 H   0  0  0  0  0  0  0  0  0  0  0  0
  -18.2410  -28.0470   22.8370 C   0  0  0  0  0  0  0  0  0  0  0  0
  -20.7890  -28.3460   23.1650 C   0  0  0  0  0  3  0  0  0  0  0  0
  -20.9280  -26.9240   22.5710 C   0  0  0  0  0  2  0  0  0  0  0  0
  -19.8530  -26.5990   21.5280 C   0  0  0  0  0  2  0  0  0  0  0  0
  -18.4550  -26.7120   22.1430 C   0  0  0  0  0  2  0  0  0  0  0  0
  -19.3370  -28.8210   23.3030 C   0  0  0  0  0  0  0  0  0  0  0  0
  -19.0840  -30.0700   23.9100 C   0  0  0  0  0  3  0  0  0  0  0  0
  -17.7680  -30.5460   24.0560 C   0  0  0  0  0  3  0  0  0  0  0  0
  -16.6860  -29.7690   23.6070 C   0  0  0  0  0  3  0  0  0  0  0  0
  -16.9240  -28.5220   23.0030 C   0  0  0  0  0  3  0  0  0  0  0  0
  -26.0940  -32.4900   23.9740 C   0  0  0  0  0  3  0  0  0  0  0  0
  -26.6380  -31.6460   25.1930 C   0  0  1  0  0  0  0  0  0  0  0  0
  -25.5620  -31.3180   26.2540 C   0  0  0  0  0  1  0  0  0  0  0  0
  -27.2420  -30.3070   24.7080 C   0  0  0  0  0  1  0  0  0  0  0  0
  -27.7830  -32.4170   25.8920 C   0  0  0  0  0  1  0  0  0  0  0  0
  -25.7690  -33.8590   24.4010 N   0  0  0  0  0  0  0  0  0  0  0  0
  -26.1090  -34.9680   23.7310 C   0  0  0  0  0  0  0  0  0  0  0  0
  -26.7970  -34.9440   22.7060 O   0  0  0  0  0  0  0  0  0  0  0  0
  -25.1610  -33.9500   25.2010 H   0  0  0  0  0  0  0  0  0  0  0  0
  -24.4130  -36.8050   23.4460 C   0  0  0  0  0  1  0  0  0  0  0  0
  -25.6070  -36.3180   24.2820 C   0  0  0  0  0  3  0  0  0  0  0  0
  -27.6990  -37.1050   25.3000 C   0  0  0  0  0  1  0  0  0  0  0  0
  -26.6510  -37.3650   24.3150 N   0  0  0  0  0  0  0  0  0  0  0  0
  -26.2440  -38.2740   24.5180 H   0  0  0  0  0  0  0  0  0  0  0  0
  1 48  1  0
  1  7  1  0
  2  1  1  0
  3  6  1  0
  4  6  2  0
  5  7  1  0
  5  8  2  0
  6  9  1  0
  7  3  2  0
  8  4  1  0
 10 19  1  0
 11 16  1  0
 12 13  1  0
 12 11  1  0
 14 13  1  0
 14 23  1  0
 14 15  1  0
 16 10  1  0
 16 15  1  0
 17 10  2  0
 19  8  1  0
 19 18  1  0
 20 21  2  0
 21 40  1  0
 22 21  1  0
 22 25  1  0
 23 24  1  0
 23 20  1  0
 24 22  2  0
 25 26  1  0
 26 27  2  0
 28 31  1  0
 28 27  1  0
 29 28  2  0
 30 29  1  0
 30 25  2  0
 31 32  1  0
 32 37  2  0
 32 33  1  0
 33 34  2  0
 34 35  1  0
 35 39  1  0
 36 35  2  0
 37 36  1  0
 38 37  1  0
 40 41  1  0
 41 44  1  0
 41 43  1  0
 42 40  2  0
 45 20  1  0
 45 46  1  0
 47 45  1  0
 49 50  2  0
 49 48  1  0
 50 51  1  0
 52 63  2  0
 53 51  1  0
 53 58  1  0
 54 62  1  0
 54 64  1  0
 55 61  1  0
 55 57  1  0
 56 62  1  0
 57 56  1  0
 58 57  2  0
 59 60  1  0
 59 53  2  0
 60 55  2  0
 61 54  1  0
 62 52  1  0
 64 66  2  0
 65 64  1  0
 67 65  1  0
 68 77  2  0
 68 73  1  0
 69 65  1  0
 69 73  1  0
 70 69  1  0
 71 72  1  0
 71 70  1  0
 72 68  1  0
 73 74  2  0
 74 75  1  0
 76 75  2  0
 77 76  1  0
 78 52  1  0
 78 83  1  0
 78 79  1  0
 79 82  1  1
 79 80  1  0
 81 79  1  0
 83 86  1  0
 84 88  1  0
 84 83  1  0
 85 84  2  0
 88 87  1  0
 88 90  1  0
 90 91  1  0
 90 89  1  0
M  ISO  4  10 100  19 100  50 101  51 101
M  END
>  <TORSDO>  (62) 
F 20

>  <SCORE>  (62) 
-12.193

>  <name>  (62) 
63

>  <ligand_id>  (62) 
63

>  <original_smiles>  (62) 
[H]c1c([H])c([H])c2c(c1[H])C([H])([H])C([H])([H])C([H])([H])C2([H])N([H])C(=O)C1([H])N(C(=O)C([H])(N([H])C(=O)C([H])(N([H])C([H])([H])[H])C([H])([H])[H])C(C([H])([H])[H])(C([H])([H])[H])C([H])([H])[H])C([H])([H])c2c([H])c(OC([H])([H])C([H])([H])C([H])([H])N([H])c3c([H])c(N(C(=O)N4C([H])([H])C([H])([H])C([H])([H])C([H])(n5nc(-c6c([H])c([H])c(Oc7c([H])c([H])c(F)c([H])c7F)c([H])c6[H])c(C(=O)N([H])[H])c5N([H])[H])C4([H])[H])C([H])([H])[H])c([H])c(C([H])([H])[H])c3[H])c([H])c([H])c2C1([H])[H]

>  <smiles>  (62) 
[H]c1c([H])c([H])c2c(c1[H])C([H])([H])C([H])([H])C([H])([H])C2([H])N([H])C(=O)C1([H])N(C(=O)C([H])(N([H])C(=O)C([H])(N([H])C([H])([H])[H])C([H])([H])[H])C(C([H])([H])[H])(C([H])([H])[H])C([H])([H])[H])C([H])([H])c2c([H])c(OC([H])([H])C([H])([H])C([H])([H])N([H])c3c([H])c(N(C(=O)N4C([H])([H])C([H])([H])C([H])([H])C([H])(n5nc(-c6c([H])c([H])c(Oc7c([H])c([H])c(F)c([H])c7F)c([H])c6[H])c(C(=O)N([H])[H])c5N([H])[H])C4([H])[H])C([H])([H])[H])c([H])c(C([H])([H])[H])c3[H])c([H])c([H])c2C1([H])[H]

$$$$
64:0:0
     RDKit          3D

 97104  0  0  1  0  0  0  0  0999 V2000
  -29.6440  -22.8570   22.4240 C   0  0  0  0  0  2  0  0  0  0  0  0
  -29.3410  -21.3540   22.2710 C   0  0  0  0  0  2  0  0  0  0  0  0
  -30.4950  -20.4420   22.7150 C   0  0  0  0  0  2  0  0  0  0  0  0
  -30.2090  -18.9670   22.3800 C   0  0  0  0  0  2  0  0  0  0  0  0
  -31.3190  -18.0780   22.7850 N   0  0  0  0  0  4  0  0  0  0  0  0
  -31.3880  -18.1130   23.7890 H   0  0  0  0  0  0  0  0  0  0  0  0
  -32.1860  -18.4320   22.4150 H   0  0  0  0  0  0  0  0  0  0  0  0
  -31.8000  -15.7350   23.4110 C   0  0  0  0  0  1  0  0  0  0  0  0
  -31.1600  -16.6670   22.3660 C   0  0  0  0  0  3  0  0  0  0  0  0
  -31.7550  -16.4710   20.9480 C   0  0  0  0  0  2  0  0  0  0  0  0
  -32.0660  -15.0230   20.5320 C   0  0  0  0  0  2  0  0  0  0  0  0
  -30.7150  -13.6010   19.0110 C   0  0  0  0  0  0  0  0  0  0  0  0
  -30.2160  -11.2930   18.3290 C   0  0  0  0  0  2  0  0  0  0  0  0
  -29.0900  -11.1340   17.2970 C   0  0  0  0  0  2  0  0  0  0  0  0
  -27.7260  -11.0640   18.0010 C   0  0  0  0  0  2  0  0  0  0  0  0
  -27.5180  -12.2300   19.0010 C   0  0  0  0  0  3  0  0  0  0  0  0
  -28.7300  -12.3840   19.9460 C   0  0  0  0  0  2  0  0  0  0  0  0
  -29.9600  -12.4880   19.1410 N   0  0  0  0  0  0  0  0  0  0  0  0
  -31.4250  -13.8430   18.0290 O   0  0  0  0  0  0  0  0  0  0  0  0
  -30.8780  -14.2480   20.1720 N   0  0  0  0  0  0  0  0  0  0  0  0
  -30.2980  -13.9150   20.9290 H   0  0  0  0  0  0  0  0  0  0  0  0
  -25.3940  -13.0300   20.2210 C   0  0  0  0  0  0  0  0  0  0  0  0
  -24.3480  -12.3450   20.7790 C   0  0  0  0  0  0  0  0  0  0  0  0
  -24.6440  -10.9590   20.6040 C   0  0  0  0  0  0  0  0  0  0  0  0
  -26.2700  -12.0650   19.7460 N   0  0  0  0  0  0  0  0  0  0  0  0
  -25.8310  -10.8110   20.0300 N   0  0  0  0  0  0  0  0  0  0  0  0
  -23.8420   -9.7640   20.8960 C   0  0  0  0  0  0  0  0  0  0  0  0
  -24.2970   -8.7690   21.7890 C   0  0  0  0  0  3  0  0  0  0  0  0
  -23.5000   -7.6390   22.0700 C   0  0  0  0  0  3  0  0  0  0  0  0
  -22.2320   -7.4950   21.4570 C   0  0  0  0  0  0  0  0  0  0  0  0
  -21.7930   -8.4760   20.5510 C   0  0  0  0  0  3  0  0  0  0  0  0
  -22.5900   -9.5990   20.2690 C   0  0  0  0  0  3  0  0  0  0  0  0
  -21.4010   -6.4170   21.6490 O   0  0  0  0  0  0  0  0  0  0  0  0
  -21.3850   -5.7210   22.8320 C   0  0  0  0  0  0  0  0  0  0  0  0
  -21.0850   -6.3480   24.0610 C   0  0  0  0  0  3  0  0  0  0  0  0
  -21.0110   -5.5810   25.2410 C   0  0  0  0  0  3  0  0  0  0  0  0
  -21.2290   -4.1910   25.1950 C   0  0  0  0  0  0  0  0  0  0  0  0
  -21.5240   -3.5650   23.9700 C   0  0  0  0  0  3  0  0  0  0  0  0
  -21.5980   -4.3290   22.7910 C   0  0  0  0  0  0  0  0  0  0  0  0
  -21.8610   -3.7190   21.6110 F   0  0  0  0  0  0  0  0  0  0  0  0
  -21.1510   -3.4530   26.3260 F   0  0  0  0  0  0  0  0  0  0  0  0
  -23.0960  -12.9390   21.3560 C   0  0  0  0  0  0  0  0  0  0  0  0
  -22.5050  -12.2810   22.3480 N   0  0  0  0  0  0  0  0  0  0  0  0
  -22.6600  -14.0200   20.9620 O   0  0  0  0  0  0  0  0  0  0  0  0
  -22.8710  -11.4030   22.6850 H   0  0  0  0  0  0  0  0  0  0  0  0
  -21.6730  -12.6620   22.7760 H   0  0  0  0  0  0  0  0  0  0  0  0
  -25.6680  -14.3850   20.0610 N   0  0  0  0  0  0  0  0  0  0  0  0
  -25.0210  -15.1100   20.3510 H   0  0  0  0  0  0  0  0  0  0  0  0
  -26.4820  -14.7500   19.5820 H   0  0  0  0  0  0  0  0  0  0  0  0
  -28.6840  -23.7340   21.5860 C   0  0  0  0  0  3  0  0  0  0  0  0
  -27.3660  -23.8380   22.2540 N   0  0  0  0  0  4  0  0  0  0  0  0
  -27.4300  -24.3560   23.1130 H   0  0  0  0  0  0  0  0  0  0  0  0
  -27.0110  -22.9230   22.4710 H   0  0  0  0  0  0  0  0  0  0  0  0
  -26.6900  -24.2870   21.6620 H   0  0  0  0  0  0  0  0  0  0  0  0
  -29.2620  -25.1380   21.2790 C   0  0  0  0  0  2  0  0  0  0  0  0
  -28.6870  -25.7360   19.9810 C   0  0  0  0  0  2  0  0  0  0  0  0
  -28.6970  -27.1630   20.0500 O   0  0  0  0  0  0  0  0  0  0  0  0
  -24.6800  -31.9880   23.3740 C   0  0  0  0  0  0  0  0  0  0  0  0
  -27.4840  -27.8180   20.0720 C   0  0  0  0  0  0  0  0  0  0  0  0
  -23.5320  -30.6560   21.6340 C   0  0  0  0  0  3  0  0  0  0  0  0
  -25.0430  -29.2440   20.1450 C   0  0  0  0  0  0  0  0  0  0  0  0
  -26.0480  -31.0900   21.4970 C   0  0  0  0  0  2  0  0  0  0  0  0
  -26.1780  -29.7640   20.7820 C   0  0  0  0  0  0  0  0  0  0  0  0
  -27.3980  -29.0560   20.7470 C   0  0  0  0  0  3  0  0  0  0  0  0
  -26.3330  -27.3220   19.4130 C   0  0  0  0  0  3  0  0  0  0  0  0
  -25.1140  -28.0200   19.4620 C   0  0  0  0  0  3  0  0  0  0  0  0
  -23.7770  -30.0660   20.2200 C   0  0  0  0  0  2  0  0  0  0  0  0
  -24.7700  -31.2550   22.2280 N   0  0  0  0  0  0  0  0  0  0  0  0
  -23.5860  -32.2020   23.9130 O   0  0  0  0  0  0  0  0  0  0  0  0
  -22.8960  -29.5630   22.5210 C   0  0  0  0  0  0  0  0  0  0  0  0
  -21.5860  -29.3310   22.3340 N   0  0  0  0  0  0  0  0  0  0  0  0
  -23.5780  -28.9280   23.3300 O   0  0  0  0  0  0  0  0  0  0  0  0
  -21.0990  -29.8990   21.6550 H   0  0  0  0  0  0  0  0  0  0  0  0
  -18.2590  -27.9580   22.6220 C   0  0  0  0  0  0  0  0  0  0  0  0
  -20.7830  -28.3250   23.0290 C   0  0  0  0  0  3  0  0  0  0  0  0
  -20.9860  -26.9260   22.4060 C   0  0  0  0  0  2  0  0  0  0  0  0
  -19.9500  -26.5920   21.3260 C   0  0  0  0  0  2  0  0  0  0  0  0
  -18.5340  -26.6450   21.9070 C   0  0  0  0  0  2  0  0  0  0  0  0
  -19.3160  -28.7540   23.1340 C   0  0  0  0  0  0  0  0  0  0  0  0
  -19.0100  -29.9830   23.7590 C   0  0  0  0  0  3  0  0  0  0  0  0
  -17.6770  -30.4170   23.8780 C   0  0  0  0  0  3  0  0  0  0  0  0
  -16.6320  -29.6180   23.3840 C   0  0  0  0  0  3  0  0  0  0  0  0
  -16.9230  -28.3890   22.7620 C   0  0  0  0  0  3  0  0  0  0  0  0
  -25.9430  -32.6090   24.0490 C   0  0  0  0  0  3  0  0  0  0  0  0
  -25.6120  -33.9920   24.4140 N   0  0  0  0  0  0  0  0  0  0  0  0
  -25.9450  -35.0710   23.6910 C   0  0  0  0  0  0  0  0  0  0  0  0
  -26.6360  -35.0060   22.6710 O   0  0  0  0  0  0  0  0  0  0  0  0
  -25.0030  -34.1180   25.2100 H   0  0  0  0  0  0  0  0  0  0  0  0
  -24.1940  -36.8430   23.3590 C   0  0  0  0  0  1  0  0  0  0  0  0
  -25.4290  -36.4380   24.1780 C   0  0  0  0  0  3  0  0  0  0  0  0
  -27.5380  -37.3320   25.0630 C   0  0  0  0  0  1  0  0  0  0  0  0
  -26.4470  -37.5090   24.1070 N   0  0  0  0  0  0  0  0  0  0  0  0
  -26.0240  -38.4170   24.2760 H   0  0  0  0  0  0  0  0  0  0  0  0
  -26.4370  -31.8000   25.3100 C   0  0  1  0  0  0  0  0  0  0  0  0
  -25.3140  -31.4920   26.3280 C   0  0  0  0  0  1  0  0  0  0  0  0
  -27.0670  -30.4560   24.8800 C   0  0  0  0  0  1  0  0  0  0  0  0
  -27.5420  -32.5960   26.0450 C   0  0  0  0  0  1  0  0  0  0  0  0
  2  1  1  0
  2  3  1  0
  4  3  1  0
  4  5  1  0
  5  6  1  0
  7  5  1  0
  9  5  1  0
  9  8  1  0
 10  9  1  0
 11 10  1  0
 12 18  1  0
 12 20  1  0
 13 18  1  0
 14 15  1  0
 14 13  1  0
 16 15  1  0
 16 25  1  0
 16 17  1  0
 18 17  1  0
 19 12  2  0
 20 11  1  0
 20 21  1  0
 22 23  2  0
 23 42  1  0
 24 23  1  0
 24 27  1  0
 25 26  1  0
 25 22  1  0
 26 24  2  0
 27 28  1  0
 28 29  2  0
 30 33  1  0
 30 29  1  0
 31 30  2  0
 32 31  1  0
 32 27  2  0
 33 34  1  0
 34 35  1  0
 35 36  2  0
 37 36  1  0
 37 41  1  0
 38 37  2  0
 39 34  2  0
 39 38  1  0
 40 39  1  0
 42 43  1  0
 43 45  1  0
 43 46  1  0
 44 42  2  0
 47 22  1  0
 47 48  1  0
 49 47  1  0
 50 55  1  0
 50 51  1  0
 50  1  1  0
 51 53  1  0
 51 52  1  0
 54 51  1  0
 56 57  1  0
 56 55  1  0
 57 59  1  0
 58 69  2  0
 59 64  1  0
 60 68  1  0
 60 70  1  0
 61 67  1  0
 61 63  1  0
 62 68  1  0
 63 62  1  0
 64 63  2  0
 65 66  1  0
 65 59  2  0
 66 61  2  0
 67 60  1  0
 68 58  1  0
 70 72  2  0
 71 70  1  0
 73 71  1  0
 74 83  2  0
 74 79  1  0
 75 71  1  0
 75 79  1  0
 76 75  1  0
 77 78  1  0
 77 76  1  0
 78 74  1  0
 79 80  2  0
 80 81  1  0
 82 81  2  0
 83 82  1  0
 84 58  1  0
 84 85  1  0
 84 94  1  0
 85 88  1  0
 86 90  1  0
 86 85  1  0
 87 86  2  0
 90 89  1  0
 92 90  1  0
 92 93  1  0
 92 91  1  0
 94 97  1  1
 94 95  1  0
 96 94  1  0
M  ISO  4  12 100  20 100  56 101  57 101
M  END
>  <TORSDO>  (63) 
F 27

>  <SCORE>  (63) 
-5.731

>  <name>  (63) 
64

>  <ligand_id>  (63) 
64

>  <original_smiles>  (63) 
[H]c1c([H])c([H])c2c(c1[H])C([H])([H])C([H])([H])C([H])([H])C2([H])N([H])C(=O)C1([H])N(C(=O)C([H])(N([H])C(=O)C([H])(N([H])C([H])([H])[H])C([H])([H])[H])C(C([H])([H])[H])(C([H])([H])[H])C([H])([H])[H])C([H])([H])c2c([H])c(OC([H])([H])C([H])([H])C([H])(C([H])([H])C([H])([H])C([H])([H])C([H])([H])[N+]([H])([H])C([H])(C([H])([H])[H])C([H])([H])C([H])([H])N([H])C(=O)N3C([H])([H])C([H])([H])C([H])([H])C([H])(n4nc(-c5c([H])c([H])c(Oc6c([H])c([H])c(F)c([H])c6F)c([H])c5[H])c(C(=O)N([H])[H])c4N([H])[H])C3([H])[H])[N+]([H])([H])[H])c([H])c([H])c2C1([H])[H]

>  <smiles>  (63) 
[H]c1c([H])c([H])c2c(c1[H])C([H])([H])C([H])([H])C([H])([H])C2([H])N([H])C(=O)C1([H])N(C(=O)C([H])(N([H])C(=O)C([H])(N([H])C([H])([H])[H])C([H])([H])[H])C(C([H])([H])[H])(C([H])([H])[H])C([H])([H])[H])C([H])([H])c2c([H])c(OC([H])([H])C([H])([H])C([H])(C([H])([H])C([H])([H])C([H])([H])C([H])([H])[N+]([H])([H])C([H])(C([H])([H])[H])C([H])([H])C([H])([H])N([H])C(=O)N3C([H])([H])C([H])([H])C([H])([H])C([H])(n4nc(-c5c([H])c([H])c(Oc6c([H])c([H])c(F)c([H])c6F)c([H])c5[H])c(C(=O)N([H])[H])c4N([H])[H])C3([H])[H])[N+]([H])([H])[H])c([H])c([H])c2C1([H])[H]

$$$$
65:0:0
     RDKit          3D

 96103  0  0  1  0  0  0  0  0999 V2000
  -30.1230  -20.2080   19.8320 C   0  0  0  0  0  0  0  0  0  0  0  0
  -29.2580  -21.2950   19.7660 N   0  0  0  0  0  0  0  0  0  0  0  0
  -31.3380  -20.4100   19.7980 O   0  0  0  0  0  0  0  0  0  0  0  0
  -28.2670  -21.1180   19.7190 H   0  0  0  0  0  0  0  0  0  0  0  0
  -29.6050  -22.7840   19.6880 C   0  0  0  0  0  3  0  0  0  0  0  0
  -30.2420  -23.0580   18.3040 C   0  0  0  0  0  2  0  0  0  0  0  0
  -29.3780  -22.5570   17.2920 O   0  0  0  0  0  0  0  0  0  0  0  0
  -29.7600  -22.7750   16.4460 H   0  0  0  0  0  0  0  0  0  0  0  0
  -28.4260  -23.8800   19.8960 C   0  0  0  0  0  2  0  0  0  0  0  0
  -28.6260  -25.2380   20.7290 C   0  0  0  0  0  2  0  0  0  0  0  0
  -28.6010  -26.5960   20.1360 O   0  0  0  0  0  0  0  0  0  0  0  0
  -24.5930  -31.7870   23.2050 C   0  0  0  0  0  0  0  0  0  0  0  0
  -27.4340  -27.3740   20.1660 C   0  0  0  0  0  0  0  0  0  0  0  0
  -23.4790  -30.3990   21.4880 C   0  0  0  0  0  3  0  0  0  0  0  0
  -25.0230  -28.9090   20.0900 C   0  0  0  0  0  0  0  0  0  0  0  0
  -26.0090  -30.7940   21.3920 C   0  0  0  0  0  2  0  0  0  0  0  0
  -26.1510  -29.4260   20.7360 C   0  0  0  0  0  0  0  0  0  0  0  0
  -27.3620  -28.6720   20.7630 C   0  0  0  0  0  3  0  0  0  0  0  0
  -26.2840  -26.8970   19.5080 C   0  0  0  0  0  3  0  0  0  0  0  0
  -25.0900  -27.6490   19.4680 C   0  0  0  0  0  3  0  0  0  0  0  0
  -23.7600  -29.7540   20.1030 C   0  0  0  0  0  2  0  0  0  0  0  0
  -24.7120  -31.0070   22.0910 N   0  0  0  0  0  0  0  0  0  0  0  0
  -23.4890  -32.0250   23.7140 O   0  0  0  0  0  0  0  0  0  0  0  0
  -22.8050  -29.3480   22.4030 C   0  0  0  0  0  0  0  0  0  0  0  0
  -21.4840  -29.1610   22.2430 N   0  0  0  0  0  0  0  0  0  0  0  0
  -23.4740  -28.7060   23.2170 O   0  0  0  0  0  0  0  0  0  0  0  0
  -21.0020  -29.7370   21.5670 H   0  0  0  0  0  0  0  0  0  0  0  0
  -18.1080  -27.9430   22.6630 C   0  0  0  0  0  0  0  0  0  0  0  0
  -20.6640  -28.1900   22.9640 C   0  0  0  0  0  3  0  0  0  0  0  0
  -20.7710  -26.7860   22.3250 C   0  0  0  0  0  2  0  0  0  0  0  0
  -19.6770  -26.5090   21.2880 C   0  0  0  0  0  2  0  0  0  0  0  0
  -18.2910  -26.6240   21.9280 C   0  0  0  0  0  2  0  0  0  0  0  0
  -19.2240  -28.6850   23.1340 C   0  0  0  0  0  0  0  0  0  0  0  0
  -18.9990  -29.9190   23.7820 C   0  0  0  0  0  3  0  0  0  0  0  0
  -17.6930  -30.4150   23.9580 C   0  0  0  0  0  3  0  0  0  0  0  0
  -16.5920  -29.6700   23.5010 C   0  0  0  0  0  3  0  0  0  0  0  0
  -16.7990  -28.4360   22.8590 C   0  0  0  0  0  3  0  0  0  0  0  0
  -25.8410  -32.4320   23.8860 C   0  0  0  0  0  3  0  0  0  0  0  0
  -26.3010  -31.6700   25.1880 C   0  0  1  0  0  0  0  0  0  0  0  0
  -25.1610  -31.4260   26.2040 C   0  0  0  0  0  1  0  0  0  0  0  0
  -26.9130  -30.2960   24.8290 C   0  0  0  0  0  1  0  0  0  0  0  0
  -27.4120  -32.4720   25.9060 C   0  0  0  0  0  1  0  0  0  0  0  0
  -25.5070  -33.8290   24.1980 N   0  0  0  0  0  0  0  0  0  0  0  0
  -25.8600  -34.8830   23.4500 C   0  0  0  0  0  0  0  0  0  0  0  0
  -26.5690  -34.7810   22.4450 O   0  0  0  0  0  0  0  0  0  0  0  0
  -24.8890  -33.9830   24.9820 H   0  0  0  0  0  0  0  0  0  0  0  0
  -24.1270  -36.6540   23.0190 C   0  0  0  0  0  1  0  0  0  0  0  0
  -25.3410  -36.2680   23.8780 C   0  0  0  0  0  3  0  0  0  0  0  0
  -27.4350  -37.1810   24.7820 C   0  0  0  0  0  1  0  0  0  0  0  0
  -26.3670  -37.3310   23.7960 N   0  0  0  0  0  0  0  0  0  0  0  0
  -25.9480  -38.2490   23.9230 H   0  0  0  0  0  0  0  0  0  0  0  0
  -29.6320  -18.6860   19.9720 C   0  0  0  0  0  3  0  0  0  0  0  0
  -28.5550  -18.4390   19.0010 N   0  0  0  0  0  4  0  0  0  0  0  0
  -28.9370  -17.7760   18.3460 H   0  0  0  0  0  0  0  0  0  0  0  0
  -28.4380  -19.3050   18.5070 H   0  0  0  0  0  0  0  0  0  0  0  0
  -26.3100  -17.4920   18.4320 C   0  0  0  0  0  1  0  0  0  0  0  0
  -26.5050  -19.0280   20.3700 C   0  0  0  0  0  1  0  0  0  0  0  0
  -27.2520  -17.9580   19.5470 C   0  0  0  0  0  3  0  0  0  0  0  0
  -30.7000  -17.4710   19.9420 C   0  0  0  0  0  2  0  0  0  0  0  0
  -30.2890  -16.0650   20.6280 C   0  0  0  0  0  2  0  0  0  0  0  0
  -30.8970  -14.7030   20.0900 C   0  0  0  0  0  0  0  0  0  0  0  0
  -30.5900  -12.4020   19.1730 C   0  0  0  0  0  2  0  0  0  0  0  0
  -29.6150  -12.4630   17.9780 C   0  0  0  0  0  2  0  0  0  0  0  0
  -28.1630  -12.3180   18.4620 C   0  0  0  0  0  2  0  0  0  0  0  0
  -27.8440  -13.2380   19.6680 C   0  0  0  0  0  3  0  0  0  0  0  0
  -28.9490  -13.1880   20.7490 C   0  0  0  0  0  2  0  0  0  0  0  0
  -30.2340  -13.4960   20.1040 N   0  0  0  0  0  0  0  0  0  0  0  0
  -32.0140  -14.7780   19.5760 O   0  0  0  0  0  0  0  0  0  0  0  0
  -25.4940  -13.8480   20.4990 C   0  0  0  0  0  0  0  0  0  0  0  0
  -24.4350  -13.1000   20.9180 C   0  0  0  0  0  0  0  0  0  0  0  0
  -24.8600  -11.7370   20.8360 C   0  0  0  0  0  0  0  0  0  0  0  0
  -26.5130  -12.9610   20.2120 N   0  0  0  0  0  0  0  0  0  0  0  0
  -26.1350  -11.6770   20.4640 N   0  0  0  0  0  0  0  0  0  0  0  0
  -24.1030  -10.4950   21.0210 C   0  0  0  0  0  0  0  0  0  0  0  0
  -24.5390   -9.5000   21.9210 C   0  0  0  0  0  3  0  0  0  0  0  0
  -23.7840   -8.3210   22.1030 C   0  0  0  0  0  3  0  0  0  0  0  0
  -22.5820   -8.1270   21.3810 C   0  0  0  0  0  0  0  0  0  0  0  0
  -22.1630   -9.1130   20.4710 C   0  0  0  0  0  3  0  0  0  0  0  0
  -22.9140  -10.2870   20.2920 C   0  0  0  0  0  3  0  0  0  0  0  0
  -21.8060   -6.9950   21.4680 O   0  0  0  0  0  0  0  0  0  0  0  0
  -21.7590   -6.2470   22.6150 C   0  0  0  0  0  0  0  0  0  0  0  0
  -21.3750   -6.8010   23.8560 C   0  0  0  0  0  3  0  0  0  0  0  0
  -21.2750   -5.9780   24.9950 C   0  0  0  0  0  3  0  0  0  0  0  0
  -21.5510   -4.6010   24.8940 C   0  0  0  0  0  0  0  0  0  0  0  0
  -21.9250   -4.0450   23.6590 C   0  0  0  0  0  3  0  0  0  0  0  0
  -22.0280   -4.8650   22.5210 C   0  0  0  0  0  0  0  0  0  0  0  0
  -22.3680   -4.3210   21.3280 F   0  0  0  0  0  0  0  0  0  0  0  0
  -21.4460   -3.8080   25.9850 F   0  0  0  0  0  0  0  0  0  0  0  0
  -23.0700  -13.6110   21.2780 C   0  0  0  0  0  0  0  0  0  0  0  0
  -22.3910  -12.9260   22.1860 N   0  0  0  0  0  0  0  0  0  0  0  0
  -22.6290  -14.6570   20.8000 O   0  0  0  0  0  0  0  0  0  0  0  0
  -21.5050  -13.2710   22.5260 H   0  0  0  0  0  0  0  0  0  0  0  0
  -22.7690  -12.0680   22.5620 H   0  0  0  0  0  0  0  0  0  0  0  0
  -25.6760  -15.2100   20.3010 N   0  0  0  0  0  0  0  0  0  0  0  0
  -26.4470  -15.5550   19.7460 H   0  0  0  0  0  0  0  0  0  0  0  0
  -24.8970  -15.8530   20.3550 H   0  0  0  0  0  0  0  0  0  0  0  0
  1 52  1  0
  2  1  1  0
  3  1  2  0
  4  2  1  0
  5  6  1  0
  5  2  1  0
  5  9  1  0
  7  6  1  0
  8  7  1  0
  9 10  1  0
 11 13  1  0
 11 10  1  0
 12 23  2  0
 13 18  1  0
 14 22  1  0
 14 24  1  0
 15 21  1  0
 15 17  1  0
 16 22  1  0
 17 18  2  0
 17 16  1  0
 19 13  2  0
 20 19  1  0
 20 15  2  0
 21 14  1  0
 22 12  1  0
 24 26  2  0
 25 24  1  0
 27 25  1  0
 28 37  2  0
 28 33  1  0
 29 25  1  0
 29 33  1  0
 30 29  1  0
 31 32  1  0
 31 30  1  0
 32 28  1  0
 33 34  2  0
 34 35  1  0
 36 35  2  0
 37 36  1  0
 38 12  1  0
 38 43  1  0
 38 39  1  0
 39 42  1  1
 39 40  1  0
 41 39  1  0
 43 46  1  0
 44 48  1  0
 44 43  1  0
 45 44  2  0
 48 47  1  0
 50 48  1  0
 50 51  1  0
 50 49  1  0
 52 59  1  0
 53 58  1  0
 53 52  1  0
 54 53  1  0
 55 53  1  0
 56 58  1  0
 58 57  1  0
 59 60  1  0
 61 67  1  0
 61 60  1  0
 62 67  1  0
 63 64  1  0
 63 62  1  0
 65 64  1  0
 65 72  1  0
 65 66  1  0
 67 66  1  0
 68 61  2  0
 69 70  2  0
 70 89  1  0
 71 70  1  0
 71 74  1  0
 72 73  1  0
 72 69  1  0
 73 71  2  0
 74 75  1  0
 75 76  2  0
 77 80  1  0
 77 76  1  0
 78 77  2  0
 79 78  1  0
 79 74  2  0
 80 81  1  0
 81 82  1  0
 82 83  2  0
 84 83  1  0
 84 88  1  0
 85 84  2  0
 86 81  2  0
 86 85  1  0
 87 86  1  0
 89 90  1  0
 90 92  1  0
 90 93  1  0
 91 89  2  0
 94 96  1  0
 94 69  1  0
 95 94  1  0
M  ISO  4  10 101  11 101  60 100  61 100
M  END
>  <TORSDO>  (64) 
F 26

>  <SCORE>  (64) 
-9.848

>  <name>  (64) 
65

>  <ligand_id>  (64) 
65

>  <original_smiles>  (64) 
[H]OC([H])([H])C([H])(N([H])C(=O)C([H])(C([H])([H])C([H])([H])C(=O)N1C([H])([H])C([H])([H])C([H])([H])C([H])(n2nc(-c3c([H])c([H])c(Oc4c([H])c([H])c(F)c([H])c4F)c([H])c3[H])c(C(=O)N([H])[H])c2N([H])[H])C1([H])[H])[N+]([H])([H])C([H])(C([H])([H])[H])C([H])([H])[H])C([H])([H])C([H])([H])Oc1c([H])c([H])c2c(c1[H])C([H])([H])N(C(=O)C([H])(N([H])C(=O)C([H])(N([H])C([H])([H])[H])C([H])([H])[H])C(C([H])([H])[H])(C([H])([H])[H])C([H])([H])[H])C([H])(C(=O)N([H])C1([H])c3c([H])c([H])c([H])c([H])c3C([H])([H])C([H])([H])C1([H])[H])C2([H])[H]

>  <smiles>  (64) 
[H]OC([H])([H])C([H])(N([H])C(=O)C([H])(C([H])([H])C([H])([H])C(=O)N1C([H])([H])C([H])([H])C([H])([H])C([H])(n2nc(-c3c([H])c([H])c(Oc4c([H])c([H])c(F)c([H])c4F)c([H])c3[H])c(C(=O)N([H])[H])c2N([H])[H])C1([H])[H])[N+]([H])([H])C([H])(C([H])([H])[H])C([H])([H])[H])C([H])([H])C([H])([H])Oc1c([H])c([H])c2c(c1[H])C([H])([H])N(C(=O)C([H])(N([H])C(=O)C([H])(N([H])C([H])([H])[H])C([H])([H])[H])C(C([H])([H])[H])(C([H])([H])[H])C([H])([H])[H])C([H])(C(=O)N([H])C1([H])c3c([H])c([H])c([H])c([H])c3C([H])([H])C([H])([H])C1([H])[H])C2([H])[H]

$$$$
66:0:0
     RDKit          3D

 96104  0  0  1  0  0  0  0  0999 V2000
  -28.3980  -22.5700   19.1350 C   0  0  0  0  0  0  0  0  0  0  0  0
  -28.7440  -24.1260   19.1470 C   0  0  0  0  0  2  0  0  0  0  0  0
  -28.1080  -23.2790   22.1570 C   0  0  0  0  0  2  0  0  0  0  0  0
  -28.0100  -21.8560   21.5250 C   0  0  0  0  0  2  0  0  0  0  0  0
  -27.4490  -24.4750   21.3950 C   0  0  0  0  0  2  0  0  0  0  0  0
  -28.8380  -21.5220   20.2440 C   0  0  0  0  0  3  0  0  0  0  0  0
  -28.3880  -25.1120   20.3470 C   0  0  0  0  0  3  0  0  0  0  0  0
  -27.7510  -22.1530   18.1680 O   0  0  0  0  0  0  0  0  0  0  0  0
  -28.4730  -20.1010   19.7820 N   0  0  0  0  0  4  0  0  0  0  0  0
  -27.9810  -20.3240   18.9240 H   0  0  0  0  0  0  0  0  0  0  0  0
  -27.7730  -19.7310   20.3990 H   0  0  0  0  0  0  0  0  0  0  0  0
  -30.7710  -19.4360   18.8320 C   0  0  0  0  0  1  0  0  0  0  0  0
  -29.4210  -18.9530   19.3920 C   0  0  0  0  0  3  0  0  0  0  0  0
  -29.5100  -17.6300   20.3340 C   0  0  0  0  0  3  0  0  0  0  0  0
  -30.5500  -17.7860   21.3520 N   0  0  0  0  0  0  0  0  0  0  0  0
  -31.4360  -17.4480   20.9830 H   0  0  0  0  0  0  0  0  0  0  0  0
  -31.2950  -17.3690   23.6360 C   0  0  0  0  0  1  0  0  0  0  0  0
  -30.2190  -17.0830   22.5880 C   0  0  0  0  0  2  0  0  0  0  0  0
  -29.4300  -16.1390   19.6720 C   0  0  0  0  0  2  0  0  0  0  0  0
  -30.4510  -14.8870   19.7440 C   0  0  0  0  0  0  0  0  0  0  0  0
  -30.3400  -12.5510   18.8950 C   0  0  0  0  0  2  0  0  0  0  0  0
  -29.3130  -12.5410   17.7350 C   0  0  0  0  0  2  0  0  0  0  0  0
  -27.8790  -12.3430   18.2710 C   0  0  0  0  0  2  0  0  0  0  0  0
  -27.5550  -13.2950   19.4500 C   0  0  0  0  0  3  0  0  0  0  0  0
  -28.6830  -13.2590   20.5060 C   0  0  0  0  0  2  0  0  0  0  0  0
  -29.9420  -13.6140   19.8410 N   0  0  0  0  0  0  0  0  0  0  0  0
  -31.6330  -15.0510   19.4220 O   0  0  0  0  0  0  0  0  0  0  0  0
  -25.2500  -13.9210   20.3960 C   0  0  0  0  0  0  0  0  0  0  0  0
  -24.2000  -13.1570   20.8250 C   0  0  0  0  0  0  0  0  0  0  0  0
  -24.6320  -11.7990   20.7130 C   0  0  0  0  0  0  0  0  0  0  0  0
  -26.2500  -13.0280   20.0410 N   0  0  0  0  0  0  0  0  0  0  0  0
  -25.8910  -11.7460   20.3020 N   0  0  0  0  0  0  0  0  0  0  0  0
  -23.9010  -10.5420   20.9210 C   0  0  0  0  0  0  0  0  0  0  0  0
  -24.3530   -9.5700   21.8400 C   0  0  0  0  0  3  0  0  0  0  0  0
  -23.6270   -8.3760   22.0340 C   0  0  0  0  0  3  0  0  0  0  0  0
  -22.4330   -8.1470   21.3100 C   0  0  0  0  0  0  0  0  0  0  0  0
  -21.9990   -9.1070   20.3810 C   0  0  0  0  0  3  0  0  0  0  0  0
  -22.7260  -10.2930   20.1840 C   0  0  0  0  0  3  0  0  0  0  0  0
  -21.6760   -7.0040   21.4140 O   0  0  0  0  0  0  0  0  0  0  0  0
  -21.6140   -6.2870   22.5800 C   0  0  0  0  0  0  0  0  0  0  0  0
  -21.1590   -6.8640   23.7870 C   0  0  0  0  0  3  0  0  0  0  0  0
  -21.0450   -6.0720   24.9460 C   0  0  0  0  0  3  0  0  0  0  0  0
  -21.3750   -4.7040   24.9020 C   0  0  0  0  0  0  0  0  0  0  0  0
  -21.8240   -4.1280   23.7010 C   0  0  0  0  0  3  0  0  0  0  0  0
  -21.9420   -4.9160   22.5430 C   0  0  0  0  0  0  0  0  0  0  0  0
  -22.3530   -4.3520   21.3820 F   0  0  0  0  0  0  0  0  0  0  0  0
  -21.2600   -3.9400   26.0140 F   0  0  0  0  0  0  0  0  0  0  0  0
  -22.8360  -13.6460   21.2170 C   0  0  0  0  0  0  0  0  0  0  0  0
  -22.1640  -12.9320   22.1120 N   0  0  0  0  0  0  0  0  0  0  0  0
  -22.3760  -14.6930   20.7610 O   0  0  0  0  0  0  0  0  0  0  0  0
  -22.5520  -12.0860   22.5010 H   0  0  0  0  0  0  0  0  0  0  0  0
  -21.2460  -13.2330   22.4060 H   0  0  0  0  0  0  0  0  0  0  0  0
  -25.4260  -15.2940   20.2450 N   0  0  0  0  0  0  0  0  0  0  0  0
  -24.6730  -15.9490   20.4200 H   0  0  0  0  0  0  0  0  0  0  0  0
  -26.2360  -15.7240   19.8180 H   0  0  0  0  0  0  0  0  0  0  0  0
  -28.3260  -26.6020   20.1250 O   0  0  0  0  0  0  0  0  0  0  0  0
  -24.5290  -31.9400   23.2280 C   0  0  0  0  0  0  0  0  0  0  0  0
  -27.1640  -27.3950   20.1410 C   0  0  0  0  0  0  0  0  0  0  0  0
  -23.3280  -30.5510   21.5730 C   0  0  0  0  0  3  0  0  0  0  0  0
  -24.7860  -28.9990   20.1420 C   0  0  0  0  0  0  0  0  0  0  0  0
  -25.8630  -30.8780   21.3840 C   0  0  0  0  0  2  0  0  0  0  0  0
  -25.9520  -29.4980   20.7340 C   0  0  0  0  0  0  0  0  0  0  0  0
  -27.1440  -28.7100   20.7120 C   0  0  0  0  0  3  0  0  0  0  0  0
  -25.9710  -26.9420   19.5410 C   0  0  0  0  0  3  0  0  0  0  0  0
  -24.7980  -27.7290   19.5370 C   0  0  0  0  0  3  0  0  0  0  0  0
  -23.5440  -29.8740   20.1930 C   0  0  0  0  0  2  0  0  0  0  0  0
  -24.5930  -31.1420   22.1210 N   0  0  0  0  0  0  0  0  0  0  0  0
  -23.4450  -32.2110   23.7660 O   0  0  0  0  0  0  0  0  0  0  0  0
  -22.6680  -29.5320   22.5300 C   0  0  0  0  0  0  0  0  0  0  0  0
  -21.3440  -29.3510   22.4020 N   0  0  0  0  0  0  0  0  0  0  0  0
  -23.3480  -28.9020   23.3450 O   0  0  0  0  0  0  0  0  0  0  0  0
  -20.8540  -29.9160   21.7210 H   0  0  0  0  0  0  0  0  0  0  0  0
  -17.9670  -28.1500   22.9060 C   0  0  0  0  0  0  0  0  0  0  0  0
  -20.5280  -28.4000   23.1600 C   0  0  0  0  0  3  0  0  0  0  0  0
  -20.6220  -26.9790   22.5580 C   0  0  0  0  0  2  0  0  0  0  0  0
  -19.5130  -26.6810   21.5450 C   0  0  0  0  0  2  0  0  0  0  0  0
  -18.1350  -26.8150   22.2000 C   0  0  0  0  0  2  0  0  0  0  0  0
  -19.0920  -28.9020   23.3410 C   0  0  0  0  0  0  0  0  0  0  0  0
  -18.8810  -30.1540   23.9600 C   0  0  0  0  0  3  0  0  0  0  0  0
  -17.5800  -30.6540   24.1490 C   0  0  0  0  0  3  0  0  0  0  0  0
  -16.4700  -29.8990   23.7290 C   0  0  0  0  0  3  0  0  0  0  0  0
  -16.6650  -28.6500   23.1140 C   0  0  0  0  0  3  0  0  0  0  0  0
  -25.8080  -32.5720   23.8600 C   0  0  0  0  0  3  0  0  0  0  0  0
  -25.5080  -33.9770   24.1700 N   0  0  0  0  0  0  0  0  0  0  0  0
  -25.8400  -35.0180   23.3950 C   0  0  0  0  0  0  0  0  0  0  0  0
  -26.5010  -34.8940   22.3600 O   0  0  0  0  0  0  0  0  0  0  0  0
  -24.9250  -34.1470   24.9780 H   0  0  0  0  0  0  0  0  0  0  0  0
  -24.1090  -36.8090   23.0370 C   0  0  0  0  0  1  0  0  0  0  0  0
  -25.3640  -36.4170   23.8320 C   0  0  0  0  0  3  0  0  0  0  0  0
  -27.5120  -37.3180   24.6110 C   0  0  0  0  0  1  0  0  0  0  0  0
  -26.3960  -37.4660   23.6800 N   0  0  0  0  0  0  0  0  0  0  0  0
  -25.9940  -38.3900   23.8090 H   0  0  0  0  0  0  0  0  0  0  0  0
  -26.3000  -31.8130   25.1540 C   0  0  1  0  0  0  0  0  0  0  0  0
  -25.1870  -31.5930   26.2070 C   0  0  0  0  0  1  0  0  0  0  0  0
  -26.8850  -30.4300   24.7830 C   0  0  0  0  0  1  0  0  0  0  0  0
  -27.4480  -32.6100   25.8190 C   0  0  0  0  0  1  0  0  0  0  0  0
  1  2  1  0
  1  6  1  0
  2  7  1  0
  4  3  1  0
  5  3  1  0
  6  9  1  0
  6  4  1  0
  7 56  1  0
  7  5  1  0
  8  1  2  0
  9 11  1  0
 10  9  1  0
 13 12  1  0
 13  9  1  0
 13 14  1  0
 14 19  1  0
 14 15  1  0
 15 18  1  0
 16 15  1  0
 18 17  1  0
 19 20  1  0
 20 26  1  0
 21 26  1  0
 22 23  1  0
 22 21  1  0
 24 23  1  0
 24 31  1  0
 24 25  1  0
 26 25  1  0
 27 20  2  0
 28 29  2  0
 29 48  1  0
 30 29  1  0
 30 33  1  0
 31 32  1  0
 31 28  1  0
 32 30  2  0
 33 34  1  0
 34 35  2  0
 36 39  1  0
 36 35  1  0
 37 36  2  0
 38 37  1  0
 38 33  2  0
 39 40  1  0
 40 41  1  0
 41 42  2  0
 43 42  1  0
 43 47  1  0
 44 43  2  0
 45 40  2  0
 45 44  1  0
 46 45  1  0
 48 49  1  0
 49 52  1  0
 49 51  1  0
 50 48  2  0
 53 28  1  0
 53 54  1  0
 55 53  1  0
 56 58  1  0
 57 68  2  0
 58 63  1  0
 59 67  1  0
 59 69  1  0
 60 66  1  0
 60 62  1  0
 61 67  1  0
 62 61  1  0
 63 62  2  0
 64 58  2  0
 65 64  1  0
 65 60  2  0
 66 59  1  0
 67 57  1  0
 69 71  2  0
 70 69  1  0
 72 70  1  0
 73 82  2  0
 73 78  1  0
 74 70  1  0
 74 78  1  0
 75 74  1  0
 76 77  1  0
 76 75  1  0
 77 73  1  0
 78 79  2  0
 79 80  1  0
 81 80  2  0
 82 81  1  0
 83 57  1  0
 83 84  1  0
 83 93  1  0
 84 87  1  0
 85 89  1  0
 85 84  1  0
 86 85  2  0
 89 88  1  0
 91 92  1  0
 91 89  1  0
 91 90  1  0
 93 96  1  1
 93 94  1  0
 95 93  1  0
M  ISO  4   7 101  19 100  20 100  56 101
M  END
>  <TORSDO>  (65) 
F 22

>  <SCORE>  (65) 
-11.973

>  <name>  (65) 
66

>  <ligand_id>  (65) 
66

>  <original_smiles>  (65) 
[H]c1c([H])c([H])c2c(c1[H])C([H])([H])C([H])([H])C([H])([H])C2([H])N([H])C(=O)C1([H])N(C(=O)C([H])(N([H])C(=O)C([H])(N([H])C([H])([H])[H])C([H])([H])[H])C(C([H])([H])[H])(C([H])([H])[H])C([H])([H])[H])C([H])([H])c2c([H])c(OC3([H])C([H])([H])C(=O)C([H])([N+]([H])([H])C([H])(C([H])([H])[H])C([H])(N([H])C([H])([H])C([H])([H])[H])C([H])([H])C(=O)N4C([H])([H])C([H])([H])C([H])([H])C([H])(n5nc(-c6c([H])c([H])c(Oc7c([H])c([H])c(F)c([H])c7F)c([H])c6[H])c(C(=O)N([H])[H])c5N([H])[H])C4([H])[H])C([H])([H])C([H])([H])C3([H])[H])c([H])c([H])c2C1([H])[H]

>  <smiles>  (65) 
[H]c1c([H])c([H])c2c(c1[H])C([H])([H])C([H])([H])C([H])([H])C2([H])N([H])C(=O)C1([H])N(C(=O)C([H])(N([H])C(=O)C([H])(N([H])C([H])([H])[H])C([H])([H])[H])C(C([H])([H])[H])(C([H])([H])[H])C([H])([H])[H])C([H])([H])c2c([H])c(OC3([H])C([H])([H])C(=O)C([H])([N+]([H])([H])C([H])(C([H])([H])[H])C([H])(N([H])C([H])([H])C([H])([H])[H])C([H])([H])C(=O)N4C([H])([H])C([H])([H])C([H])([H])C([H])(n5nc(-c6c([H])c([H])c(Oc7c([H])c([H])c(F)c([H])c7F)c([H])c6[H])c(C(=O)N([H])[H])c5N([H])[H])C4([H])[H])C([H])([H])C([H])([H])C3([H])[H])c([H])c([H])c2C1([H])[H]

$$$$
67:0:0
     RDKit          3D

 98105  0  0  1  0  0  0  0  0999 V2000
  -29.8930  -23.4480   16.3020 C   0  0  0  0  0  0  0  0  0  0  0  0
  -30.8440  -23.0040   17.1390 N   0  0  0  0  0  0  0  0  0  0  0  0
  -29.4680  -22.7600   15.3740 O   0  0  0  0  0  0  0  0  0  0  0  0
  -31.2350  -23.6380   17.8220 H   0  0  0  0  0  0  0  0  0  0  0  0
  -29.2760  -24.8310   16.5510 C   0  0  0  0  0  2  0  0  0  0  0  0
  -29.2850  -25.3000   17.9640 N   0  0  0  0  0  4  0  0  0  0  0  0
  -28.8660  -26.2180   17.9720 H   0  0  0  0  0  0  0  0  0  0  0  0
  -30.2380  -25.4470   18.2590 H   0  0  0  0  0  0  0  0  0  0  0  0
  -27.2810  -23.7880   18.4760 C   0  0  0  0  0  1  0  0  0  0  0  0
  -28.5630  -24.4930   18.9930 C   0  0  0  0  0  3  0  0  0  0  0  0
  -28.3490  -25.3290   20.2830 C   0  0  0  0  0  2  0  0  0  0  0  0
  -28.3780  -26.7430   20.0560 O   0  0  0  0  0  0  0  0  0  0  0  0
  -24.6020  -31.8690   23.2250 C   0  0  0  0  0  0  0  0  0  0  0  0
  -27.1890  -27.4340   20.1090 C   0  0  0  0  0  0  0  0  0  0  0  0
  -23.3680  -30.4750   21.5960 C   0  0  0  0  0  3  0  0  0  0  0  0
  -24.7970  -28.9340   20.1610 C   0  0  0  0  0  0  0  0  0  0  0  0
  -25.8920  -30.8310   21.3610 C   0  0  0  0  0  2  0  0  0  0  0  0
  -25.9660  -29.4610   20.7240 C   0  0  0  0  0  0  0  0  0  0  0  0
  -27.1670  -28.7210   20.6880 C   0  0  0  0  0  3  0  0  0  0  0  0
  -25.9950  -26.9130   19.5650 C   0  0  0  0  0  3  0  0  0  0  0  0
  -24.8060  -27.6560   19.5800 C   0  0  0  0  0  3  0  0  0  0  0  0
  -23.5580  -29.7960   20.2140 C   0  0  0  0  0  2  0  0  0  0  0  0
  -24.6400  -31.0710   22.1200 N   0  0  0  0  0  0  0  0  0  0  0  0
  -23.5280  -32.1420   23.7780 O   0  0  0  0  0  0  0  0  0  0  0  0
  -22.7290  -29.4520   22.5620 C   0  0  0  0  0  0  0  0  0  0  0  0
  -21.4030  -29.2720   22.4480 N   0  0  0  0  0  0  0  0  0  0  0  0
  -23.4210  -28.8220   23.3670 O   0  0  0  0  0  0  0  0  0  0  0  0
  -20.9070  -29.8330   21.7690 H   0  0  0  0  0  0  0  0  0  0  0  0
  -18.0320  -28.0780   22.9650 C   0  0  0  0  0  0  0  0  0  0  0  0
  -20.5910  -28.3370   23.2260 C   0  0  0  0  0  3  0  0  0  0  0  0
  -20.6920  -26.9030   22.6550 C   0  0  0  0  0  2  0  0  0  0  0  0
  -19.5860  -26.5760   21.6480 C   0  0  0  0  0  2  0  0  0  0  0  0
  -18.2060  -26.7250   22.2960 C   0  0  0  0  0  2  0  0  0  0  0  0
  -19.1520  -28.8420   23.3880 C   0  0  0  0  0  0  0  0  0  0  0  0
  -18.9370  -30.1090   23.9720 C   0  0  0  0  0  3  0  0  0  0  0  0
  -17.6330  -30.6120   24.1380 C   0  0  0  0  0  3  0  0  0  0  0  0
  -16.5280  -29.8460   23.7320 C   0  0  0  0  0  3  0  0  0  0  0  0
  -16.7270  -28.5800   23.1510 C   0  0  0  0  0  3  0  0  0  0  0  0
  -25.8990  -32.4930   23.8280 C   0  0  0  0  0  3  0  0  0  0  0  0
  -26.4380  -31.7090   25.0850 C   0  0  1  0  0  0  0  0  0  0  0  0
  -25.3630  -31.4450   26.1640 C   0  0  0  0  0  1  0  0  0  0  0  0
  -27.0290  -30.3440   24.6620 C   0  0  0  0  0  1  0  0  0  0  0  0
  -27.5900  -32.5040   25.7440 C   0  0  0  0  0  1  0  0  0  0  0  0
  -25.5970  -33.8880   24.1750 N   0  0  0  0  0  0  0  0  0  0  0  0
  -25.9180  -34.9460   23.4180 C   0  0  0  0  0  0  0  0  0  0  0  0
  -26.5730  -34.8490   22.3770 O   0  0  0  0  0  0  0  0  0  0  0  0
  -25.0180  -34.0380   24.9890 H   0  0  0  0  0  0  0  0  0  0  0  0
  -24.1850  -36.7380   23.0990 C   0  0  0  0  0  1  0  0  0  0  0  0
  -25.4370  -36.3310   23.8910 C   0  0  0  0  0  3  0  0  0  0  0  0
  -27.5860  -37.2060   24.6950 C   0  0  0  0  0  1  0  0  0  0  0  0
  -26.4680  -37.3830   23.7710 N   0  0  0  0  0  0  0  0  0  0  0  0
  -26.0660  -38.3030   23.9340 H   0  0  0  0  0  0  0  0  0  0  0  0
  -31.3660  -21.6400   17.1790 C   0  0  0  0  0  2  0  0  0  0  0  0
  -31.0640  -21.0030   18.5520 C   0  0  0  0  0  2  0  0  0  0  0  0
  -32.8420  -19.2820   18.3400 C   0  0  0  0  0  1  0  0  0  0  0  0
  -31.4180  -19.5640   18.6540 N   0  0  1  0  0  4  0  0  0  0  0  0
  -30.8630  -19.0940   17.9530 H   0  0  0  0  0  0  0  0  0  0  0  0
  -31.0130  -18.9930   19.9680 C   0  0  0  0  0  2  0  0  0  0  0  0
  -30.5600  -17.5250   19.8520 C   0  0  0  0  0  2  0  0  0  0  0  0
  -30.4940  -16.8180   21.2250 C   0  0  0  0  0  2  0  0  0  0  0  0
  -30.7400  -14.4280   20.5630 C   0  0  0  0  0  0  0  0  0  0  0  0
  -30.4180  -12.3120   19.3600 C   0  0  0  0  0  2  0  0  0  0  0  0
  -29.4870  -12.5510   18.1540 C   0  0  0  0  0  2  0  0  0  0  0  0
  -28.0100  -12.4240   18.5730 C   0  0  0  0  0  2  0  0  0  0  0  0
  -27.6710  -13.2540   19.8400 C   0  0  0  0  0  3  0  0  0  0  0  0
  -28.7100  -12.9890   20.9540 C   0  0  0  0  0  2  0  0  0  0  0  0
  -30.0470  -13.2740   20.4050 N   0  0  0  0  0  0  0  0  0  0  0  0
  -31.8670  -14.6180   20.0990 O   0  0  0  0  0  0  0  0  0  0  0  0
  -30.0470  -15.4280   21.1210 N   0  0  0  0  0  0  0  0  0  0  0  0
  -29.1190  -15.2120   21.4510 H   0  0  0  0  0  0  0  0  0  0  0  0
  -25.2640  -13.8880   20.5010 C   0  0  0  0  0  0  0  0  0  0  0  0
  -24.1860  -13.1250   20.8620 C   0  0  0  0  0  0  0  0  0  0  0  0
  -24.6400  -11.7690   20.8520 C   0  0  0  0  0  0  0  0  0  0  0  0
  -26.3090  -12.9970   20.2990 N   0  0  0  0  0  0  0  0  0  0  0  0
  -25.9340  -11.7190   20.5660 N   0  0  0  0  0  0  0  0  0  0  0  0
  -23.9070  -10.5130   21.0450 C   0  0  0  0  0  0  0  0  0  0  0  0
  -24.3340   -9.5460   21.9830 C   0  0  0  0  0  3  0  0  0  0  0  0
  -23.6030   -8.3520   22.1620 C   0  0  0  0  0  3  0  0  0  0  0  0
  -22.4300   -8.1170   21.4050 C   0  0  0  0  0  0  0  0  0  0  0  0
  -22.0220   -9.0740   20.4570 C   0  0  0  0  0  3  0  0  0  0  0  0
  -22.7540  -10.2590   20.2750 C   0  0  0  0  0  3  0  0  0  0  0  0
  -21.6690   -6.9770   21.4930 O   0  0  0  0  0  0  0  0  0  0  0  0
  -21.6260   -6.2270   22.6430 C   0  0  0  0  0  0  0  0  0  0  0  0
  -21.2320   -6.7830   23.8790 C   0  0  0  0  0  3  0  0  0  0  0  0
  -21.1350   -5.9620   25.0200 C   0  0  0  0  0  3  0  0  0  0  0  0
  -21.4220   -4.5850   24.9260 C   0  0  0  0  0  0  0  0  0  0  0  0
  -21.8110   -4.0320   23.6940 C   0  0  0  0  0  3  0  0  0  0  0  0
  -21.9090   -4.8500   22.5550 C   0  0  0  0  0  0  0  0  0  0  0  0
  -22.2630   -4.3060   21.3660 F   0  0  0  0  0  0  0  0  0  0  0  0
  -21.3210   -3.7960   26.0200 F   0  0  0  0  0  0  0  0  0  0  0  0
  -22.7870  -13.6090   21.1060 C   0  0  0  0  0  0  0  0  0  0  0  0
  -22.0430  -12.9260   21.9710 N   0  0  0  0  0  0  0  0  0  0  0  0
  -22.3600  -14.6270   20.5660 O   0  0  0  0  0  0  0  0  0  0  0  0
  -22.4010  -12.1010   22.4300 H   0  0  0  0  0  0  0  0  0  0  0  0
  -21.1030  -13.2330   22.1750 H   0  0  0  0  0  0  0  0  0  0  0  0
  -25.4400  -15.2570   20.3100 N   0  0  0  0  0  0  0  0  0  0  0  0
  -24.6770  -15.9180   20.3950 H   0  0  0  0  0  0  0  0  0  0  0  0
  -26.2960  -15.6840   19.9810 H   0  0  0  0  0  0  0  0  0  0  0  0
  1  5  1  0
  1  2  1  0
  2 53  1  0
  2  4  1  0
  3  1  2  0
  5  6  1  0
  6  7  1  0
  6  8  1  0
  6 10  1  0
 10  9  1  0
 10 11  1  0
 12 14  1  0
 12 11  1  0
 13 24  2  0
 14 19  1  0
 15 23  1  0
 15 25  1  0
 16 22  1  0
 16 18  1  0
 17 23  1  0
 18 17  1  0
 19 18  2  0
 20 21  1  0
 20 14  2  0
 21 16  2  0
 22 15  1  0
 23 13  1  0
 25 27  2  0
 26 25  1  0
 28 26  1  0
 29 38  2  0
 29 34  1  0
 30 26  1  0
 30 34  1  0
 31 30  1  0
 32 33  1  0
 32 31  1  0
 33 29  1  0
 34 35  2  0
 35 36  1  0
 37 36  2  0
 38 37  1  0
 39 13  1  0
 39 44  1  0
 39 40  1  0
 40 43  1  1
 40 41  1  0
 42 40  1  0
 44 47  1  0
 45 49  1  0
 45 44  1  0
 46 45  2  0
 49 48  1  0
 51 49  1  0
 51 52  1  0
 51 50  1  0
 53 54  1  0
 54 56  1  0
 55 56  1  0
 56 58  1  0
 56 57  1  6
 59 58  1  0
 59 60  1  0
 61 69  1  0
 62 67  1  0
 63 64  1  0
 63 62  1  0
 65 64  1  0
 65 74  1  0
 65 66  1  0
 67 61  1  0
 67 66  1  0
 68 61  2  0
 69 60  1  0
 69 70  1  0
 71 72  2  0
 72 91  1  0
 73 72  1  0
 73 76  1  0
 74 71  1  0
 74 75  1  0
 75 73  2  0
 76 77  1  0
 77 78  2  0
 79 82  1  0
 79 78  1  0
 80 79  2  0
 81 80  1  0
 81 76  2  0
 82 83  1  0
 83 84  1  0
 84 85  2  0
 86 85  1  0
 86 90  1  0
 87 86  2  0
 88 83  2  0
 88 87  1  0
 89 88  1  0
 91 92  1  0
 92 95  1  0
 92 94  1  0
 93 91  2  0
 96 97  1  0
 96 71  1  0
 98 96  1  0
M  ISO  4  11 101  12 101  61 100  69 100
M  END
>  <TORSDO>  (66) 
F 26

>  <SCORE>  (66) 
-11.885

>  <name>  (66) 
67

>  <ligand_id>  (66) 
67

>  <original_smiles>  (66) 
[H]c1c([H])c([H])c2c(c1[H])C([H])([H])C([H])([H])C([H])([H])C2([H])N([H])C(=O)C1([H])N(C(=O)C([H])(N([H])C(=O)C([H])(N([H])C([H])([H])[H])C([H])([H])[H])C(C([H])([H])[H])(C([H])([H])[H])C([H])([H])[H])C([H])([H])c2c([H])c(OC([H])([H])C([H])(C([H])([H])[H])[N+]([H])([H])C([H])([H])C(=O)N([H])C([H])([H])C([H])([H])[N+]([H])(C([H])([H])[H])C([H])([H])C([H])([H])C([H])([H])N([H])C(=O)N3C([H])([H])C([H])([H])C([H])([H])C([H])(n4nc(-c5c([H])c([H])c(Oc6c([H])c([H])c(F)c([H])c6F)c([H])c5[H])c(C(=O)N([H])[H])c4N([H])[H])C3([H])[H])c([H])c([H])c2C1([H])[H]

>  <smiles>  (66) 
[H]c1c([H])c([H])c2c(c1[H])C([H])([H])C([H])([H])C([H])([H])C2([H])N([H])C(=O)C1([H])N(C(=O)C([H])(N([H])C(=O)C([H])(N([H])C([H])([H])[H])C([H])([H])[H])C(C([H])([H])[H])(C([H])([H])[H])C([H])([H])[H])C([H])([H])c2c([H])c(OC([H])([H])C([H])(C([H])([H])[H])[N+]([H])([H])C([H])([H])C(=O)N([H])C([H])([H])C([H])([H])[N+]([H])(C([H])([H])[H])C([H])([H])C([H])([H])C([H])([H])N([H])C(=O)N3C([H])([H])C([H])([H])C([H])([H])C([H])(n4nc(-c5c([H])c([H])c(Oc6c([H])c([H])c(F)c([H])c6F)c([H])c5[H])c(C(=O)N([H])[H])c4N([H])[H])C3([H])[H])c([H])c([H])c2C1([H])[H]

$$$$
68:0:0
     RDKit          3D

 94102  0  0  1  0  0  0  0  0999 V2000
  -30.0460  -20.8820   21.6820 N   0  0  0  0  0  4  0  0  0  0  0  0
  -29.5970  -20.6870   20.8020 H   0  0  0  0  0  0  0  0  0  0  0  0
  -29.3790  -20.6640   22.4080 H   0  0  0  0  0  0  0  0  0  0  0  0
  -31.8050  -19.9140   23.1870 C   0  0  0  0  0  1  0  0  0  0  0  0
  -31.2160  -19.9690   21.7630 C   0  0  0  0  0  3  0  0  0  0  0  0
  -30.7290  -14.5500   20.1030 C   0  0  0  0  0  0  0  0  0  0  0  0
  -30.3580  -12.4210   18.9310 C   0  0  0  0  0  2  0  0  0  0  0  0
  -29.3630  -12.6670   17.7790 C   0  0  0  0  0  2  0  0  0  0  0  0
  -27.9060  -12.5450   18.2740 C   0  0  0  0  0  2  0  0  0  0  0  0
  -27.6380  -13.3460   19.5760 C   0  0  0  0  0  3  0  0  0  0  0  0
  -28.7440  -13.0850   20.6210 C   0  0  0  0  0  2  0  0  0  0  0  0
  -30.0400  -13.3840   19.9940 N   0  0  0  0  0  0  0  0  0  0  0  0
  -31.8710  -14.6990   19.6590 O   0  0  0  0  0  0  0  0  0  0  0  0
  -30.5230  -17.4880   18.7870 C   0  0  0  0  0  2  0  0  0  0  0  0
  -30.5480  -18.7600   19.6360 C   0  0  0  0  0  2  0  0  0  0  0  0
  -29.4860  -16.4630   19.2690 C   0  0  0  0  0  2  0  0  0  0  0  0
  -29.9290  -16.1830   21.7500 C   0  0  0  0  0  2  0  0  0  0  0  0
  -30.9070  -18.5710   21.1320 C   0  0  0  0  0  3  0  0  0  0  0  0
  -29.8530  -17.7260   21.9070 C   0  0  0  0  0  3  0  0  0  0  0  0
  -29.9650  -15.6310   20.3830 N   0  0  0  0  0  0  0  0  0  0  0  0
  -28.6200  -18.1680   21.6510 F   0  0  0  0  0  0  0  0  0  0  0  0
  -25.2770  -13.9610   20.3920 C   0  0  0  0  0  0  0  0  0  0  0  0
  -24.2230  -13.1900   20.7980 C   0  0  0  0  0  0  0  0  0  0  0  0
  -24.6770  -11.8360   20.7380 C   0  0  0  0  0  0  0  0  0  0  0  0
  -26.3080  -13.0760   20.1110 N   0  0  0  0  0  0  0  0  0  0  0  0
  -25.9520  -11.7940   20.3750 N   0  0  0  0  0  0  0  0  0  0  0  0
  -23.9570  -10.5760   20.9470 C   0  0  0  0  0  0  0  0  0  0  0  0
  -24.4210   -9.6040   21.8600 C   0  0  0  0  0  3  0  0  0  0  0  0
  -23.7000   -8.4060   22.0570 C   0  0  0  0  0  3  0  0  0  0  0  0
  -22.5030   -8.1730   21.3400 C   0  0  0  0  0  0  0  0  0  0  0  0
  -22.0580   -9.1350   20.4140 C   0  0  0  0  0  3  0  0  0  0  0  0
  -22.7780  -10.3230   20.2160 C   0  0  0  0  0  3  0  0  0  0  0  0
  -21.7490   -7.0290   21.4480 O   0  0  0  0  0  0  0  0  0  0  0  0
  -21.7200   -6.2940   22.6060 C   0  0  0  0  0  0  0  0  0  0  0  0
  -21.3270   -6.8580   23.8390 C   0  0  0  0  0  3  0  0  0  0  0  0
  -21.2470   -6.0490   24.9900 C   0  0  0  0  0  3  0  0  0  0  0  0
  -21.5480   -4.6760   24.9070 C   0  0  0  0  0  0  0  0  0  0  0  0
  -21.9350   -4.1110   23.6790 C   0  0  0  0  0  3  0  0  0  0  0  0
  -22.0180   -4.9190   22.5320 C   0  0  0  0  0  0  0  0  0  0  0  0
  -22.3700   -4.3640   21.3450 F   0  0  0  0  0  0  0  0  0  0  0  0
  -21.4630   -3.8950   26.0110 F   0  0  0  0  0  0  0  0  0  0  0  0
  -22.8390  -13.6690   21.1330 C   0  0  0  0  0  0  0  0  0  0  0  0
  -22.1480  -12.9760   22.0310 N   0  0  0  0  0  0  0  0  0  0  0  0
  -22.3820  -14.6970   20.6350 O   0  0  0  0  0  0  0  0  0  0  0  0
  -22.5290  -12.1420   22.4540 H   0  0  0  0  0  0  0  0  0  0  0  0
  -21.2240  -13.2830   22.2990 H   0  0  0  0  0  0  0  0  0  0  0  0
  -25.4410  -15.3330   20.2200 N   0  0  0  0  0  0  0  0  0  0  0  0
  -24.6860  -15.9920   20.3740 H   0  0  0  0  0  0  0  0  0  0  0  0
  -26.3000  -15.7720   19.9150 H   0  0  0  0  0  0  0  0  0  0  0  0
  -30.3510  -22.3350   21.6880 C   0  0  0  0  0  2  0  0  0  0  0  0
  -29.1760  -23.1470   21.1090 C   0  0  0  0  0  2  0  0  0  0  0  0
  -29.4230  -24.6670   20.9950 C   0  0  0  0  0  2  0  0  0  0  0  0
  -28.2510  -25.3550   20.2780 C   0  0  0  0  0  2  0  0  0  0  0  0
  -28.3950  -26.7760   20.2440 O   0  0  0  0  0  0  0  0  0  0  0  0
  -24.5400  -31.9160   23.2360 C   0  0  0  0  0  0  0  0  0  0  0  0
  -27.2200  -27.4970   20.1820 C   0  0  0  0  0  0  0  0  0  0  0  0
  -23.3480  -30.5090   21.5880 C   0  0  0  0  0  3  0  0  0  0  0  0
  -24.8150  -28.9820   20.1700 C   0  0  0  0  0  0  0  0  0  0  0  0
  -25.8710  -30.8850   21.4020 C   0  0  0  0  0  2  0  0  0  0  0  0
  -25.9660  -29.5160   20.7610 C   0  0  0  0  0  0  0  0  0  0  0  0
  -27.1730  -28.7830   20.7620 C   0  0  0  0  0  3  0  0  0  0  0  0
  -26.0530  -26.9800   19.5700 C   0  0  0  0  0  3  0  0  0  0  0  0
  -24.8530  -27.7130   19.5680 C   0  0  0  0  0  3  0  0  0  0  0  0
  -23.5650  -29.8280   20.2090 C   0  0  0  0  0  2  0  0  0  0  0  0
  -24.6040  -31.1180   22.1330 N   0  0  0  0  0  0  0  0  0  0  0  0
  -23.4550  -32.1840   23.7710 O   0  0  0  0  0  0  0  0  0  0  0  0
  -22.6960  -29.4850   22.5450 C   0  0  0  0  0  0  0  0  0  0  0  0
  -21.3750  -29.2890   22.4020 N   0  0  0  0  0  0  0  0  0  0  0  0
  -23.3760  -28.8700   23.3710 O   0  0  0  0  0  0  0  0  0  0  0  0
  -20.8900  -29.8360   21.7060 H   0  0  0  0  0  0  0  0  0  0  0  0
  -18.0080  -28.0570   22.8440 C   0  0  0  0  0  0  0  0  0  0  0  0
  -20.5560  -28.3490   23.1660 C   0  0  0  0  0  3  0  0  0  0  0  0
  -20.6880  -26.9140   22.6060 C   0  0  0  0  0  2  0  0  0  0  0  0
  -19.6110  -26.5660   21.5730 C   0  0  0  0  0  2  0  0  0  0  0  0
  -18.2150  -26.7030   22.1850 C   0  0  0  0  0  2  0  0  0  0  0  0
  -19.1070  -28.8370   23.2880 C   0  0  0  0  0  0  0  0  0  0  0  0
  -18.8620  -30.1040   23.8590 C   0  0  0  0  0  3  0  0  0  0  0  0
  -17.5490  -30.5920   23.9920 C   0  0  0  0  0  3  0  0  0  0  0  0
  -16.4620  -29.8100   23.5680 C   0  0  0  0  0  3  0  0  0  0  0  0
  -16.6920  -28.5440   22.9980 C   0  0  0  0  0  3  0  0  0  0  0  0
  -25.8220  -32.5500   23.8620 C   0  0  0  0  0  3  0  0  0  0  0  0
  -25.5070  -33.9450   24.1980 N   0  0  0  0  0  0  0  0  0  0  0  0
  -25.8360  -35.0010   23.4410 C   0  0  0  0  0  0  0  0  0  0  0  0
  -26.5080  -34.9050   22.4100 O   0  0  0  0  0  0  0  0  0  0  0  0
  -24.9150  -34.0950   25.0010 H   0  0  0  0  0  0  0  0  0  0  0  0
  -24.0940  -36.7790   23.0860 C   0  0  0  0  0  1  0  0  0  0  0  0
  -25.3370  -36.3850   23.9000 C   0  0  0  0  0  3  0  0  0  0  0  0
  -27.4680  -37.2770   24.7310 C   0  0  0  0  0  1  0  0  0  0  0  0
  -26.3610  -37.4470   23.7950 N   0  0  0  0  0  0  0  0  0  0  0  0
  -25.9470  -38.3620   23.9550 H   0  0  0  0  0  0  0  0  0  0  0  0
  -26.3430  -31.7740   25.1340 C   0  0  1  0  0  0  0  0  0  0  0  0
  -25.2520  -31.5210   26.2010 C   0  0  0  0  0  1  0  0  0  0  0  0
  -26.9350  -30.4030   24.7310 C   0  0  0  0  0  1  0  0  0  0  0  0
  -27.4880  -32.5720   25.8020 C   0  0  0  0  0  1  0  0  0  0  0  0
  1 50  1  0
  1  5  1  0
  1  3  1  0
  2  1  1  0
  5  4  1  0
  6 20  1  0
  7 12  1  0
  8  9  1  0
  8  7  1  0
 10  9  1  0
 10 25  1  0
 10 11  1  0
 12  6  1  0
 12 11  1  0
 13  6  2  0
 14 16  1  0
 14 15  1  0
 15 18  1  0
 16 20  1  0
 17 19  1  0
 18  5  1  0
 18 19  1  0
 19 21  1  0
 20 17  1  0
 22 23  2  0
 23 42  1  0
 24 23  1  0
 24 27  1  0
 25 26  1  0
 25 22  1  0
 26 24  2  0
 27 28  1  0
 28 29  2  0
 30 33  1  0
 30 29  1  0
 31 30  2  0
 32 31  1  0
 32 27  2  0
 33 34  1  0
 34 35  1  0
 35 36  2  0
 37 36  1  0
 37 41  1  0
 38 37  2  0
 39 34  2  0
 39 38  1  0
 40 39  1  0
 42 43  1  0
 43 46  1  0
 43 45  1  0
 44 42  2  0
 47 48  1  0
 47 22  1  0
 49 47  1  0
 51 50  1  0
 52 51  1  0
 53 52  1  0
 54 53  1  0
 55 66  2  0
 56 54  1  0
 56 61  1  0
 57 65  1  0
 57 67  1  0
 58 64  1  0
 58 60  1  0
 59 65  1  0
 60 61  2  0
 60 59  1  0
 62 56  2  0
 63 62  1  0
 63 58  2  0
 64 57  1  0
 65 55  1  0
 67 69  2  0
 68 67  1  0
 70 68  1  0
 71 80  2  0
 71 76  1  0
 72 68  1  0
 72 76  1  0
 73 72  1  0
 74 75  1  0
 74 73  1  0
 75 71  1  0
 76 77  2  0
 77 78  1  0
 79 78  2  0
 80 79  1  0
 81 55  1  0
 81 82  1  0
 81 91  1  0
 82 85  1  0
 83 87  1  0
 83 82  1  0
 84 83  2  0
 87 86  1  0
 89 87  1  0
 89 90  1  0
 89 88  1  0
 91 94  1  1
 91 92  1  0
 93 91  1  0
M  ISO  4   6 100  20 100  53 101  54 101
M  END
>  <TORSDO>  (67) 
F 21

>  <SCORE>  (67) 
-12.997

>  <name>  (67) 
68

>  <ligand_id>  (67) 
68

>  <original_smiles>  (67) 
[H]c1c([H])c([H])c2c(c1[H])C([H])([H])C([H])([H])C([H])([H])C2([H])N([H])C(=O)C1([H])N(C(=O)C([H])(N([H])C(=O)C([H])(N([H])C([H])([H])[H])C([H])([H])[H])C(C([H])([H])[H])(C([H])([H])[H])C([H])([H])[H])C([H])([H])c2c([H])c(OC([H])([H])C([H])([H])C([H])([H])C([H])([H])[N+]([H])([H])C([H])(C([H])([H])[H])C3([H])C([H])([H])C([H])([H])C([H])([H])N(C(=O)N4C([H])([H])C([H])([H])C([H])([H])C([H])(n5nc(-c6c([H])c([H])c(Oc7c([H])c([H])c(F)c([H])c7F)c([H])c6[H])c(C(=O)N([H])[H])c5N([H])[H])C4([H])[H])C([H])([H])C3([H])F)c([H])c([H])c2C1([H])[H]

>  <smiles>  (67) 
[H]c1c([H])c([H])c2c(c1[H])C([H])([H])C([H])([H])C([H])([H])C2([H])N([H])C(=O)C1([H])N(C(=O)C([H])(N([H])C(=O)C([H])(N([H])C([H])([H])[H])C([H])([H])[H])C(C([H])([H])[H])(C([H])([H])[H])C([H])([H])[H])C([H])([H])c2c([H])c(OC([H])([H])C([H])([H])C([H])([H])C([H])([H])[N+]([H])([H])C([H])(C([H])([H])[H])C3([H])C([H])([H])C([H])([H])C([H])([H])N(C(=O)N4C([H])([H])C([H])([H])C([H])([H])C([H])(n5nc(-c6c([H])c([H])c(Oc7c([H])c([H])c(F)c([H])c7F)c([H])c6[H])c(C(=O)N([H])[H])c5N([H])[H])C4([H])[H])C([H])([H])C3([H])F)c([H])c([H])c2C1([H])[H]

$$$$
69:0:0
     RDKit          3D

 85 89  0  0  1  0  0  0  0  0999 V2000
  -29.7990  -21.5340   18.3990 C   0  0  0  0  0  2  0  0  0  0  0  0
  -30.2740  -20.2000   19.1760 C   0  0  0  0  0  2  0  0  0  0  0  0
  -29.5550  -22.9710   19.1040 C   0  0  0  0  0  2  0  0  0  0  0  0
  -28.4860  -21.2990   20.6780 C   0  0  0  0  0 15  0  0  0  0  0  0
  -29.1710  -19.4930   20.0290 C   0  0  0  0  0  1  0  0  0  0  0  0
  -28.2630  -23.2080   19.9830 C   0  0  0  0  0  1  0  0  0  0  0  0
  -30.0990  -16.1120   20.2760 C   0  0  0  0  0  0  0  0  0  0  0  0
  -30.3510  -13.4440   19.5580 C   0  0  0  0  0  2  0  0  0  0  0  0
  -29.5330  -12.8200   18.3760 C   0  0  0  0  0  2  0  0  0  0  0  0
  -28.1410  -12.3670   18.8330 C   0  0  0  0  0  2  0  0  0  0  0  0
  -27.5480  -13.4010   19.8100 C   0  0  0  0  0  3  0  0  0  0  0  0
  -28.5280  -13.9100   20.9090 C   0  0  0  0  0  2  0  0  0  0  0  0
  -29.6380  -14.6630   20.2390 N   0  0  0  0  0  0  0  0  0  0  0  0
  -31.3350  -15.9870   20.0920 O   0  0  0  0  0  0  0  0  0  0  0  0
  -29.3330  -17.5860   20.3460 N   0  0  0  0  0  2  0  0  0  0  0  0
  -28.3940  -17.3040   20.5940 H   0  0  0  0  0  0  0  0  0  0  0  0
  -25.1780  -13.8770   20.5510 C   0  0  0  0  0  0  0  0  0  0  0  0
  -24.1270  -13.0840   20.9080 C   0  0  0  0  0  0  0  0  0  0  0  0
  -24.6160  -11.7410   20.8890 C   0  0  0  0  0  0  0  0  0  0  0  0
  -26.2390  -13.0230   20.3260 N   0  0  0  0  0  0  0  0  0  0  0  0
  -25.9140  -11.7280   20.5920 N   0  0  0  0  0  0  0  0  0  0  0  0
  -23.8970  -10.4710   21.0760 C   0  0  0  0  0  0  0  0  0  0  0  0
  -24.3300   -9.5030   22.0080 C   0  0  0  0  0  3  0  0  0  0  0  0
  -23.6040   -8.3060   22.1890 C   0  0  0  0  0  3  0  0  0  0  0  0
  -22.4290   -8.0660   21.4370 C   0  0  0  0  0  0  0  0  0  0  0  0
  -22.0130   -9.0230   20.4940 C   0  0  0  0  0  3  0  0  0  0  0  0
  -22.7400  -10.2120   20.3120 C   0  0  0  0  0  3  0  0  0  0  0  0
  -21.6760   -6.9200   21.5260 O   0  0  0  0  0  0  0  0  0  0  0  0
  -21.6430   -6.1660   22.6720 C   0  0  0  0  0  0  0  0  0  0  0  0
  -21.2400   -6.7100   23.9110 C   0  0  0  0  0  3  0  0  0  0  0  0
  -21.1550   -5.8830   25.0490 C   0  0  0  0  0  3  0  0  0  0  0  0
  -21.4640   -4.5130   24.9490 C   0  0  0  0  0  0  0  0  0  0  0  0
  -21.8610   -3.9690   23.7150 C   0  0  0  0  0  3  0  0  0  0  0  0
  -21.9470   -4.7920   22.5800 C   0  0  0  0  0  0  0  0  0  0  0  0
  -22.3080   -4.2580   21.3890 F   0  0  0  0  0  0  0  0  0  0  0  0
  -21.3750   -3.7170   26.0400 F   0  0  0  0  0  0  0  0  0  0  0  0
  -22.7210  -13.5470   21.1480 C   0  0  0  0  0  0  0  0  0  0  0  0
  -21.9880  -12.8570   22.0130 N   0  0  0  0  0  0  0  0  0  0  0  0
  -22.2820  -14.5610   20.6050 O   0  0  0  0  0  0  0  0  0  0  0  0
  -22.3580  -12.0390   22.4750 H   0  0  0  0  0  0  0  0  0  0  0  0
  -21.0440  -13.1510   22.2190 H   0  0  0  0  0  0  0  0  0  0  0  0
  -25.3200  -15.2490   20.3630 N   0  0  0  0  0  0  0  0  0  0  0  0
  -24.5380  -15.8890   20.4520 H   0  0  0  0  0  0  0  0  0  0  0  0
  -26.1580  -15.6930   20.0130 H   0  0  0  0  0  0  0  0  0  0  0  0
  -28.1060  -25.0930   20.3280 O   0  0  0  0  0  1  0  0  0  0  0  0
  -24.6080  -31.7740   23.1070 C   0  0  0  0  0  0  0  0  0  0  0  0
  -27.1650  -26.4330   20.2020 C   0  0  0  0  0  0  0  0  0  0  0  0
  -23.4460  -30.3480   21.4790 C   0  0  0  0  0  3  0  0  0  0  0  0
  -24.9130  -28.6390   20.1020 C   0  0  0  0  0  0  0  0  0  0  0  0
  -26.0360  -30.4170   21.4070 C   0  0  0  0  0  2  0  0  0  0  0  0
  -26.1070  -28.9490   20.7630 C   0  0  0  0  0  0  0  0  0  0  0  0
  -27.1960  -27.8820   20.7770 C   0  0  0  0  0  3  0  0  0  0  0  0
  -25.9370  -26.4110   19.4680 C   0  0  0  0  0  3  0  0  0  0  0  0
  -24.8850  -27.4000   19.4300 C   0  0  0  0  0  3  0  0  0  0  0  0
  -23.7120  -29.6170   20.1260 C   0  0  0  0  0  2  0  0  0  0  0  0
  -24.7230  -30.8880   22.0490 N   0  0  0  0  0  0  0  0  0  0  0  0
  -23.5040  -32.0850   23.5930 O   0  0  0  0  0  0  0  0  0  0  0  0
  -22.7030  -29.4020   22.4630 C   0  0  0  0  0  0  0  0  0  0  0  0
  -21.3640  -29.2740   22.3500 N   0  0  0  0  0  0  0  0  0  0  0  0
  -23.3470  -28.7760   23.3080 O   0  0  0  0  0  0  0  0  0  0  0  0
  -20.8900  -29.8290   21.6490 H   0  0  0  0  0  0  0  0  0  0  0  0
  -17.9620  -28.1050   22.9090 C   0  0  0  0  0  0  0  0  0  0  0  0
  -20.5310  -28.3480   23.1290 C   0  0  0  0  0  3  0  0  0  0  0  0
  -20.6050  -26.9160   22.5510 C   0  0  0  0  0  2  0  0  0  0  0  0
  -19.4860  -26.6110   21.5500 C   0  0  0  0  0  2  0  0  0  0  0  0
  -18.1150  -26.7620   22.2140 C   0  0  0  0  0  2  0  0  0  0  0  0
  -19.0940  -28.8570   23.3230 C   0  0  0  0  0  0  0  0  0  0  0  0
  -18.8910  -30.1100   23.9410 C   0  0  0  0  0  3  0  0  0  0  0  0
  -17.5920  -30.6130   24.1430 C   0  0  0  0  0  3  0  0  0  0  0  0
  -16.4760  -29.8600   23.7390 C   0  0  0  0  0  3  0  0  0  0  0  0
  -16.6620  -28.6070   23.1280 C   0  0  0  0  0  3  0  0  0  0  0  0
  -25.8510  -32.4520   23.7610 C   0  0  0  0  0  3  0  0  0  0  0  0
  -25.4990  -33.8460   24.1090 N   0  0  0  0  0  0  0  0  0  0  0  0
  -25.8190  -34.9330   23.3930 C   0  0  0  0  0  0  0  0  0  0  0  0
  -26.4890  -34.8690   22.3610 O   0  0  0  0  0  0  0  0  0  0  0  0
  -24.8980  -33.9670   24.9110 H   0  0  0  0  0  0  0  0  0  0  0  0
  -24.0620  -36.7250   23.1140 C   0  0  0  0  0  1  0  0  0  0  0  0
  -25.3210  -36.3080   23.8950 C   0  0  0  0  0  3  0  0  0  0  0  0
  -27.4540  -37.2100   24.7170 C   0  0  0  0  0  1  0  0  0  0  0  0
  -26.3360  -37.3810   23.7940 N   0  0  0  0  0  0  0  0  0  0  0  0
  -25.9170  -38.2900   23.9700 H   0  0  0  0  0  0  0  0  0  0  0  0
  -26.3520  -31.7000   25.0570 C   0  0  1  0  0  0  0  0  0  0  0  0
  -25.2440  -31.4620   26.1120 C   0  0  0  0  0  1  0  0  0  0  0  0
  -26.9560  -30.3220   24.7070 C   0  0  0  0  0  1  0  0  0  0  0  0
  -27.4850  -32.5120   25.7290 C   0  0  0  0  0  1  0  0  0  0  0  0
  1  3  1  0
  1  2  1  0
  2  5  1  0
  3  6  1  0
  7 15  1  0
  8 13  1  0
  9 10  1  0
  9  8  1  0
 11 10  1  0
 11 20  1  0
 11 12  1  0
 13  7  1  0
 13 12  1  0
 14  7  2  0
 15 16  1  0
 17 18  2  0
 18 37  1  0
 19 18  1  0
 19 22  1  0
 20 17  1  0
 20 21  1  0
 21 19  2  0
 22 23  1  0
 23 24  2  0
 25 28  1  0
 25 24  1  0
 26 25  2  0
 27 26  1  0
 27 22  2  0
 28 29  1  0
 29 30  1  0
 30 31  2  0
 32 31  1  0
 32 36  1  0
 33 32  2  0
 34 29  2  0
 34 33  1  0
 35 34  1  0
 37 38  1  0
 38 41  1  0
 38 40  1  0
 39 37  2  0
 42 43  1  0
 42 17  1  0
 44 42  1  0
 46 57  2  0
 47 45  1  0
 47 52  1  0
 48 56  1  0
 48 58  1  0
 49 55  1  0
 49 51  1  0
 50 56  1  0
 51 52  2  0
 51 50  1  0
 53 47  2  0
 54 53  1  0
 54 49  2  0
 55 48  1  0
 56 46  1  0
 58 60  2  0
 59 58  1  0
 61 59  1  0
 62 71  2  0
 62 67  1  0
 63 59  1  0
 63 67  1  0
 64 63  1  0
 65 66  1  0
 65 64  1  0
 66 62  1  0
 67 68  2  0
 68 69  1  0
 70 69  2  0
 71 70  1  0
 72 46  1  0
 72 73  1  0
 72 82  1  0
 73 76  1  0
 74 78  1  0
 74 73  1  0
 75 74  2  0
 78 77  1  0
 80 78  1  0
 80 81  1  0
 80 79  1  0
 82 85  1  1
 82 83  1  0
 84 82  1  0
M  ISO  4   6 101   7 100  15 100  45 101
M  END
>  <TORSDO>  (68) 
F 16

>  <SCORE>  (68) 
-16.246

>  <name>  (68) 
69

>  <ligand_id>  (68) 
69

>  <original_smiles>  (68) 
[H]c1c([H])c([H])c2c(c1[H])C([H])([H])C([H])([H])C([H])([H])C2([H])N([H])C(=O)C1([H])N(C(=O)C([H])(N([H])C(=O)C([H])(N([H])C([H])([H])[H])C([H])([H])[H])C(C([H])([H])[H])(C([H])([H])[H])C([H])([H])[H])C([H])([H])c2c([H])c(OC3([H])C([H])([H])C([H])([H])C([H])([H])C([H])(N([H])C(=O)N4C([H])([H])C([H])([H])C([H])([H])C([H])(n5nc(-c6c([H])c([H])c(Oc7c([H])c([H])c(F)c([H])c7F)c([H])c6[H])c(C(=O)N([H])[H])c5N([H])[H])C4([H])[H])C3([H])[H])c([H])c([H])c2C1([H])[H]

>  <smiles>  (68) 
[H]c1c([H])c([H])c2c(c1[H])C([H])([H])C([H])([H])C([H])([H])C2([H])N([H])C(=O)C1([H])N(C(=O)C([H])(N([H])C(=O)C([H])(N([H])C([H])([H])[H])C([H])([H])[H])C(C([H])([H])[H])(C([H])([H])[H])C([H])([H])[H])C([H])([H])c2c([H])c(OC3([H])C([H])([H])C([H])([H])C([H])([H])C([H])(N([H])C(=O)N4C([H])([H])C([H])([H])C([H])([H])C([H])(n5nc(-c6c([H])c([H])c(Oc7c([H])c([H])c(F)c([H])c7F)c([H])c6[H])c(C(=O)N([H])[H])c5N([H])[H])C4([H])[H])C3([H])[H])c([H])c([H])c2C1([H])[H]

$$$$
70:0:0
     RDKit          3D

 88 95  0  0  1  0  0  0  0  0999 V2000
  -28.8690  -21.1970   19.8380 C   0  0  0  0  0  2  0  0  0  0  0  0
  -29.4520  -19.7910   20.4770 N   0  0  0  0  0  4  0  0  0  0  0  0
  -28.8430  -19.5970   21.2550 H   0  0  0  0  0  0  0  0  0  0  0  0
  -30.3370  -20.0380   20.8910 H   0  0  0  0  0  0  0  0  0  0  0  0
  -28.6750  -18.1340   18.6380 C   0  0  0  0  0  1  0  0  0  0  0  0
  -29.7230  -18.3300   19.7470 C   0  0  0  0  0  3  0  0  0  0  0  0
  -31.0740  -17.1080   21.5900 C   0  0  0  0  0  1  0  0  0  0  0  0
  -28.6890  -16.5390   21.3730 C   0  0  0  0  0  1  0  0  0  0  0  0
  -29.9740  -16.7650   20.5590 C   0  0  1  0  0  0  0  0  0  0  0  0
  -30.5210  -15.2100   19.9380 C   0  0  0  0  0  0  0  0  0  0  0  0
  -30.3730  -12.8170   18.9460 C   0  0  0  0  0  2  0  0  0  0  0  0
  -29.3650  -12.7200   17.7720 C   0  0  0  0  0  2  0  0  0  0  0  0
  -27.9370  -12.4670   18.2860 C   0  0  0  0  0  2  0  0  0  0  0  0
  -27.5970  -13.3700   19.4960 C   0  0  0  0  0  3  0  0  0  0  0  0
  -28.7240  -13.3740   20.5510 C   0  0  0  0  0  2  0  0  0  0  0  0
  -29.9330  -13.9090   19.8950 N   0  0  0  0  0  0  0  0  0  0  0  0
  -31.6650  -15.1930   19.4600 O   0  0  0  0  0  0  0  0  0  0  0  0
  -25.2720  -13.9400   20.3880 C   0  0  0  0  0  0  0  0  0  0  0  0
  -24.2310  -13.1670   20.8170 C   0  0  0  0  0  0  0  0  0  0  0  0
  -24.6840  -11.8150   20.7340 C   0  0  0  0  0  0  0  0  0  0  0  0
  -26.2950  -13.0620   20.0720 N   0  0  0  0  0  0  0  0  0  0  0  0
  -25.9540  -11.7750   20.3450 N   0  0  0  0  0  0  0  0  0  0  0  0
  -23.9570  -10.5550   20.9460 C   0  0  0  0  0  0  0  0  0  0  0  0
  -24.4220   -9.5750   21.8510 C   0  0  0  0  0  3  0  0  0  0  0  0
  -23.6920   -8.3840   22.0530 C   0  0  0  0  0  3  0  0  0  0  0  0
  -22.4830   -8.1640   21.3510 C   0  0  0  0  0  0  0  0  0  0  0  0
  -22.0360   -9.1330   20.4350 C   0  0  0  0  0  3  0  0  0  0  0  0
  -22.7660  -10.3160   20.2320 C   0  0  0  0  0  3  0  0  0  0  0  0
  -21.7220   -7.0260   21.4640 O   0  0  0  0  0  0  0  0  0  0  0  0
  -21.7030   -6.2840   22.6180 C   0  0  0  0  0  0  0  0  0  0  0  0
  -21.3310   -6.8450   23.8590 C   0  0  0  0  0  3  0  0  0  0  0  0
  -21.2590   -6.0320   25.0060 C   0  0  0  0  0  3  0  0  0  0  0  0
  -21.5480   -4.6570   24.9150 C   0  0  0  0  0  0  0  0  0  0  0  0
  -21.9150   -4.0950   23.6790 C   0  0  0  0  0  3  0  0  0  0  0  0
  -21.9890   -4.9070   22.5340 C   0  0  0  0  0  0  0  0  0  0  0  0
  -22.3220   -4.3560   21.3410 F   0  0  0  0  0  0  0  0  0  0  0  0
  -21.4720   -3.8730   26.0160 F   0  0  0  0  0  0  0  0  0  0  0  0
  -22.8580  -13.6520   21.1780 C   0  0  0  0  0  0  0  0  0  0  0  0
  -22.1800  -12.9530   22.0810 N   0  0  0  0  0  0  0  0  0  0  0  0
  -22.3990  -14.6880   20.6970 O   0  0  0  0  0  0  0  0  0  0  0  0
  -22.5660  -12.1160   22.4900 H   0  0  0  0  0  0  0  0  0  0  0  0
  -21.2620  -13.2600   22.3670 H   0  0  0  0  0  0  0  0  0  0  0  0
  -25.4190  -15.3120   20.2100 N   0  0  0  0  0  0  0  0  0  0  0  0
  -24.6490  -15.9530   20.3640 H   0  0  0  0  0  0  0  0  0  0  0  0
  -26.2240  -15.7510   19.7850 H   0  0  0  0  0  0  0  0  0  0  0  0
  -28.8190  -22.8320   20.5390 C   0  0  0  0  0  3  0  0  0  0  0  0
  -28.0280  -24.3370   20.0160 C   0  0  0  0  0  3  0  0  0  0  0  0
  -28.1750  -25.9070   20.4160 O   0  0  0  0  0  0  0  0  0  0  0  0
  -24.6190  -31.8520   23.2690 C   0  0  0  0  0  0  0  0  0  0  0  0
  -27.1610  -26.9790   20.3020 C   0  0  0  0  0  0  0  0  0  0  0  0
  -23.4210  -30.4540   21.6330 C   0  0  0  0  0  3  0  0  0  0  0  0
  -24.8660  -28.8370   20.2260 C   0  0  0  0  0  0  0  0  0  0  0  0
  -25.9850  -30.6590   21.4940 C   0  0  0  0  0  2  0  0  0  0  0  0
  -26.0490  -29.2490   20.8500 C   0  0  0  0  0  0  0  0  0  0  0  0
  -27.1910  -28.3390   20.8680 C   0  0  0  0  0  3  0  0  0  0  0  0
  -25.9530  -26.7060   19.6220 C   0  0  0  0  0  3  0  0  0  0  0  0
  -24.8400  -27.5850   19.5920 C   0  0  0  0  0  3  0  0  0  0  0  0
  -23.6500  -29.7600   20.2620 C   0  0  0  0  0  2  0  0  0  0  0  0
  -24.6960  -31.0130   22.1860 N   0  0  0  0  0  0  0  0  0  0  0  0
  -23.5310  -32.1530   23.7840 O   0  0  0  0  0  0  0  0  0  0  0  0
  -22.7170  -29.4690   22.6020 C   0  0  0  0  0  0  0  0  0  0  0  0
  -21.3870  -29.3150   22.4710 N   0  0  0  0  0  0  0  0  0  0  0  0
  -23.3730  -28.8420   23.4370 O   0  0  0  0  0  0  0  0  0  0  0  0
  -20.9110  -29.8690   21.7730 H   0  0  0  0  0  0  0  0  0  0  0  0
  -17.9930  -28.1380   22.9610 C   0  0  0  0  0  0  0  0  0  0  0  0
  -20.5510  -28.3910   23.2450 C   0  0  0  0  0  3  0  0  0  0  0  0
  -20.6490  -26.9520   22.6870 C   0  0  0  0  0  2  0  0  0  0  0  0
  -19.5530  -26.6260   21.6670 C   0  0  0  0  0  2  0  0  0  0  0  0
  -18.1660  -26.7830   22.2980 C   0  0  0  0  0  2  0  0  0  0  0  0
  -19.1110  -28.9000   23.3930 C   0  0  0  0  0  0  0  0  0  0  0  0
  -18.8930  -30.1650   23.9780 C   0  0  0  0  0  3  0  0  0  0  0  0
  -17.5890  -30.6720   24.1340 C   0  0  0  0  0  3  0  0  0  0  0  0
  -16.4850  -29.9080   23.7190 C   0  0  0  0  0  3  0  0  0  0  0  0
  -16.6870  -28.6440   23.1380 C   0  0  0  0  0  3  0  0  0  0  0  0
  -25.8940  -32.4860   23.9030 C   0  0  0  0  0  3  0  0  0  0  0  0
  -25.5900  -33.8920   24.2190 N   0  0  0  0  0  0  0  0  0  0  0  0
  -25.9280  -34.9410   23.4550 C   0  0  0  0  0  0  0  0  0  0  0  0
  -26.5910  -34.8250   22.4220 O   0  0  0  0  0  0  0  0  0  0  0  0
  -25.0010  -34.0560   25.0210 H   0  0  0  0  0  0  0  0  0  0  0  0
  -24.2030  -36.7450   23.1170 C   0  0  0  0  0  1  0  0  0  0  0  0
  -25.4560  -36.3390   23.9080 C   0  0  0  0  0  3  0  0  0  0  0  0
  -27.6110  -37.2240   24.6880 C   0  0  0  0  0  1  0  0  0  0  0  0
  -26.4920  -37.3850   23.7640 N   0  0  0  0  0  0  0  0  0  0  0  0
  -26.0930  -38.3080   23.9080 H   0  0  0  0  0  0  0  0  0  0  0  0
  -26.3820  -31.7290   25.2010 C   0  0  1  0  0  0  0  0  0  0  0  0
  -25.2710  -31.5250   26.2580 C   0  0  0  0  0  1  0  0  0  0  0  0
  -26.9520  -30.3370   24.8480 C   0  0  0  0  0  1  0  0  0  0  0  0
  -27.5340  -32.5200   25.8650 C   0  0  0  0  0  1  0  0  0  0  0  0
  1  2  1  0
  1 46  1  0
  2  4  1  0
  2  3  1  0
  6  5  1  0
  6  2  1  0
  6  9  1  0
  9  8  1  1
  9  7  1  0
 10  9  1  0
 11 16  1  0
 12 13  1  0
 12 11  1  0
 14 13  1  0
 14 21  1  0
 14 15  1  0
 16 10  1  0
 16 15  1  0
 17 10  2  0
 18 19  2  0
 19 38  1  0
 20 19  1  0
 20 23  1  0
 21 22  1  0
 21 18  1  0
 22 20  2  0
 23 24  1  0
 24 25  2  0
 26 29  1  0
 26 25  1  0
 27 26  2  0
 28 27  1  0
 28 23  2  0
 29 30  1  0
 30 31  1  0
 31 32  2  0
 33 32  1  0
 33 37  1  0
 34 33  2  0
 35 30  2  0
 35 34  1  0
 36 35  1  0
 38 39  1  0
 39 42  1  0
 39 41  1  0
 40 38  2  0
 43 44  1  0
 43 18  1  0
 45 43  1  0
 47 48  1  0
 47 46  2  0
 49 60  2  0
 50 48  1  0
 50 55  1  0
 51 59  1  0
 51 61  1  0
 52 58  1  0
 52 54  1  0
 53 59  1  0
 54 55  2  0
 54 53  1  0
 56 50  2  0
 57 56  1  0
 57 52  2  0
 58 51  1  0
 59 49  1  0
 61 63  2  0
 62 61  1  0
 64 62  1  0
 65 74  2  0
 65 70  1  0
 66 62  1  0
 66 70  1  0
 67 66  1  0
 68 69  1  0
 68 67  1  0
 69 65  1  0
 70 71  2  0
 71 72  1  0
 73 72  2  0
 74 73  1  0
 75 49  1  0
 75 76  1  0
 75 85  1  0
 76 79  1  0
 77 81  1  0
 77 76  1  0
 78 77  2  0
 81 80  1  0
 83 81  1  0
 83 84  1  0
 83 82  1  0
 85 88  1  1
 85 86  1  0
 87 85  1  0
M  ISO  4   9 100  10 100  47 101  48 101
M  END
>  <TORSDO>  (69) 
F 21

>  <SCORE>  (69) 
-14.785

>  <name>  (69) 
70

>  <ligand_id>  (69) 
70

>  <original_smiles>  (69) 
[H]c1c([H])c([H])c2c(c1[H])C([H])([H])C([H])([H])C([H])([H])C2([H])N([H])C(=O)C1([H])N(C(=O)C([H])(N([H])C(=O)C([H])(N([H])C([H])([H])[H])C([H])([H])[H])C(C([H])([H])[H])(C([H])([H])[H])C([H])([H])[H])C([H])([H])c2c([H])c(OC([H])([H])C([H])([H])C([H])([H])[N+]([H])([H])C([H])(C([H])([H])[H])C(C(=O)N3C([H])([H])C([H])([H])C([H])([H])C([H])(n4nc(-c5c([H])c([H])c(Oc6c([H])c([H])c(F)c([H])c6F)c([H])c5[H])c(C(=O)N([H])[H])c4N([H])[H])C3([H])[H])(C([H])([H])[H])C([H])([H])[H])c([H])c([H])c2C1([H])[H]

>  <smiles>  (69) 
[H]c1c([H])c([H])c2c(c1[H])C([H])([H])C([H])([H])C([H])([H])C2([H])N([H])C(=O)C1([H])N(C(=O)C([H])(N([H])C(=O)C([H])(N([H])C([H])([H])[H])C([H])([H])[H])C(C([H])([H])[H])(C([H])([H])[H])C([H])([H])[H])C([H])([H])c2c([H])c(OC([H])([H])C([H])([H])C([H])([H])[N+]([H])([H])C([H])(C([H])([H])[H])C(C(=O)N3C([H])([H])C([H])([H])C([H])([H])C([H])(n4nc(-c5c([H])c([H])c(Oc6c([H])c([H])c(F)c([H])c6F)c([H])c5[H])c(C(=O)N([H])[H])c4N([H])[H])C3([H])[H])(C([H])([H])[H])C([H])([H])[H])c([H])c([H])c2C1([H])[H]

$$$$
72:0:0
     RDKit          3D

 98106  0  0  1  0  0  0  0  0999 V2000
  -27.8160  -19.2980   20.5400 C   0  0  0  0  0  0  0  0  0  0  0  0
  -28.1870  -20.4260   19.9110 N   0  0  0  0  0  0  0  0  0  0  0  0
  -26.6440  -19.1130   20.8780 O   0  0  0  0  0  0  0  0  0  0  0  0
  -29.1520  -20.5480   19.6320 H   0  0  0  0  0  0  0  0  0  0  0  0
  -27.2360  -21.5200   19.7180 C   0  0  0  0  0  2  0  0  0  0  0  0
  -28.2250  -23.8540   19.6490 C   0  0  0  0  0  3  0  0  0  0  0  0
  -27.5070  -22.8450   17.5520 C   0  0  0  0  0  3  0  0  0  0  0  0
  -28.4090  -25.0880   18.9970 C   0  0  0  0  0  3  0  0  0  0  0  0
  -27.6910  -24.0840   16.8990 C   0  0  0  0  0  3  0  0  0  0  0  0
  -27.7190  -22.7410   18.9440 C   0  0  0  0  0  0  0  0  0  0  0  0
  -28.0810  -25.2270   17.6310 C   0  0  0  0  0  0  0  0  0  0  0  0
  -28.0160  -26.4810   17.0600 O   0  0  0  0  0  0  0  0  0  0  0  0
  -25.2070  -29.9460   22.6000 C   0  0  0  0  0  0  0  0  0  0  0  0
  -26.9780  -27.2550   17.5290 C   0  0  0  0  0  0  0  0  0  0  0  0
  -23.6730  -29.4860   20.7150 C   0  0  0  0  0  3  0  0  0  0  0  0
  -24.7780  -28.6950   18.5550 C   0  0  0  0  0  0  0  0  0  0  0  0
  -26.1820  -29.7840   20.3140 C   0  0  0  0  0  2  0  0  0  0  0  0
  -26.0460  -28.8460   19.1340 C   0  0  0  0  0  0  0  0  0  0  0  0
  -27.1530  -28.1290   18.6240 C   0  0  0  0  0  3  0  0  0  0  0  0
  -25.6990  -27.1290   16.9430 C   0  0  0  0  0  3  0  0  0  0  0  0
  -24.5970  -27.8380   17.4570 C   0  0  0  0  0  3  0  0  0  0  0  0
  -23.6460  -29.4920   19.1620 C   0  0  0  0  0  2  0  0  0  0  0  0
  -25.0460  -29.7230   21.2640 N   0  0  0  0  0  0  0  0  0  0  0  0
  -24.2310  -29.9980   23.3620 O   0  0  0  0  0  0  0  0  0  0  0  0
  -23.0300  -28.1720   21.2180 C   0  0  0  0  0  0  0  0  0  0  0  0
  -21.6900  -28.1200   21.2020 N   0  0  0  0  0  0  0  0  0  0  0  0
  -23.7310  -27.2250   21.5820 O   0  0  0  0  0  0  0  0  0  0  0  0
  -21.1890  -28.9420   20.8950 H   0  0  0  0  0  0  0  0  0  0  0  0
  -18.2840  -26.9930   21.6490 C   0  0  0  0  0  0  0  0  0  0  0  0
  -20.8680  -26.9740   21.5930 C   0  0  0  0  0  3  0  0  0  0  0  0
  -20.7340  -25.9620   20.4330 C   0  0  0  0  0  2  0  0  0  0  0  0
  -19.4870  -26.1920   19.5720 C   0  0  0  0  0  2  0  0  0  0  0  0
  -18.2200  -26.0940   20.4260 C   0  0  0  0  0  2  0  0  0  0  0  0
  -19.5270  -27.4180   22.1880 C   0  0  0  0  0  0  0  0  0  0  0  0
  -19.5300  -28.2810   23.3050 C   0  0  0  0  0  3  0  0  0  0  0  0
  -18.3220  -28.7160   23.8830 C   0  0  0  0  0  3  0  0  0  0  0  0
  -17.0940  -28.2800   23.3550 C   0  0  0  0  0  3  0  0  0  0  0  0
  -17.0780  -27.4160   22.2440 C   0  0  0  0  0  3  0  0  0  0  0  0
  -26.6170  -30.1700   23.2280 C   0  0  0  0  0  3  0  0  0  0  0  0
  -27.1250  -28.9390   24.0740 C   0  0  1  0  0  0  0  0  0  0  0  0
  -26.1120  -28.4570   25.1380 C   0  0  0  0  0  1  0  0  0  0  0  0
  -27.4510  -27.7410   23.1530 C   0  0  0  0  0  1  0  0  0  0  0  0
  -28.4400  -29.3090   24.8000 C   0  0  0  0  0  1  0  0  0  0  0  0
  -26.5430  -31.3790   24.0610 N   0  0  0  0  0  0  0  0  0  0  0  0
  -26.9910  -32.5860   23.6890 C   0  0  0  0  0  0  0  0  0  0  0  0
  -27.5850  -32.7820   22.6240 O   0  0  0  0  0  0  0  0  0  0  0  0
  -26.0200  -31.3050   24.9200 H   0  0  0  0  0  0  0  0  0  0  0  0
  -25.5470  -34.5900   24.1570 C   0  0  0  0  0  1  0  0  0  0  0  0
  -26.7430  -33.7620   24.6520 C   0  0  0  0  0  3  0  0  0  0  0  0
  -29.0130  -34.0070   25.5560 C   0  0  0  0  0  1  0  0  0  0  0  0
  -27.9210  -34.6410   24.8220 N   0  0  0  0  0  0  0  0  0  0  0  0
  -27.6660  -35.4950   25.3100 H   0  0  0  0  0  0  0  0  0  0  0  0
  -28.8760  -18.2220   20.8510 C   0  0  0  0  0  3  0  0  0  0  0  0
  -31.1150  -18.3540   19.7820 C   0  0  0  0  0  0  0  0  0  0  0  0
  -29.8190  -18.0180   19.7480 N   0  0  0  0  0  0  0  0  0  0  0  0
  -31.5710  -19.1290   20.6240 O   0  0  0  0  0  0  0  0  0  0  0  0
  -29.4930  -17.4380   18.9870 H   0  0  0  0  0  0  0  0  0  0  0  0
  -32.0460  -17.7130   18.7490 C   0  0  0  0  0  2  0  0  0  0  0  0
  -34.4940  -17.5380   19.5750 C   0  0  0  0  0  1  0  0  0  0  0  0
  -33.1390  -16.8120   19.3940 C   0  0  0  0  0  3  0  0  0  0  0  0
  -33.3650  -15.5410   18.5490 C   0  0  0  0  0  0  0  0  0  0  0  0
  -33.0320  -13.1390   18.0820 C   0  0  0  0  0  2  0  0  0  0  0  0
  -32.0390  -12.8890   16.9340 C   0  0  0  0  0  2  0  0  0  0  0  0
  -30.5970  -12.8380   17.4690 C   0  0  0  0  0  2  0  0  0  0  0  0
  -30.2650  -14.0480   18.3800 C   0  0  0  0  0  3  0  0  0  0  0  0
  -31.3640  -14.2610   19.4460 C   0  0  0  0  0  2  0  0  0  0  0  0
  -32.6620  -14.3930   18.7590 N   0  0  0  0  0  0  0  0  0  0  0  0
  -34.2800  -15.5970   17.7230 O   0  0  0  0  0  0  0  0  0  0  0  0
  -27.9740  -14.8710   19.2220 C   0  0  0  0  0  0  0  0  0  0  0  0
  -26.9000  -14.2050   19.7480 C   0  0  0  0  0  0  0  0  0  0  0  0
  -27.2770  -12.8270   19.8010 C   0  0  0  0  0  0  0  0  0  0  0  0
  -28.9440  -13.9070   18.9890 N   0  0  0  0  0  0  0  0  0  0  0  0
  -28.5310  -12.6770   19.3910 N   0  0  0  0  0  0  0  0  0  0  0  0
  -26.4990  -11.6360   20.1640 C   0  0  0  0  0  0  0  0  0  0  0  0
  -26.5970  -11.0520   21.4460 C   0  0  0  0  0  3  0  0  0  0  0  0
  -25.8250   -9.9180   21.7780 C   0  0  0  0  0  3  0  0  0  0  0  0
  -24.9410   -9.3580   20.8250 C   0  0  0  0  0  0  0  0  0  0  0  0
  -24.8640   -9.9300   19.5430 C   0  0  0  0  0  3  0  0  0  0  0  0
  -25.6380  -11.0550   19.2120 C   0  0  0  0  0  3  0  0  0  0  0  0
  -24.1720   -8.2420   21.0510 O   0  0  0  0  0  0  0  0  0  0  0  0
  -23.3560   -8.1400   22.1490 C   0  0  0  0  0  0  0  0  0  0  0  0
  -22.2970   -9.0450   22.3780 C   0  0  0  0  0  3  0  0  0  0  0  0
  -21.4400   -8.8620   23.4820 C   0  0  0  0  0  3  0  0  0  0  0  0
  -21.6340   -7.7720   24.3510 C   0  0  0  0  0  0  0  0  0  0  0  0
  -22.6840   -6.8660   24.1210 C   0  0  0  0  0  3  0  0  0  0  0  0
  -23.5410   -7.0480   23.0210 C   0  0  0  0  0  0  0  0  0  0  0  0
  -24.5390   -6.1610   22.7930 F   0  0  0  0  0  0  0  0  0  0  0  0
  -20.8070   -7.5900   25.4070 F   0  0  0  0  0  0  0  0  0  0  0  0
  -25.5620  -14.7930   20.0910 C   0  0  0  0  0  0  0  0  0  0  0  0
  -24.8970  -14.2540   21.1080 N   0  0  0  0  0  0  0  0  0  0  0  0
  -25.1180  -15.7690   19.4890 O   0  0  0  0  0  0  0  0  0  0  0  0
  -25.2710  -13.4660   21.6160 H   0  0  0  0  0  0  0  0  0  0  0  0
  -24.0030  -14.6340   21.3830 H   0  0  0  0  0  0  0  0  0  0  0  0
  -28.2010  -16.2070   18.9050 N   0  0  0  0  0  0  0  0  0  0  0  0
  -27.4780  -16.9110   18.9960 H   0  0  0  0  0  0  0  0  0  0  0  0
  -29.0280  -16.5440   18.4300 H   0  0  0  0  0  0  0  0  0  0  0  0
  -29.2780  -15.7140   21.4600 C   0  0  0  0  0  1  0  0  0  0  0  0
  -28.2680  -16.8600   21.2840 C   0  0  0  0  0  2  0  0  0  0  0  0
  1 53  1  0
  1  3  2  0
  2  1  1  0
  4  2  1  0
  5  2  1  0
  7 10  1  0
  8  6  1  0
  9  7  2  0
  9 11  1  0
 10  6  2  0
 10  5  1  0
 11  8  2  0
 12 14  1  0
 12 11  1  0
 13 24  2  0
 14 19  1  0
 15 25  1  0
 15 23  1  0
 16 18  1  0
 16 22  1  0
 17 23  1  0
 18 17  1  0
 19 18  2  0
 20 21  1  0
 20 14  2  0
 21 16  2  0
 22 15  1  0
 23 13  1  0
 25 27  2  0
 26 25  1  0
 28 26  1  0
 29 34  2  0
 29 38  1  0
 30 26  1  0
 30 34  1  0
 31 30  1  0
 32 33  1  0
 32 31  1  0
 33 29  1  0
 34 35  1  0
 35 36  2  0
 37 36  1  0
 38 37  2  0
 39 13  1  0
 39 44  1  0
 39 40  1  0
 40 43  1  1
 40 41  1  0
 42 40  1  0
 44 47  1  0
 45 44  1  0
 45 49  1  0
 46 45  2  0
 49 48  1  0
 49 51  1  0
 51 52  1  0
 51 50  1  0
 53 98  1  0
 54 56  2  0
 55 54  1  0
 55 53  1  0
 57 55  1  0
 58 60  1  0
 58 54  1  0
 60 59  1  0
 61 67  1  0
 61 60  1  0
 62 67  1  0
 63 64  1  0
 63 62  1  0
 65 64  1  0
 65 72  1  0
 65 66  1  0
 67 66  1  0
 68 61  2  0
 69 70  2  0
 70 71  1  0
 70 89  1  0
 71 74  1  0
 72 69  1  0
 72 73  1  0
 73 71  2  0
 74 75  1  0
 75 76  2  0
 77 80  1  0
 77 76  1  0
 78 77  2  0
 79 78  1  0
 79 74  2  0
 80 81  1  0
 81 82  2  0
 81 86  1  0
 82 83  1  0
 83 84  2  0
 84 88  1  0
 85 84  1  0
 86 85  2  0
 87 86  1  0
 89 90  1  0
 90 93  1  0
 90 92  1  0
 91 89  2  0
 94 95  1  0
 94 69  1  0
 96 94  1  0
 98 97  1  0
M  ISO  4  11 101  12 101  60 100  61 100
M  END
>  <TORSDO>  (70) 
F 23

>  <SCORE>  (70) 
0.099

>  <name>  (70) 
72

>  <ligand_id>  (70) 
72

>  <original_smiles>  (70) 
[H]c1c([H])c([H])c2c(c1[H])C([H])([H])C([H])([H])C([H])([H])C2([H])N([H])C(=O)C1([H])N(C(=O)C([H])(N([H])C(=O)C([H])(N([H])C([H])([H])[H])C([H])([H])[H])C(C([H])([H])[H])(C([H])([H])[H])C([H])([H])[H])C([H])([H])c2c([H])c(Oc3c([H])c([H])c(C([H])([H])N([H])C(=O)C([H])(N([H])C(=O)C([H])([H])C([H])(C(=O)N4C([H])([H])C([H])([H])C([H])([H])C([H])(n5nc(-c6c([H])c([H])c(Oc7c([H])c([H])c(F)c([H])c7F)c([H])c6[H])c(C(=O)N([H])[H])c5N([H])[H])C4([H])[H])C([H])([H])[H])C([H])([H])C([H])([H])[H])c([H])c3[H])c([H])c([H])c2C1([H])[H]

>  <smiles>  (70) 
[H]c1c([H])c([H])c2c(c1[H])C([H])([H])C([H])([H])C([H])([H])C2([H])N([H])C(=O)C1([H])N(C(=O)C([H])(N([H])C(=O)C([H])(N([H])C([H])([H])[H])C([H])([H])[H])C(C([H])([H])[H])(C([H])([H])[H])C([H])([H])[H])C([H])([H])c2c([H])c(Oc3c([H])c([H])c(C([H])([H])N([H])C(=O)C([H])(N([H])C(=O)C([H])([H])C([H])(C(=O)N4C([H])([H])C([H])([H])C([H])([H])C([H])(n5nc(-c6c([H])c([H])c(Oc7c([H])c([H])c(F)c([H])c7F)c([H])c6[H])c(C(=O)N([H])[H])c5N([H])[H])C4([H])[H])C([H])([H])[H])C([H])([H])C([H])([H])[H])c([H])c3[H])c([H])c([H])c2C1([H])[H]

$$$$
73:0:0
     RDKit          3D

 87 90  0  0  1  0  0  0  0  0999 V2000
  -29.2730  -19.6340   19.8750 C   0  0  0  0  0  1  0  0  0  0  0  0
  -28.2930  -19.4190   18.8000 N   0  0  0  0  0  4  0  0  0  0  0  0
  -27.3790  -19.2570   19.1810 H   0  0  0  0  0  0  0  0  0  0  0  0
  -28.5540  -18.6310   18.2360 H   0  0  0  0  0  0  0  0  0  0  0  0
  -28.2470  -20.2220   18.2000 H   0  0  0  0  0  0  0  0  0  0  0  0
  -28.8590  -21.5500   20.5000 C   0  0  0  0  0 15  0  0  0  0  0  0
  -28.1980  -23.4310   19.9910 C   0  0  0  0  0  1  0  0  0  0  0  0
  -28.1580  -25.2450   20.3670 O   0  0  0  0  0  0  0  0  0  0  0  0
  -24.6600  -31.7840   23.1210 C   0  0  0  0  0  0  0  0  0  0  0  0
  -27.2180  -26.5380   20.2330 C   0  0  0  0  0  0  0  0  0  0  0  0
  -23.5040  -30.3700   21.4790 C   0  0  0  0  0  3  0  0  0  0  0  0
  -24.9710  -28.6780   20.1100 C   0  0  0  0  0  0  0  0  0  0  0  0
  -26.0890  -30.4630   21.4140 C   0  0  0  0  0  2  0  0  0  0  0  0
  -26.1580  -29.0060   20.7740 C   0  0  0  0  0  0  0  0  0  0  0  0
  -27.2540  -27.9680   20.8020 C   0  0  0  0  0  3  0  0  0  0  0  0
  -25.9990  -26.4660   19.4970 C   0  0  0  0  0  3  0  0  0  0  0  0
  -24.9420  -27.4360   19.4470 C   0  0  0  0  0  3  0  0  0  0  0  0
  -23.7720  -29.6510   20.1220 C   0  0  0  0  0  2  0  0  0  0  0  0
  -24.7770  -30.9110   22.0570 N   0  0  0  0  0  0  0  0  0  0  0  0
  -23.5580  -32.0950   23.6040 O   0  0  0  0  0  0  0  0  0  0  0  0
  -22.7550  -29.4180   22.4520 C   0  0  0  0  0  0  0  0  0  0  0  0
  -21.4220  -29.2760   22.3090 N   0  0  0  0  0  0  0  0  0  0  0  0
  -23.3880  -28.8020   23.3130 O   0  0  0  0  0  0  0  0  0  0  0  0
  -20.9610  -29.8220   21.5940 H   0  0  0  0  0  0  0  0  0  0  0  0
  -18.0230  -28.0580   22.7660 C   0  0  0  0  0  0  0  0  0  0  0  0
  -20.5770  -28.3520   23.0790 C   0  0  0  0  0  3  0  0  0  0  0  0
  -20.7000  -26.9090   22.5340 C   0  0  0  0  0  2  0  0  0  0  0  0
  -19.6230  -26.5620   21.5010 C   0  0  0  0  0  2  0  0  0  0  0  0
  -18.2260  -26.7040   22.1090 C   0  0  0  0  0  2  0  0  0  0  0  0
  -19.1260  -28.8390   23.2060 C   0  0  0  0  0  0  0  0  0  0  0  0
  -18.8800  -30.1020   23.7870 C   0  0  0  0  0  3  0  0  0  0  0  0
  -17.5650  -30.5850   23.9300 C   0  0  0  0  0  3  0  0  0  0  0  0
  -16.4780  -29.8040   23.5010 C   0  0  0  0  0  3  0  0  0  0  0  0
  -16.7080  -28.5430   22.9240 C   0  0  0  0  0  3  0  0  0  0  0  0
  -25.9060  -32.4460   23.7830 C   0  0  0  0  0  3  0  0  0  0  0  0
  -25.5690  -33.8470   24.1190 N   0  0  0  0  0  0  0  0  0  0  0  0
  -25.9090  -34.9220   23.3950 C   0  0  0  0  0  0  0  0  0  0  0  0
  -26.5940  -34.8410   22.3720 O   0  0  0  0  0  0  0  0  0  0  0  0
  -24.9630  -33.9820   24.9130 H   0  0  0  0  0  0  0  0  0  0  0  0
  -24.1770  -36.7290   23.0760 C   0  0  0  0  0  1  0  0  0  0  0  0
  -25.4190  -36.3070   23.8770 C   0  0  0  0  0  3  0  0  0  0  0  0
  -27.5510  -37.1950   24.7200 C   0  0  0  0  0  1  0  0  0  0  0  0
  -26.4470  -37.3670   23.7780 N   0  0  0  0  0  0  0  0  0  0  0  0
  -26.0370  -38.2830   23.9360 H   0  0  0  0  0  0  0  0  0  0  0  0
  -26.3850  -31.6920   25.0880 C   0  0  1  0  0  0  0  0  0  0  0  0
  -25.2610  -31.4720   26.1290 C   0  0  0  0  0  1  0  0  0  0  0  0
  -26.9740  -30.3080   24.7440 C   0  0  0  0  0  1  0  0  0  0  0  0
  -27.5200  -32.4940   25.7680 C   0  0  0  0  0  1  0  0  0  0  0  0
  -29.6970  -17.7280   20.5130 C   0  0  0  0  0  1  0  0  0  0  0  0
  -30.3640  -15.9330   20.0310 C   0  0  0  0  0  2  0  0  0  0  0  0
  -30.4750  -13.3330   19.1750 C   0  0  0  0  0  2  0  0  0  0  0  0
  -29.5570  -12.8810   17.9940 C   0  0  0  0  0  2  0  0  0  0  0  0
  -28.1650  -12.4760   18.4930 C   0  0  0  0  0  2  0  0  0  0  0  0
  -27.6740  -13.4700   19.5670 C   0  0  0  0  0  3  0  0  0  0  0  0
  -28.7300  -13.8330   20.6440 C   0  0  0  0  0  2  0  0  0  0  0  0
  -29.8720  -14.5200   19.9760 N   0  0  0  0  0  0  0  0  0  0  0  0
  -31.5670  -15.8080   19.7040 O   0  0  0  0  0  1  0  0  0  0  0  0
  -25.3430  -13.9820   20.4190 C   0  0  0  0  0  0  0  0  0  0  0  0
  -24.2960  -13.2010   20.8150 C   0  0  0  0  0  0  0  0  0  0  0  0
  -24.7630  -11.8510   20.7560 C   0  0  0  0  0  0  0  0  0  0  0  0
  -26.3780  -13.1140   20.1310 N   0  0  0  0  0  0  0  0  0  0  0  0
  -26.0470  -11.8230   20.3990 N   0  0  0  0  0  0  0  0  0  0  0  0
  -24.0360  -10.5890   20.9590 C   0  0  0  0  0  0  0  0  0  0  0  0
  -24.4800   -9.6190   21.8850 C   0  0  0  0  0  3  0  0  0  0  0  0
  -23.7480   -8.4260   22.0810 C   0  0  0  0  0  3  0  0  0  0  0  0
  -22.5590   -8.1940   21.3490 C   0  0  0  0  0  0  0  0  0  0  0  0
  -22.1340   -9.1520   20.4120 C   0  0  0  0  0  3  0  0  0  0  0  0
  -22.8660  -10.3350   20.2150 C   0  0  0  0  0  3  0  0  0  0  0  0
  -21.8000   -7.0540   21.4530 O   0  0  0  0  0  0  0  0  0  0  0  0
  -21.7530   -6.3210   22.6120 C   0  0  0  0  0  0  0  0  0  0  0  0
  -21.3460   -6.8930   23.8370 C   0  0  0  0  0  3  0  0  0  0  0  0
  -21.2450   -6.0890   24.9900 C   0  0  0  0  0  3  0  0  0  0  0  0
  -21.5410   -4.7140   24.9190 C   0  0  0  0  0  0  0  0  0  0  0  0
  -21.9400   -4.1420   23.6990 C   0  0  0  0  0  3  0  0  0  0  0  0
  -22.0430   -4.9440   22.5480 C   0  0  0  0  0  0  0  0  0  0  0  0
  -22.4070   -4.3820   21.3700 F   0  0  0  0  0  0  0  0  0  0  0  0
  -21.4360   -3.9400   26.0240 F   0  0  0  0  0  0  0  0  0  0  0  0
  -22.9100  -13.6780   21.1280 C   0  0  0  0  0  0  0  0  0  0  0  0
  -22.2080  -12.9870   22.0180 N   0  0  0  0  0  0  0  0  0  0  0  0
  -22.4590  -14.7040   20.6170 O   0  0  0  0  0  0  0  0  0  0  0  0
  -22.5890  -12.1590   22.4520 H   0  0  0  0  0  0  0  0  0  0  0  0
  -21.2780  -13.2900   22.2680 H   0  0  0  0  0  0  0  0  0  0  0  0
  -25.5000  -15.3540   20.2460 N   0  0  0  0  0  0  0  0  0  0  0  0
  -24.7310  -16.0040   20.3740 H   0  0  0  0  0  0  0  0  0  0  0  0
  -26.3300  -15.7900   19.8700 H   0  0  0  0  0  0  0  0  0  0  0  0
  -30.6740  -16.9790   22.8380 C   0  0  0  0  0  1  0  0  0  0  0  0
  -30.5210  -18.0830   21.7750 C   0  0  0  0  0  2  0  0  0  0  0  0
  2  3  1  0
  2  1  1  0
  4  2  1  0
  5  2  1  0
  7  8  1  0
  9 20  2  0
 10  8  1  0
 10 15  1  0
 11 19  1  0
 11 21  1  0
 12 18  1  0
 12 14  1  0
 13 19  1  0
 14 15  2  0
 14 13  1  0
 16 10  2  0
 17 16  1  0
 17 12  2  0
 18 11  1  0
 19  9  1  0
 21 23  2  0
 22 21  1  0
 24 22  1  0
 25 34  2  0
 25 30  1  0
 26 22  1  0
 26 30  1  0
 27 26  1  0
 28 29  1  0
 28 27  1  0
 29 25  1  0
 30 31  2  0
 31 32  1  0
 33 32  2  0
 34 33  1  0
 35  9  1  0
 35 36  1  0
 35 45  1  0
 36 39  1  0
 37 41  1  0
 37 36  1  0
 38 37  2  0
 41 40  1  0
 43 41  1  0
 43 44  1  0
 43 42  1  0
 45 48  1  1
 45 46  1  0
 47 45  1  0
 49 87  1  0
 51 56  1  0
 52 53  1  0
 52 51  1  0
 54 53  1  0
 54 61  1  0
 54 55  1  0
 56 50  1  0
 56 55  1  0
 57 50  1  0
 58 59  2  0
 59 78  1  0
 60 59  1  0
 60 63  1  0
 61 62  1  0
 61 58  1  0
 62 60  2  0
 63 64  1  0
 64 65  2  0
 66 69  1  0
 66 65  1  0
 67 66  2  0
 68 67  1  0
 68 63  2  0
 69 70  1  0
 70 71  1  0
 71 72  2  0
 73 72  1  0
 73 77  1  0
 74 73  2  0
 75 70  2  0
 75 74  1  0
 76 75  1  0
 78 79  1  0
 79 82  1  0
 79 81  1  0
 80 78  2  0
 83 84  1  0
 83 58  1  0
 85 83  1  0
 87 86  1  0
M  ISO  4   7 101   8 101  49 100  50 100
M  END
>  <TORSDO>  (71) 
F 21

>  <SCORE>  (71) 
-15.794

>  <name>  (71) 
73

>  <ligand_id>  (71) 
73

>  <original_smiles>  (71) 
[H]c1c([H])c([H])c2c(c1[H])C([H])([H])C([H])([H])C([H])([H])C2([H])N([H])C(=O)C1([H])N(C(=O)C([H])(N([H])C(=O)C([H])(N([H])C([H])([H])[H])C([H])([H])[H])C(C([H])([H])[H])(C([H])([H])[H])C([H])([H])[H])C([H])([H])c2c([H])c(OC([H])([H])C([H])([H])C([H])(C([H])(C(=O)N3C([H])([H])C([H])([H])C([H])([H])C([H])(n4nc(-c5c([H])c([H])c(Oc6c([H])c([H])c(F)c([H])c6F)c([H])c5[H])c(C(=O)N([H])[H])c4N([H])[H])C3([H])[H])C([H])([H])C([H])([H])[H])[N+]([H])([H])[H])c([H])c([H])c2C1([H])[H]

>  <smiles>  (71) 
[H]c1c([H])c([H])c2c(c1[H])C([H])([H])C([H])([H])C([H])([H])C2([H])N([H])C(=O)C1([H])N(C(=O)C([H])(N([H])C(=O)C([H])(N([H])C([H])([H])[H])C([H])([H])[H])C(C([H])([H])[H])(C([H])([H])[H])C([H])([H])[H])C([H])([H])c2c([H])c(OC([H])([H])C([H])([H])C([H])(C([H])(C(=O)N3C([H])([H])C([H])([H])C([H])([H])C([H])(n4nc(-c5c([H])c([H])c(Oc6c([H])c([H])c(F)c([H])c6F)c([H])c5[H])c(C(=O)N([H])[H])c4N([H])[H])C3([H])[H])C([H])([H])C([H])([H])[H])[N+]([H])([H])[H])c([H])c([H])c2C1([H])[H]

$$$$
74:0:0
     RDKit          3D

 86 93  0  0  1  0  0  0  0  0999 V2000
  -28.5190  -22.8200   20.5750 C   0  0  0  0  0  2  0  0  0  0  0  0
  -28.6910  -21.3420   18.4920 C   0  0  0  0  0  1  0  0  0  0  0  0
  -29.0790  -21.4050   19.9180 N   0  0  2  0  0  4  0  0  0  0  0  0
  -30.0740  -21.5690   19.8860 H   0  0  0  0  0  0  0  0  0  0  0  0
  -28.9980  -19.8880   20.5760 C   0  0  0  0  0  2  0  0  0  0  0  0
  -31.3300  -18.6720   20.1760 C   0  0  0  0  0  1  0  0  0  0  0  0
  -29.8230  -18.3850   20.0760 C   0  0  0  0  0  3  0  0  0  0  0  0
  -29.5980  -16.6970   20.6100 C   0  0  0  0  0  2  0  0  0  0  0  0
  -30.4080  -15.1960   20.2670 C   0  0  0  0  0  0  0  0  0  0  0  0
  -30.3830  -12.7710   19.3720 C   0  0  0  0  0  2  0  0  0  0  0  0
  -29.4530  -12.6350   18.1410 C   0  0  0  0  0  2  0  0  0  0  0  0
  -27.9890  -12.3990   18.5690 C   0  0  0  0  0  2  0  0  0  0  0  0
  -27.5670  -13.3320   19.7330 C   0  0  0  0  0  3  0  0  0  0  0  0
  -28.6210  -13.4070   20.8540 C   0  0  0  0  0  2  0  0  0  0  0  0
  -29.8710  -13.8850   20.2450 N   0  0  0  0  0  0  0  0  0  0  0  0
  -31.6050  -15.2200   19.9440 O   0  0  0  0  0  0  0  0  0  0  0  0
  -25.1930  -13.8930   20.4830 C   0  0  0  0  0  0  0  0  0  0  0  0
  -24.1340  -13.1170   20.8590 C   0  0  0  0  0  0  0  0  0  0  0  0
  -24.6030  -11.7670   20.8300 C   0  0  0  0  0  0  0  0  0  0  0  0
  -26.2370  -13.0200   20.2410 N   0  0  0  0  0  0  0  0  0  0  0  0
  -25.8940  -11.7350   20.5180 N   0  0  0  0  0  0  0  0  0  0  0  0
  -23.8780  -10.5040   21.0240 C   0  0  0  0  0  0  0  0  0  0  0  0
  -24.3190   -9.5310   21.9480 C   0  0  0  0  0  3  0  0  0  0  0  0
  -23.5910   -8.3350   22.1310 C   0  0  0  0  0  3  0  0  0  0  0  0
  -22.4070   -8.1030   21.3910 C   0  0  0  0  0  0  0  0  0  0  0  0
  -21.9850   -9.0650   20.4560 C   0  0  0  0  0  3  0  0  0  0  0  0
  -22.7120  -10.2520   20.2710 C   0  0  0  0  0  3  0  0  0  0  0  0
  -21.6500   -6.9600   21.4830 O   0  0  0  0  0  0  0  0  0  0  0  0
  -21.6270   -6.2030   22.6270 C   0  0  0  0  0  0  0  0  0  0  0  0
  -21.2460   -6.7460   23.8730 C   0  0  0  0  0  3  0  0  0  0  0  0
  -21.1690   -5.9170   25.0090 C   0  0  0  0  0  3  0  0  0  0  0  0
  -21.4610   -4.5440   24.9010 C   0  0  0  0  0  0  0  0  0  0  0  0
  -21.8350   -4.0000   23.6600 C   0  0  0  0  0  3  0  0  0  0  0  0
  -21.9140   -4.8270   22.5260 C   0  0  0  0  0  0  0  0  0  0  0  0
  -22.2560   -4.2920   21.3270 F   0  0  0  0  0  0  0  0  0  0  0  0
  -21.3800   -3.7450   25.9900 F   0  0  0  0  0  0  0  0  0  0  0  0
  -22.7370  -13.5930   21.1270 C   0  0  0  0  0  0  0  0  0  0  0  0
  -22.0080  -12.9040   21.9970 N   0  0  0  0  0  0  0  0  0  0  0  0
  -22.3000  -14.6160   20.6010 O   0  0  0  0  0  0  0  0  0  0  0  0
  -22.3730  -12.0780   22.4490 H   0  0  0  0  0  0  0  0  0  0  0  0
  -21.0700  -13.2090   22.2140 H   0  0  0  0  0  0  0  0  0  0  0  0
  -25.3500  -15.2640   20.2980 N   0  0  0  0  0  0  0  0  0  0  0  0
  -24.5770  -15.9130   20.3980 H   0  0  0  0  0  0  0  0  0  0  0  0
  -26.1910  -15.7060   19.9520 H   0  0  0  0  0  0  0  0  0  0  0  0
  -28.2830  -24.4060   19.8040 C   0  0  0  0  0  2  0  0  0  0  0  0
  -28.2310  -25.9570   20.3110 O   0  0  0  0  0  0  0  0  0  0  0  0
  -24.6460  -31.8580   23.2030 C   0  0  0  0  0  0  0  0  0  0  0  0
  -27.1930  -27.0050   20.1940 C   0  0  0  0  0  0  0  0  0  0  0  0
  -23.4430  -30.4540   21.5750 C   0  0  0  0  0  3  0  0  0  0  0  0
  -24.8830  -28.8470   20.1520 C   0  0  0  0  0  0  0  0  0  0  0  0
  -26.0060  -30.6740   21.4170 C   0  0  0  0  0  2  0  0  0  0  0  0
  -26.0700  -29.2680   20.7650 C   0  0  0  0  0  0  0  0  0  0  0  0
  -27.2150  -28.3620   20.7680 C   0  0  0  0  0  3  0  0  0  0  0  0
  -25.9800  -26.7240   19.5280 C   0  0  0  0  0  3  0  0  0  0  0  0
  -24.8600  -27.5960   19.5150 C   0  0  0  0  0  3  0  0  0  0  0  0
  -23.6610  -29.7590   20.2020 C   0  0  0  0  0  2  0  0  0  0  0  0
  -24.7210  -31.0220   22.1180 N   0  0  0  0  0  0  0  0  0  0  0  0
  -23.5600  -32.1520   23.7260 O   0  0  0  0  0  0  0  0  0  0  0  0
  -22.7560  -29.4620   22.5490 C   0  0  0  0  0  0  0  0  0  0  0  0
  -21.4240  -29.2990   22.4310 N   0  0  0  0  0  0  0  0  0  0  0  0
  -23.4230  -28.8400   23.3790 O   0  0  0  0  0  0  0  0  0  0  0  0
  -20.9410  -29.8460   21.7330 H   0  0  0  0  0  0  0  0  0  0  0  0
  -18.0430  -28.0990   22.9520 C   0  0  0  0  0  0  0  0  0  0  0  0
  -20.6030  -28.3680   23.2110 C   0  0  0  0  0  3  0  0  0  0  0  0
  -20.7040  -26.9320   22.6470 C   0  0  0  0  0  2  0  0  0  0  0  0
  -19.6020  -26.6010   21.6370 C   0  0  0  0  0  2  0  0  0  0  0  0
  -18.2210  -26.7480   22.2830 C   0  0  0  0  0  2  0  0  0  0  0  0
  -19.1610  -28.8680   23.3730 C   0  0  0  0  0  0  0  0  0  0  0  0
  -18.9400  -30.1320   23.9600 C   0  0  0  0  0  3  0  0  0  0  0  0
  -17.6330  -30.6270   24.1320 C   0  0  0  0  0  3  0  0  0  0  0  0
  -16.5290  -29.8560   23.7280 C   0  0  0  0  0  3  0  0  0  0  0  0
  -16.7360  -28.5940   23.1440 C   0  0  0  0  0  3  0  0  0  0  0  0
  -25.9220  -32.5020   23.8260 C   0  0  0  0  0  3  0  0  0  0  0  0
  -25.6020  -33.8980   24.1690 N   0  0  0  0  0  0  0  0  0  0  0  0
  -25.9240  -34.9640   23.4230 C   0  0  0  0  0  0  0  0  0  0  0  0
  -26.5850  -34.8760   22.3860 O   0  0  0  0  0  0  0  0  0  0  0  0
  -25.0170  -34.0390   24.9790 H   0  0  0  0  0  0  0  0  0  0  0  0
  -24.1850  -36.7590   23.1180 C   0  0  0  0  0  1  0  0  0  0  0  0
  -25.4410  -36.3480   23.9050 C   0  0  0  0  0  3  0  0  0  0  0  0
  -27.5850  -37.2340   24.7110 C   0  0  0  0  0  1  0  0  0  0  0  0
  -26.4680  -37.4080   23.7850 N   0  0  0  0  0  0  0  0  0  0  0  0
  -26.0620  -38.3250   23.9490 H   0  0  0  0  0  0  0  0  0  0  0  0
  -26.4400  -31.7360   25.1070 C   0  0  1  0  0  0  0  0  0  0  0  0
  -25.3480  -31.5010   26.1780 C   0  0  0  0  0  1  0  0  0  0  0  0
  -27.0240  -30.3570   24.7270 C   0  0  0  0  0  1  0  0  0  0  0  0
  -27.5930  -32.5330   25.7620 C   0  0  0  0  0  1  0  0  0  0  0  0
  2  3  1  0
  3  1  1  0
  3  5  1  0
  3  4  1  6
  7  6  1  0
  7  5  1  0
  7  8  1  0
  9  8  1  0
 10 15  1  0
 11 12  1  0
 11 10  1  0
 13 12  1  0
 13 20  1  0
 13 14  1  0
 15  9  1  0
 15 14  1  0
 16  9  2  0
 17 18  2  0
 18 37  1  0
 19 18  1  0
 19 22  1  0
 20 17  1  0
 20 21  1  0
 21 19  2  0
 22 23  1  0
 23 24  2  0
 25 28  1  0
 25 24  1  0
 26 25  2  0
 27 26  1  0
 27 22  2  0
 28 29  1  0
 29 30  1  0
 30 31  2  0
 32 31  1  0
 32 36  1  0
 33 32  2  0
 34 29  2  0
 34 33  1  0
 35 34  1  0
 37 38  1  0
 38 41  1  0
 38 40  1  0
 39 37  2  0
 42 43  1  0
 42 17  1  0
 44 42  1  0
 45 46  1  0
 45  1  1  0
 47 58  2  0
 48 46  1  0
 48 53  1  0
 49 57  1  0
 49 59  1  0
 50 56  1  0
 50 52  1  0
 51 57  1  0
 52 53  2  0
 52 51  1  0
 54 48  2  0
 55 54  1  0
 55 50  2  0
 56 49  1  0
 57 47  1  0
 59 61  2  0
 60 59  1  0
 62 60  1  0
 63 72  2  0
 63 68  1  0
 64 60  1  0
 64 68  1  0
 65 64  1  0
 66 67  1  0
 66 65  1  0
 67 63  1  0
 68 69  2  0
 69 70  1  0
 71 70  2  0
 72 71  1  0
 73 47  1  0
 73 74  1  0
 73 83  1  0
 74 77  1  0
 75 79  1  0
 75 74  1  0
 76 75  2  0
 79 78  1  0
 81 79  1  0
 81 82  1  0
 81 80  1  0
 83 86  1  1
 83 84  1  0
 85 83  1  0
M  ISO  4   8 100   9 100  45 101  46 101
M  END
>  <TORSDO>  (72) 
F 21

>  <SCORE>  (72) 
-15.499

>  <name>  (72) 
74

>  <ligand_id>  (72) 
74

>  <original_smiles>  (72) 
[H]c1c([H])c([H])c2c(c1[H])C([H])([H])C([H])([H])C([H])([H])C2([H])N([H])C(=O)C1([H])N(C(=O)C([H])(N([H])C(=O)C([H])(N([H])C([H])([H])[H])C([H])([H])[H])C(C([H])([H])[H])(C([H])([H])[H])C([H])([H])[H])C([H])([H])c2c([H])c(OC([H])([H])C([H])([H])[N+]([H])(C([H])([H])[H])C([H])([H])C([H])(C([H])([H])[H])C([H])([H])C(=O)N3C([H])([H])C([H])([H])C([H])([H])C([H])(n4nc(-c5c([H])c([H])c(Oc6c([H])c([H])c(F)c([H])c6F)c([H])c5[H])c(C(=O)N([H])[H])c4N([H])[H])C3([H])[H])c([H])c([H])c2C1([H])[H]

>  <smiles>  (72) 
[H]c1c([H])c([H])c2c(c1[H])C([H])([H])C([H])([H])C([H])([H])C2([H])N([H])C(=O)C1([H])N(C(=O)C([H])(N([H])C(=O)C([H])(N([H])C([H])([H])[H])C([H])([H])[H])C(C([H])([H])[H])(C([H])([H])[H])C([H])([H])[H])C([H])([H])c2c([H])c(OC([H])([H])C([H])([H])[N+]([H])(C([H])([H])[H])C([H])([H])C([H])(C([H])([H])[H])C([H])([H])C(=O)N3C([H])([H])C([H])([H])C([H])([H])C([H])(n4nc(-c5c([H])c([H])c(Oc6c([H])c([H])c(F)c([H])c6F)c([H])c5[H])c(C(=O)N([H])[H])c4N([H])[H])C3([H])[H])c([H])c([H])c2C1([H])[H]

$$$$
75:0:0
     RDKit          3D

 94102  0  0  1  0  0  0  0  0999 V2000
  -26.7790  -21.1170   19.1790 C   0  0  0  0  0  1  0  0  0  0  0  0
  -27.6180  -21.6930   20.3330 C   0  0  0  0  0  3  0  0  0  0  0  0
  -28.4720  -22.8450   19.8700 N   0  0  0  0  0  4  0  0  0  0  0  0
  -29.3720  -22.7770   20.3190 H   0  0  0  0  0  0  0  0  0  0  0  0
  -28.6400  -22.7240   18.8810 H   0  0  0  0  0  0  0  0  0  0  0  0
  -27.9430  -24.2400   20.1190 C   0  0  0  0  0  2  0  0  0  0  0  0
  -28.5190  -25.3560   19.1700 C   0  0  0  0  0  2  0  0  0  0  0  0
  -28.4850  -26.7470   19.6140 O   0  0  0  0  0  0  0  0  0  0  0  0
  -24.6740  -31.6700   23.0980 C   0  0  0  0  0  0  0  0  0  0  0  0
  -27.3120  -27.4880   19.6260 C   0  0  0  0  0  0  0  0  0  0  0  0
  -23.4630  -30.3790   21.3730 C   0  0  0  0  0  3  0  0  0  0  0  0
  -24.9080  -28.9940   19.7920 C   0  0  0  0  0  0  0  0  0  0  0  0
  -25.9780  -30.7950   21.1550 C   0  0  0  0  0  2  0  0  0  0  0  0
  -26.0710  -29.4800   20.3990 C   0  0  0  0  0  0  0  0  0  0  0  0
  -27.2760  -28.7360   20.3050 C   0  0  0  0  0  3  0  0  0  0  0  0
  -26.1290  -27.0410   18.9960 C   0  0  0  0  0  3  0  0  0  0  0  0
  -24.9370  -27.7830   19.0820 C   0  0  0  0  0  3  0  0  0  0  0  0
  -23.6510  -29.8230   19.9380 C   0  0  0  0  0  2  0  0  0  0  0  0
  -24.7250  -30.9590   21.9340 N   0  0  0  0  0  0  0  0  0  0  0  0
  -23.5990  -31.8750   23.6800 O   0  0  0  0  0  0  0  0  0  0  0  0
  -22.8510  -29.2720   22.2620 C   0  0  0  0  0  0  0  0  0  0  0  0
  -21.5270  -29.0740   22.1540 N   0  0  0  0  0  0  0  0  0  0  0  0
  -23.5660  -28.5970   23.0070 O   0  0  0  0  0  0  0  0  0  0  0  0
  -21.0140  -29.6720   21.5200 H   0  0  0  0  0  0  0  0  0  0  0  0
  -18.1920  -27.7590   22.6140 C   0  0  0  0  0  0  0  0  0  0  0  0
  -20.7470  -28.0580   22.8590 C   0  0  0  0  0  3  0  0  0  0  0  0
  -20.8700  -26.6790   22.1700 C   0  0  0  0  0  2  0  0  0  0  0  0
  -19.7560  -26.4100   21.1540 C   0  0  0  0  0  2  0  0  0  0  0  0
  -18.3860  -26.4710   21.8340 C   0  0  0  0  0  2  0  0  0  0  0  0
  -19.3000  -28.5120   23.0850 C   0  0  0  0  0  0  0  0  0  0  0  0
  -19.0660  -29.7170   23.7810 C   0  0  0  0  0  3  0  0  0  0  0  0
  -17.7530  -30.1700   24.0110 C   0  0  0  0  0  3  0  0  0  0  0  0
  -16.6590  -29.4130   23.5590 C   0  0  0  0  0  3  0  0  0  0  0  0
  -16.8790  -28.2100   22.8660 C   0  0  0  0  0  3  0  0  0  0  0  0
  -25.9590  -32.2770   23.7430 C   0  0  0  0  0  3  0  0  0  0  0  0
  -25.6260  -33.6360   24.1950 N   0  0  0  0  0  0  0  0  0  0  0  0
  -25.9180  -34.7550   23.5190 C   0  0  0  0  0  0  0  0  0  0  0  0
  -26.5680  -34.7510   22.4710 O   0  0  0  0  0  0  0  0  0  0  0  0
  -25.0470  -33.7080   25.0180 H   0  0  0  0  0  0  0  0  0  0  0  0
  -24.1440  -36.5290   23.3440 C   0  0  0  0  0  1  0  0  0  0  0  0
  -25.4090  -36.0900   24.0980 C   0  0  0  0  0  3  0  0  0  0  0  0
  -27.5410  -36.9550   24.9580 C   0  0  0  0  0  1  0  0  0  0  0  0
  -26.4170  -37.1710   24.0520 N   0  0  0  0  0  0  0  0  0  0  0  0
  -25.9950  -38.0680   24.2790 H   0  0  0  0  0  0  0  0  0  0  0  0
  -26.5230  -31.4170   24.9390 C   0  0  1  0  0  0  0  0  0  0  0  0
  -25.4640  -31.0740   26.0110 C   0  0  0  0  0  1  0  0  0  0  0  0
  -27.1200  -30.0870   24.4230 C   0  0  0  0  0  1  0  0  0  0  0  0
  -27.6790  -32.1770   25.6300 C   0  0  0  0  0  1  0  0  0  0  0  0
  -28.3520  -20.5970   21.2030 C   0  0  0  0  0  2  0  0  0  0  0  0
  -28.4470  -19.0550   20.8050 C   0  0  0  0  0  2  0  0  0  0  0  0
  -32.0920  -19.3250   19.5990 C   0  0  0  0  0  2  0  0  0  0  0  0
  -32.8290  -18.0580   19.2070 C   0  0  0  0  0  2  0  0  0  0  0  0
  -31.0210  -19.1130   20.6720 C   0  0  0  0  0  2  0  0  0  0  0  0
  -31.8830  -16.8950   18.8570 C   0  0  0  0  0  2  0  0  0  0  0  0
  -29.7590  -16.8060   20.2050 C   0  0  0  0  0  2  0  0  0  0  0  0
  -29.7290  -18.4210   20.1530 C   0  0  0  0  0  3  0  0  0  0  0  0
  -31.1580  -16.0720   20.0310 C   0  0  2  0  0  0  0  0  0  0  0  0
  -31.8980  -16.0830   21.4160 C   0  0  0  0  0  1  0  0  0  0  0  0
  -31.2870  -14.5350   19.5990 C   0  0  0  0  0  0  0  0  0  0  0  0
  -30.6390  -12.3050   18.7630 C   0  0  0  0  0  2  0  0  0  0  0  0
  -29.6800  -12.4340   17.5700 C   0  0  0  0  0  2  0  0  0  0  0  0
  -28.2370  -12.3850   18.0900 C   0  0  0  0  0  2  0  0  0  0  0  0
  -27.9940  -13.3600   19.2750 C   0  0  0  0  0  3  0  0  0  0  0  0
  -29.1250  -13.3440   20.3300 C   0  0  0  0  0  2  0  0  0  0  0  0
  -30.4070  -13.4840   19.6360 N   0  0  0  0  0  0  0  0  0  0  0  0
  -32.4010  -14.2770   19.1530 O   0  0  0  0  0  0  0  0  0  0  0  0
  -25.7180  -14.0720   20.2120 C   0  0  0  0  0  0  0  0  0  0  0  0
  -24.6380  -13.3570   20.6490 C   0  0  0  0  0  0  0  0  0  0  0  0
  -25.0120  -11.9780   20.5620 C   0  0  0  0  0  0  0  0  0  0  0  0
  -26.6830  -13.1400   19.8770 N   0  0  0  0  0  0  0  0  0  0  0  0
  -26.2710  -11.8720   20.1550 N   0  0  0  0  0  0  0  0  0  0  0  0
  -24.2240  -10.7590   20.7870 C   0  0  0  0  0  0  0  0  0  0  0  0
  -24.6250   -9.7790   21.7200 C   0  0  0  0  0  3  0  0  0  0  0  0
  -23.8370   -8.6280   21.9320 C   0  0  0  0  0  3  0  0  0  0  0  0
  -22.6330   -8.4460   21.2110 C   0  0  0  0  0  0  0  0  0  0  0  0
  -22.2520   -9.4140   20.2640 C   0  0  0  0  0  3  0  0  0  0  0  0
  -23.0400  -10.5570   20.0510 C   0  0  0  0  0  3  0  0  0  0  0  0
  -21.8180   -7.3460   21.3340 O   0  0  0  0  0  0  0  0  0  0  0  0
  -21.7140   -6.6570   22.5150 C   0  0  0  0  0  0  0  0  0  0  0  0
  -21.3030   -7.2860   23.7100 C   0  0  0  0  0  3  0  0  0  0  0  0
  -21.1400   -6.5260   24.8870 C   0  0  0  0  0  3  0  0  0  0  0  0
  -21.3780   -5.1380   24.8660 C   0  0  0  0  0  0  0  0  0  0  0  0
  -21.7820   -4.5100   23.6750 C   0  0  0  0  0  3  0  0  0  0  0  0
  -21.9480   -5.2670   22.5020 C   0  0  0  0  0  0  0  0  0  0  0  0
  -22.3160   -4.6530   21.3520 F   0  0  0  0  0  0  0  0  0  0  0  0
  -21.2160   -4.4060   25.9930 F   0  0  0  0  0  0  0  0  0  0  0  0
  -23.2990  -13.9120   21.0360 C   0  0  0  0  0  0  0  0  0  0  0  0
  -22.6050  -13.2560   21.9590 N   0  0  0  0  0  0  0  0  0  0  0  0
  -22.8820  -14.9640   20.5520 O   0  0  0  0  0  0  0  0  0  0  0  0
  -22.9550  -12.4030   22.3670 H   0  0  0  0  0  0  0  0  0  0  0  0
  -21.7090  -13.6140   22.2610 H   0  0  0  0  0  0  0  0  0  0  0  0
  -25.9580  -15.4330   20.0400 N   0  0  0  0  0  0  0  0  0  0  0  0
  -25.2580  -16.1420   20.2310 H   0  0  0  0  0  0  0  0  0  0  0  0
  -26.8200  -15.8200   19.6830 H   0  0  0  0  0  0  0  0  0  0  0  0
  2  1  1  0
  2 49  1  0
  3  6  1  0
  3  4  1  0
  3  2  1  0
  5  3  1  0
  7  8  1  0
  7  6  1  0
  8 10  1  0
  9 20  2  0
 10 15  1  0
 11 19  1  0
 11 21  1  0
 12 18  1  0
 12 14  1  0
 13 19  1  0
 14 13  1  0
 15 14  2  0
 16 17  1  0
 16 10  2  0
 17 12  2  0
 18 11  1  0
 19  9  1  0
 21 23  2  0
 22 21  1  0
 24 22  1  0
 25 34  2  0
 25 30  1  0
 26 22  1  0
 26 30  1  0
 27 26  1  0
 28 29  1  0
 28 27  1  0
 29 25  1  0
 30 31  2  0
 31 32  1  0
 33 32  2  0
 34 33  1  0
 35  9  1  0
 35 36  1  0
 35 45  1  0
 36 39  1  0
 37 41  1  0
 37 36  1  0
 38 37  2  0
 41 40  1  0
 43 41  1  0
 43 44  1  0
 43 42  1  0
 45 48  1  1
 45 46  1  0
 47 45  1  0
 50 49  1  0
 51 53  1  0
 52 51  1  0
 54 52  1  0
 54 57  1  0
 56 55  1  0
 56 53  1  0
 56 50  1  0
 57 55  1  0
 57 58  1  1
 59 65  1  0
 59 57  1  0
 60 65  1  0
 61 62  1  0
 61 60  1  0
 63 62  1  0
 63 70  1  0
 63 64  1  0
 65 64  1  0
 66 59  2  0
 67 68  2  0
 68 87  1  0
 69 68  1  0
 69 72  1  0
 70 71  1  0
 70 67  1  0
 71 69  2  0
 72 73  1  0
 73 74  2  0
 75 78  1  0
 75 74  1  0
 76 75  2  0
 77 76  1  0
 77 72  2  0
 78 79  1  0
 79 80  1  0
 80 81  2  0
 82 81  1  0
 82 86  1  0
 83 82  2  0
 84 79  2  0
 84 83  1  0
 85 84  1  0
 87 88  1  0
 88 91  1  0
 88 90  1  0
 89 87  2  0
 92 67  1  0
 92 93  1  0
 94 92  1  0
M  ISO  4   7 101   8 101  57 100  59 100
M  END
>  <TORSDO>  (73) 
F 22

>  <SCORE>  (73) 
-11.212

>  <name>  (73) 
75

>  <ligand_id>  (73) 
75

>  <original_smiles>  (73) 
[H]c1c([H])c([H])c2c(c1[H])C([H])([H])C([H])([H])C([H])([H])C2([H])N([H])C(=O)C1([H])N(C(=O)C([H])(N([H])C(=O)C([H])(N([H])C([H])([H])[H])C([H])([H])[H])C(C([H])([H])[H])(C([H])([H])[H])C([H])([H])[H])C([H])([H])c2c([H])c(OC([H])([H])C([H])([H])[N+]([H])([H])C([H])(C([H])([H])[H])C([H])([H])C([H])([H])C3([H])C([H])([H])C([H])([H])C([H])([H])C([H])([H])C(C(=O)N4C([H])([H])C([H])([H])C([H])([H])C([H])(n5nc(-c6c([H])c([H])c(Oc7c([H])c([H])c(F)c([H])c7F)c([H])c6[H])c(C(=O)N([H])[H])c5N([H])[H])C4([H])[H])(C([H])([H])[H])C3([H])[H])c([H])c([H])c2C1([H])[H]

>  <smiles>  (73) 
[H]c1c([H])c([H])c2c(c1[H])C([H])([H])C([H])([H])C([H])([H])C2([H])N([H])C(=O)C1([H])N(C(=O)C([H])(N([H])C(=O)C([H])(N([H])C([H])([H])[H])C([H])([H])[H])C(C([H])([H])[H])(C([H])([H])[H])C([H])([H])[H])C([H])([H])c2c([H])c(OC([H])([H])C([H])([H])[N+]([H])([H])C([H])(C([H])([H])[H])C([H])([H])C([H])([H])C3([H])C([H])([H])C([H])([H])C([H])([H])C([H])([H])C(C(=O)N4C([H])([H])C([H])([H])C([H])([H])C([H])(n5nc(-c6c([H])c([H])c(Oc7c([H])c([H])c(F)c([H])c7F)c([H])c6[H])c(C(=O)N([H])[H])c5N([H])[H])C4([H])[H])(C([H])([H])[H])C3([H])[H])c([H])c([H])c2C1([H])[H]

$$$$
76:0:0
     RDKit          3D

 96104  0  0  1  0  0  0  0  0999 V2000
  -30.6130  -21.8100   20.6770 C   0  0  0  0  0  2  0  0  0  0  0  0
  -30.5730  -20.4350   19.9080 C   0  0  0  0  0  3  0  0  0  0  0  0
  -31.2390  -19.1590   20.5650 C   0  0  0  0  0  3  0  0  0  0  0  0
  -31.4630  -17.9570   19.7010 N   0  0  0  0  0  0  0  0  0  0  0  0
  -32.0190  -18.1780   18.8820 H   0  0  0  0  0  0  0  0  0  0  0  0
  -27.6920  -17.1800   20.1540 C   0  0  0  0  0  3  0  0  0  0  0  0
  -28.5750  -16.2350   20.7250 C   0  0  0  0  0  3  0  0  0  0  0  0
  -28.0480  -17.8380   18.9630 C   0  0  0  0  0  3  0  0  0  0  0  0
  -29.8780  -16.0560   20.1940 C   0  0  0  0  0  0  0  0  0  0  0  0
  -29.3910  -17.8140   18.5560 C   0  0  0  0  0  0  0  0  0  0  0  0
  -30.3270  -17.1690   19.3930 C   0  0  0  0  0  0  0  0  0  0  0  0
  -29.8330  -18.5730   17.3080 C   0  0  0  0  0  1  0  0  0  0  0  0
  -30.6780  -14.7230   20.2990 C   0  0  0  0  0  0  0  0  0  0  0  0
  -30.4790  -12.4410   19.3460 C   0  0  0  0  0  2  0  0  0  0  0  0
  -29.5530  -12.5050   18.1080 C   0  0  0  0  0  2  0  0  0  0  0  0
  -28.0660  -12.3530   18.5050 C   0  0  0  0  0  2  0  0  0  0  0  0
  -27.6820  -13.2640   19.6990 C   0  0  0  0  0  3  0  0  0  0  0  0
  -28.7250  -13.1290   20.8280 C   0  0  0  0  0  2  0  0  0  0  0  0
  -30.0390  -13.4990   20.2800 N   0  0  0  0  0  0  0  0  0  0  0  0
  -31.8840  -14.7740   20.0400 O   0  0  0  0  0  0  0  0  0  0  0  0
  -25.2780  -13.8960   20.3600 C   0  0  0  0  0  0  0  0  0  0  0  0
  -24.2050  -13.1480   20.7580 C   0  0  0  0  0  0  0  0  0  0  0  0
  -24.6630  -11.7980   20.7720 C   0  0  0  0  0  0  0  0  0  0  0  0
  -26.3270  -13.0080   20.1780 N   0  0  0  0  0  0  0  0  0  0  0  0
  -25.9570  -11.7390   20.4790 N   0  0  0  0  0  0  0  0  0  0  0  0
  -23.9220  -10.5520   20.9830 C   0  0  0  0  0  0  0  0  0  0  0  0
  -24.3540   -9.5880   21.9200 C   0  0  0  0  0  3  0  0  0  0  0  0
  -23.6140   -8.4040   22.1180 C   0  0  0  0  0  3  0  0  0  0  0  0
  -22.4300   -8.1770   21.3780 C   0  0  0  0  0  0  0  0  0  0  0  0
  -22.0200   -9.1270   20.4270 C   0  0  0  0  0  3  0  0  0  0  0  0
  -22.7600  -10.3020   20.2260 C   0  0  0  0  0  3  0  0  0  0  0  0
  -21.6600   -7.0450   21.4850 O   0  0  0  0  0  0  0  0  0  0  0  0
  -21.6350   -6.2990   22.6350 C   0  0  0  0  0  0  0  0  0  0  0  0
  -21.2740   -6.8620   23.8790 C   0  0  0  0  0  3  0  0  0  0  0  0
  -21.1930   -6.0460   25.0240 C   0  0  0  0  0  3  0  0  0  0  0  0
  -21.4610   -4.6670   24.9260 C   0  0  0  0  0  0  0  0  0  0  0  0
  -21.8140   -4.1040   23.6870 C   0  0  0  0  0  3  0  0  0  0  0  0
  -21.8980   -4.9180   22.5450 C   0  0  0  0  0  0  0  0  0  0  0  0
  -22.2190   -4.3680   21.3490 F   0  0  0  0  0  0  0  0  0  0  0  0
  -21.3740   -3.8810   26.0250 F   0  0  0  0  0  0  0  0  0  0  0  0
  -22.8120  -13.6510   21.0060 C   0  0  0  0  0  0  0  0  0  0  0  0
  -22.0740  -12.9910   21.8930 N   0  0  0  0  0  0  0  0  0  0  0  0
  -22.3880  -14.6620   20.4470 O   0  0  0  0  0  0  0  0  0  0  0  0
  -22.4280  -12.1700   22.3610 H   0  0  0  0  0  0  0  0  0  0  0  0
  -21.1400  -13.3070   22.1100 H   0  0  0  0  0  0  0  0  0  0  0  0
  -25.4250  -15.2450   20.1060 N   0  0  0  0  0  0  0  0  0  0  0  0
  -24.6450  -15.8910   20.1250 H   0  0  0  0  0  0  0  0  0  0  0  0
  -26.2820  -15.6570   19.7510 H   0  0  0  0  0  0  0  0  0  0  0  0
  -29.5440  -22.8630   20.1760 C   0  0  0  0  0  2  0  0  0  0  0  0
  -29.5550  -24.3750   20.6640 C   0  0  0  0  0  3  0  0  0  0  0  0
  -29.4550  -24.4780   22.1410 N   0  0  0  0  0  4  0  0  0  0  0  0
  -29.4620  -25.4500   22.4070 H   0  0  0  0  0  0  0  0  0  0  0  0
  -30.2310  -24.0380   22.6050 H   0  0  0  0  0  0  0  0  0  0  0  0
  -28.6020  -24.0820   22.4970 H   0  0  0  0  0  0  0  0  0  0  0  0
  -28.3910  -25.2190   20.0170 C   0  0  0  0  0  2  0  0  0  0  0  0
  -28.4210  -26.6530   20.2710 O   0  0  0  0  0  0  0  0  0  0  0  0
  -24.5930  -31.8910   23.2450 C   0  0  0  0  0  0  0  0  0  0  0  0
  -27.2360  -27.3920   20.2100 C   0  0  0  0  0  0  0  0  0  0  0  0
  -23.3760  -30.4850   21.6070 C   0  0  0  0  0  3  0  0  0  0  0  0
  -24.8280  -28.9280   20.1880 C   0  0  0  0  0  0  0  0  0  0  0  0
  -25.9020  -30.8280   21.4060 C   0  0  0  0  0  2  0  0  0  0  0  0
  -25.9850  -29.4470   20.7810 C   0  0  0  0  0  0  0  0  0  0  0  0
  -27.1830  -28.6890   20.7860 C   0  0  0  0  0  3  0  0  0  0  0  0
  -26.0550  -26.8990   19.6000 C   0  0  0  0  0  3  0  0  0  0  0  0
  -24.8640  -27.6570   19.5870 C   0  0  0  0  0  3  0  0  0  0  0  0
  -23.5850  -29.7950   20.2300 C   0  0  0  0  0  2  0  0  0  0  0  0
  -24.6420  -31.0870   22.1440 N   0  0  0  0  0  0  0  0  0  0  0  0
  -23.5130  -32.1670   23.7880 O   0  0  0  0  0  0  0  0  0  0  0  0
  -22.7180  -29.4770   22.5770 C   0  0  0  0  0  0  0  0  0  0  0  0
  -21.3900  -29.3010   22.4560 N   0  0  0  0  0  0  0  0  0  0  0  0
  -23.3960  -28.8530   23.3980 O   0  0  0  0  0  0  0  0  0  0  0  0
  -20.8980  -29.8610   21.7740 H   0  0  0  0  0  0  0  0  0  0  0  0
  -18.0140  -28.1150   22.9570 C   0  0  0  0  0  0  0  0  0  0  0  0
  -20.5730  -28.3710   23.2330 C   0  0  0  0  0  3  0  0  0  0  0  0
  -20.6750  -26.9340   22.6710 C   0  0  0  0  0  2  0  0  0  0  0  0
  -19.5760  -26.6060   21.6550 C   0  0  0  0  0  2  0  0  0  0  0  0
  -18.1920  -26.7590   22.2930 C   0  0  0  0  0  2  0  0  0  0  0  0
  -19.1330  -28.8770   23.3850 C   0  0  0  0  0  0  0  0  0  0  0  0
  -18.9160  -30.1470   23.9630 C   0  0  0  0  0  3  0  0  0  0  0  0
  -17.6130  -30.6520   24.1210 C   0  0  0  0  0  3  0  0  0  0  0  0
  -16.5070  -29.8870   23.7110 C   0  0  0  0  0  3  0  0  0  0  0  0
  -16.7080  -28.6210   23.1330 C   0  0  0  0  0  3  0  0  0  0  0  0
  -25.8830  -32.5180   23.8600 C   0  0  0  0  0  3  0  0  0  0  0  0
  -26.4110  -31.7410   25.1280 C   0  0  1  0  0  0  0  0  0  0  0  0
  -25.3290  -31.5080   26.2070 C   0  0  0  0  0  1  0  0  0  0  0  0
  -26.9830  -30.3600   24.7280 C   0  0  0  0  0  1  0  0  0  0  0  0
  -27.5680  -32.5280   25.7870 C   0  0  0  0  0  1  0  0  0  0  0  0
  -25.5810  -33.9150   24.1960 N   0  0  0  0  0  0  0  0  0  0  0  0
  -25.9060  -34.9690   23.4330 C   0  0  0  0  0  0  0  0  0  0  0  0
  -26.5630  -34.8670   22.3930 O   0  0  0  0  0  0  0  0  0  0  0  0
  -24.9980  -34.0700   25.0060 H   0  0  0  0  0  0  0  0  0  0  0  0
  -24.1670  -36.7560   23.1070 C   0  0  0  0  0  1  0  0  0  0  0  0
  -25.4230  -36.3570   23.8970 C   0  0  0  0  0  3  0  0  0  0  0  0
  -27.5740  -37.2440   24.6830 C   0  0  0  0  0  1  0  0  0  0  0  0
  -26.4520  -37.4130   23.7650 N   0  0  0  0  0  0  0  0  0  0  0  0
  -26.0450  -38.3310   23.9230 H   0  0  0  0  0  0  0  0  0  0  0  0
  2  3  2  0
  2  1  1  0
  4  3  1  0
  5  4  1  0
  6  7  1  0
  8  6  2  0
  9 13  1  0
  9  7  2  0
 10  8  1  0
 10 11  2  0
 11  4  1  0
 11  9  1  0
 12 10  1  0
 14 19  1  0
 15 16  1  0
 15 14  1  0
 17 16  1  0
 17 24  1  0
 17 18  1  0
 19 13  1  0
 19 18  1  0
 20 13  2  0
 21 22  2  0
 22 23  1  0
 22 41  1  0
 23 26  1  0
 24 21  1  0
 24 25  1  0
 25 23  2  0
 26 27  1  0
 27 28  2  0
 29 32  1  0
 29 28  1  0
 30 29  2  0
 31 30  1  0
 31 26  2  0
 32 33  1  0
 33 34  1  0
 34 35  2  0
 36 35  1  0
 36 40  1  0
 37 36  2  0
 38 33  2  0
 38 37  1  0
 39 38  1  0
 41 42  1  0
 42 45  1  0
 42 44  1  0
 43 41  2  0
 46 47  1  0
 46 21  1  0
 48 46  1  0
 49 50  1  0
 49  1  1  0
 50 55  1  0
 50 51  1  0
 51 52  1  0
 51 54  1  0
 51 53  1  0
 55 56  1  0
 57 68  2  0
 58 56  1  0
 58 63  1  0
 59 67  1  0
 59 69  1  0
 60 66  1  0
 60 62  1  0
 61 67  1  0
 62 63  2  0
 62 61  1  0
 64 58  2  0
 65 64  1  0
 65 60  2  0
 66 59  1  0
 67 57  1  0
 69 71  2  0
 70 69  1  0
 72 70  1  0
 73 82  2  0
 73 78  1  0
 74 70  1  0
 74 78  1  0
 75 74  1  0
 76 77  1  0
 76 75  1  0
 77 73  1  0
 78 79  2  0
 79 80  1  0
 81 80  2  0
 82 81  1  0
 83 57  1  0
 83 88  1  0
 83 84  1  0
 84 87  1  1
 84 85  1  0
 86 84  1  0
 88 91  1  0
 89 93  1  0
 89 88  1  0
 90 89  2  0
 93 92  1  0
 95 93  1  0
 95 96  1  0
 95 94  1  0
M  ISO  4   9 100  13 100  55 101  56 101
M  END
>  <TORSDO>  (74) 
F 24

>  <SCORE>  (74) 
-12.852

>  <name>  (74) 
76

>  <ligand_id>  (74) 
76

>  <original_smiles>  (74) 
[H]c1c([H])c(C(=O)N2C([H])([H])C([H])([H])C([H])([H])C([H])(n3nc(-c4c([H])c([H])c(Oc5c([H])c([H])c(F)c([H])c5F)c([H])c4[H])c(C(=O)N([H])[H])c3N([H])[H])C2([H])[H])c(N([H])C([H])([H])C([H])([H])C([H])([H])C([H])([H])C([H])(C([H])([H])Oc2c([H])c([H])c3c(c2[H])C([H])([H])N(C(=O)C([H])(N([H])C(=O)C([H])(N([H])C([H])([H])[H])C([H])([H])[H])C(C([H])([H])[H])(C([H])([H])[H])C([H])([H])[H])C([H])(C(=O)N([H])C2([H])c4c([H])c([H])c([H])c([H])c4C([H])([H])C([H])([H])C2([H])[H])C3([H])[H])[N+]([H])([H])[H])c(C([H])([H])[H])c1[H]

>  <smiles>  (74) 
[H]c1c([H])c(C(=O)N2C([H])([H])C([H])([H])C([H])([H])C([H])(n3nc(-c4c([H])c([H])c(Oc5c([H])c([H])c(F)c([H])c5F)c([H])c4[H])c(C(=O)N([H])[H])c3N([H])[H])C2([H])[H])c(N([H])C([H])([H])C([H])([H])C([H])([H])C([H])([H])C([H])(C([H])([H])Oc2c([H])c([H])c3c(c2[H])C([H])([H])N(C(=O)C([H])(N([H])C(=O)C([H])(N([H])C([H])([H])[H])C([H])([H])[H])C(C([H])([H])[H])(C([H])([H])[H])C([H])([H])[H])C([H])(C(=O)N([H])C2([H])c4c([H])c([H])c([H])c([H])c4C([H])([H])C([H])([H])C2([H])[H])C3([H])[H])[N+]([H])([H])[H])c(C([H])([H])[H])c1[H]

$$$$
77:0:0
     RDKit          3D

 89 96  0  0  1  0  0  0  0  0999 V2000
  -28.7590  -21.1980   19.9650 C   0  0  0  0  0  3  0  0  0  0  0  0
  -29.3200  -19.8060   20.6760 N   0  0  0  0  0  4  0  0  0  0  0  0
  -30.1720  -20.0710   21.1440 H   0  0  0  0  0  0  0  0  0  0  0  0
  -28.6640  -19.6090   21.4130 H   0  0  0  0  0  0  0  0  0  0  0  0
  -29.7140  -18.3320   20.0280 C   0  0  0  0  0  3  0  0  0  0  0  0
  -31.1380  -18.5280   19.5240 C   0  0  0  0  0  3  0  0  0  0  0  0
  -32.0580  -18.9310   20.2410 O   0  0  0  0  0  0  0  0  0  0  0  0
  -29.6900  -16.7200   20.7750 C   0  0  0  0  0  2  0  0  0  0  0  0
  -30.4430  -15.2120   20.3590 C   0  0  0  0  0  0  0  0  0  0  0  0
  -30.4180  -12.7850   19.4600 C   0  0  0  0  0  2  0  0  0  0  0  0
  -29.5130  -12.6500   18.2090 C   0  0  0  0  0  2  0  0  0  0  0  0
  -28.0490  -12.4030   18.6150 C   0  0  0  0  0  2  0  0  0  0  0  0
  -27.5990  -13.3410   19.7620 C   0  0  0  0  0  3  0  0  0  0  0  0
  -28.6310  -13.4300   20.9070 C   0  0  0  0  0  2  0  0  0  0  0  0
  -29.8940  -13.9040   20.3210 N   0  0  0  0  0  0  0  0  0  0  0  0
  -31.6360  -15.2290   20.0260 O   0  0  0  0  0  0  0  0  0  0  0  0
  -25.2080  -13.9020   20.4540 C   0  0  0  0  0  0  0  0  0  0  0  0
  -24.1420  -13.1260   20.8130 C   0  0  0  0  0  0  0  0  0  0  0  0
  -24.6140  -11.7770   20.8090 C   0  0  0  0  0  0  0  0  0  0  0  0
  -26.2590  -13.0290   20.2430 N   0  0  0  0  0  0  0  0  0  0  0  0
  -25.9120  -11.7450   20.5240 N   0  0  0  0  0  0  0  0  0  0  0  0
  -23.8880  -10.5140   21.0020 C   0  0  0  0  0  0  0  0  0  0  0  0
  -24.3080   -9.5550   21.9510 C   0  0  0  0  0  3  0  0  0  0  0  0
  -23.5790   -8.3600   22.1320 C   0  0  0  0  0  3  0  0  0  0  0  0
  -22.4160   -8.1150   21.3650 C   0  0  0  0  0  0  0  0  0  0  0  0
  -22.0140   -9.0620   20.4060 C   0  0  0  0  0  3  0  0  0  0  0  0
  -22.7450  -10.2480   20.2230 C   0  0  0  0  0  3  0  0  0  0  0  0
  -21.6590   -6.9700   21.4550 O   0  0  0  0  0  0  0  0  0  0  0  0
  -21.6020   -6.2350   22.6110 C   0  0  0  0  0  0  0  0  0  0  0  0
  -21.1720   -6.7990   23.8330 C   0  0  0  0  0  3  0  0  0  0  0  0
  -21.0610   -5.9900   24.9820 C   0  0  0  0  0  3  0  0  0  0  0  0
  -21.3700   -4.6180   24.9100 C   0  0  0  0  0  0  0  0  0  0  0  0
  -21.7920   -4.0540   23.6940 C   0  0  0  0  0  3  0  0  0  0  0  0
  -21.9050   -4.8600   22.5470 C   0  0  0  0  0  0  0  0  0  0  0  0
  -22.2930   -4.3070   21.3720 F   0  0  0  0  0  0  0  0  0  0  0  0
  -21.2570   -3.8390   26.0110 F   0  0  0  0  0  0  0  0  0  0  0  0
  -22.7380  -13.6000   21.0470 C   0  0  0  0  0  0  0  0  0  0  0  0
  -21.9940  -12.9120   21.9050 N   0  0  0  0  0  0  0  0  0  0  0  0
  -22.3090  -14.6180   20.5050 O   0  0  0  0  0  0  0  0  0  0  0  0
  -22.3540  -12.0890   22.3650 H   0  0  0  0  0  0  0  0  0  0  0  0
  -21.0490  -13.2110   22.1050 H   0  0  0  0  0  0  0  0  0  0  0  0
  -25.3660  -15.2720   20.2630 N   0  0  0  0  0  0  0  0  0  0  0  0
  -24.5890  -15.9180   20.3510 H   0  0  0  0  0  0  0  0  0  0  0  0
  -26.2110  -15.7120   19.9230 H   0  0  0  0  0  0  0  0  0  0  0  0
  -28.2420  -20.5690   17.5080 C   0  0  0  0  0  1  0  0  0  0  0  0
  -29.2020  -21.2640   18.4830 C   0  0  0  0  0  2  0  0  0  0  0  0
  -28.8300  -22.8720   20.5670 C   0  0  0  0  0  3  0  0  0  0  0  0
  -28.0000  -24.3540   20.0360 C   0  0  0  0  0  3  0  0  0  0  0  0
  -28.1920  -25.9420   20.3310 O   0  0  0  0  0  0  0  0  0  0  0  0
  -24.6230  -31.8550   23.2220 C   0  0  0  0  0  0  0  0  0  0  0  0
  -27.1710  -27.0070   20.2270 C   0  0  0  0  0  0  0  0  0  0  0  0
  -23.4210  -30.4500   21.5970 C   0  0  0  0  0  3  0  0  0  0  0  0
  -24.8650  -28.8480   20.1730 C   0  0  0  0  0  0  0  0  0  0  0  0
  -25.9830  -30.6770   21.4350 C   0  0  0  0  0  2  0  0  0  0  0  0
  -26.0510  -29.2690   20.7870 C   0  0  0  0  0  0  0  0  0  0  0  0
  -27.1990  -28.3670   20.7930 C   0  0  0  0  0  3  0  0  0  0  0  0
  -25.9600  -26.7260   19.5570 C   0  0  0  0  0  3  0  0  0  0  0  0
  -24.8410  -27.5970   19.5380 C   0  0  0  0  0  3  0  0  0  0  0  0
  -23.6420  -29.7610   20.2220 C   0  0  0  0  0  2  0  0  0  0  0  0
  -24.6970  -31.0190   22.1390 N   0  0  0  0  0  0  0  0  0  0  0  0
  -23.5360  -32.1480   23.7470 O   0  0  0  0  0  0  0  0  0  0  0  0
  -22.7340  -29.4570   22.5690 C   0  0  0  0  0  0  0  0  0  0  0  0
  -21.4030  -29.2920   22.4500 N   0  0  0  0  0  0  0  0  0  0  0  0
  -23.4040  -28.8340   23.3960 O   0  0  0  0  0  0  0  0  0  0  0  0
  -20.9190  -29.8460   21.7570 H   0  0  0  0  0  0  0  0  0  0  0  0
  -18.0210  -28.0890   22.9680 C   0  0  0  0  0  0  0  0  0  0  0  0
  -20.5810  -28.3610   23.2290 C   0  0  0  0  0  3  0  0  0  0  0  0
  -20.6840  -26.9240   22.6660 C   0  0  0  0  0  2  0  0  0  0  0  0
  -19.5820  -26.5910   21.6550 C   0  0  0  0  0  2  0  0  0  0  0  0
  -18.2010  -26.7360   22.2990 C   0  0  0  0  0  2  0  0  0  0  0  0
  -19.1390  -28.8590   23.3890 C   0  0  0  0  0  0  0  0  0  0  0  0
  -18.9150  -30.1220   23.9770 C   0  0  0  0  0  3  0  0  0  0  0  0
  -17.6080  -30.6180   24.1460 C   0  0  0  0  0  3  0  0  0  0  0  0
  -16.5060  -29.8460   23.7400 C   0  0  0  0  0  3  0  0  0  0  0  0
  -16.7130  -28.5830   23.1580 C   0  0  0  0  0  3  0  0  0  0  0  0
  -25.8980  -32.4990   23.8470 C   0  0  0  0  0  3  0  0  0  0  0  0
  -26.4090  -31.7400   25.1340 C   0  0  1  0  0  0  0  0  0  0  0  0
  -25.3140  -31.5150   26.2020 C   0  0  0  0  0  1  0  0  0  0  0  0
  -26.9890  -30.3560   24.7640 C   0  0  0  0  0  1  0  0  0  0  0  0
  -27.5610  -32.5380   25.7900 C   0  0  0  0  0  1  0  0  0  0  0  0
  -25.5830  -33.9000   24.1770 N   0  0  0  0  0  0  0  0  0  0  0  0
  -25.9150  -34.9590   23.4250 C   0  0  0  0  0  0  0  0  0  0  0  0
  -26.5830  -34.8580   22.3940 O   0  0  0  0  0  0  0  0  0  0  0  0
  -24.9900  -34.0500   24.9790 H   0  0  0  0  0  0  0  0  0  0  0  0
  -24.1890  -36.7610   23.0890 C   0  0  0  0  0  1  0  0  0  0  0  0
  -25.4320  -36.3480   23.8920 C   0  0  0  0  0  3  0  0  0  0  0  0
  -27.5730  -37.2280   24.7180 C   0  0  0  0  0  1  0  0  0  0  0  0
  -26.4680  -37.4000   23.7790 N   0  0  0  0  0  0  0  0  0  0  0  0
  -26.0640  -38.3210   23.9320 H   0  0  0  0  0  0  0  0  0  0  0  0
  1 46  1  0
  1 47  1  0
  1  2  1  0
  2  3  1  0
  2  4  1  0
  5  6  1  0
  5  2  1  0
  5  8  1  0
  6  7  2  0
  9  8  1  0
 10 15  1  0
 11 12  1  0
 11 10  1  0
 13 12  1  0
 13 20  1  0
 13 14  1  0
 15  9  1  0
 15 14  1  0
 16  9  2  0
 17 18  2  0
 18 37  1  0
 19 18  1  0
 19 22  1  0
 20 17  1  0
 20 21  1  0
 21 19  2  0
 22 23  1  0
 23 24  2  0
 25 28  1  0
 25 24  1  0
 26 25  2  0
 27 26  1  0
 27 22  2  0
 28 29  1  0
 29 30  1  0
 30 31  2  0
 32 31  1  0
 32 36  1  0
 33 32  2  0
 34 29  2  0
 34 33  1  0
 35 34  1  0
 37 38  1  0
 38 41  1  0
 38 40  1  0
 39 37  2  0
 42 43  1  0
 42 17  1  0
 44 42  1  0
 45 46  1  0
 48 49  1  0
 48 47  2  0
 50 61  2  0
 51 49  1  0
 51 56  1  0
 52 60  1  0
 52 62  1  0
 53 59  1  0
 53 55  1  0
 54 60  1  0
 55 56  2  0
 55 54  1  0
 57 51  2  0
 58 57  1  0
 58 53  2  0
 59 52  1  0
 60 50  1  0
 62 64  2  0
 63 62  1  0
 65 63  1  0
 66 75  2  0
 66 71  1  0
 67 63  1  0
 67 71  1  0
 68 67  1  0
 69 70  1  0
 69 68  1  0
 70 66  1  0
 71 72  2  0
 72 73  1  0
 74 73  2  0
 75 74  1  0
 76 50  1  0
 76 81  1  0
 76 77  1  0
 77 80  1  1
 77 78  1  0
 79 77  1  0
 81 84  1  0
 82 86  1  0
 82 81  1  0
 83 82  2  0
 86 85  1  0
 88 86  1  0
 88 89  1  0
 88 87  1  0
M  ISO  4   8 100   9 100  48 101  49 101
M  END
>  <TORSDO>  (75) 
F 23

>  <SCORE>  (75) 
-14.326

>  <name>  (75) 
77

>  <ligand_id>  (75) 
77

>  <original_smiles>  (75) 
[H]C(=O)C([H])(C([H])([H])C(=O)N1C([H])([H])C([H])([H])C([H])([H])C([H])(n2nc(-c3c([H])c([H])c(Oc4c([H])c([H])c(F)c([H])c4F)c([H])c3[H])c(C(=O)N([H])[H])c2N([H])[H])C1([H])[H])[N+]([H])([H])C([H])(C([H])([H])C([H])([H])[H])C([H])([H])C([H])([H])Oc1c([H])c([H])c2c(c1[H])C([H])([H])N(C(=O)C([H])(N([H])C(=O)C([H])(N([H])C([H])([H])[H])C([H])([H])[H])C(C([H])([H])[H])(C([H])([H])[H])C([H])([H])[H])C([H])(C(=O)N([H])C1([H])c3c([H])c([H])c([H])c([H])c3C([H])([H])C([H])([H])C1([H])[H])C2([H])[H]

>  <smiles>  (75) 
[H]C(=O)C([H])(C([H])([H])C(=O)N1C([H])([H])C([H])([H])C([H])([H])C([H])(n2nc(-c3c([H])c([H])c(Oc4c([H])c([H])c(F)c([H])c4F)c([H])c3[H])c(C(=O)N([H])[H])c2N([H])[H])C1([H])[H])[N+]([H])([H])C([H])(C([H])([H])C([H])([H])[H])C([H])([H])C([H])([H])Oc1c([H])c([H])c2c(c1[H])C([H])([H])N(C(=O)C([H])(N([H])C(=O)C([H])(N([H])C([H])([H])[H])C([H])([H])[H])C(C([H])([H])[H])(C([H])([H])[H])C([H])([H])[H])C([H])(C(=O)N([H])C1([H])c3c([H])c([H])c([H])c([H])c3C([H])([H])C([H])([H])C1([H])[H])C2([H])[H]

$$$$
78:0:0
     RDKit          3D

 98106  0  0  1  0  0  0  0  0999 V2000
  -31.3310  -19.7910   20.8800 C   0  0  0  0  0  2  0  0  0  0  0  0
  -30.3760  -20.9130   20.3850 C   0  0  0  0  0  2  0  0  0  0  0  0
  -30.8040  -22.3900   20.5130 C   0  0  0  0  0  2  0  0  0  0  0  0
  -29.7000  -23.2530   20.0160 N   0  0  0  0  0  4  0  0  0  0  0  0
  -28.8460  -22.8970   20.4170 H   0  0  0  0  0  0  0  0  0  0  0  0
  -29.6320  -23.1350   19.0160 H   0  0  0  0  0  0  0  0  0  0  0  0
  -29.7600  -24.7070   20.3240 C   0  0  0  0  0  2  0  0  0  0  0  0
  -28.4420  -25.4070   19.9140 C   0  0  0  0  0  2  0  0  0  0  0  0
  -28.4530  -26.8050   20.2190 O   0  0  0  0  0  0  0  0  0  0  0  0
  -24.5640  -31.9090   23.2660 C   0  0  0  0  0  0  0  0  0  0  0  0
  -27.2510  -27.4890   20.1940 C   0  0  0  0  0  0  0  0  0  0  0  0
  -23.3660  -30.4990   21.6240 C   0  0  0  0  0  3  0  0  0  0  0  0
  -24.8330  -28.9700   20.2010 C   0  0  0  0  0  0  0  0  0  0  0  0
  -25.8880  -30.8770   21.4260 C   0  0  0  0  0  2  0  0  0  0  0  0
  -25.9850  -29.5050   20.7910 C   0  0  0  0  0  0  0  0  0  0  0  0
  -27.1920  -28.7720   20.7850 C   0  0  0  0  0  3  0  0  0  0  0  0
  -26.0770  -26.9670   19.5960 C   0  0  0  0  0  3  0  0  0  0  0  0
  -24.8740  -27.7000   19.5990 C   0  0  0  0  0  3  0  0  0  0  0  0
  -23.5810  -29.8160   20.2460 C   0  0  0  0  0  2  0  0  0  0  0  0
  -24.6250  -31.1100   22.1650 N   0  0  0  0  0  0  0  0  0  0  0  0
  -23.4810  -32.1770   23.8050 O   0  0  0  0  0  0  0  0  0  0  0  0
  -22.7200  -29.4760   22.5850 C   0  0  0  0  0  0  0  0  0  0  0  0
  -21.3960  -29.2890   22.4580 N   0  0  0  0  0  0  0  0  0  0  0  0
  -23.4070  -28.8520   23.3990 O   0  0  0  0  0  0  0  0  0  0  0  0
  -20.9030  -29.8470   21.7750 H   0  0  0  0  0  0  0  0  0  0  0  0
  -18.0260  -28.0880   22.9580 C   0  0  0  0  0  0  0  0  0  0  0  0
  -20.5830  -28.3490   23.2290 C   0  0  0  0  0  3  0  0  0  0  0  0
  -20.6880  -26.9200   22.6510 C   0  0  0  0  0  2  0  0  0  0  0  0
  -19.5860  -26.5970   21.6360 C   0  0  0  0  0  2  0  0  0  0  0  0
  -18.2050  -26.7400   22.2810 C   0  0  0  0  0  2  0  0  0  0  0  0
  -19.1440  -28.8510   23.3880 C   0  0  0  0  0  0  0  0  0  0  0  0
  -18.9250  -30.1150   23.9790 C   0  0  0  0  0  3  0  0  0  0  0  0
  -17.6200  -30.6160   24.1430 C   0  0  0  0  0  3  0  0  0  0  0  0
  -16.5160  -29.8500   23.7300 C   0  0  0  0  0  3  0  0  0  0  0  0
  -16.7200  -28.5880   23.1430 C   0  0  0  0  0  3  0  0  0  0  0  0
  -25.8470  -32.5470   23.8870 C   0  0  0  0  0  3  0  0  0  0  0  0
  -26.3690  -31.7790   25.1620 C   0  0  1  0  0  0  0  0  0  0  0  0
  -25.2770  -31.5360   26.2310 C   0  0  0  0  0  1  0  0  0  0  0  0
  -26.9580  -30.4040   24.7680 C   0  0  0  0  0  1  0  0  0  0  0  0
  -27.5170  -32.5780   25.8220 C   0  0  0  0  0  1  0  0  0  0  0  0
  -25.5330  -33.9440   24.2110 N   0  0  0  0  0  0  0  0  0  0  0  0
  -25.8670  -34.9950   23.4500 C   0  0  0  0  0  0  0  0  0  0  0  0
  -26.5420  -34.8890   22.4210 O   0  0  0  0  0  0  0  0  0  0  0  0
  -24.9340  -34.1000   25.0090 H   0  0  0  0  0  0  0  0  0  0  0  0
  -24.1390  -36.7820   23.0740 C   0  0  0  0  0  1  0  0  0  0  0  0
  -25.3730  -36.3830   23.9000 C   0  0  0  0  0  3  0  0  0  0  0  0
  -27.4980  -37.2700   24.7480 C   0  0  0  0  0  1  0  0  0  0  0  0
  -26.4050  -37.4370   23.7950 N   0  0  0  0  0  0  0  0  0  0  0  0
  -25.9970  -38.3560   23.9380 H   0  0  0  0  0  0  0  0  0  0  0  0
  -30.4830  -18.5110   21.0440 C   0  0  0  0  0  3  0  0  0  0  0  0
  -31.1440  -17.0920   21.0980 C   0  0  0  0  0  3  0  0  0  0  0  0
  -30.8170  -14.6810   20.5710 C   0  0  0  0  0  0  0  0  0  0  0  0
  -30.5130  -12.5230   19.3860 C   0  0  0  0  0  2  0  0  0  0  0  0
  -29.5890  -12.6510   18.1590 C   0  0  0  0  0  2  0  0  0  0  0  0
  -28.1130  -12.4610   18.5620 C   0  0  0  0  0  2  0  0  0  0  0  0
  -27.7280  -13.3000   19.8040 C   0  0  0  0  0  3  0  0  0  0  0  0
  -28.7810  -13.1390   20.9350 C   0  0  0  0  0  2  0  0  0  0  0  0
  -30.0840  -13.5340   20.3790 N   0  0  0  0  0  0  0  0  0  0  0  0
  -32.0160  -14.6770   20.2820 O   0  0  0  0  0  0  0  0  0  0  0  0
  -30.2390  -15.8980   20.8950 N   0  0  0  0  0  0  0  0  0  0  0  0
  -25.3050  -13.9000   20.4370 C   0  0  0  0  0  0  0  0  0  0  0  0
  -24.2390  -13.1210   20.7900 C   0  0  0  0  0  0  0  0  0  0  0  0
  -24.7250  -11.7800   20.8050 C   0  0  0  0  0  0  0  0  0  0  0  0
  -26.3720  -13.0300   20.2610 N   0  0  0  0  0  0  0  0  0  0  0  0
  -26.0260  -11.7520   20.5470 N   0  0  0  0  0  0  0  0  0  0  0  0
  -24.0180  -10.5130   20.9980 C   0  0  0  0  0  0  0  0  0  0  0  0
  -24.4440   -9.5730   21.9600 C   0  0  0  0  0  3  0  0  0  0  0  0
  -23.7370   -8.3630   22.1340 C   0  0  0  0  0  3  0  0  0  0  0  0
  -22.5950   -8.0890   21.3450 C   0  0  0  0  0  0  0  0  0  0  0  0
  -22.1920   -9.0190   20.3710 C   0  0  0  0  0  3  0  0  0  0  0  0
  -22.9000  -10.2200   20.1940 C   0  0  0  0  0  3  0  0  0  0  0  0
  -21.8610   -6.9320   21.4290 O   0  0  0  0  0  0  0  0  0  0  0  0
  -21.7860   -6.2130   22.5940 C   0  0  0  0  0  0  0  0  0  0  0  0
  -21.3170   -6.7900   23.7950 C   0  0  0  0  0  3  0  0  0  0  0  0
  -21.1880   -5.9960   24.9520 C   0  0  0  0  0  3  0  0  0  0  0  0
  -21.5200   -4.6280   24.9080 C   0  0  0  0  0  0  0  0  0  0  0  0
  -21.9870   -4.0530   23.7130 C   0  0  0  0  0  3  0  0  0  0  0  0
  -22.1150   -4.8440   22.5580 C   0  0  0  0  0  0  0  0  0  0  0  0
  -22.5430   -4.2820   21.4020 F   0  0  0  0  0  0  0  0  0  0  0  0
  -21.3920   -3.8620   26.0170 F   0  0  0  0  0  0  0  0  0  0  0  0
  -22.8260  -13.5810   21.0010 C   0  0  0  0  0  0  0  0  0  0  0  0
  -22.0880  -12.9040   21.8730 N   0  0  0  0  0  0  0  0  0  0  0  0
  -22.3810  -14.5760   20.4290 O   0  0  0  0  0  0  0  0  0  0  0  0
  -22.4590  -12.0960   22.3520 H   0  0  0  0  0  0  0  0  0  0  0  0
  -21.1380  -13.1920   22.0630 H   0  0  0  0  0  0  0  0  0  0  0  0
  -25.4300  -15.2650   20.2340 N   0  0  0  0  0  0  0  0  0  0  0  0
  -24.6300  -15.8830   20.3090 H   0  0  0  0  0  0  0  0  0  0  0  0
  -26.2530  -15.7760   19.9290 H   0  0  0  0  0  0  0  0  0  0  0  0
  -28.8170  -16.2750   20.7090 C   0  0  0  0  0  2  0  0  0  0  0  0
  -29.2060  -18.1880   17.3590 C   0  0  0  0  0  3  0  0  0  0  0  0
  -28.0680  -19.0100   17.3610 C   0  0  0  0  0  3  0  0  0  0  0  0
  -29.4380  -17.3090   18.4310 C   0  0  0  0  0  3  0  0  0  0  0  0
  -27.1690  -18.9540   18.4400 C   0  0  0  0  0  3  0  0  0  0  0  0
  -28.5390  -17.2280   19.5240 C   0  0  0  0  0  0  0  0  0  0  0  0
  -27.4060  -18.0810   19.5210 C   0  0  0  0  0  0  0  0  0  0  0  0
  -26.5130  -18.0990   20.5890 N   0  0  0  0  0  0  0  0  0  0  0  0
  -25.8540  -18.8660   20.6580 H   0  0  0  0  0  0  0  0  0  0  0  0
  -26.8090  -17.7460   21.4910 H   0  0  0  0  0  0  0  0  0  0  0  0
  1 50  1  0
  2  3  1  0
  2  1  1  0
  4  7  1  0
  4  5  1  0
  4  3  1  0
  6  4  1  0
  8  9  1  0
  8  7  1  0
 10 21  2  0
 11  9  1  0
 11 16  1  0
 12 20  1  0
 12 22  1  0
 13 19  1  0
 13 15  1  0
 14 20  1  0
 15 14  1  0
 16 15  2  0
 17 18  1  0
 17 11  2  0
 18 13  2  0
 19 12  1  0
 20 10  1  0
 22 24  2  0
 23 22  1  0
 25 23  1  0
 26 35  2  0
 26 31  1  0
 27 23  1  0
 27 31  1  0
 28 27  1  0
 29 30  1  0
 29 28  1  0
 30 26  1  0
 31 32  2  0
 32 33  1  0
 34 33  2  0
 35 34  1  0
 36 10  1  0
 36 41  1  0
 36 37  1  0
 37 40  1  1
 37 38  1  0
 39 37  1  0
 41 44  1  0
 42 46  1  0
 42 41  1  0
 43 42  2  0
 46 45  1  0
 48 46  1  0
 48 49  1  0
 48 47  1  0
 50 51  2  0
 52 60  1  0
 53 58  1  0
 54 55  1  0
 54 53  1  0
 56 55  1  0
 56 64  1  0
 56 57  1  0
 58 52  1  0
 58 57  1  0
 59 52  2  0
 60 51  1  0
 61 62  2  0
 62 63  1  0
 62 81  1  0
 63 66  1  0
 64 61  1  0
 64 65  1  0
 65 63  2  0
 66 67  1  0
 67 68  2  0
 69 72  1  0
 69 68  1  0
 70 69  2  0
 71 70  1  0
 71 66  2  0
 72 73  1  0
 73 74  1  0
 74 75  2  0
 76 75  1  0
 76 80  1  0
 77 76  2  0
 78 73  2  0
 78 77  1  0
 79 78  1  0
 81 82  1  0
 82 85  1  0
 82 84  1  0
 83 81  2  0
 86 87  1  0
 86 61  1  0
 88 86  1  0
 89 60  1  0
 90 91  2  0
 90 92  1  0
 91 93  1  0
 92 94  2  0
 93 95  2  0
 94 89  1  0
 95 94  1  0
 95 96  1  0
 96 97  1  0
 96 98  1  0
M  ISO  4   8 101   9 101  52 100  60 100
M  END
>  <TORSDO>  (76) 
F 26

>  <SCORE>  (76) 
-12.091

>  <name>  (76) 
78

>  <ligand_id>  (76) 
78

>  <original_smiles>  (76) 
[H]c1c([H])c([H])c(C([H])([H])N(C(=O)N2C([H])([H])C([H])([H])C([H])([H])C([H])(n3nc(-c4c([H])c([H])c(Oc5c([H])c([H])c(F)c([H])c5F)c([H])c4[H])c(C(=O)N([H])[H])c3N([H])[H])C2([H])[H])C([H])([H])C([H])([H])C([H])([H])C([H])([H])C([H])([H])[N+]([H])([H])C([H])([H])C([H])([H])Oc2c([H])c([H])c3c(c2[H])C([H])([H])N(C(=O)C([H])(N([H])C(=O)C([H])(N([H])C([H])([H])[H])C([H])([H])[H])C(C([H])([H])[H])(C([H])([H])[H])C([H])([H])[H])C([H])(C(=O)N([H])C2([H])c4c([H])c([H])c([H])c([H])c4C([H])([H])C([H])([H])C2([H])[H])C3([H])[H])c(N([H])[H])c1[H]

>  <smiles>  (76) 
[H]c1c([H])c([H])c(C([H])([H])N(C(=O)N2C([H])([H])C([H])([H])C([H])([H])C([H])(n3nc(-c4c([H])c([H])c(Oc5c([H])c([H])c(F)c([H])c5F)c([H])c4[H])c(C(=O)N([H])[H])c3N([H])[H])C2([H])[H])C([H])([H])C([H])([H])C([H])([H])C([H])([H])C([H])([H])[N+]([H])([H])C([H])([H])C([H])([H])Oc2c([H])c([H])c3c(c2[H])C([H])([H])N(C(=O)C([H])(N([H])C(=O)C([H])(N([H])C([H])([H])[H])C([H])([H])[H])C(C([H])([H])[H])(C([H])([H])[H])C([H])([H])[H])C([H])(C(=O)N([H])C2([H])c4c([H])c([H])c([H])c([H])c4C([H])([H])C([H])([H])C2([H])[H])C3([H])[H])c(N([H])[H])c1[H]

$$$$
79:0:0
     RDKit          3D

 97105  0  0  1  0  0  0  0  0999 V2000
  -29.8290  -20.4640   21.2860 C   0  0  0  0  0  3  0  0  0  0  0  0
  -30.0290  -21.8670   20.6270 C   0  0  0  0  0  0  0  0  0  0  0  0
  -27.6620  -22.5320   21.0210 C   0  0  0  0  0  1  0  0  0  0  0  0
  -29.0500  -22.8230   20.6370 N   0  0  0  0  0  0  0  0  0  0  0  0
  -31.1220  -22.0790   20.0920 O   0  0  0  0  0  0  0  0  0  0  0  0
  -29.2330  -24.1830   20.0560 C   0  0  0  0  0  2  0  0  0  0  0  0
  -28.9310  -25.3490   21.0410 C   0  0  0  0  0  2  0  0  0  0  0  0
  -28.9390  -26.6480   20.4090 O   0  0  0  0  0  0  0  0  0  0  0  0
  -24.7520  -31.7140   23.1950 C   0  0  0  0  0  0  0  0  0  0  0  0
  -27.7380  -27.3290   20.3560 C   0  0  0  0  0  0  0  0  0  0  0  0
  -23.6940  -30.2490   21.5050 C   0  0  0  0  0  3  0  0  0  0  0  0
  -25.2860  -28.7450   20.1940 C   0  0  0  0  0  0  0  0  0  0  0  0
  -26.2120  -30.7050   21.4420 C   0  0  0  0  0  2  0  0  0  0  0  0
  -26.3890  -29.3250   20.8340 C   0  0  0  0  0  0  0  0  0  0  0  0
  -27.6180  -28.6280   20.9030 C   0  0  0  0  0  3  0  0  0  0  0  0
  -26.6180  -26.7570   19.7150 C   0  0  0  0  0  3  0  0  0  0  0  0
  -25.3970  -27.4600   19.6270 C   0  0  0  0  0  3  0  0  0  0  0  0
  -24.0100  -29.5560   20.1520 C   0  0  0  0  0  2  0  0  0  0  0  0
  -24.9010  -30.9050   22.1080 N   0  0  0  0  0  0  0  0  0  0  0  0
  -23.6320  -31.9510   23.6710 O   0  0  0  0  0  0  0  0  0  0  0  0
  -23.0230  -29.2190   22.4420 C   0  0  0  0  0  0  0  0  0  0  0  0
  -21.7050  -29.0210   22.2720 N   0  0  0  0  0  0  0  0  0  0  0  0
  -23.6870  -28.5990   23.2770 O   0  0  0  0  0  0  0  0  0  0  0  0
  -21.2290  -29.5740   21.5730 H   0  0  0  0  0  0  0  0  0  0  0  0
  -18.3200  -27.8230   22.6980 C   0  0  0  0  0  0  0  0  0  0  0  0
  -20.8740  -28.0700   23.0100 C   0  0  0  0  0  3  0  0  0  0  0  0
  -20.9810  -26.6500   22.4070 C   0  0  0  0  0  2  0  0  0  0  0  0
  -19.8940  -26.3520   21.3690 C   0  0  0  0  0  2  0  0  0  0  0  0
  -18.5030  -26.4880   21.9950 C   0  0  0  0  0  2  0  0  0  0  0  0
  -19.4340  -28.5730   23.1570 C   0  0  0  0  0  0  0  0  0  0  0  0
  -19.2100  -29.8250   23.7720 C   0  0  0  0  0  3  0  0  0  0  0  0
  -17.9050  -30.3290   23.9220 C   0  0  0  0  0  3  0  0  0  0  0  0
  -16.8040  -29.5760   23.4790 C   0  0  0  0  0  3  0  0  0  0  0  0
  -17.0130  -28.3230   22.8760 C   0  0  0  0  0  3  0  0  0  0  0  0
  -25.9750  -32.4010   23.8780 C   0  0  0  0  0  3  0  0  0  0  0  0
  -26.4540  -31.6590   25.1850 C   0  0  1  0  0  0  0  0  0  0  0  0
  -25.3150  -31.3690   26.1900 C   0  0  0  0  0  1  0  0  0  0  0  0
  -27.1220  -30.3100   24.8280 C   0  0  0  0  0  1  0  0  0  0  0  0
  -27.5310  -32.5060   25.9030 C   0  0  0  0  0  1  0  0  0  0  0  0
  -25.5940  -33.7880   24.1770 N   0  0  0  0  0  0  0  0  0  0  0  0
  -25.9270  -34.8460   23.4250 C   0  0  0  0  0  0  0  0  0  0  0  0
  -26.6540  -34.7580   22.4310 O   0  0  0  0  0  0  0  0  0  0  0  0
  -24.9570  -33.9270   24.9460 H   0  0  0  0  0  0  0  0  0  0  0  0
  -24.1560  -36.5680   22.9590 C   0  0  0  0  0  1  0  0  0  0  0  0
  -25.3640  -36.2190   23.8430 C   0  0  0  0  0  3  0  0  0  0  0  0
  -27.4170  -37.1870   24.7770 C   0  0  0  0  0  1  0  0  0  0  0  0
  -26.3610  -37.3100   23.7760 N   0  0  0  0  0  0  0  0  0  0  0  0
  -25.9140  -38.2150   23.8980 H   0  0  0  0  0  0  0  0  0  0  0  0
  -29.7020  -19.3900   20.2530 N   0  0  0  0  0  4  0  0  0  0  0  0
  -29.0540  -19.7060   19.5470 H   0  0  0  0  0  0  0  0  0  0  0  0
  -30.5970  -19.3100   19.7980 H   0  0  0  0  0  0  0  0  0  0  0  0
  -29.2560  -18.0470   20.7360 C   0  0  0  0  0  2  0  0  0  0  0  0
  -29.9210  -16.8610   19.9870 C   0  0  0  0  0  2  0  0  0  0  0  0
  -29.6490  -15.4740   20.6370 C   0  0  0  0  0  2  0  0  0  0  0  0
  -30.3300  -14.2950   19.8950 C   0  0  0  0  0  0  0  0  0  0  0  0
  -30.0010  -12.1400   18.7290 C   0  0  0  0  0  2  0  0  0  0  0  0
  -28.9420  -12.3440   17.6260 C   0  0  0  0  0  2  0  0  0  0  0  0
  -27.5130  -12.1780   18.1840 C   0  0  0  0  0  2  0  0  0  0  0  0
  -27.2880  -12.9840   19.4910 C   0  0  0  0  0  3  0  0  0  0  0  0
  -28.4450  -12.7460   20.4890 C   0  0  0  0  0  2  0  0  0  0  0  0
  -29.7010  -13.0910   19.8080 N   0  0  0  0  0  0  0  0  0  0  0  0
  -31.3940  -14.5170   19.3080 O   0  0  0  0  0  0  0  0  0  0  0  0
  -24.9480  -13.5460   20.4020 C   0  0  0  0  0  0  0  0  0  0  0  0
  -23.9330  -12.7510   20.8630 C   0  0  0  0  0  0  0  0  0  0  0  0
  -24.4210  -11.4100   20.7960 C   0  0  0  0  0  0  0  0  0  0  0  0
  -25.9890  -12.6840   20.0870 N   0  0  0  0  0  0  0  0  0  0  0  0
  -25.6800  -11.3960   20.3810 N   0  0  0  0  0  0  0  0  0  0  0  0
  -23.7430  -10.1330   21.0530 C   0  0  0  0  0  0  0  0  0  0  0  0
  -24.2500   -9.2030   21.9880 C   0  0  0  0  0  3  0  0  0  0  0  0
  -23.5690   -7.9900   22.2330 C   0  0  0  0  0  3  0  0  0  0  0  0
  -22.3710   -7.6980   21.5410 C   0  0  0  0  0  0  0  0  0  0  0  0
  -21.8840   -8.6160   20.5950 C   0  0  0  0  0  3  0  0  0  0  0  0
  -22.5630   -9.8190   20.3490 C   0  0  0  0  0  3  0  0  0  0  0  0
  -21.6580   -6.5320   21.6920 O   0  0  0  0  0  0  0  0  0  0  0  0
  -21.6610   -5.8370   22.8740 C   0  0  0  0  0  0  0  0  0  0  0  0
  -21.2360   -6.4240   24.0860 C   0  0  0  0  0  3  0  0  0  0  0  0
  -21.1870   -5.6520   25.2630 C   0  0  0  0  0  3  0  0  0  0  0  0
  -21.5580   -4.2930   25.2300 C   0  0  0  0  0  0  0  0  0  0  0  0
  -21.9770   -3.7060   24.0240 C   0  0  0  0  0  3  0  0  0  0  0  0
  -22.0250   -4.4770   22.8480 C   0  0  0  0  0  0  0  0  0  0  0  0
  -22.4090   -3.9000   21.6830 F   0  0  0  0  0  0  0  0  0  0  0  0
  -21.5030   -3.5490   26.3600 F   0  0  0  0  0  0  0  0  0  0  0  0
  -22.5550  -13.1970   21.2550 C   0  0  0  0  0  0  0  0  0  0  0  0
  -21.9360  -12.4990   22.2000 N   0  0  0  0  0  0  0  0  0  0  0  0
  -22.0390  -14.1960   20.7590 O   0  0  0  0  0  0  0  0  0  0  0  0
  -22.3720  -11.6900   22.6170 H   0  0  0  0  0  0  0  0  0  0  0  0
  -21.0170  -12.7780   22.5110 H   0  0  0  0  0  0  0  0  0  0  0  0
  -25.0680  -14.9190   20.2090 N   0  0  0  0  0  0  0  0  0  0  0  0
  -24.2990  -15.5560   20.3820 H   0  0  0  0  0  0  0  0  0  0  0  0
  -25.8770  -15.3730   19.8050 H   0  0  0  0  0  0  0  0  0  0  0  0
  -31.0420  -20.1180   22.2040 C   0  0  0  0  0  2  0  0  0  0  0  0
  -31.7350  -22.2230   25.9430 C   0  0  0  0  0  3  0  0  0  0  0  0
  -30.4410  -22.1940   25.3890 C   0  0  0  0  0  3  0  0  0  0  0  0
  -32.8090  -21.6330   25.2500 C   0  0  0  0  0  3  0  0  0  0  0  0
  -30.2100  -21.5420   24.1600 C   0  0  0  0  0  3  0  0  0  0  0  0
  -32.5850  -20.9960   24.0140 C   0  0  0  0  0  3  0  0  0  0  0  0
  -31.2810  -20.9320   23.4700 C   0  0  0  0  0  0  0  0  0  0  0  0
  1 91  1  0
  2  4  1  0
  2  1  1  0
  4  3  1  0
  5  2  2  0
  6  4  1  0
  6  7  1  0
  8  7  1  0
  9 20  2  0
 10  8  1  0
 10 15  1  0
 11 19  1  0
 11 21  1  0
 12 14  1  0
 13 19  1  0
 14 15  2  0
 14 13  1  0
 16 10  2  0
 17 16  1  0
 17 12  2  0
 18 12  1  0
 18 11  1  0
 19  9  1  0
 21 23  2  0
 22 21  1  0
 24 22  1  0
 25 34  2  0
 25 30  1  0
 26 22  1  0
 26 30  1  0
 27 26  1  0
 28 29  1  0
 28 27  1  0
 29 25  1  0
 30 31  2  0
 31 32  1  0
 33 32  2  0
 34 33  1  0
 35  9  1  0
 35 40  1  0
 35 36  1  0
 36 39  1  1
 36 37  1  0
 38 36  1  0
 40 43  1  0
 41 45  1  0
 41 40  1  0
 42 41  2  0
 45 44  1  0
 47 45  1  0
 47 48  1  0
 47 46  1  0
 49 52  1  0
 49  1  1  0
 50 49  1  0
 51 49  1  0
 53 54  1  0
 53 52  1  0
 55 54  1  0
 56 61  1  0
 57 58  1  0
 57 56  1  0
 59 58  1  0
 59 66  1  0
 59 60  1  0
 61 55  1  0
 61 60  1  0
 62 55  2  0
 63 64  2  0
 64 83  1  0
 65 64  1  0
 65 68  1  0
 66 67  1  0
 66 63  1  0
 67 65  2  0
 68 69  1  0
 69 70  2  0
 71 74  1  0
 71 70  1  0
 72 71  2  0
 73 72  1  0
 73 68  2  0
 74 75  1  0
 75 76  1  0
 76 77  2  0
 78 77  1  0
 78 82  1  0
 79 78  2  0
 80 75  2  0
 80 79  1  0
 81 80  1  0
 83 84  1  0
 84 87  1  0
 84 86  1  0
 85 83  2  0
 88 89  1  0
 88 63  1  0
 90 88  1  0
 91 97  1  0
 93 92  1  0
 94 92  2  0
 95 93  2  0
 96 94  1  0
 97 96  2  0
 97 95  1  0
M  ISO  4   7 101   8 101  54 100  55 100
M  END
>  <TORSDO>  (77) 
F 25

>  <SCORE>  (77) 
-9.238

>  <name>  (77) 
79

>  <ligand_id>  (77) 
79

>  <original_smiles>  (77) 
[H]c1c([H])c([H])c(C([H])([H])C([H])(C(=O)N(C([H])([H])[H])C([H])([H])C([H])([H])Oc2c([H])c([H])c3c(c2[H])C([H])([H])N(C(=O)C([H])(N([H])C(=O)C([H])(N([H])C([H])([H])[H])C([H])([H])[H])C(C([H])([H])[H])(C([H])([H])[H])C([H])([H])[H])C([H])(C(=O)N([H])C2([H])c4c([H])c([H])c([H])c([H])c4C([H])([H])C([H])([H])C2([H])[H])C3([H])[H])[N+]([H])([H])C([H])([H])C([H])([H])C([H])([H])C(=O)N2C([H])([H])C([H])([H])C([H])([H])C([H])(n3nc(-c4c([H])c([H])c(Oc5c([H])c([H])c(F)c([H])c5F)c([H])c4[H])c(C(=O)N([H])[H])c3N([H])[H])C2([H])[H])c([H])c1[H]

>  <smiles>  (77) 
[H]c1c([H])c([H])c(C([H])([H])C([H])(C(=O)N(C([H])([H])[H])C([H])([H])C([H])([H])Oc2c([H])c([H])c3c(c2[H])C([H])([H])N(C(=O)C([H])(N([H])C(=O)C([H])(N([H])C([H])([H])[H])C([H])([H])[H])C(C([H])([H])[H])(C([H])([H])[H])C([H])([H])[H])C([H])(C(=O)N([H])C2([H])c4c([H])c([H])c([H])c([H])c4C([H])([H])C([H])([H])C2([H])[H])C3([H])[H])[N+]([H])([H])C([H])([H])C([H])([H])C([H])([H])C(=O)N2C([H])([H])C([H])([H])C([H])([H])C([H])(n3nc(-c4c([H])c([H])c(Oc5c([H])c([H])c(F)c([H])c5F)c([H])c4[H])c(C(=O)N([H])[H])c3N([H])[H])C2([H])[H])c([H])c1[H]

$$$$
80:0:0
     RDKit          3D

 97104  0  0  1  0  0  0  0  0999 V2000
  -33.9850  -23.1060   19.4380 C   0  0  0  0  0  1  0  0  0  0  0  0
  -32.4820  -22.9950   19.1370 C   0  0  0  0  0  3  0  0  0  0  0  0
  -32.1270  -21.7080   18.5000 N   0  0  0  0  0  4  0  0  0  0  0  0
  -31.1660  -21.8560   18.2180 H   0  0  0  0  0  0  0  0  0  0  0  0
  -32.6540  -21.5990   17.6490 H   0  0  0  0  0  0  0  0  0  0  0  0
  -32.2470  -20.5040   19.3540 C   0  0  0  0  0  2  0  0  0  0  0  0
  -31.4850  -19.3000   18.7660 C   0  0  0  0  0  2  0  0  0  0  0  0
  -31.6550  -17.9880   19.5760 C   0  0  0  0  0  2  0  0  0  0  0  0
  -29.2470  -17.3160   19.7940 C   0  0  0  0  0  1  0  0  0  0  0  0
  -30.5210  -17.6420   20.4890 N   0  0  1  0  0  4  0  0  0  0  0  0
  -30.3250  -18.4880   21.0030 H   0  0  0  0  0  0  0  0  0  0  0  0
  -30.9180  -16.6800   21.5700 C   0  0  0  0  0  2  0  0  0  0  0  0
  -30.2930  -15.2560   21.5390 C   0  0  0  0  0  2  0  0  0  0  0  0
  -30.7300  -14.3610   20.3670 C   0  0  0  0  0  0  0  0  0  0  0  0
  -30.3140  -12.3760   18.9540 C   0  0  0  0  0  2  0  0  0  0  0  0
  -29.3110  -12.6750   17.8280 C   0  0  0  0  0  2  0  0  0  0  0  0
  -27.8550  -12.5200   18.3130 C   0  0  0  0  0  2  0  0  0  0  0  0
  -27.5980  -13.2640   19.6490 C   0  0  0  0  0  3  0  0  0  0  0  0
  -28.6950  -12.9080   20.6780 C   0  0  0  0  0  2  0  0  0  0  0  0
  -29.9990  -13.2510   20.0880 N   0  0  0  0  0  0  0  0  0  0  0  0
  -31.7290  -14.6770   19.7130 O   0  0  0  0  0  0  0  0  0  0  0  0
  -25.2130  -13.8780   20.4140 C   0  0  0  0  0  0  0  0  0  0  0  0
  -24.1560  -13.1030   20.8160 C   0  0  0  0  0  0  0  0  0  0  0  0
  -24.6190  -11.7530   20.7680 C   0  0  0  0  0  0  0  0  0  0  0  0
  -26.2540  -12.9960   20.1570 N   0  0  0  0  0  0  0  0  0  0  0  0
  -25.8980  -11.7140   20.4170 N   0  0  0  0  0  0  0  0  0  0  0  0
  -23.9020  -10.4900   20.9800 C   0  0  0  0  0  0  0  0  0  0  0  0
  -24.3620   -9.5290   21.9060 C   0  0  0  0  0  3  0  0  0  0  0  0
  -23.6490   -8.3290   22.1060 C   0  0  0  0  0  3  0  0  0  0  0  0
  -22.4590   -8.0800   21.3820 C   0  0  0  0  0  0  0  0  0  0  0  0
  -22.0180   -9.0310   20.4460 C   0  0  0  0  0  3  0  0  0  0  0  0
  -22.7310  -10.2240   20.2450 C   0  0  0  0  0  3  0  0  0  0  0  0
  -21.7190   -6.9260   21.4870 O   0  0  0  0  0  0  0  0  0  0  0  0
  -21.7000   -6.1860   22.6410 C   0  0  0  0  0  0  0  0  0  0  0  0
  -21.3070   -6.7440   23.8770 C   0  0  0  0  0  3  0  0  0  0  0  0
  -21.2360   -5.9320   25.0280 C   0  0  0  0  0  3  0  0  0  0  0  0
  -21.5460   -4.5620   24.9410 C   0  0  0  0  0  0  0  0  0  0  0  0
  -21.9340   -4.0020   23.7120 C   0  0  0  0  0  3  0  0  0  0  0  0
  -22.0090   -4.8120   22.5650 C   0  0  0  0  0  0  0  0  0  0  0  0
  -22.3590   -4.2650   21.3760 F   0  0  0  0  0  0  0  0  0  0  0  0
  -21.4750   -3.7790   26.0440 F   0  0  0  0  0  0  0  0  0  0  0  0
  -22.7680  -13.5770   21.1360 C   0  0  0  0  0  0  0  0  0  0  0  0
  -22.0740  -12.8760   22.0250 N   0  0  0  0  0  0  0  0  0  0  0  0
  -22.3120  -14.6050   20.6370 O   0  0  0  0  0  0  0  0  0  0  0  0
  -22.4580  -12.0480   22.4510 H   0  0  0  0  0  0  0  0  0  0  0  0
  -21.1440  -13.1740   22.2870 H   0  0  0  0  0  0  0  0  0  0  0  0
  -25.3730  -15.2490   20.2300 N   0  0  0  0  0  0  0  0  0  0  0  0
  -24.6090  -15.9050   20.3480 H   0  0  0  0  0  0  0  0  0  0  0  0
  -26.2020  -15.6800   19.8410 H   0  0  0  0  0  0  0  0  0  0  0  0
  -31.9770  -24.1230   18.2230 C   0  0  0  0  0  2  0  0  0  0  0  0
  -30.5450  -23.9070   18.0320 N   0  0  0  0  0  0  0  0  0  0  0  0
  -30.0950  -23.8540   18.9410 H   0  0  0  0  0  0  0  0  0  0  0  0
  -28.6710  -24.3820   16.6150 C   0  0  0  0  0  1  0  0  0  0  0  0
  -29.9040  -24.9910   17.2970 C   0  0  0  0  0  3  0  0  0  0  0  0
  -29.5530  -26.1670   18.2380 C   0  0  0  0  0  2  0  0  0  0  0  0
  -28.7820  -25.7760   19.5140 C   0  0  0  0  0  2  0  0  0  0  0  0
  -28.5170  -26.9430   20.2770 O   0  0  0  0  0  0  0  0  0  0  0  0
  -24.6020  -31.9790   23.3020 C   0  0  0  0  0  0  0  0  0  0  0  0
  -27.3020  -27.5870   20.2150 C   0  0  0  0  0  0  0  0  0  0  0  0
  -23.4120  -30.5750   21.6450 C   0  0  0  0  0  3  0  0  0  0  0  0
  -24.8820  -29.0510   20.2250 C   0  0  0  0  0  0  0  0  0  0  0  0
  -25.9320  -30.9550   21.4630 C   0  0  0  0  0  2  0  0  0  0  0  0
  -26.0270  -29.5860   20.8260 C   0  0  0  0  0  0  0  0  0  0  0  0
  -27.2310  -28.8550   20.8300 C   0  0  0  0  0  3  0  0  0  0  0  0
  -26.1370  -27.0600   19.6060 C   0  0  0  0  0  3  0  0  0  0  0  0
  -24.9290  -27.7860   19.6180 C   0  0  0  0  0  3  0  0  0  0  0  0
  -23.6330  -29.9020   20.2630 C   0  0  0  0  0  2  0  0  0  0  0  0
  -24.6660  -31.1840   22.1970 N   0  0  0  0  0  0  0  0  0  0  0  0
  -23.5150  -32.2430   23.8360 O   0  0  0  0  0  0  0  0  0  0  0  0
  -22.7630  -29.5480   22.5970 C   0  0  0  0  0  0  0  0  0  0  0  0
  -21.4440  -29.3450   22.4480 N   0  0  0  0  0  0  0  0  0  0  0  0
  -23.4420  -28.9350   23.4270 O   0  0  0  0  0  0  0  0  0  0  0  0
  -20.9570  -29.8950   21.7540 H   0  0  0  0  0  0  0  0  0  0  0  0
  -18.0850  -28.0850   22.8690 C   0  0  0  0  0  0  0  0  0  0  0  0
  -20.6280  -28.3980   23.2060 C   0  0  0  0  0  3  0  0  0  0  0  0
  -20.7760  -26.9630   22.6460 C   0  0  0  0  0  2  0  0  0  0  0  0
  -19.7090  -26.6090   21.6070 C   0  0  0  0  0  2  0  0  0  0  0  0
  -18.3070  -26.7330   22.2130 C   0  0  0  0  0  2  0  0  0  0  0  0
  -19.1750  -28.8740   23.3220 C   0  0  0  0  0  0  0  0  0  0  0  0
  -18.9170  -30.1380   23.8930 C   0  0  0  0  0  3  0  0  0  0  0  0
  -17.6000  -30.6160   24.0190 C   0  0  0  0  0  3  0  0  0  0  0  0
  -16.5220  -29.8240   23.5820 C   0  0  0  0  0  3  0  0  0  0  0  0
  -16.7650  -28.5620   23.0140 C   0  0  0  0  0  3  0  0  0  0  0  0
  -25.8810  -32.6130   23.9320 C   0  0  0  0  0  3  0  0  0  0  0  0
  -25.5730  -34.0160   24.2450 N   0  0  0  0  0  0  0  0  0  0  0  0
  -25.9200  -35.0580   23.4800 C   0  0  0  0  0  0  0  0  0  0  0  0
  -26.6060  -34.9440   22.4610 O   0  0  0  0  0  0  0  0  0  0  0  0
  -24.9680  -34.1800   25.0360 H   0  0  0  0  0  0  0  0  0  0  0  0
  -24.2020  -36.8510   23.0750 C   0  0  0  0  0  1  0  0  0  0  0  0
  -25.4270  -36.4530   23.9140 C   0  0  0  0  0  3  0  0  0  0  0  0
  -27.5490  -37.3380   24.7740 C   0  0  0  0  0  1  0  0  0  0  0  0
  -26.4650  -37.5010   23.8110 N   0  0  0  0  0  0  0  0  0  0  0  0
  -26.0590  -38.4230   23.9430 H   0  0  0  0  0  0  0  0  0  0  0  0
  -26.3850  -31.8510   25.2180 C   0  0  1  0  0  0  0  0  0  0  0  0
  -25.2840  -31.6260   26.2780 C   0  0  0  0  0  1  0  0  0  0  0  0
  -26.9690  -30.4700   24.8390 C   0  0  0  0  0  1  0  0  0  0  0  0
  -27.5330  -32.6470   25.8840 C   0  0  0  0  0  1  0  0  0  0  0  0
  2  1  1  0
  3  2  1  0
  3  6  1  0
  4  3  1  0
  5  3  1  0
  7  6  1  0
  7  8  1  0
  8 10  1  0
  9 10  1  0
 10 11  1  1
 10 12  1  0
 13 12  1  0
 14 13  1  0
 15 20  1  0
 16 17  1  0
 16 15  1  0
 18 17  1  0
 18 25  1  0
 18 19  1  0
 20 14  1  0
 20 19  1  0
 21 14  2  0
 22 23  2  0
 23 42  1  0
 24 23  1  0
 24 27  1  0
 25 22  1  0
 25 26  1  0
 26 24  2  0
 27 28  1  0
 28 29  2  0
 30 33  1  0
 30 29  1  0
 31 30  2  0
 32 31  1  0
 32 27  2  0
 33 34  1  0
 34 35  1  0
 35 36  2  0
 37 36  1  0
 37 41  1  0
 38 37  2  0
 39 34  2  0
 39 38  1  0
 40 39  1  0
 42 43  1  0
 43 46  1  0
 43 45  1  0
 44 42  2  0
 47 48  1  0
 47 22  1  0
 49 47  1  0
 50  2  1  0
 51 50  1  0
 51 52  1  0
 54 53  1  0
 54 51  1  0
 54 55  1  0
 55 56  1  0
 56 57  1  0
 58 69  2  0
 59 57  1  0
 59 64  1  0
 60 68  1  0
 60 70  1  0
 61 67  1  0
 61 63  1  0
 62 68  1  0
 63 64  2  0
 63 62  1  0
 65 66  1  0
 65 59  2  0
 66 61  2  0
 67 60  1  0
 68 58  1  0
 70 72  2  0
 71 70  1  0
 73 71  1  0
 74 83  2  0
 74 79  1  0
 75 71  1  0
 75 79  1  0
 76 75  1  0
 77 78  1  0
 77 76  1  0
 78 74  1  0
 79 80  2  0
 80 81  1  0
 82 81  2  0
 83 82  1  0
 84 58  1  0
 84 85  1  0
 84 94  1  0
 85 88  1  0
 86 90  1  0
 86 85  1  0
 87 86  2  0
 90 89  1  0
 92 90  1  0
 92 93  1  0
 92 91  1  0
 94 97  1  1
 94 95  1  0
 96 94  1  0
M  ISO  4  13 100  14 100  56 101  57 101
M  END
>  <TORSDO>  (78) 
F 28

>  <SCORE>  (78) 
-11.136

>  <name>  (78) 
80

>  <ligand_id>  (78) 
80

>  <original_smiles>  (78) 
[H]c1c([H])c([H])c2c(c1[H])C([H])([H])C([H])([H])C([H])([H])C2([H])N([H])C(=O)C1([H])N(C(=O)C([H])(N([H])C(=O)C([H])(N([H])C([H])([H])[H])C([H])([H])[H])C(C([H])([H])[H])(C([H])([H])[H])C([H])([H])[H])C([H])([H])c2c([H])c(OC([H])([H])C([H])([H])C([H])(N([H])C([H])([H])C([H])(C([H])([H])[H])[N+]([H])([H])C([H])([H])C([H])([H])C([H])([H])[N+]([H])(C([H])([H])[H])C([H])([H])C([H])([H])C(=O)N3C([H])([H])C([H])([H])C([H])([H])C([H])(n4nc(-c5c([H])c([H])c(Oc6c([H])c([H])c(F)c([H])c6F)c([H])c5[H])c(C(=O)N([H])[H])c4N([H])[H])C3([H])[H])C([H])([H])[H])c([H])c([H])c2C1([H])[H]

>  <smiles>  (78) 
[H]c1c([H])c([H])c2c(c1[H])C([H])([H])C([H])([H])C([H])([H])C2([H])N([H])C(=O)C1([H])N(C(=O)C([H])(N([H])C(=O)C([H])(N([H])C([H])([H])[H])C([H])([H])[H])C(C([H])([H])[H])(C([H])([H])[H])C([H])([H])[H])C([H])([H])c2c([H])c(OC([H])([H])C([H])([H])C([H])(N([H])C([H])([H])C([H])(C([H])([H])[H])[N+]([H])([H])C([H])([H])C([H])([H])C([H])([H])[N+]([H])(C([H])([H])[H])C([H])([H])C([H])([H])C(=O)N3C([H])([H])C([H])([H])C([H])([H])C([H])(n4nc(-c5c([H])c([H])c(Oc6c([H])c([H])c(F)c([H])c6F)c([H])c5[H])c(C(=O)N([H])[H])c4N([H])[H])C3([H])[H])C([H])([H])[H])c([H])c([H])c2C1([H])[H]

$$$$
81:0:0
     RDKit          3D

 95104  0  0  1  0  0  0  0  0999 V2000
  -28.9590  -23.0730   19.3850 C   0  0  0  0  0  3  0  0  0  0  0  0
  -28.5280  -24.4220   19.2690 C   0  0  0  0  0  3  0  0  0  0  0  0
  -29.8310  -23.5590   21.5900 C   0  0  0  0  0  3  0  0  0  0  0  0
  -29.6750  -22.6360   20.5250 C   0  0  0  0  0  0  0  0  0  0  0  0
  -28.7710  -25.3660   20.2980 C   0  0  0  0  0  0  0  0  0  0  0  0
  -29.3890  -24.9010   21.4810 C   0  0  0  0  0  0  0  0  0  0  0  0
  -29.6430  -25.7690   22.4910 F   0  0  0  0  0  0  0  0  0  0  0  0
  -28.6260  -26.7330   20.0840 O   0  0  0  0  0  0  0  0  0  0  0  0
  -24.6340  -31.7770   23.2340 C   0  0  0  0  0  0  0  0  0  0  0  0
  -27.4160  -27.3970   20.1530 C   0  0  0  0  0  0  0  0  0  0  0  0
  -23.4840  -30.3720   21.5550 C   0  0  0  0  0  3  0  0  0  0  0  0
  -24.9900  -28.8680   20.1430 C   0  0  0  0  0  0  0  0  0  0  0  0
  -26.0050  -30.7760   21.4030 C   0  0  0  0  0  2  0  0  0  0  0  0
  -26.1280  -29.4070   20.7570 C   0  0  0  0  0  0  0  0  0  0  0  0
  -27.3420  -28.6780   20.7590 C   0  0  0  0  0  3  0  0  0  0  0  0
  -26.2610  -26.8760   19.5360 C   0  0  0  0  0  3  0  0  0  0  0  0
  -25.0520  -27.6020   19.5310 C   0  0  0  0  0  3  0  0  0  0  0  0
  -23.7310  -29.7070   20.1740 C   0  0  0  0  0  2  0  0  0  0  0  0
  -24.7260  -30.9920   22.1230 N   0  0  0  0  0  0  0  0  0  0  0  0
  -23.5390  -32.0200   23.7610 O   0  0  0  0  0  0  0  0  0  0  0  0
  -22.8360  -29.3290   22.4950 C   0  0  0  0  0  0  0  0  0  0  0  0
  -21.5220  -29.1080   22.3320 N   0  0  0  0  0  0  0  0  0  0  0  0
  -23.5160  -28.7190   23.3240 O   0  0  0  0  0  0  0  0  0  0  0  0
  -21.0340  -29.6530   21.6350 H   0  0  0  0  0  0  0  0  0  0  0  0
  -18.1760  -27.7990   22.7220 C   0  0  0  0  0  0  0  0  0  0  0  0
  -20.7150  -28.1410   23.0750 C   0  0  0  0  0  3  0  0  0  0  0  0
  -20.8830  -26.7160   22.4980 C   0  0  0  0  0  2  0  0  0  0  0  0
  -19.8230  -26.3620   21.4480 C   0  0  0  0  0  2  0  0  0  0  0  0
  -18.4180  -26.4600   22.0480 C   0  0  0  0  0  2  0  0  0  0  0  0
  -19.2550  -28.5960   23.1900 C   0  0  0  0  0  0  0  0  0  0  0  0
  -18.9760  -29.8500   23.7770 C   0  0  0  0  0  3  0  0  0  0  0  0
  -17.6520  -30.3070   23.9020 C   0  0  0  0  0  3  0  0  0  0  0  0
  -16.5870  -29.5090   23.4510 C   0  0  0  0  0  3  0  0  0  0  0  0
  -16.8500  -28.2560   22.8680 C   0  0  0  0  0  3  0  0  0  0  0  0
  -25.8960  -32.4260   23.8830 C   0  0  0  0  0  3  0  0  0  0  0  0
  -26.4020  -31.6570   25.1660 C   0  0  1  0  0  0  0  0  0  0  0  0
  -25.2930  -31.3940   26.2110 C   0  0  0  0  0  1  0  0  0  0  0  0
  -27.0160  -30.2940   24.7750 C   0  0  0  0  0  1  0  0  0  0  0  0
  -27.5250  -32.4690   25.8550 C   0  0  0  0  0  1  0  0  0  0  0  0
  -25.5600  -33.8170   24.2130 N   0  0  0  0  0  0  0  0  0  0  0  0
  -25.8710  -34.8770   23.4550 C   0  0  0  0  0  0  0  0  0  0  0  0
  -26.5440  -34.7870   22.4240 O   0  0  0  0  0  0  0  0  0  0  0  0
  -24.9600  -33.9600   25.0130 H   0  0  0  0  0  0  0  0  0  0  0  0
  -24.0960  -36.6230   23.1110 C   0  0  0  0  0  1  0  0  0  0  0  0
  -25.3550  -36.2540   23.9110 C   0  0  0  0  0  3  0  0  0  0  0  0
  -27.4730  -37.1980   24.7200 C   0  0  0  0  0  1  0  0  0  0  0  0
  -26.3600  -37.3320   23.7830 N   0  0  0  0  0  0  0  0  0  0  0  0
  -25.9320  -38.2430   23.9280 H   0  0  0  0  0  0  0  0  0  0  0  0
  -30.4130  -21.4200   20.5270 N   0  0  0  0  0  0  0  0  0  0  0  0
  -29.9150  -17.7420   21.7560 C   0  0  0  0  0  2  0  0  0  0  0  0
  -29.8360  -17.7490   19.2740 C   0  0  0  0  0  2  0  0  0  0  0  0
  -30.2810  -19.2500   21.7760 C   0  0  0  0  0  2  0  0  0  0  0  0
  -30.2170  -19.2540   19.2390 C   0  0  0  0  0  2  0  0  0  0  0  0
  -30.4450  -17.0220   20.4950 C   0  0  0  0  0  3  0  0  0  0  0  0
  -29.8320  -20.0540   20.5200 C   0  0  0  0  0  3  0  0  0  0  0  0
  -30.8750  -14.5460   20.0330 C   0  0  0  0  0  0  0  0  0  0  0  0
  -30.5650  -12.3530   18.9310 C   0  0  0  0  0  2  0  0  0  0  0  0
  -29.5560  -12.5330   17.7780 C   0  0  0  0  0  2  0  0  0  0  0  0
  -28.1070  -12.3850   18.2880 C   0  0  0  0  0  2  0  0  0  0  0  0
  -27.8330  -13.2310   19.5610 C   0  0  0  0  0  3  0  0  0  0  0  0
  -28.9480  -13.0260   20.6110 C   0  0  0  0  0  2  0  0  0  0  0  0
  -30.2320  -13.3450   19.9680 N   0  0  0  0  0  0  0  0  0  0  0  0
  -31.9880  -14.7300   19.5330 O   0  0  0  0  0  0  0  0  0  0  0  0
  -30.1350  -15.5730   20.5170 N   0  0  0  0  0  0  0  0  0  0  0  0
  -29.2300  -15.3140   20.8830 H   0  0  0  0  0  0  0  0  0  0  0  0
  -25.4980  -13.8460   20.4460 C   0  0  0  0  0  0  0  0  0  0  0  0
  -24.4440  -13.0750   20.8550 C   0  0  0  0  0  0  0  0  0  0  0  0
  -24.8780  -11.7190   20.7430 C   0  0  0  0  0  0  0  0  0  0  0  0
  -26.5100  -12.9580   20.1140 N   0  0  0  0  0  0  0  0  0  0  0  0
  -26.1450  -11.6720   20.3500 N   0  0  0  0  0  0  0  0  0  0  0  0
  -24.1450  -10.4610   20.9310 C   0  0  0  0  0  0  0  0  0  0  0  0
  -24.5660   -9.4940   21.8690 C   0  0  0  0  0  3  0  0  0  0  0  0
  -23.8330   -8.3000   22.0460 C   0  0  0  0  0  3  0  0  0  0  0  0
  -22.6640   -8.0650   21.2830 C   0  0  0  0  0  0  0  0  0  0  0  0
  -22.2630   -9.0210   20.3330 C   0  0  0  0  0  3  0  0  0  0  0  0
  -22.9960  -10.2060   20.1560 C   0  0  0  0  0  3  0  0  0  0  0  0
  -21.9040   -6.9240   21.3670 O   0  0  0  0  0  0  0  0  0  0  0  0
  -21.7590   -6.2420   22.5480 C   0  0  0  0  0  0  0  0  0  0  0  0
  -21.2150   -6.8520   23.7000 C   0  0  0  0  0  3  0  0  0  0  0  0
  -21.0190   -6.0940   24.8720 C   0  0  0  0  0  3  0  0  0  0  0  0
  -21.3580   -4.7280   24.8930 C   0  0  0  0  0  0  0  0  0  0  0  0
  -21.8950   -4.1170   23.7460 C   0  0  0  0  0  3  0  0  0  0  0  0
  -22.0930   -4.8730   22.5770 C   0  0  0  0  0  0  0  0  0  0  0  0
  -22.5900   -4.2750   21.4660 F   0  0  0  0  0  0  0  0  0  0  0  0
  -21.1630   -3.9970   26.0150 F   0  0  0  0  0  0  0  0  0  0  0  0
  -23.0750  -13.5620   21.2340 C   0  0  0  0  0  0  0  0  0  0  0  0
  -22.3960  -12.8480   22.1260 N   0  0  0  0  0  0  0  0  0  0  0  0
  -22.6190  -14.6090   20.7770 O   0  0  0  0  0  0  0  0  0  0  0  0
  -22.7790  -11.9980   22.5140 H   0  0  0  0  0  0  0  0  0  0  0  0
  -21.4800  -13.1530   22.4220 H   0  0  0  0  0  0  0  0  0  0  0  0
  -25.6770  -15.2190   20.3100 N   0  0  0  0  0  0  0  0  0  0  0  0
  -24.9270  -15.8790   20.4830 H   0  0  0  0  0  0  0  0  0  0  0  0
  -26.5080  -15.6550   19.9320 H   0  0  0  0  0  0  0  0  0  0  0  0
  -32.2890  -22.1040   19.0330 C   0  0  0  0  0  1  0  0  0  0  0  0
  -31.8640  -21.6190   20.4280 C   0  0  0  0  0  2  0  0  0  0  0  0
  1  4  1  0
  2  1  2  0
  2  5  1  0
  4 49  1  0
  4  3  2  0
  5  6  2  0
  6  3  1  0
  6  7  1  0
  8 10  1  0
  8  5  1  0
  9 20  2  0
 10 15  1  0
 11 19  1  0
 11 21  1  0
 12 18  1  0
 12 14  1  0
 13 19  1  0
 14 15  2  0
 14 13  1  0
 16 10  2  0
 17 16  1  0
 17 12  2  0
 18 11  1  0
 19  9  1  0
 21 23  2  0
 22 21  1  0
 24 22  1  0
 25 34  2  0
 25 30  1  0
 26 22  1  0
 26 30  1  0
 27 26  1  0
 28 29  1  0
 28 27  1  0
 29 25  1  0
 30 31  2  0
 31 32  1  0
 33 32  2  0
 34 33  1  0
 35  9  1  0
 35 40  1  0
 35 36  1  0
 36 39  1  1
 36 37  1  0
 38 36  1  0
 40 43  1  0
 41 45  1  0
 41 40  1  0
 42 41  2  0
 45 44  1  0
 47 45  1  0
 47 48  1  0
 47 46  1  0
 50 52  1  0
 51 54  1  0
 53 51  1  0
 53 55  1  0
 54 64  1  0
 54 50  1  0
 55 49  1  0
 55 52  1  0
 56 64  1  0
 57 62  1  0
 58 59  1  0
 58 57  1  0
 60 59  1  0
 60 69  1  0
 60 61  1  0
 62 56  1  0
 62 61  1  0
 63 56  2  0
 64 65  1  0
 66 67  2  0
 67 86  1  0
 68 67  1  0
 68 71  1  0
 69 70  1  0
 69 66  1  0
 70 68  2  0
 71 72  1  0
 72 73  2  0
 74 77  1  0
 74 73  1  0
 75 74  2  0
 76 75  1  0
 76 71  2  0
 77 78  1  0
 78 83  2  0
 78 79  1  0
 79 80  2  0
 80 81  1  0
 81 85  1  0
 82 81  2  0
 83 82  1  0
 84 83  1  0
 86 87  1  0
 87 90  1  0
 87 89  1  0
 88 86  2  0
 91 66  1  0
 91 92  1  0
 93 91  1  0
 94 95  1  0
 95 49  1  0
M  ISO  4   5 101   8 101  56 100  64 100
M  END
>  <TORSDO>  (79) 
F 19

>  <SCORE>  (79) 
-13.819

>  <name>  (79) 
81

>  <ligand_id>  (79) 
81

>  <original_smiles>  (79) 
[H]c1c([H])c([H])c2c(c1[H])C([H])([H])C([H])([H])C([H])([H])C2([H])N([H])C(=O)C1([H])N(C(=O)C([H])(N([H])C(=O)C([H])(N([H])C([H])([H])[H])C([H])([H])[H])C(C([H])([H])[H])(C([H])([H])[H])C([H])([H])[H])C([H])([H])c2c([H])c(Oc3c([H])c([H])c(N(C([H])([H])C([H])([H])[H])C4([H])C([H])([H])C([H])([H])C([H])(N([H])C(=O)N5C([H])([H])C([H])([H])C([H])([H])C([H])(n6nc(-c7c([H])c([H])c(Oc8c([H])c([H])c(F)c([H])c8F)c([H])c7[H])c(C(=O)N([H])[H])c6N([H])[H])C5([H])[H])C([H])([H])C4([H])[H])c([H])c3F)c([H])c([H])c2C1([H])[H]

>  <smiles>  (79) 
[H]c1c([H])c([H])c2c(c1[H])C([H])([H])C([H])([H])C([H])([H])C2([H])N([H])C(=O)C1([H])N(C(=O)C([H])(N([H])C(=O)C([H])(N([H])C([H])([H])[H])C([H])([H])[H])C(C([H])([H])[H])(C([H])([H])[H])C([H])([H])[H])C([H])([H])c2c([H])c(Oc3c([H])c([H])c(N(C([H])([H])C([H])([H])[H])C4([H])C([H])([H])C([H])([H])C([H])(N([H])C(=O)N5C([H])([H])C([H])([H])C([H])([H])C([H])(n6nc(-c7c([H])c([H])c(Oc8c([H])c([H])c(F)c([H])c8F)c([H])c7[H])c(C(=O)N([H])[H])c6N([H])[H])C5([H])[H])C([H])([H])C4([H])[H])c([H])c3F)c([H])c([H])c2C1([H])[H]

$$$$
82:0:0
     RDKit          3D

 97105  0  0  1  0  0  0  0  0999 V2000
  -29.1900  -20.4910   22.1970 C   0  0  0  0  0  3  0  0  0  0  0  0
  -28.5560  -21.7470   22.2900 C   0  0  0  0  0  3  0  0  0  0  0  0
  -31.2440  -21.5850   21.4680 C   0  0  0  0  0  3  0  0  0  0  0  0
  -30.5470  -20.4030   21.8020 C   0  0  0  0  0  0  0  0  0  0  0  0
  -29.2630  -22.9260   21.9800 C   0  0  0  0  0  0  0  0  0  0  0  0
  -30.6120  -22.8380   21.5680 C   0  0  0  0  0  0  0  0  0  0  0  0
  -31.2570  -19.0800   21.7130 C   0  0  0  0  0  0  0  0  0  0  0  0
  -30.6920  -18.0560   22.3670 N   0  0  0  0  0  0  0  0  0  0  0  0
  -32.3450  -18.9870   21.1410 O   0  0  0  0  0  0  0  0  0  0  0  0
  -29.8190  -18.2380   22.8400 H   0  0  0  0  0  0  0  0  0  0  0  0
  -31.3280  -16.7610   22.6060 C   0  0  0  0  0  2  0  0  0  0  0  0
  -31.3960  -15.8790   21.3460 C   0  0  0  0  0  2  0  0  0  0  0  0
  -30.0520  -15.2310   20.9370 C   0  0  0  0  0  2  0  0  0  0  0  0
  -30.1750  -14.3760   19.6610 C   0  0  0  0  0  0  0  0  0  0  0  0
  -29.7060  -12.2890   18.4270 C   0  0  0  0  0  2  0  0  0  0  0  0
  -28.5730  -12.4320   17.4000 C   0  0  0  0  0  2  0  0  0  0  0  0
  -27.2080  -12.1830   18.0640 C   0  0  0  0  0  2  0  0  0  0  0  0
  -27.0220  -13.0140   19.3590 C   0  0  0  0  0  3  0  0  0  0  0  0
  -28.2490  -12.8780   20.2910 C   0  0  0  0  0  2  0  0  0  0  0  0
  -29.4610  -13.2280   19.5310 N   0  0  0  0  0  0  0  0  0  0  0  0
  -30.9860  -14.7370   18.8010 O   0  0  0  0  0  0  0  0  0  0  0  0
  -24.7610  -13.4830   20.5040 C   0  0  0  0  0  0  0  0  0  0  0  0
  -23.7970  -12.6450   21.0020 C   0  0  0  0  0  0  0  0  0  0  0  0
  -24.2880  -11.3180   20.8070 C   0  0  0  0  0  0  0  0  0  0  0  0
  -25.7790  -12.6600   20.0450 N   0  0  0  0  0  0  0  0  0  0  0  0
  -25.5060  -11.3500   20.2800 N   0  0  0  0  0  0  0  0  0  0  0  0
  -23.6470  -10.0180   21.0400 C   0  0  0  0  0  0  0  0  0  0  0  0
  -24.2010   -9.0700   21.9290 C   0  0  0  0  0  3  0  0  0  0  0  0
  -23.5570   -7.8330   22.1480 C   0  0  0  0  0  3  0  0  0  0  0  0
  -22.3450   -7.5360   21.4800 C   0  0  0  0  0  0  0  0  0  0  0  0
  -21.8120   -8.4730   20.5780 C   0  0  0  0  0  3  0  0  0  0  0  0
  -22.4560   -9.7010   20.3560 C   0  0  0  0  0  3  0  0  0  0  0  0
  -21.6620   -6.3500   21.6120 O   0  0  0  0  0  0  0  0  0  0  0  0
  -21.6600   -5.6490   22.7920 C   0  0  0  0  0  0  0  0  0  0  0  0
  -21.1930   -6.2180   23.9970 C   0  0  0  0  0  3  0  0  0  0  0  0
  -21.1430   -5.4390   25.1700 C   0  0  0  0  0  3  0  0  0  0  0  0
  -21.5490   -4.0920   25.1400 C   0  0  0  0  0  0  0  0  0  0  0  0
  -22.0100   -3.5220   23.9400 C   0  0  0  0  0  3  0  0  0  0  0  0
  -22.0620   -4.2980   22.7680 C   0  0  0  0  0  0  0  0  0  0  0  0
  -22.4870   -3.7380   21.6100 F   0  0  0  0  0  0  0  0  0  0  0  0
  -21.4950   -3.3420   26.2650 F   0  0  0  0  0  0  0  0  0  0  0  0
  -22.4550  -13.0470   21.5400 C   0  0  0  0  0  0  0  0  0  0  0  0
  -21.9130  -12.2750   22.4780 N   0  0  0  0  0  0  0  0  0  0  0  0
  -21.8970  -14.0780   21.1670 O   0  0  0  0  0  0  0  0  0  0  0  0
  -22.3780  -11.4400   22.8000 H   0  0  0  0  0  0  0  0  0  0  0  0
  -21.0200  -12.5240   22.8800 H   0  0  0  0  0  0  0  0  0  0  0  0
  -24.8480  -14.8660   20.3860 N   0  0  0  0  0  0  0  0  0  0  0  0
  -24.0960  -15.4840   20.6710 H   0  0  0  0  0  0  0  0  0  0  0  0
  -25.6240  -15.3570   19.9580 H   0  0  0  0  0  0  0  0  0  0  0  0
  -31.3130  -24.0080   21.2870 N   0  0  0  0  0  0  0  0  0  0  0  0
  -31.9300  -23.9850   20.4850 H   0  0  0  0  0  0  0  0  0  0  0  0
  -30.6870  -24.8090   21.2780 H   0  0  0  0  0  0  0  0  0  0  0  0
  -28.6330  -24.1720   22.0960 N   0  0  0  0  0  0  0  0  0  0  0  0
  -27.8310  -24.1290   22.7180 H   0  0  0  0  0  0  0  0  0  0  0  0
  -28.2700  -24.7920   20.8250 C   0  0  0  0  0  2  0  0  0  0  0  0
  -28.5650  -26.3020   20.8140 C   0  0  0  0  0  2  0  0  0  0  0  0
  -28.0980  -26.8700   19.5940 O   0  0  0  0  0  0  0  0  0  0  0  0
  -24.6070  -31.9170   23.1960 C   0  0  0  0  0  0  0  0  0  0  0  0
  -26.9590  -27.6200   19.7340 C   0  0  0  0  0  0  0  0  0  0  0  0
  -23.2690  -30.6230   21.5680 C   0  0  0  0  0  3  0  0  0  0  0  0
  -24.5970  -29.1340   19.9780 C   0  0  0  0  0  0  0  0  0  0  0  0
  -25.7780  -30.9570   21.2210 C   0  0  0  0  0  2  0  0  0  0  0  0
  -25.7970  -29.6180   20.5170 C   0  0  0  0  0  0  0  0  0  0  0  0
  -26.9840  -28.8640   20.4010 C   0  0  0  0  0  3  0  0  0  0  0  0
  -25.7510  -27.1410   19.1920 C   0  0  0  0  0  3  0  0  0  0  0  0
  -24.5650  -27.8900   19.3210 C   0  0  0  0  0  3  0  0  0  0  0  0
  -23.3740  -30.0060   20.1460 C   0  0  0  0  0  2  0  0  0  0  0  0
  -24.5740  -31.1750   22.0540 N   0  0  0  0  0  0  0  0  0  0  0  0
  -23.5690  -32.1820   23.8180 O   0  0  0  0  0  0  0  0  0  0  0  0
  -22.6600  -29.5660   22.5150 C   0  0  0  0  0  0  0  0  0  0  0  0
  -21.3330  -29.3800   22.4230 N   0  0  0  0  0  0  0  0  0  0  0  0
  -23.3730  -28.9180   23.2850 O   0  0  0  0  0  0  0  0  0  0  0  0
  -20.8190  -29.9520   21.7680 H   0  0  0  0  0  0  0  0  0  0  0  0
  -17.9930  -28.1010   22.9320 C   0  0  0  0  0  0  0  0  0  0  0  0
  -20.5460  -28.4130   23.1860 C   0  0  0  0  0  3  0  0  0  0  0  0
  -20.6770  -26.9940   22.5870 C   0  0  0  0  0  2  0  0  0  0  0  0
  -19.5740  -26.6600   21.5780 C   0  0  0  0  0  2  0  0  0  0  0  0
  -18.1940  -26.7660   22.2360 C   0  0  0  0  0  2  0  0  0  0  0  0
  -19.0980  -28.8820   23.3620 C   0  0  0  0  0  0  0  0  0  0  0  0
  -18.8570  -30.1330   23.9710 C   0  0  0  0  0  3  0  0  0  0  0  0
  -17.5430  -30.6040   24.1510 C   0  0  0  0  0  3  0  0  0  0  0  0
  -16.4530  -29.8200   23.7400 C   0  0  0  0  0  3  0  0  0  0  0  0
  -16.6790  -28.5700   23.1370 C   0  0  0  0  0  3  0  0  0  0  0  0
  -25.9450  -32.4890   23.7630 C   0  0  0  0  0  3  0  0  0  0  0  0
  -25.6860  -33.8660   24.1990 N   0  0  0  0  0  0  0  0  0  0  0  0
  -26.0060  -34.9590   23.4930 C   0  0  0  0  0  0  0  0  0  0  0  0
  -26.6260  -34.9110   22.4260 O   0  0  0  0  0  0  0  0  0  0  0  0
  -25.1290  -33.9810   25.0330 H   0  0  0  0  0  0  0  0  0  0  0  0
  -24.3100  -36.8080   23.3350 C   0  0  0  0  0  1  0  0  0  0  0  0
  -25.5730  -36.3230   24.0620 C   0  0  0  0  0  3  0  0  0  0  0  0
  -27.7630  -37.1000   24.8580 C   0  0  0  0  0  1  0  0  0  0  0  0
  -26.6260  -37.3590   23.9770 N   0  0  0  0  0  0  0  0  0  0  0  0
  -26.2500  -38.2740   24.2060 H   0  0  0  0  0  0  0  0  0  0  0  0
  -26.5370  -31.6290   24.9460 C   0  0  1  0  0  0  0  0  0  0  0  0
  -25.5130  -31.3300   26.0650 C   0  0  0  0  0  1  0  0  0  0  0  0
  -27.0740  -30.2770   24.4200 C   0  0  0  0  0  1  0  0  0  0  0  0
  -27.7420  -32.3650   25.5780 C   0  0  0  0  0  1  0  0  0  0  0  0
  1  2  1  0
  3  6  2  0
  3  4  1  0
  4  1  2  0
  5 53  1  0
  5  2  2  0
  6  5  1  0
  7  4  1  0
  7  8  1  0
  8 11  1  0
  8 10  1  0
  9  7  2  0
 12 11  1  0
 13 12  1  0
 14 13  1  0
 15 20  1  0
 16 17  1  0
 16 15  1  0
 18 17  1  0
 18 25  1  0
 18 19  1  0
 20 14  1  0
 20 19  1  0
 21 14  2  0
 22 23  2  0
 23 42  1  0
 24 23  1  0
 24 27  1  0
 25 26  1  0
 25 22  1  0
 26 24  2  0
 27 28  1  0
 28 29  2  0
 30 33  1  0
 30 29  1  0
 31 30  2  0
 32 31  1  0
 32 27  2  0
 33 34  1  0
 34 35  1  0
 35 36  2  0
 37 36  1  0
 37 41  1  0
 38 37  2  0
 39 34  2  0
 39 38  1  0
 40 39  1  0
 42 43  1  0
 43 45  1  0
 43 46  1  0
 44 42  2  0
 47 22  1  0
 47 48  1  0
 49 47  1  0
 50  6  1  0
 51 50  1  0
 52 50  1  0
 53 54  1  0
 55 53  1  0
 56 55  1  0
 57 59  1  0
 57 56  1  0
 58 69  2  0
 59 64  1  0
 60 68  1  0
 60 70  1  0
 61 67  1  0
 61 63  1  0
 62 68  1  0
 63 62  1  0
 64 63  2  0
 65 66  1  0
 65 59  2  0
 66 61  2  0
 67 60  1  0
 68 58  1  0
 70 72  2  0
 71 70  1  0
 73 71  1  0
 74 83  2  0
 74 79  1  0
 75 71  1  0
 75 79  1  0
 76 75  1  0
 77 78  1  0
 77 76  1  0
 78 74  1  0
 79 80  2  0
 80 81  1  0
 82 81  2  0
 83 82  1  0
 84 58  1  0
 84 85  1  0
 84 94  1  0
 85 88  1  0
 86 90  1  0
 86 85  1  0
 87 86  2  0
 90 89  1  0
 92 90  1  0
 92 93  1  0
 92 91  1  0
 94 97  1  1
 94 95  1  0
 96 94  1  0
M  ISO  4  13 100  14 100  56 101  57 101
M  END
>  <TORSDO>  (80) 
F 24

>  <SCORE>  (80) 
-10.471

>  <name>  (80) 
82

>  <ligand_id>  (80) 
82

>  <original_smiles>  (80) 
[H]c1c([H])c([H])c2c(c1[H])C([H])([H])C([H])([H])C([H])([H])C2([H])N([H])C(=O)C1([H])N(C(=O)C([H])(N([H])C(=O)C([H])(N([H])C([H])([H])[H])C([H])([H])[H])C(C([H])([H])[H])(C([H])([H])[H])C([H])([H])[H])C([H])([H])c2c([H])c(OC([H])([H])C([H])([H])N([H])c3c([H])c([H])c(C(=O)N([H])C([H])([H])C([H])([H])C([H])([H])C(=O)N4C([H])([H])C([H])([H])C([H])([H])C([H])(n5nc(-c6c([H])c([H])c(Oc7c([H])c([H])c(F)c([H])c7F)c([H])c6[H])c(C(=O)N([H])[H])c5N([H])[H])C4([H])[H])c([H])c3N([H])[H])c([H])c([H])c2C1([H])[H]

>  <smiles>  (80) 
[H]c1c([H])c([H])c2c(c1[H])C([H])([H])C([H])([H])C([H])([H])C2([H])N([H])C(=O)C1([H])N(C(=O)C([H])(N([H])C(=O)C([H])(N([H])C([H])([H])[H])C([H])([H])[H])C(C([H])([H])[H])(C([H])([H])[H])C([H])([H])[H])C([H])([H])c2c([H])c(OC([H])([H])C([H])([H])N([H])c3c([H])c([H])c(C(=O)N([H])C([H])([H])C([H])([H])C([H])([H])C(=O)N4C([H])([H])C([H])([H])C([H])([H])C([H])(n5nc(-c6c([H])c([H])c(Oc7c([H])c([H])c(F)c([H])c7F)c([H])c6[H])c(C(=O)N([H])[H])c5N([H])[H])C4([H])[H])c([H])c3N([H])[H])c([H])c([H])c2C1([H])[H]

$$$$
83:0:0
     RDKit          3D

 91 98  0  0  1  0  0  0  0  0999 V2000
  -29.4610  -19.8810   21.2120 C   0  0  0  0  0  0  0  0  0  0  0  0
  -28.6120  -20.9120   21.1560 N   0  0  0  0  0  0  0  0  0  0  0  0
  -30.6640  -20.0170   21.4510 O   0  0  0  0  0  0  0  0  0  0  0  0
  -27.6480  -20.6770   20.9620 H   0  0  0  0  0  0  0  0  0  0  0  0
  -28.0820  -18.3610   19.6410 C   0  0  0  0  0  1  0  0  0  0  0  0
  -28.8100  -18.4920   20.9980 C   0  0  0  0  0  3  0  0  0  0  0  0
  -30.4360  -16.7050   20.5310 C   0  0  0  0  0  0  0  0  0  0  0  0
  -30.7310  -17.0980   19.0830 C   0  0  0  0  0  1  0  0  0  0  0  0
  -29.6460  -17.3320   21.3240 N   0  0  0  0  0  0  0  0  0  0  0  0
  -31.1460  -15.4540   21.0860 C   0  0  0  0  0  2  0  0  0  0  0  0
  -31.4330  -14.3230   20.0680 C   0  0  0  0  0  0  0  0  0  0  0  0
  -30.9470  -12.1300   19.0290 C   0  0  0  0  0  2  0  0  0  0  0  0
  -30.0010  -12.2600   17.8230 C   0  0  0  0  0  2  0  0  0  0  0  0
  -28.5320  -12.2140   18.2810 C   0  0  0  0  0  2  0  0  0  0  0  0
  -28.2470  -13.1890   19.4550 C   0  0  0  0  0  3  0  0  0  0  0  0
  -29.3090  -13.0480   20.5710 C   0  0  0  0  0  2  0  0  0  0  0  0
  -30.6430  -13.2190   19.9730 N   0  0  0  0  0  0  0  0  0  0  0  0
  -32.4490  -14.4470   19.3750 O   0  0  0  0  0  0  0  0  0  0  0  0
  -25.9150  -13.9580   20.2430 C   0  0  0  0  0  0  0  0  0  0  0  0
  -24.8110  -13.2640   20.6520 C   0  0  0  0  0  0  0  0  0  0  0  0
  -25.1720  -11.8810   20.6030 C   0  0  0  0  0  0  0  0  0  0  0  0
  -26.8920  -13.0080   19.9780 N   0  0  0  0  0  0  0  0  0  0  0  0
  -26.4460  -11.7540   20.2490 N   0  0  0  0  0  0  0  0  0  0  0  0
  -24.3630  -10.6740   20.8140 C   0  0  0  0  0  0  0  0  0  0  0  0
  -24.7280   -9.6970   21.7670 C   0  0  0  0  0  3  0  0  0  0  0  0
  -23.9230   -8.5560   21.9670 C   0  0  0  0  0  3  0  0  0  0  0  0
  -22.7380   -8.3820   21.2130 C   0  0  0  0  0  0  0  0  0  0  0  0
  -22.3890   -9.3460   20.2530 C   0  0  0  0  0  3  0  0  0  0  0  0
  -23.1930  -10.4780   20.0500 C   0  0  0  0  0  3  0  0  0  0  0  0
  -21.9100   -7.2910   21.3220 O   0  0  0  0  0  0  0  0  0  0  0  0
  -21.7700   -6.6070   22.5030 C   0  0  0  0  0  0  0  0  0  0  0  0
  -21.3260   -7.2420   23.6830 C   0  0  0  0  0  3  0  0  0  0  0  0
  -21.1290   -6.4880   24.8560 C   0  0  0  0  0  3  0  0  0  0  0  0
  -21.3670   -5.1010   24.8520 C   0  0  0  0  0  0  0  0  0  0  0  0
  -21.8030   -4.4650   23.6770 C   0  0  0  0  0  3  0  0  0  0  0  0
  -22.0030   -5.2180   22.5050 C   0  0  0  0  0  0  0  0  0  0  0  0
  -22.4040   -4.5970   21.3690 F   0  0  0  0  0  0  0  0  0  0  0  0
  -21.1690   -4.3730   25.9760 F   0  0  0  0  0  0  0  0  0  0  0  0
  -23.4600  -13.8360   20.9740 C   0  0  0  0  0  0  0  0  0  0  0  0
  -22.7200  -13.2020   21.8770 N   0  0  0  0  0  0  0  0  0  0  0  0
  -23.0710  -14.8850   20.4600 O   0  0  0  0  0  0  0  0  0  0  0  0
  -23.0410  -12.3510   22.3170 H   0  0  0  0  0  0  0  0  0  0  0  0
  -21.8160  -13.5720   22.1360 H   0  0  0  0  0  0  0  0  0  0  0  0
  -26.1660  -15.3120   20.0550 N   0  0  0  0  0  0  0  0  0  0  0  0
  -25.4400  -16.0110   20.1690 H   0  0  0  0  0  0  0  0  0  0  0  0
  -27.0290  -15.6910   19.6880 H   0  0  0  0  0  0  0  0  0  0  0  0
  -28.9030  -22.3240   21.3790 C   0  0  0  0  0  2  0  0  0  0  0  0
  -27.6630  -23.1590   20.9970 C   0  0  0  0  0  2  0  0  0  0  0  0
  -27.8260  -24.6800   21.1740 C   0  0  0  0  0  2  0  0  0  0  0  0
  -28.5920  -25.3840   20.0330 C   0  0  0  0  0  2  0  0  0  0  0  0
  -28.5720  -26.8080   20.1830 O   0  0  0  0  0  0  0  0  0  0  0  0
  -24.5630  -31.8170   23.2150 C   0  0  0  0  0  0  0  0  0  0  0  0
  -27.3620  -27.4740   20.1400 C   0  0  0  0  0  0  0  0  0  0  0  0
  -23.4160  -30.4170   21.5270 C   0  0  0  0  0  3  0  0  0  0  0  0
  -24.9300  -28.9260   20.1140 C   0  0  0  0  0  0  0  0  0  0  0  0
  -25.9380  -30.8260   21.3890 C   0  0  0  0  0  2  0  0  0  0  0  0
  -26.0630  -29.4680   20.7290 C   0  0  0  0  0  0  0  0  0  0  0  0
  -27.2800  -28.7510   20.7350 C   0  0  0  0  0  3  0  0  0  0  0  0
  -26.2040  -26.9380   19.5260 C   0  0  0  0  0  3  0  0  0  0  0  0
  -24.9940  -27.6570   19.5100 C   0  0  0  0  0  3  0  0  0  0  0  0
  -23.6680  -29.7590   20.1420 C   0  0  0  0  0  2  0  0  0  0  0  0
  -24.6560  -31.0350   22.1030 N   0  0  0  0  0  0  0  0  0  0  0  0
  -23.4660  -32.0640   23.7330 O   0  0  0  0  0  0  0  0  0  0  0  0
  -22.7610  -29.3720   22.4580 C   0  0  0  0  0  0  0  0  0  0  0  0
  -21.4410  -29.1790   22.3020 N   0  0  0  0  0  0  0  0  0  0  0  0
  -23.4380  -28.7400   23.2740 O   0  0  0  0  0  0  0  0  0  0  0  0
  -20.9560  -29.7410   21.6140 H   0  0  0  0  0  0  0  0  0  0  0  0
  -18.0660  -27.9750   22.7430 C   0  0  0  0  0  0  0  0  0  0  0  0
  -20.6220  -28.2180   23.0390 C   0  0  0  0  0  3  0  0  0  0  0  0
  -20.7250  -26.8050   22.4200 C   0  0  0  0  0  2  0  0  0  0  0  0
  -19.6270  -26.5070   21.3940 C   0  0  0  0  0  2  0  0  0  0  0  0
  -18.2390  -26.6490   22.0230 C   0  0  0  0  0  2  0  0  0  0  0  0
  -19.1830  -28.7180   23.2080 C   0  0  0  0  0  0  0  0  0  0  0  0
  -18.9660  -29.9600   23.8460 C   0  0  0  0  0  3  0  0  0  0  0  0
  -17.6610  -30.4580   24.0210 C   0  0  0  0  0  3  0  0  0  0  0  0
  -16.5600  -29.7160   23.5630 C   0  0  0  0  0  3  0  0  0  0  0  0
  -16.7640  -28.4750   22.9360 C   0  0  0  0  0  3  0  0  0  0  0  0
  -25.8250  -32.4590   23.8720 C   0  0  0  0  0  3  0  0  0  0  0  0
  -25.5080  -33.8630   24.1650 N   0  0  0  0  0  0  0  0  0  0  0  0
  -25.8710  -34.9010   23.3980 C   0  0  0  0  0  0  0  0  0  0  0  0
  -26.5840  -34.7760   22.3980 O   0  0  0  0  0  0  0  0  0  0  0  0
  -24.8820  -34.0330   24.9380 H   0  0  0  0  0  0  0  0  0  0  0  0
  -24.1580  -36.6800   22.9400 C   0  0  0  0  0  1  0  0  0  0  0  0
  -25.3670  -36.2980   23.8070 C   0  0  0  0  0  3  0  0  0  0  0  0
  -27.4670  -37.2020   24.7030 C   0  0  0  0  0  1  0  0  0  0  0  0
  -26.4040  -37.3490   23.7110 N   0  0  0  0  0  0  0  0  0  0  0  0
  -25.9930  -38.2730   23.8210 H   0  0  0  0  0  0  0  0  0  0  0  0
  -26.2930  -31.7110   25.1800 C   0  0  1  0  0  0  0  0  0  0  0  0
  -25.1580  -31.4770   26.2030 C   0  0  0  0  0  1  0  0  0  0  0  0
  -26.9050  -30.3340   24.8330 C   0  0  0  0  0  1  0  0  0  0  0  0
  -27.4100  -32.5240   25.8790 C   0  0  0  0  0  1  0  0  0  0  0  0
  1  3  2  0
  2  1  1  0
  2 47  1  0
  4  2  1  0
  6  5  1  0
  6  1  1  0
  6  9  1  0
  7 10  1  0
  7  9  2  0
  8  7  1  0
 11 10  1  0
 12 17  1  0
 13 14  1  0
 13 12  1  0
 15 14  1  0
 15 22  1  0
 15 16  1  0
 17 11  1  0
 17 16  1  0
 18 11  2  0
 19 20  2  0
 20 39  1  0
 21 20  1  0
 21 24  1  0
 22 19  1  0
 22 23  1  0
 23 21  2  0
 24 25  1  0
 25 26  2  0
 27 30  1  0
 27 26  1  0
 28 27  2  0
 29 28  1  0
 29 24  2  0
 30 31  1  0
 31 36  2  0
 31 32  1  0
 32 33  2  0
 34 33  1  0
 34 38  1  0
 35 34  2  0
 36 35  1  0
 37 36  1  0
 39 40  1  0
 40 43  1  0
 40 42  1  0
 41 39  2  0
 44 45  1  0
 44 19  1  0
 46 44  1  0
 48 49  1  0
 48 47  1  0
 50 51  1  0
 50 49  1  0
 52 63  2  0
 53 51  1  0
 53 58  1  0
 54 62  1  0
 54 64  1  0
 55 61  1  0
 55 57  1  0
 56 62  1  0
 57 58  2  0
 57 56  1  0
 59 53  2  0
 60 59  1  0
 60 55  2  0
 61 54  1  0
 62 52  1  0
 64 66  2  0
 65 64  1  0
 67 65  1  0
 68 77  2  0
 68 73  1  0
 69 65  1  0
 69 73  1  0
 70 69  1  0
 71 72  1  0
 71 70  1  0
 72 68  1  0
 73 74  2  0
 74 75  1  0
 76 75  2  0
 77 76  1  0
 78 52  1  0
 78 79  1  0
 78 88  1  0
 79 82  1  0
 80 84  1  0
 80 79  1  0
 81 80  2  0
 84 83  1  0
 86 84  1  0
 86 87  1  0
 86 85  1  0
 88 91  1  1
 88 89  1  0
 90 88  1  0
M  ISO  4  10 100  11 100  50 101  51 101
M  END
>  <TORSDO>  (81) 
F 23

>  <SCORE>  (81) 
-12.432

>  <name>  (81) 
83

>  <ligand_id>  (81) 
83

>  <original_smiles>  (81) 
[H]c1c([H])c([H])c2c(c1[H])C([H])([H])C([H])([H])C([H])([H])C2([H])N([H])C(=O)C1([H])N(C(=O)C([H])(N([H])C(=O)C([H])(N([H])C([H])([H])[H])C([H])([H])[H])C(C([H])([H])[H])(C([H])([H])[H])C([H])([H])[H])C([H])([H])c2c([H])c(OC([H])([H])C([H])([H])C([H])([H])C([H])([H])N([H])C(=O)C([H])(N=C(C([H])([H])[H])C([H])([H])C(=O)N3C([H])([H])C([H])([H])C([H])([H])C([H])(n4nc(-c5c([H])c([H])c(Oc6c([H])c([H])c(F)c([H])c6F)c([H])c5[H])c(C(=O)N([H])[H])c4N([H])[H])C3([H])[H])C([H])([H])[H])c([H])c([H])c2C1([H])[H]

>  <smiles>  (81) 
[H]c1c([H])c([H])c2c(c1[H])C([H])([H])C([H])([H])C([H])([H])C2([H])N([H])C(=O)C1([H])N(C(=O)C([H])(N([H])C(=O)C([H])(N([H])C([H])([H])[H])C([H])([H])[H])C(C([H])([H])[H])(C([H])([H])[H])C([H])([H])[H])C([H])([H])c2c([H])c(OC([H])([H])C([H])([H])C([H])([H])C([H])([H])N([H])C(=O)C([H])(N=C(C([H])([H])[H])C([H])([H])C(=O)N3C([H])([H])C([H])([H])C([H])([H])C([H])(n4nc(-c5c([H])c([H])c(Oc6c([H])c([H])c(F)c([H])c6F)c([H])c5[H])c(C(=O)N([H])[H])c4N([H])[H])C3([H])[H])C([H])([H])[H])c([H])c([H])c2C1([H])[H]

$$$$
84:0:0
     RDKit          3D

 91 98  0  0  1  0  0  0  0  0999 V2000
  -29.4140  -22.6120   19.4400 N   0  0  0  0  0  4  0  0  0  0  0  0
  -30.3830  -22.7030   19.7070 H   0  0  0  0  0  0  0  0  0  0  0  0
  -29.3900  -22.7450   18.4420 H   0  0  0  0  0  0  0  0  0  0  0  0
  -28.6290  -23.7590   20.1040 C   0  0  0  0  0  2  0  0  0  0  0  0
  -28.6150  -25.2090   19.4010 C   0  0  0  0  0  2  0  0  0  0  0  0
  -28.3860  -26.4600   20.1860 O   0  0  0  0  0  0  0  0  0  0  0  0
  -24.5530  -31.8070   23.2190 C   0  0  0  0  0  0  0  0  0  0  0  0
  -27.2250  -27.2590   20.1340 C   0  0  0  0  0  0  0  0  0  0  0  0
  -23.3710  -30.4170   21.5560 C   0  0  0  0  0  3  0  0  0  0  0  0
  -24.8400  -28.8680   20.1350 C   0  0  0  0  0  0  0  0  0  0  0  0
  -25.9110  -30.7340   21.4050 C   0  0  0  0  0  2  0  0  0  0  0  0
  -26.0000  -29.3550   20.7480 C   0  0  0  0  0  0  0  0  0  0  0  0
  -27.1880  -28.5610   20.7400 C   0  0  0  0  0  3  0  0  0  0  0  0
  -26.0290  -26.8170   19.5220 C   0  0  0  0  0  3  0  0  0  0  0  0
  -24.8560  -27.6040   19.5210 C   0  0  0  0  0  3  0  0  0  0  0  0
  -23.6010  -29.7430   20.1770 C   0  0  0  0  0  2  0  0  0  0  0  0
  -24.6310  -31.0040   22.1180 N   0  0  0  0  0  0  0  0  0  0  0  0
  -23.4640  -32.0840   23.7430 O   0  0  0  0  0  0  0  0  0  0  0  0
  -22.6960  -29.4000   22.5050 C   0  0  0  0  0  0  0  0  0  0  0  0
  -21.3740  -29.2120   22.3450 N   0  0  0  0  0  0  0  0  0  0  0  0
  -23.3570  -28.7830   23.3420 O   0  0  0  0  0  0  0  0  0  0  0  0
  -20.9030  -29.7590   21.6380 H   0  0  0  0  0  0  0  0  0  0  0  0
  -18.0010  -27.9700   22.7390 C   0  0  0  0  0  0  0  0  0  0  0  0
  -20.5430  -28.2700   23.0930 C   0  0  0  0  0  3  0  0  0  0  0  0
  -20.6870  -26.8370   22.5300 C   0  0  0  0  0  2  0  0  0  0  0  0
  -19.6250  -26.4880   21.4840 C   0  0  0  0  0  2  0  0  0  0  0  0
  -18.2190  -26.6180   22.0790 C   0  0  0  0  0  2  0  0  0  0  0  0
  -19.0910  -28.7500   23.1990 C   0  0  0  0  0  0  0  0  0  0  0  0
  -18.8350  -30.0130   23.7760 C   0  0  0  0  0  3  0  0  0  0  0  0
  -17.5180  -30.4970   23.8950 C   0  0  0  0  0  3  0  0  0  0  0  0
  -16.4400  -29.7120   23.4500 C   0  0  0  0  0  3  0  0  0  0  0  0
  -16.6800  -28.4500   22.8780 C   0  0  0  0  0  3  0  0  0  0  0  0
  -25.8270  -32.4370   23.8640 C   0  0  0  0  0  3  0  0  0  0  0  0
  -26.3140  -31.6630   25.1520 C   0  0  1  0  0  0  0  0  0  0  0  0
  -25.1970  -31.4340   26.1970 C   0  0  0  0  0  1  0  0  0  0  0  0
  -26.8980  -30.2810   24.7750 C   0  0  0  0  0  1  0  0  0  0  0  0
  -27.4520  -32.4530   25.8390 C   0  0  0  0  0  1  0  0  0  0  0  0
  -25.5180  -33.8360   24.1890 N   0  0  0  0  0  0  0  0  0  0  0  0
  -25.8770  -34.8890   23.4420 C   0  0  0  0  0  0  0  0  0  0  0  0
  -26.5690  -34.7820   22.4270 O   0  0  0  0  0  0  0  0  0  0  0  0
  -24.9020  -33.9920   24.9730 H   0  0  0  0  0  0  0  0  0  0  0  0
  -24.1710  -36.7000   23.0530 C   0  0  0  0  0  1  0  0  0  0  0  0
  -25.3900  -36.2810   23.8910 C   0  0  0  0  0  3  0  0  0  0  0  0
  -27.5080  -37.1530   24.7780 C   0  0  0  0  0  1  0  0  0  0  0  0
  -26.4320  -37.3270   23.8050 N   0  0  0  0  0  0  0  0  0  0  0  0
  -26.0290  -38.2490   23.9430 H   0  0  0  0  0  0  0  0  0  0  0  0
  -28.9690  -21.1690   19.6820 C   0  0  0  0  0  3  0  0  0  0  0  0
  -27.0650  -19.5570   18.8290 C   0  0  0  0  0  1  0  0  0  0  0  0
  -27.7710  -20.9200   18.7210 C   0  0  0  0  0  2  0  0  0  0  0  0
  -30.0750  -19.9980   19.5040 C   0  0  0  0  0  2  0  0  0  0  0  0
  -30.6500  -19.0050   21.7970 C   0  0  0  0  0  1  0  0  0  0  0  0
  -30.0080  -18.6760   20.4240 C   0  0  0  0  0  3  0  0  0  0  0  0
  -30.6080  -17.2850   19.8450 C   0  0  0  0  0  2  0  0  0  0  0  0
  -30.8590  -14.7370   20.0280 C   0  0  0  0  0  0  0  0  0  0  0  0
  -30.6350  -12.5340   18.8550 C   0  0  0  0  0  2  0  0  0  0  0  0
  -29.6130  -12.6360   17.6970 C   0  0  0  0  0  2  0  0  0  0  0  0
  -28.1550  -12.4740   18.1780 C   0  0  0  0  0  2  0  0  0  0  0  0
  -27.8710  -13.2910   19.4610 C   0  0  0  0  0  3  0  0  0  0  0  0
  -28.9820  -13.0290   20.5060 C   0  0  0  0  0  2  0  0  0  0  0  0
  -30.2300  -13.5100   19.9010 N   0  0  0  0  0  0  0  0  0  0  0  0
  -32.0120  -14.8380   19.5920 O   0  0  0  0  0  0  0  0  0  0  0  0
  -29.0310  -15.9420   21.3120 C   0  0  0  0  0  1  0  0  0  0  0  0
  -30.1360  -15.9060   20.3300 N   0  0  0  0  0  0  0  0  0  0  0  0
  -25.5130  -13.9420   20.2630 C   0  0  0  0  0  0  0  0  0  0  0  0
  -24.4510  -13.1850   20.6750 C   0  0  0  0  0  0  0  0  0  0  0  0
  -24.8920  -11.8270   20.6260 C   0  0  0  0  0  0  0  0  0  0  0  0
  -26.5360  -13.0450   19.9960 N   0  0  0  0  0  0  0  0  0  0  0  0
  -26.1680  -11.7700   20.2690 N   0  0  0  0  0  0  0  0  0  0  0  0
  -24.1590  -10.5760   20.8390 C   0  0  0  0  0  0  0  0  0  0  0  0
  -24.5650   -9.6370   21.8120 C   0  0  0  0  0  3  0  0  0  0  0  0
  -23.8310   -8.4470   22.0070 C   0  0  0  0  0  3  0  0  0  0  0  0
  -22.6790   -8.1900   21.2260 C   0  0  0  0  0  0  0  0  0  0  0  0
  -22.2990   -9.1130   20.2370 C   0  0  0  0  0  3  0  0  0  0  0  0
  -23.0320  -10.2940   20.0410 C   0  0  0  0  0  3  0  0  0  0  0  0
  -21.9150   -7.0520   21.3300 O   0  0  0  0  0  0  0  0  0  0  0  0
  -21.7680   -6.3910   22.5220 C   0  0  0  0  0  0  0  0  0  0  0  0
  -21.2370   -7.0260   23.6660 C   0  0  0  0  0  3  0  0  0  0  0  0
  -21.0380   -6.2900   24.8510 C   0  0  0  0  0  3  0  0  0  0  0  0
  -21.3580   -4.9220   24.8930 C   0  0  0  0  0  0  0  0  0  0  0  0
  -21.8830   -4.2850   23.7550 C   0  0  0  0  0  3  0  0  0  0  0  0
  -22.0850   -5.0170   22.5720 C   0  0  0  0  0  0  0  0  0  0  0  0
  -22.5700   -4.3920   21.4720 F   0  0  0  0  0  0  0  0  0  0  0  0
  -21.1560   -4.2180   26.0320 F   0  0  0  0  0  0  0  0  0  0  0  0
  -23.0710  -13.6790   21.0080 C   0  0  0  0  0  0  0  0  0  0  0  0
  -22.3750  -12.9880   21.9060 N   0  0  0  0  0  0  0  0  0  0  0  0
  -22.6210  -14.7080   20.5060 O   0  0  0  0  0  0  0  0  0  0  0  0
  -22.7560  -12.1530   22.3280 H   0  0  0  0  0  0  0  0  0  0  0  0
  -21.4490  -13.2920   22.1720 H   0  0  0  0  0  0  0  0  0  0  0  0
  -25.6840  -15.3120   20.0670 N   0  0  0  0  0  0  0  0  0  0  0  0
  -24.9510  -15.9930   20.2270 H   0  0  0  0  0  0  0  0  0  0  0  0
  -26.5290  -15.7310   19.7030 H   0  0  0  0  0  0  0  0  0  0  0  0
  1 47  1  0
  1  2  1  0
  1  4  1  0
  3  1  1  0
  5  4  1  0
  5  6  1  0
  7 18  2  0
  8  6  1  0
  8 13  1  0
  9 17  1  0
  9 19  1  0
 10 16  1  0
 10 12  1  0
 11 17  1  0
 12 11  1  0
 13 12  2  0
 14  8  2  0
 15 14  1  0
 15 10  2  0
 16  9  1  0
 17  7  1  0
 19 21  2  0
 20 19  1  0
 22 20  1  0
 23 32  2  0
 23 28  1  0
 24 20  1  0
 24 28  1  0
 25 24  1  0
 26 27  1  0
 26 25  1  0
 27 23  1  0
 28 29  2  0
 29 30  1  0
 31 30  2  0
 32 31  1  0
 33  7  1  0
 33 38  1  0
 33 34  1  0
 34 37  1  1
 34 35  1  0
 36 34  1  0
 38 41  1  0
 39 43  1  0
 39 38  1  0
 40 39  2  0
 43 42  1  0
 45 43  1  0
 45 46  1  0
 45 44  1  0
 47 49  1  0
 49 48  1  0
 50 47  1  0
 50 52  1  0
 52 51  1  0
 53 63  1  0
 53 52  1  0
 54 63  1  0
 55 60  1  0
 56 57  1  0
 56 55  1  0
 58 57  1  0
 58 67  1  0
 58 59  1  0
 60 54  1  0
 60 59  1  0
 61 54  2  0
 63 62  1  0
 64 65  2  0
 65 84  1  0
 66 65  1  0
 66 69  1  0
 67 64  1  0
 67 68  1  0
 68 66  2  0
 69 70  1  0
 70 71  2  0
 72 75  1  0
 72 71  1  0
 73 72  2  0
 74 73  1  0
 74 69  2  0
 75 76  1  0
 76 81  2  0
 76 77  1  0
 77 78  2  0
 78 79  1  0
 79 83  1  0
 80 79  2  0
 81 80  1  0
 82 81  1  0
 84 85  1  0
 85 88  1  0
 85 87  1  0
 86 84  2  0
 89 90  1  0
 89 64  1  0
 91 89  1  0
M  ISO  4   5 101   6 101  54 100  63 100
M  END
>  <TORSDO>  (82) 
F 23

>  <SCORE>  (82) 
-12.160

>  <name>  (82) 
84

>  <ligand_id>  (82) 
84

>  <original_smiles>  (82) 
[H]c1c([H])c([H])c2c(c1[H])C([H])([H])C([H])([H])C([H])([H])C2([H])N([H])C(=O)C1([H])N(C(=O)C([H])(N([H])C(=O)C([H])(N([H])C([H])([H])[H])C([H])([H])[H])C(C([H])([H])[H])(C([H])([H])[H])C([H])([H])[H])C([H])([H])c2c([H])c(OC([H])([H])C([H])([H])[N+]([H])([H])C([H])(C([H])([H])C([H])([H])[H])C([H])([H])C([H])(C([H])([H])[H])C([H])([H])N(C(=O)N3C([H])([H])C([H])([H])C([H])([H])C([H])(n4nc(-c5c([H])c([H])c(Oc6c([H])c([H])c(F)c([H])c6F)c([H])c5[H])c(C(=O)N([H])[H])c4N([H])[H])C3([H])[H])C([H])([H])[H])c([H])c([H])c2C1([H])[H]

>  <smiles>  (82) 
[H]c1c([H])c([H])c2c(c1[H])C([H])([H])C([H])([H])C([H])([H])C2([H])N([H])C(=O)C1([H])N(C(=O)C([H])(N([H])C(=O)C([H])(N([H])C([H])([H])[H])C([H])([H])[H])C(C([H])([H])[H])(C([H])([H])[H])C([H])([H])[H])C([H])([H])c2c([H])c(OC([H])([H])C([H])([H])[N+]([H])([H])C([H])(C([H])([H])C([H])([H])[H])C([H])([H])C([H])(C([H])([H])[H])C([H])([H])N(C(=O)N3C([H])([H])C([H])([H])C([H])([H])C([H])(n4nc(-c5c([H])c([H])c(Oc6c([H])c([H])c(F)c([H])c6F)c([H])c5[H])c(C(=O)N([H])[H])c4N([H])[H])C3([H])[H])C([H])([H])[H])c([H])c([H])c2C1([H])[H]

$$$$
85:0:0
     RDKit          3D

 94101  0  0  1  0  0  0  0  0999 V2000
  -27.9420  -23.4750   18.3460 C   0  0  0  0  0  3  0  0  0  0  0  0
  -25.8270  -23.9690   17.0880 C   0  0  0  0  0  1  0  0  0  0  0  0
  -26.4580  -23.4170   18.3060 N   0  0  0  0  0  4  0  0  0  0  0  0
  -26.1960  -22.4450   18.3390 H   0  0  0  0  0  0  0  0  0  0  0  0
  -26.0530  -23.8450   19.1230 H   0  0  0  0  0  0  0  0  0  0  0  0
  -28.4880  -24.9080   18.5740 C   0  0  0  0  0  2  0  0  0  0  0  0
  -28.3920  -25.3890   20.0370 C   0  0  0  0  0  2  0  0  0  0  0  0
  -28.4380  -26.8030   20.1370 O   0  0  0  0  0  0  0  0  0  0  0  0
  -24.6050  -31.8850   23.2470 C   0  0  0  0  0  0  0  0  0  0  0  0
  -27.2360  -27.4760   20.1420 C   0  0  0  0  0  0  0  0  0  0  0  0
  -23.3880  -30.4860   21.6080 C   0  0  0  0  0  3  0  0  0  0  0  0
  -24.8310  -28.9530   20.1800 C   0  0  0  0  0  0  0  0  0  0  0  0
  -25.9100  -30.8510   21.3970 C   0  0  0  0  0  2  0  0  0  0  0  0
  -25.9910  -29.4830   20.7580 C   0  0  0  0  0  0  0  0  0  0  0  0
  -27.1950  -28.7510   20.7370 C   0  0  0  0  0  3  0  0  0  0  0  0
  -26.0540  -26.9510   19.5680 C   0  0  0  0  0  3  0  0  0  0  0  0
  -24.8560  -27.6820   19.5840 C   0  0  0  0  0  3  0  0  0  0  0  0
  -23.5890  -29.8090   20.2280 C   0  0  0  0  0  2  0  0  0  0  0  0
  -24.6530  -31.0870   22.1420 N   0  0  0  0  0  0  0  0  0  0  0  0
  -23.5280  -32.1570   23.7920 O   0  0  0  0  0  0  0  0  0  0  0  0
  -22.7430  -29.4620   22.5710 C   0  0  0  0  0  0  0  0  0  0  0  0
  -21.4180  -29.2830   22.4480 N   0  0  0  0  0  0  0  0  0  0  0  0
  -23.4300  -28.8320   23.3790 O   0  0  0  0  0  0  0  0  0  0  0  0
  -20.9260  -29.8440   21.7680 H   0  0  0  0  0  0  0  0  0  0  0  0
  -18.0420  -28.1050   22.9580 C   0  0  0  0  0  0  0  0  0  0  0  0
  -20.6010  -28.3490   23.2220 C   0  0  0  0  0  3  0  0  0  0  0  0
  -20.6950  -26.9180   22.6420 C   0  0  0  0  0  2  0  0  0  0  0  0
  -19.5880  -26.6020   21.6330 C   0  0  0  0  0  2  0  0  0  0  0  0
  -18.2080  -26.7550   22.2810 C   0  0  0  0  0  2  0  0  0  0  0  0
  -19.1660  -28.8600   23.3840 C   0  0  0  0  0  0  0  0  0  0  0  0
  -18.9560  -30.1250   23.9750 C   0  0  0  0  0  3  0  0  0  0  0  0
  -17.6560  -30.6350   24.1440 C   0  0  0  0  0  3  0  0  0  0  0  0
  -16.5460  -29.8760   23.7340 C   0  0  0  0  0  3  0  0  0  0  0  0
  -16.7400  -28.6130   23.1470 C   0  0  0  0  0  3  0  0  0  0  0  0
  -25.8960  -32.5110   23.8590 C   0  0  0  0  0  3  0  0  0  0  0  0
  -26.4320  -31.7260   25.1200 C   0  0  1  0  0  0  0  0  0  0  0  0
  -25.3540  -31.4710   26.1980 C   0  0  0  0  0  1  0  0  0  0  0  0
  -27.0140  -30.3550   24.7000 C   0  0  0  0  0  1  0  0  0  0  0  0
  -27.5880  -32.5150   25.7770 C   0  0  0  0  0  1  0  0  0  0  0  0
  -25.5900  -33.9050   24.2060 N   0  0  0  0  0  0  0  0  0  0  0  0
  -25.9110  -34.9630   23.4490 C   0  0  0  0  0  0  0  0  0  0  0  0
  -26.5690  -34.8680   22.4090 O   0  0  0  0  0  0  0  0  0  0  0  0
  -25.0050  -34.0520   25.0140 H   0  0  0  0  0  0  0  0  0  0  0  0
  -24.1690  -36.7480   23.1270 C   0  0  0  0  0  1  0  0  0  0  0  0
  -25.4230  -36.3460   23.9210 C   0  0  0  0  0  3  0  0  0  0  0  0
  -27.5660  -37.2320   24.7270 C   0  0  0  0  0  1  0  0  0  0  0  0
  -26.4490  -37.4030   23.8000 N   0  0  0  0  0  0  0  0  0  0  0  0
  -26.0430  -38.3210   23.9620 H   0  0  0  0  0  0  0  0  0  0  0  0
  -28.4830  -22.4980   19.4100 C   0  0  0  0  0  2  0  0  0  0  0  0
  -28.1970  -21.0270   19.1010 C   0  0  0  0  0  2  0  0  0  0  0  0
  -28.6620  -20.1140   20.2420 C   0  0  0  0  0  2  0  0  0  0  0  0
  -28.4400  -18.6430   19.8850 C   0  0  0  0  0  2  0  0  0  0  0  0
  -29.0690  -17.7310   20.8590 N   0  0  0  0  0  4  0  0  0  0  0  0
  -28.3670  -17.4210   21.5120 H   0  0  0  0  0  0  0  0  0  0  0  0
  -29.7710  -18.2350   21.3760 H   0  0  0  0  0  0  0  0  0  0  0  0
  -29.7090  -16.5800   20.1960 C   0  0  0  0  0  2  0  0  0  0  0  0
  -31.2640  -15.9030   22.1250 C   0  0  0  0  0  1  0  0  0  0  0  0
  -30.1550  -15.4540   21.1470 C   0  0  0  0  0  3  0  0  0  0  0  0
  -30.6620  -14.3150   20.2390 C   0  0  0  0  0  0  0  0  0  0  0  0
  -30.2480  -12.2590   18.9460 C   0  0  0  0  0  2  0  0  0  0  0  0
  -29.2490  -12.5440   17.8070 C   0  0  0  0  0  2  0  0  0  0  0  0
  -27.7920  -12.4080   18.2970 C   0  0  0  0  0  2  0  0  0  0  0  0
  -27.5340  -13.1740   19.6230 C   0  0  0  0  0  3  0  0  0  0  0  0
  -28.6360  -12.8510   20.6560 C   0  0  0  0  0  2  0  0  0  0  0  0
  -29.9410  -13.1760   20.0550 N   0  0  0  0  0  0  0  0  0  0  0  0
  -31.7020  -14.5360   19.6110 O   0  0  0  0  0  0  0  0  0  0  0  0
  -25.1590  -13.7690   20.4260 C   0  0  0  0  0  0  0  0  0  0  0  0
  -24.1120  -12.9880   20.8380 C   0  0  0  0  0  0  0  0  0  0  0  0
  -24.5780  -11.6400   20.7770 C   0  0  0  0  0  0  0  0  0  0  0  0
  -26.1990  -12.8930   20.1490 N   0  0  0  0  0  0  0  0  0  0  0  0
  -25.8520  -11.6080   20.4110 N   0  0  0  0  0  0  0  0  0  0  0  0
  -23.8680  -10.3720   20.9900 C   0  0  0  0  0  0  0  0  0  0  0  0
  -24.3400   -9.4090   21.9090 C   0  0  0  0  0  3  0  0  0  0  0  0
  -23.6320   -8.2040   22.1110 C   0  0  0  0  0  3  0  0  0  0  0  0
  -22.4390   -7.9540   21.3930 C   0  0  0  0  0  0  0  0  0  0  0  0
  -21.9860   -8.9060   20.4610 C   0  0  0  0  0  3  0  0  0  0  0  0
  -22.6950  -10.1010   20.2580 C   0  0  0  0  0  3  0  0  0  0  0  0
  -21.6990   -6.8020   21.5050 O   0  0  0  0  0  0  0  0  0  0  0  0
  -21.6860   -6.0630   22.6610 C   0  0  0  0  0  0  0  0  0  0  0  0
  -21.2940   -6.6230   23.8980 C   0  0  0  0  0  3  0  0  0  0  0  0
  -21.2270   -5.8100   25.0460 C   0  0  0  0  0  3  0  0  0  0  0  0
  -21.5420   -4.4410   24.9610 C   0  0  0  0  0  0  0  0  0  0  0  0
  -21.9300   -3.8830   23.7310 C   0  0  0  0  0  3  0  0  0  0  0  0
  -21.9970   -4.6920   22.5820 C   0  0  0  0  0  0  0  0  0  0  0  0
  -22.3490   -4.1440   21.3940 F   0  0  0  0  0  0  0  0  0  0  0  0
  -21.4710   -3.6590   26.0630 F   0  0  0  0  0  0  0  0  0  0  0  0
  -22.7250  -13.4550   21.1760 C   0  0  0  0  0  0  0  0  0  0  0  0
  -22.0400  -12.7460   22.0670 N   0  0  0  0  0  0  0  0  0  0  0  0
  -22.2570  -14.4820   20.6860 O   0  0  0  0  0  0  0  0  0  0  0  0
  -22.4320  -11.9170   22.4890 H   0  0  0  0  0  0  0  0  0  0  0  0
  -21.1110  -13.0390   22.3340 H   0  0  0  0  0  0  0  0  0  0  0  0
  -25.3090  -15.1410   20.2490 N   0  0  0  0  0  0  0  0  0  0  0  0
  -24.5390  -15.7870   20.3820 H   0  0  0  0  0  0  0  0  0  0  0  0
  -26.1250  -15.5750   19.8430 H   0  0  0  0  0  0  0  0  0  0  0  0
  1  6  1  0
  1 49  1  0
  2  3  1  0
  3  4  1  0
  3  1  1  0
  3  5  1  0
  6  7  1  0
  7  8  1  0
  8 10  1  0
  9 20  2  0
 10 15  1  0
 11 19  1  0
 11 21  1  0
 12 18  1  0
 12 14  1  0
 13 19  1  0
 14 13  1  0
 15 14  2  0
 16 17  1  0
 16 10  2  0
 17 12  2  0
 18 11  1  0
 19  9  1  0
 21 23  2  0
 22 21  1  0
 24 22  1  0
 25 34  2  0
 25 30  1  0
 26 22  1  0
 26 30  1  0
 27 26  1  0
 28 29  1  0
 28 27  1  0
 29 25  1  0
 30 31  2  0
 31 32  1  0
 33 32  2  0
 34 33  1  0
 35  9  1  0
 35 40  1  0
 35 36  1  0
 36 39  1  1
 36 37  1  0
 38 36  1  0
 40 43  1  0
 41 45  1  0
 41 40  1  0
 42 41  2  0
 45 44  1  0
 47 45  1  0
 47 48  1  0
 47 46  1  0
 50 49  1  0
 50 51  1  0
 52 51  1  0
 52 53  1  0
 53 55  1  0
 53 54  1  0
 56 53  1  0
 56 58  1  0
 58 57  1  0
 59 58  1  0
 60 65  1  0
 61 62  1  0
 61 60  1  0
 63 62  1  0
 63 70  1  0
 63 64  1  0
 65 59  1  0
 65 64  1  0
 66 59  2  0
 67 68  2  0
 68 87  1  0
 69 68  1  0
 69 72  1  0
 70 71  1  0
 70 67  1  0
 71 69  2  0
 72 73  1  0
 73 74  2  0
 75 78  1  0
 75 74  1  0
 76 75  2  0
 77 76  1  0
 77 72  2  0
 78 79  1  0
 79 80  1  0
 80 81  2  0
 82 81  1  0
 82 86  1  0
 83 82  2  0
 84 79  2  0
 84 83  1  0
 85 84  1  0
 87 88  1  0
 88 91  1  0
 88 90  1  0
 89 87  2  0
 92 93  1  0
 92 67  1  0
 94 92  1  0
M  ISO  4   7 101   8 101  58 100  59 100
M  END
>  <TORSDO>  (83) 
F 26

>  <SCORE>  (83) 
-11.623

>  <name>  (83) 
85

>  <ligand_id>  (83) 
85

>  <original_smiles>  (83) 
[H]c1c([H])c([H])c2c(c1[H])C([H])([H])C([H])([H])C([H])([H])C2([H])N([H])C(=O)C1([H])N(C(=O)C([H])(N([H])C(=O)C([H])(N([H])C([H])([H])[H])C([H])([H])[H])C(C([H])([H])[H])(C([H])([H])[H])C([H])([H])[H])C([H])([H])c2c([H])c(OC([H])([H])C([H])([H])C([H])(C([H])([H])C([H])([H])C([H])([H])C([H])([H])[N+]([H])([H])C([H])([H])C([H])(C(=O)N3C([H])([H])C([H])([H])C([H])([H])C([H])(n4nc(-c5c([H])c([H])c(Oc6c([H])c([H])c(F)c([H])c6F)c([H])c5[H])c(C(=O)N([H])[H])c4N([H])[H])C3([H])[H])C([H])([H])[H])[N+]([H])([H])C([H])([H])[H])c([H])c([H])c2C1([H])[H]

>  <smiles>  (83) 
[H]c1c([H])c([H])c2c(c1[H])C([H])([H])C([H])([H])C([H])([H])C2([H])N([H])C(=O)C1([H])N(C(=O)C([H])(N([H])C(=O)C([H])(N([H])C([H])([H])[H])C([H])([H])[H])C(C([H])([H])[H])(C([H])([H])[H])C([H])([H])[H])C([H])([H])c2c([H])c(OC([H])([H])C([H])([H])C([H])(C([H])([H])C([H])([H])C([H])([H])C([H])([H])[N+]([H])([H])C([H])([H])C([H])(C(=O)N3C([H])([H])C([H])([H])C([H])([H])C([H])(n4nc(-c5c([H])c([H])c(Oc6c([H])c([H])c(F)c([H])c6F)c([H])c5[H])c(C(=O)N([H])[H])c4N([H])[H])C3([H])[H])C([H])([H])[H])[N+]([H])([H])C([H])([H])[H])c([H])c([H])c2C1([H])[H]

$$$$
86:0:0
     RDKit          3D

 93101  0  0  1  0  0  0  0  0999 V2000
  -30.4830  -19.2870   20.5980 C   0  0  0  0  0  3  0  0  0  0  0  0
  -28.5800  -19.4920   19.1600 C   0  0  0  0  0  3  0  0  0  0  0  0
  -30.4660  -20.7040   20.7940 C   0  0  0  0  0  3  0  0  0  0  0  0
  -28.5480  -20.9090   19.3730 C   0  0  0  0  0  3  0  0  0  0  0  0
  -29.5510  -18.6260   19.7540 C   0  0  0  0  0  0  0  0  0  0  0  0
  -29.5190  -21.5700   20.1750 C   0  0  0  0  0  0  0  0  0  0  0  0
  -30.7260  -14.9610   19.5750 C   0  0  0  0  0  0  0  0  0  0  0  0
  -30.3110  -12.7890   18.4250 C   0  0  0  0  0  2  0  0  0  0  0  0
  -29.1990  -12.9760   17.3750 C   0  0  0  0  0  2  0  0  0  0  0  0
  -27.8090  -12.7740   18.0110 C   0  0  0  0  0  2  0  0  0  0  0  0
  -27.6460  -13.5560   19.3420 C   0  0  0  0  0  3  0  0  0  0  0  0
  -28.8640  -13.3490   20.2650 C   0  0  0  0  0  2  0  0  0  0  0  0
  -30.0570  -13.7580   19.5150 N   0  0  0  0  0  0  0  0  0  0  0  0
  -31.8070  -15.0780   18.9860 O   0  0  0  0  0  0  0  0  0  0  0  0
  -29.7080  -17.1420   19.2980 C   0  0  0  0  0  0  0  0  0  0  0  0
  -30.1060  -16.0860   20.1130 N   0  0  0  0  0  0  0  0  0  0  0  0
  -29.4360  -16.9410   18.1070 O   0  0  0  0  0  0  0  0  0  0  0  0
  -25.4430  -14.0920   20.5440 C   0  0  0  0  0  0  0  0  0  0  0  0
  -24.4220  -13.2970   20.9900 C   0  0  0  0  0  0  0  0  0  0  0  0
  -24.8110  -11.9530   20.6990 C   0  0  0  0  0  0  0  0  0  0  0  0
  -26.3900  -13.2330   20.0150 N   0  0  0  0  0  0  0  0  0  0  0  0
  -26.0270  -11.9320   20.1650 N   0  0  0  0  0  0  0  0  0  0  0  0
  -24.0730  -10.6920   20.8460 C   0  0  0  0  0  0  0  0  0  0  0  0
  -24.5670   -9.6350   21.6410 C   0  0  0  0  0  3  0  0  0  0  0  0
  -23.8310   -8.4390   21.7800 C   0  0  0  0  0  3  0  0  0  0  0  0
  -22.5860   -8.2920   21.1240 C   0  0  0  0  0  0  0  0  0  0  0  0
  -22.1100   -9.3380   20.3150 C   0  0  0  0  0  3  0  0  0  0  0  0
  -22.8450  -10.5250   20.1730 C   0  0  0  0  0  3  0  0  0  0  0  0
  -21.8130   -7.1580   21.1800 O   0  0  0  0  0  0  0  0  0  0  0  0
  -21.7730   -6.3690   22.3030 C   0  0  0  0  0  0  0  0  0  0  0  0
  -21.4050   -6.8870   23.5630 C   0  0  0  0  0  3  0  0  0  0  0  0
  -21.3100   -6.0250   24.6760 C   0  0  0  0  0  3  0  0  0  0  0  0
  -21.5730   -4.6510   24.5280 C   0  0  0  0  0  0  0  0  0  0  0  0
  -21.9310   -4.1340   23.2700 C   0  0  0  0  0  3  0  0  0  0  0  0
  -22.0300   -4.9910   22.1610 C   0  0  0  0  0  0  0  0  0  0  0  0
  -22.3570   -4.4840   20.9470 F   0  0  0  0  0  0  0  0  0  0  0  0
  -21.4730   -3.8220   25.5930 F   0  0  0  0  0  0  0  0  0  0  0  0
  -23.1140  -13.7630   21.5620 C   0  0  0  0  0  0  0  0  0  0  0  0
  -22.5280  -12.9870   22.4660 N   0  0  0  0  0  0  0  0  0  0  0  0
  -22.6250  -14.8440   21.2410 O   0  0  0  0  0  0  0  0  0  0  0  0
  -22.9420  -12.1110   22.7500 H   0  0  0  0  0  0  0  0  0  0  0  0
  -21.6540  -13.2730   22.8820 H   0  0  0  0  0  0  0  0  0  0  0  0
  -25.6360  -15.4710   20.5220 N   0  0  0  0  0  0  0  0  0  0  0  0
  -24.9300  -16.1250   20.8440 H   0  0  0  0  0  0  0  0  0  0  0  0
  -26.4270  -15.9250   20.0840 H   0  0  0  0  0  0  0  0  0  0  0  0
  -29.9930  -16.2260   21.5870 C   0  0  0  0  0  2  0  0  0  0  0  0
  -31.0170  -16.0540   23.9190 C   0  0  0  0  0  1  0  0  0  0  0  0
  -31.2490  -15.8560   22.4180 C   0  0  0  0  0  2  0  0  0  0  0  0
  -29.6680  -22.9980   20.3120 N   0  0  0  0  0  0  0  0  0  0  0  0
  -30.5280  -23.2720   20.7810 H   0  0  0  0  0  0  0  0  0  0  0  0
  -28.6280  -24.0850   20.3710 C   0  0  0  0  0  2  0  0  0  0  0  0
  -29.0080  -25.4840   19.6690 C   0  0  0  0  0  2  0  0  0  0  0  0
  -28.7500  -26.8110   20.2810 O   0  0  0  0  0  0  0  0  0  0  0  0
  -24.5270  -31.8740   23.1840 C   0  0  0  0  0  0  0  0  0  0  0  0
  -27.5490  -27.5300   20.1740 C   0  0  0  0  0  0  0  0  0  0  0  0
  -23.4690  -30.3930   21.5130 C   0  0  0  0  0  3  0  0  0  0  0  0
  -25.0640  -28.9540   20.1150 C   0  0  0  0  0  0  0  0  0  0  0  0
  -25.9780  -30.9000   21.3870 C   0  0  0  0  0  2  0  0  0  0  0  0
  -26.1750  -29.5320   20.7390 C   0  0  0  0  0  0  0  0  0  0  0  0
  -27.4150  -28.8290   20.7590 C   0  0  0  0  0  3  0  0  0  0  0  0
  -26.4090  -26.9950   19.5340 C   0  0  0  0  0  3  0  0  0  0  0  0
  -25.1830  -27.6930   19.5060 C   0  0  0  0  0  3  0  0  0  0  0  0
  -23.7640  -29.7340   20.1380 C   0  0  0  0  0  2  0  0  0  0  0  0
  -24.6750  -31.0760   22.0850 N   0  0  0  0  0  0  0  0  0  0  0  0
  -23.4140  -32.0680   23.6960 O   0  0  0  0  0  0  0  0  0  0  0  0
  -22.8610  -29.3300   22.4580 C   0  0  0  0  0  0  0  0  0  0  0  0
  -21.5600  -29.0400   22.2860 N   0  0  0  0  0  0  0  0  0  0  0  0
  -23.5610  -28.7670   23.3050 O   0  0  0  0  0  0  0  0  0  0  0  0
  -21.0530  -29.5510   21.5760 H   0  0  0  0  0  0  0  0  0  0  0  0
  -18.2810  -27.5620   22.6680 C   0  0  0  0  0  0  0  0  0  0  0  0
  -20.7950  -28.0410   23.0330 C   0  0  0  0  0  3  0  0  0  0  0  0
  -21.0420  -26.6210   22.4730 C   0  0  0  0  0  2  0  0  0  0  0  0
  -20.0120  -26.2000   21.4220 C   0  0  0  0  0  2  0  0  0  0  0  0
  -18.5980  -26.2300   22.0110 C   0  0  0  0  0  2  0  0  0  0  0  0
  -19.3140  -28.4190   23.1340 C   0  0  0  0  0  0  0  0  0  0  0  0
  -18.9630  -29.6610   23.7070 C   0  0  0  0  0  3  0  0  0  0  0  0
  -17.6160  -30.0490   23.8190 C   0  0  0  0  0  3  0  0  0  0  0  0
  -16.5980  -29.1890   23.3710 C   0  0  0  0  0  3  0  0  0  0  0  0
  -16.9310  -27.9480   22.8000 C   0  0  0  0  0  3  0  0  0  0  0  0
  -25.7450  -32.5970   23.8380 C   0  0  0  0  0  3  0  0  0  0  0  0
  -25.3300  -33.9710   24.1540 N   0  0  0  0  0  0  0  0  0  0  0  0
  -25.5900  -35.0410   23.3920 C   0  0  0  0  0  0  0  0  0  0  0  0
  -26.2770  -34.9820   22.3680 O   0  0  0  0  0  0  0  0  0  0  0  0
  -24.7160  -34.0870   24.9480 H   0  0  0  0  0  0  0  0  0  0  0  0
  -23.7290  -36.6930   23.0220 C   0  0  0  0  0  1  0  0  0  0  0  0
  -24.9970  -36.3930   23.8360 C   0  0  0  0  0  3  0  0  0  0  0  0
  -27.0590  -37.4460   24.6530 C   0  0  0  0  0  1  0  0  0  0  0  0
  -25.9450  -37.5230   23.7140 N   0  0  0  0  0  0  0  0  0  0  0  0
  -25.4680  -38.4090   23.8600 H   0  0  0  0  0  0  0  0  0  0  0  0
  -26.2810  -31.8690   25.1330 C   0  0  1  0  0  0  0  0  0  0  0  0
  -25.1750  -31.5380   26.1620 C   0  0  0  0  0  1  0  0  0  0  0  0
  -26.9880  -30.5460   24.7610 C   0  0  0  0  0  1  0  0  0  0  0  0
  -27.3370  -32.7550   25.8340 C   0  0  0  0  0  1  0  0  0  0  0  0
  1  3  1  0
  2  4  2  0
  2  5  1  0
  4  6  1  0
  5  1  2  0
  6 49  1  0
  6  3  2  0
  7 16  1  0
  8 13  1  0
  9 10  1  0
  9  8  1  0
 11 10  1  0
 11 21  1  0
 11 12  1  0
 13  7  1  0
 13 12  1  0
 14  7  2  0
 15  5  1  0
 15 16  1  0
 16 46  1  0
 17 15  2  0
 18 19  2  0
 19 38  1  0
 20 23  1  0
 20 19  1  0
 21 22  1  0
 21 18  1  0
 22 20  2  0
 23 24  1  0
 24 25  2  0
 26 29  1  0
 26 25  1  0
 27 26  2  0
 28 27  1  0
 28 23  2  0
 29 30  1  0
 30 31  1  0
 31 32  2  0
 33 32  1  0
 33 37  1  0
 34 33  2  0
 35 30  2  0
 35 34  1  0
 36 35  1  0
 38 39  1  0
 39 41  1  0
 39 42  1  0
 40 38  2  0
 43 18  1  0
 43 44  1  0
 45 43  1  0
 46 48  1  0
 48 47  1  0
 49 51  1  0
 49 50  1  0
 52 53  1  0
 52 51  1  0
 54 65  2  0
 55 53  1  0
 55 60  1  0
 56 64  1  0
 56 66  1  0
 57 63  1  0
 57 59  1  0
 58 64  1  0
 59 60  2  0
 59 58  1  0
 61 55  2  0
 62 61  1  0
 62 57  2  0
 63 56  1  0
 64 54  1  0
 66 68  2  0
 67 66  1  0
 69 67  1  0
 70 79  2  0
 70 75  1  0
 71 67  1  0
 71 75  1  0
 72 71  1  0
 73 74  1  0
 73 72  1  0
 74 70  1  0
 75 76  2  0
 76 77  1  0
 78 77  2  0
 79 78  1  0
 80 54  1  0
 80 81  1  0
 80 90  1  0
 81 84  1  0
 82 86  1  0
 82 81  1  0
 83 82  2  0
 86 85  1  0
 88 86  1  0
 88 89  1  0
 88 87  1  0
 90 93  1  1
 90 91  1  0
 92 90  1  0
M  ISO  4   7 100  16 100  52 101  53 101
M  END
>  <TORSDO>  (84) 
F 21

>  <SCORE>  (84) 
-7.935

>  <name>  (84) 
86

>  <ligand_id>  (84) 
86

>  <original_smiles>  (84) 
[H]c1c([H])c([H])c2c(c1[H])C([H])([H])C([H])([H])C([H])([H])C2([H])N([H])C(=O)C1([H])N(C(=O)C([H])(N([H])C(=O)C([H])(N([H])C([H])([H])[H])C([H])([H])[H])C(C([H])([H])[H])(C([H])([H])[H])C([H])([H])[H])C([H])([H])c2c([H])c(OC([H])([H])C([H])([H])N([H])c3c([H])c([H])c(C(=O)N(C(=O)N4C([H])([H])C([H])([H])C([H])([H])C([H])(n5nc(-c6c([H])c([H])c(Oc7c([H])c([H])c(F)c([H])c7F)c([H])c6[H])c(C(=O)N([H])[H])c5N([H])[H])C4([H])[H])C([H])([H])C([H])([H])C([H])([H])[H])c([H])c3[H])c([H])c([H])c2C1([H])[H]

>  <smiles>  (84) 
[H]c1c([H])c([H])c2c(c1[H])C([H])([H])C([H])([H])C([H])([H])C2([H])N([H])C(=O)C1([H])N(C(=O)C([H])(N([H])C(=O)C([H])(N([H])C([H])([H])[H])C([H])([H])[H])C(C([H])([H])[H])(C([H])([H])[H])C([H])([H])[H])C([H])([H])c2c([H])c(OC([H])([H])C([H])([H])N([H])c3c([H])c([H])c(C(=O)N(C(=O)N4C([H])([H])C([H])([H])C([H])([H])C([H])(n5nc(-c6c([H])c([H])c(Oc7c([H])c([H])c(F)c([H])c7F)c([H])c6[H])c(C(=O)N([H])[H])c5N([H])[H])C4([H])[H])C([H])([H])C([H])([H])C([H])([H])[H])c([H])c3[H])c([H])c([H])c2C1([H])[H]

$$$$
88:0:0
     RDKit          3D

 97105  0  0  1  0  0  0  0  0999 V2000
  -32.6790  -20.7870   22.7540 C   0  0  0  0  0  3  0  0  0  0  0  0
  -32.9140  -21.9760   22.0590 C   0  0  0  0  0  3  0  0  0  0  0  0
  -31.8590  -19.8070   22.1840 C   0  0  0  0  0  3  0  0  0  0  0  0
  -32.2780  -22.2240   20.8280 C   0  0  0  0  0  0  0  0  0  0  0  0
  -31.3470  -21.2810   20.2710 C   0  0  0  0  0  0  0  0  0  0  0  0
  -31.2230  -19.9960   20.9300 C   0  0  0  0  0  0  0  0  0  0  0  0
  -32.6800  -23.5340   20.1520 C   0  0  0  0  0  1  0  0  0  0  0  0
  -30.1500  -20.5800   18.0290 C   0  0  0  0  0  1  0  0  0  0  0  0
  -30.5440  -21.7120   18.9990 C   0  0  0  0  0  3  0  0  0  0  0  0
  -29.3410  -22.5450   19.3090 N   0  0  0  0  0  4  0  0  0  0  0  0
  -28.7620  -22.4830   18.4860 H   0  0  0  0  0  0  0  0  0  0  0  0
  -28.8320  -22.1050   20.0610 H   0  0  0  0  0  0  0  0  0  0  0  0
  -29.5290  -24.0050   19.5950 C   0  0  0  0  0  2  0  0  0  0  0  0
  -28.2170  -24.8240   19.4560 C   0  0  0  0  0  2  0  0  0  0  0  0
  -28.3480  -26.2220   19.8120 O   0  0  0  0  0  0  0  0  0  0  0  0
  -24.6390  -31.4220   23.0310 C   0  0  0  0  0  0  0  0  0  0  0  0
  -27.1940  -26.9970   19.8120 C   0  0  0  0  0  0  0  0  0  0  0  0
  -23.4160  -30.1190   21.3250 C   0  0  0  0  0  3  0  0  0  0  0  0
  -24.8420  -28.5940   19.8600 C   0  0  0  0  0  0  0  0  0  0  0  0
  -25.9590  -30.4010   21.1740 C   0  0  0  0  0  2  0  0  0  0  0  0
  -26.0120  -29.0530   20.4810 C   0  0  0  0  0  0  0  0  0  0  0  0
  -27.1880  -28.2640   20.4510 C   0  0  0  0  0  3  0  0  0  0  0  0
  -25.9980  -26.5650   19.1860 C   0  0  0  0  0  3  0  0  0  0  0  0
  -24.8340  -27.3510   19.2110 C   0  0  0  0  0  3  0  0  0  0  0  0
  -23.6240  -29.4870   19.9230 C   0  0  0  0  0  2  0  0  0  0  0  0
  -24.6900  -30.6610   21.9010 N   0  0  0  0  0  0  0  0  0  0  0  0
  -23.5570  -31.7090   23.5630 O   0  0  0  0  0  0  0  0  0  0  0  0
  -22.7240  -29.0810   22.2380 C   0  0  0  0  0  0  0  0  0  0  0  0
  -21.3900  -28.9790   22.1220 N   0  0  0  0  0  0  0  0  0  0  0  0
  -23.3820  -28.3740   23.0060 O   0  0  0  0  0  0  0  0  0  0  0  0
  -20.9230  -29.5950   21.4720 H   0  0  0  0  0  0  0  0  0  0  0  0
  -17.9540  -27.9940   22.6670 C   0  0  0  0  0  0  0  0  0  0  0  0
  -20.5320  -28.0460   22.8530 C   0  0  0  0  0  3  0  0  0  0  0  0
  -20.5060  -26.6600   22.1670 C   0  0  0  0  0  2  0  0  0  0  0  0
  -19.3480  -26.4990   21.1770 C   0  0  0  0  0  2  0  0  0  0  0  0
  -18.0050  -26.6930   21.8850 C   0  0  0  0  0  2  0  0  0  0  0  0
  -19.1400  -28.6370   23.1060 C   0  0  0  0  0  0  0  0  0  0  0  0
  -19.0380  -29.8640   23.7990 C   0  0  0  0  0  3  0  0  0  0  0  0
  -17.7810  -30.4440   24.0540 C   0  0  0  0  0  3  0  0  0  0  0  0
  -16.6100  -29.7950   23.6290 C   0  0  0  0  0  3  0  0  0  0  0  0
  -16.6960  -28.5700   22.9430 C   0  0  0  0  0  3  0  0  0  0  0  0
  -25.9320  -31.9920   23.6920 C   0  0  0  0  0  3  0  0  0  0  0  0
  -25.6540  -33.3830   24.0800 N   0  0  0  0  0  0  0  0  0  0  0  0
  -26.0410  -34.4590   23.3810 C   0  0  0  0  0  0  0  0  0  0  0  0
  -26.7420  -34.3810   22.3680 O   0  0  0  0  0  0  0  0  0  0  0  0
  -25.0340  -33.5180   24.8650 H   0  0  0  0  0  0  0  0  0  0  0  0
  -24.3940  -36.3270   23.0400 C   0  0  0  0  0  1  0  0  0  0  0  0
  -25.5790  -35.8380   23.8870 C   0  0  0  0  0  3  0  0  0  0  0  0
  -27.6950  -36.6070   24.8700 C   0  0  0  0  0  1  0  0  0  0  0  0
  -26.6530  -36.8560   23.8770 N   0  0  0  0  0  0  0  0  0  0  0  0
  -26.2740  -37.7850   24.0380 H   0  0  0  0  0  0  0  0  0  0  0  0
  -26.4150  -31.1530   24.9380 C   0  0  1  0  0  0  0  0  0  0  0  0
  -25.3050  -30.9030   25.9860 C   0  0  0  0  0  1  0  0  0  0  0  0
  -26.9620  -29.7790   24.4920 C   0  0  0  0  0  1  0  0  0  0  0  0
  -27.5840  -31.8850   25.6380 C   0  0  0  0  0  1  0  0  0  0  0  0
  -30.4910  -18.8960   20.4150 N   0  0  0  0  0  0  0  0  0  0  0  0
  -29.9100  -19.0900   19.6080 H   0  0  0  0  0  0  0  0  0  0  0  0
  -31.0670  -17.5320   20.4200 C   0  0  0  0  0  2  0  0  0  0  0  0
  -30.0900  -16.4720   19.8300 C   0  0  0  0  0  2  0  0  0  0  0  0
  -30.7650  -14.0590   19.7320 C   0  0  0  0  0  0  0  0  0  0  0  0
  -30.2730  -11.9470   18.5210 C   0  0  0  0  0  2  0  0  0  0  0  0
  -29.1800  -12.1770   17.4540 C   0  0  0  0  0  2  0  0  0  0  0  0
  -27.7630  -12.0620   18.0570 C   0  0  0  0  0  2  0  0  0  0  0  0
  -27.6180  -12.8580   19.3810 C   0  0  0  0  0  3  0  0  0  0  0  0
  -28.7930  -12.5340   20.3230 C   0  0  0  0  0  2  0  0  0  0  0  0
  -30.0450  -12.8950   19.6320 N   0  0  0  0  0  0  0  0  0  0  0  0
  -31.7670  -14.2540   19.0350 O   0  0  0  0  0  0  0  0  0  0  0  0
  -29.8590  -15.0620   21.8360 C   0  0  0  0  0  1  0  0  0  0  0  0
  -30.1900  -15.1040   20.4030 N   0  0  0  0  0  0  0  0  0  0  0  0
  -25.3620  -13.5230   20.4280 C   0  0  0  0  0  0  0  0  0  0  0  0
  -24.3190  -12.7760   20.9060 C   0  0  0  0  0  0  0  0  0  0  0  0
  -24.7110  -11.4100   20.7540 C   0  0  0  0  0  0  0  0  0  0  0  0
  -26.3260  -12.6130   20.0200 N   0  0  0  0  0  0  0  0  0  0  0  0
  -25.9430  -11.3350   20.2680 N   0  0  0  0  0  0  0  0  0  0  0  0
  -23.9630  -10.1690   20.9900 C   0  0  0  0  0  0  0  0  0  0  0  0
  -24.4180   -9.1950   21.9050 C   0  0  0  0  0  3  0  0  0  0  0  0
  -23.6740   -8.0150   22.1260 C   0  0  0  0  0  3  0  0  0  0  0  0
  -22.4610   -7.8020   21.4290 C   0  0  0  0  0  0  0  0  0  0  0  0
  -22.0240   -8.7650   20.5030 C   0  0  0  0  0  3  0  0  0  0  0  0
  -22.7690   -9.9350   20.2810 C   0  0  0  0  0  3  0  0  0  0  0  0
  -21.6850   -6.6740   21.5590 O   0  0  0  0  0  0  0  0  0  0  0  0
  -21.6030   -5.9910   22.7460 C   0  0  0  0  0  0  0  0  0  0  0  0
  -21.1180   -6.6000   23.9240 C   0  0  0  0  0  3  0  0  0  0  0  0
  -20.9790   -5.8420   25.1040 C   0  0  0  0  0  3  0  0  0  0  0  0
  -21.3190   -4.4760   25.1070 C   0  0  0  0  0  0  0  0  0  0  0  0
  -21.7990   -3.8660   23.9360 C   0  0  0  0  0  3  0  0  0  0  0  0
  -21.9390   -4.6220   22.7570 C   0  0  0  0  0  0  0  0  0  0  0  0
  -22.3800   -4.0250   21.6250 F   0  0  0  0  0  0  0  0  0  0  0  0
  -21.1810   -3.7460   26.2380 F   0  0  0  0  0  0  0  0  0  0  0  0
  -22.9960  -13.2910   21.3900 C   0  0  0  0  0  0  0  0  0  0  0  0
  -22.3690  -12.5900   22.3270 N   0  0  0  0  0  0  0  0  0  0  0  0
  -22.5300  -14.3500   20.9740 O   0  0  0  0  0  0  0  0  0  0  0  0
  -22.7590  -11.7320   22.6870 H   0  0  0  0  0  0  0  0  0  0  0  0
  -21.4850  -12.9200   22.6900 H   0  0  0  0  0  0  0  0  0  0  0  0
  -25.5700  -14.8940   20.2910 N   0  0  0  0  0  0  0  0  0  0  0  0
  -24.8630  -15.5820   20.5250 H   0  0  0  0  0  0  0  0  0  0  0  0
  -26.4000  -15.3000   19.8780 H   0  0  0  0  0  0  0  0  0  0  0  0
  2  1  2  0
  3  1  1  0
  4  2  1  0
  5  4  2  0
  5  6  1  0
  6  3  2  0
  7  4  1  0
  9  8  1  0
  9 10  1  0
  9  5  1  0
 10 13  1  0
 10 12  1  0
 11 10  1  0
 14 13  1  0
 14 15  1  0
 15 17  1  0
 16 27  2  0
 17 22  1  0
 18 26  1  0
 18 28  1  0
 19 25  1  0
 19 21  1  0
 20 26  1  0
 21 20  1  0
 22 21  2  0
 23 24  1  0
 23 17  2  0
 24 19  2  0
 25 18  1  0
 26 16  1  0
 28 30  2  0
 29 28  1  0
 31 29  1  0
 32 41  2  0
 32 37  1  0
 33 29  1  0
 33 37  1  0
 34 33  1  0
 35 36  1  0
 35 34  1  0
 36 32  1  0
 37 38  2  0
 38 39  1  0
 40 39  2  0
 41 40  1  0
 42 16  1  0
 42 43  1  0
 42 52  1  0
 43 46  1  0
 44 48  1  0
 44 43  1  0
 45 44  2  0
 48 47  1  0
 50 48  1  0
 50 51  1  0
 50 49  1  0
 52 55  1  1
 52 53  1  0
 54 52  1  0
 56 58  1  0
 56  6  1  0
 57 56  1  0
 59 69  1  0
 59 58  1  0
 60 69  1  0
 61 66  1  0
 62 63  1  0
 62 61  1  0
 64 63  1  0
 64 73  1  0
 64 65  1  0
 66 60  1  0
 66 65  1  0
 67 60  2  0
 69 68  1  0
 70 71  2  0
 71 90  1  0
 72 71  1  0
 72 75  1  0
 73 74  1  0
 73 70  1  0
 74 72  2  0
 75 76  1  0
 76 77  2  0
 78 81  1  0
 78 77  1  0
 79 78  2  0
 80 79  1  0
 80 75  2  0
 81 82  1  0
 82 87  2  0
 82 83  1  0
 83 84  2  0
 84 85  1  0
 85 89  1  0
 86 85  2  0
 87 86  1  0
 88 87  1  0
 90 91  1  0
 91 93  1  0
 91 94  1  0
 92 90  2  0
 95 70  1  0
 95 96  1  0
 97 95  1  0
M  ISO  4  14 101  15 101  60 100  69 100
M  END
>  <TORSDO>  (85) 
F 23

>  <SCORE>  (85) 
-10.245

>  <name>  (85) 
88

>  <ligand_id>  (85) 
88

>  <original_smiles>  (85) 
[H]c1c([H])c(N([H])C([H])([H])C([H])([H])N(C(=O)N2C([H])([H])C([H])([H])C([H])([H])C([H])(n3nc(-c4c([H])c([H])c(Oc5c([H])c([H])c(F)c([H])c5F)c([H])c4[H])c(C(=O)N([H])[H])c3N([H])[H])C2([H])[H])C([H])([H])[H])c(C([H])(C([H])([H])[H])[N+]([H])([H])C([H])([H])C([H])([H])Oc2c([H])c([H])c3c(c2[H])C([H])([H])N(C(=O)C([H])(N([H])C(=O)C([H])(N([H])C([H])([H])[H])C([H])([H])[H])C(C([H])([H])[H])(C([H])([H])[H])C([H])([H])[H])C([H])(C(=O)N([H])C2([H])c4c([H])c([H])c([H])c([H])c4C([H])([H])C([H])([H])C2([H])[H])C3([H])[H])c(C([H])([H])[H])c1[H]

>  <smiles>  (85) 
[H]c1c([H])c(N([H])C([H])([H])C([H])([H])N(C(=O)N2C([H])([H])C([H])([H])C([H])([H])C([H])(n3nc(-c4c([H])c([H])c(Oc5c([H])c([H])c(F)c([H])c5F)c([H])c4[H])c(C(=O)N([H])[H])c3N([H])[H])C2([H])[H])C([H])([H])[H])c(C([H])(C([H])([H])[H])[N+]([H])([H])C([H])([H])C([H])([H])Oc2c([H])c([H])c3c(c2[H])C([H])([H])N(C(=O)C([H])(N([H])C(=O)C([H])(N([H])C([H])([H])[H])C([H])([H])[H])C(C([H])([H])[H])(C([H])([H])[H])C([H])([H])[H])C([H])(C(=O)N([H])C2([H])c4c([H])c([H])c([H])c([H])c4C([H])([H])C([H])([H])C2([H])[H])C3([H])[H])c(C([H])([H])[H])c1[H]

$$$$
89:0:0
     RDKit          3D

 86 93  0  0  1  0  0  0  0  0999 V2000
  -29.3320  -21.2690   20.3340 C   0  0  0  0  0  2  0  0  0  0  0  0
  -29.2200  -19.6350   19.6240 C   0  0  0  0  0  2  0  0  0  0  0  0
  -30.2400  -18.1680   19.6760 C   0  0  0  0  0  2  0  0  0  0  0  0
  -30.5690  -15.2890   19.5920 C   0  0  0  0  0  0  0  0  0  0  0  0
  -30.3560  -12.8970   18.6000 C   0  0  0  0  0  2  0  0  0  0  0  0
  -29.3030  -12.7740   17.4690 C   0  0  0  0  0  2  0  0  0  0  0  0
  -27.9010  -12.5070   18.0460 C   0  0  0  0  0  2  0  0  0  0  0  0
  -27.6030  -13.4220   19.2560 C   0  0  0  0  0  3  0  0  0  0  0  0
  -28.7660  -13.4660   20.2640 C   0  0  0  0  0  2  0  0  0  0  0  0
  -29.9480  -14.0010   19.5520 N   0  0  0  0  0  0  0  0  0  0  0  0
  -31.6880  -15.2910   19.0550 O   0  0  0  0  0  0  0  0  0  0  0  0
  -29.9510  -16.5730   20.0400 N   0  0  0  0  0  0  0  0  0  0  0  0
  -25.3400  -13.9830   20.2990 C   0  0  0  0  0  0  0  0  0  0  0  0
  -24.3190  -13.2100   20.7700 C   0  0  0  0  0  0  0  0  0  0  0  0
  -24.7540  -11.8560   20.6280 C   0  0  0  0  0  0  0  0  0  0  0  0
  -26.3330  -13.1070   19.8990 N   0  0  0  0  0  0  0  0  0  0  0  0
  -25.9980  -11.8160   20.1630 N   0  0  0  0  0  0  0  0  0  0  0  0
  -24.0270  -10.5990   20.8480 C   0  0  0  0  0  0  0  0  0  0  0  0
  -24.4930   -9.6250   21.7590 C   0  0  0  0  0  3  0  0  0  0  0  0
  -23.7640   -8.4350   21.9670 C   0  0  0  0  0  3  0  0  0  0  0  0
  -22.5550   -8.2110   21.2670 C   0  0  0  0  0  0  0  0  0  0  0  0
  -22.1080   -9.1740   20.3450 C   0  0  0  0  0  3  0  0  0  0  0  0
  -22.8380  -10.3550   20.1340 C   0  0  0  0  0  3  0  0  0  0  0  0
  -21.7940   -7.0730   21.3860 O   0  0  0  0  0  0  0  0  0  0  0  0
  -21.7220   -6.3770   22.5660 C   0  0  0  0  0  0  0  0  0  0  0  0
  -21.2840   -6.9850   23.7630 C   0  0  0  0  0  3  0  0  0  0  0  0
  -21.1590   -6.2150   24.9380 C   0  0  0  0  0  3  0  0  0  0  0  0
  -21.4600   -4.8400   24.9150 C   0  0  0  0  0  0  0  0  0  0  0  0
  -21.8900   -4.2330   23.7220 C   0  0  0  0  0  3  0  0  0  0  0  0
  -22.0170   -4.9990   22.5500 C   0  0  0  0  0  0  0  0  0  0  0  0
  -22.4120   -4.4050   21.3980 F   0  0  0  0  0  0  0  0  0  0  0  0
  -21.3320   -4.0990   26.0400 F   0  0  0  0  0  0  0  0  0  0  0  0
  -22.9750  -13.6980   21.2240 C   0  0  0  0  0  0  0  0  0  0  0  0
  -22.3560  -13.0000   22.1690 N   0  0  0  0  0  0  0  0  0  0  0  0
  -22.4870  -14.7350   20.7750 O   0  0  0  0  0  0  0  0  0  0  0  0
  -22.7660  -12.1600   22.5500 H   0  0  0  0  0  0  0  0  0  0  0  0
  -21.4600  -13.3100   22.5170 H   0  0  0  0  0  0  0  0  0  0  0  0
  -25.4900  -15.3560   20.1430 N   0  0  0  0  0  0  0  0  0  0  0  0
  -24.7470  -16.0080   20.3680 H   0  0  0  0  0  0  0  0  0  0  0  0
  -26.2940  -15.7990   19.7210 H   0  0  0  0  0  0  0  0  0  0  0  0
  -30.5650  -17.2880   22.4120 C   0  0  0  0  0  1  0  0  0  0  0  0
  -28.1300  -17.0020   21.7130 C   0  0  0  0  0  1  0  0  0  0  0  0
  -29.5780  -16.5510   21.4810 C   0  0  0  0  0  3  0  0  0  0  0  0
  -28.8970  -22.9110   19.7800 C   0  0  0  0  0  2  0  0  0  0  0  0
  -28.3790  -24.4030   20.6090 C   0  0  0  0  0  2  0  0  0  0  0  0
  -28.4690  -26.0090   20.3340 O   0  0  0  0  0  0  0  0  0  0  0  0
  -24.5530  -31.7870   23.1790 C   0  0  0  0  0  0  0  0  0  0  0  0
  -27.3790  -27.0090   20.3150 C   0  0  0  0  0  0  0  0  0  0  0  0
  -23.4560  -30.3260   21.5280 C   0  0  0  0  0  3  0  0  0  0  0  0
  -25.0020  -28.7590   20.1770 C   0  0  0  0  0  0  0  0  0  0  0  0
  -26.0130  -30.6470   21.4420 C   0  0  0  0  0  2  0  0  0  0  0  0
  -26.1550  -29.2340   20.8150 C   0  0  0  0  0  0  0  0  0  0  0  0
  -27.3430  -28.3820   20.8510 C   0  0  0  0  0  3  0  0  0  0  0  0
  -26.1880  -26.6640   19.6410 C   0  0  0  0  0  3  0  0  0  0  0  0
  -25.0390  -27.4930   19.5710 C   0  0  0  0  0  3  0  0  0  0  0  0
  -23.7480  -29.6300   20.1710 C   0  0  0  0  0  2  0  0  0  0  0  0
  -24.6930  -30.9470   22.1030 N   0  0  0  0  0  0  0  0  0  0  0  0
  -23.4400  -32.0420   23.6680 O   0  0  0  0  0  0  0  0  0  0  0  0
  -22.7760  -29.3170   22.4890 C   0  0  0  0  0  0  0  0  0  0  0  0
  -21.4580  -29.0960   22.3260 N   0  0  0  0  0  0  0  0  0  0  0  0
  -23.4410  -28.7310   23.3470 O   0  0  0  0  0  0  0  0  0  0  0  0
  -20.9750  -29.6200   21.6100 H   0  0  0  0  0  0  0  0  0  0  0  0
  -18.1150  -27.7540   22.7420 C   0  0  0  0  0  0  0  0  0  0  0  0
  -20.6500  -28.1380   23.0880 C   0  0  0  0  0  3  0  0  0  0  0  0
  -20.8340  -26.7020   22.5470 C   0  0  0  0  0  2  0  0  0  0  0  0
  -19.7820  -26.3100   21.5030 C   0  0  0  0  0  2  0  0  0  0  0  0
  -18.3740  -26.4030   22.0970 C   0  0  0  0  0  2  0  0  0  0  0  0
  -19.1830  -28.5750   23.1940 C   0  0  0  0  0  0  0  0  0  0  0  0
  -18.8850  -29.8340   23.7600 C   0  0  0  0  0  3  0  0  0  0  0  0
  -17.5540  -30.2740   23.8770 C   0  0  0  0  0  3  0  0  0  0  0  0
  -16.5000  -29.4520   23.4420 C   0  0  0  0  0  3  0  0  0  0  0  0
  -16.7810  -28.1940   22.8800 C   0  0  0  0  0  3  0  0  0  0  0  0
  -25.7830  -32.4840   23.8370 C   0  0  0  0  0  3  0  0  0  0  0  0
  -25.4010  -33.8720   24.1510 N   0  0  0  0  0  0  0  0  0  0  0  0
  -25.7040  -34.9410   23.4020 C   0  0  0  0  0  0  0  0  0  0  0  0
  -26.3960  -34.8650   22.3840 O   0  0  0  0  0  0  0  0  0  0  0  0
  -24.7840  -34.0010   24.9410 H   0  0  0  0  0  0  0  0  0  0  0  0
  -23.9130  -36.6700   23.0170 C   0  0  0  0  0  1  0  0  0  0  0  0
  -25.1540  -36.3100   23.8510 C   0  0  0  0  0  3  0  0  0  0  0  0
  -27.2320  -37.2800   24.7290 C   0  0  0  0  0  1  0  0  0  0  0  0
  -26.1460  -37.4040   23.7610 N   0  0  0  0  0  0  0  0  0  0  0  0
  -25.7000  -38.3070   23.8990 H   0  0  0  0  0  0  0  0  0  0  0  0
  -26.2870  -31.7500   25.1400 C   0  0  1  0  0  0  0  0  0  0  0  0
  -25.1670  -31.4680   26.1690 C   0  0  0  0  0  1  0  0  0  0  0  0
  -26.9520  -30.3990   24.7910 C   0  0  0  0  0  1  0  0  0  0  0  0
  -27.3720  -32.6060   25.8360 C   0  0  0  0  0  1  0  0  0  0  0  0
  2  3  1  0
  2  1  1  0
  3 12  1  0
  4 12  1  0
  5 10  1  0
  6  7  1  0
  6  5  1  0
  8  7  1  0
  8 16  1  0
  8  9  1  0
 10  4  1  0
 10  9  1  0
 11  4  2  0
 12 43  1  0
 13 14  2  0
 14 33  1  0
 15 14  1  0
 15 18  1  0
 16 17  1  0
 16 13  1  0
 17 15  2  0
 18 19  1  0
 19 20  2  0
 21 24  1  0
 21 20  1  0
 22 21  2  0
 23 22  1  0
 23 18  2  0
 24 25  1  0
 25 26  1  0
 26 27  2  0
 28 27  1  0
 28 32  1  0
 29 28  2  0
 30 25  2  0
 30 29  1  0
 31 30  1  0
 33 34  1  0
 34 37  1  0
 34 36  1  0
 35 33  2  0
 38 13  1  0
 38 39  1  0
 40 38  1  0
 43 42  1  0
 43 41  1  0
 44  1  1  0
 44 45  1  0
 46 45  1  0
 47 58  2  0
 48 46  1  0
 48 53  1  0
 49 57  1  0
 49 59  1  0
 50 52  1  0
 51 57  1  0
 52 53  2  0
 52 51  1  0
 54 48  2  0
 55 54  1  0
 55 50  2  0
 56 50  1  0
 56 49  1  0
 57 47  1  0
 59 61  2  0
 60 59  1  0
 62 60  1  0
 63 72  2  0
 63 68  1  0
 64 60  1  0
 64 68  1  0
 65 64  1  0
 66 67  1  0
 66 65  1  0
 67 63  1  0
 68 69  2  0
 69 70  1  0
 71 70  2  0
 72 71  1  0
 73 47  1  0
 73 74  1  0
 73 83  1  0
 74 77  1  0
 75 79  1  0
 75 74  1  0
 76 75  2  0
 79 78  1  0
 81 79  1  0
 81 82  1  0
 81 80  1  0
 83 86  1  1
 83 84  1  0
 85 83  1  0
M  ISO  4   4 100  12 100  45 101  46 101
M  END
>  <TORSDO>  (86) 
F 21

>  <SCORE>  (86) 
-12.122

>  <name>  (86) 
89

>  <ligand_id>  (86) 
89

>  <original_smiles>  (86) 
[H]c1c([H])c([H])c2c(c1[H])C([H])([H])C([H])([H])C([H])([H])C2([H])N([H])C(=O)C1([H])N(C(=O)C([H])(N([H])C(=O)C([H])(N([H])C([H])([H])[H])C([H])([H])[H])C(C([H])([H])[H])(C([H])([H])[H])C([H])([H])[H])C([H])([H])c2c([H])c(OC([H])([H])C([H])([H])C([H])([H])C([H])([H])C([H])([H])N(C(=O)N3C([H])([H])C([H])([H])C([H])([H])C([H])(n4nc(-c5c([H])c([H])c(Oc6c([H])c([H])c(F)c([H])c6F)c([H])c5[H])c(C(=O)N([H])[H])c4N([H])[H])C3([H])[H])C([H])(C([H])([H])[H])C([H])([H])[H])c([H])c([H])c2C1([H])[H]

>  <smiles>  (86) 
[H]c1c([H])c([H])c2c(c1[H])C([H])([H])C([H])([H])C([H])([H])C2([H])N([H])C(=O)C1([H])N(C(=O)C([H])(N([H])C(=O)C([H])(N([H])C([H])([H])[H])C([H])([H])[H])C(C([H])([H])[H])(C([H])([H])[H])C([H])([H])[H])C([H])([H])c2c([H])c(OC([H])([H])C([H])([H])C([H])([H])C([H])([H])C([H])([H])N(C(=O)N3C([H])([H])C([H])([H])C([H])([H])C([H])(n4nc(-c5c([H])c([H])c(Oc6c([H])c([H])c(F)c([H])c6F)c([H])c5[H])c(C(=O)N([H])[H])c4N([H])[H])C3([H])[H])C([H])(C([H])([H])[H])C([H])([H])[H])c([H])c([H])c2C1([H])[H]

$$$$
90:0:0
     RDKit          3D

 85 89  0  0  1  0  0  0  0  0999 V2000
  -28.7680  -21.6180   19.9190 C   0  0  0  0  0  1  0  0  0  0  0  0
  -29.7690  -21.9220   18.8790 N   0  0  0  0  0  4  0  0  0  0  0  0
  -30.6710  -22.0950   19.2890 H   0  0  0  0  0  0  0  0  0  0  0  0
  -29.5070  -22.7450   18.3650 H   0  0  0  0  0  0  0  0  0  0  0  0
  -29.8550  -21.1650   18.2240 H   0  0  0  0  0  0  0  0  0  0  0  0
  -29.2730  -19.7080   20.4870 C   0  0  0  0  0 15  0  0  0  0  0  0
  -29.2960  -17.7170   19.9870 C   0  0  0  0  0  1  0  0  0  0  0  0
  -30.1370  -15.9410   20.1090 C   0  0  0  0  0  0  0  0  0  0  0  0
  -30.3360  -13.3280   19.3240 C   0  0  0  0  0  2  0  0  0  0  0  0
  -29.4570  -12.8220   18.1340 C   0  0  0  0  0  2  0  0  0  0  0  0
  -28.0560  -12.4130   18.6040 C   0  0  0  0  0  2  0  0  0  0  0  0
  -27.5140  -13.4250   19.6350 C   0  0  0  0  0  3  0  0  0  0  0  0
  -28.5360  -13.8260   20.7260 C   0  0  0  0  0  2  0  0  0  0  0  0
  -29.6770  -14.5200   20.0650 N   0  0  0  0  0  0  0  0  0  0  0  0
  -31.3790  -15.8370   19.9930 O   0  0  0  0  0  0  0  0  0  0  0  0
  -25.1610  -13.9170   20.4340 C   0  0  0  0  0  0  0  0  0  0  0  0
  -24.1140  -13.1260   20.8110 C   0  0  0  0  0  0  0  0  0  0  0  0
  -24.6000  -11.7820   20.7790 C   0  0  0  0  0  0  0  0  0  0  0  0
  -26.2120  -13.0590   20.1770 N   0  0  0  0  0  0  0  0  0  0  0  0
  -25.8910  -11.7650   20.4530 N   0  0  0  0  0  0  0  0  0  0  0  0
  -23.8840  -10.5140   20.9780 C   0  0  0  0  0  0  0  0  0  0  0  0
  -24.3200   -9.5570   21.9220 C   0  0  0  0  0  3  0  0  0  0  0  0
  -23.5990   -8.3580   22.1130 C   0  0  0  0  0  3  0  0  0  0  0  0
  -22.4280   -8.1060   21.3590 C   0  0  0  0  0  0  0  0  0  0  0  0
  -22.0110   -9.0500   20.4040 C   0  0  0  0  0  3  0  0  0  0  0  0
  -22.7330  -10.2400   20.2120 C   0  0  0  0  0  3  0  0  0  0  0  0
  -21.6810   -6.9570   21.4570 O   0  0  0  0  0  0  0  0  0  0  0  0
  -21.6230   -6.2300   22.6200 C   0  0  0  0  0  0  0  0  0  0  0  0
  -21.1610   -6.7940   23.8290 C   0  0  0  0  0  3  0  0  0  0  0  0
  -21.0530   -5.9940   24.9830 C   0  0  0  0  0  3  0  0  0  0  0  0
  -21.3980   -4.6290   24.9300 C   0  0  0  0  0  0  0  0  0  0  0  0
  -21.8540   -4.0650   23.7260 C   0  0  0  0  0  3  0  0  0  0  0  0
  -21.9630   -4.8630   22.5730 C   0  0  0  0  0  0  0  0  0  0  0  0
  -22.3820   -4.3080   21.4110 F   0  0  0  0  0  0  0  0  0  0  0  0
  -21.2880   -3.8590   26.0380 F   0  0  0  0  0  0  0  0  0  0  0  0
  -22.7140  -13.5900   21.0820 C   0  0  0  0  0  0  0  0  0  0  0  0
  -21.9940  -12.8920   21.9530 N   0  0  0  0  0  0  0  0  0  0  0  0
  -22.2670  -14.6100   20.5580 O   0  0  0  0  0  0  0  0  0  0  0  0
  -22.3690  -12.0700   22.4010 H   0  0  0  0  0  0  0  0  0  0  0  0
  -21.0540  -13.1860   22.1760 H   0  0  0  0  0  0  0  0  0  0  0  0
  -25.3040  -15.2900   20.2530 N   0  0  0  0  0  0  0  0  0  0  0  0
  -24.5290  -15.9340   20.3770 H   0  0  0  0  0  0  0  0  0  0  0  0
  -26.1470  -15.7440   19.9220 H   0  0  0  0  0  0  0  0  0  0  0  0
  -28.1970  -23.4930   20.5350 C   0  0  0  0  0  1  0  0  0  0  0  0
  -28.1950  -25.3280   20.2570 O   0  0  0  0  0  0  0  0  0  0  0  0
  -24.6210  -31.8320   23.1430 C   0  0  0  0  0  0  0  0  0  0  0  0
  -27.2100  -26.5920   20.2740 C   0  0  0  0  0  0  0  0  0  0  0  0
  -23.4720  -30.4080   21.5060 C   0  0  0  0  0  3  0  0  0  0  0  0
  -24.9480  -28.7180   20.1500 C   0  0  0  0  0  0  0  0  0  0  0  0
  -26.0590  -30.5150   21.4390 C   0  0  0  0  0  2  0  0  0  0  0  0
  -26.1390  -29.0570   20.8040 C   0  0  0  0  0  0  0  0  0  0  0  0
  -27.2500  -28.0310   20.8190 C   0  0  0  0  0  3  0  0  0  0  0  0
  -25.9780  -26.5050   19.5620 C   0  0  0  0  0  3  0  0  0  0  0  0
  -24.9160  -27.4690   19.5040 C   0  0  0  0  0  3  0  0  0  0  0  0
  -23.7450  -29.6860   20.1550 C   0  0  0  0  0  2  0  0  0  0  0  0
  -24.7420  -30.9560   22.0820 N   0  0  0  0  0  0  0  0  0  0  0  0
  -23.5150  -32.1380   23.6240 O   0  0  0  0  0  0  0  0  0  0  0  0
  -22.7300  -29.4500   22.4790 C   0  0  0  0  0  0  0  0  0  0  0  0
  -21.3950  -29.3110   22.3460 N   0  0  0  0  0  0  0  0  0  0  0  0
  -23.3690  -28.8270   23.3270 O   0  0  0  0  0  0  0  0  0  0  0  0
  -20.9260  -29.8650   21.6440 H   0  0  0  0  0  0  0  0  0  0  0  0
  -17.9910  -28.1300   22.8560 C   0  0  0  0  0  0  0  0  0  0  0  0
  -20.5550  -28.3830   23.1170 C   0  0  0  0  0  3  0  0  0  0  0  0
  -20.6440  -26.9490   22.5450 C   0  0  0  0  0  2  0  0  0  0  0  0
  -19.5430  -26.6350   21.5280 C   0  0  0  0  0  2  0  0  0  0  0  0
  -18.1610  -26.7830   22.1710 C   0  0  0  0  0  2  0  0  0  0  0  0
  -19.1150  -28.8880   23.2850 C   0  0  0  0  0  0  0  0  0  0  0  0
  -18.8980  -30.1430   23.8920 C   0  0  0  0  0  3  0  0  0  0  0  0
  -17.5940  -30.6440   24.0690 C   0  0  0  0  0  3  0  0  0  0  0  0
  -16.4870  -29.8850   23.6530 C   0  0  0  0  0  3  0  0  0  0  0  0
  -16.6860  -28.6290   23.0530 C   0  0  0  0  0  3  0  0  0  0  0  0
  -25.8620  -32.5030   23.8040 C   0  0  0  0  0  3  0  0  0  0  0  0
  -26.3350  -31.7650   25.1190 C   0  0  1  0  0  0  0  0  0  0  0  0
  -25.2060  -31.5520   26.1560 C   0  0  0  0  0  1  0  0  0  0  0  0
  -26.9330  -30.3800   24.7940 C   0  0  0  0  0  1  0  0  0  0  0  0
  -27.4630  -32.5780   25.7990 C   0  0  0  0  0  1  0  0  0  0  0  0
  -25.5210  -33.9070   24.1220 N   0  0  0  0  0  0  0  0  0  0  0  0
  -25.8670  -34.9730   23.3900 C   0  0  0  0  0  0  0  0  0  0  0  0
  -26.5610  -34.8810   22.3740 O   0  0  0  0  0  0  0  0  0  0  0  0
  -24.9040  -34.0500   24.9080 H   0  0  0  0  0  0  0  0  0  0  0  0
  -24.1470  -36.7810   23.0200 C   0  0  0  0  0  1  0  0  0  0  0  0
  -25.3720  -36.3620   23.8510 C   0  0  0  0  0  3  0  0  0  0  0  0
  -27.4840  -37.2510   24.7380 C   0  0  0  0  0  1  0  0  0  0  0  0
  -26.4060  -37.4190   23.7680 N   0  0  0  0  0  0  0  0  0  0  0  0
  -25.9950  -38.3380   23.9060 H   0  0  0  0  0  0  0  0  0  0  0  0
  2  3  1  0
  2  1  1  0
  4  2  1  0
  5  2  1  0
  7  8  1  0
  9 14  1  0
 10 11  1  0
 10  9  1  0
 12 11  1  0
 12 19  1  0
 12 13  1  0
 14  8  1  0
 14 13  1  0
 15  8  2  0
 16 17  2  0
 17 36  1  0
 18 17  1  0
 18 21  1  0
 19 16  1  0
 19 20  1  0
 20 18  2  0
 21 22  1  0
 22 23  2  0
 24 27  1  0
 24 23  1  0
 25 24  2  0
 26 25  1  0
 26 21  2  0
 27 28  1  0
 28 29  1  0
 29 30  2  0
 31 30  1  0
 31 35  1  0
 32 31  2  0
 33 28  2  0
 33 32  1  0
 34 33  1  0
 36 37  1  0
 37 40  1  0
 37 39  1  0
 38 36  2  0
 41 42  1  0
 41 16  1  0
 43 41  1  0
 45 47  1  0
 45 44  1  0
 46 57  2  0
 47 52  1  0
 48 56  1  0
 48 58  1  0
 49 55  1  0
 49 51  1  0
 50 56  1  0
 51 52  2  0
 51 50  1  0
 53 47  2  0
 54 53  1  0
 54 49  2  0
 55 48  1  0
 56 46  1  0
 58 60  2  0
 59 58  1  0
 61 59  1  0
 62 71  2  0
 62 67  1  0
 63 59  1  0
 63 67  1  0
 64 63  1  0
 65 66  1  0
 65 64  1  0
 66 62  1  0
 67 68  2  0
 68 69  1  0
 70 69  2  0
 71 70  1  0
 72 46  1  0
 72 77  1  0
 72 73  1  0
 73 76  1  1
 73 74  1  0
 75 73  1  0
 77 80  1  0
 78 82  1  0
 78 77  1  0
 79 78  2  0
 82 81  1  0
 84 82  1  0
 84 85  1  0
 84 83  1  0
M  ISO  4   7 100   8 100  44 101  45 101
M  END
>  <TORSDO>  (87) 
F 20

>  <SCORE>  (87) 
-16.157

>  <name>  (87) 
90

>  <ligand_id>  (87) 
90

>  <original_smiles>  (87) 
[H]c1c([H])c([H])c2c(c1[H])C([H])([H])C([H])([H])C([H])([H])C2([H])N([H])C(=O)C1([H])N(C(=O)C([H])(N([H])C(=O)C([H])(N([H])C([H])([H])[H])C([H])([H])[H])C(C([H])([H])[H])(C([H])([H])[H])C([H])([H])[H])C([H])([H])c2c([H])c(OC([H])([H])C([H])(C([H])([H])C([H])([H])C(=O)N3C([H])([H])C([H])([H])C([H])([H])C([H])(n4nc(-c5c([H])c([H])c(Oc6c([H])c([H])c(F)c([H])c6F)c([H])c5[H])c(C(=O)N([H])[H])c4N([H])[H])C3([H])[H])[N+]([H])([H])[H])c([H])c([H])c2C1([H])[H]

>  <smiles>  (87) 
[H]c1c([H])c([H])c2c(c1[H])C([H])([H])C([H])([H])C([H])([H])C2([H])N([H])C(=O)C1([H])N(C(=O)C([H])(N([H])C(=O)C([H])(N([H])C([H])([H])[H])C([H])([H])[H])C(C([H])([H])[H])(C([H])([H])[H])C([H])([H])[H])C([H])([H])c2c([H])c(OC([H])([H])C([H])(C([H])([H])C([H])([H])C(=O)N3C([H])([H])C([H])([H])C([H])([H])C([H])(n4nc(-c5c([H])c([H])c(Oc6c([H])c([H])c(F)c([H])c6F)c([H])c5[H])c(C(=O)N([H])[H])c4N([H])[H])C3([H])[H])[N+]([H])([H])[H])c([H])c([H])c2C1([H])[H]

$$$$
91:0:0
     RDKit          3D

 90 97  0  0  1  0  0  0  0  0999 V2000
  -27.5360  -20.4170   20.1480 C   0  0  0  0  0  1  0  0  0  0  0  0
  -28.4910  -20.9910   19.0140 C   0  0  0  0  0  3  0  0  0  0  0  0
  -29.6430  -19.8440   18.6740 N   0  0  0  0  0  4  0  0  0  0  0  0
  -30.4700  -20.3720   18.4440 H   0  0  0  0  0  0  0  0  0  0  0  0
  -29.3570  -19.4670   17.7740 H   0  0  0  0  0  0  0  0  0  0  0  0
  -30.2260  -18.5340   19.5310 C   0  0  0  0  0  3  0  0  0  0  0  0
  -32.7100  -19.3270   19.2270 C   0  0  0  0  0  1  0  0  0  0  0  0
  -31.6100  -18.8550   20.2180 C   0  0  0  0  0  3  0  0  0  0  0  0
  -30.8420  -19.2360   22.7170 C   0  0  0  0  0  1  0  0  0  0  0  0
  -31.5080  -19.8130   21.4380 C   0  0  0  0  0  2  0  0  0  0  0  0
  -30.1640  -16.8040   19.1240 C   0  0  0  0  0  2  0  0  0  0  0  0
  -30.9390  -15.3180   19.5810 C   0  0  0  0  0  0  0  0  0  0  0  0
  -30.8330  -12.8170   18.9660 C   0  0  0  0  0  2  0  0  0  0  0  0
  -29.8600  -12.5770   17.7840 C   0  0  0  0  0  2  0  0  0  0  0  0
  -28.4230  -12.3920   18.3020 C   0  0  0  0  0  2  0  0  0  0  0  0
  -28.0440  -13.4410   19.3840 C   0  0  0  0  0  3  0  0  0  0  0  0
  -29.1410  -13.6420   20.4380 C   0  0  0  0  0  2  0  0  0  0  0  0
  -30.3640  -14.0310   19.7190 N   0  0  0  0  0  0  0  0  0  0  0  0
  -32.1660  -15.2640   19.4220 O   0  0  0  0  0  0  0  0  0  0  0  0
  -25.7870  -14.1120   20.3560 C   0  0  0  0  0  0  0  0  0  0  0  0
  -24.7150  -13.3920   20.7940 C   0  0  0  0  0  0  0  0  0  0  0  0
  -25.0770  -12.0150   20.6500 C   0  0  0  0  0  0  0  0  0  0  0  0
  -26.7420  -13.1840   19.9850 N   0  0  0  0  0  0  0  0  0  0  0  0
  -26.3250  -11.9100   20.2130 N   0  0  0  0  0  0  0  0  0  0  0  0
  -24.2760  -10.7940   20.8180 C   0  0  0  0  0  0  0  0  0  0  0  0
  -24.6430   -9.7910   21.7440 C   0  0  0  0  0  3  0  0  0  0  0  0
  -23.8390   -8.6420   21.9070 C   0  0  0  0  0  3  0  0  0  0  0  0
  -22.6580   -8.4830   21.1360 C   0  0  0  0  0  0  0  0  0  0  0  0
  -22.3120   -9.4760   20.2030 C   0  0  0  0  0  3  0  0  0  0  0  0
  -23.1160  -10.6180   20.0400 C   0  0  0  0  0  3  0  0  0  0  0  0
  -21.8260   -7.3910   21.2160 O   0  0  0  0  0  0  0  0  0  0  0  0
  -21.6600   -6.6970   22.3890 C   0  0  0  0  0  0  0  0  0  0  0  0
  -21.1910   -7.3180   23.5690 C   0  0  0  0  0  3  0  0  0  0  0  0
  -20.9740   -6.5530   24.7300 C   0  0  0  0  0  3  0  0  0  0  0  0
  -21.2120   -5.1660   24.7170 C   0  0  0  0  0  0  0  0  0  0  0  0
  -21.6730   -4.5410   23.5420 C   0  0  0  0  0  3  0  0  0  0  0  0
  -21.8940   -5.3030   22.3830 C   0  0  0  0  0  0  0  0  0  0  0  0
  -22.3210   -4.6950   21.2500 F   0  0  0  0  0  0  0  0  0  0  0  0
  -20.9970   -4.4310   25.8320 F   0  0  0  0  0  0  0  0  0  0  0  0
  -23.3770  -13.9420   21.2110 C   0  0  0  0  0  0  0  0  0  0  0  0
  -22.6880  -13.2680   22.1240 N   0  0  0  0  0  0  0  0  0  0  0  0
  -22.9640  -15.0070   20.7490 O   0  0  0  0  0  0  0  0  0  0  0  0
  -23.0450  -12.4030   22.5090 H   0  0  0  0  0  0  0  0  0  0  0  0
  -21.8090  -13.6270   22.4710 H   0  0  0  0  0  0  0  0  0  0  0  0
  -26.0190  -15.4830   20.2060 N   0  0  0  0  0  0  0  0  0  0  0  0
  -25.2050  -16.0870   20.1930 H   0  0  0  0  0  0  0  0  0  0  0  0
  -26.7250  -15.8000   19.5530 H   0  0  0  0  0  0  0  0  0  0  0  0
  -28.6690  -22.7750   19.2310 C   0  0  0  0  0  3  0  0  0  0  0  0
  -27.8280  -24.3380   18.9310 C   0  0  0  0  0  3  0  0  0  0  0  0
  -28.0590  -25.8990   19.2830 O   0  0  0  0  0  0  0  0  0  0  0  0
  -24.5900  -31.5470   22.8270 C   0  0  0  0  0  0  0  0  0  0  0  0
  -27.0050  -26.9260   19.3650 C   0  0  0  0  0  0  0  0  0  0  0  0
  -23.2980  -30.1790   21.2430 C   0  0  0  0  0  3  0  0  0  0  0  0
  -24.6560  -28.6910   19.6370 C   0  0  0  0  0  0  0  0  0  0  0  0
  -25.8360  -30.4750   20.9020 C   0  0  0  0  0  2  0  0  0  0  0  0
  -25.8840  -29.1110   20.1670 C   0  0  0  0  0  0  0  0  0  0  0  0
  -27.0470  -28.2400   20.0270 C   0  0  0  0  0  3  0  0  0  0  0  0
  -25.7420  -26.6500   18.7870 C   0  0  0  0  0  3  0  0  0  0  0  0
  -24.6070  -27.4760   18.9380 C   0  0  0  0  0  3  0  0  0  0  0  0
  -23.4150  -29.5550   19.8300 C   0  0  0  0  0  2  0  0  0  0  0  0
  -24.5980  -30.7530   21.7110 N   0  0  0  0  0  0  0  0  0  0  0  0
  -23.5420  -31.7960   23.4440 O   0  0  0  0  0  0  0  0  0  0  0  0
  -22.7090  -29.1280   22.2220 C   0  0  0  0  0  0  0  0  0  0  0  0
  -21.3830  -28.9140   22.1770 N   0  0  0  0  0  0  0  0  0  0  0  0
  -23.4470  -28.5090   22.9920 O   0  0  0  0  0  0  0  0  0  0  0  0
  -20.8410  -29.4820   21.5430 H   0  0  0  0  0  0  0  0  0  0  0  0
  -18.0910  -27.5100   22.7990 C   0  0  0  0  0  0  0  0  0  0  0  0
  -20.6380  -27.9280   22.9650 C   0  0  0  0  0  3  0  0  0  0  0  0
  -20.8060  -26.5080   22.3830 C   0  0  0  0  0  2  0  0  0  0  0  0
  -19.6910  -26.1130   21.4070 C   0  0  0  0  0  2  0  0  0  0  0  0
  -18.3250  -26.1770   22.1060 C   0  0  0  0  0  2  0  0  0  0  0  0
  -19.1770  -28.3370   23.1870 C   0  0  0  0  0  0  0  0  0  0  0  0
  -18.9010  -29.5820   23.7910 C   0  0  0  0  0  3  0  0  0  0  0  0
  -17.5830  -30.0050   24.0130 C   0  0  0  0  0  3  0  0  0  0  0  0
  -16.5100  -29.1710   23.6460 C   0  0  0  0  0  3  0  0  0  0  0  0
  -16.7660  -27.9290   23.0470 C   0  0  0  0  0  3  0  0  0  0  0  0
  -25.8920  -32.1880   23.3860 C   0  0  0  0  0  3  0  0  0  0  0  0
  -26.5360  -31.3630   24.5700 C   0  0  1  0  0  0  0  0  0  0  0  0
  -25.5440  -31.0400   25.7100 C   0  0  0  0  0  1  0  0  0  0  0  0
  -27.1190  -30.0220   24.0650 C   0  0  0  0  0  1  0  0  0  0  0  0
  -27.7210  -32.1530   25.1730 C   0  0  0  0  0  1  0  0  0  0  0  0
  -25.5670  -33.5500   23.8420 N   0  0  0  0  0  0  0  0  0  0  0  0
  -25.8490  -34.6730   23.1670 C   0  0  0  0  0  0  0  0  0  0  0  0
  -26.4730  -34.6740   22.1040 O   0  0  0  0  0  0  0  0  0  0  0  0
  -24.9930  -33.6290   24.6680 H   0  0  0  0  0  0  0  0  0  0  0  0
  -24.0810  -36.4620   23.0340 C   0  0  0  0  0  1  0  0  0  0  0  0
  -25.3580  -36.0100   23.7590 C   0  0  0  0  0  3  0  0  0  0  0  0
  -27.5110  -36.8610   24.5840 C   0  0  0  0  0  1  0  0  0  0  0  0
  -26.3700  -37.0880   23.6980 N   0  0  0  0  0  0  0  0  0  0  0  0
  -25.9580  -37.9880   23.9320 H   0  0  0  0  0  0  0  0  0  0  0  0
  2 48  1  0
  2  1  1  0
  3  2  1  0
  3  6  1  0
  4  3  1  0
  5  3  1  0
  6 11  1  0
  6  8  1  0
  8  7  1  0
  8 10  1  0
 10  9  1  0
 11 12  1  0
 12 18  1  0
 13 18  1  0
 14 15  1  0
 14 13  1  0
 16 15  1  0
 16 23  1  0
 16 17  1  0
 18 17  1  0
 19 12  2  0
 20 21  2  0
 21 40  1  0
 22 21  1  0
 22 25  1  0
 23 24  1  0
 23 20  1  0
 24 22  2  0
 25 26  1  0
 26 27  2  0
 28 31  1  0
 28 27  1  0
 29 28  2  0
 30 29  1  0
 30 25  2  0
 31 32  1  0
 32 33  1  0
 33 34  2  0
 35 34  1  0
 35 39  1  0
 36 35  2  0
 37 32  2  0
 37 36  1  0
 38 37  1  0
 40 41  1  0
 41 44  1  0
 41 43  1  0
 42 40  2  0
 45 20  1  0
 46 45  1  0
 47 45  1  0
 49 48  2  0
 49 50  1  0
 50 52  1  0
 51 62  2  0
 52 57  1  0
 53 61  1  0
 53 63  1  0
 54 60  1  0
 54 56  1  0
 55 61  1  0
 56 55  1  0
 57 56  2  0
 58 59  1  0
 58 52  2  0
 59 54  2  0
 60 53  1  0
 61 51  1  0
 63 65  2  0
 64 63  1  0
 66 64  1  0
 67 76  2  0
 67 72  1  0
 68 64  1  0
 68 72  1  0
 69 68  1  0
 70 71  1  0
 70 69  1  0
 71 67  1  0
 72 73  2  0
 73 74  1  0
 75 74  2  0
 76 75  1  0
 77 51  1  0
 77 82  1  0
 77 78  1  0
 78 81  1  1
 78 79  1  0
 80 78  1  0
 82 85  1  0
 83 87  1  0
 83 82  1  0
 84 83  2  0
 87 86  1  0
 89 87  1  0
 89 90  1  0
 89 88  1  0
M  ISO  4  11 100  12 100  49 101  50 101
M  END
>  <TORSDO>  (88) 
F 23

>  <SCORE>  (88) 
-12.518

>  <name>  (88) 
91

>  <ligand_id>  (88) 
91

>  <original_smiles>  (88) 
[H]c1c([H])c([H])c2c(c1[H])C([H])([H])C([H])([H])C([H])([H])C2([H])N([H])C(=O)C1([H])N(C(=O)C([H])(N([H])C(=O)C([H])(N([H])C([H])([H])[H])C([H])([H])[H])C(C([H])([H])[H])(C([H])([H])[H])C([H])([H])[H])C([H])([H])c2c([H])c(OC([H])([H])C([H])([H])C([H])(C([H])([H])[H])[N+]([H])([H])C([H])(C([H])([H])C(=O)N3C([H])([H])C([H])([H])C([H])([H])C([H])(n4nc(-c5c([H])c([H])c(Oc6c([H])c([H])c(F)c([H])c6F)c([H])c5[H])c(C(=O)N([H])[H])c4N([H])[H])C3([H])[H])C([H])(C([H])([H])[H])C([H])([H])C([H])([H])[H])c([H])c([H])c2C1([H])[H]

>  <smiles>  (88) 
[H]c1c([H])c([H])c2c(c1[H])C([H])([H])C([H])([H])C([H])([H])C2([H])N([H])C(=O)C1([H])N(C(=O)C([H])(N([H])C(=O)C([H])(N([H])C([H])([H])[H])C([H])([H])[H])C(C([H])([H])[H])(C([H])([H])[H])C([H])([H])[H])C([H])([H])c2c([H])c(OC([H])([H])C([H])([H])C([H])(C([H])([H])[H])[N+]([H])([H])C([H])(C([H])([H])C(=O)N3C([H])([H])C([H])([H])C([H])([H])C([H])(n4nc(-c5c([H])c([H])c(Oc6c([H])c([H])c(F)c([H])c6F)c([H])c5[H])c(C(=O)N([H])[H])c4N([H])[H])C3([H])[H])C([H])(C([H])([H])[H])C([H])([H])C([H])([H])[H])c([H])c([H])c2C1([H])[H]

$$$$
92:0:0
     RDKit          3D

 93100  0  0  1  0  0  0  0  0999 V2000
  -29.6290  -22.1910   20.4400 N   0  0  0  0  0  4  0  0  0  0  0  0
  -30.1650  -22.7800   21.0570 H   0  0  0  0  0  0  0  0  0  0  0  0
  -30.1890  -22.0270   19.6190 H   0  0  0  0  0  0  0  0  0  0  0  0
  -28.3820  -22.8900   20.0050 C   0  0  0  0  0  2  0  0  0  0  0  0
  -28.5580  -24.3370   19.4480 C   0  0  0  0  0  2  0  0  0  0  0  0
  -28.2670  -25.4760   20.4570 C   0  0  0  0  0  2  0  0  0  0  0  0
  -28.3450  -26.7910   19.8670 O   0  0  0  0  0  0  0  0  0  0  0  0
  -24.6770  -31.9100   23.2020 C   0  0  0  0  0  0  0  0  0  0  0  0
  -27.1860  -27.5410   19.9100 C   0  0  0  0  0  0  0  0  0  0  0  0
  -23.4050  -30.5620   21.5630 C   0  0  0  0  0  3  0  0  0  0  0  0
  -24.8000  -29.0590   20.0420 C   0  0  0  0  0  0  0  0  0  0  0  0
  -25.9230  -30.9170   21.2840 C   0  0  0  0  0  2  0  0  0  0  0  0
  -25.9810  -29.5650   20.6000 C   0  0  0  0  0  0  0  0  0  0  0  0
  -27.1800  -28.8160   20.5250 C   0  0  0  0  0  3  0  0  0  0  0  0
  -25.9900  -27.0540   19.3410 C   0  0  0  0  0  3  0  0  0  0  0  0
  -24.7990  -27.8050   19.4070 C   0  0  0  0  0  3  0  0  0  0  0  0
  -23.5620  -29.9200   20.1580 C   0  0  0  0  0  2  0  0  0  0  0  0
  -24.6890  -31.1430   22.0750 N   0  0  0  0  0  0  0  0  0  0  0  0
  -23.6170  -32.1700   23.7880 O   0  0  0  0  0  0  0  0  0  0  0  0
  -22.7820  -29.5170   22.5170 C   0  0  0  0  0  0  0  0  0  0  0  0
  -21.4560  -29.3280   22.4140 N   0  0  0  0  0  0  0  0  0  0  0  0
  -23.4880  -28.8790   23.3030 O   0  0  0  0  0  0  0  0  0  0  0  0
  -20.9470  -29.8950   21.7510 H   0  0  0  0  0  0  0  0  0  0  0  0
  -18.1080  -28.0690   22.9270 C   0  0  0  0  0  0  0  0  0  0  0  0
  -20.6640  -28.3690   23.1810 C   0  0  0  0  0  3  0  0  0  0  0  0
  -20.7860  -26.9450   22.5900 C   0  0  0  0  0  2  0  0  0  0  0  0
  -19.6810  -26.6140   21.5810 C   0  0  0  0  0  2  0  0  0  0  0  0
  -18.3030  -26.7290   22.2370 C   0  0  0  0  0  2  0  0  0  0  0  0
  -19.2170  -28.8450   23.3570 C   0  0  0  0  0  0  0  0  0  0  0  0
  -18.9820  -30.1000   23.9610 C   0  0  0  0  0  3  0  0  0  0  0  0
  -17.6700  -30.5770   24.1420 C   0  0  0  0  0  3  0  0  0  0  0  0
  -16.5750  -29.7970   23.7300 C   0  0  0  0  0  3  0  0  0  0  0  0
  -16.7960  -28.5450   23.1280 C   0  0  0  0  0  3  0  0  0  0  0  0
  -25.9870  -32.5150   23.7940 C   0  0  0  0  0  3  0  0  0  0  0  0
  -26.5520  -31.6990   25.0200 C   0  0  1  0  0  0  0  0  0  0  0  0
  -25.5020  -31.4250   26.1220 C   0  0  0  0  0  1  0  0  0  0  0  0
  -27.1140  -30.3350   24.5550 C   0  0  0  0  0  1  0  0  0  0  0  0
  -27.7310  -32.4660   25.6630 C   0  0  0  0  0  1  0  0  0  0  0  0
  -25.6980  -33.9030   24.1830 N   0  0  0  0  0  0  0  0  0  0  0  0
  -26.0250  -34.9790   23.4560 C   0  0  0  0  0  0  0  0  0  0  0  0
  -26.6750  -34.9080   22.4080 O   0  0  0  0  0  0  0  0  0  0  0  0
  -25.1200  -34.0330   25.0000 H   0  0  0  0  0  0  0  0  0  0  0  0
  -24.3070  -36.7980   23.1960 C   0  0  0  0  0  1  0  0  0  0  0  0
  -25.5570  -36.3540   23.9730 C   0  0  0  0  0  3  0  0  0  0  0  0
  -27.7120  -37.1870   24.8030 C   0  0  0  0  0  1  0  0  0  0  0  0
  -26.5980  -37.4020   23.8840 N   0  0  0  0  0  0  0  0  0  0  0  0
  -26.2030  -38.3180   24.0750 H   0  0  0  0  0  0  0  0  0  0  0  0
  -29.4100  -20.8700   21.1070 C   0  0  0  0  0  3  0  0  0  0  0  0
  -30.2510  -21.7580   23.4140 C   0  0  0  0  0  1  0  0  0  0  0  0
  -29.1490  -21.0250   22.6270 C   0  0  0  0  0  2  0  0  0  0  0  0
  -30.5230  -19.8100   20.8070 C   0  0  0  0  0  2  0  0  0  0  0  0
  -29.9850  -18.4520   20.9700 N   0  0  0  0  0  0  0  0  0  0  0  0
  -29.3020  -18.3000   20.2340 H   0  0  0  0  0  0  0  0  0  0  0  0
  -31.5140  -17.0950   22.3110 C   0  0  0  0  0  1  0  0  0  0  0  0
  -30.9500  -17.3390   20.9010 C   0  0  0  0  0  3  0  0  0  0  0  0
  -29.6570  -16.4820   18.9090 C   0  0  0  0  0  1  0  0  0  0  0  0
  -30.2060  -16.0950   20.3060 C   0  0  0  0  0  3  0  0  0  0  0  0
  -31.0330  -14.7710   20.1480 C   0  0  0  0  0  0  0  0  0  0  0  0
  -30.7150  -12.5730   19.0880 C   0  0  0  0  0  2  0  0  0  0  0  0
  -29.7420  -12.7780   17.9030 C   0  0  0  0  0  2  0  0  0  0  0  0
  -28.2700  -12.6980   18.3640 C   0  0  0  0  0  2  0  0  0  0  0  0
  -27.9820  -13.5330   19.6410 C   0  0  0  0  0  3  0  0  0  0  0  0
  -29.0680  -13.2920   20.7140 C   0  0  0  0  0  2  0  0  0  0  0  0
  -30.3820  -13.5710   20.1170 N   0  0  0  0  0  0  0  0  0  0  0  0
  -32.2090  -14.8780   19.7900 O   0  0  0  0  0  0  0  0  0  0  0  0
  -25.6330  -14.1950   20.4500 C   0  0  0  0  0  0  0  0  0  0  0  0
  -24.5500  -13.4470   20.8270 C   0  0  0  0  0  0  0  0  0  0  0  0
  -24.9670  -12.0830   20.7430 C   0  0  0  0  0  0  0  0  0  0  0  0
  -26.6400  -13.2870   20.1590 N   0  0  0  0  0  0  0  0  0  0  0  0
  -26.2440  -12.0100   20.3940 N   0  0  0  0  0  0  0  0  0  0  0  0
  -24.2070  -10.8380   20.9170 C   0  0  0  0  0  0  0  0  0  0  0  0
  -24.6030   -9.8580   21.8540 C   0  0  0  0  0  3  0  0  0  0  0  0
  -23.8470   -8.6780   22.0160 C   0  0  0  0  0  3  0  0  0  0  0  0
  -22.6810   -8.4700   21.2410 C   0  0  0  0  0  0  0  0  0  0  0  0
  -22.3050   -9.4380   20.2930 C   0  0  0  0  0  3  0  0  0  0  0  0
  -23.0620  -10.6100   20.1290 C   0  0  0  0  0  3  0  0  0  0  0  0
  -21.8990   -7.3430   21.3120 O   0  0  0  0  0  0  0  0  0  0  0  0
  -21.7710   -6.6290   22.4760 C   0  0  0  0  0  0  0  0  0  0  0  0
  -21.2800   -7.2190   23.6610 C   0  0  0  0  0  3  0  0  0  0  0  0
  -21.0990   -6.4310   24.8170 C   0  0  0  0  0  3  0  0  0  0  0  0
  -21.3980   -5.0550   24.7850 C   0  0  0  0  0  0  0  0  0  0  0  0
  -21.8820   -4.4670   23.6040 C   0  0  0  0  0  3  0  0  0  0  0  0
  -22.0650   -5.2510   22.4520 C   0  0  0  0  0  0  0  0  0  0  0  0
  -22.5130   -4.6740   21.3110 F   0  0  0  0  0  0  0  0  0  0  0  0
  -21.2150   -4.2980   25.8920 F   0  0  0  0  0  0  0  0  0  0  0  0
  -23.1780  -13.9590   21.1570 C   0  0  0  0  0  0  0  0  0  0  0  0
  -22.4600  -13.2660   22.0340 N   0  0  0  0  0  0  0  0  0  0  0  0
  -22.7530  -15.0070   20.6740 O   0  0  0  0  0  0  0  0  0  0  0  0
  -22.8180  -12.4170   22.4470 H   0  0  0  0  0  0  0  0  0  0  0  0
  -21.5410  -13.5890   22.2980 H   0  0  0  0  0  0  0  0  0  0  0  0
  -25.8360  -15.5650   20.3100 N   0  0  0  0  0  0  0  0  0  0  0  0
  -25.0990  -16.2410   20.4790 H   0  0  0  0  0  0  0  0  0  0  0  0
  -26.7030  -15.9900   20.0060 H   0  0  0  0  0  0  0  0  0  0  0  0
  1  2  1  0
  1 48  1  0
  3  1  1  0
  4  1  1  0
  5  4  1  0
  5  6  1  0
  7  9  1  0
  7  6  1  0
  8 19  2  0
  9 14  1  0
 10 18  1  0
 10 20  1  0
 11 17  1  0
 11 13  1  0
 12 18  1  0
 13 12  1  0
 14 13  2  0
 15 16  1  0
 15  9  2  0
 16 11  2  0
 17 10  1  0
 18  8  1  0
 20 22  2  0
 21 20  1  0
 23 21  1  0
 24 33  2  0
 24 29  1  0
 25 21  1  0
 25 29  1  0
 26 25  1  0
 27 28  1  0
 27 26  1  0
 28 24  1  0
 29 30  2  0
 30 31  1  0
 32 31  2  0
 33 32  1  0
 34  8  1  0
 34 39  1  0
 34 35  1  0
 35 38  1  1
 35 36  1  0
 37 35  1  0
 39 42  1  0
 40 44  1  0
 40 39  1  0
 41 40  2  0
 44 43  1  0
 46 44  1  0
 46 47  1  0
 46 45  1  0
 48 51  1  0
 48 50  1  0
 50 49  1  0
 51 52  1  0
 53 52  1  0
 55 52  1  0
 55 54  1  0
 57 56  1  0
 57 55  1  0
 58 57  1  0
 59 64  1  0
 60 61  1  0
 60 59  1  0
 62 61  1  0
 62 69  1  0
 62 63  1  0
 64 58  1  0
 64 63  1  0
 65 58  2  0
 66 67  2  0
 67 86  1  0
 68 67  1  0
 68 71  1  0
 69 70  1  0
 69 66  1  0
 70 68  2  0
 71 72  1  0
 72 73  2  0
 74 77  1  0
 74 73  1  0
 75 74  2  0
 76 75  1  0
 76 71  2  0
 77 78  1  0
 78 79  1  0
 79 80  2  0
 81 80  1  0
 81 85  1  0
 82 81  2  0
 83 78  2  0
 83 82  1  0
 84 83  1  0
 86 87  1  0
 87 90  1  0
 87 89  1  0
 88 86  2  0
 91 66  1  0
 91 92  1  0
 93 91  1  0
M  ISO  4   6 101   7 101  57 100  58 100
M  END
>  <TORSDO>  (89) 
F 25

>  <SCORE>  (89) 
-10.954

>  <name>  (89) 
92

>  <ligand_id>  (89) 
92

>  <original_smiles>  (89) 
[H]c1c([H])c([H])c2c(c1[H])C([H])([H])C([H])([H])C([H])([H])C2([H])N([H])C(=O)C1([H])N(C(=O)C([H])(N([H])C(=O)C([H])(N([H])C([H])([H])[H])C([H])([H])[H])C(C([H])([H])[H])(C([H])([H])[H])C([H])([H])[H])C([H])([H])c2c([H])c(OC([H])([H])C([H])([H])C([H])([H])[N+]([H])([H])C([H])(C([H])([H])N([H])C([H])(C([H])([H])[H])C([H])(C(=O)N3C([H])([H])C([H])([H])C([H])([H])C([H])(n4nc(-c5c([H])c([H])c(Oc6c([H])c([H])c(F)c([H])c6F)c([H])c5[H])c(C(=O)N([H])[H])c4N([H])[H])C3([H])[H])C([H])([H])[H])C([H])([H])C([H])([H])[H])c([H])c([H])c2C1([H])[H]

>  <smiles>  (89) 
[H]c1c([H])c([H])c2c(c1[H])C([H])([H])C([H])([H])C([H])([H])C2([H])N([H])C(=O)C1([H])N(C(=O)C([H])(N([H])C(=O)C([H])(N([H])C([H])([H])[H])C([H])([H])[H])C(C([H])([H])[H])(C([H])([H])[H])C([H])([H])[H])C([H])([H])c2c([H])c(OC([H])([H])C([H])([H])C([H])([H])[N+]([H])([H])C([H])(C([H])([H])N([H])C([H])(C([H])([H])[H])C([H])(C(=O)N3C([H])([H])C([H])([H])C([H])([H])C([H])(n4nc(-c5c([H])c([H])c(Oc6c([H])c([H])c(F)c([H])c6F)c([H])c5[H])c(C(=O)N([H])[H])c4N([H])[H])C3([H])[H])C([H])([H])[H])C([H])([H])C([H])([H])[H])c([H])c([H])c2C1([H])[H]

$$$$
93:0:0
     RDKit          3D

 99107  0  0  1  0  0  0  0  0999 V2000
  -26.2960  -20.8940   20.5340 C   0  0  0  0  0  3  0  0  0  0  0  0
  -25.8040  -19.6010   20.2880 C   0  0  0  0  0  3  0  0  0  0  0  0
  -28.3700  -20.3060   19.4060 C   0  0  0  0  0  3  0  0  0  0  0  0
  -27.5780  -21.2590   20.0810 C   0  0  0  0  0  0  0  0  0  0  0  0
  -26.5720  -18.6550   19.5730 C   0  0  0  0  0  0  0  0  0  0  0  0
  -27.8870  -19.0020   19.1380 C   0  0  0  0  0  0  0  0  0  0  0  0
  -25.0440  -16.9220   20.2410 C   0  0  0  0  0  1  0  0  0  0  0  0
  -25.5520  -17.3520   17.8500 C   0  0  0  0  0  1  0  0  0  0  0  0
  -25.9860  -17.4200   19.2430 N   0  0  0  0  0  0  0  0  0  0  0  0
  -29.2400  -18.5630   17.1280 C   0  0  0  0  0  1  0  0  0  0  0  0
  -28.7050  -18.1100   18.4110 N   0  0  0  0  0  0  0  0  0  0  0  0
  -29.2250  -16.9080   19.0680 C   0  0  0  0  0  2  0  0  0  0  0  0
  -30.6710  -16.5880   18.6480 C   0  0  0  0  0  2  0  0  0  0  0  0
  -31.6750  -16.5720   19.8170 C   0  0  0  0  0  2  0  0  0  0  0  0
  -32.1020  -14.1990   20.3790 C   0  0  0  0  0  0  0  0  0  0  0  0
  -32.0110  -11.7350   20.5840 C   0  0  0  0  0  2  0  0  0  0  0  0
  -31.2690  -11.0950   19.3980 C   0  0  0  0  0  2  0  0  0  0  0  0
  -29.7540  -11.0420   19.6660 C   0  0  0  0  0  2  0  0  0  0  0  0
  -29.1890  -12.4120   20.1270 C   0  0  0  0  0  3  0  0  0  0  0  0
  -30.0490  -13.0040   21.2610 C   0  0  0  0  0  2  0  0  0  0  0  0
  -31.4550  -13.0820   20.8120 N   0  0  0  0  0  0  0  0  0  0  0  0
  -33.1340  -14.1450   19.6980 O   0  0  0  0  0  0  0  0  0  0  0  0
  -31.3370  -15.7670   22.1010 C   0  0  0  0  0  1  0  0  0  0  0  0
  -31.5360  -15.3950   20.6950 N   0  0  0  0  0  0  0  0  0  0  0  0
  -26.8520  -13.3130   20.7210 C   0  0  0  0  0  0  0  0  0  0  0  0
  -25.6760  -12.6850   21.0250 C   0  0  0  0  0  0  0  0  0  0  0  0
  -25.9580  -11.2860   20.9790 C   0  0  0  0  0  0  0  0  0  0  0  0
  -27.7860  -12.3090   20.5240 N   0  0  0  0  0  0  0  0  0  0  0  0
  -27.2460  -11.0800   20.7310 N   0  0  0  0  0  0  0  0  0  0  0  0
  -25.0620  -10.1300   21.0970 C   0  0  0  0  0  0  0  0  0  0  0  0
  -25.1480   -9.2350   22.1880 C   0  0  0  0  0  3  0  0  0  0  0  0
  -24.2620   -8.1420   22.2870 C   0  0  0  0  0  3  0  0  0  0  0  0
  -23.2730   -7.9350   21.2960 C   0  0  0  0  0  0  0  0  0  0  0  0
  -23.2080   -8.8140   20.2010 C   0  0  0  0  0  3  0  0  0  0  0  0
  -24.0950   -9.8990   20.0990 C   0  0  0  0  0  3  0  0  0  0  0  0
  -22.3890   -6.8840   21.2980 O   0  0  0  0  0  0  0  0  0  0  0  0
  -21.7080   -6.5170   22.4320 C   0  0  0  0  0  0  0  0  0  0  0  0
  -20.9380   -7.4420   23.1710 C   0  0  0  0  0  3  0  0  0  0  0  0
  -20.1980   -7.0080   24.2890 C   0  0  0  0  0  3  0  0  0  0  0  0
  -20.2190   -5.6510   24.6650 C   0  0  0  0  0  0  0  0  0  0  0  0
  -20.9800   -4.7280   23.9270 C   0  0  0  0  0  3  0  0  0  0  0  0
  -21.7190   -5.1600   22.8110 C   0  0  0  0  0  0  0  0  0  0  0  0
  -22.4340   -4.2620   22.0900 F   0  0  0  0  0  0  0  0  0  0  0  0
  -19.5020   -5.2320   25.7340 F   0  0  0  0  0  0  0  0  0  0  0  0
  -24.3420  -13.3390   21.2460 C   0  0  0  0  0  0  0  0  0  0  0  0
  -23.5060  -12.7540   22.0960 N   0  0  0  0  0  0  0  0  0  0  0  0
  -24.0540  -14.4050   20.7040 O   0  0  0  0  0  0  0  0  0  0  0  0
  -23.7490  -11.8890   22.5560 H   0  0  0  0  0  0  0  0  0  0  0  0
  -22.6060  -13.1720   22.2810 H   0  0  0  0  0  0  0  0  0  0  0  0
  -27.1920  -14.6510   20.5790 N   0  0  0  0  0  0  0  0  0  0  0  0
  -26.5290  -15.3870   20.7880 H   0  0  0  0  0  0  0  0  0  0  0  0
  -28.1340  -15.0130   20.4930 H   0  0  0  0  0  0  0  0  0  0  0  0
  -28.0870  -22.6810   20.2570 C   0  0  0  0  0  2  0  0  0  0  0  0
  -28.8260  -23.4150   22.4870 C   0  0  0  0  0  1  0  0  0  0  0  0
  -29.2260  -22.7650   21.2100 N   0  0  2  0  0  4  0  0  0  0  0  0
  -29.4320  -21.8070   21.4500 H   0  0  0  0  0  0  0  0  0  0  0  0
  -30.4570  -23.3030   20.5450 C   0  0  0  0  0  2  0  0  0  0  0  0
  -31.2350  -24.4410   21.2570 C   0  0  0  0  0  2  0  0  0  0  0  0
  -31.1940  -25.6510   20.4950 O   0  0  0  0  0  0  0  0  0  0  0  0
  -26.4210  -30.0920   23.3480 C   0  0  0  0  0  0  0  0  0  0  0  0
  -29.9560  -26.2370   20.3980 C   0  0  0  0  0  0  0  0  0  0  0  0
  -25.6300  -28.7330   21.4380 C   0  0  0  0  0  3  0  0  0  0  0  0
  -27.4330  -27.4760   20.1560 C   0  0  0  0  0  0  0  0  0  0  0  0
  -28.1000  -29.3500   21.6680 C   0  0  0  0  0  2  0  0  0  0  0  0
  -28.4260  -28.0550   20.9560 C   0  0  0  0  0  0  0  0  0  0  0  0
  -29.6900  -27.4390   21.0800 C   0  0  0  0  0  3  0  0  0  0  0  0
  -28.9540  -25.6750   19.5750 C   0  0  0  0  0  3  0  0  0  0  0  0
  -27.6890  -26.2790   19.4670 C   0  0  0  0  0  3  0  0  0  0  0  0
  -26.1140  -28.2040   20.0640 C   0  0  0  0  0  2  0  0  0  0  0  0
  -26.7240  -29.4010   22.2130 N   0  0  0  0  0  0  0  0  0  0  0  0
  -25.2470  -30.2090   23.7300 O   0  0  0  0  0  0  0  0  0  0  0  0
  -24.9600  -27.5710   22.2050 C   0  0  0  0  0  0  0  0  0  0  0  0
  -23.7250  -27.2260   21.8060 N   0  0  0  0  0  0  0  0  0  0  0  0
  -25.5550  -26.9860   23.1140 O   0  0  0  0  0  0  0  0  0  0  0  0
  -23.3010  -27.7560   21.0580 H   0  0  0  0  0  0  0  0  0  0  0  0
  -20.4730  -25.6670   21.6690 C   0  0  0  0  0  0  0  0  0  0  0  0
  -22.9170  -26.1390   22.3600 C   0  0  0  0  0  3  0  0  0  0  0  0
  -23.2620  -24.7900   21.6890 C   0  0  0  0  0  2  0  0  0  0  0  0
  -22.3650  -24.4650   20.4920 C   0  0  0  0  0  2  0  0  0  0  0  0
  -20.8940  -24.4140   20.9190 C   0  0  0  0  0  2  0  0  0  0  0  0
  -21.4230  -26.4850   22.3320 C   0  0  0  0  0  0  0  0  0  0  0  0
  -20.9830  -27.6580   22.9820 C   0  0  0  0  0  3  0  0  0  0  0  0
  -19.6210  -28.0130   22.9800 C   0  0  0  0  0  3  0  0  0  0  0  0
  -18.6810  -27.1900   22.3370 C   0  0  0  0  0  3  0  0  0  0  0  0
  -19.1060  -26.0180   21.6860 C   0  0  0  0  0  3  0  0  0  0  0  0
  -27.5250  -30.7850   24.2060 C   0  0  0  0  0  3  0  0  0  0  0  0
  -27.9640  -29.9320   25.4600 C   0  0  1  0  0  0  0  0  0  0  0  0
  -26.7780  -29.3710   26.2780 C   0  0  0  0  0  1  0  0  0  0  0  0
  -28.8490  -28.7400   25.0260 C   0  0  0  0  0  1  0  0  0  0  0  0
  -28.8310  -30.7990   26.4030 C   0  0  0  0  0  1  0  0  0  0  0  0
  -27.0060  -32.0930   24.6230 N   0  0  0  0  0  0  0  0  0  0  0  0
  -27.2780  -33.2510   24.0050 C   0  0  0  0  0  0  0  0  0  0  0  0
  -28.0610  -33.3360   23.0560 O   0  0  0  0  0  0  0  0  0  0  0  0
  -26.3180  -32.0930   25.3620 H   0  0  0  0  0  0  0  0  0  0  0  0
  -25.3700  -34.8400   23.6120 C   0  0  0  0  0  1  0  0  0  0  0  0
  -26.5670  -34.5170   24.5220 C   0  0  0  0  0  3  0  0  0  0  0  0
  -28.4850  -35.5600   25.6420 C   0  0  0  0  0  1  0  0  0  0  0  0
  -27.4560  -35.6950   24.6160 N   0  0  0  0  0  0  0  0  0  0  0  0
  -26.9210  -36.5360   24.8130 H   0  0  0  0  0  0  0  0  0  0  0  0
  2  1  1  0
  3  4  1  0
  4 53  1  0
  4  1  2  0
  5  2  2  0
  6  3  2  0
  6  5  1  0
  8  9  1  0
  9  5  1  0
  9  7  1  0
 10 11  1  0
 11 12  1  0
 11  6  1  0
 13 12  1  0
 13 14  1  0
 14 24  1  0
 15 24  1  0
 15 21  1  0
 16 21  1  0
 17 18  1  0
 17 16  1  0
 19 18  1  0
 19 28  1  0
 19 20  1  0
 21 20  1  0
 22 15  2  0
 24 23  1  0
 25 26  2  0
 26 45  1  0
 27 26  1  0
 27 30  1  0
 28 25  1  0
 28 29  1  0
 29 27  2  0
 30 31  1  0
 31 32  2  0
 33 36  1  0
 33 32  1  0
 34 33  2  0
 35 34  1  0
 35 30  2  0
 36 37  1  0
 37 42  2  0
 37 38  1  0
 38 39  2  0
 39 40  1  0
 40 44  1  0
 41 40  2  0
 42 41  1  0
 43 42  1  0
 45 46  1  0
 46 49  1  0
 46 48  1  0
 47 45  2  0
 50 25  1  0
 50 51  1  0
 52 50  1  0
 53 55  1  0
 55 56  1  1
 55 54  1  0
 57 55  1  0
 57 58  1  0
 59 58  1  0
 60 71  2  0
 61 59  1  0
 61 66  1  0
 62 72  1  0
 62 70  1  0
 63 65  1  0
 64 70  1  0
 65 66  2  0
 65 64  1  0
 67 61  2  0
 68 67  1  0
 68 63  2  0
 69 63  1  0
 69 62  1  0
 70 60  1  0
 72 74  2  0
 73 72  1  0
 75 73  1  0
 76 85  2  0
 76 81  1  0
 77 73  1  0
 78 77  1  0
 79 80  1  0
 79 78  1  0
 80 76  1  0
 81 77  1  0
 81 82  2  0
 83 82  1  0
 84 83  2  0
 85 84  1  0
 86 60  1  0
 86 91  1  0
 86 87  1  0
 87 88  1  1
 87 90  1  0
 89 87  1  0
 91 94  1  0
 92 96  1  0
 92 91  1  0
 93 92  2  0
 96 95  1  0
 96 98  1  0
 98 99  1  0
 98 97  1  0
M  ISO  4  15 100  24 100  58 101  59 101
M  END
>  <TORSDO>  (90) 
F 25

>  <SCORE>  (90) 
1.052

>  <name>  (90) 
93

>  <ligand_id>  (90) 
93

>  <original_smiles>  (90) 
[H]c1c([H])c([H])c2c(c1[H])C([H])([H])C([H])([H])C([H])([H])C2([H])N([H])C(=O)C1([H])N(C(=O)C([H])(N([H])C(=O)C([H])(N([H])C([H])([H])[H])C([H])([H])[H])C(C([H])([H])[H])(C([H])([H])[H])C([H])([H])[H])C([H])([H])c2c([H])c(OC([H])([H])C([H])([H])[N+]([H])(C([H])([H])[H])C([H])([H])c3c([H])c([H])c(N(C([H])([H])[H])C([H])([H])[H])c(N(C([H])([H])[H])C([H])([H])C([H])([H])C([H])([H])N(C(=O)N4C([H])([H])C([H])([H])C([H])([H])C([H])(n5nc(-c6c([H])c([H])c(Oc7c([H])c([H])c(F)c([H])c7F)c([H])c6[H])c(C(=O)N([H])[H])c5N([H])[H])C4([H])[H])C([H])([H])[H])c3[H])c([H])c([H])c2C1([H])[H]

>  <smiles>  (90) 
[H]c1c([H])c([H])c2c(c1[H])C([H])([H])C([H])([H])C([H])([H])C2([H])N([H])C(=O)C1([H])N(C(=O)C([H])(N([H])C(=O)C([H])(N([H])C([H])([H])[H])C([H])([H])[H])C(C([H])([H])[H])(C([H])([H])[H])C([H])([H])[H])C([H])([H])c2c([H])c(OC([H])([H])C([H])([H])[N+]([H])(C([H])([H])[H])C([H])([H])c3c([H])c([H])c(N(C([H])([H])[H])C([H])([H])[H])c(N(C([H])([H])[H])C([H])([H])C([H])([H])C([H])([H])N(C(=O)N4C([H])([H])C([H])([H])C([H])([H])C([H])(n5nc(-c6c([H])c([H])c(Oc7c([H])c([H])c(F)c([H])c7F)c([H])c6[H])c(C(=O)N([H])[H])c5N([H])[H])C4([H])[H])C([H])([H])[H])c3[H])c([H])c([H])c2C1([H])[H]

$$$$
94:0:0
     RDKit          3D

 95102  0  0  1  0  0  0  0  0999 V2000
  -28.8750  -21.3050   20.6110 C   0  0  0  0  0  3  0  0  0  0  0  0
  -29.9680  -21.3160   22.9870 C   0  0  0  0  0  1  0  0  0  0  0  0
  -28.6750  -21.2790   22.1510 C   0  0  0  0  0  2  0  0  0  0  0  0
  -30.5180  -20.1550   19.0430 C   0  0  0  0  0  1  0  0  0  0  0  0
  -29.7480  -19.9620   20.2670 N   0  0  0  0  0  0  0  0  0  0  0  0
  -29.2500  -18.4110   20.3080 C   0  0  0  0  0  3  0  0  0  0  0  0
  -30.8410  -17.1000   21.9310 C   0  0  0  0  0  1  0  0  0  0  0  0
  -29.8680  -16.7740   20.7800 C   0  0  0  0  0  3  0  0  0  0  0  0
  -30.4510  -15.2490   20.1410 C   0  0  0  0  0  0  0  0  0  0  0  0
  -30.4020  -12.7730   19.3280 C   0  0  0  0  0  2  0  0  0  0  0  0
  -29.4750  -12.5810   18.1040 C   0  0  0  0  0  2  0  0  0  0  0  0
  -28.0380  -12.2900   18.5660 C   0  0  0  0  0  2  0  0  0  0  0  0
  -27.5970  -13.2710   19.6790 C   0  0  0  0  0  3  0  0  0  0  0  0
  -28.6560  -13.4540   20.7930 C   0  0  0  0  0  2  0  0  0  0  0  0
  -29.8970  -13.9340   20.1580 N   0  0  0  0  0  0  0  0  0  0  0  0
  -31.6000  -15.2430   19.6820 O   0  0  0  0  0  0  0  0  0  0  0  0
  -25.2380  -13.8540   20.4670 C   0  0  0  0  0  0  0  0  0  0  0  0
  -24.1860  -13.0990   20.8850 C   0  0  0  0  0  0  0  0  0  0  0  0
  -24.6340  -11.7450   20.8250 C   0  0  0  0  0  0  0  0  0  0  0  0
  -26.2740  -12.9750   20.2080 N   0  0  0  0  0  0  0  0  0  0  0  0
  -25.9180  -11.6950   20.4830 N   0  0  0  0  0  0  0  0  0  0  0  0
  -23.8920  -10.4950   21.0000 C   0  0  0  0  0  0  0  0  0  0  0  0
  -24.3410   -9.4860   21.8790 C   0  0  0  0  0  3  0  0  0  0  0  0
  -23.5970   -8.3000   22.0460 C   0  0  0  0  0  3  0  0  0  0  0  0
  -22.3880   -8.1150   21.3320 C   0  0  0  0  0  0  0  0  0  0  0  0
  -21.9610   -9.1080   20.4350 C   0  0  0  0  0  3  0  0  0  0  0  0
  -22.7080  -10.2860   20.2650 C   0  0  0  0  0  3  0  0  0  0  0  0
  -21.6120   -6.9850   21.4150 O   0  0  0  0  0  0  0  0  0  0  0  0
  -21.6010   -6.2020   22.5400 C   0  0  0  0  0  0  0  0  0  0  0  0
  -21.2530   -6.7220   23.8070 C   0  0  0  0  0  3  0  0  0  0  0  0
  -21.1890   -5.8670   24.9250 C   0  0  0  0  0  3  0  0  0  0  0  0
  -21.4630   -4.4930   24.7790 C   0  0  0  0  0  0  0  0  0  0  0  0
  -21.8080   -3.9730   23.5190 C   0  0  0  0  0  3  0  0  0  0  0  0
  -21.8720   -4.8260   22.4020 C   0  0  0  0  0  0  0  0  0  0  0  0
  -22.1820   -4.3140   21.1860 F   0  0  0  0  0  0  0  0  0  0  0  0
  -21.3900   -3.6720   25.8520 F   0  0  0  0  0  0  0  0  0  0  0  0
  -22.8060  -13.5910   21.2100 C   0  0  0  0  0  0  0  0  0  0  0  0
  -22.1050  -12.8900   22.0920 N   0  0  0  0  0  0  0  0  0  0  0  0
  -22.3620  -14.6290   20.7200 O   0  0  0  0  0  0  0  0  0  0  0  0
  -22.4850  -12.0480   22.4980 H   0  0  0  0  0  0  0  0  0  0  0  0
  -21.1760  -13.1840   22.3510 H   0  0  0  0  0  0  0  0  0  0  0  0
  -25.3890  -15.2080   20.2420 N   0  0  0  0  0  0  0  0  0  0  0  0
  -24.6080  -15.8510   20.2860 H   0  0  0  0  0  0  0  0  0  0  0  0
  -26.2200  -15.6280   19.8490 H   0  0  0  0  0  0  0  0  0  0  0  0
  -28.3720  -17.4090   18.1230 C   0  0  0  0  0  1  0  0  0  0  0  0
  -28.0710  -18.3460   19.2990 C   0  0  0  0  0  3  0  0  0  0  0  0
  -25.4790  -18.3780   19.2530 C   0  0  0  0  0  1  0  0  0  0  0  0
  -26.7490  -18.0510   20.0440 C   0  0  0  0  0  2  0  0  0  0  0  0
  -29.0550  -23.0010   20.1070 C   0  0  0  0  0  3  0  0  0  0  0  0
  -30.3910  -23.4570   20.5140 N   0  0  0  0  0  4  0  0  0  0  0  0
  -30.4550  -23.5310   21.5150 H   0  0  0  0  0  0  0  0  0  0  0  0
  -30.5630  -24.3680   20.1220 H   0  0  0  0  0  0  0  0  0  0  0  0
  -31.0950  -22.8210   20.1850 H   0  0  0  0  0  0  0  0  0  0  0  0
  -28.0000  -24.4050   20.3200 C   0  0  0  0  0  2  0  0  0  0  0  0
  -28.2590  -26.0070   20.2020 O   0  0  0  0  0  0  0  0  0  0  0  0
  -24.6560  -31.8780   23.1720 C   0  0  0  0  0  0  0  0  0  0  0  0
  -27.2240  -27.0590   20.1590 C   0  0  0  0  0  0  0  0  0  0  0  0
  -23.4610  -30.4710   21.5450 C   0  0  0  0  0  3  0  0  0  0  0  0
  -24.9100  -28.8850   20.1170 C   0  0  0  0  0  0  0  0  0  0  0  0
  -26.0200  -30.7160   21.3760 C   0  0  0  0  0  2  0  0  0  0  0  0
  -26.0970  -29.3110   20.7240 C   0  0  0  0  0  0  0  0  0  0  0  0
  -27.2520  -28.4200   20.7180 C   0  0  0  0  0  3  0  0  0  0  0  0
  -26.0080  -26.7710   19.5000 C   0  0  0  0  0  3  0  0  0  0  0  0
  -24.8860  -27.6340   19.4840 C   0  0  0  0  0  3  0  0  0  0  0  0
  -23.6870  -29.7960   20.1660 C   0  0  0  0  0  2  0  0  0  0  0  0
  -24.7340  -31.0490   22.0840 N   0  0  0  0  0  0  0  0  0  0  0  0
  -23.5700  -32.1570   23.7010 O   0  0  0  0  0  0  0  0  0  0  0  0
  -22.7860  -29.4650   22.5120 C   0  0  0  0  0  0  0  0  0  0  0  0
  -21.4550  -29.2970   22.4030 N   0  0  0  0  0  0  0  0  0  0  0  0
  -23.4640  -28.8360   23.3270 O   0  0  0  0  0  0  0  0  0  0  0  0
  -20.9590  -29.8610   21.7280 H   0  0  0  0  0  0  0  0  0  0  0  0
  -18.0820  -28.0810   22.9480 C   0  0  0  0  0  0  0  0  0  0  0  0
  -20.6430  -28.3560   23.1820 C   0  0  0  0  0  3  0  0  0  0  0  0
  -20.7420  -26.9230   22.6060 C   0  0  0  0  0  2  0  0  0  0  0  0
  -19.6290  -26.5970   21.6050 C   0  0  0  0  0  2  0  0  0  0  0  0
  -18.2550  -26.7350   22.2660 C   0  0  0  0  0  2  0  0  0  0  0  0
  -19.2010  -28.8490   23.3660 C   0  0  0  0  0  0  0  0  0  0  0  0
  -18.9820  -30.1070   23.9670 C   0  0  0  0  0  3  0  0  0  0  0  0
  -17.6750  -30.5980   24.1530 C   0  0  0  0  0  3  0  0  0  0  0  0
  -16.5700  -29.8270   23.7490 C   0  0  0  0  0  3  0  0  0  0  0  0
  -16.7750  -28.5700   23.1540 C   0  0  0  0  0  3  0  0  0  0  0  0
  -25.9280  -32.5290   23.7970 C   0  0  0  0  0  3  0  0  0  0  0  0
  -26.4530  -31.7650   25.0750 C   0  0  1  0  0  0  0  0  0  0  0  0
  -25.3640  -31.5220   26.1460 C   0  0  0  0  0  1  0  0  0  0  0  0
  -27.0450  -30.3890   24.6910 C   0  0  0  0  0  1  0  0  0  0  0  0
  -27.5980  -32.5700   25.7350 C   0  0  0  0  0  1  0  0  0  0  0  0
  -25.5980  -33.9240   24.1360 N   0  0  0  0  0  0  0  0  0  0  0  0
  -25.9170  -34.9900   23.3910 C   0  0  0  0  0  0  0  0  0  0  0  0
  -26.5830  -34.9050   22.3560 O   0  0  0  0  0  0  0  0  0  0  0  0
  -25.0070  -34.0620   24.9420 H   0  0  0  0  0  0  0  0  0  0  0  0
  -24.1730  -36.7800   23.0710 C   0  0  0  0  0  1  0  0  0  0  0  0
  -25.4210  -36.3710   23.8690 C   0  0  0  0  0  3  0  0  0  0  0  0
  -27.5520  -37.2680   24.7010 C   0  0  0  0  0  1  0  0  0  0  0  0
  -26.4420  -37.4350   23.7650 N   0  0  0  0  0  0  0  0  0  0  0  0
  -26.0300  -38.3500   23.9240 H   0  0  0  0  0  0  0  0  0  0  0  0
  1  3  1  0
  3  2  1  0
  4  5  1  0
  5  1  1  0
  6  5  1  0
  6  8  1  0
  8  7  1  0
  9 15  1  0
  9  8  1  0
 10 15  1  0
 11 12  1  0
 11 10  1  0
 13 12  1  0
 13 20  1  0
 13 14  1  0
 15 14  1  0
 16  9  2  0
 17 18  2  0
 18 37  1  0
 19 18  1  0
 19 22  1  0
 20 17  1  0
 20 21  1  0
 21 19  2  0
 22 23  1  0
 23 24  2  0
 25 28  1  0
 25 24  1  0
 26 25  2  0
 27 26  1  0
 27 22  2  0
 28 29  1  0
 29 30  1  0
 30 31  2  0
 32 31  1  0
 32 36  1  0
 33 32  2  0
 34 29  2  0
 34 33  1  0
 35 34  1  0
 37 38  1  0
 38 41  1  0
 38 40  1  0
 39 37  2  0
 42 43  1  0
 42 17  1  0
 44 42  1  0
 46 45  1  0
 46 48  1  0
 46  6  1  0
 47 48  1  0
 49 54  1  0
 49 50  1  0
 49  1  1  0
 50 51  1  0
 52 50  1  0
 53 50  1  0
 55 54  1  0
 56 67  2  0
 57 55  1  0
 57 62  1  0
 58 66  1  0
 58 68  1  0
 59 65  1  0
 59 61  1  0
 60 66  1  0
 61 60  1  0
 62 61  2  0
 63 57  2  0
 64 63  1  0
 64 59  2  0
 65 58  1  0
 66 56  1  0
 68 70  2  0
 69 68  1  0
 71 69  1  0
 72 81  2  0
 72 77  1  0
 73 69  1  0
 73 77  1  0
 74 73  1  0
 75 76  1  0
 75 74  1  0
 76 72  1  0
 77 78  2  0
 78 79  1  0
 80 79  2  0
 81 80  1  0
 82 56  1  0
 82 87  1  0
 82 83  1  0
 83 86  1  1
 83 84  1  0
 85 83  1  0
 87 90  1  0
 88 92  1  0
 88 87  1  0
 89 88  2  0
 92 91  1  0
 94 92  1  0
 94 95  1  0
 94 93  1  0
M  ISO  4   8 100   9 100  54 101  55 101
M  END
>  <TORSDO>  (91) 
F 25

>  <SCORE>  (91) 
-13.365

>  <name>  (91) 
94

>  <ligand_id>  (91) 
94

>  <original_smiles>  (91) 
[H]c1c([H])c([H])c2c(c1[H])C([H])([H])C([H])([H])C([H])([H])C2([H])N([H])C(=O)C1([H])N(C(=O)C([H])(N([H])C(=O)C([H])(N([H])C([H])([H])[H])C([H])([H])[H])C(C([H])([H])[H])(C([H])([H])[H])C([H])([H])[H])C([H])([H])c2c([H])c(OC([H])([H])C([H])(C([H])(N(C([H])([H])[H])C([H])(C([H])(C(=O)N3C([H])([H])C([H])([H])C([H])([H])C([H])(n4nc(-c5c([H])c([H])c(Oc6c([H])c([H])c(F)c([H])c6F)c([H])c5[H])c(C(=O)N([H])[H])c4N([H])[H])C3([H])[H])C([H])([H])[H])C([H])(C([H])([H])[H])C([H])([H])C([H])([H])[H])C([H])([H])C([H])([H])[H])[N+]([H])([H])[H])c([H])c([H])c2C1([H])[H]

>  <smiles>  (91) 
[H]c1c([H])c([H])c2c(c1[H])C([H])([H])C([H])([H])C([H])([H])C2([H])N([H])C(=O)C1([H])N(C(=O)C([H])(N([H])C(=O)C([H])(N([H])C([H])([H])[H])C([H])([H])[H])C(C([H])([H])[H])(C([H])([H])[H])C([H])([H])[H])C([H])([H])c2c([H])c(OC([H])([H])C([H])(C([H])(N(C([H])([H])[H])C([H])(C([H])(C(=O)N3C([H])([H])C([H])([H])C([H])([H])C([H])(n4nc(-c5c([H])c([H])c(Oc6c([H])c([H])c(F)c([H])c6F)c([H])c5[H])c(C(=O)N([H])[H])c4N([H])[H])C3([H])[H])C([H])([H])[H])C([H])(C([H])([H])[H])C([H])([H])C([H])([H])[H])C([H])([H])C([H])([H])[H])[N+]([H])([H])[H])c([H])c([H])c2C1([H])[H]

$$$$
95:0:0
     RDKit          3D

 94101  0  0  1  0  0  0  0  0999 V2000
  -28.8250  -21.9410   20.4260 C   0  0  0  0  0  2  0  0  0  0  0  0
  -29.1690  -23.5980   20.4970 C   0  0  0  0  0  3  0  0  0  0  0  0
  -29.7460  -23.9690   21.8100 N   0  0  0  0  0  4  0  0  0  0  0  0
  -29.1490  -23.7110   22.5790 H   0  0  0  0  0  0  0  0  0  0  0  0
  -29.8310  -24.9720   21.8370 H   0  0  0  0  0  0  0  0  0  0  0  0
  -30.6700  -23.6150   21.9680 H   0  0  0  0  0  0  0  0  0  0  0  0
  -28.0340  -24.7790   20.1930 C   0  0  0  0  0  2  0  0  0  0  0  0
  -28.2800  -26.2990   20.3170 O   0  0  0  0  0  0  0  0  0  0  0  0
  -24.5730  -31.9090   23.2350 C   0  0  0  0  0  0  0  0  0  0  0  0
  -27.2000  -27.2390   20.2340 C   0  0  0  0  0  0  0  0  0  0  0  0
  -23.3860  -30.5050   21.5920 C   0  0  0  0  0  3  0  0  0  0  0  0
  -24.8490  -28.9370   20.1810 C   0  0  0  0  0  0  0  0  0  0  0  0
  -25.9360  -30.7980   21.4320 C   0  0  0  0  0  2  0  0  0  0  0  0
  -26.0220  -29.4060   20.7890 C   0  0  0  0  0  0  0  0  0  0  0  0
  -27.1960  -28.5730   20.8000 C   0  0  0  0  0  3  0  0  0  0  0  0
  -26.0020  -26.8630   19.5850 C   0  0  0  0  0  3  0  0  0  0  0  0
  -24.8500  -27.6770   19.5650 C   0  0  0  0  0  3  0  0  0  0  0  0
  -23.6150  -29.8220   20.2170 C   0  0  0  0  0  2  0  0  0  0  0  0
  -24.6510  -31.0920   22.1420 N   0  0  0  0  0  0  0  0  0  0  0  0
  -23.4850  -32.1870   23.7610 O   0  0  0  0  0  0  0  0  0  0  0  0
  -22.7120  -29.4940   22.5540 C   0  0  0  0  0  0  0  0  0  0  0  0
  -21.3870  -29.3110   22.4190 N   0  0  0  0  0  0  0  0  0  0  0  0
  -23.3840  -28.8770   23.3840 O   0  0  0  0  0  0  0  0  0  0  0  0
  -20.9010  -29.8620   21.7260 H   0  0  0  0  0  0  0  0  0  0  0  0
  -18.0090  -28.1000   22.9120 C   0  0  0  0  0  0  0  0  0  0  0  0
  -20.5660  -28.3740   23.1890 C   0  0  0  0  0  3  0  0  0  0  0  0
  -20.6760  -26.9400   22.6180 C   0  0  0  0  0  2  0  0  0  0  0  0
  -19.5790  -26.6100   21.6000 C   0  0  0  0  0  2  0  0  0  0  0  0
  -18.1940  -26.7510   22.2380 C   0  0  0  0  0  2  0  0  0  0  0  0
  -19.1230  -28.8690   23.3440 C   0  0  0  0  0  0  0  0  0  0  0  0
  -18.8950  -30.1300   23.9350 C   0  0  0  0  0  3  0  0  0  0  0  0
  -17.5880  -30.6240   24.0990 C   0  0  0  0  0  3  0  0  0  0  0  0
  -16.4890  -29.8530   23.6820 C   0  0  0  0  0  3  0  0  0  0  0  0
  -16.7000  -28.5930   23.0950 C   0  0  0  0  0  3  0  0  0  0  0  0
  -25.8480  -32.5510   23.8640 C   0  0  0  0  0  3  0  0  0  0  0  0
  -26.3460  -31.8010   25.1610 C   0  0  1  0  0  0  0  0  0  0  0  0
  -25.2400  -31.5770   26.2180 C   0  0  0  0  0  1  0  0  0  0  0  0
  -26.9360  -30.4170   24.8010 C   0  0  0  0  0  1  0  0  0  0  0  0
  -27.4860  -32.6060   25.8280 C   0  0  0  0  0  1  0  0  0  0  0  0
  -25.5340  -33.9550   24.1750 N   0  0  0  0  0  0  0  0  0  0  0  0
  -25.8610  -35.0000   23.4030 C   0  0  0  0  0  0  0  0  0  0  0  0
  -26.5250  -34.8860   22.3710 O   0  0  0  0  0  0  0  0  0  0  0  0
  -24.9440  -34.1180   24.9780 H   0  0  0  0  0  0  0  0  0  0  0  0
  -24.1210  -36.7840   23.0480 C   0  0  0  0  0  1  0  0  0  0  0  0
  -25.3740  -36.3940   23.8490 C   0  0  0  0  0  3  0  0  0  0  0  0
  -27.5110  -37.3050   24.6430 C   0  0  0  0  0  1  0  0  0  0  0  0
  -26.3990  -37.4490   23.7060 N   0  0  0  0  0  0  0  0  0  0  0  0
  -25.9890  -38.3690   23.8420 H   0  0  0  0  0  0  0  0  0  0  0  0
  -29.8970  -20.6390   20.3240 C   0  0  0  0  0  3  0  0  0  0  0  0
  -30.7710  -20.5960   21.5090 N   0  0  0  0  0  4  0  0  0  0  0  0
  -30.2490  -20.4480   22.3550 H   0  0  0  0  0  0  0  0  0  0  0  0
  -31.3220  -21.4290   21.5910 H   0  0  0  0  0  0  0  0  0  0  0  0
  -31.4260  -19.8390   21.4230 H   0  0  0  0  0  0  0  0  0  0  0  0
  -28.1360  -18.7460   20.7860 C   0  0  0  0  0  1  0  0  0  0  0  0
  -29.4190  -19.0620   20.0020 C   0  0  0  0  0  3  0  0  0  0  0  0
  -30.4300  -17.7160   20.1040 C   0  0  0  0  0  2  0  0  0  0  0  0
  -30.7010  -15.0190   19.9340 C   0  0  0  0  0  0  0  0  0  0  0  0
  -30.5100  -12.6360   19.1150 C   0  0  0  0  0  2  0  0  0  0  0  0
  -29.5210  -12.5070   17.9330 C   0  0  0  0  0  2  0  0  0  0  0  0
  -28.0720  -12.3380   18.4380 C   0  0  0  0  0  2  0  0  0  0  0  0
  -27.7060  -13.3150   19.5860 C   0  0  0  0  0  3  0  0  0  0  0  0
  -28.8220  -13.4120   20.6510 C   0  0  0  0  0  2  0  0  0  0  0  0
  -30.0620  -13.7800   19.9520 N   0  0  0  0  0  0  0  0  0  0  0  0
  -31.9250  -15.0270   19.7700 O   0  0  0  0  0  0  0  0  0  0  0  0
  -29.0410  -16.3050   18.6960 C   0  0  0  0  0  1  0  0  0  0  0  0
  -29.9640  -16.2380   19.8360 N   0  0  0  0  0  0  0  0  0  0  0  0
  -25.3910  -13.9500   20.4730 C   0  0  0  0  0  0  0  0  0  0  0  0
  -24.3250  -13.1940   20.8740 C   0  0  0  0  0  0  0  0  0  0  0  0
  -24.7520  -11.8320   20.7810 C   0  0  0  0  0  0  0  0  0  0  0  0
  -26.3960  -13.0480   20.1570 N   0  0  0  0  0  0  0  0  0  0  0  0
  -26.0240  -11.7690   20.4080 N   0  0  0  0  0  0  0  0  0  0  0  0
  -24.0040  -10.5850   20.9700 C   0  0  0  0  0  0  0  0  0  0  0  0
  -24.4360   -9.5990   21.8830 C   0  0  0  0  0  3  0  0  0  0  0  0
  -23.6910   -8.4130   22.0590 C   0  0  0  0  0  3  0  0  0  0  0  0
  -22.4990   -8.2090   21.3240 C   0  0  0  0  0  0  0  0  0  0  0  0
  -22.0860   -9.1850   20.4000 C   0  0  0  0  0  3  0  0  0  0  0  0
  -22.8310  -10.3620   20.2220 C   0  0  0  0  0  3  0  0  0  0  0  0
  -21.7220   -7.0790   21.4150 O   0  0  0  0  0  0  0  0  0  0  0  0
  -21.6470   -6.3510   22.5750 C   0  0  0  0  0  0  0  0  0  0  0  0
  -21.2010   -6.9230   23.7880 C   0  0  0  0  0  3  0  0  0  0  0  0
  -21.0770   -6.1200   24.9410 C   0  0  0  0  0  3  0  0  0  0  0  0
  -21.3830   -4.7470   24.8800 C   0  0  0  0  0  0  0  0  0  0  0  0
  -21.8160   -4.1760   23.6720 C   0  0  0  0  0  3  0  0  0  0  0  0
  -21.9470   -4.9750   22.5220 C   0  0  0  0  0  0  0  0  0  0  0  0
  -22.3470   -4.4160   21.3540 F   0  0  0  0  0  0  0  0  0  0  0  0
  -21.2570   -3.9730   25.9840 F   0  0  0  0  0  0  0  0  0  0  0  0
  -22.9570  -13.6980   21.2280 C   0  0  0  0  0  0  0  0  0  0  0  0
  -22.2590  -13.0010   22.1170 N   0  0  0  0  0  0  0  0  0  0  0  0
  -22.5180  -14.7460   20.7510 O   0  0  0  0  0  0  0  0  0  0  0  0
  -22.6270  -12.1540   22.5260 H   0  0  0  0  0  0  0  0  0  0  0  0
  -21.3410  -13.3180   22.3960 H   0  0  0  0  0  0  0  0  0  0  0  0
  -25.5800  -15.3220   20.3270 N   0  0  0  0  0  0  0  0  0  0  0  0
  -24.8380  -15.9890   20.5100 H   0  0  0  0  0  0  0  0  0  0  0  0
  -26.4340  -15.7550   20.0080 H   0  0  0  0  0  0  0  0  0  0  0  0
  1  2  1  0
  2  7  1  0
  2  3  1  0
  3  5  1  0
  3  6  1  0
  3  4  1  0
  7  8  1  0
  9 20  2  0
 10  8  1  0
 10 15  1  0
 11 19  1  0
 11 21  1  0
 12 18  1  0
 12 14  1  0
 13 19  1  0
 14 15  2  0
 14 13  1  0
 16 10  2  0
 17 16  1  0
 17 12  2  0
 18 11  1  0
 19  9  1  0
 21 23  2  0
 22 21  1  0
 24 22  1  0
 25 34  2  0
 25 30  1  0
 26 22  1  0
 26 30  1  0
 27 26  1  0
 28 29  1  0
 28 27  1  0
 29 25  1  0
 30 31  2  0
 31 32  1  0
 33 32  2  0
 34 33  1  0
 35  9  1  0
 35 40  1  0
 35 36  1  0
 36 39  1  1
 36 37  1  0
 38 36  1  0
 40 43  1  0
 41 45  1  0
 41 40  1  0
 42 41  2  0
 45 44  1  0
 47 48  1  0
 47 45  1  0
 47 46  1  0
 49  1  1  0
 49 50  1  0
 50 52  1  0
 50 51  1  0
 53 50  1  0
 55 56  1  0
 55 49  1  0
 55 54  1  0
 57 63  1  0
 58 63  1  0
 59 60  1  0
 59 58  1  0
 61 60  1  0
 61 70  1  0
 61 62  1  0
 63 62  1  0
 64 57  2  0
 65 66  1  0
 66 57  1  0
 66 56  1  0
 67 68  2  0
 68 87  1  0
 69 68  1  0
 69 72  1  0
 70 71  1  0
 70 67  1  0
 71 69  2  0
 72 73  1  0
 73 74  2  0
 75 78  1  0
 75 74  1  0
 76 75  2  0
 77 76  1  0
 77 72  2  0
 78 79  1  0
 79 80  1  0
 80 81  2  0
 82 81  1  0
 82 86  1  0
 83 82  2  0
 84 79  2  0
 84 83  1  0
 85 84  1  0
 87 88  1  0
 88 91  1  0
 88 90  1  0
 89 87  2  0
 92 67  1  0
 92 93  1  0
 94 92  1  0
M  ISO  4   7 101   8 101  57 100  66 100
M  END
>  <TORSDO>  (92) 
F 23

>  <SCORE>  (92) 
-12.567

>  <name>  (92) 
95

>  <ligand_id>  (92) 
95

>  <original_smiles>  (92) 
[H]c1c([H])c([H])c2c(c1[H])C([H])([H])C([H])([H])C([H])([H])C2([H])N([H])C(=O)C1([H])N(C(=O)C([H])(N([H])C(=O)C([H])(N([H])C([H])([H])[H])C([H])([H])[H])C(C([H])([H])[H])(C([H])([H])[H])C([H])([H])[H])C([H])([H])c2c([H])c(OC([H])([H])C([H])(C([H])([H])C([H])(C([H])(C([H])([H])[H])C([H])([H])N(C(=O)N3C([H])([H])C([H])([H])C([H])([H])C([H])(n4nc(-c5c([H])c([H])c(Oc6c([H])c([H])c(F)c([H])c6F)c([H])c5[H])c(C(=O)N([H])[H])c4N([H])[H])C3([H])[H])C([H])([H])[H])[N+]([H])([H])[H])[N+]([H])([H])[H])c([H])c([H])c2C1([H])[H]

>  <smiles>  (92) 
[H]c1c([H])c([H])c2c(c1[H])C([H])([H])C([H])([H])C([H])([H])C2([H])N([H])C(=O)C1([H])N(C(=O)C([H])(N([H])C(=O)C([H])(N([H])C([H])([H])[H])C([H])([H])[H])C(C([H])([H])[H])(C([H])([H])[H])C([H])([H])[H])C([H])([H])c2c([H])c(OC([H])([H])C([H])(C([H])([H])C([H])(C([H])(C([H])([H])[H])C([H])([H])N(C(=O)N3C([H])([H])C([H])([H])C([H])([H])C([H])(n4nc(-c5c([H])c([H])c(Oc6c([H])c([H])c(F)c([H])c6F)c([H])c5[H])c(C(=O)N([H])[H])c4N([H])[H])C3([H])[H])C([H])([H])[H])[N+]([H])([H])[H])[N+]([H])([H])[H])c([H])c([H])c2C1([H])[H]

$$$$
